_cell_length_a 26.376
_cell_length_b 26.400000238300095
_cell_length_c 46.67800035477134
_cell_angle_alpha 90.00700052986613
_cell_angle_beta 89.99899961309502
_cell_angle_gamma 90.45000003183146
_symmetry_space_group_name_H-M         'P 1'
_symmetry_Int_Tables_number            1
loop_
_symmetry_equiv_pos_as_xyz
   'x, y, z'
                         
loop_
_atom_site_label
_atom_site_type_symbol
_atom_site_fract_x 
_atom_site_fract_y
_atom_site_fract_z
_atom_site_charge
Zn Zn 0.13146 0.187085 0.38482 0.90689
Zn Zn 0.142447 0.179632 0.432294 0.90689
Zn Zn 0.366219 0.326371 0.132459 0.90689
Zn Zn 0.353695 0.329259 0.180732 0.90689
H_ H_ 0.317865 0.205441 0.445219 0.11455
H_ H_ 0.372359 0.157478 0.349129 0.11455
H_ H_ 0.278442 0.163208 0.359112 0.11455
H_ H_ 0.402458 0.191051 0.465072 0.11455
H_ H_ 0.496114 0.18804 0.45417 0.11455
H_ H_ 0.464053 0.16477 0.365276 0.11455
H_ H_ 0.143839 0.0128573 0.446905 0.11455
H_ H_ 0.13506 0.435425 0.346779 0.11455
H_ H_ 0.128178 0.0301114 0.355435 0.11455
H_ H_ 0.14759 0.428312 0.463196 0.11455
H_ H_ 0.15468 0.337228 0.457226 0.11455
H_ H_ 0.137239 0.349502 0.367472 0.11455
H_ H_ 0.0851516 0.096369 0.46639 0.11455
H_ H_ 0.0447324 0.0954239 0.0128719 0.11455
H_ H_ 0.0827294 0.140473 0.0569514 0.11455
H_ H_ 0.189011 0.247366 0.475185 0.11455
H_ H_ 0.22004 0.309783 0.017976 0.11455
H_ H_ 0.198282 0.27986 0.0669195 0.11455
H_ H_ 0.00608363 0.195165 0.126579 0.11455
H_ H_ 0.00154544 0.191977 0.178886 0.11455
H_ H_ 0.263084 0.168428 0.134286 0.11455
H_ H_ 0.25482 0.148846 0.186841 0.11455
H_ H_ 0.0629195 0.0862669 0.253198 0.11455
H_ H_ 0.025585 0.0800243 0.30177 0.11455
H_ H_ 0.06594 0.126698 0.341984 0.11455
H_ H_ 0.180174 0.228103 0.260181 0.11455
H_ H_ 0.213558 0.277286 0.300584 0.11455
H_ H_ 0.189514 0.249888 0.3516 0.11455
H_ H_ 0.186891 0.314603 0.193779 0.11455
H_ H_ 0.109167 0.34074 0.0988941 0.11455
H_ H_ 0.2073 0.340045 0.104305 0.11455
H_ H_ 0.105071 0.311866 0.216247 0.11455
H_ H_ 0.00901757 0.315797 0.211821 0.11455
H_ H_ 0.0272103 0.336646 0.119198 0.11455
H_ H_ 0.331349 0.492468 0.187061 0.11455
H_ H_ 0.355029 0.0740966 0.0993456 0.11455
H_ H_ 0.413463 0.477704 0.108939 0.11455
H_ H_ 0.389539 0.0825939 0.215371 0.11455
H_ H_ 0.401973 0.171121 0.208707 0.11455
H_ H_ 0.376191 0.155245 0.119475 0.11455
H_ H_ 0.4025 0.395577 0.215877 0.11455
H_ H_ 0.43249 0.41725 0.263713 0.11455
H_ H_ 0.402145 0.375401 0.307176 0.11455
H_ H_ 0.305426 0.251204 0.226127 0.11455
H_ H_ 0.294199 0.186636 0.263734 0.11455
H_ H_ 0.314239 0.214803 0.316748 0.11455
H_ H_ 0.488167 0.281704 0.374031 0.11455
H_ H_ 0.502361 0.294209 0.425575 0.11455
H_ H_ 0.2403 0.3419 0.386461 0.11455
H_ H_ 0.253755 0.357604 0.440229 0.11455
H_ H_ 0.436116 0.414306 0.502848 0.11455
H_ H_ 0.465836 0.425914 0.0446633 0.11455
H_ H_ 0.428363 0.379307 0.0866134 0.11455
H_ H_ 0.34285 0.24291 0.0114575 0.11455
H_ H_ 0.306099 0.204507 0.0555894 0.11455
H_ H_ 0.316397 0.248701 0.100198 0.11455
C_ C_ 0.235038 0.186559 0.4084 0.68181
C_ C_ 0.292365 0.185278 0.403661 -0.05681
C_ C_ 0.329554 0.192427 0.424304 -0.08735
C_ C_ 0.380733 0.187073 0.419432 -0.05681
C_ C_ 0.396154 0.177217 0.391595 -0.05681
C_ C_ 0.360257 0.168768 0.370383 -0.08735
C_ C_ 0.307656 0.171679 0.376382 -0.08735
C_ C_ 0.415014 0.191332 0.442565 -0.08735
C_ C_ 0.467374 0.185811 0.437183 -0.08735
C_ C_ 0.483293 0.182037 0.408593 -0.05681
C_ C_ 0.448429 0.173467 0.386446 -0.08735
C_ C_ 0.129153 0.280071 0.411766 0.68181
C_ C_ 0.136794 0.0850219 0.40319 0.68181
C_ C_ 0.133105 0.0287786 0.401674 -0.05681
C_ C_ 0.144247 0.496266 0.420956 -0.08735
C_ C_ 0.14313 0.442884 0.417766 -0.05681
C_ C_ 0.135535 0.420782 0.390432 -0.05681
C_ C_ 0.143259 0.452147 0.366827 -0.08735
C_ C_ 0.14146 0.50497 0.369577 -0.08735
C_ C_ 0.145854 0.41234 0.441993 -0.08735
C_ C_ 0.144811 0.360937 0.439406 -0.08735
C_ C_ 0.137576 0.336895 0.412977 -0.05681
C_ C_ 0.137993 0.368396 0.388231 -0.08735
C_ C_ 0.0389653 0.176499 0.408926 0.68181
C_ C_ 0.101691 0.119596 0.48433 0.1947
C_ C_ 0.0730591 0.125055 0.0106397 -0.08735
C_ C_ 0.0949305 0.147949 0.0352758 -0.08735
C_ C_ 0.131525 0.187981 0.031171 -0.05681
C_ C_ 0.151549 0.200451 1.00292569 0.18498
C_ C_ 0.183409 0.230961 0.495543 -0.08735
C_ C_ 0.196773 0.275391 0.0221501 -0.08735
C_ C_ 0.181 0.262062 0.0495042 -0.08735
C_ C_ 0.146513 0.219918 0.0542081 0.18498
C_ C_ 0.181652 0.184842 0.0979412 0.44287
C_ C_ 0.0948647 0.211957 0.0978847 0.44287
C_ C_ 0.0892574 0.196064 0.126075 -0.05681
C_ C_ 0.0419752 0.194285 0.139041 -0.08735
C_ C_ 0.036155 0.183362 0.168562 -0.08735
C_ C_ 0.0815053 0.17153 0.184639 -0.05681
C_ C_ 0.128152 0.171392 0.171636 -0.05681
C_ C_ 0.132549 0.180385 0.1421 -0.05681
C_ C_ 0.179317 0.177251 0.128031 -0.05681
C_ C_ 0.225549 0.170263 0.144833 -0.08735
C_ C_ 0.221851 0.160511 0.174804 -0.08735
C_ C_ 0.173812 0.163802 0.188886 -0.05681
C_ C_ 0.167223 0.153998 0.218841 0.44287
C_ C_ 0.0794592 0.170115 0.214897 0.44287
C_ C_ 0.114016 0.146181 0.261618 0.18498
C_ C_ 0.0762081 0.1128 0.268809 -0.08735
C_ C_ 0.056645 0.107837 0.296999 -0.08735
C_ C_ 0.0779937 0.132903 0.320103 -0.08735
C_ C_ 0.115978 0.168364 0.314165 0.18498
C_ C_ 0.133889 0.177545 0.284822 -0.05681
C_ C_ 0.17308 0.213099 0.281065 -0.08735
C_ C_ 0.188102 0.242748 0.305058 -0.08735
C_ C_ 0.172067 0.231606 0.332528 0.1947
C_ C_ 0.25932 0.328122 0.154265 0.68181
C_ C_ 0.202457 0.321875 0.148925 -0.05681
C_ C_ 0.170536 0.317386 0.173206 -0.08735
C_ C_ 0.118709 0.322586 0.171823 -0.05681
C_ C_ 0.0963931 0.331392 0.143979 -0.05681
C_ C_ 0.128233 0.335149 0.120041 -0.08735
C_ C_ 0.180661 0.331907 0.122622 -0.08735
C_ C_ 0.0877713 0.319322 0.195596 -0.08735
C_ C_ 0.0345712 0.317139 0.193137 -0.08735
C_ C_ 0.01146 0.321796 0.165346 -0.05681
C_ C_ 0.0437472 0.330766 0.140738 -0.08735
C_ C_ 0.369208 0.228145 0.162506 0.68181
C_ C_ 0.360337 0.42394 0.148851 0.68181
C_ C_ 0.366543 0.479632 0.146998 -0.05681
C_ C_ 0.368355 0.0108377 0.174407 -0.08735
C_ C_ 0.372091 0.0643228 0.171859 -0.05681
C_ C_ 0.369799 0.0854266 0.14378 -0.05681
C_ C_ 0.36526 0.054843 0.120102 -0.08735
C_ C_ 0.397148 0.50371 0.125358 -0.08735
C_ C_ 0.380103 0.0971032 0.195455 -0.08735
C_ C_ 0.384844 0.149429 0.191411 -0.08735
C_ C_ 0.374004 0.170709 0.164478 -0.05681
C_ C_ 0.373085 0.138299 0.141381 -0.08735
C_ C_ 0.460393 0.325862 0.158405 0.68181
C_ C_ 0.385786 0.37774 0.234925 0.1947
C_ C_ 0.404352 0.388988 0.263044 -0.08735
C_ C_ 0.386206 0.365408 0.286435 -0.08735
C_ C_ 0.35575 0.321553 0.281993 -0.05681
C_ C_ 0.340786 0.307333 0.252989 0.18498
C_ C_ 0.320877 0.260222 0.246483 -0.08735
C_ C_ 0.311111 0.225867 0.269903 -0.08735
C_ C_ 0.321377 0.24034 0.298367 -0.08735
C_ C_ 0.342477 0.288446 0.304197 0.18498
C_ C_ 0.313899 0.317695 0.350846 0.44287
C_ C_ 0.399079 0.297838 0.345707 0.44287
C_ C_ 0.409606 0.3071 0.375074 -0.05681
C_ C_ 0.456089 0.296994 0.387316 -0.08735
C_ C_ 0.464459 0.304149 0.416322 -0.08735
C_ C_ 0.423353 0.315275 0.434664 -0.05681
C_ C_ 0.375622 0.325573 0.422267 -0.05681
C_ C_ 0.368769 0.31985 0.392167 -0.05681
C_ C_ 0.318547 0.325137 0.380842 -0.05681
C_ C_ 0.278928 0.341752 0.396489 -0.08735
C_ C_ 0.285224 0.345613 0.426477 -0.08735
C_ C_ 0.333604 0.33744 0.439703 -0.05681
C_ C_ 0.339563 0.340418 0.470312 0.44287
C_ C_ 0.426795 0.316907 0.465338 0.44287
C_ C_ 0.3996 0.330714 0.00857465 0.18498
C_ C_ 0.428501 0.375105 0.0134948 -0.08735
C_ C_ 0.436547 0.394657 0.0417794 -0.08735
C_ C_ 0.417061 0.369398 0.0658679 -0.08735
C_ C_ 0.385676 0.327962 0.0610273 0.18498
C_ C_ 0.377291 0.307562 0.0343471 -0.05681
C_ C_ 0.348461 0.261316 0.0325185 -0.08735
C_ C_ 0.330017 0.238185 0.0563625 -0.08735
C_ C_ 0.336668 0.262523 0.0820244 0.1947
N_ N_ 0.13169 0.162445 0.479177 -0.29468
N_ N_ 0.139228 0.202001 0.0835769 -0.17154
N_ N_ 0.12007 0.159983 0.231232 -0.17154
N_ N_ 0.135383 0.195236 0.336512 -0.29468
N_ N_ 0.355235 0.337001 0.230257 -0.29468
N_ N_ 0.352071 0.302458 0.333701 -0.17154
N_ N_ 0.386615 0.329507 0.482415 -0.17154
N_ N_ 0.363944 0.304896 0.0854187 -0.29468
O_ O_ 0.216514 0.188606 0.434195 -0.58347
O_ O_ 0.205858 0.184954 0.386692 -0.58347
O_ O_ 0.134407 0.253264 0.434733 -0.58347
O_ O_ 0.126203 0.25803 0.388299 -0.58347
O_ O_ 0.151754 0.10533 0.426292 -0.58347
O_ O_ 0.134812 0.110382 0.381136 -0.58347
O_ O_ 0.0667251 0.170609 0.430558 -0.58347
O_ O_ 0.0600253 0.180747 0.385071 -0.58347
O_ O_ 0.0564588 0.231297 0.0828952 -0.46727
O_ O_ 0.22533 0.177173 0.0835326 -0.46727
O_ O_ 0.0377727 0.188256 0.226919 -0.46727
O_ O_ 0.203995 0.136055 0.234617 -0.46727
O_ O_ 0.276403 0.331348 0.180545 -0.58347
O_ O_ 0.29149 0.324398 0.133088 -0.58347
O_ O_ 0.352716 0.250365 0.184402 -0.58347
O_ O_ 0.376331 0.251454 0.139742 -0.58347
O_ O_ 0.354069 0.399577 0.172368 -0.58347
O_ O_ 0.365483 0.400224 0.126237 -0.58347
O_ O_ 0.430914 0.330611 0.18061 -0.58347
O_ O_ 0.441043 0.325631 0.133594 -0.58347
O_ O_ 0.431778 0.270958 0.331335 -0.46727
O_ O_ 0.270652 0.324754 0.339122 -0.46727
O_ O_ 0.469566 0.304809 0.477399 -0.46727
O_ O_ 0.302865 0.35742 0.487215 -0.46727
Zn Zn 0.132125 0.190447 0.884931 0.90689
Zn Zn 0.137497 0.180026 0.933693 0.90689
Zn Zn 0.376462 0.316225 0.631924 0.90689
Zn Zn 0.365948 0.320197 0.680073 0.90689
H_ H_ 0.309122 0.186399 0.947281 0.11455
H_ H_ 0.377181 0.171651 0.847818 0.11455
H_ H_ 0.282165 0.168098 0.856375 0.11455
H_ H_ 0.393909 0.180188 0.964937 0.11455
H_ H_ 0.484524 0.194977 0.959034 0.11455
H_ H_ 0.462937 0.157842 0.866859 0.11455
H_ H_ 0.143964 0.015025 0.944201 0.11455
H_ H_ 0.10447 0.432776 0.856217 0.11455
H_ H_ 0.147728 0.0276813 0.851921 0.11455
H_ H_ 0.167607 0.43799 0.96716 0.11455
H_ H_ 0.156122 0.341853 0.965972 0.11455
H_ H_ 0.108108 0.351265 0.878654 0.11455
H_ H_ 0.0846836 0.111617 0.965796 0.11455
H_ H_ 0.0673429 0.0714679 0.51778 0.11455
H_ H_ 0.110547 0.115109 0.556159 0.11455
H_ H_ 0.198334 0.251205 0.978656 0.11455
H_ H_ 0.2283 0.291451 0.513051 0.11455
H_ H_ 0.213978 0.266966 0.56325 0.11455
H_ H_ 0.0221878 0.21368 0.625022 0.11455
H_ H_ 0.00843433 0.187782 0.674164 0.11455
H_ H_ 0.271905 0.180444 0.642654 0.11455
H_ H_ 0.255843 0.170863 0.696956 0.11455
H_ H_ 0.0760403 0.0959255 0.75259 0.11455
H_ H_ 0.0564023 0.071848 0.802146 0.11455
H_ H_ 0.0762141 0.128813 0.842913 0.11455
H_ H_ 0.155069 0.260259 0.76259 0.11455
H_ H_ 0.188633 0.308535 0.804844 0.11455
H_ H_ 0.178823 0.272846 0.85247 0.11455
H_ H_ 0.195977 0.301166 0.691451 0.11455
H_ H_ 0.129775 0.316141 0.595585 0.11455
H_ H_ 0.220508 0.32063 0.603525 0.11455
H_ H_ 0.107663 0.320024 0.713251 0.11455
H_ H_ 0.0176824 0.320599 0.704743 0.11455
H_ H_ 0.0404212 0.314309 0.61404 0.11455
H_ H_ 0.379426 0.486874 0.693981 0.11455
H_ H_ 0.319639 0.0742894 0.607175 0.11455
H_ H_ 0.345215 0.474925 0.603687 0.11455
H_ H_ 0.421969 0.0674011 0.709793 0.11455
H_ H_ 0.41856 0.161607 0.708135 0.11455
H_ H_ 0.354545 0.154496 0.624098 0.11455
H_ H_ 0.423121 0.383442 0.717468 0.11455
H_ H_ 0.431976 0.416426 0.768734 0.11455
H_ H_ 0.384677 0.379443 0.805707 0.11455
H_ H_ 0.301222 0.257937 0.721849 0.11455
H_ H_ 0.257433 0.213201 0.761469 0.11455
H_ H_ 0.281641 0.229909 0.812989 0.11455
H_ H_ 0.485606 0.297688 0.867175 0.11455
H_ H_ 0.496829 0.305494 0.921814 0.11455
H_ H_ 0.236478 0.325852 0.888937 0.11455
H_ H_ 0.25047 0.338837 0.941844 0.11455
H_ H_ 0.445695 0.395096 -0.005265999999999993 0.11455
H_ H_ 0.451687 0.436857 0.552473 0.11455
H_ H_ 0.423508 0.382446 0.59245 0.11455
H_ H_ 0.336153 0.258382 0.510158 0.11455
H_ H_ 0.305738 0.209297 0.549443 0.11455
H_ H_ 0.332011 0.230719 0.598853 0.11455
C_ C_ 0.235088 0.189374 0.908814 0.68181
C_ C_ 0.290447 0.180239 0.902013 -0.05681
C_ C_ 0.323567 0.181036 0.925561 -0.08735
C_ C_ 0.375145 0.178182 0.920673 -0.05681
C_ C_ 0.395517 0.172601 0.89288 -0.05681
C_ C_ 0.362229 0.16722 0.870424 -0.08735
C_ C_ 0.309077 0.170349 0.874481 -0.08735
C_ C_ 0.408341 0.179282 0.943522 -0.08735
C_ C_ 0.461587 0.181211 0.941126 -0.08735
C_ C_ 0.482499 0.176111 0.912794 -0.05681
C_ C_ 0.447776 0.165102 0.889158 -0.08735
C_ C_ 0.127055 0.283397 0.91991 0.68181
C_ C_ 0.14494 0.0863885 0.899693 0.68181
C_ C_ 0.144658 0.0288522 0.897475 -0.05681
C_ C_ 0.145998 0.502914 0.92546 -0.08735
C_ C_ 0.142835 0.447756 0.924709 -0.05681
C_ C_ 0.132374 0.422514 0.898253 -0.05681
C_ C_ 0.117759 0.452017 0.87471 -0.08735
C_ C_ 0.114135 0.506099 0.875407 -0.08735
C_ C_ 0.152096 0.417659 0.948639 -0.08735
C_ C_ 0.147254 0.363867 0.946967 -0.08735
C_ C_ 0.133718 0.340668 0.921355 -0.05681
C_ C_ 0.123323 0.37081 0.897641 -0.08735
C_ C_ 0.0346146 0.18112 0.909947 0.68181
C_ C_ 0.0939573 0.137737 0.983143 0.1947
C_ C_ 0.0899274 0.105508 0.512193 -0.08735
C_ C_ 0.114114 0.128976 0.534572 -0.08735
C_ C_ 0.146277 0.171701 0.529695 -0.05681
C_ C_ 0.152038 0.188898 0.501132 0.18498
C_ C_ 0.182922 0.24063 0.999565 -0.08735
C_ C_ 0.206908 0.25645 0.518242 -0.08735
C_ C_ 0.198703 0.242509 0.54622 -0.08735
C_ C_ 0.16531 0.201982 0.552793 0.18498
C_ C_ 0.196832 0.181353 0.601538 0.44287
C_ C_ 0.10838 0.191582 0.595098 0.44287
C_ C_ 0.100977 0.188527 0.625016 -0.05681
C_ C_ 0.0525352 0.199057 0.638203 -0.08735
C_ C_ 0.0451724 0.19326 0.667248 -0.08735
C_ C_ 0.0874395 0.191139 0.686144 -0.05681
C_ C_ 0.134256 0.184122 0.67419 -0.05681
C_ C_ 0.142652 0.184984 0.644139 -0.05681
C_ C_ 0.19131 0.185157 0.632336 -0.05681
C_ C_ 0.234092 0.183733 0.651303 -0.08735
C_ C_ 0.225184 0.176236 0.680747 -0.08735
C_ C_ 0.176116 0.17276 0.69169 -0.05681
C_ C_ 0.168497 0.163973 0.720873 0.44287
C_ C_ 0.0806612 0.185232 0.716332 0.44287
C_ C_ 0.114372 0.164049 0.764038 0.18498
C_ C_ 0.0882772 0.119638 0.769324 -0.08735
C_ C_ 0.080042 0.105257 0.798182 -0.08735
C_ C_ 0.09079 0.13769 0.821942 -0.08735
C_ C_ 0.118765 0.180588 0.816468 0.18498
C_ C_ 0.128658 0.197239 0.787811 -0.05681
C_ C_ 0.152996 0.245374 0.784344 -0.08735
C_ C_ 0.168261 0.274286 0.807858 -0.08735
C_ C_ 0.160036 0.254591 0.834699 0.1947
C_ C_ 0.271777 0.318645 0.653708 0.68181
C_ C_ 0.215802 0.320866 0.649434 -0.05681
C_ C_ 0.182104 0.315076 0.671511 -0.08735
C_ C_ 0.129584 0.324896 0.668956 -0.05681
C_ C_ 0.109234 0.325138 0.640478 -0.05681
C_ C_ 0.142704 0.316827 0.617674 -0.08735
C_ C_ 0.195357 0.319149 0.621798 -0.08735
C_ C_ 0.0958378 0.320944 0.691546 -0.08735
C_ C_ 0.0428497 0.318136 0.687292 -0.08735
C_ C_ 0.0226304 0.318674 0.659931 -0.05681
C_ C_ 0.0553118 0.321492 0.635924 -0.08735
C_ C_ 0.379655 0.221371 0.664302 0.68181
C_ C_ 0.364087 0.416866 0.651966 0.68181
C_ C_ 0.362451 0.474907 0.649529 -0.05681
C_ C_ 0.375479 0.0044642 0.671679 -0.08735
C_ C_ 0.384055 0.0575175 0.668712 -0.05681
C_ C_ 0.362945 0.0821842 0.645424 -0.05681
C_ C_ 0.336234 0.054735 0.624754 -0.08735
C_ C_ 0.35346 0.499456 0.622448 -0.08735
C_ C_ 0.408702 0.0874737 0.690885 -0.08735
C_ C_ 0.40893 0.140496 0.688808 -0.08735
C_ C_ 0.383755 0.165652 0.665902 -0.05681
C_ C_ 0.364118 0.136677 0.643113 -0.08735
C_ C_ 0.469284 0.321003 0.656353 0.68181
C_ C_ 0.399581 0.37122 0.734993 0.1947
C_ C_ 0.40812 0.386654 0.763353 -0.08735
C_ C_ 0.38323 0.361954 0.785582 -0.08735
C_ C_ 0.351982 0.320197 0.779981 -0.05681
C_ C_ 0.342057 0.306857 0.750006 0.18498
C_ C_ 0.310951 0.26726 0.743792 -0.08735
C_ C_ 0.286626 0.242463 0.766681 -0.08735
C_ C_ 0.300053 0.251038 0.795304 -0.08735
C_ C_ 0.329633 0.293477 0.801978 0.18498
C_ C_ 0.302713 0.311301 0.849868 0.44287
C_ C_ 0.389432 0.288588 0.841201 0.44287
C_ C_ 0.401565 0.298031 0.871032 -0.05681
C_ C_ 0.451708 0.297602 0.88322 -0.08735
C_ C_ 0.461607 0.298507 0.913271 -0.08735
C_ C_ 0.421571 0.306135 0.931791 -0.05681
C_ C_ 0.373293 0.308795 0.919493 -0.05681
C_ C_ 0.362468 0.307241 0.889584 -0.05681
C_ C_ 0.312313 0.315597 0.880021 -0.05681
C_ C_ 0.273278 0.320062 0.898634 -0.08735
C_ C_ 0.282328 0.323718 0.928218 -0.08735
C_ C_ 0.331116 0.313962 0.938783 -0.05681
C_ C_ 0.339383 0.315719 0.968734 0.44287
C_ C_ 0.428835 0.307126 0.961381 0.44287
C_ C_ 0.395673 0.344111 0.511762 0.18498
C_ C_ 0.420696 0.388779 0.518741 -0.08735
C_ C_ 0.431341 0.402767 0.547632 -0.08735
C_ C_ 0.41279 0.37242 0.570047 -0.08735
C_ C_ 0.390312 0.326604 0.564077 0.18498
C_ C_ 0.379363 0.312669 0.534924 -0.05681
C_ C_ 0.3537 0.266923 0.530111 -0.08735
C_ C_ 0.333333 0.240523 0.553218 -0.08735
C_ C_ 0.344542 0.253861 0.581264 0.1947
N_ N_ 0.135192 0.172662 0.980576 -0.29468
N_ N_ 0.156977 0.190873 0.583296 -0.17154
N_ N_ 0.123455 0.178249 0.733073 -0.17154
N_ N_ 0.134921 0.210512 0.838784 -0.29468
N_ N_ 0.370212 0.330249 0.729333 -0.29468
N_ N_ 0.342043 0.302348 0.830657 -0.17154
N_ N_ 0.388141 0.312323 0.979797 -0.17154
N_ N_ 0.375069 0.295737 0.586597 -0.29468
O_ O_ 0.215425 0.183913 0.933306 -0.58347
O_ O_ 0.206787 0.198706 0.887384 -0.58347
O_ O_ 0.133108 0.255514 0.940598 -0.58347
O_ O_ 0.120187 0.263758 0.89506 -0.58347
O_ O_ 0.142563 0.107171 0.924852 -0.58347
O_ O_ 0.143983 0.114336 0.878064 -0.58347
O_ O_ 0.059926 0.17695 0.933125 -0.58347
O_ O_ 0.0565797 0.183152 0.885245 -0.58347
O_ O_ 0.0704085 0.199899 0.578803 -0.46727
O_ O_ 0.242374 0.171837 0.59225 -0.46727
O_ O_ 0.0354506 0.188802 0.728563 -0.46727
O_ O_ 0.205928 0.149163 0.737801 -0.46727
O_ O_ 0.288558 0.320946 0.67935 -0.58347
O_ O_ 0.300328 0.303037 0.633645 -0.58347
O_ O_ 0.373368 0.246884 0.685941 -0.58347
O_ O_ 0.383775 0.243988 0.640434 -0.58347
O_ O_ 0.36033 0.395585 0.675843 -0.58347
O_ O_ 0.368849 0.38965 0.629577 -0.58347
O_ O_ 0.44086 0.322365 0.678495 -0.58347
O_ O_ 0.448874 0.324011 0.632616 -0.58347
O_ O_ 0.425397 0.272016 0.823837 -0.46727
O_ O_ 0.259881 0.329694 0.84087 -0.46727
O_ O_ 0.474552 0.301597 0.972395 -0.46727
O_ O_ 0.302957 0.331617 0.985217 -0.46727
Zn Zn 0.134453 0.683847 0.382714 0.90689
Zn Zn 0.146254 0.679894 0.430441 0.90689
Zn Zn 0.375785 0.822372 0.133322 0.90689
Zn Zn 0.360919 0.830428 0.179815 0.90689
H_ H_ 0.316175 0.687675 0.447816 0.11455
H_ H_ 0.380608 0.658992 0.348261 0.11455
H_ H_ 0.288916 0.678814 0.356483 0.11455
H_ H_ 0.401405 0.672126 0.466295 0.11455
H_ H_ 0.495449 0.683527 0.457314 0.11455
H_ H_ 0.462602 0.66515 0.366668 0.11455
H_ H_ 0.14953 0.511315 0.442696 0.11455
H_ H_ 0.116337 0.935356 0.351897 0.11455
H_ H_ 0.139479 0.527753 0.349424 0.11455
H_ H_ 0.161927 0.923339 0.464357 0.11455
H_ H_ 0.13771 0.838096 0.464305 0.11455
H_ H_ 0.124843 0.854884 0.372012 0.11455
H_ H_ 0.0904786 0.610738 0.461608 0.11455
H_ H_ 0.058999 0.578952 0.0139428 0.11455
H_ H_ 0.0968959 0.623022 0.0551 0.11455
H_ H_ 0.21056 0.744501 0.475918 0.11455
H_ H_ 0.211294 0.802542 0.0148544 0.11455
H_ H_ 0.17541 0.788134 0.0629251 0.11455
H_ H_ 0.0022599999999999287 0.705147 0.127719 0.11455
H_ H_ -0.005193000000000003 0.683575 0.17822 0.11455
H_ H_ 0.253563 0.684666 0.136485 0.11455
H_ H_ 0.246259 0.680296 0.190788 0.11455
H_ H_ 0.0562913 0.590136 0.252458 0.11455
H_ H_ 0.031305 0.578696 0.305428 0.11455
H_ H_ 0.0747908 0.624199 0.341856 0.11455
H_ H_ 0.155885 0.74396 0.256521 0.11455
H_ H_ 0.200596 0.787081 0.293178 0.11455
H_ H_ 0.183751 0.766801 0.344377 0.11455
H_ H_ 0.19195 0.805465 0.19968 0.11455
H_ H_ 0.126434 0.843426 0.101702 0.11455
H_ H_ 0.216063 0.852787 0.111697 0.11455
H_ H_ 0.110044 0.815935 0.218764 0.11455
H_ H_ 0.0152996 0.81002 0.21047 0.11455
H_ H_ 0.0358398 0.826391 0.119553 0.11455
H_ H_ 0.367823 0.995378 0.195966 0.11455
H_ H_ 0.418551 0.571283 0.10366 0.11455
H_ H_ 0.359643 0.979969 0.10342 0.11455
H_ H_ 0.313702 0.575587 0.20739 0.11455
H_ H_ 0.327832 0.669259 0.207397 0.11455
H_ H_ 0.417985 0.657213 0.129113 0.11455
H_ H_ 0.425952 0.885026 0.217924 0.11455
H_ H_ 0.436596 0.920697 0.265288 0.11455
H_ H_ 0.37994 0.891263 0.30397 0.11455
H_ H_ 0.297622 0.764202 0.223699 0.11455
H_ H_ 0.265185 0.708696 0.26427 0.11455
H_ H_ 0.284643 0.729491 0.312976 0.11455
H_ H_ 0.477256 0.781744 0.371188 0.11455
H_ H_ 0.494947 0.802225 0.419042 0.11455
H_ H_ 0.229536 0.836025 0.390259 0.11455
H_ H_ 0.246214 0.832732 0.443031 0.11455
H_ H_ 0.405069 0.928799 0.49855 0.11455
H_ H_ 0.452474 0.935113 0.0409874 0.11455
H_ H_ 0.423177 0.892283 0.0845703 0.11455
H_ H_ 0.339984 0.747917 0.011907 0.11455
H_ H_ 0.304107 0.708615 0.053185 0.11455
H_ H_ 0.320746 0.745792 0.101831 0.11455
C_ C_ 0.239528 0.69186 0.407007 0.68181
C_ C_ 0.295146 0.686728 0.402321 -0.05681
C_ C_ 0.327698 0.678627 0.426135 -0.08735
C_ C_ 0.379629 0.671881 0.421492 -0.05681
C_ C_ 0.399292 0.667149 0.393506 -0.05681
C_ C_ 0.366419 0.669372 0.369648 -0.08735
C_ C_ 0.315636 0.680563 0.374012 -0.08735
C_ C_ 0.414465 0.67285 0.444642 -0.08735
C_ C_ 0.467638 0.676442 0.439606 -0.08735
C_ C_ 0.486525 0.673781 0.412106 -0.05681
C_ C_ 0.451419 0.665672 0.388742 -0.08735
C_ C_ 0.128245 0.781386 0.414171 0.68181
C_ C_ 0.145806 0.585953 0.398689 0.68181
C_ C_ 0.143306 0.528602 0.396851 -0.05681
C_ C_ 0.139835 0.997053 0.425585 -0.08735
C_ C_ 0.13585 0.943716 0.422434 -0.05681
C_ C_ 0.125645 0.921982 0.395809 -0.05681
C_ C_ 0.122615 0.95447 0.372067 -0.08735
C_ C_ 0.127779 1.0067318 0.374519 -0.08735
C_ C_ 0.138288 0.912474 0.446163 -0.08735
C_ C_ 0.134517 0.860568 0.444198 -0.08735
C_ C_ 0.123674 0.837021 0.417733 -0.05681
C_ C_ 0.124386 0.867711 0.392998 -0.08735
C_ C_ 0.0412552 0.676978 0.406965 0.68181
C_ C_ 0.112311 0.624617 0.4803 0.1947
C_ C_ 0.0817319 0.611618 0.0103687 -0.08735
C_ C_ 0.100681 0.638598 0.0337474 -0.08735
C_ C_ 0.125644 0.683611 0.0307304 -0.05681
C_ C_ 0.138953 0.695688 1.00254276 0.18498
C_ C_ 0.188092 0.736677 0.496027 -0.08735
C_ C_ 0.186093 0.769506 0.0192001 -0.08735
C_ C_ 0.167404 0.759358 0.0463097 -0.08735
C_ C_ 0.141233 0.714569 0.0536365 0.18498
C_ C_ 0.17535 0.694551 0.10025 0.44287
C_ C_ 0.0877307 0.708805 0.0961434 0.44287
C_ C_ 0.0821093 0.695096 0.125631 -0.05681
C_ C_ 0.0356957 0.691937 0.13913 -0.08735
C_ C_ 0.0323474 0.684932 0.168369 -0.08735
C_ C_ 0.0738563 0.684681 0.186872 -0.05681
C_ C_ 0.120931 0.684363 0.17337 -0.05681
C_ C_ 0.125026 0.687865 0.143398 -0.05681
C_ C_ 0.173674 0.693624 0.130342 -0.05681
C_ C_ 0.217342 0.682916 0.146733 -0.08735
C_ C_ 0.213722 0.675899 0.176091 -0.08735
C_ C_ 0.165028 0.670957 0.189843 -0.05681
C_ C_ 0.159382 0.65863 0.219078 0.44287
C_ C_ 0.0695786 0.676897 0.217089 0.44287
C_ C_ 0.107381 0.652535 0.262236 0.18498
C_ C_ 0.0767373 0.611142 0.269474 -0.08735
C_ C_ 0.0615303 0.605129 0.298878 -0.08735
C_ C_ 0.0897048 0.629902 0.321333 -0.08735
C_ C_ 0.116386 0.673407 0.313086 0.18498
C_ C_ 0.127327 0.682563 0.284008 -0.05681
C_ C_ 0.153519 0.728652 0.277955 -0.08735
C_ C_ 0.179974 0.752436 0.299927 -0.08735
C_ C_ 0.173724 0.737308 0.328493 0.1947
C_ C_ 0.267993 0.823369 0.158058 0.68181
C_ C_ 0.212623 0.825153 0.154974 -0.05681
C_ C_ 0.179424 0.817637 0.1786 -0.08735
C_ C_ 0.126557 0.821616 0.173951 -0.05681
C_ C_ 0.107846 0.830394 0.146193 -0.05681
C_ C_ 0.139908 0.841927 0.124089 -0.08735
C_ C_ 0.192501 0.8407 0.128331 -0.08735
C_ C_ 0.093134 0.81711 0.196836 -0.08735
C_ C_ 0.0420232 0.820387 0.19176 -0.08735
C_ C_ 0.0214484 0.823821 0.163956 -0.05681
C_ C_ 0.0555078 0.827647 0.141716 -0.08735
C_ C_ 0.369293 0.72686 0.162015 0.68181
C_ C_ 0.36572 0.922658 0.15211 0.68181
C_ C_ 0.364372 0.979424 0.150214 -0.05681
C_ C_ 0.349978 0.510042 0.169359 -0.08735
C_ C_ 0.354061 0.563044 0.167275 -0.05681
C_ C_ 0.383998 0.585968 0.144547 -0.05681
C_ C_ 0.402233 0.555464 0.122858 -0.08735
C_ C_ 0.360032 0.00277292 0.123168 -0.08735
C_ C_ 0.333945 0.592652 0.189104 -0.08735
C_ C_ 0.342224 0.645566 0.188364 -0.08735
C_ C_ 0.365777 0.668563 0.164829 -0.05681
C_ C_ 0.38767 0.63929 0.14285 -0.08735
C_ C_ 0.465619 0.830901 0.15821 0.68181
C_ C_ 0.405737 0.868393 0.234941 0.1947
C_ C_ 0.405585 0.893311 0.260736 -0.08735
C_ C_ 0.37503 0.872342 0.283108 -0.08735
C_ C_ 0.349774 0.82616 0.279024 -0.05681
C_ C_ 0.343024 0.808929 0.250576 0.18498
C_ C_ 0.311975 0.76475 0.24503 -0.08735
C_ C_ 0.292063 0.73669 0.267826 -0.08735
C_ C_ 0.302332 0.75268 0.29575 -0.08735
C_ C_ 0.333538 0.795422 0.302294 0.18498
C_ C_ 0.302166 0.823666 0.349035 0.44287
C_ C_ 0.389401 0.799654 0.343031 0.44287
C_ C_ 0.397992 0.803267 0.372545 -0.05681
C_ C_ 0.446197 0.793831 0.384748 -0.08735
C_ C_ 0.45576 0.803659 0.413214 -0.08735
C_ C_ 0.416029 0.818332 0.431451 -0.05681
C_ C_ 0.367886 0.827607 0.42 -0.05681
C_ C_ 0.359996 0.820868 0.390398 -0.05681
C_ C_ 0.309201 0.825502 0.379206 -0.05681
C_ C_ 0.267959 0.833974 0.397636 -0.08735
C_ C_ 0.27851 0.834238 0.42833 -0.08735
C_ C_ 0.326905 0.834173 0.439242 -0.05681
C_ C_ 0.33704 0.841086 0.468404 0.44287
C_ C_ 0.424666 0.825707 0.4612 0.44287
C_ C_ 0.387043 0.83774 0.00997393 0.18498
C_ C_ 0.418694 0.881248 0.0129209 -0.08735
C_ C_ 0.430639 0.899961 0.039615 -0.08735
C_ C_ 0.414196 0.875074 0.064662 -0.08735
C_ C_ 0.384035 0.830137 0.0632053 0.18498
C_ C_ 0.370487 0.813149 0.0352105 -0.05681
C_ C_ 0.344045 0.766672 0.0325734 -0.08735
C_ C_ 0.320159 0.74587 0.0563087 -0.08735
C_ C_ 0.333182 0.765781 0.0833154 0.1947
N_ N_ 0.142499 0.666266 0.477147 -0.29468
N_ N_ 0.132874 0.703254 0.0836785 -0.17154
N_ N_ 0.112343 0.664954 0.232335 -0.17154
N_ N_ 0.139071 0.700115 0.334329 -0.29468
N_ N_ 0.367233 0.832901 0.228843 -0.29468
N_ N_ 0.343008 0.809069 0.331875 -0.17154
N_ N_ 0.385272 0.838095 0.478542 -0.17154
N_ N_ 0.366495 0.806683 0.0864869 -0.29468
O_ O_ 0.219945 0.676581 0.431167 -0.58347
O_ O_ 0.20879 0.705672 0.387522 -0.58347
O_ O_ 0.145504 0.756389 0.434496 -0.58347
O_ O_ 0.118355 0.759321 0.390643 -0.58347
O_ O_ 0.142059 0.606305 0.421822 -0.58347
O_ O_ 0.154097 0.612453 0.376226 -0.58347
O_ O_ 0.0698054 0.684913 0.428939 -0.58347
O_ O_ 0.0614615 0.667624 0.382716 -0.58347
O_ O_ 0.0464022 0.717726 0.0813898 -0.46727
O_ O_ 0.220852 0.688896 0.0882917 -0.46727
O_ O_ 0.0240339 0.674798 0.229248 -0.46727
O_ O_ 0.200379 0.64682 0.234819 -0.46727
O_ O_ 0.290386 0.827402 0.182388 -0.58347
O_ O_ 0.295646 0.815122 0.136255 -0.58347
O_ O_ 0.357742 0.755804 0.183298 -0.58347
O_ O_ 0.383539 0.748275 0.139333 -0.58347
O_ O_ 0.3661 0.900536 0.175872 -0.58347
O_ O_ 0.36732 0.896408 0.129473 -0.58347
O_ O_ 0.436845 0.829033 0.178824 -0.58347
O_ O_ 0.449514 0.826656 0.132663 -0.58347
O_ O_ 0.428344 0.795435 0.325509 -0.46727
O_ O_ 0.258005 0.829406 0.338183 -0.46727
O_ O_ 0.470898 0.824122 0.47169 -0.46727
O_ O_ 0.299996 0.847759 0.486812 -0.46727
Zn Zn 0.122314 0.687306 0.884478 0.90689
Zn Zn 0.134305 0.6847 0.931335 0.90689
Zn Zn 0.371846 0.81859 0.629666 0.90689
Zn Zn 0.362916 0.818206 0.677486 0.90689
H_ H_ 0.303021 0.684688 0.950455 0.11455
H_ H_ 0.369292 0.669773 0.851123 0.11455
H_ H_ 0.278608 0.669206 0.858584 0.11455
H_ H_ 0.390704 0.681667 0.969427 0.11455
H_ H_ 0.484757 0.685874 0.958324 0.11455
H_ H_ 0.450797 0.691944 0.868264 0.11455
H_ H_ 0.158633 0.521673 0.944217 0.11455
H_ H_ 0.138176 0.935455 0.846446 0.11455
H_ H_ 0.106859 0.526253 0.855843 0.11455
H_ H_ 0.137864 0.929418 0.966143 0.11455
H_ H_ 0.122286 0.845276 0.963514 0.11455
H_ H_ 0.133118 0.849189 0.86919 0.11455
H_ H_ 0.0779469 0.610684 0.963476 0.11455
H_ H_ 0.0728163 0.573868 0.509064 0.11455
H_ H_ 0.11117 0.612784 0.553601 0.11455
H_ H_ 0.186994 0.743418 0.976136 0.11455
H_ H_ 0.215218 0.802685 0.517463 0.11455
H_ H_ 0.189203 0.776387 0.562858 0.11455
H_ H_ 1.0208477 0.686133 0.62017 0.11455
H_ H_ 1.0155552 0.696293 0.673265 0.11455
H_ H_ 0.272566 0.639671 0.636042 0.11455
H_ H_ 0.26052 0.643364 0.689785 0.11455
H_ H_ 0.0826197 0.583628 0.746351 0.11455
H_ H_ 0.0455993 0.562701 0.793195 0.11455
H_ H_ 0.0679293 0.614965 0.837149 0.11455
H_ H_ 0.169975 0.738996 0.75819 0.11455
H_ H_ 0.20383 0.784276 0.798831 0.11455
H_ H_ 0.189747 0.755684 0.848901 0.11455
H_ H_ 0.199614 0.798662 0.692919 0.11455
H_ H_ 0.126339 0.825976 0.595154 0.11455
H_ H_ 0.218901 0.820685 0.601847 0.11455
H_ H_ 0.114262 0.802136 0.713183 0.11455
H_ H_ 0.0229646 0.808196 0.706628 0.11455
H_ H_ 0.0411907 0.80916 0.614333 0.11455
H_ H_ 0.388026 0.988315 0.692389 0.11455
H_ H_ 0.356816 0.569158 0.598153 0.11455
H_ H_ 0.319671 0.980432 0.609233 0.11455
H_ H_ 0.398576 0.57247 0.716836 0.11455
H_ H_ 0.398304 0.666977 0.708834 0.11455
H_ H_ 0.360564 0.650803 0.620108 0.11455
H_ H_ 0.402486 0.892139 0.714602 0.11455
H_ H_ 0.409971 0.927632 0.764776 0.11455
H_ H_ 0.368359 0.887199 0.804931 0.11455
H_ H_ 0.299475 0.747831 0.722887 0.11455
H_ H_ 0.272359 0.697165 0.763755 0.11455
H_ H_ 0.303221 0.713001 0.812646 0.11455
H_ H_ 0.481913 0.790949 0.876386 0.11455
H_ H_ 0.486979 0.798348 0.926255 0.11455
H_ H_ 0.22858 0.823701 0.88961 0.11455
H_ H_ 0.240467 0.835132 0.941044 0.11455
H_ H_ 0.436298 0.896805 0.992946 0.11455
H_ H_ 0.438862 0.952629 0.546462 0.11455
H_ H_ 0.41681 0.894599 0.585954 0.11455
H_ H_ 0.35619 0.757971 0.501923 0.11455
H_ H_ 0.312134 0.710012 0.543307 0.11455
H_ H_ 0.316592 0.743237 0.590781 0.11455
C_ C_ 0.227847 0.681325 0.909206 0.68181
C_ C_ 0.283056 0.671411 0.904746 -0.05681
C_ C_ 0.317195 0.672352 0.928708 -0.08735
C_ C_ 0.36866 0.677013 0.924528 -0.05681
C_ C_ 0.385635 0.675711 0.895524 -0.05681
C_ C_ 0.353888 0.669354 0.872524 -0.08735
C_ C_ 0.302595 0.664191 0.876651 -0.08735
C_ C_ 0.403412 0.676309 0.946785 -0.08735
C_ C_ 0.456467 0.677078 0.940157 -0.08735
C_ C_ 0.473351 0.684335 0.912628 -0.05681
C_ C_ 0.436278 0.684485 0.889851 -0.08735
C_ C_ 0.121241 0.783547 0.913833 0.68181
C_ C_ 0.139775 0.58683 0.901328 0.68181
C_ C_ 0.133834 0.530893 0.900673 -0.05681
C_ C_ 0.138581 0.99722935 0.922734 -0.08735
C_ C_ 0.13087 0.945996 0.920292 -0.05681
C_ C_ 0.131821 0.920837 0.892391 -0.05681
C_ C_ 0.141317 0.952088 0.868003 -0.08735
C_ C_ 0.141617 0.00407174 0.870706 -0.08735
C_ C_ 0.130278 0.915683 0.945222 -0.08735
C_ C_ 0.123317 0.864895 0.942436 -0.08735
C_ C_ 0.122997 0.839348 0.915763 -0.05681
C_ C_ 0.1296 0.867777 0.890397 -0.08735
C_ C_ 0.0292757 0.684057 0.906079 0.68181
C_ C_ 0.0989819 0.623572 0.982443 0.1947
C_ C_ 0.0982966 0.606878 0.507366 -0.08735
C_ C_ 0.12146 0.628543 0.53177 -0.08735
C_ C_ 0.153011 0.671816 0.528066 -0.05681
C_ C_ 0.16623 0.687302 0.499727 0.18498
C_ C_ 0.168852 0.738025 0.997596 -0.08735
C_ C_ 0.19345 0.768739 0.519149 -0.08735
C_ C_ 0.191968 0.749041 0.546249 -0.08735
C_ C_ 0.172574 0.699818 0.552159 0.18498
C_ C_ 0.199829 0.666314 0.59896 0.44287
C_ C_ 0.11557 0.696529 0.593315 0.44287
C_ C_ 0.106316 0.687376 0.622223 -0.05681
C_ C_ 0.0557445 0.685445 0.633355 -0.08735
C_ C_ 0.0497664 0.68317 0.663669 -0.08735
C_ C_ 0.0921593 0.677224 0.683486 -0.05681
C_ C_ 0.139929 0.674786 0.670716 -0.05681
C_ C_ 0.145646 0.673994 0.640527 -0.05681
C_ C_ 0.192878 0.658579 0.628316 -0.05681
C_ C_ 0.234903 0.650659 0.646017 -0.08735
C_ C_ 0.228146 0.649104 0.6768 -0.08735
C_ C_ 0.181343 0.661467 0.688013 -0.05681
C_ C_ 0.176819 0.660767 0.718175 0.44287
C_ C_ 0.0879115 0.672866 0.71327 0.44287
C_ C_ 0.121277 0.650444 0.761033 0.18498
C_ C_ 0.0970598 0.605548 0.765313 -0.08735
C_ C_ 0.0722331 0.597386 0.79256 -0.08735
C_ C_ 0.0857517 0.626548 0.817011 -0.08735
C_ C_ 0.116933 0.671966 0.813352 0.18498
C_ C_ 0.132364 0.684511 0.783823 -0.05681
C_ C_ 0.160913 0.727525 0.779595 -0.08735
C_ C_ 0.182503 0.750842 0.802813 -0.08735
C_ C_ 0.170417 0.737207 0.830929 0.1947
C_ C_ 0.270532 0.805963 0.652005 0.68181
C_ C_ 0.215767 0.810092 0.648508 -0.05681
C_ C_ 0.182689 0.804788 0.671689 -0.08735
C_ C_ 0.130628 0.810575 0.668062 -0.05681
C_ C_ 0.109543 0.8122 0.63972 -0.05681
C_ C_ 0.142707 0.818802 0.616316 -0.08735
C_ C_ 0.195052 0.816195 0.620618 -0.08735
C_ C_ 0.0990869 0.800122 0.690972 -0.08735
C_ C_ 0.046892 0.806468 0.687776 -0.08735
C_ C_ 0.024715 0.810119 0.659627 -0.05681
C_ C_ 0.056334 0.8091 0.635827 -0.08735
C_ C_ 0.368722 0.719108 0.661103 0.68181
C_ C_ 0.358651 0.916431 0.64857 0.68181
C_ C_ 0.357086 0.974319 0.648466 -0.05681
C_ C_ 0.369005 0.503946 0.674537 -0.08735
C_ C_ 0.374268 0.558993 0.672027 -0.05681
C_ C_ 0.370356 0.581483 0.643484 -0.05681
C_ C_ 0.358636 0.552187 0.61993 -0.08735
C_ C_ 0.341649 1.0025 0.624305 -0.08735
C_ C_ 0.392935 0.588015 0.694452 -0.08735
C_ C_ 0.390748 0.641497 0.691399 -0.08735
C_ C_ 0.375889 0.664569 0.664686 -0.05681
C_ C_ 0.371603 0.63452 0.640459 -0.08735
C_ C_ 0.465912 0.826173 0.653102 0.68181
C_ C_ 0.383495 0.873767 0.732198 0.1947
C_ C_ 0.388897 0.892492 0.760543 -0.08735
C_ C_ 0.369211 0.864677 0.783613 -0.08735
C_ C_ 0.344358 0.818583 0.778201 -0.05681
C_ C_ 0.341375 0.799592 0.749757 0.18498
C_ C_ 0.314187 0.754846 0.74403 -0.08735
C_ C_ 0.2963 0.727901 0.76771 -0.08735
C_ C_ 0.312219 0.739532 0.796163 -0.08735
C_ C_ 0.334456 0.785299 0.801887 0.18498
C_ C_ 0.304439 0.812244 0.849781 0.44287
C_ C_ 0.39156 0.792506 0.844656 0.44287
C_ C_ 0.400023 0.801458 0.874324 -0.05681
C_ C_ 0.447844 0.80271 0.888055 -0.08735
C_ C_ 0.45156 0.802536 0.918315 -0.08735
C_ C_ 0.408258 0.80564 0.93583 -0.05681
C_ C_ 0.361708 0.813226 0.922708 -0.05681
C_ C_ 0.356808 0.811368 0.892395 -0.05681
C_ C_ 0.307273 0.812515 0.879683 -0.05681
C_ C_ 0.265191 0.821746 0.897526 -0.08735
C_ C_ 0.271901 0.827492 0.926869 -0.08735
C_ C_ 0.3213 0.828133 0.939461 -0.05681
C_ C_ 0.329725 0.830964 0.969249 0.44287
C_ C_ 0.4117 0.80042 0.964715 0.44287
C_ C_ 0.392042 0.851051 0.508425 0.18498
C_ C_ 0.407599 0.900273 0.515265 -0.08735
C_ C_ 0.423714 0.913857 0.542321 -0.08735
C_ C_ 0.41207 0.881657 0.564982 -0.08735
C_ C_ 0.382826 0.836009 0.559943 0.18498
C_ C_ 0.37611 0.820115 0.530866 -0.05681
C_ C_ 0.361272 0.770788 0.524925 -0.08735
C_ C_ 0.336958 0.742432 0.547152 -0.08735
C_ C_ 0.341423 0.760783 0.575717 0.1947
N_ N_ 0.123331 0.667135 0.978469 -0.29468
N_ N_ 0.161482 0.684381 0.582064 -0.17154
N_ N_ 0.130034 0.662281 0.730598 -0.17154
N_ N_ 0.13656 0.699569 0.836074 -0.29468
N_ N_ 0.361362 0.826691 0.727557 -0.29468
N_ N_ 0.345118 0.797582 0.83342 -0.17154
N_ N_ 0.375566 0.819455 0.981334 -0.17154
N_ N_ 0.367237 0.804922 0.581777 -0.29468
O_ O_ 0.211111 0.684597 0.93424 -0.58347
O_ O_ 0.198877 0.69062 0.887762 -0.58347
O_ O_ 0.128114 0.759281 0.93618 -0.58347
O_ O_ 0.116065 0.760836 0.889932 -0.58347
O_ O_ 0.138354 0.609464 0.925743 -0.58347
O_ O_ 0.1296 0.610685 0.878681 -0.58347
O_ O_ 0.0575373 0.679929 0.927889 -0.58347
O_ O_ 0.0483932 0.679686 0.881491 -0.58347
O_ O_ 0.0775106 0.704796 0.575784 -0.46727
O_ O_ 0.244902 0.661049 0.586527 -0.46727
O_ O_ 0.0441835 0.682495 0.725951 -0.46727
O_ O_ 0.216258 0.650128 0.734001 -0.46727
O_ O_ 0.288802 0.800736 0.67688 -0.58347
O_ O_ 0.298617 0.819815 0.631037 -0.58347
O_ O_ 0.375395 0.746205 0.683052 -0.58347
O_ O_ 0.376729 0.739905 0.636856 -0.58347
O_ O_ 0.348796 0.891498 0.672045 -0.58347
O_ O_ 0.365639 0.891711 0.625499 -0.58347
O_ O_ 0.439077 0.833357 0.675438 -0.58347
O_ O_ 0.445662 0.82428 0.628423 -0.58347
O_ O_ 0.428587 0.774867 0.828121 -0.46727
O_ O_ 0.264553 0.832133 0.836882 -0.46727
O_ O_ 0.452452 0.782478 0.976529 -0.46727
O_ O_ 0.293955 0.847509 0.987267 -0.46727
Zn Zn 0.632357 0.181225 0.375179 0.90689
Zn Zn 0.641509 0.172719 0.423347 0.90689
Zn Zn 0.865221 0.310737 0.130088 0.90689
Zn Zn 0.854492 0.310389 0.179693 0.90689
H_ H_ 0.808774 0.170695 0.443336 0.11455
H_ H_ 0.887866 0.16208 0.346484 0.11455
H_ H_ 0.79337 0.175404 0.35272 0.11455
H_ H_ 0.893678 0.177216 0.462702 0.11455
H_ H_ 0.981176 0.172909 0.459834 0.11455
H_ H_ 0.97215 0.165586 0.368401 0.11455
H_ H_ 0.638161 0.010756 0.439793 0.11455
H_ H_ 0.640525 0.432718 0.341493 0.11455
H_ H_ 0.609491 0.0150091 0.350444 0.11455
H_ H_ 0.626707 0.41494 0.459576 0.11455
H_ H_ 0.641239 0.324975 0.454067 0.11455
H_ H_ 0.615337 0.347387 0.361857 0.11455
H_ H_ 0.566769 0.120225 0.459856 0.11455
H_ H_ 0.563903 0.0901679 0.0154956 0.11455
H_ H_ 0.62285 0.127798 0.0527249 0.11455
H_ H_ 0.708058 0.226972 0.466318 0.11455
H_ H_ 0.727569 0.309525 0.0067732 0.11455
H_ H_ 0.703119 0.288625 0.0587474 0.11455
H_ H_ 0.516391 0.214773 0.119665 0.11455
H_ H_ 0.506213 0.208728 0.169996 0.11455
H_ H_ 0.760698 0.143753 0.130518 0.11455
H_ H_ 0.747905 0.135172 0.180557 0.11455
H_ H_ 0.569118 0.0922696 0.240823 0.11455
H_ H_ 0.537997 0.0712437 0.288811 0.11455
H_ H_ 0.573746 0.123326 0.332852 0.11455
H_ H_ 0.669351 0.249781 0.253402 0.11455
H_ H_ 0.706259 0.284042 0.293509 0.11455
H_ H_ 0.68751 0.254091 0.34437 0.11455
H_ H_ 0.692354 0.325493 0.196634 0.11455
H_ H_ 0.621835 0.347094 0.0986426 0.11455
H_ H_ 0.711254 0.332415 0.10362 0.11455
H_ H_ 0.605937 0.317038 0.214359 0.11455
H_ H_ 0.514918 0.314868 0.208141 0.11455
H_ H_ 0.533633 0.331718 0.11692 0.11455
H_ H_ 0.844594 0.477581 0.192684 0.11455
H_ H_ 0.896704 0.0528887 0.0957047 0.11455
H_ H_ 0.855173 0.46718 0.0995666 0.11455
H_ H_ 0.835049 0.0653488 0.20833 0.11455
H_ H_ 0.851858 0.15358 0.207699 0.11455
H_ H_ 0.886127 0.142757 0.116078 0.11455
H_ H_ 0.910131 0.384606 0.218513 0.11455
H_ H_ 0.919935 0.418525 0.265248 0.11455
H_ H_ 0.884086 0.3702 0.305653 0.11455
H_ H_ 0.790952 0.25127 0.223754 0.11455
H_ H_ 0.777068 0.188214 0.259448 0.11455
H_ H_ 0.798215 0.207519 0.311016 0.11455
H_ H_ 0.993302 0.27409 0.367255 0.11455
H_ H_ 0.00840216 0.284208 0.420678 0.11455
H_ H_ 0.748443 0.344813 0.387565 0.11455
H_ H_ 0.768042 0.370363 0.437698 0.11455
H_ H_ 0.957024 0.387763 0.498035 0.11455
H_ H_ 0.941046 0.43898 0.0500005 0.11455
H_ H_ 0.916606 0.384266 0.0893087 0.11455
H_ H_ 0.833197 0.26122 0.00378725 0.11455
H_ H_ 0.804237 0.210403 0.0451195 0.11455
H_ H_ 0.820465 0.232942 0.0948801 0.11455
C_ C_ 0.736879 0.176772 0.399596 0.68181
C_ C_ 0.793811 0.174013 0.396963 -0.05681
C_ C_ 0.82312 0.166851 0.421638 -0.08735
C_ C_ 0.876621 0.165576 0.419171 -0.05681
C_ C_ 0.899514 0.16493 0.39135 -0.05681
C_ C_ 0.870718 0.166623 0.367017 -0.08735
C_ C_ 0.81787 0.172075 0.370236 -0.08735
C_ C_ 0.907724 0.16818 0.442572 -0.08735
C_ C_ 0.961322 0.16848 0.439872 -0.08735
C_ C_ 0.984325 0.16654 0.412551 -0.05681
C_ C_ 0.953383 0.165769 0.388625 -0.08735
C_ C_ 0.632288 0.273275 0.404458 0.68181
C_ C_ 0.631676 0.0781933 0.395979 0.68181
C_ C_ 0.626539 0.0212029 0.394541 -0.05681
C_ C_ 0.636802 0.486161 0.419027 -0.08735
C_ C_ 0.631995 0.433967 0.414029 -0.05681
C_ C_ 0.634052 0.413716 0.385834 -0.05681
C_ C_ 0.637577 0.446456 0.362652 -0.08735
C_ C_ 0.636735 0.499613 0.366858 -0.08735
C_ C_ 0.626994 0.400424 0.437286 -0.08735
C_ C_ 0.63319 0.349366 0.434504 -0.08735
C_ C_ 0.633864 0.329306 0.406497 -0.05681
C_ C_ 0.625779 0.362709 0.382707 -0.08735
C_ C_ 0.538477 0.184864 0.401847 0.68181
C_ C_ 0.595957 0.126092 0.475314 0.1947
C_ C_ 0.591076 0.119461 0.0106651 -0.08735
C_ C_ 0.617122 0.145131 0.0322433 -0.08735
C_ C_ 0.644441 0.190368 0.026013 -0.05681
C_ C_ 0.65442 0.200918 0.997654 0.18498
C_ C_ 0.69808 0.219596 0.488519 -0.08735
C_ C_ 0.701025 0.276749 0.0126133 -0.08735
C_ C_ 0.690027 0.265787 0.0407593 -0.08735
C_ C_ 0.663233 0.222406 0.0485703 0.18498
C_ C_ 0.692315 0.18642 0.0939254 0.44287
C_ C_ 0.607694 0.210734 0.0890838 0.44287
C_ C_ 0.596918 0.199455 0.118675 -0.05681
C_ C_ 0.548134 0.202551 0.130816 -0.08735
C_ C_ 0.543316 0.198538 0.15972 -0.08735
C_ C_ 0.584752 0.190035 0.177746 -0.05681
C_ C_ 0.630883 0.178099 0.163727 -0.05681
C_ C_ 0.636901 0.183946 0.133956 -0.05681
C_ C_ 0.684269 0.173804 0.122349 -0.05681
C_ C_ 0.724127 0.153053 0.139609 -0.08735
C_ C_ 0.718178 0.148971 0.167751 -0.08735
C_ C_ 0.673958 0.168965 0.181244 -0.05681
C_ C_ 0.668416 0.169972 0.212316 0.44287
C_ C_ 0.580283 0.189607 0.208281 0.44287
C_ C_ 0.611871 0.15932 0.253857 0.18498
C_ C_ 0.582803 0.115679 0.258414 -0.08735
C_ C_ 0.56289 0.106626 0.286458 -0.08735
C_ C_ 0.583391 0.130986 0.310111 -0.08735
C_ C_ 0.618382 0.17146 0.306184 0.18498
C_ C_ 0.632953 0.187731 0.27742 -0.05681
C_ C_ 0.65589 0.233482 0.273556 -0.08735
C_ C_ 0.680009 0.253656 0.297242 -0.08735
C_ C_ 0.67204 0.235601 0.324728 0.1947
C_ C_ 0.763501 0.313441 0.154326 0.68181
C_ C_ 0.708456 0.318229 0.150431 -0.05681
C_ C_ 0.675893 0.320484 0.175389 -0.08735
C_ C_ 0.622465 0.326056 0.170126 -0.05681
C_ C_ 0.600675 0.331334 0.142379 -0.05681
C_ C_ 0.63357 0.335984 0.119093 -0.08735
C_ C_ 0.687362 0.329751 0.123221 -0.08735
C_ C_ 0.589781 0.32469 0.19307 -0.08735
C_ C_ 0.537347 0.321183 0.189724 -0.08735
C_ C_ 0.515649 0.323188 0.162422 -0.05681
C_ C_ 0.548858 0.332389 0.138905 -0.08735
C_ C_ 0.866047 0.21286 0.159145 0.68181
C_ C_ 0.84772 0.41038 0.149674 0.68181
C_ C_ 0.852167 0.467224 0.147909 -0.05681
C_ C_ 0.84587 -0.0021539999999999893 0.167099 -0.08735
C_ C_ 0.857388 0.0495296 0.165692 -0.05681
C_ C_ 0.873033 0.0727848 0.138852 -0.05681
C_ C_ 0.880833 0.0400705 0.116649 -0.08735
C_ C_ 0.858719 0.491433 0.120422 -0.08735
C_ C_ 0.846583 0.0803566 0.188957 -0.08735
C_ C_ 0.852371 0.13352 0.18756 -0.08735
C_ C_ 0.86832 0.157373 0.1609 -0.05681
C_ C_ 0.877644 0.126753 0.137286 -0.08735
C_ C_ 0.955894 0.321191 0.161332 0.68181
C_ C_ 0.886635 0.369264 0.234721 0.1947
C_ C_ 0.900346 0.38291 0.261655 -0.08735
C_ C_ 0.878727 0.355993 0.28503 -0.08735
C_ C_ 0.84854 0.312726 0.280429 -0.05681
C_ C_ 0.839761 0.297955 0.251014 0.18498
C_ C_ 0.811111 0.255169 0.244446 -0.08735
C_ C_ 0.794807 0.222428 0.266385 -0.08735
C_ C_ 0.809939 0.231361 0.294426 -0.08735
C_ C_ 0.836847 0.277011 0.302593 0.18498
C_ C_ 0.813441 0.308283 0.349349 0.44287
C_ C_ 0.897097 0.281427 0.342171 0.44287
C_ C_ 0.912853 0.293871 0.371243 -0.05681
C_ C_ 0.961646 0.28835 0.381869 -0.08735
C_ C_ 0.972211 0.295294 0.411684 -0.08735
C_ C_ 0.930814 0.308909 0.430368 -0.05681
C_ C_ 0.881039 0.313464 0.420117 -0.05681
C_ C_ 0.872708 0.307698 0.389798 -0.05681
C_ C_ 0.82506 0.321544 0.378141 -0.05681
C_ C_ 0.786814 0.341316 0.396677 -0.08735
C_ C_ 0.79498 0.348332 0.426634 -0.08735
C_ C_ 0.840511 0.328683 0.43766 -0.05681
C_ C_ 0.84769 0.3214 0.467195 0.44287
C_ C_ 0.937358 0.311145 0.460437 0.44287
C_ C_ 0.884948 0.34954 0.00895754 0.18498
C_ C_ 0.914069 0.390733 0.0174423 -0.08735
C_ C_ 0.919356 0.406051 0.0457288 -0.08735
C_ C_ 0.903133 0.375461 0.0676314 -0.08735
C_ C_ 0.878074 0.329317 0.0607727 0.18498
C_ C_ 0.865386 0.31789 0.0312964 -0.05681
C_ C_ 0.840408 0.272062 0.0256574 -0.08735
C_ C_ 0.828258 0.239711 0.0493876 -0.08735
C_ C_ 0.838185 0.254928 0.0770034 0.1947
N_ N_ 0.638528 0.156941 0.469311 -0.29468
N_ N_ 0.654444 0.208566 0.0785103 -0.17154
N_ N_ 0.620584 0.175168 0.224958 -0.17154
N_ N_ 0.637863 0.1968 0.329607 -0.29468
N_ N_ 0.858532 0.326472 0.229021 -0.29468
N_ N_ 0.848489 0.288384 0.333079 -0.17154
N_ N_ 0.895539 0.317689 0.478606 -0.17154
N_ N_ 0.862114 0.299095 0.082491 -0.29468
O_ O_ 0.71622 0.162708 0.422174 -0.58347
O_ O_ 0.709306 0.186815 0.378747 -0.58347
O_ O_ 0.64727 0.246841 0.42564 -0.58347
O_ O_ 0.627168 0.254139 0.38031 -0.58347
O_ O_ 0.631877 0.099782 0.419244 -0.58347
O_ O_ 0.633142 0.103707 0.373378 -0.58347
O_ O_ 0.568983 0.18542 0.422973 -0.58347
O_ O_ 0.554184 0.178635 0.376492 -0.58347
O_ O_ 0.570245 0.230897 0.0726684 -0.46727
O_ O_ 0.738111 0.182449 0.0819849 -0.46727
O_ O_ 0.54191 0.214012 0.219824 -0.46727
O_ O_ 0.708211 0.157895 0.228232 -0.46727
O_ O_ 0.780962 0.311543 0.180277 -0.58347
O_ O_ 0.79063 0.299027 0.133651 -0.58347
O_ O_ 0.849362 0.237338 0.180906 -0.58347
O_ O_ 0.880456 0.237823 0.13748 -0.58347
O_ O_ 0.854141 0.388588 0.174233 -0.58347
O_ O_ 0.848299 0.384627 0.127491 -0.58347
O_ O_ 0.928004 0.309936 0.182197 -0.58347
O_ O_ 0.936836 0.324551 0.13612 -0.58347
O_ O_ 0.930346 0.259211 0.325212 -0.46727
O_ O_ 0.769304 0.318054 0.338035 -0.46727
O_ O_ 0.98208 0.306036 0.471801 -0.46727
O_ O_ 0.809779 0.331363 0.485068 -0.46727
Zn Zn 0.626787 0.191874 0.88007 0.90689
Zn Zn 0.638143 0.187811 0.927881 0.90689
Zn Zn 0.874012 0.311547 0.632382 0.90689
Zn Zn 0.865064 0.316901 0.678595 0.90689
H_ H_ 0.799191 0.172255 0.941116 0.11455
H_ H_ 0.873636 0.172002 0.844711 0.11455
H_ H_ 0.784418 0.164995 0.852001 0.11455
H_ H_ 0.882793 0.192559 0.961709 0.11455
H_ H_ 0.97796 0.200908 0.956967 0.11455
H_ H_ 0.96113 0.156892 0.868519 0.11455
H_ H_ 0.665614 0.0192743 0.943174 0.11455
H_ H_ 0.587242 0.445328 0.845539 0.11455
H_ H_ 0.601106 0.0357695 0.858574 0.11455
H_ H_ 0.631229 0.43417 0.962914 0.11455
H_ H_ 0.643435 0.346686 0.958547 0.11455
H_ H_ 0.611494 0.354703 0.868845 0.11455
H_ H_ 0.583077 0.115306 0.964423 0.11455
H_ H_ 0.557273 0.0835457 0.506862 0.11455
H_ H_ 0.609418 0.111336 0.547223 0.11455
H_ H_ 0.699415 0.245461 0.968465 0.11455
H_ H_ 0.73383 0.282858 0.506699 0.11455
H_ H_ 0.71272 0.26124 0.555756 0.11455
H_ H_ 0.523106 0.216494 0.614447 0.11455
H_ H_ 0.514892 0.216098 0.666627 0.11455
H_ H_ 0.77018 0.156276 0.633293 0.11455
H_ H_ 0.75968 0.158283 0.685944 0.11455
H_ H_ 0.577242 0.0954227 0.741708 0.11455
H_ H_ 0.552282 0.0701972 0.791291 0.11455
H_ H_ 0.576316 0.121079 0.83196 0.11455
H_ H_ 0.656927 0.258039 0.754548 0.11455
H_ H_ 0.69421 0.301795 0.796206 0.11455
H_ H_ 0.678136 0.269988 0.845452 0.11455
H_ H_ 0.698938 0.31319 0.692211 0.11455
H_ H_ 0.629971 0.325968 0.59413 0.11455
H_ H_ 0.715134 0.305179 0.604446 0.11455
H_ H_ 0.615075 0.31547 0.709898 0.11455
H_ H_ 0.525261 0.315639 0.703934 0.11455
H_ H_ 0.539795 0.336515 0.613719 0.11455
H_ H_ 0.87777 0.477213 0.695237 0.11455
H_ H_ 0.884919 0.0629181 0.595572 0.11455
H_ H_ 0.852865 0.473469 0.602015 0.11455
H_ H_ 0.87245 0.0640221 0.712133 0.11455
H_ H_ 0.868834 0.154776 0.711066 0.11455
H_ H_ 0.872863 0.148517 0.62072 0.11455
H_ H_ 0.929331 0.380716 0.71133 0.11455
H_ H_ 0.947039 0.416339 0.761769 0.11455
H_ H_ 0.902254 0.376652 0.799894 0.11455
H_ H_ 0.794092 0.265311 0.720952 0.11455
H_ H_ 0.769822 0.211421 0.76069 0.11455
H_ H_ 0.796242 0.228466 0.808682 0.11455
H_ H_ 0.979025 0.280728 0.875577 0.11455
H_ H_ -0.011458999999999997 0.297153 0.926081 0.11455
H_ H_ 0.741504 0.365614 0.881417 0.11455
H_ H_ 0.750922 0.385974 0.933339 0.11455
H_ H_ 0.936034 0.409487 1.00216 0.11455
H_ H_ 0.97237 0.421911 0.545624 0.11455
H_ H_ 0.933339 0.374477 0.587545 0.11455
H_ H_ 0.860951 0.240385 0.507185 0.11455
H_ H_ 0.82388 0.193084 0.550712 0.11455
H_ H_ 0.826813 0.236815 0.596408 0.11455
C_ C_ 0.730431 0.186802 0.90091 0.68181
C_ C_ 0.784764 0.174906 0.897625 -0.05681
C_ C_ 0.81727 0.170347 0.921204 -0.08735
C_ C_ 0.870834 0.165893 0.918003 -0.05681
C_ C_ 0.892355 0.166384 0.891283 -0.05681
C_ C_ 0.859325 0.16607 0.866228 -0.08735
C_ C_ 0.807338 0.166599 0.870463 -0.08735
C_ C_ 0.902453 0.182484 0.941168 -0.08735
C_ C_ 0.955758 0.185028 0.93881 -0.08735
C_ C_ 0.977497 0.17987 0.911652 -0.05681
C_ C_ 0.945362 0.163568 0.889213 -0.08735
C_ C_ 0.631593 0.289301 0.908756 0.68181
C_ C_ 0.637975 0.0937712 0.902879 0.68181
C_ C_ 0.633796 0.0361093 0.901357 -0.05681
C_ C_ 0.63344 0.502093 0.917003 -0.08735
C_ C_ 0.626514 0.449273 0.915614 -0.05681
C_ C_ 0.614978 0.426413 0.888747 -0.05681
C_ C_ 0.602564 0.460072 0.865644 -0.08735
C_ C_ 0.612661 0.512356 0.867242 -0.08735
C_ C_ 0.631151 0.419265 0.9416 -0.08735
C_ C_ 0.636945 0.367493 0.939352 -0.08735
C_ C_ 0.628667 0.344862 0.912076 -0.05681
C_ C_ 0.615842 0.373584 0.888305 -0.08735
C_ C_ 0.537623 0.186026 0.908341 0.68181
C_ C_ 0.601218 0.134369 0.981731 0.1947
C_ C_ 0.587771 0.105883 0.502576 -0.08735
C_ C_ 0.618043 0.125128 0.525546 -0.08735
C_ C_ 0.650353 0.166896 0.521713 -0.05681
C_ C_ 0.662349 0.180372 0.492065 0.18498
C_ C_ 0.688237 0.239754 0.991664 -0.08735
C_ C_ 0.712082 0.249748 0.511141 -0.08735
C_ C_ 0.696478 0.240096 0.538688 -0.08735
C_ C_ 0.668114 0.195931 0.545641 0.18498
C_ C_ 0.69946 0.167405 0.593267 0.44287
C_ C_ 0.613615 0.194889 0.587344 0.44287
C_ C_ 0.603792 0.197099 0.61651 -0.05681
C_ C_ 0.555616 0.205196 0.628219 -0.08735
C_ C_ 0.549685 0.204897 0.657816 -0.08735
C_ C_ 0.589585 0.191572 0.676447 -0.05681
C_ C_ 0.636991 0.180321 0.664296 -0.05681
C_ C_ 0.642845 0.178745 0.635057 -0.05681
C_ C_ 0.691693 0.168649 0.623387 -0.05681
C_ C_ 0.731613 0.157926 0.642609 -0.08735
C_ C_ 0.726954 0.163724 0.672274 -0.08735
C_ C_ 0.677356 0.170601 0.683351 -0.05681
C_ C_ 0.66946 0.16883 0.713282 0.44287
C_ C_ 0.583403 0.1943 0.706193 0.44287
C_ C_ 0.609834 0.165361 0.753738 0.18498
C_ C_ 0.585492 0.119264 0.759811 -0.08735
C_ C_ 0.572173 0.105763 0.788042 -0.08735
C_ C_ 0.582763 0.137021 0.811202 -0.08735
C_ C_ 0.612822 0.180411 0.807432 0.18498
C_ C_ 0.624877 0.195309 0.778667 -0.05681
C_ C_ 0.651954 0.240117 0.775678 -0.08735
C_ C_ 0.670134 0.268277 0.799604 -0.08735
C_ C_ 0.660273 0.249152 0.82762 0.1947
C_ C_ 0.769912 0.316565 0.653415 0.68181
C_ C_ 0.716137 0.325768 0.648245 -0.05681
C_ C_ 0.684114 0.325428 0.671137 -0.08735
C_ C_ 0.631806 0.328558 0.666647 -0.05681
C_ C_ 0.611265 0.334771 0.638643 -0.05681
C_ C_ 0.645252 0.331843 0.615391 -0.08735
C_ C_ 0.695423 0.32468 0.61969 -0.08735
C_ C_ 0.600215 0.326147 0.690076 -0.08735
C_ C_ 0.548159 0.322047 0.685736 -0.08735
C_ C_ 0.525403 0.326131 0.659773 -0.05681
C_ C_ 0.556927 0.333386 0.634765 -0.08735
C_ C_ 0.870795 0.21752 0.661449 0.68181
C_ C_ 0.872383 0.413352 0.649212 0.68181
C_ C_ 0.868932 0.470061 0.64822 -0.05681
C_ C_ 0.877293 -0.0011929999999999996 0.671088 -0.08735
C_ C_ 0.872483 0.0517639 0.667985 -0.05681
C_ C_ 0.874134 0.0768642 0.640932 -0.05681
C_ C_ 0.879458 0.0465392 0.615676 -0.08735
C_ C_ 0.857592 0.49553 0.622121 -0.08735
C_ C_ 0.875645 0.0813621 0.692157 -0.08735
C_ C_ 0.871296 0.133797 0.69091 -0.08735
C_ C_ 0.870087 0.15955 0.663679 -0.05681
C_ C_ 0.876165 0.129274 0.639616 -0.08735
C_ C_ 0.965986 0.315016 0.655993 0.68181
C_ C_ 0.910747 0.366598 0.729946 0.1947
C_ C_ 0.920457 0.384709 0.757322 -0.08735
C_ C_ 0.89451 0.361176 0.780008 -0.08735
C_ C_ 0.85922 0.323689 0.775622 -0.05681
C_ C_ 0.84611 0.310261 0.747592 0.18498
C_ C_ 0.809709 0.271953 0.742306 -0.08735
C_ C_ 0.792031 0.243082 0.765423 -0.08735
C_ C_ 0.806803 0.254845 0.793043 -0.08735
C_ C_ 0.836296 0.296182 0.798942 0.18498
C_ C_ 0.810117 0.333867 0.844577 0.44287
C_ C_ 0.893776 0.299801 0.841796 0.44287
C_ C_ 0.900348 0.307776 0.871703 -0.05681
C_ C_ 0.94653 0.298649 0.88532 -0.08735
C_ C_ 0.951415 0.303274 0.915315 -0.08735
C_ C_ 0.908457 0.318713 0.93145 -0.05681
C_ C_ 0.864583 0.331597 0.91946 -0.05681
C_ C_ 0.858863 0.321861 0.889376 -0.05681
C_ C_ 0.815927 0.338041 0.87552 -0.05681
C_ C_ 0.775363 0.357897 0.891761 -0.08735
C_ C_ 0.77979 0.367619 0.921416 -0.08735
C_ C_ 0.823853 0.351038 0.935689 -0.05681
C_ C_ 0.829688 0.358015 0.965941 0.44287
C_ C_ 0.909238 0.318103 0.961234 0.44287
C_ C_ 0.905786 0.329491 0.509438 0.18498
C_ C_ 0.93571 0.372882 0.515108 -0.08735
C_ C_ 0.949731 0.387583 0.542908 -0.08735
C_ C_ 0.92805 0.363236 0.56642 -0.08735
C_ C_ 0.894416 0.320594 0.561682 0.18498
C_ C_ 0.889852 0.300215 0.533757 -0.05681
C_ C_ 0.865281 0.254934 0.528823 -0.08735
C_ C_ 0.843164 0.229333 0.552448 -0.08735
C_ C_ 0.846049 0.252359 0.579589 0.1947
N_ N_ 0.629152 0.177229 0.97597 -0.29468
N_ N_ 0.659563 0.181462 0.575561 -0.17154
N_ N_ 0.623055 0.180768 0.724577 -0.17154
N_ N_ 0.630758 0.206167 0.831665 -0.29468
N_ N_ 0.871412 0.334102 0.725048 -0.29468
N_ N_ 0.847862 0.311281 0.82868 -0.17154
N_ N_ 0.874763 0.342053 0.978016 -0.17154
N_ N_ 0.8722 0.295252 0.583889 -0.29468
O_ O_ 0.713654 0.186488 0.92679 -0.58347
O_ O_ 0.700585 0.197104 0.880326 -0.58347
O_ O_ 0.631942 0.264334 0.932163 -0.58347
O_ O_ 0.623109 0.266469 0.885819 -0.58347
O_ O_ 0.641574 0.11641 0.926082 -0.58347
O_ O_ 0.632632 0.118618 0.880043 -0.58347
O_ O_ 0.568624 0.185009 0.92924 -0.58347
O_ O_ 0.553946 0.187968 0.883298 -0.58347
O_ O_ 0.573888 0.200402 0.568568 -0.46727
O_ O_ 0.747226 0.16816 0.582641 -0.46727
O_ O_ 0.538104 0.207178 0.716674 -0.46727
O_ O_ 0.705679 0.156589 0.729731 -0.46727
O_ O_ 0.788831 0.326115 0.678007 -0.58347
O_ O_ 0.79683 0.296404 0.633859 -0.58347
O_ O_ 0.867498 0.245101 0.683662 -0.58347
O_ O_ 0.883098 0.236499 0.637818 -0.58347
O_ O_ 0.86936 0.391056 0.673756 -0.58347
O_ O_ 0.865188 0.388665 0.626389 -0.58347
O_ O_ 0.938428 0.309649 0.678209 -0.58347
O_ O_ 0.947402 0.319621 0.631272 -0.58347
O_ O_ 0.930652 0.277533 0.826463 -0.46727
O_ O_ 0.767501 0.34651 0.830934 -0.46727
O_ O_ 0.947509 0.295133 0.973578 -0.46727
O_ O_ 0.792195 0.374412 0.981747 -0.46727
Zn Zn 0.634438 0.681616 0.382881 0.90689
Zn Zn 0.644609 0.674407 0.430431 0.90689
Zn Zn 0.872728 0.807266 0.133826 0.90689
Zn Zn 0.86117 0.815789 0.181787 0.90689
H_ H_ 0.812556 0.686267 0.447821 0.11455
H_ H_ 0.879493 0.679739 0.350345 0.11455
H_ H_ 0.786631 0.672113 0.357872 0.11455
H_ H_ 0.898303 0.692794 0.465882 0.11455
H_ H_ 0.987274 0.690146 0.457743 0.11455
H_ H_ 0.964119 0.668655 0.366331 0.11455
H_ H_ 0.63994 0.503 0.440342 0.11455
H_ H_ 0.598265 0.926236 0.348998 0.11455
H_ H_ 0.642684 0.524738 0.348864 0.11455
H_ H_ 0.643683 0.927363 0.464674 0.11455
H_ H_ 0.639135 0.838218 0.463308 0.11455
H_ H_ 0.604976 0.841147 0.371588 0.11455
H_ H_ 0.592931 0.61108 0.466303 0.11455
H_ H_ 0.554957 0.582697 0.0075293 0.11455
H_ H_ 0.587841 0.624201 0.0483817 0.11455
H_ H_ 0.707875 0.744018 0.477016 0.11455
H_ H_ 0.721879 0.795623 0.0145163 0.11455
H_ H_ 0.691154 0.777647 0.062388 0.11455
H_ H_ 0.50294 0.724808 0.124701 0.11455
H_ H_ 0.494989 0.702 0.17472 0.11455
H_ H_ 0.750449 0.659923 0.133131 0.11455
H_ H_ 0.746318 0.662476 0.184101 0.11455
H_ H_ 0.578378 0.594374 0.246066 0.11455
H_ H_ 0.558008 0.563497 0.297211 0.11455
H_ H_ 0.590653 0.611711 0.335063 0.11455
H_ H_ 0.644906 0.762351 0.257411 0.11455
H_ H_ 0.68029 0.807391 0.297321 0.11455
H_ H_ 0.669582 0.772674 0.346833 0.11455
H_ H_ 0.692879 0.788341 0.197611 0.11455
H_ H_ 0.632543 0.833419 0.101248 0.11455
H_ H_ 0.721133 0.825394 0.110025 0.11455
H_ H_ 0.608829 0.810068 0.217316 0.11455
H_ H_ 0.514608 0.82512 0.210631 0.11455
H_ H_ 0.539694 0.835438 0.118047 0.11455
H_ H_ 0.83354 0.982383 0.187082 0.11455
H_ H_ 0.857689 0.5645 0.0982417 0.11455
H_ H_ 0.885289 0.96335 0.101199 0.11455
H_ H_ 0.852963 0.560261 0.215487 0.11455
H_ H_ 0.856452 0.65233 0.213758 0.11455
H_ H_ 0.870459 0.64548 0.122412 0.11455
H_ H_ 0.916951 0.887106 0.215586 0.11455
H_ H_ 0.92619 0.921996 0.262372 0.11455
H_ H_ 0.901405 0.870681 0.304597 0.11455
H_ H_ 0.794465 0.754691 0.226677 0.11455
H_ H_ 0.769712 0.697083 0.264868 0.11455
H_ H_ 0.810461 0.711988 0.312014 0.11455
H_ H_ 0.990768 0.783107 0.373321 0.11455
H_ H_ 0.003989999999999938 0.797477 0.425161 0.11455
H_ H_ 0.738209 0.824935 0.385624 0.11455
H_ H_ 0.746107 0.826396 0.439139 0.11455
H_ H_ 0.928924 0.913175 0.496413 0.11455
H_ H_ 0.950924 0.924057 0.0537926 0.11455
H_ H_ 0.92371 0.873742 0.0922098 0.11455
H_ H_ 0.834576 0.744856 0.00980889 0.11455
H_ H_ 0.797996 0.705143 0.0501998 0.11455
H_ H_ 0.818025 0.732201 0.100248 0.11455
C_ C_ 0.737987 0.682204 0.406642 0.68181
C_ C_ 0.79383 0.683761 0.402284 -0.05681
C_ C_ 0.827605 0.678966 0.426071 -0.08735
C_ C_ 0.879604 0.674873 0.421872 -0.05681
C_ C_ 0.899081 0.668649 0.393469 -0.05681
C_ C_ 0.865803 0.680208 0.370305 -0.08735
C_ C_ 0.814144 0.686834 0.374179 -0.08735
C_ C_ 0.912603 0.681896 0.445145 -0.08735
C_ C_ 0.964008 0.684761 0.439137 -0.08735
C_ C_ 0.985797 0.675978 0.411157 -0.05681
C_ C_ 0.951289 0.664647 0.388871 -0.08735
C_ C_ 0.625955 0.775341 0.415861 0.68181
C_ C_ 0.641737 0.577307 0.398473 0.68181
C_ C_ 0.636975 0.521064 0.394405 -0.05681
C_ C_ 0.633836 0.991362 0.419633 -0.08735
C_ C_ 0.629554 0.938056 0.419744 -0.05681
C_ C_ 0.61883 0.913937 0.393513 -0.05681
C_ C_ 0.607063 0.945029 0.369606 -0.08735
C_ C_ 0.617808 0.994434 0.368904 -0.08735
C_ C_ 0.635822 0.909697 0.444705 -0.08735
C_ C_ 0.632698 0.857305 0.443519 -0.08735
C_ C_ 0.626118 0.831709 0.41667 -0.05681
C_ C_ 0.617382 0.861107 0.391539 -0.08735
C_ C_ 0.541428 0.674752 0.406964 0.68181
C_ C_ 0.612342 0.628963 0.484545 0.1947
C_ C_ 0.57811 0.615417 0.00488675 -0.08735
C_ C_ 0.597464 0.63846 0.0287443 -0.08735
C_ C_ 0.631107 0.680908 0.0264145 -0.05681
C_ C_ 0.642304 0.696152 0.998243 0.18498
C_ C_ 0.697013 0.73348 0.499556 -0.08735
C_ C_ 0.694054 0.764327 0.0186988 -0.08735
C_ C_ 0.677015 0.754785 0.0458101 -0.08735
C_ C_ 0.648154 0.709566 0.0501582 0.18498
C_ C_ 0.675018 0.675356 0.0953137 0.44287
C_ C_ 0.592288 0.710866 0.0920444 0.44287
C_ C_ 0.584358 0.700881 0.122035 -0.05681
C_ C_ 0.536862 0.710415 0.13569 -0.08735
C_ C_ 0.531454 0.700454 0.164921 -0.08735
C_ C_ 0.576035 0.692419 0.182694 -0.05681
C_ C_ 0.621977 0.685345 0.169738 -0.05681
C_ C_ 0.627383 0.68988 0.138723 -0.05681
C_ C_ 0.672221 0.675129 0.124974 -0.05681
C_ C_ 0.714744 0.664983 0.142691 -0.08735
C_ C_ 0.713017 0.671567 0.171767 -0.08735
C_ C_ 0.666096 0.679072 0.185932 -0.05681
C_ C_ 0.660074 0.672745 0.215688 0.44287
C_ C_ 0.573577 0.689854 0.213703 0.44287
C_ C_ 0.608034 0.663774 0.25917 0.18498
C_ C_ 0.582504 0.61817 0.264259 -0.08735
C_ C_ 0.57179 0.600989 0.292458 -0.08735
C_ C_ 0.596975 0.624779 0.31439 -0.08735
C_ C_ 0.621755 0.673121 0.310589 0.18498
C_ C_ 0.627518 0.692129 0.282199 -0.05681
C_ C_ 0.647653 0.740757 0.277776 -0.08735
C_ C_ 0.665708 0.76786 0.301824 -0.08735
C_ C_ 0.659803 0.750193 0.328777 0.1947
C_ C_ 0.768756 0.809403 0.159038 0.68181
C_ C_ 0.713191 0.809388 0.154625 -0.05681
C_ C_ 0.679443 0.806578 0.1779 -0.08735
C_ C_ 0.626551 0.815609 0.173533 -0.05681
C_ C_ 0.608908 0.823398 0.144798 -0.05681
C_ C_ 0.641246 0.821985 0.122024 -0.08735
C_ C_ 0.69271 0.816202 0.127356 -0.08735
C_ C_ 0.593359 0.818457 0.196424 -0.08735
C_ C_ 0.540077 0.822763 0.191863 -0.08735
C_ C_ 0.520854 0.829218 0.164086 -0.05681
C_ C_ 0.556382 0.831154 0.139925 -0.08735
C_ C_ 0.867545 0.714011 0.166273 0.68181
C_ C_ 0.864424 0.909277 0.148912 0.68181
C_ C_ 0.864693 0.965458 0.145521 -0.05681
C_ C_ 0.85293 0.496219 0.172245 -0.08735
C_ C_ 0.856872 0.548618 0.170881 -0.05681
C_ C_ 0.858082 0.573232 0.14369 -0.05681
C_ C_ 0.853691 0.54379 0.118707 -0.08735
C_ C_ 0.881975 0.987981 0.11957 -0.08735
C_ C_ 0.851708 0.577091 0.195039 -0.08735
C_ C_ 0.85644 0.629993 0.19388 -0.08735
C_ C_ 0.860671 0.656253 0.16808 -0.05681
C_ C_ 0.860385 0.626491 0.142671 -0.08735
C_ C_ 0.96604 0.81285 0.159222 0.68181
C_ C_ 0.896905 0.870114 0.232963 0.1947
C_ C_ 0.907226 0.885642 0.260459 -0.08735
C_ C_ 0.890435 0.857079 0.283342 -0.08735
C_ C_ 0.86278 0.812778 0.278942 -0.05681
C_ C_ 0.84725 0.800942 0.251348 0.18498
C_ C_ 0.812681 0.760605 0.246592 -0.08735
C_ C_ 0.797418 0.72866 0.268614 -0.08735
C_ C_ 0.813619 0.739378 0.295364 -0.08735
C_ C_ 0.846624 0.780278 0.301539 0.18498
C_ C_ 0.813987 0.805827 0.348632 0.44287
C_ C_ 0.902123 0.790278 0.343655 0.44287
C_ C_ 0.90878 0.797364 0.373788 -0.05681
C_ C_ 0.957854 0.79427 0.387472 -0.08735
C_ C_ 0.964337 0.800224 0.41649 -0.08735
C_ C_ 0.919824 0.808594 0.43391 -0.05681
C_ C_ 0.871946 0.812034 0.421016 -0.05681
C_ C_ 0.866657 0.809466 0.390674 -0.05681
C_ C_ 0.817889 0.810273 0.37839 -0.05681
C_ C_ 0.775431 0.821312 0.395048 -0.08735
C_ C_ 0.778578 0.823963 0.425925 -0.08735
C_ C_ 0.828545 0.820072 0.438587 -0.05681
C_ C_ 0.835551 0.824554 0.467825 0.44287
C_ C_ 0.923306 0.81979 0.463563 0.44287
C_ C_ 0.895744 0.835234 0.0128886 0.18498
C_ C_ 0.916908 0.881002 0.0198156 -0.08735
C_ C_ 0.93268 0.891455 0.0479966 -0.08735
C_ C_ 0.919675 0.858527 0.0705879 -0.08735
C_ C_ 0.888997 0.81763 0.0648731 0.18498
C_ C_ 0.878634 0.802096 0.0359679 -0.05681
C_ C_ 0.844086 0.76013 0.0306775 -0.08735
C_ C_ 0.822434 0.735572 0.0542783 -0.08735
C_ C_ 0.835743 0.748929 0.081883 0.1947
N_ N_ 0.643097 0.670147 0.48037 -0.29468
N_ N_ 0.636509 0.695111 0.0785125 -0.17154
N_ N_ 0.615479 0.679754 0.229552 -0.17154
N_ N_ 0.639054 0.701931 0.332933 -0.29468
N_ N_ 0.866233 0.829992 0.228985 -0.29468
N_ N_ 0.854978 0.79571 0.331419 -0.17154
N_ N_ 0.881717 0.827335 0.479699 -0.17154
N_ N_ 0.867244 0.790539 0.0869029 -0.29468
O_ O_ 0.72199 0.670979 0.430924 -0.58347
O_ O_ 0.708274 0.697254 0.386861 -0.58347
O_ O_ 0.644505 0.749628 0.436069 -0.58347
O_ O_ 0.625525 0.755814 0.391007 -0.58347
O_ O_ 0.639839 0.59927 0.422943 -0.58347
O_ O_ 0.644845 0.606605 0.375939 -0.58347
O_ O_ 0.57193 0.67535 0.428998 -0.58347
O_ O_ 0.561187 0.671088 0.382253 -0.58347
O_ O_ 0.558143 0.736263 0.0775171 -0.46727
O_ O_ 0.714326 0.654349 0.0833664 -0.46727
O_ O_ 0.530189 0.701886 0.22796 -0.46727
O_ O_ 0.700566 0.660654 0.22987 -0.46727
O_ O_ 0.786841 0.818941 0.18353 -0.58347
O_ O_ 0.79628 0.801258 0.138346 -0.58347
O_ O_ 0.857438 0.744099 0.186819 -0.58347
O_ O_ 0.878836 0.732537 0.141644 -0.58347
O_ O_ 0.859875 0.888484 0.172702 -0.58347
O_ O_ 0.86012 0.881791 0.127091 -0.58347
O_ O_ 0.935689 0.814203 0.180555 -0.58347
O_ O_ 0.947303 0.811654 0.134289 -0.58347
O_ O_ 0.940237 0.772764 0.32857 -0.46727
O_ O_ 0.76711 0.810716 0.336954 -0.46727
O_ O_ 0.967044 0.813543 0.475949 -0.46727
O_ O_ 0.795218 0.832166 0.484592 -0.46727
Zn Zn 0.620653 0.692262 0.880623 0.90689
Zn Zn 0.6304 0.687289 0.929201 0.90689
Zn Zn 0.871381 0.809852 0.633706 0.90689
Zn Zn 0.864837 0.815454 0.683191 0.90689
H_ H_ 0.800687 0.699846 0.943448 0.11455
H_ H_ 0.86633 0.658298 0.847792 0.11455
H_ H_ 0.77661 0.666901 0.855524 0.11455
H_ H_ 0.882716 0.701542 0.961292 0.11455
H_ H_ 0.975475 0.70068 0.957201 0.11455
H_ H_ 0.953321 0.691162 0.863334 0.11455
H_ H_ 0.640053 0.517696 0.936643 0.11455
H_ H_ 0.605434 0.940873 0.853299 0.11455
H_ H_ 0.607656 0.535319 0.849214 0.11455
H_ H_ 0.67402 0.935675 0.961682 0.11455
H_ H_ 0.668061 0.841338 0.957762 0.11455
H_ H_ 0.609175 0.856988 0.873268 0.11455
H_ H_ 0.57745 0.61311 0.959074 0.11455
H_ H_ 0.573569 0.5767 0.513038 0.11455
H_ H_ 0.611437 0.625389 0.557245 0.11455
H_ H_ 0.693105 0.744514 0.973752 0.11455
H_ H_ 0.738543 0.792288 0.518726 0.11455
H_ H_ 0.702556 0.779078 0.56799 0.11455
H_ H_ 0.51406 0.709561 0.621306 0.11455
H_ H_ 0.496878 0.704939 0.671724 0.11455
H_ H_ 0.760704 0.660181 0.645218 0.11455
H_ H_ 0.736389 0.637864 0.695298 0.11455
H_ H_ 0.539721 0.600012 0.750436 0.11455
H_ H_ 0.501486 0.602818 0.800245 0.11455
H_ H_ 0.552674 0.636013 0.84006 0.11455
H_ H_ 0.651901 0.746296 0.754331 0.11455
H_ H_ 0.687955 0.795208 0.793866 0.11455
H_ H_ 0.666901 0.774257 0.845992 0.11455
H_ H_ 0.692791 0.802673 0.69371 0.11455
H_ H_ 0.632288 0.842238 0.595317 0.11455
H_ H_ 0.720979 0.838236 0.604669 0.11455
H_ H_ 0.60063 0.797251 0.7105 0.11455
H_ H_ 0.516192 0.799185 0.701468 0.11455
H_ H_ 0.540605 0.833387 0.612893 0.11455
H_ H_ 0.871946 0.979801 0.691947 0.11455
H_ H_ 0.852288 0.56705 0.601998 0.11455
H_ H_ 0.884915 0.9666 0.600651 0.11455
H_ H_ 0.889776 0.563928 0.718849 0.11455
H_ H_ 0.887256 0.660585 0.716029 0.11455
H_ H_ 0.839331 0.648972 0.627754 0.11455
H_ H_ 0.921771 0.886618 0.715333 0.11455
H_ H_ 0.915396 0.938554 0.759865 0.11455
H_ H_ 0.892141 0.890805 0.802372 0.11455
H_ H_ 0.792778 0.76008 0.726815 0.11455
H_ H_ 0.764735 0.712707 0.771098 0.11455
H_ H_ 0.785041 0.742905 0.818684 0.11455
H_ H_ 0.9801 0.804665 0.869845 0.11455
H_ H_ 0.993718 0.804154 0.922499 0.11455
H_ H_ 0.736359 0.86463 0.894565 0.11455
H_ H_ 0.75153 0.865673 0.945819 0.11455
H_ H_ 0.923099 0.906647 1.00259578 0.11455
H_ H_ 0.951157 0.937041 0.549432 0.11455
H_ H_ 0.935213 0.873645 0.585768 0.11455
H_ H_ 0.843723 0.75126 0.507561 0.11455
H_ H_ 0.816682 0.703954 0.550521 0.11455
H_ H_ 0.824302 0.736886 0.596478 0.11455
C_ C_ 0.724624 0.693452 0.901738 0.68181
C_ C_ 0.781483 0.693023 0.897537 -0.05681
C_ C_ 0.815212 0.697921 0.921187 -0.08735
C_ C_ 0.867284 0.693057 0.917512 -0.05681
C_ C_ 0.888126 0.683828 0.890545 -0.05681
C_ C_ 0.853317 0.672532 0.867803 -0.08735
C_ C_ 0.801319 0.677759 0.871602 -0.08735
C_ C_ 0.899113 0.696758 0.94139 -0.08735
C_ C_ 0.952154 0.693338 0.937951 -0.08735
C_ C_ 0.974911 0.689258 0.910014 -0.05681
C_ C_ 0.94163 0.686926 0.886458 -0.08735
C_ C_ 0.620557 0.786059 0.915196 0.68181
C_ C_ 0.634228 0.591677 0.894604 0.68181
C_ C_ 0.626605 0.533677 0.892608 -0.05681
C_ C_ 0.647775 0.00321997 0.924016 -0.08735
C_ C_ 0.648138 0.949336 0.919562 -0.05681
C_ C_ 0.622201 0.926678 0.895946 -0.05681
C_ C_ 0.611093 0.958666 0.87358 -0.08735
C_ C_ 0.612771 0.012067 0.876527 -0.08735
C_ C_ 0.656884 0.918769 0.943208 -0.08735
C_ C_ 0.647061 0.866594 0.942563 -0.08735
C_ C_ 0.62613 0.842684 0.917878 -0.05681
C_ C_ 0.612243 0.874319 0.894334 -0.08735
C_ C_ 0.527923 0.680873 0.907263 0.68181
C_ C_ 0.591683 0.632899 0.977166 0.1947
C_ C_ 0.602392 0.607784 0.51187 -0.08735
C_ C_ 0.619373 0.636012 0.534821 -0.08735
C_ C_ 0.649115 0.680018 0.531765 -0.05681
C_ C_ 0.664571 0.693183 0.503582 0.18498
C_ C_ 0.678349 0.735645 0.99457 -0.08735
C_ C_ 0.716825 0.759461 0.522912 -0.08735
C_ C_ 0.69515 0.752885 0.549847 -0.08735
C_ C_ 0.668028 0.708648 0.554995 0.18498
C_ C_ 0.693059 0.677931 0.602351 0.44287
C_ C_ 0.609667 0.709098 0.595543 0.44287
C_ C_ 0.59653 0.695747 0.624233 -0.05681
C_ C_ 0.546951 0.702535 0.635232 -0.08735
C_ C_ 0.535059 0.694517 0.664572 -0.08735
C_ C_ 0.575438 0.684971 0.683704 -0.05681
C_ C_ 0.622729 0.670913 0.67255 -0.05681
C_ C_ 0.63264 0.676057 0.642677 -0.05681
C_ C_ 0.682854 0.665901 0.631484 -0.05681
C_ C_ 0.721766 0.661402 0.652172 -0.08735
C_ C_ 0.71102 0.654959 0.680806 -0.08735
C_ C_ 0.661658 0.660207 0.691318 -0.05681
C_ C_ 0.652407 0.657659 0.721188 0.44287
C_ C_ 0.567128 0.687897 0.713076 0.44287
C_ C_ 0.592878 0.660713 0.760475 0.18498
C_ C_ 0.55359 0.625306 0.767631 -0.08735
C_ C_ 0.537848 0.619368 0.795899 -0.08735
C_ C_ 0.559225 0.647811 0.818789 -0.08735
C_ C_ 0.597679 0.684128 0.812056 0.18498
C_ C_ 0.61485 0.691609 0.783174 -0.05681
C_ C_ 0.647351 0.734035 0.777465 -0.08735
C_ C_ 0.667342 0.762892 0.800223 -0.08735
C_ C_ 0.651443 0.751679 0.828255 0.1947
C_ C_ 0.770071 0.814584 0.653687 0.68181
C_ C_ 0.714757 0.818602 0.649932 -0.05681
C_ C_ 0.679743 0.813391 0.673003 -0.08735
C_ C_ 0.626633 0.815217 0.666645 -0.05681
C_ C_ 0.608334 0.825327 0.638461 -0.05681
C_ C_ 0.644338 0.832111 0.616737 -0.08735
C_ C_ 0.695868 0.832052 0.623023 -0.08735
C_ C_ 0.591314 0.812433 0.68902 -0.08735
C_ C_ 0.541836 0.810181 0.683979 -0.08735
C_ C_ 0.520515 0.819944 0.657184 -0.05681
C_ C_ 0.556239 0.827614 0.633641 -0.08735
C_ C_ 0.871824 0.714316 0.667206 0.68181
C_ C_ 0.868314 0.912589 0.650003 0.68181
C_ C_ 0.876738 0.969892 0.647002 -0.05681
C_ C_ 0.877435 0.497376 0.67466 -0.08735
C_ C_ 0.870334 0.550363 0.674254 -0.05681
C_ C_ 0.858793 0.574092 0.6486 -0.05681
C_ C_ 0.853624 0.547866 0.622865 -0.08735
C_ C_ 0.880949 0.991907 0.619284 -0.08735
C_ C_ 0.878598 0.580796 0.698038 -0.08735
C_ C_ 0.87655 0.635287 0.697136 -0.08735
C_ C_ 0.868002 0.65803 0.670282 -0.05681
C_ C_ 0.856344 0.628898 0.646548 -0.08735
C_ C_ 0.967557 0.814955 0.657706 0.68181
C_ C_ 0.893466 0.876417 0.732461 0.1947
C_ C_ 0.8939 0.902817 0.759147 -0.08735
C_ C_ 0.872949 0.882138 0.78316 -0.08735
C_ C_ 0.84359 0.834493 0.780539 -0.05681
C_ C_ 0.838601 0.813685 0.752144 0.18498
C_ C_ 0.806325 0.772224 0.748272 -0.08735
C_ C_ 0.790558 0.745003 0.772242 -0.08735
C_ C_ 0.803546 0.761281 0.800739 -0.08735
C_ C_ 0.827302 0.807454 0.80523 0.18498
C_ C_ 0.80338 0.840321 0.852764 0.44287
C_ C_ 0.88495 0.808797 0.844655 0.44287
C_ C_ 0.897518 0.81969 0.874393 -0.05681
C_ C_ 0.948955 0.811983 0.884939 -0.08735
C_ C_ 0.956457 0.808947 0.914424 -0.08735
C_ C_ 0.915985 0.81782 0.934161 -0.05681
C_ C_ 0.868374 0.82947 0.92329 -0.05681
C_ C_ 0.858278 0.826891 0.893747 -0.05681
C_ C_ 0.809886 0.841863 0.882509 -0.05681
C_ C_ 0.770112 0.851666 0.901474 -0.08735
C_ C_ 0.781219 0.858161 0.931106 -0.08735
C_ C_ 0.826982 0.8399 0.942631 -0.05681
C_ C_ 0.838292 0.841097 0.972413 0.44287
C_ C_ 0.923761 0.817752 0.964556 0.44287
C_ C_ 0.890542 0.842752 0.509669 0.18498
C_ C_ 0.915763 0.888425 0.514949 -0.08735
C_ C_ 0.928611 0.902989 0.543302 -0.08735
C_ C_ 0.922635 0.866597 0.565329 -0.08735
C_ C_ 0.893264 0.822767 0.561633 0.18498
C_ C_ 0.884334 0.807145 0.533 -0.05681
C_ C_ 0.855333 0.763202 0.528607 -0.08735
C_ C_ 0.837828 0.737414 0.552438 -0.08735
C_ C_ 0.842894 0.756347 0.579758 0.1947
N_ N_ 0.626625 0.66955 0.974427 -0.29468
N_ N_ 0.656721 0.696013 0.584603 -0.17154
N_ N_ 0.605134 0.670058 0.731202 -0.17154
N_ N_ 0.617404 0.712896 0.833669 -0.29468
N_ N_ 0.862621 0.836912 0.729045 -0.29468
N_ N_ 0.840899 0.823527 0.833781 -0.17154
N_ N_ 0.884096 0.825284 0.983254 -0.17154
N_ N_ 0.872739 0.796336 0.584566 -0.29468
O_ O_ 0.706078 0.695577 0.92645 -0.58347
O_ O_ 0.69752 0.699735 0.880437 -0.58347
O_ O_ 0.624501 0.758709 0.937108 -0.58347
O_ O_ 0.618931 0.764524 0.890784 -0.58347
O_ O_ 0.633061 0.612314 0.919417 -0.58347
O_ O_ 0.624755 0.619036 0.872272 -0.58347
O_ O_ 0.557934 0.68187 0.92869 -0.58347
O_ O_ 0.547882 0.686998 0.88272 -0.58347
O_ O_ 0.572318 0.725523 0.57806 -0.46727
O_ O_ 0.739348 0.672765 0.592499 -0.46727
O_ O_ 0.524152 0.702776 0.723938 -0.46727
O_ O_ 0.686472 0.640274 0.739734 -0.46727
O_ O_ 0.788271 0.814996 0.678815 -0.58347
O_ O_ 0.798437 0.821917 0.631828 -0.58347
O_ O_ 0.870257 0.742393 0.688814 -0.58347
O_ O_ 0.865854 0.733841 0.641954 -0.58347
O_ O_ 0.865578 0.891739 0.67494 -0.58347
O_ O_ 0.872787 0.88215 0.628103 -0.58347
O_ O_ 0.942415 0.821796 0.680375 -0.58347
O_ O_ 0.94614 0.806139 0.633688 -0.58347
O_ O_ 0.918775 0.788385 0.827034 -0.46727
O_ O_ 0.757834 0.848553 0.843481 -0.46727
O_ O_ 0.969811 0.809703 0.974236 -0.46727
O_ O_ 0.800328 0.846422 0.991182 -0.46727
_cell_length_a 26.376
_cell_length_b 26.400000238300095
_cell_length_c 46.67800035477134
_cell_angle_alpha 90.00700052986613
_cell_angle_beta 89.99899961309502
_cell_angle_gamma 90.45000003183146
_symmetry_space_group_name_H-M         'P 1'
_symmetry_Int_Tables_number            1
loop_
_symmetry_equiv_pos_as_xyz
   'x, y, z'
                         
loop_
_atom_site_label
_atom_site_type_symbol
_atom_site_fract_x 
_atom_site_fract_y
_atom_site_fract_z
_atom_site_charge
Zn Zn 0.13146 0.187085 0.38482 0.90689
Zn Zn 0.142447 0.179632 0.432294 0.90689
Zn Zn 0.366219 0.326371 0.132459 0.90689
Zn Zn 0.353695 0.329259 0.180732 0.90689
H_ H_ 0.317865 0.205441 0.445219 0.11455
H_ H_ 0.372359 0.157478 0.349129 0.11455
H_ H_ 0.278442 0.163208 0.359112 0.11455
H_ H_ 0.402458 0.191051 0.465072 0.11455
H_ H_ 0.496114 0.18804 0.45417 0.11455
H_ H_ 0.464053 0.16477 0.365276 0.11455
H_ H_ 0.143839 0.0128573 0.446905 0.11455
H_ H_ 0.13506 0.435425 0.346779 0.11455
H_ H_ 0.128178 0.0301114 0.355435 0.11455
H_ H_ 0.14759 0.428312 0.463196 0.11455
H_ H_ 0.15468 0.337228 0.457226 0.11455
H_ H_ 0.137239 0.349502 0.367472 0.11455
H_ H_ 0.0851516 0.096369 0.46639 0.11455
H_ H_ 0.0447324 0.0954239 0.0128719 0.11455
H_ H_ 0.0827294 0.140473 0.0569514 0.11455
H_ H_ 0.189011 0.247366 0.475185 0.11455
H_ H_ 0.22004 0.309783 0.017976 0.11455
H_ H_ 0.198282 0.27986 0.0669195 0.11455
H_ H_ 0.00608363 0.195165 0.126579 0.11455
H_ H_ 0.00154544 0.191977 0.178886 0.11455
H_ H_ 0.263084 0.168428 0.134286 0.11455
H_ H_ 0.25482 0.148846 0.186841 0.11455
H_ H_ 0.0629195 0.0862669 0.253198 0.11455
H_ H_ 0.025585 0.0800243 0.30177 0.11455
H_ H_ 0.06594 0.126698 0.341984 0.11455
H_ H_ 0.180174 0.228103 0.260181 0.11455
H_ H_ 0.213558 0.277286 0.300584 0.11455
H_ H_ 0.189514 0.249888 0.3516 0.11455
H_ H_ 0.186891 0.314603 0.193779 0.11455
H_ H_ 0.109167 0.34074 0.0988941 0.11455
H_ H_ 0.2073 0.340045 0.104305 0.11455
H_ H_ 0.105071 0.311866 0.216247 0.11455
H_ H_ 0.00901757 0.315797 0.211821 0.11455
H_ H_ 0.0272103 0.336646 0.119198 0.11455
H_ H_ 0.331349 0.492468 0.187061 0.11455
H_ H_ 0.355029 0.0740966 0.0993456 0.11455
H_ H_ 0.413463 0.477704 0.108939 0.11455
H_ H_ 0.389539 0.0825939 0.215371 0.11455
H_ H_ 0.401973 0.171121 0.208707 0.11455
H_ H_ 0.376191 0.155245 0.119475 0.11455
H_ H_ 0.4025 0.395577 0.215877 0.11455
H_ H_ 0.43249 0.41725 0.263713 0.11455
H_ H_ 0.402145 0.375401 0.307176 0.11455
H_ H_ 0.305426 0.251204 0.226127 0.11455
H_ H_ 0.294199 0.186636 0.263734 0.11455
H_ H_ 0.314239 0.214803 0.316748 0.11455
H_ H_ 0.488167 0.281704 0.374031 0.11455
H_ H_ 0.502361 0.294209 0.425575 0.11455
H_ H_ 0.2403 0.3419 0.386461 0.11455
H_ H_ 0.253755 0.357604 0.440229 0.11455
H_ H_ 0.436116 0.414306 0.502848 0.11455
H_ H_ 0.465836 0.425914 0.0446633 0.11455
H_ H_ 0.428363 0.379307 0.0866134 0.11455
H_ H_ 0.34285 0.24291 0.0114575 0.11455
H_ H_ 0.306099 0.204507 0.0555894 0.11455
H_ H_ 0.316397 0.248701 0.100198 0.11455
C_ C_ 0.235038 0.186559 0.4084 0.68181
C_ C_ 0.292365 0.185278 0.403661 -0.05681
C_ C_ 0.329554 0.192427 0.424304 -0.08735
C_ C_ 0.380733 0.187073 0.419432 -0.05681
C_ C_ 0.396154 0.177217 0.391595 -0.05681
C_ C_ 0.360257 0.168768 0.370383 -0.08735
C_ C_ 0.307656 0.171679 0.376382 -0.08735
C_ C_ 0.415014 0.191332 0.442565 -0.08735
C_ C_ 0.467374 0.185811 0.437183 -0.08735
C_ C_ 0.483293 0.182037 0.408593 -0.05681
C_ C_ 0.448429 0.173467 0.386446 -0.08735
C_ C_ 0.129153 0.280071 0.411766 0.68181
C_ C_ 0.136794 0.0850219 0.40319 0.68181
C_ C_ 0.133105 0.0287786 0.401674 -0.05681
C_ C_ 0.144247 0.496266 0.420956 -0.08735
C_ C_ 0.14313 0.442884 0.417766 -0.05681
C_ C_ 0.135535 0.420782 0.390432 -0.05681
C_ C_ 0.143259 0.452147 0.366827 -0.08735
C_ C_ 0.14146 0.50497 0.369577 -0.08735
C_ C_ 0.145854 0.41234 0.441993 -0.08735
C_ C_ 0.144811 0.360937 0.439406 -0.08735
C_ C_ 0.137576 0.336895 0.412977 -0.05681
C_ C_ 0.137993 0.368396 0.388231 -0.08735
C_ C_ 0.0389653 0.176499 0.408926 0.68181
C_ C_ 0.101691 0.119596 0.48433 0.1947
C_ C_ 0.0730591 0.125055 0.0106397 -0.08735
C_ C_ 0.0949305 0.147949 0.0352758 -0.08735
C_ C_ 0.131525 0.187981 0.031171 -0.05681
C_ C_ 0.151549 0.200451 1.00292569 0.18498
C_ C_ 0.183409 0.230961 0.495543 -0.08735
C_ C_ 0.196773 0.275391 0.0221501 -0.08735
C_ C_ 0.181 0.262062 0.0495042 -0.08735
C_ C_ 0.146513 0.219918 0.0542081 0.18498
C_ C_ 0.181652 0.184842 0.0979412 0.44287
C_ C_ 0.0948647 0.211957 0.0978847 0.44287
C_ C_ 0.0892574 0.196064 0.126075 -0.05681
C_ C_ 0.0419752 0.194285 0.139041 -0.08735
C_ C_ 0.036155 0.183362 0.168562 -0.08735
C_ C_ 0.0815053 0.17153 0.184639 -0.05681
C_ C_ 0.128152 0.171392 0.171636 -0.05681
C_ C_ 0.132549 0.180385 0.1421 -0.05681
C_ C_ 0.179317 0.177251 0.128031 -0.05681
C_ C_ 0.225549 0.170263 0.144833 -0.08735
C_ C_ 0.221851 0.160511 0.174804 -0.08735
C_ C_ 0.173812 0.163802 0.188886 -0.05681
C_ C_ 0.167223 0.153998 0.218841 0.44287
C_ C_ 0.0794592 0.170115 0.214897 0.44287
C_ C_ 0.114016 0.146181 0.261618 0.18498
C_ C_ 0.0762081 0.1128 0.268809 -0.08735
C_ C_ 0.056645 0.107837 0.296999 -0.08735
C_ C_ 0.0779937 0.132903 0.320103 -0.08735
C_ C_ 0.115978 0.168364 0.314165 0.18498
C_ C_ 0.133889 0.177545 0.284822 -0.05681
C_ C_ 0.17308 0.213099 0.281065 -0.08735
C_ C_ 0.188102 0.242748 0.305058 -0.08735
C_ C_ 0.172067 0.231606 0.332528 0.1947
C_ C_ 0.25932 0.328122 0.154265 0.68181
C_ C_ 0.202457 0.321875 0.148925 -0.05681
C_ C_ 0.170536 0.317386 0.173206 -0.08735
C_ C_ 0.118709 0.322586 0.171823 -0.05681
C_ C_ 0.0963931 0.331392 0.143979 -0.05681
C_ C_ 0.128233 0.335149 0.120041 -0.08735
C_ C_ 0.180661 0.331907 0.122622 -0.08735
C_ C_ 0.0877713 0.319322 0.195596 -0.08735
C_ C_ 0.0345712 0.317139 0.193137 -0.08735
C_ C_ 0.01146 0.321796 0.165346 -0.05681
C_ C_ 0.0437472 0.330766 0.140738 -0.08735
C_ C_ 0.369208 0.228145 0.162506 0.68181
C_ C_ 0.360337 0.42394 0.148851 0.68181
C_ C_ 0.366543 0.479632 0.146998 -0.05681
C_ C_ 0.368355 0.0108377 0.174407 -0.08735
C_ C_ 0.372091 0.0643228 0.171859 -0.05681
C_ C_ 0.369799 0.0854266 0.14378 -0.05681
C_ C_ 0.36526 0.054843 0.120102 -0.08735
C_ C_ 0.397148 0.50371 0.125358 -0.08735
C_ C_ 0.380103 0.0971032 0.195455 -0.08735
C_ C_ 0.384844 0.149429 0.191411 -0.08735
C_ C_ 0.374004 0.170709 0.164478 -0.05681
C_ C_ 0.373085 0.138299 0.141381 -0.08735
C_ C_ 0.460393 0.325862 0.158405 0.68181
C_ C_ 0.385786 0.37774 0.234925 0.1947
C_ C_ 0.404352 0.388988 0.263044 -0.08735
C_ C_ 0.386206 0.365408 0.286435 -0.08735
C_ C_ 0.35575 0.321553 0.281993 -0.05681
C_ C_ 0.340786 0.307333 0.252989 0.18498
C_ C_ 0.320877 0.260222 0.246483 -0.08735
C_ C_ 0.311111 0.225867 0.269903 -0.08735
C_ C_ 0.321377 0.24034 0.298367 -0.08735
C_ C_ 0.342477 0.288446 0.304197 0.18498
C_ C_ 0.313899 0.317695 0.350846 0.44287
C_ C_ 0.399079 0.297838 0.345707 0.44287
C_ C_ 0.409606 0.3071 0.375074 -0.05681
C_ C_ 0.456089 0.296994 0.387316 -0.08735
C_ C_ 0.464459 0.304149 0.416322 -0.08735
C_ C_ 0.423353 0.315275 0.434664 -0.05681
C_ C_ 0.375622 0.325573 0.422267 -0.05681
C_ C_ 0.368769 0.31985 0.392167 -0.05681
C_ C_ 0.318547 0.325137 0.380842 -0.05681
C_ C_ 0.278928 0.341752 0.396489 -0.08735
C_ C_ 0.285224 0.345613 0.426477 -0.08735
C_ C_ 0.333604 0.33744 0.439703 -0.05681
C_ C_ 0.339563 0.340418 0.470312 0.44287
C_ C_ 0.426795 0.316907 0.465338 0.44287
C_ C_ 0.3996 0.330714 0.00857465 0.18498
C_ C_ 0.428501 0.375105 0.0134948 -0.08735
C_ C_ 0.436547 0.394657 0.0417794 -0.08735
C_ C_ 0.417061 0.369398 0.0658679 -0.08735
C_ C_ 0.385676 0.327962 0.0610273 0.18498
C_ C_ 0.377291 0.307562 0.0343471 -0.05681
C_ C_ 0.348461 0.261316 0.0325185 -0.08735
C_ C_ 0.330017 0.238185 0.0563625 -0.08735
C_ C_ 0.336668 0.262523 0.0820244 0.1947
N_ N_ 0.13169 0.162445 0.479177 -0.29468
N_ N_ 0.139228 0.202001 0.0835769 -0.17154
N_ N_ 0.12007 0.159983 0.231232 -0.17154
N_ N_ 0.135383 0.195236 0.336512 -0.29468
N_ N_ 0.355235 0.337001 0.230257 -0.29468
N_ N_ 0.352071 0.302458 0.333701 -0.17154
N_ N_ 0.386615 0.329507 0.482415 -0.17154
N_ N_ 0.363944 0.304896 0.0854187 -0.29468
O_ O_ 0.216514 0.188606 0.434195 -0.58347
O_ O_ 0.205858 0.184954 0.386692 -0.58347
O_ O_ 0.134407 0.253264 0.434733 -0.58347
O_ O_ 0.126203 0.25803 0.388299 -0.58347
O_ O_ 0.151754 0.10533 0.426292 -0.58347
O_ O_ 0.134812 0.110382 0.381136 -0.58347
O_ O_ 0.0667251 0.170609 0.430558 -0.58347
O_ O_ 0.0600253 0.180747 0.385071 -0.58347
O_ O_ 0.0564588 0.231297 0.0828952 -0.46727
O_ O_ 0.22533 0.177173 0.0835326 -0.46727
O_ O_ 0.0377727 0.188256 0.226919 -0.46727
O_ O_ 0.203995 0.136055 0.234617 -0.46727
O_ O_ 0.276403 0.331348 0.180545 -0.58347
O_ O_ 0.29149 0.324398 0.133088 -0.58347
O_ O_ 0.352716 0.250365 0.184402 -0.58347
O_ O_ 0.376331 0.251454 0.139742 -0.58347
O_ O_ 0.354069 0.399577 0.172368 -0.58347
O_ O_ 0.365483 0.400224 0.126237 -0.58347
O_ O_ 0.430914 0.330611 0.18061 -0.58347
O_ O_ 0.441043 0.325631 0.133594 -0.58347
O_ O_ 0.431778 0.270958 0.331335 -0.46727
O_ O_ 0.270652 0.324754 0.339122 -0.46727
O_ O_ 0.469566 0.304809 0.477399 -0.46727
O_ O_ 0.302865 0.35742 0.487215 -0.46727
Zn Zn 0.132125 0.190447 0.884931 0.90689
Zn Zn 0.137497 0.180026 0.933693 0.90689
Zn Zn 0.376462 0.316225 0.631924 0.90689
Zn Zn 0.365948 0.320197 0.680073 0.90689
H_ H_ 0.309122 0.186399 0.947281 0.11455
H_ H_ 0.377181 0.171651 0.847818 0.11455
H_ H_ 0.282165 0.168098 0.856375 0.11455
H_ H_ 0.393909 0.180188 0.964937 0.11455
H_ H_ 0.484524 0.194977 0.959034 0.11455
H_ H_ 0.462937 0.157842 0.866859 0.11455
H_ H_ 0.143964 0.015025 0.944201 0.11455
H_ H_ 0.10447 0.432776 0.856217 0.11455
H_ H_ 0.147728 0.0276813 0.851921 0.11455
H_ H_ 0.167607 0.43799 0.96716 0.11455
H_ H_ 0.156122 0.341853 0.965972 0.11455
H_ H_ 0.108108 0.351265 0.878654 0.11455
H_ H_ 0.0846836 0.111617 0.965796 0.11455
H_ H_ 0.0673429 0.0714679 0.51778 0.11455
H_ H_ 0.110547 0.115109 0.556159 0.11455
H_ H_ 0.198334 0.251205 0.978656 0.11455
H_ H_ 0.2283 0.291451 0.513051 0.11455
H_ H_ 0.213978 0.266966 0.56325 0.11455
H_ H_ 0.0221878 0.21368 0.625022 0.11455
H_ H_ 0.00843433 0.187782 0.674164 0.11455
H_ H_ 0.271905 0.180444 0.642654 0.11455
H_ H_ 0.255843 0.170863 0.696956 0.11455
H_ H_ 0.0760403 0.0959255 0.75259 0.11455
H_ H_ 0.0564023 0.071848 0.802146 0.11455
H_ H_ 0.0762141 0.128813 0.842913 0.11455
H_ H_ 0.155069 0.260259 0.76259 0.11455
H_ H_ 0.188633 0.308535 0.804844 0.11455
H_ H_ 0.178823 0.272846 0.85247 0.11455
H_ H_ 0.195977 0.301166 0.691451 0.11455
H_ H_ 0.129775 0.316141 0.595585 0.11455
H_ H_ 0.220508 0.32063 0.603525 0.11455
H_ H_ 0.107663 0.320024 0.713251 0.11455
H_ H_ 0.0176824 0.320599 0.704743 0.11455
H_ H_ 0.0404212 0.314309 0.61404 0.11455
H_ H_ 0.379426 0.486874 0.693981 0.11455
H_ H_ 0.319639 0.0742894 0.607175 0.11455
H_ H_ 0.345215 0.474925 0.603687 0.11455
H_ H_ 0.421969 0.0674011 0.709793 0.11455
H_ H_ 0.41856 0.161607 0.708135 0.11455
H_ H_ 0.354545 0.154496 0.624098 0.11455
H_ H_ 0.423121 0.383442 0.717468 0.11455
H_ H_ 0.431976 0.416426 0.768734 0.11455
H_ H_ 0.384677 0.379443 0.805707 0.11455
H_ H_ 0.301222 0.257937 0.721849 0.11455
H_ H_ 0.257433 0.213201 0.761469 0.11455
H_ H_ 0.281641 0.229909 0.812989 0.11455
H_ H_ 0.485606 0.297688 0.867175 0.11455
H_ H_ 0.496829 0.305494 0.921814 0.11455
H_ H_ 0.236478 0.325852 0.888937 0.11455
H_ H_ 0.25047 0.338837 0.941844 0.11455
H_ H_ 0.445695 0.395096 -0.005265999999999993 0.11455
H_ H_ 0.451687 0.436857 0.552473 0.11455
H_ H_ 0.423508 0.382446 0.59245 0.11455
H_ H_ 0.336153 0.258382 0.510158 0.11455
H_ H_ 0.305738 0.209297 0.549443 0.11455
H_ H_ 0.332011 0.230719 0.598853 0.11455
C_ C_ 0.235088 0.189374 0.908814 0.68181
C_ C_ 0.290447 0.180239 0.902013 -0.05681
C_ C_ 0.323567 0.181036 0.925561 -0.08735
C_ C_ 0.375145 0.178182 0.920673 -0.05681
C_ C_ 0.395517 0.172601 0.89288 -0.05681
C_ C_ 0.362229 0.16722 0.870424 -0.08735
C_ C_ 0.309077 0.170349 0.874481 -0.08735
C_ C_ 0.408341 0.179282 0.943522 -0.08735
C_ C_ 0.461587 0.181211 0.941126 -0.08735
C_ C_ 0.482499 0.176111 0.912794 -0.05681
C_ C_ 0.447776 0.165102 0.889158 -0.08735
C_ C_ 0.127055 0.283397 0.91991 0.68181
C_ C_ 0.14494 0.0863885 0.899693 0.68181
C_ C_ 0.144658 0.0288522 0.897475 -0.05681
C_ C_ 0.145998 0.502914 0.92546 -0.08735
C_ C_ 0.142835 0.447756 0.924709 -0.05681
C_ C_ 0.132374 0.422514 0.898253 -0.05681
C_ C_ 0.117759 0.452017 0.87471 -0.08735
C_ C_ 0.114135 0.506099 0.875407 -0.08735
C_ C_ 0.152096 0.417659 0.948639 -0.08735
C_ C_ 0.147254 0.363867 0.946967 -0.08735
C_ C_ 0.133718 0.340668 0.921355 -0.05681
C_ C_ 0.123323 0.37081 0.897641 -0.08735
C_ C_ 0.0346146 0.18112 0.909947 0.68181
C_ C_ 0.0939573 0.137737 0.983143 0.1947
C_ C_ 0.0899274 0.105508 0.512193 -0.08735
C_ C_ 0.114114 0.128976 0.534572 -0.08735
C_ C_ 0.146277 0.171701 0.529695 -0.05681
C_ C_ 0.152038 0.188898 0.501132 0.18498
C_ C_ 0.182922 0.24063 0.999565 -0.08735
C_ C_ 0.206908 0.25645 0.518242 -0.08735
C_ C_ 0.198703 0.242509 0.54622 -0.08735
C_ C_ 0.16531 0.201982 0.552793 0.18498
C_ C_ 0.196832 0.181353 0.601538 0.44287
C_ C_ 0.10838 0.191582 0.595098 0.44287
C_ C_ 0.100977 0.188527 0.625016 -0.05681
C_ C_ 0.0525352 0.199057 0.638203 -0.08735
C_ C_ 0.0451724 0.19326 0.667248 -0.08735
C_ C_ 0.0874395 0.191139 0.686144 -0.05681
C_ C_ 0.134256 0.184122 0.67419 -0.05681
C_ C_ 0.142652 0.184984 0.644139 -0.05681
C_ C_ 0.19131 0.185157 0.632336 -0.05681
C_ C_ 0.234092 0.183733 0.651303 -0.08735
C_ C_ 0.225184 0.176236 0.680747 -0.08735
C_ C_ 0.176116 0.17276 0.69169 -0.05681
C_ C_ 0.168497 0.163973 0.720873 0.44287
C_ C_ 0.0806612 0.185232 0.716332 0.44287
C_ C_ 0.114372 0.164049 0.764038 0.18498
C_ C_ 0.0882772 0.119638 0.769324 -0.08735
C_ C_ 0.080042 0.105257 0.798182 -0.08735
C_ C_ 0.09079 0.13769 0.821942 -0.08735
C_ C_ 0.118765 0.180588 0.816468 0.18498
C_ C_ 0.128658 0.197239 0.787811 -0.05681
C_ C_ 0.152996 0.245374 0.784344 -0.08735
C_ C_ 0.168261 0.274286 0.807858 -0.08735
C_ C_ 0.160036 0.254591 0.834699 0.1947
C_ C_ 0.271777 0.318645 0.653708 0.68181
C_ C_ 0.215802 0.320866 0.649434 -0.05681
C_ C_ 0.182104 0.315076 0.671511 -0.08735
C_ C_ 0.129584 0.324896 0.668956 -0.05681
C_ C_ 0.109234 0.325138 0.640478 -0.05681
C_ C_ 0.142704 0.316827 0.617674 -0.08735
C_ C_ 0.195357 0.319149 0.621798 -0.08735
C_ C_ 0.0958378 0.320944 0.691546 -0.08735
C_ C_ 0.0428497 0.318136 0.687292 -0.08735
C_ C_ 0.0226304 0.318674 0.659931 -0.05681
C_ C_ 0.0553118 0.321492 0.635924 -0.08735
C_ C_ 0.379655 0.221371 0.664302 0.68181
C_ C_ 0.364087 0.416866 0.651966 0.68181
C_ C_ 0.362451 0.474907 0.649529 -0.05681
C_ C_ 0.375479 0.0044642 0.671679 -0.08735
C_ C_ 0.384055 0.0575175 0.668712 -0.05681
C_ C_ 0.362945 0.0821842 0.645424 -0.05681
C_ C_ 0.336234 0.054735 0.624754 -0.08735
C_ C_ 0.35346 0.499456 0.622448 -0.08735
C_ C_ 0.408702 0.0874737 0.690885 -0.08735
C_ C_ 0.40893 0.140496 0.688808 -0.08735
C_ C_ 0.383755 0.165652 0.665902 -0.05681
C_ C_ 0.364118 0.136677 0.643113 -0.08735
C_ C_ 0.469284 0.321003 0.656353 0.68181
C_ C_ 0.399581 0.37122 0.734993 0.1947
C_ C_ 0.40812 0.386654 0.763353 -0.08735
C_ C_ 0.38323 0.361954 0.785582 -0.08735
C_ C_ 0.351982 0.320197 0.779981 -0.05681
C_ C_ 0.342057 0.306857 0.750006 0.18498
C_ C_ 0.310951 0.26726 0.743792 -0.08735
C_ C_ 0.286626 0.242463 0.766681 -0.08735
C_ C_ 0.300053 0.251038 0.795304 -0.08735
C_ C_ 0.329633 0.293477 0.801978 0.18498
C_ C_ 0.302713 0.311301 0.849868 0.44287
C_ C_ 0.389432 0.288588 0.841201 0.44287
C_ C_ 0.401565 0.298031 0.871032 -0.05681
C_ C_ 0.451708 0.297602 0.88322 -0.08735
C_ C_ 0.461607 0.298507 0.913271 -0.08735
C_ C_ 0.421571 0.306135 0.931791 -0.05681
C_ C_ 0.373293 0.308795 0.919493 -0.05681
C_ C_ 0.362468 0.307241 0.889584 -0.05681
C_ C_ 0.312313 0.315597 0.880021 -0.05681
C_ C_ 0.273278 0.320062 0.898634 -0.08735
C_ C_ 0.282328 0.323718 0.928218 -0.08735
C_ C_ 0.331116 0.313962 0.938783 -0.05681
C_ C_ 0.339383 0.315719 0.968734 0.44287
C_ C_ 0.428835 0.307126 0.961381 0.44287
C_ C_ 0.395673 0.344111 0.511762 0.18498
C_ C_ 0.420696 0.388779 0.518741 -0.08735
C_ C_ 0.431341 0.402767 0.547632 -0.08735
C_ C_ 0.41279 0.37242 0.570047 -0.08735
C_ C_ 0.390312 0.326604 0.564077 0.18498
C_ C_ 0.379363 0.312669 0.534924 -0.05681
C_ C_ 0.3537 0.266923 0.530111 -0.08735
C_ C_ 0.333333 0.240523 0.553218 -0.08735
C_ C_ 0.344542 0.253861 0.581264 0.1947
N_ N_ 0.135192 0.172662 0.980576 -0.29468
N_ N_ 0.156977 0.190873 0.583296 -0.17154
N_ N_ 0.123455 0.178249 0.733073 -0.17154
N_ N_ 0.134921 0.210512 0.838784 -0.29468
N_ N_ 0.370212 0.330249 0.729333 -0.29468
N_ N_ 0.342043 0.302348 0.830657 -0.17154
N_ N_ 0.388141 0.312323 0.979797 -0.17154
N_ N_ 0.375069 0.295737 0.586597 -0.29468
O_ O_ 0.215425 0.183913 0.933306 -0.58347
O_ O_ 0.206787 0.198706 0.887384 -0.58347
O_ O_ 0.133108 0.255514 0.940598 -0.58347
O_ O_ 0.120187 0.263758 0.89506 -0.58347
O_ O_ 0.142563 0.107171 0.924852 -0.58347
O_ O_ 0.143983 0.114336 0.878064 -0.58347
O_ O_ 0.059926 0.17695 0.933125 -0.58347
O_ O_ 0.0565797 0.183152 0.885245 -0.58347
O_ O_ 0.0704085 0.199899 0.578803 -0.46727
O_ O_ 0.242374 0.171837 0.59225 -0.46727
O_ O_ 0.0354506 0.188802 0.728563 -0.46727
O_ O_ 0.205928 0.149163 0.737801 -0.46727
O_ O_ 0.288558 0.320946 0.67935 -0.58347
O_ O_ 0.300328 0.303037 0.633645 -0.58347
O_ O_ 0.373368 0.246884 0.685941 -0.58347
O_ O_ 0.383775 0.243988 0.640434 -0.58347
O_ O_ 0.36033 0.395585 0.675843 -0.58347
O_ O_ 0.368849 0.38965 0.629577 -0.58347
O_ O_ 0.44086 0.322365 0.678495 -0.58347
O_ O_ 0.448874 0.324011 0.632616 -0.58347
O_ O_ 0.425397 0.272016 0.823837 -0.46727
O_ O_ 0.259881 0.329694 0.84087 -0.46727
O_ O_ 0.474552 0.301597 0.972395 -0.46727
O_ O_ 0.302957 0.331617 0.985217 -0.46727
Zn Zn 0.134453 0.683847 0.382714 0.90689
Zn Zn 0.146254 0.679894 0.430441 0.90689
Zn Zn 0.375785 0.822372 0.133322 0.90689
Zn Zn 0.360919 0.830428 0.179815 0.90689
H_ H_ 0.316175 0.687675 0.447816 0.11455
H_ H_ 0.380608 0.658992 0.348261 0.11455
H_ H_ 0.288916 0.678814 0.356483 0.11455
H_ H_ 0.401405 0.672126 0.466295 0.11455
H_ H_ 0.495449 0.683527 0.457314 0.11455
H_ H_ 0.462602 0.66515 0.366668 0.11455
H_ H_ 0.14953 0.511315 0.442696 0.11455
H_ H_ 0.116337 0.935356 0.351897 0.11455
H_ H_ 0.139479 0.527753 0.349424 0.11455
H_ H_ 0.161927 0.923339 0.464357 0.11455
H_ H_ 0.13771 0.838096 0.464305 0.11455
H_ H_ 0.124843 0.854884 0.372012 0.11455
H_ H_ 0.0904786 0.610738 0.461608 0.11455
H_ H_ 0.058999 0.578952 0.0139428 0.11455
H_ H_ 0.0968959 0.623022 0.0551 0.11455
H_ H_ 0.21056 0.744501 0.475918 0.11455
H_ H_ 0.211294 0.802542 0.0148544 0.11455
H_ H_ 0.17541 0.788134 0.0629251 0.11455
H_ H_ 0.0022599999999999287 0.705147 0.127719 0.11455
H_ H_ -0.005193000000000003 0.683575 0.17822 0.11455
H_ H_ 0.253563 0.684666 0.136485 0.11455
H_ H_ 0.246259 0.680296 0.190788 0.11455
H_ H_ 0.0562913 0.590136 0.252458 0.11455
H_ H_ 0.031305 0.578696 0.305428 0.11455
H_ H_ 0.0747908 0.624199 0.341856 0.11455
H_ H_ 0.155885 0.74396 0.256521 0.11455
H_ H_ 0.200596 0.787081 0.293178 0.11455
H_ H_ 0.183751 0.766801 0.344377 0.11455
H_ H_ 0.19195 0.805465 0.19968 0.11455
H_ H_ 0.126434 0.843426 0.101702 0.11455
H_ H_ 0.216063 0.852787 0.111697 0.11455
H_ H_ 0.110044 0.815935 0.218764 0.11455
H_ H_ 0.0152996 0.81002 0.21047 0.11455
H_ H_ 0.0358398 0.826391 0.119553 0.11455
H_ H_ 0.367823 0.995378 0.195966 0.11455
H_ H_ 0.418551 0.571283 0.10366 0.11455
H_ H_ 0.359643 0.979969 0.10342 0.11455
H_ H_ 0.313702 0.575587 0.20739 0.11455
H_ H_ 0.327832 0.669259 0.207397 0.11455
H_ H_ 0.417985 0.657213 0.129113 0.11455
H_ H_ 0.425952 0.885026 0.217924 0.11455
H_ H_ 0.436596 0.920697 0.265288 0.11455
H_ H_ 0.37994 0.891263 0.30397 0.11455
H_ H_ 0.297622 0.764202 0.223699 0.11455
H_ H_ 0.265185 0.708696 0.26427 0.11455
H_ H_ 0.284643 0.729491 0.312976 0.11455
H_ H_ 0.477256 0.781744 0.371188 0.11455
H_ H_ 0.494947 0.802225 0.419042 0.11455
H_ H_ 0.229536 0.836025 0.390259 0.11455
H_ H_ 0.246214 0.832732 0.443031 0.11455
H_ H_ 0.405069 0.928799 0.49855 0.11455
H_ H_ 0.452474 0.935113 0.0409874 0.11455
H_ H_ 0.423177 0.892283 0.0845703 0.11455
H_ H_ 0.339984 0.747917 0.011907 0.11455
H_ H_ 0.304107 0.708615 0.053185 0.11455
H_ H_ 0.320746 0.745792 0.101831 0.11455
C_ C_ 0.239528 0.69186 0.407007 0.68181
C_ C_ 0.295146 0.686728 0.402321 -0.05681
C_ C_ 0.327698 0.678627 0.426135 -0.08735
C_ C_ 0.379629 0.671881 0.421492 -0.05681
C_ C_ 0.399292 0.667149 0.393506 -0.05681
C_ C_ 0.366419 0.669372 0.369648 -0.08735
C_ C_ 0.315636 0.680563 0.374012 -0.08735
C_ C_ 0.414465 0.67285 0.444642 -0.08735
C_ C_ 0.467638 0.676442 0.439606 -0.08735
C_ C_ 0.486525 0.673781 0.412106 -0.05681
C_ C_ 0.451419 0.665672 0.388742 -0.08735
C_ C_ 0.128245 0.781386 0.414171 0.68181
C_ C_ 0.145806 0.585953 0.398689 0.68181
C_ C_ 0.143306 0.528602 0.396851 -0.05681
C_ C_ 0.139835 0.997053 0.425585 -0.08735
C_ C_ 0.13585 0.943716 0.422434 -0.05681
C_ C_ 0.125645 0.921982 0.395809 -0.05681
C_ C_ 0.122615 0.95447 0.372067 -0.08735
C_ C_ 0.127779 1.0067318 0.374519 -0.08735
C_ C_ 0.138288 0.912474 0.446163 -0.08735
C_ C_ 0.134517 0.860568 0.444198 -0.08735
C_ C_ 0.123674 0.837021 0.417733 -0.05681
C_ C_ 0.124386 0.867711 0.392998 -0.08735
C_ C_ 0.0412552 0.676978 0.406965 0.68181
C_ C_ 0.112311 0.624617 0.4803 0.1947
C_ C_ 0.0817319 0.611618 0.0103687 -0.08735
C_ C_ 0.100681 0.638598 0.0337474 -0.08735
C_ C_ 0.125644 0.683611 0.0307304 -0.05681
C_ C_ 0.138953 0.695688 1.00254276 0.18498
C_ C_ 0.188092 0.736677 0.496027 -0.08735
C_ C_ 0.186093 0.769506 0.0192001 -0.08735
C_ C_ 0.167404 0.759358 0.0463097 -0.08735
C_ C_ 0.141233 0.714569 0.0536365 0.18498
C_ C_ 0.17535 0.694551 0.10025 0.44287
C_ C_ 0.0877307 0.708805 0.0961434 0.44287
C_ C_ 0.0821093 0.695096 0.125631 -0.05681
C_ C_ 0.0356957 0.691937 0.13913 -0.08735
C_ C_ 0.0323474 0.684932 0.168369 -0.08735
C_ C_ 0.0738563 0.684681 0.186872 -0.05681
C_ C_ 0.120931 0.684363 0.17337 -0.05681
C_ C_ 0.125026 0.687865 0.143398 -0.05681
C_ C_ 0.173674 0.693624 0.130342 -0.05681
C_ C_ 0.217342 0.682916 0.146733 -0.08735
C_ C_ 0.213722 0.675899 0.176091 -0.08735
C_ C_ 0.165028 0.670957 0.189843 -0.05681
C_ C_ 0.159382 0.65863 0.219078 0.44287
C_ C_ 0.0695786 0.676897 0.217089 0.44287
C_ C_ 0.107381 0.652535 0.262236 0.18498
C_ C_ 0.0767373 0.611142 0.269474 -0.08735
C_ C_ 0.0615303 0.605129 0.298878 -0.08735
C_ C_ 0.0897048 0.629902 0.321333 -0.08735
C_ C_ 0.116386 0.673407 0.313086 0.18498
C_ C_ 0.127327 0.682563 0.284008 -0.05681
C_ C_ 0.153519 0.728652 0.277955 -0.08735
C_ C_ 0.179974 0.752436 0.299927 -0.08735
C_ C_ 0.173724 0.737308 0.328493 0.1947
C_ C_ 0.267993 0.823369 0.158058 0.68181
C_ C_ 0.212623 0.825153 0.154974 -0.05681
C_ C_ 0.179424 0.817637 0.1786 -0.08735
C_ C_ 0.126557 0.821616 0.173951 -0.05681
C_ C_ 0.107846 0.830394 0.146193 -0.05681
C_ C_ 0.139908 0.841927 0.124089 -0.08735
C_ C_ 0.192501 0.8407 0.128331 -0.08735
C_ C_ 0.093134 0.81711 0.196836 -0.08735
C_ C_ 0.0420232 0.820387 0.19176 -0.08735
C_ C_ 0.0214484 0.823821 0.163956 -0.05681
C_ C_ 0.0555078 0.827647 0.141716 -0.08735
C_ C_ 0.369293 0.72686 0.162015 0.68181
C_ C_ 0.36572 0.922658 0.15211 0.68181
C_ C_ 0.364372 0.979424 0.150214 -0.05681
C_ C_ 0.349978 0.510042 0.169359 -0.08735
C_ C_ 0.354061 0.563044 0.167275 -0.05681
C_ C_ 0.383998 0.585968 0.144547 -0.05681
C_ C_ 0.402233 0.555464 0.122858 -0.08735
C_ C_ 0.360032 0.00277292 0.123168 -0.08735
C_ C_ 0.333945 0.592652 0.189104 -0.08735
C_ C_ 0.342224 0.645566 0.188364 -0.08735
C_ C_ 0.365777 0.668563 0.164829 -0.05681
C_ C_ 0.38767 0.63929 0.14285 -0.08735
C_ C_ 0.465619 0.830901 0.15821 0.68181
C_ C_ 0.405737 0.868393 0.234941 0.1947
C_ C_ 0.405585 0.893311 0.260736 -0.08735
C_ C_ 0.37503 0.872342 0.283108 -0.08735
C_ C_ 0.349774 0.82616 0.279024 -0.05681
C_ C_ 0.343024 0.808929 0.250576 0.18498
C_ C_ 0.311975 0.76475 0.24503 -0.08735
C_ C_ 0.292063 0.73669 0.267826 -0.08735
C_ C_ 0.302332 0.75268 0.29575 -0.08735
C_ C_ 0.333538 0.795422 0.302294 0.18498
C_ C_ 0.302166 0.823666 0.349035 0.44287
C_ C_ 0.389401 0.799654 0.343031 0.44287
C_ C_ 0.397992 0.803267 0.372545 -0.05681
C_ C_ 0.446197 0.793831 0.384748 -0.08735
C_ C_ 0.45576 0.803659 0.413214 -0.08735
C_ C_ 0.416029 0.818332 0.431451 -0.05681
C_ C_ 0.367886 0.827607 0.42 -0.05681
C_ C_ 0.359996 0.820868 0.390398 -0.05681
C_ C_ 0.309201 0.825502 0.379206 -0.05681
C_ C_ 0.267959 0.833974 0.397636 -0.08735
C_ C_ 0.27851 0.834238 0.42833 -0.08735
C_ C_ 0.326905 0.834173 0.439242 -0.05681
C_ C_ 0.33704 0.841086 0.468404 0.44287
C_ C_ 0.424666 0.825707 0.4612 0.44287
C_ C_ 0.387043 0.83774 0.00997393 0.18498
C_ C_ 0.418694 0.881248 0.0129209 -0.08735
C_ C_ 0.430639 0.899961 0.039615 -0.08735
C_ C_ 0.414196 0.875074 0.064662 -0.08735
C_ C_ 0.384035 0.830137 0.0632053 0.18498
C_ C_ 0.370487 0.813149 0.0352105 -0.05681
C_ C_ 0.344045 0.766672 0.0325734 -0.08735
C_ C_ 0.320159 0.74587 0.0563087 -0.08735
C_ C_ 0.333182 0.765781 0.0833154 0.1947
N_ N_ 0.142499 0.666266 0.477147 -0.29468
N_ N_ 0.132874 0.703254 0.0836785 -0.17154
N_ N_ 0.112343 0.664954 0.232335 -0.17154
N_ N_ 0.139071 0.700115 0.334329 -0.29468
N_ N_ 0.367233 0.832901 0.228843 -0.29468
N_ N_ 0.343008 0.809069 0.331875 -0.17154
N_ N_ 0.385272 0.838095 0.478542 -0.17154
N_ N_ 0.366495 0.806683 0.0864869 -0.29468
O_ O_ 0.219945 0.676581 0.431167 -0.58347
O_ O_ 0.20879 0.705672 0.387522 -0.58347
O_ O_ 0.145504 0.756389 0.434496 -0.58347
O_ O_ 0.118355 0.759321 0.390643 -0.58347
O_ O_ 0.142059 0.606305 0.421822 -0.58347
O_ O_ 0.154097 0.612453 0.376226 -0.58347
O_ O_ 0.0698054 0.684913 0.428939 -0.58347
O_ O_ 0.0614615 0.667624 0.382716 -0.58347
O_ O_ 0.0464022 0.717726 0.0813898 -0.46727
O_ O_ 0.220852 0.688896 0.0882917 -0.46727
O_ O_ 0.0240339 0.674798 0.229248 -0.46727
O_ O_ 0.200379 0.64682 0.234819 -0.46727
O_ O_ 0.290386 0.827402 0.182388 -0.58347
O_ O_ 0.295646 0.815122 0.136255 -0.58347
O_ O_ 0.357742 0.755804 0.183298 -0.58347
O_ O_ 0.383539 0.748275 0.139333 -0.58347
O_ O_ 0.3661 0.900536 0.175872 -0.58347
O_ O_ 0.36732 0.896408 0.129473 -0.58347
O_ O_ 0.436845 0.829033 0.178824 -0.58347
O_ O_ 0.449514 0.826656 0.132663 -0.58347
O_ O_ 0.428344 0.795435 0.325509 -0.46727
O_ O_ 0.258005 0.829406 0.338183 -0.46727
O_ O_ 0.470898 0.824122 0.47169 -0.46727
O_ O_ 0.299996 0.847759 0.486812 -0.46727
Zn Zn 0.122314 0.687306 0.884478 0.90689
Zn Zn 0.134305 0.6847 0.931335 0.90689
Zn Zn 0.371846 0.81859 0.629666 0.90689
Zn Zn 0.362916 0.818206 0.677486 0.90689
H_ H_ 0.303021 0.684688 0.950455 0.11455
H_ H_ 0.369292 0.669773 0.851123 0.11455
H_ H_ 0.278608 0.669206 0.858584 0.11455
H_ H_ 0.390704 0.681667 0.969427 0.11455
H_ H_ 0.484757 0.685874 0.958324 0.11455
H_ H_ 0.450797 0.691944 0.868264 0.11455
H_ H_ 0.158633 0.521673 0.944217 0.11455
H_ H_ 0.138176 0.935455 0.846446 0.11455
H_ H_ 0.106859 0.526253 0.855843 0.11455
H_ H_ 0.137864 0.929418 0.966143 0.11455
H_ H_ 0.122286 0.845276 0.963514 0.11455
H_ H_ 0.133118 0.849189 0.86919 0.11455
H_ H_ 0.0779469 0.610684 0.963476 0.11455
H_ H_ 0.0728163 0.573868 0.509064 0.11455
H_ H_ 0.11117 0.612784 0.553601 0.11455
H_ H_ 0.186994 0.743418 0.976136 0.11455
H_ H_ 0.215218 0.802685 0.517463 0.11455
H_ H_ 0.189203 0.776387 0.562858 0.11455
H_ H_ 1.0208477 0.686133 0.62017 0.11455
H_ H_ 1.0155552 0.696293 0.673265 0.11455
H_ H_ 0.272566 0.639671 0.636042 0.11455
H_ H_ 0.26052 0.643364 0.689785 0.11455
H_ H_ 0.0826197 0.583628 0.746351 0.11455
H_ H_ 0.0455993 0.562701 0.793195 0.11455
H_ H_ 0.0679293 0.614965 0.837149 0.11455
H_ H_ 0.169975 0.738996 0.75819 0.11455
H_ H_ 0.20383 0.784276 0.798831 0.11455
H_ H_ 0.189747 0.755684 0.848901 0.11455
H_ H_ 0.199614 0.798662 0.692919 0.11455
H_ H_ 0.126339 0.825976 0.595154 0.11455
H_ H_ 0.218901 0.820685 0.601847 0.11455
H_ H_ 0.114262 0.802136 0.713183 0.11455
H_ H_ 0.0229646 0.808196 0.706628 0.11455
H_ H_ 0.0411907 0.80916 0.614333 0.11455
H_ H_ 0.388026 0.988315 0.692389 0.11455
H_ H_ 0.356816 0.569158 0.598153 0.11455
H_ H_ 0.319671 0.980432 0.609233 0.11455
H_ H_ 0.398576 0.57247 0.716836 0.11455
H_ H_ 0.398304 0.666977 0.708834 0.11455
H_ H_ 0.360564 0.650803 0.620108 0.11455
H_ H_ 0.402486 0.892139 0.714602 0.11455
H_ H_ 0.409971 0.927632 0.764776 0.11455
H_ H_ 0.368359 0.887199 0.804931 0.11455
H_ H_ 0.299475 0.747831 0.722887 0.11455
H_ H_ 0.272359 0.697165 0.763755 0.11455
H_ H_ 0.303221 0.713001 0.812646 0.11455
H_ H_ 0.481913 0.790949 0.876386 0.11455
H_ H_ 0.486979 0.798348 0.926255 0.11455
H_ H_ 0.22858 0.823701 0.88961 0.11455
H_ H_ 0.240467 0.835132 0.941044 0.11455
H_ H_ 0.436298 0.896805 0.992946 0.11455
H_ H_ 0.438862 0.952629 0.546462 0.11455
H_ H_ 0.41681 0.894599 0.585954 0.11455
H_ H_ 0.35619 0.757971 0.501923 0.11455
H_ H_ 0.312134 0.710012 0.543307 0.11455
H_ H_ 0.316592 0.743237 0.590781 0.11455
C_ C_ 0.227847 0.681325 0.909206 0.68181
C_ C_ 0.283056 0.671411 0.904746 -0.05681
C_ C_ 0.317195 0.672352 0.928708 -0.08735
C_ C_ 0.36866 0.677013 0.924528 -0.05681
C_ C_ 0.385635 0.675711 0.895524 -0.05681
C_ C_ 0.353888 0.669354 0.872524 -0.08735
C_ C_ 0.302595 0.664191 0.876651 -0.08735
C_ C_ 0.403412 0.676309 0.946785 -0.08735
C_ C_ 0.456467 0.677078 0.940157 -0.08735
C_ C_ 0.473351 0.684335 0.912628 -0.05681
C_ C_ 0.436278 0.684485 0.889851 -0.08735
C_ C_ 0.121241 0.783547 0.913833 0.68181
C_ C_ 0.139775 0.58683 0.901328 0.68181
C_ C_ 0.133834 0.530893 0.900673 -0.05681
C_ C_ 0.138581 0.99722935 0.922734 -0.08735
C_ C_ 0.13087 0.945996 0.920292 -0.05681
C_ C_ 0.131821 0.920837 0.892391 -0.05681
C_ C_ 0.141317 0.952088 0.868003 -0.08735
C_ C_ 0.141617 0.00407174 0.870706 -0.08735
C_ C_ 0.130278 0.915683 0.945222 -0.08735
C_ C_ 0.123317 0.864895 0.942436 -0.08735
C_ C_ 0.122997 0.839348 0.915763 -0.05681
C_ C_ 0.1296 0.867777 0.890397 -0.08735
C_ C_ 0.0292757 0.684057 0.906079 0.68181
C_ C_ 0.0989819 0.623572 0.982443 0.1947
C_ C_ 0.0982966 0.606878 0.507366 -0.08735
C_ C_ 0.12146 0.628543 0.53177 -0.08735
C_ C_ 0.153011 0.671816 0.528066 -0.05681
C_ C_ 0.16623 0.687302 0.499727 0.18498
C_ C_ 0.168852 0.738025 0.997596 -0.08735
C_ C_ 0.19345 0.768739 0.519149 -0.08735
C_ C_ 0.191968 0.749041 0.546249 -0.08735
C_ C_ 0.172574 0.699818 0.552159 0.18498
C_ C_ 0.199829 0.666314 0.59896 0.44287
C_ C_ 0.11557 0.696529 0.593315 0.44287
C_ C_ 0.106316 0.687376 0.622223 -0.05681
C_ C_ 0.0557445 0.685445 0.633355 -0.08735
C_ C_ 0.0497664 0.68317 0.663669 -0.08735
C_ C_ 0.0921593 0.677224 0.683486 -0.05681
C_ C_ 0.139929 0.674786 0.670716 -0.05681
C_ C_ 0.145646 0.673994 0.640527 -0.05681
C_ C_ 0.192878 0.658579 0.628316 -0.05681
C_ C_ 0.234903 0.650659 0.646017 -0.08735
C_ C_ 0.228146 0.649104 0.6768 -0.08735
C_ C_ 0.181343 0.661467 0.688013 -0.05681
C_ C_ 0.176819 0.660767 0.718175 0.44287
C_ C_ 0.0879115 0.672866 0.71327 0.44287
C_ C_ 0.121277 0.650444 0.761033 0.18498
C_ C_ 0.0970598 0.605548 0.765313 -0.08735
C_ C_ 0.0722331 0.597386 0.79256 -0.08735
C_ C_ 0.0857517 0.626548 0.817011 -0.08735
C_ C_ 0.116933 0.671966 0.813352 0.18498
C_ C_ 0.132364 0.684511 0.783823 -0.05681
C_ C_ 0.160913 0.727525 0.779595 -0.08735
C_ C_ 0.182503 0.750842 0.802813 -0.08735
C_ C_ 0.170417 0.737207 0.830929 0.1947
C_ C_ 0.270532 0.805963 0.652005 0.68181
C_ C_ 0.215767 0.810092 0.648508 -0.05681
C_ C_ 0.182689 0.804788 0.671689 -0.08735
C_ C_ 0.130628 0.810575 0.668062 -0.05681
C_ C_ 0.109543 0.8122 0.63972 -0.05681
C_ C_ 0.142707 0.818802 0.616316 -0.08735
C_ C_ 0.195052 0.816195 0.620618 -0.08735
C_ C_ 0.0990869 0.800122 0.690972 -0.08735
C_ C_ 0.046892 0.806468 0.687776 -0.08735
C_ C_ 0.024715 0.810119 0.659627 -0.05681
C_ C_ 0.056334 0.8091 0.635827 -0.08735
C_ C_ 0.368722 0.719108 0.661103 0.68181
C_ C_ 0.358651 0.916431 0.64857 0.68181
C_ C_ 0.357086 0.974319 0.648466 -0.05681
C_ C_ 0.369005 0.503946 0.674537 -0.08735
C_ C_ 0.374268 0.558993 0.672027 -0.05681
C_ C_ 0.370356 0.581483 0.643484 -0.05681
C_ C_ 0.358636 0.552187 0.61993 -0.08735
C_ C_ 0.341649 1.0025 0.624305 -0.08735
C_ C_ 0.392935 0.588015 0.694452 -0.08735
C_ C_ 0.390748 0.641497 0.691399 -0.08735
C_ C_ 0.375889 0.664569 0.664686 -0.05681
C_ C_ 0.371603 0.63452 0.640459 -0.08735
C_ C_ 0.465912 0.826173 0.653102 0.68181
C_ C_ 0.383495 0.873767 0.732198 0.1947
C_ C_ 0.388897 0.892492 0.760543 -0.08735
C_ C_ 0.369211 0.864677 0.783613 -0.08735
C_ C_ 0.344358 0.818583 0.778201 -0.05681
C_ C_ 0.341375 0.799592 0.749757 0.18498
C_ C_ 0.314187 0.754846 0.74403 -0.08735
C_ C_ 0.2963 0.727901 0.76771 -0.08735
C_ C_ 0.312219 0.739532 0.796163 -0.08735
C_ C_ 0.334456 0.785299 0.801887 0.18498
C_ C_ 0.304439 0.812244 0.849781 0.44287
C_ C_ 0.39156 0.792506 0.844656 0.44287
C_ C_ 0.400023 0.801458 0.874324 -0.05681
C_ C_ 0.447844 0.80271 0.888055 -0.08735
C_ C_ 0.45156 0.802536 0.918315 -0.08735
C_ C_ 0.408258 0.80564 0.93583 -0.05681
C_ C_ 0.361708 0.813226 0.922708 -0.05681
C_ C_ 0.356808 0.811368 0.892395 -0.05681
C_ C_ 0.307273 0.812515 0.879683 -0.05681
C_ C_ 0.265191 0.821746 0.897526 -0.08735
C_ C_ 0.271901 0.827492 0.926869 -0.08735
C_ C_ 0.3213 0.828133 0.939461 -0.05681
C_ C_ 0.329725 0.830964 0.969249 0.44287
C_ C_ 0.4117 0.80042 0.964715 0.44287
C_ C_ 0.392042 0.851051 0.508425 0.18498
C_ C_ 0.407599 0.900273 0.515265 -0.08735
C_ C_ 0.423714 0.913857 0.542321 -0.08735
C_ C_ 0.41207 0.881657 0.564982 -0.08735
C_ C_ 0.382826 0.836009 0.559943 0.18498
C_ C_ 0.37611 0.820115 0.530866 -0.05681
C_ C_ 0.361272 0.770788 0.524925 -0.08735
C_ C_ 0.336958 0.742432 0.547152 -0.08735
C_ C_ 0.341423 0.760783 0.575717 0.1947
N_ N_ 0.123331 0.667135 0.978469 -0.29468
N_ N_ 0.161482 0.684381 0.582064 -0.17154
N_ N_ 0.130034 0.662281 0.730598 -0.17154
N_ N_ 0.13656 0.699569 0.836074 -0.29468
N_ N_ 0.361362 0.826691 0.727557 -0.29468
N_ N_ 0.345118 0.797582 0.83342 -0.17154
N_ N_ 0.375566 0.819455 0.981334 -0.17154
N_ N_ 0.367237 0.804922 0.581777 -0.29468
O_ O_ 0.211111 0.684597 0.93424 -0.58347
O_ O_ 0.198877 0.69062 0.887762 -0.58347
O_ O_ 0.128114 0.759281 0.93618 -0.58347
O_ O_ 0.116065 0.760836 0.889932 -0.58347
O_ O_ 0.138354 0.609464 0.925743 -0.58347
O_ O_ 0.1296 0.610685 0.878681 -0.58347
O_ O_ 0.0575373 0.679929 0.927889 -0.58347
O_ O_ 0.0483932 0.679686 0.881491 -0.58347
O_ O_ 0.0775106 0.704796 0.575784 -0.46727
O_ O_ 0.244902 0.661049 0.586527 -0.46727
O_ O_ 0.0441835 0.682495 0.725951 -0.46727
O_ O_ 0.216258 0.650128 0.734001 -0.46727
O_ O_ 0.288802 0.800736 0.67688 -0.58347
O_ O_ 0.298617 0.819815 0.631037 -0.58347
O_ O_ 0.375395 0.746205 0.683052 -0.58347
O_ O_ 0.376729 0.739905 0.636856 -0.58347
O_ O_ 0.348796 0.891498 0.672045 -0.58347
O_ O_ 0.365639 0.891711 0.625499 -0.58347
O_ O_ 0.439077 0.833357 0.675438 -0.58347
O_ O_ 0.445662 0.82428 0.628423 -0.58347
O_ O_ 0.428587 0.774867 0.828121 -0.46727
O_ O_ 0.264553 0.832133 0.836882 -0.46727
O_ O_ 0.452452 0.782478 0.976529 -0.46727
O_ O_ 0.293955 0.847509 0.987267 -0.46727
Zn Zn 0.632357 0.181225 0.375179 0.90689
Zn Zn 0.641509 0.172719 0.423347 0.90689
Zn Zn 0.865221 0.310737 0.130088 0.90689
Zn Zn 0.854492 0.310389 0.179693 0.90689
H_ H_ 0.808774 0.170695 0.443336 0.11455
H_ H_ 0.887866 0.16208 0.346484 0.11455
H_ H_ 0.79337 0.175404 0.35272 0.11455
H_ H_ 0.893678 0.177216 0.462702 0.11455
H_ H_ 0.981176 0.172909 0.459834 0.11455
H_ H_ 0.97215 0.165586 0.368401 0.11455
H_ H_ 0.638161 0.010756 0.439793 0.11455
H_ H_ 0.640525 0.432718 0.341493 0.11455
H_ H_ 0.609491 0.0150091 0.350444 0.11455
H_ H_ 0.626707 0.41494 0.459576 0.11455
H_ H_ 0.641239 0.324975 0.454067 0.11455
H_ H_ 0.615337 0.347387 0.361857 0.11455
H_ H_ 0.566769 0.120225 0.459856 0.11455
H_ H_ 0.563903 0.0901679 0.0154956 0.11455
H_ H_ 0.62285 0.127798 0.0527249 0.11455
H_ H_ 0.708058 0.226972 0.466318 0.11455
H_ H_ 0.727569 0.309525 0.0067732 0.11455
H_ H_ 0.703119 0.288625 0.0587474 0.11455
H_ H_ 0.516391 0.214773 0.119665 0.11455
H_ H_ 0.506213 0.208728 0.169996 0.11455
H_ H_ 0.760698 0.143753 0.130518 0.11455
H_ H_ 0.747905 0.135172 0.180557 0.11455
H_ H_ 0.569118 0.0922696 0.240823 0.11455
H_ H_ 0.537997 0.0712437 0.288811 0.11455
H_ H_ 0.573746 0.123326 0.332852 0.11455
H_ H_ 0.669351 0.249781 0.253402 0.11455
H_ H_ 0.706259 0.284042 0.293509 0.11455
H_ H_ 0.68751 0.254091 0.34437 0.11455
H_ H_ 0.692354 0.325493 0.196634 0.11455
H_ H_ 0.621835 0.347094 0.0986426 0.11455
H_ H_ 0.711254 0.332415 0.10362 0.11455
H_ H_ 0.605937 0.317038 0.214359 0.11455
H_ H_ 0.514918 0.314868 0.208141 0.11455
H_ H_ 0.533633 0.331718 0.11692 0.11455
H_ H_ 0.844594 0.477581 0.192684 0.11455
H_ H_ 0.896704 0.0528887 0.0957047 0.11455
H_ H_ 0.855173 0.46718 0.0995666 0.11455
H_ H_ 0.835049 0.0653488 0.20833 0.11455
H_ H_ 0.851858 0.15358 0.207699 0.11455
H_ H_ 0.886127 0.142757 0.116078 0.11455
H_ H_ 0.910131 0.384606 0.218513 0.11455
H_ H_ 0.919935 0.418525 0.265248 0.11455
H_ H_ 0.884086 0.3702 0.305653 0.11455
H_ H_ 0.790952 0.25127 0.223754 0.11455
H_ H_ 0.777068 0.188214 0.259448 0.11455
H_ H_ 0.798215 0.207519 0.311016 0.11455
H_ H_ 0.993302 0.27409 0.367255 0.11455
H_ H_ 0.00840216 0.284208 0.420678 0.11455
H_ H_ 0.748443 0.344813 0.387565 0.11455
H_ H_ 0.768042 0.370363 0.437698 0.11455
H_ H_ 0.957024 0.387763 0.498035 0.11455
H_ H_ 0.941046 0.43898 0.0500005 0.11455
H_ H_ 0.916606 0.384266 0.0893087 0.11455
H_ H_ 0.833197 0.26122 0.00378725 0.11455
H_ H_ 0.804237 0.210403 0.0451195 0.11455
H_ H_ 0.820465 0.232942 0.0948801 0.11455
C_ C_ 0.736879 0.176772 0.399596 0.68181
C_ C_ 0.793811 0.174013 0.396963 -0.05681
C_ C_ 0.82312 0.166851 0.421638 -0.08735
C_ C_ 0.876621 0.165576 0.419171 -0.05681
C_ C_ 0.899514 0.16493 0.39135 -0.05681
C_ C_ 0.870718 0.166623 0.367017 -0.08735
C_ C_ 0.81787 0.172075 0.370236 -0.08735
C_ C_ 0.907724 0.16818 0.442572 -0.08735
C_ C_ 0.961322 0.16848 0.439872 -0.08735
C_ C_ 0.984325 0.16654 0.412551 -0.05681
C_ C_ 0.953383 0.165769 0.388625 -0.08735
C_ C_ 0.632288 0.273275 0.404458 0.68181
C_ C_ 0.631676 0.0781933 0.395979 0.68181
C_ C_ 0.626539 0.0212029 0.394541 -0.05681
C_ C_ 0.636802 0.486161 0.419027 -0.08735
C_ C_ 0.631995 0.433967 0.414029 -0.05681
C_ C_ 0.634052 0.413716 0.385834 -0.05681
C_ C_ 0.637577 0.446456 0.362652 -0.08735
C_ C_ 0.636735 0.499613 0.366858 -0.08735
C_ C_ 0.626994 0.400424 0.437286 -0.08735
C_ C_ 0.63319 0.349366 0.434504 -0.08735
C_ C_ 0.633864 0.329306 0.406497 -0.05681
C_ C_ 0.625779 0.362709 0.382707 -0.08735
C_ C_ 0.538477 0.184864 0.401847 0.68181
C_ C_ 0.595957 0.126092 0.475314 0.1947
C_ C_ 0.591076 0.119461 0.0106651 -0.08735
C_ C_ 0.617122 0.145131 0.0322433 -0.08735
C_ C_ 0.644441 0.190368 0.026013 -0.05681
C_ C_ 0.65442 0.200918 0.997654 0.18498
C_ C_ 0.69808 0.219596 0.488519 -0.08735
C_ C_ 0.701025 0.276749 0.0126133 -0.08735
C_ C_ 0.690027 0.265787 0.0407593 -0.08735
C_ C_ 0.663233 0.222406 0.0485703 0.18498
C_ C_ 0.692315 0.18642 0.0939254 0.44287
C_ C_ 0.607694 0.210734 0.0890838 0.44287
C_ C_ 0.596918 0.199455 0.118675 -0.05681
C_ C_ 0.548134 0.202551 0.130816 -0.08735
C_ C_ 0.543316 0.198538 0.15972 -0.08735
C_ C_ 0.584752 0.190035 0.177746 -0.05681
C_ C_ 0.630883 0.178099 0.163727 -0.05681
C_ C_ 0.636901 0.183946 0.133956 -0.05681
C_ C_ 0.684269 0.173804 0.122349 -0.05681
C_ C_ 0.724127 0.153053 0.139609 -0.08735
C_ C_ 0.718178 0.148971 0.167751 -0.08735
C_ C_ 0.673958 0.168965 0.181244 -0.05681
C_ C_ 0.668416 0.169972 0.212316 0.44287
C_ C_ 0.580283 0.189607 0.208281 0.44287
C_ C_ 0.611871 0.15932 0.253857 0.18498
C_ C_ 0.582803 0.115679 0.258414 -0.08735
C_ C_ 0.56289 0.106626 0.286458 -0.08735
C_ C_ 0.583391 0.130986 0.310111 -0.08735
C_ C_ 0.618382 0.17146 0.306184 0.18498
C_ C_ 0.632953 0.187731 0.27742 -0.05681
C_ C_ 0.65589 0.233482 0.273556 -0.08735
C_ C_ 0.680009 0.253656 0.297242 -0.08735
C_ C_ 0.67204 0.235601 0.324728 0.1947
C_ C_ 0.763501 0.313441 0.154326 0.68181
C_ C_ 0.708456 0.318229 0.150431 -0.05681
C_ C_ 0.675893 0.320484 0.175389 -0.08735
C_ C_ 0.622465 0.326056 0.170126 -0.05681
C_ C_ 0.600675 0.331334 0.142379 -0.05681
C_ C_ 0.63357 0.335984 0.119093 -0.08735
C_ C_ 0.687362 0.329751 0.123221 -0.08735
C_ C_ 0.589781 0.32469 0.19307 -0.08735
C_ C_ 0.537347 0.321183 0.189724 -0.08735
C_ C_ 0.515649 0.323188 0.162422 -0.05681
C_ C_ 0.548858 0.332389 0.138905 -0.08735
C_ C_ 0.866047 0.21286 0.159145 0.68181
C_ C_ 0.84772 0.41038 0.149674 0.68181
C_ C_ 0.852167 0.467224 0.147909 -0.05681
C_ C_ 0.84587 -0.0021539999999999893 0.167099 -0.08735
C_ C_ 0.857388 0.0495296 0.165692 -0.05681
C_ C_ 0.873033 0.0727848 0.138852 -0.05681
C_ C_ 0.880833 0.0400705 0.116649 -0.08735
C_ C_ 0.858719 0.491433 0.120422 -0.08735
C_ C_ 0.846583 0.0803566 0.188957 -0.08735
C_ C_ 0.852371 0.13352 0.18756 -0.08735
C_ C_ 0.86832 0.157373 0.1609 -0.05681
C_ C_ 0.877644 0.126753 0.137286 -0.08735
C_ C_ 0.955894 0.321191 0.161332 0.68181
C_ C_ 0.886635 0.369264 0.234721 0.1947
C_ C_ 0.900346 0.38291 0.261655 -0.08735
C_ C_ 0.878727 0.355993 0.28503 -0.08735
C_ C_ 0.84854 0.312726 0.280429 -0.05681
C_ C_ 0.839761 0.297955 0.251014 0.18498
C_ C_ 0.811111 0.255169 0.244446 -0.08735
C_ C_ 0.794807 0.222428 0.266385 -0.08735
C_ C_ 0.809939 0.231361 0.294426 -0.08735
C_ C_ 0.836847 0.277011 0.302593 0.18498
C_ C_ 0.813441 0.308283 0.349349 0.44287
C_ C_ 0.897097 0.281427 0.342171 0.44287
C_ C_ 0.912853 0.293871 0.371243 -0.05681
C_ C_ 0.961646 0.28835 0.381869 -0.08735
C_ C_ 0.972211 0.295294 0.411684 -0.08735
C_ C_ 0.930814 0.308909 0.430368 -0.05681
C_ C_ 0.881039 0.313464 0.420117 -0.05681
C_ C_ 0.872708 0.307698 0.389798 -0.05681
C_ C_ 0.82506 0.321544 0.378141 -0.05681
C_ C_ 0.786814 0.341316 0.396677 -0.08735
C_ C_ 0.79498 0.348332 0.426634 -0.08735
C_ C_ 0.840511 0.328683 0.43766 -0.05681
C_ C_ 0.84769 0.3214 0.467195 0.44287
C_ C_ 0.937358 0.311145 0.460437 0.44287
C_ C_ 0.884948 0.34954 0.00895754 0.18498
C_ C_ 0.914069 0.390733 0.0174423 -0.08735
C_ C_ 0.919356 0.406051 0.0457288 -0.08735
C_ C_ 0.903133 0.375461 0.0676314 -0.08735
C_ C_ 0.878074 0.329317 0.0607727 0.18498
C_ C_ 0.865386 0.31789 0.0312964 -0.05681
C_ C_ 0.840408 0.272062 0.0256574 -0.08735
C_ C_ 0.828258 0.239711 0.0493876 -0.08735
C_ C_ 0.838185 0.254928 0.0770034 0.1947
N_ N_ 0.638528 0.156941 0.469311 -0.29468
N_ N_ 0.654444 0.208566 0.0785103 -0.17154
N_ N_ 0.620584 0.175168 0.224958 -0.17154
N_ N_ 0.637863 0.1968 0.329607 -0.29468
N_ N_ 0.858532 0.326472 0.229021 -0.29468
N_ N_ 0.848489 0.288384 0.333079 -0.17154
N_ N_ 0.895539 0.317689 0.478606 -0.17154
N_ N_ 0.862114 0.299095 0.082491 -0.29468
O_ O_ 0.71622 0.162708 0.422174 -0.58347
O_ O_ 0.709306 0.186815 0.378747 -0.58347
O_ O_ 0.64727 0.246841 0.42564 -0.58347
O_ O_ 0.627168 0.254139 0.38031 -0.58347
O_ O_ 0.631877 0.099782 0.419244 -0.58347
O_ O_ 0.633142 0.103707 0.373378 -0.58347
O_ O_ 0.568983 0.18542 0.422973 -0.58347
O_ O_ 0.554184 0.178635 0.376492 -0.58347
O_ O_ 0.570245 0.230897 0.0726684 -0.46727
O_ O_ 0.738111 0.182449 0.0819849 -0.46727
O_ O_ 0.54191 0.214012 0.219824 -0.46727
O_ O_ 0.708211 0.157895 0.228232 -0.46727
O_ O_ 0.780962 0.311543 0.180277 -0.58347
O_ O_ 0.79063 0.299027 0.133651 -0.58347
O_ O_ 0.849362 0.237338 0.180906 -0.58347
O_ O_ 0.880456 0.237823 0.13748 -0.58347
O_ O_ 0.854141 0.388588 0.174233 -0.58347
O_ O_ 0.848299 0.384627 0.127491 -0.58347
O_ O_ 0.928004 0.309936 0.182197 -0.58347
O_ O_ 0.936836 0.324551 0.13612 -0.58347
O_ O_ 0.930346 0.259211 0.325212 -0.46727
O_ O_ 0.769304 0.318054 0.338035 -0.46727
O_ O_ 0.98208 0.306036 0.471801 -0.46727
O_ O_ 0.809779 0.331363 0.485068 -0.46727
Zn Zn 0.626787 0.191874 0.88007 0.90689
Zn Zn 0.638143 0.187811 0.927881 0.90689
Zn Zn 0.874012 0.311547 0.632382 0.90689
Zn Zn 0.865064 0.316901 0.678595 0.90689
H_ H_ 0.799191 0.172255 0.941116 0.11455
H_ H_ 0.873636 0.172002 0.844711 0.11455
H_ H_ 0.784418 0.164995 0.852001 0.11455
H_ H_ 0.882793 0.192559 0.961709 0.11455
H_ H_ 0.97796 0.200908 0.956967 0.11455
H_ H_ 0.96113 0.156892 0.868519 0.11455
H_ H_ 0.665614 0.0192743 0.943174 0.11455
H_ H_ 0.587242 0.445328 0.845539 0.11455
H_ H_ 0.601106 0.0357695 0.858574 0.11455
H_ H_ 0.631229 0.43417 0.962914 0.11455
H_ H_ 0.643435 0.346686 0.958547 0.11455
H_ H_ 0.611494 0.354703 0.868845 0.11455
H_ H_ 0.583077 0.115306 0.964423 0.11455
H_ H_ 0.557273 0.0835457 0.506862 0.11455
H_ H_ 0.609418 0.111336 0.547223 0.11455
H_ H_ 0.699415 0.245461 0.968465 0.11455
H_ H_ 0.73383 0.282858 0.506699 0.11455
H_ H_ 0.71272 0.26124 0.555756 0.11455
H_ H_ 0.523106 0.216494 0.614447 0.11455
H_ H_ 0.514892 0.216098 0.666627 0.11455
H_ H_ 0.77018 0.156276 0.633293 0.11455
H_ H_ 0.75968 0.158283 0.685944 0.11455
H_ H_ 0.577242 0.0954227 0.741708 0.11455
H_ H_ 0.552282 0.0701972 0.791291 0.11455
H_ H_ 0.576316 0.121079 0.83196 0.11455
H_ H_ 0.656927 0.258039 0.754548 0.11455
H_ H_ 0.69421 0.301795 0.796206 0.11455
H_ H_ 0.678136 0.269988 0.845452 0.11455
H_ H_ 0.698938 0.31319 0.692211 0.11455
H_ H_ 0.629971 0.325968 0.59413 0.11455
H_ H_ 0.715134 0.305179 0.604446 0.11455
H_ H_ 0.615075 0.31547 0.709898 0.11455
H_ H_ 0.525261 0.315639 0.703934 0.11455
H_ H_ 0.539795 0.336515 0.613719 0.11455
H_ H_ 0.87777 0.477213 0.695237 0.11455
H_ H_ 0.884919 0.0629181 0.595572 0.11455
H_ H_ 0.852865 0.473469 0.602015 0.11455
H_ H_ 0.87245 0.0640221 0.712133 0.11455
H_ H_ 0.868834 0.154776 0.711066 0.11455
H_ H_ 0.872863 0.148517 0.62072 0.11455
H_ H_ 0.929331 0.380716 0.71133 0.11455
H_ H_ 0.947039 0.416339 0.761769 0.11455
H_ H_ 0.902254 0.376652 0.799894 0.11455
H_ H_ 0.794092 0.265311 0.720952 0.11455
H_ H_ 0.769822 0.211421 0.76069 0.11455
H_ H_ 0.796242 0.228466 0.808682 0.11455
H_ H_ 0.979025 0.280728 0.875577 0.11455
H_ H_ -0.011458999999999997 0.297153 0.926081 0.11455
H_ H_ 0.741504 0.365614 0.881417 0.11455
H_ H_ 0.750922 0.385974 0.933339 0.11455
H_ H_ 0.936034 0.409487 1.00216 0.11455
H_ H_ 0.97237 0.421911 0.545624 0.11455
H_ H_ 0.933339 0.374477 0.587545 0.11455
H_ H_ 0.860951 0.240385 0.507185 0.11455
H_ H_ 0.82388 0.193084 0.550712 0.11455
H_ H_ 0.826813 0.236815 0.596408 0.11455
C_ C_ 0.730431 0.186802 0.90091 0.68181
C_ C_ 0.784764 0.174906 0.897625 -0.05681
C_ C_ 0.81727 0.170347 0.921204 -0.08735
C_ C_ 0.870834 0.165893 0.918003 -0.05681
C_ C_ 0.892355 0.166384 0.891283 -0.05681
C_ C_ 0.859325 0.16607 0.866228 -0.08735
C_ C_ 0.807338 0.166599 0.870463 -0.08735
C_ C_ 0.902453 0.182484 0.941168 -0.08735
C_ C_ 0.955758 0.185028 0.93881 -0.08735
C_ C_ 0.977497 0.17987 0.911652 -0.05681
C_ C_ 0.945362 0.163568 0.889213 -0.08735
C_ C_ 0.631593 0.289301 0.908756 0.68181
C_ C_ 0.637975 0.0937712 0.902879 0.68181
C_ C_ 0.633796 0.0361093 0.901357 -0.05681
C_ C_ 0.63344 0.502093 0.917003 -0.08735
C_ C_ 0.626514 0.449273 0.915614 -0.05681
C_ C_ 0.614978 0.426413 0.888747 -0.05681
C_ C_ 0.602564 0.460072 0.865644 -0.08735
C_ C_ 0.612661 0.512356 0.867242 -0.08735
C_ C_ 0.631151 0.419265 0.9416 -0.08735
C_ C_ 0.636945 0.367493 0.939352 -0.08735
C_ C_ 0.628667 0.344862 0.912076 -0.05681
C_ C_ 0.615842 0.373584 0.888305 -0.08735
C_ C_ 0.537623 0.186026 0.908341 0.68181
C_ C_ 0.601218 0.134369 0.981731 0.1947
C_ C_ 0.587771 0.105883 0.502576 -0.08735
C_ C_ 0.618043 0.125128 0.525546 -0.08735
C_ C_ 0.650353 0.166896 0.521713 -0.05681
C_ C_ 0.662349 0.180372 0.492065 0.18498
C_ C_ 0.688237 0.239754 0.991664 -0.08735
C_ C_ 0.712082 0.249748 0.511141 -0.08735
C_ C_ 0.696478 0.240096 0.538688 -0.08735
C_ C_ 0.668114 0.195931 0.545641 0.18498
C_ C_ 0.69946 0.167405 0.593267 0.44287
C_ C_ 0.613615 0.194889 0.587344 0.44287
C_ C_ 0.603792 0.197099 0.61651 -0.05681
C_ C_ 0.555616 0.205196 0.628219 -0.08735
C_ C_ 0.549685 0.204897 0.657816 -0.08735
C_ C_ 0.589585 0.191572 0.676447 -0.05681
C_ C_ 0.636991 0.180321 0.664296 -0.05681
C_ C_ 0.642845 0.178745 0.635057 -0.05681
C_ C_ 0.691693 0.168649 0.623387 -0.05681
C_ C_ 0.731613 0.157926 0.642609 -0.08735
C_ C_ 0.726954 0.163724 0.672274 -0.08735
C_ C_ 0.677356 0.170601 0.683351 -0.05681
C_ C_ 0.66946 0.16883 0.713282 0.44287
C_ C_ 0.583403 0.1943 0.706193 0.44287
C_ C_ 0.609834 0.165361 0.753738 0.18498
C_ C_ 0.585492 0.119264 0.759811 -0.08735
C_ C_ 0.572173 0.105763 0.788042 -0.08735
C_ C_ 0.582763 0.137021 0.811202 -0.08735
C_ C_ 0.612822 0.180411 0.807432 0.18498
C_ C_ 0.624877 0.195309 0.778667 -0.05681
C_ C_ 0.651954 0.240117 0.775678 -0.08735
C_ C_ 0.670134 0.268277 0.799604 -0.08735
C_ C_ 0.660273 0.249152 0.82762 0.1947
C_ C_ 0.769912 0.316565 0.653415 0.68181
C_ C_ 0.716137 0.325768 0.648245 -0.05681
C_ C_ 0.684114 0.325428 0.671137 -0.08735
C_ C_ 0.631806 0.328558 0.666647 -0.05681
C_ C_ 0.611265 0.334771 0.638643 -0.05681
C_ C_ 0.645252 0.331843 0.615391 -0.08735
C_ C_ 0.695423 0.32468 0.61969 -0.08735
C_ C_ 0.600215 0.326147 0.690076 -0.08735
C_ C_ 0.548159 0.322047 0.685736 -0.08735
C_ C_ 0.525403 0.326131 0.659773 -0.05681
C_ C_ 0.556927 0.333386 0.634765 -0.08735
C_ C_ 0.870795 0.21752 0.661449 0.68181
C_ C_ 0.872383 0.413352 0.649212 0.68181
C_ C_ 0.868932 0.470061 0.64822 -0.05681
C_ C_ 0.877293 -0.0011929999999999996 0.671088 -0.08735
C_ C_ 0.872483 0.0517639 0.667985 -0.05681
C_ C_ 0.874134 0.0768642 0.640932 -0.05681
C_ C_ 0.879458 0.0465392 0.615676 -0.08735
C_ C_ 0.857592 0.49553 0.622121 -0.08735
C_ C_ 0.875645 0.0813621 0.692157 -0.08735
C_ C_ 0.871296 0.133797 0.69091 -0.08735
C_ C_ 0.870087 0.15955 0.663679 -0.05681
C_ C_ 0.876165 0.129274 0.639616 -0.08735
C_ C_ 0.965986 0.315016 0.655993 0.68181
C_ C_ 0.910747 0.366598 0.729946 0.1947
C_ C_ 0.920457 0.384709 0.757322 -0.08735
C_ C_ 0.89451 0.361176 0.780008 -0.08735
C_ C_ 0.85922 0.323689 0.775622 -0.05681
C_ C_ 0.84611 0.310261 0.747592 0.18498
C_ C_ 0.809709 0.271953 0.742306 -0.08735
C_ C_ 0.792031 0.243082 0.765423 -0.08735
C_ C_ 0.806803 0.254845 0.793043 -0.08735
C_ C_ 0.836296 0.296182 0.798942 0.18498
C_ C_ 0.810117 0.333867 0.844577 0.44287
C_ C_ 0.893776 0.299801 0.841796 0.44287
C_ C_ 0.900348 0.307776 0.871703 -0.05681
C_ C_ 0.94653 0.298649 0.88532 -0.08735
C_ C_ 0.951415 0.303274 0.915315 -0.08735
C_ C_ 0.908457 0.318713 0.93145 -0.05681
C_ C_ 0.864583 0.331597 0.91946 -0.05681
C_ C_ 0.858863 0.321861 0.889376 -0.05681
C_ C_ 0.815927 0.338041 0.87552 -0.05681
C_ C_ 0.775363 0.357897 0.891761 -0.08735
C_ C_ 0.77979 0.367619 0.921416 -0.08735
C_ C_ 0.823853 0.351038 0.935689 -0.05681
C_ C_ 0.829688 0.358015 0.965941 0.44287
C_ C_ 0.909238 0.318103 0.961234 0.44287
C_ C_ 0.905786 0.329491 0.509438 0.18498
C_ C_ 0.93571 0.372882 0.515108 -0.08735
C_ C_ 0.949731 0.387583 0.542908 -0.08735
C_ C_ 0.92805 0.363236 0.56642 -0.08735
C_ C_ 0.894416 0.320594 0.561682 0.18498
C_ C_ 0.889852 0.300215 0.533757 -0.05681
C_ C_ 0.865281 0.254934 0.528823 -0.08735
C_ C_ 0.843164 0.229333 0.552448 -0.08735
C_ C_ 0.846049 0.252359 0.579589 0.1947
N_ N_ 0.629152 0.177229 0.97597 -0.29468
N_ N_ 0.659563 0.181462 0.575561 -0.17154
N_ N_ 0.623055 0.180768 0.724577 -0.17154
N_ N_ 0.630758 0.206167 0.831665 -0.29468
N_ N_ 0.871412 0.334102 0.725048 -0.29468
N_ N_ 0.847862 0.311281 0.82868 -0.17154
N_ N_ 0.874763 0.342053 0.978016 -0.17154
N_ N_ 0.8722 0.295252 0.583889 -0.29468
O_ O_ 0.713654 0.186488 0.92679 -0.58347
O_ O_ 0.700585 0.197104 0.880326 -0.58347
O_ O_ 0.631942 0.264334 0.932163 -0.58347
O_ O_ 0.623109 0.266469 0.885819 -0.58347
O_ O_ 0.641574 0.11641 0.926082 -0.58347
O_ O_ 0.632632 0.118618 0.880043 -0.58347
O_ O_ 0.568624 0.185009 0.92924 -0.58347
O_ O_ 0.553946 0.187968 0.883298 -0.58347
O_ O_ 0.573888 0.200402 0.568568 -0.46727
O_ O_ 0.747226 0.16816 0.582641 -0.46727
O_ O_ 0.538104 0.207178 0.716674 -0.46727
O_ O_ 0.705679 0.156589 0.729731 -0.46727
O_ O_ 0.788831 0.326115 0.678007 -0.58347
O_ O_ 0.79683 0.296404 0.633859 -0.58347
O_ O_ 0.867498 0.245101 0.683662 -0.58347
O_ O_ 0.883098 0.236499 0.637818 -0.58347
O_ O_ 0.86936 0.391056 0.673756 -0.58347
O_ O_ 0.865188 0.388665 0.626389 -0.58347
O_ O_ 0.938428 0.309649 0.678209 -0.58347
O_ O_ 0.947402 0.319621 0.631272 -0.58347
O_ O_ 0.930652 0.277533 0.826463 -0.46727
O_ O_ 0.767501 0.34651 0.830934 -0.46727
O_ O_ 0.947509 0.295133 0.973578 -0.46727
O_ O_ 0.792195 0.374412 0.981747 -0.46727
Zn Zn 0.634438 0.681616 0.382881 0.90689
Zn Zn 0.644609 0.674407 0.430431 0.90689
Zn Zn 0.872728 0.807266 0.133826 0.90689
Zn Zn 0.86117 0.815789 0.181787 0.90689
H_ H_ 0.812556 0.686267 0.447821 0.11455
H_ H_ 0.879493 0.679739 0.350345 0.11455
H_ H_ 0.786631 0.672113 0.357872 0.11455
H_ H_ 0.898303 0.692794 0.465882 0.11455
H_ H_ 0.987274 0.690146 0.457743 0.11455
H_ H_ 0.964119 0.668655 0.366331 0.11455
H_ H_ 0.63994 0.503 0.440342 0.11455
H_ H_ 0.598265 0.926236 0.348998 0.11455
H_ H_ 0.642684 0.524738 0.348864 0.11455
H_ H_ 0.643683 0.927363 0.464674 0.11455
H_ H_ 0.639135 0.838218 0.463308 0.11455
H_ H_ 0.604976 0.841147 0.371588 0.11455
H_ H_ 0.592931 0.61108 0.466303 0.11455
H_ H_ 0.554957 0.582697 0.0075293 0.11455
H_ H_ 0.587841 0.624201 0.0483817 0.11455
H_ H_ 0.707875 0.744018 0.477016 0.11455
H_ H_ 0.721879 0.795623 0.0145163 0.11455
H_ H_ 0.691154 0.777647 0.062388 0.11455
H_ H_ 0.50294 0.724808 0.124701 0.11455
H_ H_ 0.494989 0.702 0.17472 0.11455
H_ H_ 0.750449 0.659923 0.133131 0.11455
H_ H_ 0.746318 0.662476 0.184101 0.11455
H_ H_ 0.578378 0.594374 0.246066 0.11455
H_ H_ 0.558008 0.563497 0.297211 0.11455
H_ H_ 0.590653 0.611711 0.335063 0.11455
H_ H_ 0.644906 0.762351 0.257411 0.11455
H_ H_ 0.68029 0.807391 0.297321 0.11455
H_ H_ 0.669582 0.772674 0.346833 0.11455
H_ H_ 0.692879 0.788341 0.197611 0.11455
H_ H_ 0.632543 0.833419 0.101248 0.11455
H_ H_ 0.721133 0.825394 0.110025 0.11455
H_ H_ 0.608829 0.810068 0.217316 0.11455
H_ H_ 0.514608 0.82512 0.210631 0.11455
H_ H_ 0.539694 0.835438 0.118047 0.11455
H_ H_ 0.83354 0.982383 0.187082 0.11455
H_ H_ 0.857689 0.5645 0.0982417 0.11455
H_ H_ 0.885289 0.96335 0.101199 0.11455
H_ H_ 0.852963 0.560261 0.215487 0.11455
H_ H_ 0.856452 0.65233 0.213758 0.11455
H_ H_ 0.870459 0.64548 0.122412 0.11455
H_ H_ 0.916951 0.887106 0.215586 0.11455
H_ H_ 0.92619 0.921996 0.262372 0.11455
H_ H_ 0.901405 0.870681 0.304597 0.11455
H_ H_ 0.794465 0.754691 0.226677 0.11455
H_ H_ 0.769712 0.697083 0.264868 0.11455
H_ H_ 0.810461 0.711988 0.312014 0.11455
H_ H_ 0.990768 0.783107 0.373321 0.11455
H_ H_ 0.003989999999999938 0.797477 0.425161 0.11455
H_ H_ 0.738209 0.824935 0.385624 0.11455
H_ H_ 0.746107 0.826396 0.439139 0.11455
H_ H_ 0.928924 0.913175 0.496413 0.11455
H_ H_ 0.950924 0.924057 0.0537926 0.11455
H_ H_ 0.92371 0.873742 0.0922098 0.11455
H_ H_ 0.834576 0.744856 0.00980889 0.11455
H_ H_ 0.797996 0.705143 0.0501998 0.11455
H_ H_ 0.818025 0.732201 0.100248 0.11455
C_ C_ 0.737987 0.682204 0.406642 0.68181
C_ C_ 0.79383 0.683761 0.402284 -0.05681
C_ C_ 0.827605 0.678966 0.426071 -0.08735
C_ C_ 0.879604 0.674873 0.421872 -0.05681
C_ C_ 0.899081 0.668649 0.393469 -0.05681
C_ C_ 0.865803 0.680208 0.370305 -0.08735
C_ C_ 0.814144 0.686834 0.374179 -0.08735
C_ C_ 0.912603 0.681896 0.445145 -0.08735
C_ C_ 0.964008 0.684761 0.439137 -0.08735
C_ C_ 0.985797 0.675978 0.411157 -0.05681
C_ C_ 0.951289 0.664647 0.388871 -0.08735
C_ C_ 0.625955 0.775341 0.415861 0.68181
C_ C_ 0.641737 0.577307 0.398473 0.68181
C_ C_ 0.636975 0.521064 0.394405 -0.05681
C_ C_ 0.633836 0.991362 0.419633 -0.08735
C_ C_ 0.629554 0.938056 0.419744 -0.05681
C_ C_ 0.61883 0.913937 0.393513 -0.05681
C_ C_ 0.607063 0.945029 0.369606 -0.08735
C_ C_ 0.617808 0.994434 0.368904 -0.08735
C_ C_ 0.635822 0.909697 0.444705 -0.08735
C_ C_ 0.632698 0.857305 0.443519 -0.08735
C_ C_ 0.626118 0.831709 0.41667 -0.05681
C_ C_ 0.617382 0.861107 0.391539 -0.08735
C_ C_ 0.541428 0.674752 0.406964 0.68181
C_ C_ 0.612342 0.628963 0.484545 0.1947
C_ C_ 0.57811 0.615417 0.00488675 -0.08735
C_ C_ 0.597464 0.63846 0.0287443 -0.08735
C_ C_ 0.631107 0.680908 0.0264145 -0.05681
C_ C_ 0.642304 0.696152 0.998243 0.18498
C_ C_ 0.697013 0.73348 0.499556 -0.08735
C_ C_ 0.694054 0.764327 0.0186988 -0.08735
C_ C_ 0.677015 0.754785 0.0458101 -0.08735
C_ C_ 0.648154 0.709566 0.0501582 0.18498
C_ C_ 0.675018 0.675356 0.0953137 0.44287
C_ C_ 0.592288 0.710866 0.0920444 0.44287
C_ C_ 0.584358 0.700881 0.122035 -0.05681
C_ C_ 0.536862 0.710415 0.13569 -0.08735
C_ C_ 0.531454 0.700454 0.164921 -0.08735
C_ C_ 0.576035 0.692419 0.182694 -0.05681
C_ C_ 0.621977 0.685345 0.169738 -0.05681
C_ C_ 0.627383 0.68988 0.138723 -0.05681
C_ C_ 0.672221 0.675129 0.124974 -0.05681
C_ C_ 0.714744 0.664983 0.142691 -0.08735
C_ C_ 0.713017 0.671567 0.171767 -0.08735
C_ C_ 0.666096 0.679072 0.185932 -0.05681
C_ C_ 0.660074 0.672745 0.215688 0.44287
C_ C_ 0.573577 0.689854 0.213703 0.44287
C_ C_ 0.608034 0.663774 0.25917 0.18498
C_ C_ 0.582504 0.61817 0.264259 -0.08735
C_ C_ 0.57179 0.600989 0.292458 -0.08735
C_ C_ 0.596975 0.624779 0.31439 -0.08735
C_ C_ 0.621755 0.673121 0.310589 0.18498
C_ C_ 0.627518 0.692129 0.282199 -0.05681
C_ C_ 0.647653 0.740757 0.277776 -0.08735
C_ C_ 0.665708 0.76786 0.301824 -0.08735
C_ C_ 0.659803 0.750193 0.328777 0.1947
C_ C_ 0.768756 0.809403 0.159038 0.68181
C_ C_ 0.713191 0.809388 0.154625 -0.05681
C_ C_ 0.679443 0.806578 0.1779 -0.08735
C_ C_ 0.626551 0.815609 0.173533 -0.05681
C_ C_ 0.608908 0.823398 0.144798 -0.05681
C_ C_ 0.641246 0.821985 0.122024 -0.08735
C_ C_ 0.69271 0.816202 0.127356 -0.08735
C_ C_ 0.593359 0.818457 0.196424 -0.08735
C_ C_ 0.540077 0.822763 0.191863 -0.08735
C_ C_ 0.520854 0.829218 0.164086 -0.05681
C_ C_ 0.556382 0.831154 0.139925 -0.08735
C_ C_ 0.867545 0.714011 0.166273 0.68181
C_ C_ 0.864424 0.909277 0.148912 0.68181
C_ C_ 0.864693 0.965458 0.145521 -0.05681
C_ C_ 0.85293 0.496219 0.172245 -0.08735
C_ C_ 0.856872 0.548618 0.170881 -0.05681
C_ C_ 0.858082 0.573232 0.14369 -0.05681
C_ C_ 0.853691 0.54379 0.118707 -0.08735
C_ C_ 0.881975 0.987981 0.11957 -0.08735
C_ C_ 0.851708 0.577091 0.195039 -0.08735
C_ C_ 0.85644 0.629993 0.19388 -0.08735
C_ C_ 0.860671 0.656253 0.16808 -0.05681
C_ C_ 0.860385 0.626491 0.142671 -0.08735
C_ C_ 0.96604 0.81285 0.159222 0.68181
C_ C_ 0.896905 0.870114 0.232963 0.1947
C_ C_ 0.907226 0.885642 0.260459 -0.08735
C_ C_ 0.890435 0.857079 0.283342 -0.08735
C_ C_ 0.86278 0.812778 0.278942 -0.05681
C_ C_ 0.84725 0.800942 0.251348 0.18498
C_ C_ 0.812681 0.760605 0.246592 -0.08735
C_ C_ 0.797418 0.72866 0.268614 -0.08735
C_ C_ 0.813619 0.739378 0.295364 -0.08735
C_ C_ 0.846624 0.780278 0.301539 0.18498
C_ C_ 0.813987 0.805827 0.348632 0.44287
C_ C_ 0.902123 0.790278 0.343655 0.44287
C_ C_ 0.90878 0.797364 0.373788 -0.05681
C_ C_ 0.957854 0.79427 0.387472 -0.08735
C_ C_ 0.964337 0.800224 0.41649 -0.08735
C_ C_ 0.919824 0.808594 0.43391 -0.05681
C_ C_ 0.871946 0.812034 0.421016 -0.05681
C_ C_ 0.866657 0.809466 0.390674 -0.05681
C_ C_ 0.817889 0.810273 0.37839 -0.05681
C_ C_ 0.775431 0.821312 0.395048 -0.08735
C_ C_ 0.778578 0.823963 0.425925 -0.08735
C_ C_ 0.828545 0.820072 0.438587 -0.05681
C_ C_ 0.835551 0.824554 0.467825 0.44287
C_ C_ 0.923306 0.81979 0.463563 0.44287
C_ C_ 0.895744 0.835234 0.0128886 0.18498
C_ C_ 0.916908 0.881002 0.0198156 -0.08735
C_ C_ 0.93268 0.891455 0.0479966 -0.08735
C_ C_ 0.919675 0.858527 0.0705879 -0.08735
C_ C_ 0.888997 0.81763 0.0648731 0.18498
C_ C_ 0.878634 0.802096 0.0359679 -0.05681
C_ C_ 0.844086 0.76013 0.0306775 -0.08735
C_ C_ 0.822434 0.735572 0.0542783 -0.08735
C_ C_ 0.835743 0.748929 0.081883 0.1947
N_ N_ 0.643097 0.670147 0.48037 -0.29468
N_ N_ 0.636509 0.695111 0.0785125 -0.17154
N_ N_ 0.615479 0.679754 0.229552 -0.17154
N_ N_ 0.639054 0.701931 0.332933 -0.29468
N_ N_ 0.866233 0.829992 0.228985 -0.29468
N_ N_ 0.854978 0.79571 0.331419 -0.17154
N_ N_ 0.881717 0.827335 0.479699 -0.17154
N_ N_ 0.867244 0.790539 0.0869029 -0.29468
O_ O_ 0.72199 0.670979 0.430924 -0.58347
O_ O_ 0.708274 0.697254 0.386861 -0.58347
O_ O_ 0.644505 0.749628 0.436069 -0.58347
O_ O_ 0.625525 0.755814 0.391007 -0.58347
O_ O_ 0.639839 0.59927 0.422943 -0.58347
O_ O_ 0.644845 0.606605 0.375939 -0.58347
O_ O_ 0.57193 0.67535 0.428998 -0.58347
O_ O_ 0.561187 0.671088 0.382253 -0.58347
O_ O_ 0.558143 0.736263 0.0775171 -0.46727
O_ O_ 0.714326 0.654349 0.0833664 -0.46727
O_ O_ 0.530189 0.701886 0.22796 -0.46727
O_ O_ 0.700566 0.660654 0.22987 -0.46727
O_ O_ 0.786841 0.818941 0.18353 -0.58347
O_ O_ 0.79628 0.801258 0.138346 -0.58347
O_ O_ 0.857438 0.744099 0.186819 -0.58347
O_ O_ 0.878836 0.732537 0.141644 -0.58347
O_ O_ 0.859875 0.888484 0.172702 -0.58347
O_ O_ 0.86012 0.881791 0.127091 -0.58347
O_ O_ 0.935689 0.814203 0.180555 -0.58347
O_ O_ 0.947303 0.811654 0.134289 -0.58347
O_ O_ 0.940237 0.772764 0.32857 -0.46727
O_ O_ 0.76711 0.810716 0.336954 -0.46727
O_ O_ 0.967044 0.813543 0.475949 -0.46727
O_ O_ 0.795218 0.832166 0.484592 -0.46727
Zn Zn 0.620653 0.692262 0.880623 0.90689
Zn Zn 0.6304 0.687289 0.929201 0.90689
Zn Zn 0.871381 0.809852 0.633706 0.90689
Zn Zn 0.864837 0.815454 0.683191 0.90689
H_ H_ 0.800687 0.699846 0.943448 0.11455
H_ H_ 0.86633 0.658298 0.847792 0.11455
H_ H_ 0.77661 0.666901 0.855524 0.11455
H_ H_ 0.882716 0.701542 0.961292 0.11455
H_ H_ 0.975475 0.70068 0.957201 0.11455
H_ H_ 0.953321 0.691162 0.863334 0.11455
H_ H_ 0.640053 0.517696 0.936643 0.11455
H_ H_ 0.605434 0.940873 0.853299 0.11455
H_ H_ 0.607656 0.535319 0.849214 0.11455
H_ H_ 0.67402 0.935675 0.961682 0.11455
H_ H_ 0.668061 0.841338 0.957762 0.11455
H_ H_ 0.609175 0.856988 0.873268 0.11455
H_ H_ 0.57745 0.61311 0.959074 0.11455
H_ H_ 0.573569 0.5767 0.513038 0.11455
H_ H_ 0.611437 0.625389 0.557245 0.11455
H_ H_ 0.693105 0.744514 0.973752 0.11455
H_ H_ 0.738543 0.792288 0.518726 0.11455
H_ H_ 0.702556 0.779078 0.56799 0.11455
H_ H_ 0.51406 0.709561 0.621306 0.11455
H_ H_ 0.496878 0.704939 0.671724 0.11455
H_ H_ 0.760704 0.660181 0.645218 0.11455
H_ H_ 0.736389 0.637864 0.695298 0.11455
H_ H_ 0.539721 0.600012 0.750436 0.11455
H_ H_ 0.501486 0.602818 0.800245 0.11455
H_ H_ 0.552674 0.636013 0.84006 0.11455
H_ H_ 0.651901 0.746296 0.754331 0.11455
H_ H_ 0.687955 0.795208 0.793866 0.11455
H_ H_ 0.666901 0.774257 0.845992 0.11455
H_ H_ 0.692791 0.802673 0.69371 0.11455
H_ H_ 0.632288 0.842238 0.595317 0.11455
H_ H_ 0.720979 0.838236 0.604669 0.11455
H_ H_ 0.60063 0.797251 0.7105 0.11455
H_ H_ 0.516192 0.799185 0.701468 0.11455
H_ H_ 0.540605 0.833387 0.612893 0.11455
H_ H_ 0.871946 0.979801 0.691947 0.11455
H_ H_ 0.852288 0.56705 0.601998 0.11455
H_ H_ 0.884915 0.9666 0.600651 0.11455
H_ H_ 0.889776 0.563928 0.718849 0.11455
H_ H_ 0.887256 0.660585 0.716029 0.11455
H_ H_ 0.839331 0.648972 0.627754 0.11455
H_ H_ 0.921771 0.886618 0.715333 0.11455
H_ H_ 0.915396 0.938554 0.759865 0.11455
H_ H_ 0.892141 0.890805 0.802372 0.11455
H_ H_ 0.792778 0.76008 0.726815 0.11455
H_ H_ 0.764735 0.712707 0.771098 0.11455
H_ H_ 0.785041 0.742905 0.818684 0.11455
H_ H_ 0.9801 0.804665 0.869845 0.11455
H_ H_ 0.993718 0.804154 0.922499 0.11455
H_ H_ 0.736359 0.86463 0.894565 0.11455
H_ H_ 0.75153 0.865673 0.945819 0.11455
H_ H_ 0.923099 0.906647 1.00259578 0.11455
H_ H_ 0.951157 0.937041 0.549432 0.11455
H_ H_ 0.935213 0.873645 0.585768 0.11455
H_ H_ 0.843723 0.75126 0.507561 0.11455
H_ H_ 0.816682 0.703954 0.550521 0.11455
H_ H_ 0.824302 0.736886 0.596478 0.11455
C_ C_ 0.724624 0.693452 0.901738 0.68181
C_ C_ 0.781483 0.693023 0.897537 -0.05681
C_ C_ 0.815212 0.697921 0.921187 -0.08735
C_ C_ 0.867284 0.693057 0.917512 -0.05681
C_ C_ 0.888126 0.683828 0.890545 -0.05681
C_ C_ 0.853317 0.672532 0.867803 -0.08735
C_ C_ 0.801319 0.677759 0.871602 -0.08735
C_ C_ 0.899113 0.696758 0.94139 -0.08735
C_ C_ 0.952154 0.693338 0.937951 -0.08735
C_ C_ 0.974911 0.689258 0.910014 -0.05681
C_ C_ 0.94163 0.686926 0.886458 -0.08735
C_ C_ 0.620557 0.786059 0.915196 0.68181
C_ C_ 0.634228 0.591677 0.894604 0.68181
C_ C_ 0.626605 0.533677 0.892608 -0.05681
C_ C_ 0.647775 0.00321997 0.924016 -0.08735
C_ C_ 0.648138 0.949336 0.919562 -0.05681
C_ C_ 0.622201 0.926678 0.895946 -0.05681
C_ C_ 0.611093 0.958666 0.87358 -0.08735
C_ C_ 0.612771 0.012067 0.876527 -0.08735
C_ C_ 0.656884 0.918769 0.943208 -0.08735
C_ C_ 0.647061 0.866594 0.942563 -0.08735
C_ C_ 0.62613 0.842684 0.917878 -0.05681
C_ C_ 0.612243 0.874319 0.894334 -0.08735
C_ C_ 0.527923 0.680873 0.907263 0.68181
C_ C_ 0.591683 0.632899 0.977166 0.1947
C_ C_ 0.602392 0.607784 0.51187 -0.08735
C_ C_ 0.619373 0.636012 0.534821 -0.08735
C_ C_ 0.649115 0.680018 0.531765 -0.05681
C_ C_ 0.664571 0.693183 0.503582 0.18498
C_ C_ 0.678349 0.735645 0.99457 -0.08735
C_ C_ 0.716825 0.759461 0.522912 -0.08735
C_ C_ 0.69515 0.752885 0.549847 -0.08735
C_ C_ 0.668028 0.708648 0.554995 0.18498
C_ C_ 0.693059 0.677931 0.602351 0.44287
C_ C_ 0.609667 0.709098 0.595543 0.44287
C_ C_ 0.59653 0.695747 0.624233 -0.05681
C_ C_ 0.546951 0.702535 0.635232 -0.08735
C_ C_ 0.535059 0.694517 0.664572 -0.08735
C_ C_ 0.575438 0.684971 0.683704 -0.05681
C_ C_ 0.622729 0.670913 0.67255 -0.05681
C_ C_ 0.63264 0.676057 0.642677 -0.05681
C_ C_ 0.682854 0.665901 0.631484 -0.05681
C_ C_ 0.721766 0.661402 0.652172 -0.08735
C_ C_ 0.71102 0.654959 0.680806 -0.08735
C_ C_ 0.661658 0.660207 0.691318 -0.05681
C_ C_ 0.652407 0.657659 0.721188 0.44287
C_ C_ 0.567128 0.687897 0.713076 0.44287
C_ C_ 0.592878 0.660713 0.760475 0.18498
C_ C_ 0.55359 0.625306 0.767631 -0.08735
C_ C_ 0.537848 0.619368 0.795899 -0.08735
C_ C_ 0.559225 0.647811 0.818789 -0.08735
C_ C_ 0.597679 0.684128 0.812056 0.18498
C_ C_ 0.61485 0.691609 0.783174 -0.05681
C_ C_ 0.647351 0.734035 0.777465 -0.08735
C_ C_ 0.667342 0.762892 0.800223 -0.08735
C_ C_ 0.651443 0.751679 0.828255 0.1947
C_ C_ 0.770071 0.814584 0.653687 0.68181
C_ C_ 0.714757 0.818602 0.649932 -0.05681
C_ C_ 0.679743 0.813391 0.673003 -0.08735
C_ C_ 0.626633 0.815217 0.666645 -0.05681
C_ C_ 0.608334 0.825327 0.638461 -0.05681
C_ C_ 0.644338 0.832111 0.616737 -0.08735
C_ C_ 0.695868 0.832052 0.623023 -0.08735
C_ C_ 0.591314 0.812433 0.68902 -0.08735
C_ C_ 0.541836 0.810181 0.683979 -0.08735
C_ C_ 0.520515 0.819944 0.657184 -0.05681
C_ C_ 0.556239 0.827614 0.633641 -0.08735
C_ C_ 0.871824 0.714316 0.667206 0.68181
C_ C_ 0.868314 0.912589 0.650003 0.68181
C_ C_ 0.876738 0.969892 0.647002 -0.05681
C_ C_ 0.877435 0.497376 0.67466 -0.08735
C_ C_ 0.870334 0.550363 0.674254 -0.05681
C_ C_ 0.858793 0.574092 0.6486 -0.05681
C_ C_ 0.853624 0.547866 0.622865 -0.08735
C_ C_ 0.880949 0.991907 0.619284 -0.08735
C_ C_ 0.878598 0.580796 0.698038 -0.08735
C_ C_ 0.87655 0.635287 0.697136 -0.08735
C_ C_ 0.868002 0.65803 0.670282 -0.05681
C_ C_ 0.856344 0.628898 0.646548 -0.08735
C_ C_ 0.967557 0.814955 0.657706 0.68181
C_ C_ 0.893466 0.876417 0.732461 0.1947
C_ C_ 0.8939 0.902817 0.759147 -0.08735
C_ C_ 0.872949 0.882138 0.78316 -0.08735
C_ C_ 0.84359 0.834493 0.780539 -0.05681
C_ C_ 0.838601 0.813685 0.752144 0.18498
C_ C_ 0.806325 0.772224 0.748272 -0.08735
C_ C_ 0.790558 0.745003 0.772242 -0.08735
C_ C_ 0.803546 0.761281 0.800739 -0.08735
C_ C_ 0.827302 0.807454 0.80523 0.18498
C_ C_ 0.80338 0.840321 0.852764 0.44287
C_ C_ 0.88495 0.808797 0.844655 0.44287
C_ C_ 0.897518 0.81969 0.874393 -0.05681
C_ C_ 0.948955 0.811983 0.884939 -0.08735
C_ C_ 0.956457 0.808947 0.914424 -0.08735
C_ C_ 0.915985 0.81782 0.934161 -0.05681
C_ C_ 0.868374 0.82947 0.92329 -0.05681
C_ C_ 0.858278 0.826891 0.893747 -0.05681
C_ C_ 0.809886 0.841863 0.882509 -0.05681
C_ C_ 0.770112 0.851666 0.901474 -0.08735
C_ C_ 0.781219 0.858161 0.931106 -0.08735
C_ C_ 0.826982 0.8399 0.942631 -0.05681
C_ C_ 0.838292 0.841097 0.972413 0.44287
C_ C_ 0.923761 0.817752 0.964556 0.44287
C_ C_ 0.890542 0.842752 0.509669 0.18498
C_ C_ 0.915763 0.888425 0.514949 -0.08735
C_ C_ 0.928611 0.902989 0.543302 -0.08735
C_ C_ 0.922635 0.866597 0.565329 -0.08735
C_ C_ 0.893264 0.822767 0.561633 0.18498
C_ C_ 0.884334 0.807145 0.533 -0.05681
C_ C_ 0.855333 0.763202 0.528607 -0.08735
C_ C_ 0.837828 0.737414 0.552438 -0.08735
C_ C_ 0.842894 0.756347 0.579758 0.1947
N_ N_ 0.626625 0.66955 0.974427 -0.29468
N_ N_ 0.656721 0.696013 0.584603 -0.17154
N_ N_ 0.605134 0.670058 0.731202 -0.17154
N_ N_ 0.617404 0.712896 0.833669 -0.29468
N_ N_ 0.862621 0.836912 0.729045 -0.29468
N_ N_ 0.840899 0.823527 0.833781 -0.17154
N_ N_ 0.884096 0.825284 0.983254 -0.17154
N_ N_ 0.872739 0.796336 0.584566 -0.29468
O_ O_ 0.706078 0.695577 0.92645 -0.58347
O_ O_ 0.69752 0.699735 0.880437 -0.58347
O_ O_ 0.624501 0.758709 0.937108 -0.58347
O_ O_ 0.618931 0.764524 0.890784 -0.58347
O_ O_ 0.633061 0.612314 0.919417 -0.58347
O_ O_ 0.624755 0.619036 0.872272 -0.58347
O_ O_ 0.557934 0.68187 0.92869 -0.58347
O_ O_ 0.547882 0.686998 0.88272 -0.58347
O_ O_ 0.572318 0.725523 0.57806 -0.46727
O_ O_ 0.739348 0.672765 0.592499 -0.46727
O_ O_ 0.524152 0.702776 0.723938 -0.46727
O_ O_ 0.686472 0.640274 0.739734 -0.46727
O_ O_ 0.788271 0.814996 0.678815 -0.58347
O_ O_ 0.798437 0.821917 0.631828 -0.58347
O_ O_ 0.870257 0.742393 0.688814 -0.58347
O_ O_ 0.865854 0.733841 0.641954 -0.58347
O_ O_ 0.865578 0.891739 0.67494 -0.58347
O_ O_ 0.872787 0.88215 0.628103 -0.58347
O_ O_ 0.942415 0.821796 0.680375 -0.58347
O_ O_ 0.94614 0.806139 0.633688 -0.58347
O_ O_ 0.918775 0.788385 0.827034 -0.46727
O_ O_ 0.757834 0.848553 0.843481 -0.46727
O_ O_ 0.969811 0.809703 0.974236 -0.46727
O_ O_ 0.800328 0.846422 0.991182 -0.46727
