_cell_length_a 26.376
_cell_length_b 26.400000238300095
_cell_length_c 46.67800035477134
_cell_angle_alpha 90.00700052986613
_cell_angle_beta 89.99899961309502
_cell_angle_gamma 90.45000003183146
_symmetry_space_group_name_H-M         'P 1'
_symmetry_Int_Tables_number            1
loop_
_symmetry_equiv_pos_as_xyz
   'x, y, z'
                         
loop_
_atom_site_label
_atom_site_type_symbol
_atom_site_fract_x 
_atom_site_fract_y
_atom_site_fract_z
_atom_site_charge
Zn Zn 0.12243 0.189075 0.378217 0.90689
Zn Zn 0.127281 0.187766 0.426059 0.90689
Zn Zn 0.381363 0.316615 0.131922 0.90689
Zn Zn 0.369559 0.321815 0.180392 0.90689
H_ H_ 0.292638 0.197831 0.443031 0.11455
H_ H_ 0.368769 0.164784 0.347939 0.11455
H_ H_ 0.277836 0.167934 0.351966 0.11455
H_ H_ 0.377144 0.201462 0.464085 0.11455
H_ H_ 0.472356 0.201724 0.458185 0.11455
H_ H_ 0.453624 0.161619 0.36941 0.11455
H_ H_ 0.132761 0.0199688 0.436062 0.11455
H_ H_ 0.100911 0.441598 0.345127 0.11455
H_ H_ 0.110521 0.0336215 0.344962 0.11455
H_ H_ 0.159698 0.431695 0.458452 0.11455
H_ H_ 0.13332 0.34369 0.456529 0.11455
H_ H_ 0.1076 0.353952 0.367023 0.11455
H_ H_ 0.0705001 0.112927 0.458705 0.11455
H_ H_ 0.0677179 0.0965946 0.0172223 0.11455
H_ H_ 0.121539 0.126413 0.0550215 0.11455
H_ H_ 0.186045 0.254095 0.472133 0.11455
H_ H_ 0.232108 0.312383 0.0104241 0.11455
H_ H_ 0.225154 0.284488 0.0584211 0.11455
H_ H_ 0.0335779 0.222944 0.11608 0.11455
H_ H_ 0.0157211 0.223333 0.169545 0.11455
H_ H_ 0.273528 0.153852 0.137837 0.11455
H_ H_ 0.262445 0.156887 0.190542 0.11455
H_ H_ 0.0667508 0.103572 0.243547 0.11455
H_ H_ 0.0536442 0.0759361 0.290167 0.11455
H_ H_ 0.0724633 0.129965 0.332912 0.11455
H_ H_ 0.163144 0.264171 0.256942 0.11455
H_ H_ 0.192301 0.307027 0.30036 0.11455
H_ H_ 0.173763 0.275896 0.3479 0.11455
H_ H_ 0.201184 0.295328 0.196526 0.11455
H_ H_ 0.139713 0.365049 0.10394 0.11455
H_ H_ 0.228788 0.352789 0.113913 0.11455
H_ H_ 0.117846 0.325573 0.218854 0.11455
H_ H_ 0.0239955 0.324968 0.211557 0.11455
H_ H_ 0.0515414 0.35781 0.122331 0.11455
H_ H_ 0.394035 0.48582 0.193316 0.11455
H_ H_ 0.374188 0.0707344 0.0992171 0.11455
H_ H_ 0.363298 0.475776 0.105084 0.11455
H_ H_ 0.349955 0.0728061 0.215125 0.11455
H_ H_ 0.371895 0.167265 0.210463 0.11455
H_ H_ 0.38822 0.151466 0.120738 0.11455
H_ H_ 0.418992 0.395945 0.213388 0.11455
H_ H_ 0.448502 0.419778 0.262664 0.11455
H_ H_ 0.406541 0.375998 0.302936 0.11455
H_ H_ 0.31407 0.246992 0.224336 0.11455
H_ H_ 0.302705 0.189835 0.264663 0.11455
H_ H_ 0.319237 0.21753 0.315072 0.11455
H_ H_ 0.497822 0.292087 0.374335 0.11455
H_ H_ 0.507223 0.295123 0.427278 0.11455
H_ H_ 0.250455 0.33011 0.385805 0.11455
H_ H_ 0.261238 0.321552 0.438021 0.11455
H_ H_ 0.444528 0.40691 0.502569 0.11455
H_ H_ 0.478563 0.419983 0.0460886 0.11455
H_ H_ 0.440754 0.380973 0.0875491 0.11455
H_ H_ 0.352743 0.251307 0.00779707 0.11455
H_ H_ 0.318614 0.206236 0.0481608 0.11455
H_ H_ 0.323747 0.248797 0.0974224 0.11455
C_ C_ 0.220677 0.194837 0.401387 0.68181
C_ C_ 0.276141 0.18654 0.39861 -0.05681
C_ C_ 0.30944 0.191547 0.422383 -0.08735
C_ C_ 0.362288 0.187034 0.419692 -0.05681
C_ C_ 0.382977 0.17699 0.393127 -0.05681
C_ C_ 0.352341 0.174285 0.368271 -0.08735
C_ C_ 0.299179 0.175645 0.371262 -0.08735
C_ C_ 0.393299 0.191354 0.443706 -0.08735
C_ C_ 0.447168 0.188217 0.440812 -0.08735
C_ C_ 0.46705 0.177758 0.414043 -0.05681
C_ C_ 0.435495 0.169808 0.389824 -0.08735
C_ C_ 0.1172 0.287787 0.408601 0.68181
C_ C_ 0.125616 0.0900654 0.394514 0.68181
C_ C_ 0.120668 0.0333961 0.391259 -0.05681
C_ C_ 0.147412 0.499416 0.41651 -0.08735
C_ C_ 0.148255 0.446541 0.412987 -0.05681
C_ C_ 0.132076 0.425351 0.386558 -0.05681
C_ C_ 0.120557 0.456426 0.363795 -0.08735
C_ C_ 0.121286 0.509966 0.367449 -0.08735
C_ C_ 0.152043 0.41687 0.437387 -0.08735
C_ C_ 0.133859 0.367283 0.437449 -0.08735
C_ C_ 0.126535 0.343428 0.411353 -0.05681
C_ C_ 0.121155 0.373363 0.386478 -0.08735
C_ C_ 0.0275612 0.183123 0.403379 0.68181
C_ C_ 0.0873159 0.133514 0.477695 0.1947
C_ C_ 0.0919037 0.12885 0.0132139 -0.08735
C_ C_ 0.122947 0.144983 0.0335314 -0.08735
C_ C_ 0.151996 0.190658 0.0280139 -0.05681
C_ C_ 0.157204 0.207231 0.999647 0.18498
C_ C_ 0.183141 0.234154 0.491402 -0.08735
C_ C_ 0.214984 0.274146 0.0139869 -0.08735
C_ C_ 0.20918 0.258687 0.0426799 -0.08735
C_ C_ 0.179412 0.216311 0.0505624 0.18498
C_ C_ 0.205994 0.188586 0.0980617 0.44287
C_ C_ 0.125555 0.22637 0.0922475 0.44287
C_ C_ 0.113401 0.214745 0.120991 -0.05681
C_ C_ 0.0629028 0.218413 0.13156 -0.08735
C_ C_ 0.0525756 0.208869 0.159719 -0.08735
C_ C_ 0.0924347 0.195936 0.179309 -0.05681
C_ C_ 0.142579 0.187691 0.168586 -0.05681
C_ C_ 0.152119 0.195594 0.138992 -0.05681
C_ C_ 0.199102 0.18342 0.127871 -0.05681
C_ C_ 0.236896 0.164901 0.146954 -0.08735
C_ C_ 0.23083 0.167152 0.176822 -0.08735
C_ C_ 0.180953 0.172921 0.18755 -0.05681
C_ C_ 0.171792 0.172697 0.217062 0.44287
C_ C_ 0.0864499 0.198566 0.208647 0.44287
C_ C_ 0.113808 0.171425 0.256356 0.18498
C_ C_ 0.0861912 0.125105 0.260237 -0.08735
C_ C_ 0.0699853 0.111497 0.28769 -0.08735
C_ C_ 0.0882652 0.139651 0.312107 -0.08735
C_ C_ 0.113934 0.186794 0.309009 0.18498
C_ C_ 0.131036 0.199653 0.280711 -0.05681
C_ C_ 0.157571 0.244541 0.27761 -0.08735
C_ C_ 0.171849 0.273736 0.301993 -0.08735
C_ C_ 0.16092 0.254037 0.328886 0.1947
C_ C_ 0.276516 0.313917 0.157904 0.68181
C_ C_ 0.218461 0.318223 0.154092 -0.05681
C_ C_ 0.186222 0.309611 0.176625 -0.08735
C_ C_ 0.135721 0.327871 0.173625 -0.05681
C_ C_ 0.11786 0.34583 0.147086 -0.05681
C_ C_ 0.152464 0.354504 0.124104 -0.08735
C_ C_ 0.202484 0.340491 0.128481 -0.08735
C_ C_ 0.101852 0.323558 0.197893 -0.08735
C_ C_ 0.0494568 0.329114 0.193437 -0.08735
C_ C_ 0.0302112 0.340803 0.165291 -0.05681
C_ C_ 0.065549 0.349887 0.142509 -0.08735
C_ C_ 0.38741 0.221663 0.161722 0.68181
C_ C_ 0.366888 0.419198 0.152037 0.68181
C_ C_ 0.369926 0.476067 0.150408 -0.05681
C_ C_ 0.3604 0.00543941 0.173463 -0.08735
C_ C_ 0.367444 0.0595715 0.171204 -0.05681
C_ C_ 0.375891 0.0825587 0.144648 -0.05681
C_ C_ 0.369873 0.0542193 0.11991 -0.08735
C_ C_ 0.365058 0.500658 0.122873 -0.08735
C_ C_ 0.361058 0.0915713 0.194344 -0.08735
C_ C_ 0.369884 0.144113 0.1916 -0.08735
C_ C_ 0.379701 0.166059 0.165642 -0.05681
C_ C_ 0.385209 0.135757 0.142034 -0.08735
C_ C_ 0.471658 0.333045 0.151832 0.68181
C_ C_ 0.406486 0.373584 0.232154 0.1947
C_ C_ 0.420389 0.388643 0.25875 -0.08735
C_ C_ 0.397988 0.363805 0.281608 -0.08735
C_ C_ 0.372008 0.316995 0.278346 -0.05681
C_ C_ 0.35698 0.302983 0.250042 0.18498
C_ C_ 0.327796 0.260143 0.245995 -0.08735
C_ C_ 0.31817 0.22684 0.268833 -0.08735
C_ C_ 0.33002 0.243124 0.296563 -0.08735
C_ C_ 0.355852 0.287912 0.302711 0.18498
C_ C_ 0.324603 0.314147 0.348455 0.44287
C_ C_ 0.411278 0.294722 0.345007 0.44287
C_ C_ 0.418238 0.303953 0.374289 -0.05681
C_ C_ 0.467188 0.303915 0.387029 -0.08735
C_ C_ 0.473326 0.306335 0.41709 -0.08735
C_ C_ 0.432147 0.316606 0.434693 -0.05681
C_ C_ 0.382565 0.320465 0.421242 -0.05681
C_ C_ 0.376982 0.314247 0.391243 -0.05681
C_ C_ 0.330425 0.318979 0.378094 -0.05681
C_ C_ 0.287949 0.326562 0.395297 -0.08735
C_ C_ 0.292369 0.327798 0.42476 -0.08735
C_ C_ 0.338528 0.324121 0.438288 -0.05681
C_ C_ 0.344905 0.331865 0.467903 0.44287
C_ C_ 0.432892 0.318866 0.465534 0.44287
C_ C_ 0.402867 0.341081 0.00847869 0.18498
C_ C_ 0.435688 0.380369 0.0136709 -0.08735
C_ C_ 0.447245 0.396236 0.0424549 -0.08735
C_ C_ 0.424437 0.37334 0.0666607 -0.08735
C_ C_ 0.389761 0.335109 0.060808 0.18498
C_ C_ 0.382344 0.3144 0.0315612 -0.05681
C_ C_ 0.356302 0.269426 0.0281534 -0.08735
C_ C_ 0.337601 0.242601 0.0513943 -0.08735
C_ C_ 0.341451 0.266007 0.0793713 0.1947
N_ N_ 0.12244 0.170377 0.473735 -0.29468
N_ N_ 0.169899 0.208504 0.0808631 -0.17154
N_ N_ 0.124293 0.185064 0.226922 -0.17154
N_ N_ 0.131924 0.211974 0.332583 -0.29468
N_ N_ 0.373535 0.332736 0.227965 -0.29468
N_ N_ 0.365004 0.302783 0.33201 -0.17154
N_ N_ 0.390107 0.327515 0.481127 -0.17154
N_ N_ 0.369949 0.30902 0.0835668 -0.29468
O_ O_ 0.199273 0.188184 0.425799 -0.58347
O_ O_ 0.195052 0.206485 0.380218 -0.58347
O_ O_ 0.128018 0.260686 0.43008 -0.58347
O_ O_ 0.112942 0.265187 0.384925 -0.58347
O_ O_ 0.125816 0.110369 0.418468 -0.58347
O_ O_ 0.135534 0.116407 0.373134 -0.58347
O_ O_ 0.0562737 0.191631 0.425019 -0.58347
O_ O_ 0.0480344 0.179224 0.378192 -0.58347
O_ O_ 0.0929502 0.248535 0.0753043 -0.46727
O_ O_ 0.249877 0.177632 0.0867442 -0.46727
O_ O_ 0.0404637 0.207996 0.218756 -0.46727
O_ O_ 0.206451 0.157309 0.235011 -0.46727
O_ O_ 0.295831 0.309613 0.182891 -0.58347
O_ O_ 0.305402 0.318605 0.136055 -0.58347
O_ O_ 0.386185 0.248881 0.184178 -0.58347
O_ O_ 0.381469 0.242041 0.136877 -0.58347
O_ O_ 0.352679 0.396725 0.17487 -0.58347
O_ O_ 0.380275 0.391622 0.129885 -0.58347
O_ O_ 0.44402 0.336376 0.173584 -0.58347
O_ O_ 0.45431 0.314889 0.129027 -0.58347
O_ O_ 0.44846 0.274825 0.329781 -0.46727
O_ O_ 0.279303 0.318178 0.338751 -0.46727
O_ O_ 0.475941 0.310587 0.478097 -0.46727
O_ O_ 0.304195 0.332692 0.484035 -0.46727
Zn Zn 0.13209 0.191196 0.882392 0.90689
Zn Zn 0.136608 0.184102 0.931087 0.90689
Zn Zn 0.372868 0.312906 0.631951 0.90689
Zn Zn 0.364681 0.312357 0.680464 0.90689
H_ H_ 0.307372 0.178965 0.950224 0.11455
H_ H_ 0.376943 0.164077 0.852991 0.11455
H_ H_ 0.286768 0.179888 0.859032 0.11455
H_ H_ 0.393608 0.201865 0.966089 0.11455
H_ H_ 0.485913 0.187058 0.961482 0.11455
H_ H_ 0.461965 0.146227 0.873796 0.11455
H_ H_ 0.131468 0.017918 0.943202 0.11455
H_ H_ 0.139722 0.433672 0.843923 0.11455
H_ H_ 0.12106 0.0307718 0.852989 0.11455
H_ H_ 0.119425 0.431877 0.962424 0.11455
H_ H_ 0.104517 0.343599 0.957 0.11455
H_ H_ 0.138927 0.351598 0.867252 0.11455
H_ H_ 0.0725422 0.130113 0.96904 0.11455
H_ H_ 0.0501027 0.0859919 0.510012 0.11455
H_ H_ 0.0982876 0.120077 0.552674 0.11455
H_ H_ 0.189884 0.267082 0.971046 0.11455
H_ H_ 0.231979 0.289972 0.511758 0.11455
H_ H_ 0.205329 0.26669 0.56001 0.11455
H_ H_ 0.0181351 0.20985 0.6217 0.11455
H_ H_ 0.00155855 0.192276 0.676404 0.11455
H_ H_ 0.264211 0.186193 0.638283 0.11455
H_ H_ 0.260005 0.163315 0.687788 0.11455
H_ H_ 0.0723635 0.0977312 0.747432 0.11455
H_ H_ 0.0584267 0.0686829 0.796679 0.11455
H_ H_ 0.0841369 0.12072 0.837951 0.11455
H_ H_ 0.162324 0.257892 0.758954 0.11455
H_ H_ 0.192322 0.306789 0.799631 0.11455
H_ H_ 0.18743 0.270996 0.848741 0.11455
H_ H_ 0.19818 0.305389 0.69268 0.11455
H_ H_ 0.122175 0.323361 0.595942 0.11455
H_ H_ 0.214694 0.327204 0.599543 0.11455
H_ H_ 0.115859 0.315098 0.715823 0.11455
H_ H_ 0.0226364 0.310907 0.710723 0.11455
H_ H_ 0.0385451 0.331312 0.618663 0.11455
H_ H_ 0.328364 0.484303 0.684954 0.11455
H_ H_ 0.356537 0.0550343 0.595962 0.11455
H_ H_ 0.412422 0.470775 0.604857 0.11455
H_ H_ 0.358309 0.0631025 0.713152 0.11455
H_ H_ 0.377 0.15333 0.709853 0.11455
H_ H_ 0.368906 0.144102 0.617518 0.11455
H_ H_ 0.398869 0.398846 0.715814 0.11455
H_ H_ 0.404555 0.430113 0.765541 0.11455
H_ H_ 0.352329 0.383216 0.80281 0.11455
H_ H_ 0.312299 0.235567 0.723607 0.11455
H_ H_ 0.296798 0.175083 0.764322 0.11455
H_ H_ 0.308863 0.20542 0.812986 0.11455
H_ H_ 0.48842 0.275388 0.872602 0.11455
H_ H_ 0.504611 0.287589 0.923704 0.11455
H_ H_ 0.246439 0.34479 0.885936 0.11455
H_ H_ 0.256991 0.35001 0.937862 0.11455
H_ H_ 0.453707 0.39535 -0.0048880000000000035 0.11455
H_ H_ 0.477253 0.414389 0.551124 0.11455
H_ H_ 0.444682 0.355511 0.589023 0.11455
H_ H_ 0.350961 0.244691 0.508388 0.11455
H_ H_ 0.306178 0.202989 0.546121 0.11455
H_ H_ 0.320328 0.235649 0.596285 0.11455
C_ C_ 0.233963 0.185714 0.907453 0.68181
C_ C_ 0.291647 0.179426 0.905236 -0.05681
C_ C_ 0.323746 0.179064 0.928449 -0.08735
C_ C_ 0.375156 0.173567 0.925198 -0.05681
C_ C_ 0.397009 0.167312 0.897864 -0.05681
C_ C_ 0.364001 0.168795 0.873174 -0.08735
C_ C_ 0.311351 0.175825 0.877171 -0.08735
C_ C_ 0.407093 0.179052 0.94875 -0.08735
C_ C_ 0.460495 0.173869 0.944784 -0.08735
C_ C_ 0.480677 0.16465 0.917915 -0.05681
C_ C_ 0.447686 0.159383 0.894306 -0.08735
C_ C_ 0.13115 0.285892 0.90937 0.68181
C_ C_ 0.135227 0.0877606 0.902323 0.68181
C_ C_ 0.128732 0.031176 0.898662 -0.05681
C_ C_ 0.129247 0.501773 0.918785 -0.08735
C_ C_ 0.125466 0.448523 0.91665 -0.05681
C_ C_ 0.132807 0.423375 0.889685 -0.05681
C_ C_ 0.141615 0.453915 0.86533 -0.08735
C_ C_ 0.147573 0.506086 0.8681 -0.08735
C_ C_ 0.11732 0.418034 0.941136 -0.08735
C_ C_ 0.113157 0.365572 0.938056 -0.08735
C_ C_ 0.12629 0.341553 0.911433 -0.05681
C_ C_ 0.128981 0.370718 0.886981 -0.08735
C_ C_ 0.0372588 0.190219 0.903172 0.68181
C_ C_ 0.0975835 0.144458 0.985027 0.1947
C_ C_ 0.0777313 0.115154 0.506023 -0.08735
C_ C_ 0.104294 0.135007 0.530891 -0.08735
C_ C_ 0.137821 0.177493 0.525709 -0.05681
C_ C_ 0.14776 0.194425 0.496262 0.18498
C_ C_ 0.187904 0.250292 0.99224 -0.08735
C_ C_ 0.204409 0.258076 0.515219 -0.08735
C_ C_ 0.186034 0.247008 0.542217 -0.08735
C_ C_ 0.156306 0.205013 0.54878 0.18498
C_ C_ 0.188724 0.178462 0.597158 0.44287
C_ C_ 0.103713 0.196588 0.592437 0.44287
C_ C_ 0.0950063 0.190048 0.622391 -0.05681
C_ C_ 0.0471376 0.195068 0.635481 -0.08735
C_ C_ 0.0408993 0.193068 0.666443 -0.08735
C_ C_ 0.0832662 0.183151 0.682647 -0.05681
C_ C_ 0.131718 0.179687 0.67059 -0.05681
C_ C_ 0.138164 0.182437 0.639433 -0.05681
C_ C_ 0.185247 0.177365 0.62721 -0.05681
C_ C_ 0.227073 0.178231 0.645827 -0.08735
C_ C_ 0.223248 0.172998 0.674672 -0.08735
C_ C_ 0.174759 0.172251 0.687811 -0.05681
C_ C_ 0.167034 0.174181 0.718253 0.44287
C_ C_ 0.0815037 0.191722 0.712997 0.44287
C_ C_ 0.112741 0.167822 0.75996 0.18498
C_ C_ 0.0854752 0.122741 0.765419 -0.08735
C_ C_ 0.075197 0.105512 0.792892 -0.08735
C_ C_ 0.0889439 0.135964 0.816942 -0.08735
C_ C_ 0.119889 0.181209 0.813351 0.18498
C_ C_ 0.129559 0.197539 0.783733 -0.05681
C_ C_ 0.156513 0.241739 0.779602 -0.08735
C_ C_ 0.173662 0.269499 0.802649 -0.08735
C_ C_ 0.166223 0.251768 0.831513 0.1947
C_ C_ 0.271515 0.312048 0.650892 0.68181
C_ C_ 0.214182 0.315399 0.646586 -0.05681
C_ C_ 0.181186 0.308972 0.670806 -0.08735
C_ C_ 0.129955 0.318591 0.66932 -0.05681
C_ C_ 0.108354 0.326169 0.642084 -0.05681
C_ C_ 0.140161 0.323088 0.617294 -0.08735
C_ C_ 0.193125 0.3242 0.619695 -0.08735
C_ C_ 0.100023 0.323773 0.694673 -0.08735
C_ C_ 0.0470566 0.321064 0.69191 -0.08735
C_ C_ 0.0246278 0.319295 0.663474 -0.05681
C_ C_ 0.0567917 0.324916 0.639182 -0.08735
C_ C_ 0.374777 0.214323 0.663042 0.68181
C_ C_ 0.365749 0.412612 0.647437 0.68181
C_ C_ 0.373942 0.468702 0.647302 -0.05681
C_ C_ 0.359601 -0.0042520000000000335 0.672798 -0.08735
C_ C_ 0.359724 0.0499198 0.668454 -0.05681
C_ C_ 0.363286 0.0734488 0.640701 -0.05681
C_ C_ 0.357759 0.0398651 0.616594 -0.08735
C_ C_ 0.399712 0.491296 0.623361 -0.08735
C_ C_ 0.362907 0.0800283 0.693436 -0.08735
C_ C_ 0.371217 0.131691 0.690902 -0.08735
C_ C_ 0.371313 0.15685 0.663766 -0.05681
C_ C_ 0.371881 0.126114 0.638388 -0.08735
C_ C_ 0.468019 0.315839 0.662584 0.68181
C_ C_ 0.384801 0.374306 0.73358 0.1947
C_ C_ 0.39079 0.39048 0.762059 -0.08735
C_ C_ 0.364314 0.363384 0.782915 -0.08735
C_ C_ 0.351702 0.31249 0.778249 -0.05681
C_ C_ 0.347007 0.295282 0.750016 0.18498
C_ C_ 0.319681 0.249095 0.745238 -0.08735
C_ C_ 0.313057 0.215028 0.767802 -0.08735
C_ C_ 0.319909 0.231652 0.796157 -0.08735
C_ C_ 0.340709 0.277747 0.801226 0.18498
C_ C_ 0.313926 0.309221 0.848421 0.44287
C_ C_ 0.396778 0.277589 0.843121 0.44287
C_ C_ 0.408289 0.294007 0.87139 -0.05681
C_ C_ 0.457542 0.287162 0.883992 -0.08735
C_ C_ 0.465775 0.293894 0.914173 -0.08735
C_ C_ 0.425266 0.307687 0.931449 -0.05681
C_ C_ 0.377306 0.314712 0.920308 -0.05681
C_ C_ 0.369801 0.309204 0.890165 -0.05681
C_ C_ 0.322403 0.31619 0.878139 -0.05681
C_ C_ 0.282088 0.33583 0.89532 -0.08735
C_ C_ 0.288461 0.341404 0.924239 -0.08735
C_ C_ 0.337485 0.330804 0.937034 -0.05681
C_ C_ 0.345524 0.337698 0.966584 0.44287
C_ C_ 0.429959 0.312964 0.961224 0.44287
C_ C_ 0.395835 0.339396 0.510841 0.18498
C_ C_ 0.429116 0.379371 0.518117 -0.08735
C_ C_ 0.447269 0.38593 0.546339 -0.08735
C_ C_ 0.426331 0.356252 0.568737 -0.08735
C_ C_ 0.390537 0.320886 0.56262 0.18498
C_ C_ 0.378749 0.307183 0.533079 -0.05681
C_ C_ 0.349548 0.26516 0.529147 -0.08735
C_ C_ 0.328567 0.237403 0.551076 -0.08735
C_ C_ 0.335724 0.25581 0.578602 0.1947
N_ N_ 0.130295 0.180179 0.978363 -0.29468
N_ N_ 0.148867 0.187596 0.57938 -0.17154
N_ N_ 0.121184 0.181257 0.729683 -0.17154
N_ N_ 0.140774 0.206604 0.836403 -0.29468
N_ N_ 0.362072 0.327419 0.727499 -0.29468
N_ N_ 0.35223 0.293313 0.830808 -0.17154
N_ N_ 0.390685 0.327084 0.979287 -0.17154
N_ N_ 0.369735 0.292563 0.584612 -0.29468
O_ O_ 0.212537 0.184613 0.931913 -0.58347
O_ O_ 0.208972 0.200969 0.885341 -0.58347
O_ O_ 0.136748 0.260243 0.931853 -0.58347
O_ O_ 0.124326 0.264737 0.884939 -0.58347
O_ O_ 0.12904 0.107329 0.926517 -0.58347
O_ O_ 0.140475 0.114954 0.880149 -0.58347
O_ O_ 0.0643075 0.193066 0.925355 -0.58347
O_ O_ 0.0578161 0.183768 0.878986 -0.58347
O_ O_ 0.0636546 0.206099 0.575625 -0.46727
O_ O_ 0.234932 0.18417 0.587251 -0.46727
O_ O_ 0.0383466 0.207156 0.725856 -0.46727
O_ O_ 0.203604 0.157579 0.734361 -0.46727
O_ O_ 0.292124 0.298664 0.674943 -0.58347
O_ O_ 0.30181 0.316701 0.629152 -0.58347
O_ O_ 0.373053 0.23871 0.686695 -0.58347
O_ O_ 0.371605 0.236535 0.639189 -0.58347
O_ O_ 0.358201 0.389495 0.670789 -0.58347
O_ O_ 0.374103 0.38754 0.625151 -0.58347
O_ O_ 0.440797 0.32011 0.685046 -0.58347
O_ O_ 0.446705 0.318602 0.63774 -0.58347
O_ O_ 0.433515 0.260681 0.827462 -0.46727
O_ O_ 0.268719 0.318044 0.836925 -0.46727
O_ O_ 0.474025 0.304062 0.972319 -0.46727
O_ O_ 0.305144 0.345991 0.982814 -0.46727
Zn Zn 0.117343 0.695593 0.380033 0.90689
Zn Zn 0.128107 0.684009 0.426939 0.90689
Zn Zn 0.369253 0.821342 0.13027 0.90689
Zn Zn 0.362689 0.82441 0.179914 0.90689
H_ H_ 0.297764 0.672848 0.447218 0.11455
H_ H_ 0.35904 0.666438 0.348049 0.11455
H_ H_ 0.269066 0.682379 0.35664 0.11455
H_ H_ 0.379826 0.636943 0.465135 0.11455
H_ H_ 0.471254 0.649256 0.457088 0.11455
H_ H_ 0.447835 0.683772 0.368848 0.11455
H_ H_ 0.152841 0.513661 0.437859 0.11455
H_ H_ 0.113622 0.941305 0.339682 0.11455
H_ H_ 0.118782 0.532412 0.349321 0.11455
H_ H_ 0.146012 0.938131 0.4565 0.11455
H_ H_ 0.129248 0.849354 0.45567 0.11455
H_ H_ 0.109737 0.856339 0.363727 0.11455
H_ H_ 0.0669569 0.615428 0.461569 0.11455
H_ H_ 0.0736384 0.57536 0.00950819 0.11455
H_ H_ 0.112936 0.617998 0.0506012 0.11455
H_ H_ 0.176823 0.749357 0.469219 0.11455
H_ H_ 0.218674 0.806253 0.0131658 0.11455
H_ H_ 0.195843 0.783023 0.0624292 0.11455
H_ H_ 0.0127097 0.706563 0.115241 0.11455
H_ H_ -0.005850000000000022 0.687194 0.168261 0.11455
H_ H_ 0.256493 0.650198 0.140265 0.11455
H_ H_ 0.237985 0.639172 0.190233 0.11455
H_ H_ 0.0535856 0.590017 0.24992 0.11455
H_ H_ 0.0276201 0.577311 0.299546 0.11455
H_ H_ 0.066646 0.623767 0.338257 0.11455
H_ H_ 0.140201 0.754376 0.254458 0.11455
H_ H_ 0.177446 0.798111 0.295016 0.11455
H_ H_ 0.175079 0.762815 0.344097 0.11455
H_ H_ 0.194476 0.823194 0.197135 0.11455
H_ H_ 0.118648 0.825406 0.0985869 0.11455
H_ H_ 0.209173 0.828207 0.104511 0.11455
H_ H_ 0.113379 0.815199 0.215347 0.11455
H_ H_ 0.0192456 0.810331 0.210409 0.11455
H_ H_ 0.030449 0.832069 0.120448 0.11455
H_ H_ 0.355135 0.9894 0.194952 0.11455
H_ H_ 0.369315 0.569131 0.0992189 0.11455
H_ H_ 0.363036 0.979725 0.103001 0.11455
H_ H_ 0.400066 0.568754 0.217192 0.11455
H_ H_ 0.391948 0.660074 0.212291 0.11455
H_ H_ 0.375185 0.654335 0.12218 0.11455
H_ H_ 0.420327 0.890913 0.216831 0.11455
H_ H_ 0.450366 0.902783 0.266826 0.11455
H_ H_ 0.408123 0.873112 0.305472 0.11455
H_ H_ 0.294706 0.772334 0.222036 0.11455
H_ H_ 0.248381 0.726017 0.260612 0.11455
H_ H_ 0.271604 0.737925 0.309465 0.11455
H_ H_ 0.474498 0.796454 0.372878 0.11455
H_ H_ 0.487065 0.790996 0.42441 0.11455
H_ H_ 0.225924 0.833123 0.39005 0.11455
H_ H_ 0.239647 0.850563 0.440578 0.11455
H_ H_ 0.433841 0.906198 0.500951 0.11455
H_ H_ 0.46337 0.934664 0.0478041 0.11455
H_ H_ 0.42084 0.888582 0.0888665 0.11455
H_ H_ 0.325784 0.775116 0.00718866 0.11455
H_ H_ 0.297779 0.720997 0.0478641 0.11455
H_ H_ 0.326306 0.740525 0.0942557 0.11455
C_ C_ 0.22131 0.688349 0.406626 0.68181
C_ C_ 0.276671 0.678511 0.402873 -0.05681
C_ C_ 0.310421 0.667295 0.425762 -0.08735
C_ C_ 0.361378 0.659774 0.420255 -0.05681
C_ C_ 0.381611 0.664681 0.392568 -0.05681
C_ C_ 0.346989 0.670235 0.369762 -0.08735
C_ C_ 0.295523 0.679147 0.374897 -0.08735
C_ C_ 0.395182 0.651036 0.443925 -0.08735
C_ C_ 0.447645 0.651968 0.438945 -0.08735
C_ C_ 0.467234 0.667615 0.412314 -0.05681
C_ C_ 0.434003 0.669223 0.388807 -0.08735
C_ C_ 0.118545 0.78805 0.40742 0.68181
C_ C_ 0.129251 0.589002 0.398954 0.68181
C_ C_ 0.13857 0.533186 0.393022 -0.05681
C_ C_ 0.124992 1.00339762 0.415726 -0.08735
C_ C_ 0.12653 0.949469 0.412841 -0.05681
C_ C_ 0.120041 0.927317 0.386187 -0.05681
C_ C_ 0.115921 0.957878 0.361755 -0.08735
C_ C_ 0.114908 1.00965535 0.364565 -0.08735
C_ C_ 0.135806 0.920116 0.436672 -0.08735
C_ C_ 0.13723 0.868154 0.434933 -0.08735
C_ C_ 0.121653 0.845148 0.408783 -0.05681
C_ C_ 0.118753 0.875116 0.383752 -0.08735
C_ C_ 0.0220847 0.688016 0.400124 0.68181
C_ C_ 0.0845461 0.635078 0.479539 0.1947
C_ C_ 0.0997994 0.608173 0.00719139 -0.08735
C_ C_ 0.121902 0.631568 0.0297906 -0.08735
C_ C_ 0.146816 0.678621 0.0261876 -0.05681
C_ C_ 0.157616 0.696199 0.997808 0.18498
C_ C_ 0.169964 0.741812 0.49035 -0.08735
C_ C_ 0.194679 0.772333 0.0174254 -0.08735
C_ C_ 0.185962 0.756894 0.0458835 -0.08735
C_ C_ 0.165022 0.707767 0.0508763 0.18498
C_ C_ 0.189929 0.679539 0.0980071 0.44287
C_ C_ 0.106839 0.703706 0.0911696 0.44287
C_ C_ 0.0926646 0.693756 0.120809 -0.05681
C_ C_ 0.042788 0.701471 0.130672 -0.08735
C_ C_ 0.0327145 0.687501 0.159727 -0.08735
C_ C_ 0.0737282 0.680768 0.179588 -0.05681
C_ C_ 0.122563 0.67267 0.168623 -0.05681
C_ C_ 0.132213 0.679843 0.139293 -0.05681
C_ C_ 0.178752 0.667089 0.126933 -0.05681
C_ C_ 0.218602 0.655454 0.147906 -0.08735
C_ C_ 0.209374 0.651396 0.176618 -0.08735
C_ C_ 0.161107 0.65918 0.187729 -0.05681
C_ C_ 0.151777 0.657582 0.217614 0.44287
C_ C_ 0.0653291 0.67877 0.209588 0.44287
C_ C_ 0.0934996 0.658638 0.258213 0.18498
C_ C_ 0.0675638 0.613981 0.266082 -0.08735
C_ C_ 0.0590865 0.60117 0.294681 -0.08735
C_ C_ 0.0779301 0.632219 0.315969 -0.08735
C_ C_ 0.101454 0.677183 0.30963 0.18498
C_ C_ 0.109491 0.691878 0.279812 -0.05681
C_ C_ 0.136308 0.738436 0.274669 -0.08735
C_ C_ 0.163909 0.759045 0.297062 -0.08735
C_ C_ 0.158446 0.740987 0.325866 0.1947
C_ C_ 0.263733 0.82475 0.152341 0.68181
C_ C_ 0.20818 0.826886 0.150684 -0.05681
C_ C_ 0.177478 0.823848 0.174439 -0.08735
C_ C_ 0.124902 0.82211 0.171871 -0.05681
C_ C_ 0.102001 0.824532 0.144118 -0.05681
C_ C_ 0.133979 0.826356 0.120761 -0.08735
C_ C_ 0.185498 0.831669 0.124025 -0.08735
C_ C_ 0.0924992 0.818115 0.195925 -0.08735
C_ C_ 0.0414288 0.815125 0.192678 -0.08735
C_ C_ 0.0189752 0.825247 0.165899 -0.05681
C_ C_ 0.0499381 0.827576 0.140806 -0.08735
C_ C_ 0.379543 0.722222 0.163506 0.68181
C_ C_ 0.362306 0.921165 0.149447 0.68181
C_ C_ 0.360183 0.976182 0.148203 -0.05681
C_ C_ 0.383927 0.505297 0.173751 -0.08735
C_ C_ 0.384169 0.558752 0.171329 -0.05681
C_ C_ 0.377227 0.583487 0.144877 -0.05681
C_ C_ 0.372157 0.55175 0.12072 -0.08735
C_ C_ 0.366812 0.000849238 0.122191 -0.08735
C_ C_ 0.390753 0.587988 0.196719 -0.08735
C_ C_ 0.392277 0.641158 0.193085 -0.08735
C_ C_ 0.386998 0.667163 0.166514 -0.05681
C_ C_ 0.381578 0.637044 0.141927 -0.08735
C_ C_ 0.463608 0.828052 0.154672 0.68181
C_ C_ 0.402638 0.871665 0.23382 0.1947
C_ C_ 0.416559 0.88245 0.262078 -0.08735
C_ C_ 0.391859 0.861573 0.285137 -0.08735
C_ C_ 0.354247 0.825283 0.279827 -0.05681
C_ C_ 0.342586 0.814092 0.249984 0.18498
C_ C_ 0.304456 0.777465 0.243471 -0.08735
C_ C_ 0.28339 0.748721 0.264878 -0.08735
C_ C_ 0.296369 0.756413 0.293201 -0.08735
C_ C_ 0.327046 0.796234 0.301715 0.18498
C_ C_ 0.297857 0.81803 0.350846 0.44287
C_ C_ 0.383549 0.789997 0.344851 0.44287
C_ C_ 0.393694 0.800415 0.374942 -0.05681
C_ C_ 0.442234 0.795839 0.386885 -0.08735
C_ C_ 0.449693 0.799583 0.416534 -0.08735
C_ C_ 0.410607 0.808669 0.435001 -0.05681
C_ C_ 0.361347 0.814169 0.423568 -0.05681
C_ C_ 0.353024 0.809993 0.394335 -0.05681
C_ C_ 0.306525 0.82251 0.380883 -0.05681
C_ C_ 0.264381 0.829327 0.399565 -0.08735
C_ C_ 0.271157 0.832859 0.429339 -0.08735
C_ C_ 0.321466 0.824928 0.441924 -0.05681
C_ C_ 0.330851 0.833619 0.471286 0.44287
C_ C_ 0.417625 0.808792 0.46502 0.44287
C_ C_ 0.393652 0.85076 0.00986945 0.18498
C_ C_ 0.428555 0.889902 0.01559 -0.08735
C_ C_ 0.438931 0.902069 0.0441534 -0.08735
C_ C_ 0.41669 0.874552 0.0666633 -0.08735
C_ C_ 0.384045 0.83315 0.0615763 0.18498
C_ C_ 0.377834 0.818104 0.0328103 -0.05681
C_ C_ 0.344004 0.779256 0.028143 -0.08735
C_ C_ 0.323693 0.753195 0.0505474 -0.08735
C_ C_ 0.339302 0.762979 0.0780005 0.1947
N_ N_ 0.119131 0.673688 0.47402 -0.29468
N_ N_ 0.152459 0.692902 0.0799089 -0.17154
N_ N_ 0.105314 0.669487 0.228145 -0.17154
N_ N_ 0.122789 0.705467 0.331502 -0.29468
N_ N_ 0.364516 0.838572 0.227745 -0.29468
N_ N_ 0.336202 0.803452 0.332933 -0.17154
N_ N_ 0.378577 0.828121 0.482123 -0.17154
N_ N_ 0.370952 0.803081 0.0832428 -0.29468
O_ O_ 0.203092 0.6861 0.430982 -0.58347
O_ O_ 0.193174 0.691846 0.383945 -0.58347
O_ O_ 0.119946 0.760539 0.429857 -0.58347
O_ O_ 0.121434 0.767606 0.38245 -0.58347
O_ O_ 0.135056 0.606779 0.423995 -0.58347
O_ O_ 0.113378 0.616672 0.378528 -0.58347
O_ O_ 0.0497429 0.677856 0.421834 -0.58347
O_ O_ 0.0424184 0.696086 0.376271 -0.58347
O_ O_ 0.0740953 0.72608 0.0763496 -0.46727
O_ O_ 0.238566 0.674924 0.0890554 -0.46727
O_ O_ 0.0171439 0.693003 0.219023 -0.46727
O_ O_ 0.190433 0.65101 0.235564 -0.46727
O_ O_ 0.285053 0.826558 0.175838 -0.58347
O_ O_ 0.29084 0.813542 0.130575 -0.58347
O_ O_ 0.372612 0.747442 0.185738 -0.58347
O_ O_ 0.380128 0.744485 0.138686 -0.58347
O_ O_ 0.364898 0.899958 0.172703 -0.58347
O_ O_ 0.362097 0.894615 0.127007 -0.58347
O_ O_ 0.436282 0.828183 0.17753 -0.58347
O_ O_ 0.443907 0.83178 0.130523 -0.58347
O_ O_ 0.42043 0.777647 0.327685 -0.46727
O_ O_ 0.25262 0.825479 0.341235 -0.46727
O_ O_ 0.452998 0.780987 0.475463 -0.46727
O_ O_ 0.29288 0.844152 0.488495 -0.46727
Zn Zn 0.134684 0.6891 0.879265 0.90689
Zn Zn 0.140662 0.683903 0.929021 0.90689
Zn Zn 0.367594 0.807977 0.63487 0.90689
Zn Zn 0.358089 0.813091 0.68019 0.90689
H_ H_ 0.311628 0.68171 0.945603 0.11455
H_ H_ 0.379581 0.64342 0.851118 0.11455
H_ H_ 0.290266 0.667921 0.855179 0.11455
H_ H_ 0.39757 0.674679 0.967133 0.11455
H_ H_ 0.490384 0.676187 0.957177 0.11455
H_ H_ 0.463993 0.638809 0.869268 0.11455
H_ H_ 0.138464 0.519748 0.939834 0.11455
H_ H_ 0.118773 0.943708 0.847324 0.11455
H_ H_ 0.152475 0.528976 0.848834 0.11455
H_ H_ 0.131651 0.932816 0.964607 0.11455
H_ H_ 0.1434 0.843332 0.958735 0.11455
H_ H_ 0.0970051 0.855719 0.87018 0.11455
H_ H_ 0.0851317 0.609902 0.962156 0.11455
H_ H_ 0.0538604 0.582959 0.511644 0.11455
H_ H_ 0.088957 0.627843 0.551158 0.11455
H_ H_ 0.203847 0.75144 0.973982 0.11455
H_ H_ 0.213271 0.802915 0.508274 0.11455
H_ H_ 0.184954 0.785482 0.55827 0.11455
H_ H_ 1.00847972 0.701923 0.617919 0.11455
H_ H_ 1.00484811 0.71722 0.671865 0.11455
H_ H_ 0.25765 0.655884 0.631965 0.11455
H_ H_ 0.248131 0.640198 0.679102 0.11455
H_ H_ 0.0545231 0.602673 0.744924 0.11455
H_ H_ 0.0355562 0.574999 0.791403 0.11455
H_ H_ 0.0809491 0.619782 0.834641 0.11455
H_ H_ 0.151551 0.753678 0.755252 0.11455
H_ H_ 0.195871 0.794847 0.797558 0.11455
H_ H_ 0.181181 0.75995 0.844893 0.11455
H_ H_ 0.190759 0.814279 0.696623 0.11455
H_ H_ 0.125659 0.837495 0.598153 0.11455
H_ H_ 0.216502 0.816274 0.604657 0.11455
H_ H_ 0.104868 0.801989 0.715688 0.11455
H_ H_ 0.0147584 0.813674 0.707935 0.11455
H_ H_ 0.0428014 0.845916 0.619 0.11455
H_ H_ 0.360464 0.981455 0.693203 0.11455
H_ H_ 0.429752 0.560839 0.606598 0.11455
H_ H_ 0.353691 0.963244 0.601742 0.11455
H_ H_ 0.323722 0.565136 0.708463 0.11455
H_ H_ 0.335339 0.654782 0.708206 0.11455
H_ H_ 0.412393 0.643843 0.625219 0.11455
H_ H_ 0.413866 0.878076 0.715215 0.11455
H_ H_ 0.423708 0.913844 0.760843 0.11455
H_ H_ 0.386726 0.875573 0.803526 0.11455
H_ H_ 0.295509 0.750035 0.724562 0.11455
H_ H_ 0.264062 0.69473 0.764541 0.11455
H_ H_ 0.284417 0.723832 0.814546 0.11455
H_ H_ 0.471142 0.765801 0.874975 0.11455
H_ H_ 0.484334 0.765027 0.926369 0.11455
H_ H_ 0.235146 0.856054 0.89089 0.11455
H_ H_ 0.249396 0.870072 0.939355 0.11455
H_ H_ 0.444313 0.910147 0.998078 0.11455
H_ H_ 0.459273 0.920141 0.550054 0.11455
H_ H_ 0.420702 0.879965 0.590875 0.11455
H_ H_ 0.334886 0.747603 0.510875 0.11455
H_ H_ 0.303601 0.700173 0.551061 0.11455
H_ H_ 0.317807 0.730025 0.597855 0.11455
C_ C_ 0.236498 0.684458 0.902809 0.68181
C_ C_ 0.293306 0.677058 0.901286 -0.05681
C_ C_ 0.325527 0.67388 0.924916 -0.08735
C_ C_ 0.377674 0.66614 0.921749 -0.05681
C_ C_ 0.39785 0.657556 0.894224 -0.05681
C_ C_ 0.36488 0.656804 0.871334 -0.08735
C_ C_ 0.313023 0.668587 0.874533 -0.08735
C_ C_ 0.411173 0.668069 0.946228 -0.08735
C_ C_ 0.464678 0.666146 0.941377 -0.08735
C_ C_ 0.483841 0.655969 0.913511 -0.05681
C_ C_ 0.450268 0.648508 0.891174 -0.08735
C_ C_ 0.128365 0.785377 0.910877 0.68181
C_ C_ 0.134544 0.588069 0.89448 0.68181
C_ C_ 0.138695 0.530775 0.893952 -0.05681
C_ C_ 0.121899 1.00122 0.922286 -0.08735
C_ C_ 0.122527 0.947871 0.920022 -0.05681
C_ C_ 0.119378 0.924409 0.892802 -0.05681
C_ C_ 0.11651 0.956018 0.868622 -0.08735
C_ C_ 0.1223 0.00754695 0.871679 -0.08735
C_ C_ 0.127228 0.915923 0.944172 -0.08735
C_ C_ 0.132147 0.863617 0.940867 -0.08735
C_ C_ 0.124345 0.840892 0.914196 -0.05681
C_ C_ 0.11122 0.871507 0.890266 -0.08735
C_ C_ 0.0373811 0.687203 0.90559 0.68181
C_ C_ 0.10537 0.629064 0.981126 0.1947
C_ C_ 0.0749208 0.617446 0.507601 -0.08735
C_ C_ 0.102598 0.636575 0.530264 -0.08735
C_ C_ 0.130584 0.683113 0.525453 -0.05681
C_ C_ 0.139503 0.700802 0.496469 0.18498
C_ C_ 0.184097 0.739441 0.993754 -0.08735
C_ C_ 0.18482 0.773701 0.513101 -0.08735
C_ C_ 0.174991 0.758415 0.541838 -0.08735
C_ C_ 0.149576 0.713479 0.548093 0.18498
C_ C_ 0.184167 0.678566 0.59252 0.44287
C_ C_ 0.0968651 0.703415 0.590192 0.44287
C_ C_ 0.0895955 0.693598 0.620056 -0.05681
C_ C_ 0.0401433 0.696445 0.633102 -0.08735
C_ C_ 0.0369767 0.697324 0.662509 -0.08735
C_ C_ 0.0809042 0.689049 0.679156 -0.05681
C_ C_ 0.128854 0.675718 0.666533 -0.05681
C_ C_ 0.133739 0.679944 0.636558 -0.05681
C_ C_ 0.179741 0.668308 0.622394 -0.05681
C_ C_ 0.219972 0.658126 0.64081 -0.08735
C_ C_ 0.216331 0.654745 0.670173 -0.08735
C_ C_ 0.170246 0.661583 0.684131 -0.05681
C_ C_ 0.163572 0.663016 0.714516 0.44287
C_ C_ 0.0772095 0.687392 0.709777 0.44287
C_ C_ 0.106835 0.65911 0.756719 0.18498
C_ C_ 0.072925 0.620181 0.762389 -0.08735
C_ C_ 0.0588858 0.607658 0.789698 -0.08735
C_ C_ 0.0799807 0.635788 0.812622 -0.08735
C_ C_ 0.115818 0.672146 0.808742 0.18498
C_ C_ 0.127506 0.687899 0.780464 -0.05681
C_ C_ 0.156259 0.732421 0.774893 -0.08735
C_ C_ 0.178639 0.755966 0.798074 -0.08735
C_ C_ 0.167883 0.736324 0.826296 0.1947
C_ C_ 0.267282 0.809118 0.655538 0.68181
C_ C_ 0.211788 0.809682 0.651473 -0.05681
C_ C_ 0.176527 0.810152 0.674293 -0.08735
C_ C_ 0.124944 0.812142 0.670151 -0.05681
C_ C_ 0.10474 0.820428 0.642846 -0.05681
C_ C_ 0.139021 0.825352 0.619331 -0.08735
C_ C_ 0.191988 0.815548 0.623542 -0.08735
C_ C_ 0.0915323 0.811433 0.694467 -0.08735
C_ C_ 0.0398658 0.818368 0.68982 -0.08735
C_ C_ 0.0210646 0.826498 0.66263 -0.05681
C_ C_ 0.053238 0.829188 0.639034 -0.08735
C_ C_ 0.364744 0.710703 0.662201 0.68181
C_ C_ 0.352283 0.907952 0.650873 0.68181
C_ C_ 0.354536 0.964454 0.648576 -0.05681
C_ C_ 0.358587 0.499073 0.670971 -0.08735
C_ C_ 0.368225 0.551252 0.670539 -0.05681
C_ C_ 0.398316 0.573479 0.648694 -0.05681
C_ C_ 0.41526 0.542811 0.625633 -0.08735
C_ C_ 0.35321 0.987583 0.620132 -0.08735
C_ C_ 0.343537 0.581878 0.690616 -0.08735
C_ C_ 0.350635 0.633631 0.689485 -0.08735
C_ C_ 0.375746 0.657201 0.666297 -0.05681
C_ C_ 0.397625 0.626639 0.644957 -0.08735
C_ C_ 0.463261 0.810304 0.656023 0.68181
C_ C_ 0.395418 0.859433 0.732647 0.1947
C_ C_ 0.401607 0.879485 0.759524 -0.08735
C_ C_ 0.376268 0.860373 0.78394 -0.08735
C_ C_ 0.344898 0.819393 0.779406 -0.05681
C_ C_ 0.337005 0.800266 0.750747 0.18498
C_ C_ 0.307914 0.756369 0.746259 -0.08735
C_ C_ 0.293005 0.725328 0.769166 -0.08735
C_ C_ 0.301477 0.743646 0.797182 -0.08735
C_ C_ 0.328217 0.789043 0.802532 0.18498
C_ C_ 0.303357 0.823343 0.84906 0.44287
C_ C_ 0.385558 0.787331 0.844369 0.44287
C_ C_ 0.394548 0.793913 0.874329 -0.05681
C_ C_ 0.440871 0.780667 0.887516 -0.08735
C_ C_ 0.447169 0.780472 0.916752 -0.08735
C_ C_ 0.407029 0.79753 0.935196 -0.05681
C_ C_ 0.361675 0.815967 0.922108 -0.05681
C_ C_ 0.355335 0.812308 0.891877 -0.05681
C_ C_ 0.309433 0.827224 0.879071 -0.05681
C_ C_ 0.272333 0.849201 0.897815 -0.08735
C_ C_ 0.281679 0.857679 0.926724 -0.08735
C_ C_ 0.326209 0.838473 0.940502 -0.05681
C_ C_ 0.338957 0.851505 0.968734 0.44287
C_ C_ 0.417683 0.812274 0.963912 0.44287
C_ C_ 0.389158 0.838834 0.511689 0.18498
C_ C_ 0.41951 0.88148 0.517676 -0.08735
C_ C_ 0.431633 0.892099 0.545906 -0.08735
C_ C_ 0.410521 0.866983 0.568301 -0.08735
C_ C_ 0.380288 0.824054 0.563527 0.18498
C_ C_ 0.373376 0.8066 0.535211 -0.05681
C_ C_ 0.349311 0.758604 0.53111 -0.08735
C_ C_ 0.330773 0.730667 0.554667 -0.08735
C_ C_ 0.337946 0.749433 0.581292 0.1947
N_ N_ 0.135152 0.671094 0.976217 -0.29468
N_ N_ 0.142822 0.697326 0.577314 -0.17154
N_ N_ 0.116969 0.667981 0.726221 -0.17154
N_ N_ 0.139011 0.694574 0.830985 -0.29468
N_ N_ 0.359288 0.823222 0.727951 -0.29468
N_ N_ 0.339944 0.80228 0.833092 -0.17154
N_ N_ 0.383433 0.836811 0.980401 -0.17154
N_ N_ 0.361924 0.794222 0.585426 -0.29468
O_ O_ 0.215313 0.678675 0.926363 -0.58347
O_ O_ 0.209877 0.696028 0.880939 -0.58347
O_ O_ 0.14601 0.759194 0.931824 -0.58347
O_ O_ 0.122784 0.765323 0.885679 -0.58347
O_ O_ 0.131118 0.610508 0.919297 -0.58347
O_ O_ 0.147091 0.614632 0.873636 -0.58347
O_ O_ 0.0656154 0.685846 0.927279 -0.58347
O_ O_ 0.0560487 0.683218 0.87985 -0.58347
O_ O_ 0.0604074 0.725349 0.57608 -0.46727
O_ O_ 0.227422 0.674896 0.580086 -0.46727
O_ O_ 0.0345595 0.697814 0.721989 -0.46727
O_ O_ 0.201881 0.650323 0.731996 -0.46727
O_ O_ 0.285765 0.821113 0.680311 -0.58347
O_ O_ 0.296262 0.799995 0.634621 -0.58347
O_ O_ 0.350607 0.736093 0.682922 -0.58347
O_ O_ 0.37822 0.733859 0.639903 -0.58347
O_ O_ 0.356949 0.88798 0.674991 -0.58347
O_ O_ 0.350638 0.880154 0.629125 -0.58347
O_ O_ 0.435123 0.804301 0.677533 -0.58347
O_ O_ 0.444397 0.819458 0.632417 -0.58347
O_ O_ 0.422667 0.771262 0.82816 -0.46727
O_ O_ 0.261183 0.839049 0.837179 -0.46727
O_ O_ 0.458777 0.792846 0.976374 -0.46727
O_ O_ 0.302576 0.868957 0.985887 -0.46727
Zn Zn 0.618591 0.184069 0.383667 0.90689
Zn Zn 0.629151 0.18162 0.433486 0.90689
Zn Zn 0.881292 0.325197 0.131248 0.90689
Zn Zn 0.868838 0.330934 0.179583 0.90689
H_ H_ 0.796443 0.166039 0.446318 0.11455
H_ H_ 0.86063 0.168583 0.346127 0.11455
H_ H_ 0.773238 0.166069 0.354997 0.11455
H_ H_ 0.888584 0.165707 0.462773 0.11455
H_ H_ 0.977864 0.17764 0.454365 0.11455
H_ H_ 0.948141 0.176062 0.363605 0.11455
H_ H_ 0.608061 0.0137076 0.443195 0.11455
H_ H_ 0.567274 0.435853 0.350285 0.11455
H_ H_ 0.666961 0.027597 0.358728 0.11455
H_ H_ 0.672261 0.430934 0.453952 0.11455
H_ H_ 0.660766 0.34203 0.45536 0.11455
H_ H_ 0.585873 0.350015 0.371938 0.11455
H_ H_ 0.595697 0.0914175 0.472043 0.11455
H_ H_ 0.582126 0.080214 0.0171867 0.11455
H_ H_ 0.615476 0.128679 0.0584821 0.11455
H_ H_ 0.694557 0.232866 0.474361 0.11455
H_ H_ 0.732072 0.304561 0.0151589 0.11455
H_ H_ 0.712229 0.282576 0.0656452 0.11455
H_ H_ 0.522227 0.226122 0.119346 0.11455
H_ H_ 0.508833 0.221789 0.174437 0.11455
H_ H_ 0.770819 0.183854 0.143083 0.11455
H_ H_ 0.750186 0.171971 0.19519 0.11455
H_ H_ 0.561332 0.0913183 0.247219 0.11455
H_ H_ 0.530051 0.0705518 0.293733 0.11455
H_ H_ 0.555246 0.120359 0.336541 0.11455
H_ H_ 0.651639 0.250937 0.260994 0.11455
H_ H_ 0.683944 0.290875 0.303793 0.11455
H_ H_ 0.675499 0.247499 0.352507 0.11455
H_ H_ 0.700222 0.32864 0.193343 0.11455
H_ H_ 0.637526 0.343036 0.0912838 0.11455
H_ H_ 0.731083 0.325924 0.104117 0.11455
H_ H_ 0.611106 0.353788 0.208752 0.11455
H_ H_ 0.521954 0.359305 0.200528 0.11455
H_ H_ 0.546553 0.341698 0.109834 0.11455
H_ H_ 0.862202 0.491508 0.189131 0.11455
H_ H_ 0.919226 0.0749528 0.104557 0.11455
H_ H_ 0.876268 0.487119 0.0995531 0.11455
H_ H_ 0.823701 0.0822923 0.208456 0.11455
H_ H_ 0.835062 0.173623 0.204734 0.11455
H_ H_ 0.912427 0.158358 0.123187 0.11455
H_ H_ 0.932899 0.399192 0.211601 0.11455
H_ H_ 0.963558 0.411814 0.26332 0.11455
H_ H_ 0.913111 0.384688 0.305096 0.11455
H_ H_ 0.803043 0.283741 0.221148 0.11455
H_ H_ 0.759687 0.235968 0.258556 0.11455
H_ H_ 0.77584 0.25486 0.308167 0.11455
H_ H_ 0.983677 0.283045 0.369902 0.11455
H_ H_ 0.00125413 0.28367 0.419652 0.11455
H_ H_ 0.745445 0.362944 0.390528 0.11455
H_ H_ 0.754506 0.349649 0.439811 0.11455
H_ H_ 0.948876 0.391033 0.49773 0.11455
H_ H_ 0.985175 0.420764 0.0474063 0.11455
H_ H_ 0.93752 0.383541 0.0898459 0.11455
H_ H_ 0.859245 0.241756 0.0115997 0.11455
H_ H_ 0.817681 0.203671 0.0525439 0.11455
H_ H_ 0.826053 0.244908 0.101417 0.11455
C_ C_ 0.721185 0.175138 0.406857 0.68181
C_ C_ 0.779531 0.171752 0.402007 -0.05681
C_ C_ 0.813101 0.167747 0.425047 -0.08735
C_ C_ 0.865566 0.174372 0.419286 -0.05681
C_ C_ 0.884378 0.178781 0.390913 -0.05681
C_ C_ 0.850505 0.173126 0.368278 -0.08735
C_ C_ 0.798454 0.171051 0.37351 -0.08735
C_ C_ 0.899487 0.174972 0.441376 -0.08735
C_ C_ 0.950425 0.178243 0.436942 -0.08735
C_ C_ 0.9714 0.17659 0.40844 -0.05681
C_ C_ 0.936302 0.174976 0.385374 -0.08735
C_ C_ 0.618485 0.281984 0.414222 0.68181
C_ C_ 0.627687 0.0802701 0.401819 0.68181
C_ C_ 0.631142 0.0252387 0.39975 -0.05681
C_ C_ 0.639425 0.496472 0.416323 -0.08735
C_ C_ 0.632045 0.44397 0.415096 -0.05681
C_ C_ 0.608407 0.421411 0.391902 -0.05681
C_ C_ 0.592215 0.453059 0.368713 -0.08735
C_ C_ 0.598494 0.505244 0.370112 -0.08735
C_ C_ 0.649855 0.41405 0.436897 -0.08735
C_ C_ 0.643937 0.362396 0.438145 -0.08735
C_ C_ 0.620569 0.337498 0.414595 -0.05681
C_ C_ 0.602957 0.365809 0.391251 -0.08735
C_ C_ 0.523608 0.182271 0.411148 0.68181
C_ C_ 0.594822 0.122602 0.486599 0.1947
C_ C_ 0.611227 0.109152 0.0133721 -0.08735
C_ C_ 0.623765 0.140132 0.0363603 -0.08735
C_ C_ 0.653299 0.183192 0.0321935 -0.05681
C_ C_ 0.667725 0.193847 1.00262154 0.18498
C_ C_ 0.685982 0.226221 0.497176 -0.08735
C_ C_ 0.71567 0.265859 0.0201292 -0.08735
C_ C_ 0.696817 0.259807 0.047378 -0.08735
C_ C_ 0.671498 0.214643 0.054465 0.18498
C_ C_ 0.69712 0.192868 0.103007 0.44287
C_ C_ 0.611336 0.213309 0.0948444 0.44287
C_ C_ 0.601804 0.208862 0.124111 -0.05681
C_ C_ 0.553939 0.218862 0.134901 -0.08735
C_ C_ 0.544639 0.217402 0.164662 -0.08735
C_ C_ 0.583893 0.198439 0.183729 -0.05681
C_ C_ 0.63252 0.190144 0.17282 -0.05681
C_ C_ 0.640919 0.198499 0.143089 -0.05681
C_ C_ 0.691611 0.193757 0.131767 -0.05681
C_ C_ 0.731114 0.180082 0.149903 -0.08735
C_ C_ 0.721083 0.173256 0.179714 -0.08735
C_ C_ 0.672002 0.177424 0.190823 -0.05681
C_ C_ 0.660528 0.16859 0.219434 0.44287
C_ C_ 0.575961 0.188492 0.212343 0.44287
C_ C_ 0.600325 0.157229 0.259221 0.18498
C_ C_ 0.566899 0.11759 0.2645 -0.08735
C_ C_ 0.548171 0.105441 0.291884 -0.08735
C_ C_ 0.565673 0.131573 0.31555 -0.08735
C_ C_ 0.604009 0.16979 0.313163 0.18498
C_ C_ 0.617305 0.185268 0.284366 -0.05681
C_ C_ 0.64303 0.232269 0.281633 -0.08735
C_ C_ 0.669003 0.25397 0.305215 -0.08735
C_ C_ 0.658859 0.233412 0.332365 0.1947
C_ C_ 0.776813 0.324324 0.154326 0.68181
C_ C_ 0.71957 0.328565 0.148897 -0.05681
C_ C_ 0.684664 0.331033 0.17093 -0.08735
C_ C_ 0.633599 0.340072 0.165145 -0.05681
C_ C_ 0.614254 0.344106 0.136787 -0.05681
C_ C_ 0.64935 0.337656 0.114129 -0.08735
C_ C_ 0.702404 0.333969 0.12026 -0.08735
C_ C_ 0.599509 0.344939 0.188043 -0.08735
C_ C_ 0.547882 0.346506 0.18316 -0.08735
C_ C_ 0.527534 0.339416 0.154935 -0.05681
C_ C_ 0.561641 0.339777 0.131278 -0.08735
C_ C_ 0.878648 0.229797 0.163615 0.68181
C_ C_ 0.870276 0.426635 0.145018 0.68181
C_ C_ 0.873265 0.483053 0.144059 -0.05681
C_ C_ 0.854748 0.0125425 0.169051 -0.08735
C_ C_ 0.865118 0.06511 0.168824 -0.05681
C_ C_ 0.886221 0.0874299 0.143759 -0.05681
C_ C_ 0.903421 0.0568 0.12227 -0.08735
C_ C_ 0.874378 0.507841 0.117918 -0.08735
C_ C_ 0.849294 0.0976793 0.191132 -0.08735
C_ C_ 0.852411 0.150242 0.188046 -0.08735
C_ C_ 0.873074 0.173547 0.164295 -0.05681
C_ C_ 0.893017 0.141524 0.141578 -0.08735
C_ C_ 0.975084 0.334577 0.160152 0.68181
C_ C_ 0.913311 0.384284 0.230048 0.1947
C_ C_ 0.925202 0.398461 0.258897 -0.08735
C_ C_ 0.899318 0.376411 0.282559 -0.08735
C_ C_ 0.860541 0.340426 0.276877 -0.05681
C_ C_ 0.849675 0.327504 0.248609 0.18498
C_ C_ 0.810756 0.294227 0.242616 -0.08735
C_ C_ 0.78666 0.266375 0.26401 -0.08735
C_ C_ 0.798622 0.278322 0.29284 -0.08735
C_ C_ 0.835766 0.312973 0.300361 0.18498
C_ C_ 0.812816 0.334837 0.349724 0.44287
C_ C_ 0.898247 0.307484 0.340437 0.44287
C_ C_ 0.905572 0.305995 0.370852 -0.05681
C_ C_ 0.954119 0.29511 0.382269 -0.08735
C_ C_ 0.963355 0.298024 0.411915 -0.08735
C_ C_ 0.924422 0.307535 0.432163 -0.05681
C_ C_ 0.875689 0.316493 0.419804 -0.05681
C_ C_ 0.86651 0.315125 0.389963 -0.05681
C_ C_ 0.819425 0.331516 0.379178 -0.05681
C_ C_ 0.782686 0.348111 0.398618 -0.08735
C_ C_ 0.788748 0.344675 0.426679 -0.08735
C_ C_ 0.835568 0.328773 0.437696 -0.05681
C_ C_ 0.844339 0.331735 0.467346 0.44287
C_ C_ 0.929556 0.31042 0.462022 0.44287
C_ C_ 0.915491 0.331512 0.0115362 0.18498
C_ C_ 0.951956 0.369709 0.016811 -0.08735
C_ C_ 0.957358 0.389986 0.0442763 -0.08735
C_ C_ 0.931434 0.36831 0.0678522 -0.08735
C_ C_ 0.899484 0.325986 0.0633378 0.18498
C_ C_ 0.892283 0.305558 0.0349731 -0.05681
C_ C_ 0.863139 0.262298 0.0318517 -0.08735
C_ C_ 0.839681 0.239473 0.0543326 -0.08735
C_ C_ 0.846913 0.260557 0.0823071 0.1947
N_ N_ 0.626391 0.163137 0.481118 -0.29468
N_ N_ 0.659085 0.204344 0.0844841 -0.17154
N_ N_ 0.61238 0.17343 0.230238 -0.17154
N_ N_ 0.627588 0.192849 0.335076 -0.29468
N_ N_ 0.87411 0.351751 0.226454 -0.29468
N_ N_ 0.849181 0.318947 0.33044 -0.17154
N_ N_ 0.889015 0.317535 0.479832 -0.17154
N_ N_ 0.876696 0.302445 0.086661 -0.29468
O_ O_ 0.704948 0.188897 0.431718 -0.58347
O_ O_ 0.693618 0.18462 0.385027 -0.58347
O_ O_ 0.625638 0.257003 0.436508 -0.58347
O_ O_ 0.615246 0.259568 0.390574 -0.58347
O_ O_ 0.635833 0.10217 0.426153 -0.58347
O_ O_ 0.617302 0.10598 0.379816 -0.58347
O_ O_ 0.553093 0.17388 0.432543 -0.58347
O_ O_ 0.54108 0.186683 0.385888 -0.58347
O_ O_ 0.576952 0.232469 0.0779609 -0.46727
O_ O_ 0.743906 0.182816 0.0915567 -0.46727
O_ O_ 0.530061 0.193419 0.221035 -0.46727
O_ O_ 0.697313 0.148047 0.23477 -0.46727
O_ O_ 0.793652 0.338389 0.177651 -0.58347
O_ O_ 0.808439 0.311882 0.133753 -0.58347
O_ O_ 0.864735 0.256337 0.184246 -0.58347
O_ O_ 0.894905 0.250844 0.141231 -0.58347
O_ O_ 0.878146 0.404472 0.168693 -0.58347
O_ O_ 0.864393 0.40211 0.122965 -0.58347
O_ O_ 0.945358 0.325137 0.180468 -0.58347
O_ O_ 0.959296 0.338795 0.135546 -0.58347
O_ O_ 0.933753 0.296811 0.32203 -0.46727
O_ O_ 0.772207 0.355973 0.339256 -0.46727
O_ O_ 0.975208 0.314409 0.472625 -0.46727
O_ O_ 0.807352 0.347753 0.484618 -0.46727
Zn Zn 0.628672 0.178703 0.885377 0.90689
Zn Zn 0.643222 0.176084 0.93255 0.90689
Zn Zn 0.869748 0.309727 0.632663 0.90689
Zn Zn 0.864702 0.315568 0.682285 0.90689
H_ H_ 0.817836 0.183139 0.944903 0.11455
H_ H_ 0.87719 0.16398 0.844364 0.11455
H_ H_ 0.780053 0.16163 0.855167 0.11455
H_ H_ 0.902941 0.17948 0.96089 0.11455
H_ H_ 0.987842 0.187823 0.95322 0.11455
H_ H_ 0.962453 0.169027 0.864114 0.11455
H_ H_ 0.645735 0.00911295 0.944446 0.11455
H_ H_ 0.649856 0.43379 0.847079 0.11455
H_ H_ 0.628489 0.0180281 0.855512 0.11455
H_ H_ 0.636722 0.426104 0.966265 0.11455
H_ H_ 0.612449 0.334364 0.960154 0.11455
H_ H_ 0.639055 0.34709 0.869157 0.11455
H_ H_ 0.602981 0.10196 0.968277 0.11455
H_ H_ 0.550442 0.0816129 0.519541 0.11455
H_ H_ 0.585977 0.128373 0.558572 0.11455
H_ H_ 0.710471 0.245268 0.975773 0.11455
H_ H_ 0.72997 0.286897 0.513458 0.11455
H_ H_ 0.708503 0.267053 0.564522 0.11455
H_ H_ 0.512655 0.20878 0.626231 0.11455
H_ H_ 0.501002 0.208372 0.677052 0.11455
H_ H_ 0.761716 0.151569 0.642903 0.11455
H_ H_ 0.749975 0.140719 0.694316 0.11455
H_ H_ 0.566638 0.0846729 0.752203 0.11455
H_ H_ 0.539692 0.067375 0.805154 0.11455
H_ H_ 0.575973 0.12025 0.843968 0.11455
H_ H_ 0.655691 0.248357 0.760372 0.11455
H_ H_ 0.697615 0.288012 0.79832 0.11455
H_ H_ 0.688944 0.258282 0.848803 0.11455
H_ H_ 0.697884 0.329428 0.698355 0.11455
H_ H_ 0.631462 0.320314 0.60034 0.11455
H_ H_ 0.717635 0.310238 0.607799 0.11455
H_ H_ 0.612648 0.350132 0.716859 0.11455
H_ H_ 0.524593 0.329812 0.712897 0.11455
H_ H_ 0.535422 0.319381 0.620989 0.11455
H_ H_ 0.876947 0.482831 0.69527 0.11455
H_ H_ 0.910322 0.0582916 0.603251 0.11455
H_ H_ 0.868882 0.469573 0.603004 0.11455
H_ H_ 0.818744 0.0683807 0.709329 0.11455
H_ H_ 0.835535 0.159632 0.707286 0.11455
H_ H_ 0.914143 0.140936 0.626511 0.11455
H_ H_ 0.928192 0.376339 0.718388 0.11455
H_ H_ 0.93758 0.406584 0.769421 0.11455
H_ H_ 0.887298 0.375162 0.807495 0.11455
H_ H_ 0.806834 0.246795 0.725664 0.11455
H_ H_ 0.768902 0.200341 0.767219 0.11455
H_ H_ 0.791575 0.218457 0.816096 0.11455
H_ H_ 0.994583 0.280129 0.87004 0.11455
H_ H_ 0.00987356 0.287495 0.92195 0.11455
H_ H_ 0.7508 0.327932 0.895843 0.11455
H_ H_ 0.761551 0.328443 0.947324 0.11455
H_ H_ 0.969038 0.391565 0.99869485 0.11455
H_ H_ 0.964443 0.420723 0.549094 0.11455
H_ H_ 0.923463 0.376611 0.589885 0.11455
H_ H_ 0.849197 0.235022 0.510197 0.11455
H_ H_ 0.807847 0.20099 0.551696 0.11455
H_ H_ 0.822974 0.234482 0.59759 0.11455
C_ C_ 0.733986 0.180733 0.90564 0.68181
C_ C_ 0.791827 0.172044 0.90015 -0.05681
C_ C_ 0.828401 0.169323 0.922864 -0.08735
C_ C_ 0.879313 0.163176 0.917527 -0.05681
C_ C_ 0.896074 0.157428 0.889479 -0.05681
C_ C_ 0.862262 0.167052 0.866202 -0.08735
C_ C_ 0.809516 0.165715 0.872263 -0.08735
C_ C_ 0.914415 0.169885 0.939652 -0.08735
C_ C_ 0.965975 0.178651 0.934665 -0.08735
C_ C_ 0.9833 0.178251 0.907548 -0.05681
C_ C_ 0.950438 0.165286 0.885545 -0.08735
C_ C_ 0.630169 0.276894 0.916253 0.68181
C_ C_ 0.645907 0.0794082 0.902679 0.68181
C_ C_ 0.641902 0.0222736 0.900765 -0.05681
C_ C_ 0.644282 0.494335 0.923747 -0.08735
C_ C_ 0.64034 0.441391 0.921256 -0.05681
C_ C_ 0.639325 0.418816 0.893178 -0.05681
C_ C_ 0.646985 0.448773 0.868501 -0.08735
C_ C_ 0.655352 0.501996 0.872163 -0.08735
C_ C_ 0.635626 0.408897 0.944732 -0.08735
C_ C_ 0.623758 0.357964 0.941266 -0.08735
C_ C_ 0.62794 0.333856 0.915785 -0.05681
C_ C_ 0.634257 0.364922 0.890838 -0.08735
C_ C_ 0.536089 0.169903 0.912782 0.68181
C_ C_ 0.620185 0.123649 0.985302 0.1947
C_ C_ 0.578764 0.114201 0.514618 -0.08735
C_ C_ 0.60032 0.138361 0.537931 -0.08735
C_ C_ 0.637252 0.177515 0.532632 -0.05681
C_ C_ 0.648604 0.188487 0.502978 0.18498
C_ C_ 0.697304 0.237442 0.997475 -0.08735
C_ C_ 0.705869 0.255954 0.519502 -0.08735
C_ C_ 0.694571 0.243529 0.548679 -0.08735
C_ C_ 0.65962 0.203799 0.555086 0.18498
C_ C_ 0.690656 0.177493 0.602427 0.44287
C_ C_ 0.603381 0.202507 0.596681 0.44287
C_ C_ 0.59299 0.189687 0.625266 -0.05681
C_ C_ 0.544093 0.197682 0.638322 -0.08735
C_ C_ 0.538053 0.196567 0.667747 -0.08735
C_ C_ 0.580413 0.185671 0.686636 -0.05681
C_ C_ 0.627446 0.170287 0.673975 -0.05681
C_ C_ 0.633877 0.178178 0.644346 -0.05681
C_ C_ 0.682584 0.169742 0.632152 -0.05681
C_ C_ 0.724702 0.160438 0.65209 -0.08735
C_ C_ 0.71646 0.150688 0.680509 -0.08735
C_ C_ 0.667685 0.158247 0.692727 -0.05681
C_ C_ 0.658518 0.156938 0.723018 0.44287
C_ C_ 0.572508 0.179943 0.716559 0.44287
C_ C_ 0.605052 0.154196 0.764748 0.18498
C_ C_ 0.580533 0.107974 0.770038 -0.08735
C_ C_ 0.566726 0.0972636 0.799226 -0.08735
C_ C_ 0.583666 0.130927 0.821522 -0.08735
C_ C_ 0.613973 0.172688 0.816005 0.18498
C_ C_ 0.621922 0.187102 0.787148 -0.05681
C_ C_ 0.651679 0.229714 0.781148 -0.08735
C_ C_ 0.675345 0.254354 0.802974 -0.08735
C_ C_ 0.667125 0.240294 0.831619 0.1947
C_ C_ 0.771092 0.316111 0.656742 0.68181
C_ C_ 0.715375 0.318579 0.653882 -0.05681
C_ C_ 0.68328 0.328138 0.67769 -0.08735
C_ C_ 0.630065 0.328895 0.672833 -0.05681
C_ C_ 0.60836 0.321385 0.645305 -0.05681
C_ C_ 0.641691 0.319793 0.622028 -0.08735
C_ C_ 0.693154 0.314189 0.627008 -0.08735
C_ C_ 0.596519 0.340087 0.695657 -0.08735
C_ C_ 0.545575 0.335652 0.692648 -0.08735
C_ C_ 0.524222 0.323838 0.665644 -0.05681
C_ C_ 0.554493 0.322055 0.641462 -0.08735
C_ C_ 0.874056 0.213179 0.663207 0.68181
C_ C_ 0.871498 0.412688 0.652232 0.68181
C_ C_ 0.869672 0.469425 0.649927 -0.05681
C_ C_ 0.840596 -0.00214488 0.670272 -0.08735
C_ C_ 0.853516 0.0514335 0.669747 -0.05681
C_ C_ 0.880439 0.0722169 0.646063 -0.05681
C_ C_ 0.888063 0.0432583 0.621498 -0.08735
C_ C_ 0.873418 0.493533 0.622102 -0.08735
C_ C_ 0.838047 0.0830691 0.69077 -0.08735
C_ C_ 0.851946 0.135197 0.691172 -0.08735
C_ C_ 0.873223 0.156961 0.66666 -0.05681
C_ C_ 0.888624 0.125032 0.643844 -0.08735
C_ C_ 0.967681 0.314188 0.659961 0.68181
C_ C_ 0.907578 0.360024 0.735952 0.1947
C_ C_ 0.913223 0.375971 0.763802 -0.08735
C_ C_ 0.886595 0.35524 0.785864 -0.08735
C_ C_ 0.859722 0.309883 0.781131 -0.05681
C_ C_ 0.853704 0.292739 0.752097 0.18498
C_ C_ 0.822123 0.251906 0.747064 -0.08735
C_ C_ 0.800876 0.225408 0.771216 -0.08735
C_ C_ 0.813889 0.237292 0.798797 -0.08735
C_ C_ 0.845135 0.277724 0.804545 0.18498
C_ C_ 0.817622 0.308824 0.852186 0.44287
C_ C_ 0.903757 0.28808 0.844068 0.44287
C_ C_ 0.913846 0.297227 0.872799 -0.05681
C_ C_ 0.963532 0.291733 0.884412 -0.08735
C_ C_ 0.971677 0.289326 0.914718 -0.08735
C_ C_ 0.933455 0.300774 0.933406 -0.05681
C_ C_ 0.884897 0.307416 0.923466 -0.05681
C_ C_ 0.873231 0.304251 0.892137 -0.05681
C_ C_ 0.824221 0.308476 0.88291 -0.05681
C_ C_ 0.786381 0.317739 0.903497 -0.08735
C_ C_ 0.79527 0.318781 0.933739 -0.08735
C_ C_ 0.845648 0.316372 0.943395 -0.05681
C_ C_ 0.856861 0.323937 0.972876 0.44287
C_ C_ 0.942932 0.301027 0.963594 0.44287
C_ C_ 0.89789 0.331807 0.509492 0.18498
C_ C_ 0.928253 0.374803 0.516026 -0.08735
C_ C_ 0.939997 0.38905 0.544532 -0.08735
C_ C_ 0.916421 0.364526 0.567157 -0.08735
C_ C_ 0.886799 0.322122 0.562377 0.18498
C_ C_ 0.880061 0.302884 0.533452 -0.05681
C_ C_ 0.857351 0.253402 0.530829 -0.08735
C_ C_ 0.83666 0.231431 0.554628 -0.08735
C_ C_ 0.841165 0.252957 0.581147 0.1947
N_ N_ 0.648417 0.16569 0.979833 -0.29468
N_ N_ 0.650814 0.191993 0.584519 -0.17154
N_ N_ 0.611445 0.165356 0.734582 -0.17154
N_ N_ 0.63365 0.202725 0.83785 -0.29468
N_ N_ 0.875184 0.320029 0.730076 -0.29468
N_ N_ 0.853896 0.290192 0.834814 -0.17154
N_ N_ 0.905022 0.316373 0.982326 -0.17154
N_ N_ 0.867917 0.29643 0.58545 -0.29468
O_ O_ 0.715802 0.187715 0.930497 -0.58347
O_ O_ 0.704411 0.184345 0.884198 -0.58347
O_ O_ 0.635747 0.249882 0.938727 -0.58347
O_ O_ 0.622533 0.2547 0.892318 -0.58347
O_ O_ 0.654577 0.101476 0.926101 -0.58347
O_ O_ 0.636913 0.104143 0.879774 -0.58347
O_ O_ 0.565154 0.16191 0.934015 -0.58347
O_ O_ 0.554942 0.171042 0.887886 -0.58347
O_ O_ 0.568583 0.224472 0.581116 -0.46727
O_ O_ 0.737284 0.178001 0.592256 -0.46727
O_ O_ 0.526538 0.189395 0.727588 -0.46727
O_ O_ 0.69882 0.147059 0.738566 -0.46727
O_ O_ 0.790878 0.323782 0.680955 -0.58347
O_ O_ 0.796198 0.300422 0.635819 -0.58347
O_ O_ 0.865117 0.241932 0.684462 -0.58347
O_ O_ 0.880499 0.232702 0.638932 -0.58347
O_ O_ 0.86963 0.393105 0.677226 -0.58347
O_ O_ 0.860557 0.385741 0.629741 -0.58347
O_ O_ 0.940033 0.312356 0.681536 -0.58347
O_ O_ 0.946077 0.315358 0.635385 -0.58347
O_ O_ 0.938334 0.267191 0.826767 -0.46727
O_ O_ 0.771949 0.31329 0.842527 -0.46727
O_ O_ 0.98976 0.291984 0.973577 -0.46727
O_ O_ 0.818704 0.335012 0.990891 -0.46727
Zn Zn 0.61611 0.683061 0.3828 0.90689
Zn Zn 0.626778 0.681831 0.430805 0.90689
Zn Zn 0.870194 0.823213 0.133135 0.90689
Zn Zn 0.86044 0.830049 0.181048 0.90689
H_ H_ 0.795038 0.692787 0.440392 0.11455
H_ H_ 0.858064 0.676783 0.34268 0.11455
H_ H_ 0.766768 0.674386 0.354729 0.11455
H_ H_ 0.883223 0.692005 0.458871 0.11455
H_ H_ 0.976061 0.687252 0.449922 0.11455
H_ H_ 0.945283 0.679864 0.360519 0.11455
H_ H_ 0.663632 0.513041 0.4328 0.11455
H_ H_ 0.667242 0.929095 0.35342 0.11455
H_ H_ 0.582396 0.529321 0.353834 0.11455
H_ H_ 0.614769 0.925044 0.468472 0.11455
H_ H_ 0.600372 0.837254 0.462207 0.11455
H_ H_ 0.638824 0.846489 0.371433 0.11455
H_ H_ 0.563549 0.616599 0.465261 0.11455
H_ H_ 0.576457 0.57029 0.0136191 0.11455
H_ H_ 0.607913 0.618242 0.0548 0.11455
H_ H_ 0.688477 0.742915 0.476217 0.11455
H_ H_ 0.722369 0.800453 0.0141346 0.11455
H_ H_ 0.690737 0.782469 0.0650565 0.11455
H_ H_ 0.508747 0.71867 0.121799 0.11455
H_ H_ 0.492865 0.711168 0.174133 0.11455
H_ H_ 0.753469 0.666582 0.141802 0.11455
H_ H_ 0.739682 0.656713 0.193431 0.11455
H_ H_ 0.55323 0.588661 0.250211 0.11455
H_ H_ 0.531568 0.568925 0.301738 0.11455
H_ H_ 0.566328 0.619864 0.340255 0.11455
H_ H_ 0.656042 0.743591 0.257835 0.11455
H_ H_ 0.67551 0.796853 0.296882 0.11455
H_ H_ 0.6583 0.769798 0.347368 0.11455
H_ H_ 0.692577 0.810045 0.19215 0.11455
H_ H_ 0.624139 0.838561 0.0917579 0.11455
H_ H_ 0.713509 0.840056 0.102909 0.11455
H_ H_ 0.606791 0.7984 0.209117 0.11455
H_ H_ 0.51811 0.797148 0.201534 0.11455
H_ H_ 0.537121 0.842762 0.114915 0.11455
H_ H_ 0.840954 0.99372156 0.189013 0.11455
H_ H_ 0.878968 0.579755 0.0981426 0.11455
H_ H_ 0.906566 0.980569 0.104337 0.11455
H_ H_ 0.871342 0.576529 0.214272 0.11455
H_ H_ 0.870842 0.666565 0.2117 0.11455
H_ H_ 0.884012 0.661423 0.121706 0.11455
H_ H_ 0.90152 0.90766 0.217086 0.11455
H_ H_ 0.9113 0.938825 0.267791 0.11455
H_ H_ 0.86814 0.899084 0.30547 0.11455
H_ H_ 0.805133 0.755211 0.223905 0.11455
H_ H_ 0.770765 0.70428 0.262828 0.11455
H_ H_ 0.787493 0.734935 0.312741 0.11455
H_ H_ 0.973301 0.811257 0.369603 0.11455
H_ H_ -0.009382000000000001 0.817107 0.420111 0.11455
H_ H_ 0.725212 0.835587 0.395681 0.11455
H_ H_ 0.74112 0.843324 0.443337 0.11455
H_ H_ 0.930624 0.909891 0.500269 0.11455
H_ H_ 0.982599 0.924518 0.0505821 0.11455
H_ H_ 0.948112 0.867926 0.0882915 0.11455
H_ H_ 0.851482 0.756902 0.0102032 0.11455
H_ H_ 0.820095 0.705274 0.0519987 0.11455
H_ H_ 0.822869 0.74808 0.0994272 0.11455
C_ C_ 0.720753 0.688564 0.404644 0.68181
C_ C_ 0.775914 0.68894 0.398355 -0.05681
C_ C_ 0.81048 0.688501 0.420222 -0.08735
C_ C_ 0.862699 0.68826 0.414902 -0.05681
C_ C_ 0.88 0.686513 0.386814 -0.05681
C_ C_ 0.84415 0.678102 0.364891 -0.08735
C_ C_ 0.793291 0.682793 0.370888 -0.08735
C_ C_ 0.8979 0.695491 0.437515 -0.08735
C_ C_ 0.949893 0.691595 0.431677 -0.08735
C_ C_ 0.968151 0.691767 0.404187 -0.05681
C_ C_ 0.933058 0.685968 0.38113 -0.08735
C_ C_ 0.615911 0.777655 0.412804 0.68181
C_ C_ 0.62083 0.584784 0.397454 0.68181
C_ C_ 0.619262 0.529063 0.394497 -0.05681
C_ C_ 0.620316 0.995411 0.423702 -0.08735
C_ C_ 0.620173 0.942633 0.420838 -0.05681
C_ C_ 0.631645 0.917848 0.394915 -0.05681
C_ C_ 0.651556 0.949325 0.372068 -0.08735
C_ C_ 0.650808 1.00186295 0.375315 -0.08735
C_ C_ 0.61323 0.912039 0.445932 -0.08735
C_ C_ 0.602768 0.861058 0.442037 -0.08735
C_ C_ 0.613677 0.834359 0.415463 -0.05681
C_ C_ 0.62487 0.864201 0.391236 -0.08735
C_ C_ 0.522929 0.676658 0.407838 0.68181
C_ C_ 0.583151 0.633519 0.483557 0.1947
C_ C_ 0.600718 0.603778 0.00911023 -0.08735
C_ C_ 0.613668 0.634429 0.0324485 -0.08735
C_ C_ 0.640725 0.678724 0.0286272 -0.05681
C_ C_ 0.652509 0.692589 0.99960118 0.18498
C_ C_ 0.679197 0.729469 0.498939 -0.08735
C_ C_ 0.70061 0.764574 0.0193245 -0.08735
C_ C_ 0.682576 0.754875 0.04713 -0.08735
C_ C_ 0.653081 0.711776 0.0541695 0.18498
C_ C_ 0.681916 0.692372 0.100911 0.44287
C_ C_ 0.597146 0.708938 0.0946275 0.44287
C_ C_ 0.587728 0.706485 0.124535 -0.05681
C_ C_ 0.539687 0.706202 0.135482 -0.08735
C_ C_ 0.530448 0.701946 0.165318 -0.08735
C_ C_ 0.570933 0.695439 0.184364 -0.05681
C_ C_ 0.620266 0.690536 0.173842 -0.05681
C_ C_ 0.628573 0.69308 0.143184 -0.05681
C_ C_ 0.675799 0.688688 0.131322 -0.05681
C_ C_ 0.716699 0.674639 0.14983 -0.08735
C_ C_ 0.708794 0.671103 0.179898 -0.08735
C_ C_ 0.660311 0.677876 0.191996 -0.05681
C_ C_ 0.649961 0.661076 0.219859 0.44287
C_ C_ 0.563169 0.685814 0.214057 0.44287
C_ C_ 0.594132 0.657626 0.261521 0.18498
C_ C_ 0.565965 0.614773 0.267115 -0.08735
C_ C_ 0.553926 0.602113 0.29609 -0.08735
C_ C_ 0.575575 0.628654 0.318341 -0.08735
C_ C_ 0.604588 0.672497 0.312854 0.18498
C_ C_ 0.613691 0.687281 0.284075 -0.05681
C_ C_ 0.639815 0.733274 0.278043 -0.08735
C_ C_ 0.652544 0.764845 0.301605 -0.08735
C_ C_ 0.648054 0.747277 0.329774 0.1947
C_ C_ 0.765263 0.822763 0.152014 0.68181
C_ C_ 0.708825 0.823417 0.148604 -0.05681
C_ C_ 0.676329 0.812409 0.170308 -0.08735
C_ C_ 0.625595 0.818098 0.166171 -0.05681
C_ C_ 0.605403 0.82856 0.138768 -0.05681
C_ C_ 0.63698 0.835604 0.114612 -0.08735
C_ C_ 0.688877 0.831327 0.119595 -0.08735
C_ C_ 0.592783 0.811017 0.189103 -0.08735
C_ C_ 0.540469 0.812916 0.18465 -0.08735
C_ C_ 0.520645 0.825228 0.15752 -0.05681
C_ C_ 0.55226 0.832081 0.135307 -0.08735
C_ C_ 0.873025 0.728681 0.166102 0.68181
C_ C_ 0.865554 0.924854 0.15008 0.68181
C_ C_ 0.868366 0.980539 0.146099 -0.05681
C_ C_ 0.871148 0.511289 0.168842 -0.08735
C_ C_ 0.868532 0.564914 0.167552 -0.05681
C_ C_ 0.87434 0.589119 0.141416 -0.05681
C_ C_ 0.879164 0.560691 0.117339 -0.08735
C_ C_ 0.893144 1.00446182 0.12195 -0.08735
C_ C_ 0.869318 0.593226 0.192957 -0.08735
C_ C_ 0.866603 0.646422 0.192006 -0.08735
C_ C_ 0.870694 0.670855 0.165896 -0.05681
C_ C_ 0.87626 0.641833 0.140871 -0.08735
C_ C_ 0.96255 0.825697 0.161274 0.68181
C_ C_ 0.886622 0.885064 0.233889 0.1947
C_ C_ 0.888646 0.904682 0.261826 -0.08735
C_ C_ 0.863342 0.882342 0.284553 -0.08735
C_ C_ 0.840946 0.835561 0.278743 -0.05681
C_ C_ 0.834032 0.817391 0.250019 0.18498
C_ C_ 0.812398 0.769138 0.245352 -0.08735
C_ C_ 0.794361 0.739989 0.268099 -0.08735
C_ C_ 0.802105 0.758736 0.295924 -0.08735
C_ C_ 0.8255 0.804874 0.302442 0.18498
C_ C_ 0.796925 0.823364 0.351916 0.44287
C_ C_ 0.884072 0.813222 0.342838 0.44287
C_ C_ 0.89366 0.817408 0.372622 -0.05681
C_ C_ 0.9429 0.819187 0.382664 -0.08735
C_ C_ 0.953028 0.821989 0.412506 -0.08735
C_ C_ 0.913211 0.820363 0.431449 -0.05681
C_ C_ 0.863169 0.826756 0.421981 -0.05681
C_ C_ 0.853789 0.823155 0.391737 -0.05681
C_ C_ 0.804002 0.827568 0.38186 -0.05681
C_ C_ 0.764752 0.836685 0.402245 -0.08735
C_ C_ 0.774913 0.839029 0.430846 -0.08735
C_ C_ 0.822341 0.829627 0.44235 -0.05681
C_ C_ 0.834877 0.832414 0.470853 0.44287
C_ C_ 0.922691 0.819574 0.461107 0.44287
C_ C_ 0.905023 0.844532 0.00978807 0.18498
C_ C_ 0.941898 0.88256 0.0167973 -0.08735
C_ C_ 0.952304 0.894927 0.0451631 -0.08735
C_ C_ 0.931755 0.86724 0.0679387 -0.08735
C_ C_ 0.894311 0.831411 0.0628465 0.18498
C_ C_ 0.882897 0.817695 0.0340012 -0.05681
C_ C_ 0.855616 0.773818 0.03095 -0.08735
C_ C_ 0.83753 0.744646 0.0540815 -0.08735
C_ C_ 0.843114 0.764601 0.0813464 0.1947
N_ N_ 0.619878 0.668694 0.47995 -0.29468
N_ N_ 0.642573 0.69859 0.083518 -0.17154
N_ N_ 0.602689 0.669386 0.23161 -0.17154
N_ N_ 0.622853 0.701767 0.335508 -0.29468
N_ N_ 0.85594 0.844385 0.228251 -0.29468
N_ N_ 0.835831 0.816052 0.332276 -0.17154
N_ N_ 0.884616 0.824662 0.480238 -0.17154
N_ N_ 0.870891 0.807214 0.0858722 -0.29468
O_ O_ 0.704581 0.675457 0.428946 -0.58347
O_ O_ 0.692277 0.700828 0.384921 -0.58347
O_ O_ 0.629313 0.751775 0.43515 -0.58347
O_ O_ 0.602919 0.754875 0.390207 -0.58347
O_ O_ 0.616547 0.60602 0.421358 -0.58347
O_ O_ 0.630128 0.613588 0.376271 -0.58347
O_ O_ 0.550678 0.686872 0.429734 -0.58347
O_ O_ 0.540071 0.673377 0.382434 -0.58347
O_ O_ 0.559274 0.719494 0.0775522 -0.46727
O_ O_ 0.728133 0.689488 0.0881858 -0.46727
O_ O_ 0.517855 0.693984 0.226468 -0.46727
O_ O_ 0.684998 0.63994 0.235025 -0.46727
O_ O_ 0.783623 0.81652 0.17704 -0.58347
O_ O_ 0.794768 0.823443 0.130145 -0.58347
O_ O_ 0.866244 0.754639 0.187732 -0.58347
O_ O_ 0.873403 0.751195 0.142104 -0.58347
O_ O_ 0.851047 0.905336 0.174212 -0.58347
O_ O_ 0.871192 0.896786 0.128157 -0.58347
O_ O_ 0.933225 0.841042 0.180158 -0.58347
O_ O_ 0.943181 0.81944 0.136008 -0.58347
O_ O_ 0.924489 0.813523 0.325927 -0.46727
O_ O_ 0.751302 0.833507 0.341507 -0.46727
O_ O_ 0.969367 0.818816 0.470797 -0.46727
O_ O_ 0.798099 0.842798 0.490356 -0.46727
Zn Zn 0.630521 0.680625 0.883017 0.90689
Zn Zn 0.642322 0.674226 0.931071 0.90689
Zn Zn 0.870424 0.81101 0.631944 0.90689
Zn Zn 0.860612 0.815737 0.679047 0.90689
H_ H_ 0.804741 0.705109 0.939714 0.11455
H_ H_ 0.880716 0.657034 0.848203 0.11455
H_ H_ 0.787749 0.65614 0.854269 0.11455
H_ H_ 0.8935 0.69596 0.963619 0.11455
H_ H_ 0.984988 0.688521 0.955705 0.11455
H_ H_ 0.961812 0.672605 0.865603 0.11455
H_ H_ 0.632923 0.513143 0.944503 0.11455
H_ H_ 0.646212 0.925881 0.851425 0.11455
H_ H_ 0.671459 0.524618 0.853778 0.11455
H_ H_ 0.635511 0.926462 0.96728 0.11455
H_ H_ 0.642744 0.832532 0.962577 0.11455
H_ H_ 0.634958 0.841975 0.871036 0.11455
H_ H_ 0.592849 0.599929 0.965212 0.11455
H_ H_ 0.543271 0.589962 0.514733 0.11455
H_ H_ 0.585939 0.624231 0.556475 0.11455
H_ H_ 0.699152 0.740165 0.975251 0.11455
H_ H_ 0.728816 0.782832 0.518294 0.11455
H_ H_ 0.714316 0.758043 0.566131 0.11455
H_ H_ 0.516625 0.6857 0.622846 0.11455
H_ H_ 0.502175 0.6665 0.675372 0.11455
H_ H_ 0.762127 0.633778 0.639394 0.11455
H_ H_ 0.749373 0.619967 0.690475 0.11455
H_ H_ 0.563974 0.570681 0.752183 0.11455
H_ H_ 0.528772 0.55977 0.80204 0.11455
H_ H_ 0.558702 0.620965 0.838579 0.11455
H_ H_ 0.665708 0.719844 0.755752 0.11455
H_ H_ 0.701155 0.773555 0.794061 0.11455
H_ H_ 0.683889 0.750494 0.845501 0.11455
H_ H_ 0.689733 0.766996 0.692765 0.11455
H_ H_ 0.627467 0.824974 0.59637 0.11455
H_ H_ 0.714789 0.820488 0.604608 0.11455
H_ H_ 0.603892 0.768184 0.709854 0.11455
H_ H_ 0.514443 0.768821 0.701102 0.11455
H_ H_ 0.537531 0.817567 0.614452 0.11455
H_ H_ 0.821202 0.982184 0.688397 0.11455
H_ H_ 0.887645 0.561393 0.598615 0.11455
H_ H_ 0.889501 0.965821 0.607686 0.11455
H_ H_ 0.851963 0.569337 0.714153 0.11455
H_ H_ 0.871076 0.659755 0.711626 0.11455
H_ H_ 0.891136 0.64532 0.620395 0.11455
H_ H_ 0.912335 0.888191 0.715238 0.11455
H_ H_ 0.924687 0.923237 0.764299 0.11455
H_ H_ 0.877087 0.881653 0.804318 0.11455
H_ H_ 0.793837 0.753116 0.724629 0.11455
H_ H_ 0.778827 0.693708 0.764557 0.11455
H_ H_ 0.806718 0.717468 0.812976 0.11455
H_ H_ 0.986639 0.786706 0.86782 0.11455
H_ H_ 1.0046771 0.804587 0.918925 0.11455
H_ H_ 0.744201 0.853284 0.894065 0.11455
H_ H_ 0.758697 0.855595 0.943398 0.11455
H_ H_ 0.96159 0.90631 1.000875243 0.11455
H_ H_ 0.944833 0.934326 0.550582 0.11455
H_ H_ 0.91816 0.877429 0.590003 0.11455
H_ H_ 0.836518 0.753624 0.507523 0.11455
H_ H_ 0.812617 0.696482 0.550356 0.11455
H_ H_ 0.823417 0.729115 0.597507 0.11455
C_ C_ 0.732977 0.680674 0.901393 0.68181
C_ C_ 0.79139 0.682374 0.897636 -0.05681
C_ C_ 0.822528 0.694127 0.919921 -0.08735
C_ C_ 0.874947 0.693693 0.917005 -0.05681
C_ C_ 0.89526 0.679697 0.890904 -0.05681
C_ C_ 0.864032 0.671008 0.867029 -0.08735
C_ C_ 0.811931 0.671232 0.871132 -0.08735
C_ C_ 0.90686 0.694579 0.941668 -0.08735
C_ C_ 0.960918 0.692751 0.937367 -0.08735
C_ C_ 0.9824 0.684878 0.909749 -0.05681
C_ C_ 0.948405 0.678032 0.886865 -0.08735
C_ C_ 0.64004 0.774178 0.912696 0.68181
C_ C_ 0.642593 0.580714 0.900902 0.68181
C_ C_ 0.6486 0.5245 0.89932 -0.05681
C_ C_ 0.647049 -0.00851500000000005 0.924154 -0.08735
C_ C_ 0.647391 0.936464 0.922475 -0.05681
C_ C_ 0.64233 0.912861 0.895061 -0.05681
C_ C_ 0.638573 0.943918 0.871872 -0.08735
C_ C_ 0.636121 -0.00346364 0.874086 -0.08735
C_ C_ 0.643095 0.909157 0.947061 -0.08735
C_ C_ 0.645568 0.855258 0.944127 -0.08735
C_ C_ 0.637789 0.831923 0.916352 -0.05681
C_ C_ 0.638147 0.860094 0.892266 -0.08735
C_ C_ 0.537679 0.667339 0.908723 0.68181
C_ C_ 0.604799 0.623351 0.982196 0.1947
C_ C_ 0.56851 0.618882 0.511099 -0.08735
C_ C_ 0.593289 0.638003 0.535205 -0.08735
C_ C_ 0.629983 0.677639 0.531817 -0.05681
C_ C_ 0.641444 0.692905 0.502861 0.18498
C_ C_ 0.685196 0.733256 0.995951 -0.08735
C_ C_ 0.708197 0.748697 0.521691 -0.08735
C_ C_ 0.696635 0.736201 0.548741 -0.08735
C_ C_ 0.659981 0.697287 0.554524 0.18498
C_ C_ 0.69261 0.666654 0.60017 0.44287
C_ C_ 0.606084 0.693983 0.597118 0.44287
C_ C_ 0.596957 0.67792 0.625711 -0.05681
C_ C_ 0.54788 0.679919 0.637326 -0.08735
C_ C_ 0.539814 0.665287 0.666038 -0.08735
C_ C_ 0.580869 0.657424 0.68469 -0.05681
C_ C_ 0.631381 0.655158 0.6723 -0.05681
C_ C_ 0.637719 0.665421 0.64309 -0.05681
C_ C_ 0.686435 0.662822 0.630486 -0.05681
C_ C_ 0.726646 0.644314 0.647874 -0.08735
C_ C_ 0.718191 0.636461 0.677461 -0.08735
C_ C_ 0.671891 0.644047 0.689651 -0.05681
C_ C_ 0.66225 0.633762 0.71913 0.44287
C_ C_ 0.576307 0.65465 0.71447 0.44287
C_ C_ 0.606355 0.634004 0.761213 0.18498
C_ C_ 0.575639 0.595357 0.768737 -0.08735
C_ C_ 0.560797 0.584703 0.797669 -0.08735
C_ C_ 0.580929 0.617982 0.819205 -0.08735
C_ C_ 0.613287 0.658964 0.812628 0.18498
C_ C_ 0.627361 0.666017 0.783559 -0.05681
C_ C_ 0.657774 0.709082 0.77702 -0.08735
C_ C_ 0.679994 0.737712 0.798516 -0.08735
C_ C_ 0.669614 0.72572 0.827673 0.1947
C_ C_ 0.766287 0.800999 0.652072 0.68181
C_ C_ 0.710564 0.791942 0.64823 -0.05681
C_ C_ 0.676406 0.78461 0.672322 -0.08735
C_ C_ 0.624123 0.794085 0.668706 -0.05681
C_ C_ 0.606981 0.808681 0.641752 -0.05681
C_ C_ 0.63952 0.813817 0.617752 -0.08735
C_ C_ 0.689683 0.809363 0.621917 -0.08735
C_ C_ 0.589167 0.782846 0.69028 -0.08735
C_ C_ 0.53856 0.788321 0.686695 -0.08735
C_ C_ 0.517811 0.801511 0.659651 -0.05681
C_ C_ 0.553359 0.812014 0.63709 -0.08735
C_ C_ 0.874359 0.717331 0.662178 0.68181
C_ C_ 0.854824 0.911544 0.648777 0.68181
C_ C_ 0.857646 0.966934 0.647172 -0.05681
C_ C_ 0.874542 0.500012 0.674321 -0.08735
C_ C_ 0.87669 0.552616 0.670767 -0.05681
C_ C_ 0.885155 0.576049 0.643962 -0.05681
C_ C_ 0.88717 0.545038 0.619436 -0.08735
C_ C_ 0.877977 0.990869 0.624161 -0.08735
C_ C_ 0.87148 0.582363 0.695495 -0.08735
C_ C_ 0.874566 0.635974 0.692887 -0.08735
C_ C_ 0.87932 0.659275 0.665867 -0.05681
C_ C_ 0.886835 0.628126 0.640845 -0.08735
C_ C_ 0.964662 0.820178 0.657093 0.68181
C_ C_ 0.895027 0.869128 0.733651 0.1947
C_ C_ 0.905123 0.88808 0.760372 -0.08735
C_ C_ 0.879838 0.863458 0.783329 -0.08735
C_ C_ 0.849447 0.822038 0.779383 -0.05681
C_ C_ 0.841322 0.803762 0.750853 0.18498
C_ C_ 0.812112 0.761309 0.745696 -0.08735
C_ C_ 0.800595 0.728345 0.767636 -0.08735
C_ C_ 0.810638 0.742592 0.795739 -0.08735
C_ C_ 0.835115 0.789787 0.802967 0.18498
C_ C_ 0.807014 0.812327 0.851895 0.44287
C_ C_ 0.893985 0.791773 0.842657 0.44287
C_ C_ 0.906158 0.800187 0.87253 -0.05681
C_ C_ 0.955985 0.799588 0.880836 -0.08735
C_ C_ 0.966212 0.809944 0.910936 -0.08735
C_ C_ 0.925788 0.81551 0.93108 -0.05681
C_ C_ 0.876319 0.82586 0.920692 -0.05681
C_ C_ 0.866486 0.820413 0.890535 -0.05681
C_ C_ 0.818216 0.826359 0.880461 -0.05681
C_ C_ 0.780023 0.842371 0.900502 -0.08735
C_ C_ 0.789928 0.843209 0.929503 -0.08735
C_ C_ 0.839887 0.839301 0.940421 -0.05681
C_ C_ 0.847619 0.839225 0.969625 0.44287
C_ C_ 0.932611 0.818085 0.961418 0.44287
C_ C_ 0.895565 0.838173 0.510034 0.18498
C_ C_ 0.91987 0.884776 0.516582 -0.08735
C_ C_ 0.929903 0.897637 0.545948 -0.08735
C_ C_ 0.913594 0.867182 0.568321 -0.08735
C_ C_ 0.8897 0.820566 0.562495 0.18498
C_ C_ 0.88072 0.806387 0.533166 -0.05681
C_ C_ 0.851973 0.762413 0.528556 -0.08735
C_ C_ 0.839191 0.729459 0.552288 -0.08735
C_ C_ 0.843344 0.748478 0.580162 0.1947
N_ N_ 0.636309 0.663925 0.977567 -0.29468
N_ N_ 0.651768 0.685831 0.584481 -0.17154
N_ N_ 0.615508 0.640871 0.731046 -0.17154
N_ N_ 0.634781 0.688884 0.833844 -0.29468
N_ N_ 0.863388 0.828962 0.728539 -0.29468
N_ N_ 0.845869 0.79987 0.832945 -0.17154
N_ N_ 0.894451 0.832605 0.980048 -0.17154
N_ N_ 0.873835 0.7897 0.584718 -0.29468
O_ O_ 0.715269 0.682383 0.926876 -0.58347
O_ O_ 0.705093 0.682068 0.879691 -0.58347
O_ O_ 0.637206 0.747294 0.934684 -0.58347
O_ O_ 0.631532 0.754269 0.888912 -0.58347
O_ O_ 0.646708 0.599678 0.92583 -0.58347
O_ O_ 0.634401 0.607577 0.87915 -0.58347
O_ O_ 0.569629 0.668753 0.930106 -0.58347
O_ O_ 0.554129 0.677551 0.884231 -0.58347
O_ O_ 0.567517 0.704867 0.581538 -0.46727
O_ O_ 0.73538 0.656887 0.588109 -0.46727
O_ O_ 0.530216 0.6595 0.726165 -0.46727
O_ O_ 0.69834 0.614826 0.735424 -0.46727
O_ O_ 0.784102 0.807946 0.677141 -0.58347
O_ O_ 0.796061 0.797387 0.630888 -0.58347
O_ O_ 0.86956 0.741651 0.685005 -0.58347
O_ O_ 0.879422 0.737031 0.638447 -0.58347
O_ O_ 0.853749 0.889341 0.67334 -0.58347
O_ O_ 0.860485 0.883128 0.626224 -0.58347
O_ O_ 0.936529 0.821622 0.678964 -0.58347
O_ O_ 0.944235 0.825247 0.632273 -0.58347
O_ O_ 0.929093 0.774289 0.825709 -0.46727
O_ O_ 0.761118 0.818041 0.842538 -0.46727
O_ O_ 0.976481 0.805201 0.972477 -0.46727
O_ O_ 0.809776 0.834823 0.988528 -0.46727
_cell_length_a 26.376
_cell_length_b 26.400000238300095
_cell_length_c 46.67800035477134
_cell_angle_alpha 90.00700052986613
_cell_angle_beta 89.99899961309502
_cell_angle_gamma 90.45000003183146
_symmetry_space_group_name_H-M         'P 1'
_symmetry_Int_Tables_number            1
loop_
_symmetry_equiv_pos_as_xyz
   'x, y, z'
                         
loop_
_atom_site_label
_atom_site_type_symbol
_atom_site_fract_x 
_atom_site_fract_y
_atom_site_fract_z
_atom_site_charge
Zn Zn 0.12243 0.189075 0.378217 0.90689
Zn Zn 0.127281 0.187766 0.426059 0.90689
Zn Zn 0.381363 0.316615 0.131922 0.90689
Zn Zn 0.369559 0.321815 0.180392 0.90689
H_ H_ 0.292638 0.197831 0.443031 0.11455
H_ H_ 0.368769 0.164784 0.347939 0.11455
H_ H_ 0.277836 0.167934 0.351966 0.11455
H_ H_ 0.377144 0.201462 0.464085 0.11455
H_ H_ 0.472356 0.201724 0.458185 0.11455
H_ H_ 0.453624 0.161619 0.36941 0.11455
H_ H_ 0.132761 0.0199688 0.436062 0.11455
H_ H_ 0.100911 0.441598 0.345127 0.11455
H_ H_ 0.110521 0.0336215 0.344962 0.11455
H_ H_ 0.159698 0.431695 0.458452 0.11455
H_ H_ 0.13332 0.34369 0.456529 0.11455
H_ H_ 0.1076 0.353952 0.367023 0.11455
H_ H_ 0.0705001 0.112927 0.458705 0.11455
H_ H_ 0.0677179 0.0965946 0.0172223 0.11455
H_ H_ 0.121539 0.126413 0.0550215 0.11455
H_ H_ 0.186045 0.254095 0.472133 0.11455
H_ H_ 0.232108 0.312383 0.0104241 0.11455
H_ H_ 0.225154 0.284488 0.0584211 0.11455
H_ H_ 0.0335779 0.222944 0.11608 0.11455
H_ H_ 0.0157211 0.223333 0.169545 0.11455
H_ H_ 0.273528 0.153852 0.137837 0.11455
H_ H_ 0.262445 0.156887 0.190542 0.11455
H_ H_ 0.0667508 0.103572 0.243547 0.11455
H_ H_ 0.0536442 0.0759361 0.290167 0.11455
H_ H_ 0.0724633 0.129965 0.332912 0.11455
H_ H_ 0.163144 0.264171 0.256942 0.11455
H_ H_ 0.192301 0.307027 0.30036 0.11455
H_ H_ 0.173763 0.275896 0.3479 0.11455
H_ H_ 0.201184 0.295328 0.196526 0.11455
H_ H_ 0.139713 0.365049 0.10394 0.11455
H_ H_ 0.228788 0.352789 0.113913 0.11455
H_ H_ 0.117846 0.325573 0.218854 0.11455
H_ H_ 0.0239955 0.324968 0.211557 0.11455
H_ H_ 0.0515414 0.35781 0.122331 0.11455
H_ H_ 0.394035 0.48582 0.193316 0.11455
H_ H_ 0.374188 0.0707344 0.0992171 0.11455
H_ H_ 0.363298 0.475776 0.105084 0.11455
H_ H_ 0.349955 0.0728061 0.215125 0.11455
H_ H_ 0.371895 0.167265 0.210463 0.11455
H_ H_ 0.38822 0.151466 0.120738 0.11455
H_ H_ 0.418992 0.395945 0.213388 0.11455
H_ H_ 0.448502 0.419778 0.262664 0.11455
H_ H_ 0.406541 0.375998 0.302936 0.11455
H_ H_ 0.31407 0.246992 0.224336 0.11455
H_ H_ 0.302705 0.189835 0.264663 0.11455
H_ H_ 0.319237 0.21753 0.315072 0.11455
H_ H_ 0.497822 0.292087 0.374335 0.11455
H_ H_ 0.507223 0.295123 0.427278 0.11455
H_ H_ 0.250455 0.33011 0.385805 0.11455
H_ H_ 0.261238 0.321552 0.438021 0.11455
H_ H_ 0.444528 0.40691 0.502569 0.11455
H_ H_ 0.478563 0.419983 0.0460886 0.11455
H_ H_ 0.440754 0.380973 0.0875491 0.11455
H_ H_ 0.352743 0.251307 0.00779707 0.11455
H_ H_ 0.318614 0.206236 0.0481608 0.11455
H_ H_ 0.323747 0.248797 0.0974224 0.11455
C_ C_ 0.220677 0.194837 0.401387 0.68181
C_ C_ 0.276141 0.18654 0.39861 -0.05681
C_ C_ 0.30944 0.191547 0.422383 -0.08735
C_ C_ 0.362288 0.187034 0.419692 -0.05681
C_ C_ 0.382977 0.17699 0.393127 -0.05681
C_ C_ 0.352341 0.174285 0.368271 -0.08735
C_ C_ 0.299179 0.175645 0.371262 -0.08735
C_ C_ 0.393299 0.191354 0.443706 -0.08735
C_ C_ 0.447168 0.188217 0.440812 -0.08735
C_ C_ 0.46705 0.177758 0.414043 -0.05681
C_ C_ 0.435495 0.169808 0.389824 -0.08735
C_ C_ 0.1172 0.287787 0.408601 0.68181
C_ C_ 0.125616 0.0900654 0.394514 0.68181
C_ C_ 0.120668 0.0333961 0.391259 -0.05681
C_ C_ 0.147412 0.499416 0.41651 -0.08735
C_ C_ 0.148255 0.446541 0.412987 -0.05681
C_ C_ 0.132076 0.425351 0.386558 -0.05681
C_ C_ 0.120557 0.456426 0.363795 -0.08735
C_ C_ 0.121286 0.509966 0.367449 -0.08735
C_ C_ 0.152043 0.41687 0.437387 -0.08735
C_ C_ 0.133859 0.367283 0.437449 -0.08735
C_ C_ 0.126535 0.343428 0.411353 -0.05681
C_ C_ 0.121155 0.373363 0.386478 -0.08735
C_ C_ 0.0275612 0.183123 0.403379 0.68181
C_ C_ 0.0873159 0.133514 0.477695 0.1947
C_ C_ 0.0919037 0.12885 0.0132139 -0.08735
C_ C_ 0.122947 0.144983 0.0335314 -0.08735
C_ C_ 0.151996 0.190658 0.0280139 -0.05681
C_ C_ 0.157204 0.207231 0.999647 0.18498
C_ C_ 0.183141 0.234154 0.491402 -0.08735
C_ C_ 0.214984 0.274146 0.0139869 -0.08735
C_ C_ 0.20918 0.258687 0.0426799 -0.08735
C_ C_ 0.179412 0.216311 0.0505624 0.18498
C_ C_ 0.205994 0.188586 0.0980617 0.44287
C_ C_ 0.125555 0.22637 0.0922475 0.44287
C_ C_ 0.113401 0.214745 0.120991 -0.05681
C_ C_ 0.0629028 0.218413 0.13156 -0.08735
C_ C_ 0.0525756 0.208869 0.159719 -0.08735
C_ C_ 0.0924347 0.195936 0.179309 -0.05681
C_ C_ 0.142579 0.187691 0.168586 -0.05681
C_ C_ 0.152119 0.195594 0.138992 -0.05681
C_ C_ 0.199102 0.18342 0.127871 -0.05681
C_ C_ 0.236896 0.164901 0.146954 -0.08735
C_ C_ 0.23083 0.167152 0.176822 -0.08735
C_ C_ 0.180953 0.172921 0.18755 -0.05681
C_ C_ 0.171792 0.172697 0.217062 0.44287
C_ C_ 0.0864499 0.198566 0.208647 0.44287
C_ C_ 0.113808 0.171425 0.256356 0.18498
C_ C_ 0.0861912 0.125105 0.260237 -0.08735
C_ C_ 0.0699853 0.111497 0.28769 -0.08735
C_ C_ 0.0882652 0.139651 0.312107 -0.08735
C_ C_ 0.113934 0.186794 0.309009 0.18498
C_ C_ 0.131036 0.199653 0.280711 -0.05681
C_ C_ 0.157571 0.244541 0.27761 -0.08735
C_ C_ 0.171849 0.273736 0.301993 -0.08735
C_ C_ 0.16092 0.254037 0.328886 0.1947
C_ C_ 0.276516 0.313917 0.157904 0.68181
C_ C_ 0.218461 0.318223 0.154092 -0.05681
C_ C_ 0.186222 0.309611 0.176625 -0.08735
C_ C_ 0.135721 0.327871 0.173625 -0.05681
C_ C_ 0.11786 0.34583 0.147086 -0.05681
C_ C_ 0.152464 0.354504 0.124104 -0.08735
C_ C_ 0.202484 0.340491 0.128481 -0.08735
C_ C_ 0.101852 0.323558 0.197893 -0.08735
C_ C_ 0.0494568 0.329114 0.193437 -0.08735
C_ C_ 0.0302112 0.340803 0.165291 -0.05681
C_ C_ 0.065549 0.349887 0.142509 -0.08735
C_ C_ 0.38741 0.221663 0.161722 0.68181
C_ C_ 0.366888 0.419198 0.152037 0.68181
C_ C_ 0.369926 0.476067 0.150408 -0.05681
C_ C_ 0.3604 0.00543941 0.173463 -0.08735
C_ C_ 0.367444 0.0595715 0.171204 -0.05681
C_ C_ 0.375891 0.0825587 0.144648 -0.05681
C_ C_ 0.369873 0.0542193 0.11991 -0.08735
C_ C_ 0.365058 0.500658 0.122873 -0.08735
C_ C_ 0.361058 0.0915713 0.194344 -0.08735
C_ C_ 0.369884 0.144113 0.1916 -0.08735
C_ C_ 0.379701 0.166059 0.165642 -0.05681
C_ C_ 0.385209 0.135757 0.142034 -0.08735
C_ C_ 0.471658 0.333045 0.151832 0.68181
C_ C_ 0.406486 0.373584 0.232154 0.1947
C_ C_ 0.420389 0.388643 0.25875 -0.08735
C_ C_ 0.397988 0.363805 0.281608 -0.08735
C_ C_ 0.372008 0.316995 0.278346 -0.05681
C_ C_ 0.35698 0.302983 0.250042 0.18498
C_ C_ 0.327796 0.260143 0.245995 -0.08735
C_ C_ 0.31817 0.22684 0.268833 -0.08735
C_ C_ 0.33002 0.243124 0.296563 -0.08735
C_ C_ 0.355852 0.287912 0.302711 0.18498
C_ C_ 0.324603 0.314147 0.348455 0.44287
C_ C_ 0.411278 0.294722 0.345007 0.44287
C_ C_ 0.418238 0.303953 0.374289 -0.05681
C_ C_ 0.467188 0.303915 0.387029 -0.08735
C_ C_ 0.473326 0.306335 0.41709 -0.08735
C_ C_ 0.432147 0.316606 0.434693 -0.05681
C_ C_ 0.382565 0.320465 0.421242 -0.05681
C_ C_ 0.376982 0.314247 0.391243 -0.05681
C_ C_ 0.330425 0.318979 0.378094 -0.05681
C_ C_ 0.287949 0.326562 0.395297 -0.08735
C_ C_ 0.292369 0.327798 0.42476 -0.08735
C_ C_ 0.338528 0.324121 0.438288 -0.05681
C_ C_ 0.344905 0.331865 0.467903 0.44287
C_ C_ 0.432892 0.318866 0.465534 0.44287
C_ C_ 0.402867 0.341081 0.00847869 0.18498
C_ C_ 0.435688 0.380369 0.0136709 -0.08735
C_ C_ 0.447245 0.396236 0.0424549 -0.08735
C_ C_ 0.424437 0.37334 0.0666607 -0.08735
C_ C_ 0.389761 0.335109 0.060808 0.18498
C_ C_ 0.382344 0.3144 0.0315612 -0.05681
C_ C_ 0.356302 0.269426 0.0281534 -0.08735
C_ C_ 0.337601 0.242601 0.0513943 -0.08735
C_ C_ 0.341451 0.266007 0.0793713 0.1947
N_ N_ 0.12244 0.170377 0.473735 -0.29468
N_ N_ 0.169899 0.208504 0.0808631 -0.17154
N_ N_ 0.124293 0.185064 0.226922 -0.17154
N_ N_ 0.131924 0.211974 0.332583 -0.29468
N_ N_ 0.373535 0.332736 0.227965 -0.29468
N_ N_ 0.365004 0.302783 0.33201 -0.17154
N_ N_ 0.390107 0.327515 0.481127 -0.17154
N_ N_ 0.369949 0.30902 0.0835668 -0.29468
O_ O_ 0.199273 0.188184 0.425799 -0.58347
O_ O_ 0.195052 0.206485 0.380218 -0.58347
O_ O_ 0.128018 0.260686 0.43008 -0.58347
O_ O_ 0.112942 0.265187 0.384925 -0.58347
O_ O_ 0.125816 0.110369 0.418468 -0.58347
O_ O_ 0.135534 0.116407 0.373134 -0.58347
O_ O_ 0.0562737 0.191631 0.425019 -0.58347
O_ O_ 0.0480344 0.179224 0.378192 -0.58347
O_ O_ 0.0929502 0.248535 0.0753043 -0.46727
O_ O_ 0.249877 0.177632 0.0867442 -0.46727
O_ O_ 0.0404637 0.207996 0.218756 -0.46727
O_ O_ 0.206451 0.157309 0.235011 -0.46727
O_ O_ 0.295831 0.309613 0.182891 -0.58347
O_ O_ 0.305402 0.318605 0.136055 -0.58347
O_ O_ 0.386185 0.248881 0.184178 -0.58347
O_ O_ 0.381469 0.242041 0.136877 -0.58347
O_ O_ 0.352679 0.396725 0.17487 -0.58347
O_ O_ 0.380275 0.391622 0.129885 -0.58347
O_ O_ 0.44402 0.336376 0.173584 -0.58347
O_ O_ 0.45431 0.314889 0.129027 -0.58347
O_ O_ 0.44846 0.274825 0.329781 -0.46727
O_ O_ 0.279303 0.318178 0.338751 -0.46727
O_ O_ 0.475941 0.310587 0.478097 -0.46727
O_ O_ 0.304195 0.332692 0.484035 -0.46727
Zn Zn 0.13209 0.191196 0.882392 0.90689
Zn Zn 0.136608 0.184102 0.931087 0.90689
Zn Zn 0.372868 0.312906 0.631951 0.90689
Zn Zn 0.364681 0.312357 0.680464 0.90689
H_ H_ 0.307372 0.178965 0.950224 0.11455
H_ H_ 0.376943 0.164077 0.852991 0.11455
H_ H_ 0.286768 0.179888 0.859032 0.11455
H_ H_ 0.393608 0.201865 0.966089 0.11455
H_ H_ 0.485913 0.187058 0.961482 0.11455
H_ H_ 0.461965 0.146227 0.873796 0.11455
H_ H_ 0.131468 0.017918 0.943202 0.11455
H_ H_ 0.139722 0.433672 0.843923 0.11455
H_ H_ 0.12106 0.0307718 0.852989 0.11455
H_ H_ 0.119425 0.431877 0.962424 0.11455
H_ H_ 0.104517 0.343599 0.957 0.11455
H_ H_ 0.138927 0.351598 0.867252 0.11455
H_ H_ 0.0725422 0.130113 0.96904 0.11455
H_ H_ 0.0501027 0.0859919 0.510012 0.11455
H_ H_ 0.0982876 0.120077 0.552674 0.11455
H_ H_ 0.189884 0.267082 0.971046 0.11455
H_ H_ 0.231979 0.289972 0.511758 0.11455
H_ H_ 0.205329 0.26669 0.56001 0.11455
H_ H_ 0.0181351 0.20985 0.6217 0.11455
H_ H_ 0.00155855 0.192276 0.676404 0.11455
H_ H_ 0.264211 0.186193 0.638283 0.11455
H_ H_ 0.260005 0.163315 0.687788 0.11455
H_ H_ 0.0723635 0.0977312 0.747432 0.11455
H_ H_ 0.0584267 0.0686829 0.796679 0.11455
H_ H_ 0.0841369 0.12072 0.837951 0.11455
H_ H_ 0.162324 0.257892 0.758954 0.11455
H_ H_ 0.192322 0.306789 0.799631 0.11455
H_ H_ 0.18743 0.270996 0.848741 0.11455
H_ H_ 0.19818 0.305389 0.69268 0.11455
H_ H_ 0.122175 0.323361 0.595942 0.11455
H_ H_ 0.214694 0.327204 0.599543 0.11455
H_ H_ 0.115859 0.315098 0.715823 0.11455
H_ H_ 0.0226364 0.310907 0.710723 0.11455
H_ H_ 0.0385451 0.331312 0.618663 0.11455
H_ H_ 0.328364 0.484303 0.684954 0.11455
H_ H_ 0.356537 0.0550343 0.595962 0.11455
H_ H_ 0.412422 0.470775 0.604857 0.11455
H_ H_ 0.358309 0.0631025 0.713152 0.11455
H_ H_ 0.377 0.15333 0.709853 0.11455
H_ H_ 0.368906 0.144102 0.617518 0.11455
H_ H_ 0.398869 0.398846 0.715814 0.11455
H_ H_ 0.404555 0.430113 0.765541 0.11455
H_ H_ 0.352329 0.383216 0.80281 0.11455
H_ H_ 0.312299 0.235567 0.723607 0.11455
H_ H_ 0.296798 0.175083 0.764322 0.11455
H_ H_ 0.308863 0.20542 0.812986 0.11455
H_ H_ 0.48842 0.275388 0.872602 0.11455
H_ H_ 0.504611 0.287589 0.923704 0.11455
H_ H_ 0.246439 0.34479 0.885936 0.11455
H_ H_ 0.256991 0.35001 0.937862 0.11455
H_ H_ 0.453707 0.39535 -0.0048880000000000035 0.11455
H_ H_ 0.477253 0.414389 0.551124 0.11455
H_ H_ 0.444682 0.355511 0.589023 0.11455
H_ H_ 0.350961 0.244691 0.508388 0.11455
H_ H_ 0.306178 0.202989 0.546121 0.11455
H_ H_ 0.320328 0.235649 0.596285 0.11455
C_ C_ 0.233963 0.185714 0.907453 0.68181
C_ C_ 0.291647 0.179426 0.905236 -0.05681
C_ C_ 0.323746 0.179064 0.928449 -0.08735
C_ C_ 0.375156 0.173567 0.925198 -0.05681
C_ C_ 0.397009 0.167312 0.897864 -0.05681
C_ C_ 0.364001 0.168795 0.873174 -0.08735
C_ C_ 0.311351 0.175825 0.877171 -0.08735
C_ C_ 0.407093 0.179052 0.94875 -0.08735
C_ C_ 0.460495 0.173869 0.944784 -0.08735
C_ C_ 0.480677 0.16465 0.917915 -0.05681
C_ C_ 0.447686 0.159383 0.894306 -0.08735
C_ C_ 0.13115 0.285892 0.90937 0.68181
C_ C_ 0.135227 0.0877606 0.902323 0.68181
C_ C_ 0.128732 0.031176 0.898662 -0.05681
C_ C_ 0.129247 0.501773 0.918785 -0.08735
C_ C_ 0.125466 0.448523 0.91665 -0.05681
C_ C_ 0.132807 0.423375 0.889685 -0.05681
C_ C_ 0.141615 0.453915 0.86533 -0.08735
C_ C_ 0.147573 0.506086 0.8681 -0.08735
C_ C_ 0.11732 0.418034 0.941136 -0.08735
C_ C_ 0.113157 0.365572 0.938056 -0.08735
C_ C_ 0.12629 0.341553 0.911433 -0.05681
C_ C_ 0.128981 0.370718 0.886981 -0.08735
C_ C_ 0.0372588 0.190219 0.903172 0.68181
C_ C_ 0.0975835 0.144458 0.985027 0.1947
C_ C_ 0.0777313 0.115154 0.506023 -0.08735
C_ C_ 0.104294 0.135007 0.530891 -0.08735
C_ C_ 0.137821 0.177493 0.525709 -0.05681
C_ C_ 0.14776 0.194425 0.496262 0.18498
C_ C_ 0.187904 0.250292 0.99224 -0.08735
C_ C_ 0.204409 0.258076 0.515219 -0.08735
C_ C_ 0.186034 0.247008 0.542217 -0.08735
C_ C_ 0.156306 0.205013 0.54878 0.18498
C_ C_ 0.188724 0.178462 0.597158 0.44287
C_ C_ 0.103713 0.196588 0.592437 0.44287
C_ C_ 0.0950063 0.190048 0.622391 -0.05681
C_ C_ 0.0471376 0.195068 0.635481 -0.08735
C_ C_ 0.0408993 0.193068 0.666443 -0.08735
C_ C_ 0.0832662 0.183151 0.682647 -0.05681
C_ C_ 0.131718 0.179687 0.67059 -0.05681
C_ C_ 0.138164 0.182437 0.639433 -0.05681
C_ C_ 0.185247 0.177365 0.62721 -0.05681
C_ C_ 0.227073 0.178231 0.645827 -0.08735
C_ C_ 0.223248 0.172998 0.674672 -0.08735
C_ C_ 0.174759 0.172251 0.687811 -0.05681
C_ C_ 0.167034 0.174181 0.718253 0.44287
C_ C_ 0.0815037 0.191722 0.712997 0.44287
C_ C_ 0.112741 0.167822 0.75996 0.18498
C_ C_ 0.0854752 0.122741 0.765419 -0.08735
C_ C_ 0.075197 0.105512 0.792892 -0.08735
C_ C_ 0.0889439 0.135964 0.816942 -0.08735
C_ C_ 0.119889 0.181209 0.813351 0.18498
C_ C_ 0.129559 0.197539 0.783733 -0.05681
C_ C_ 0.156513 0.241739 0.779602 -0.08735
C_ C_ 0.173662 0.269499 0.802649 -0.08735
C_ C_ 0.166223 0.251768 0.831513 0.1947
C_ C_ 0.271515 0.312048 0.650892 0.68181
C_ C_ 0.214182 0.315399 0.646586 -0.05681
C_ C_ 0.181186 0.308972 0.670806 -0.08735
C_ C_ 0.129955 0.318591 0.66932 -0.05681
C_ C_ 0.108354 0.326169 0.642084 -0.05681
C_ C_ 0.140161 0.323088 0.617294 -0.08735
C_ C_ 0.193125 0.3242 0.619695 -0.08735
C_ C_ 0.100023 0.323773 0.694673 -0.08735
C_ C_ 0.0470566 0.321064 0.69191 -0.08735
C_ C_ 0.0246278 0.319295 0.663474 -0.05681
C_ C_ 0.0567917 0.324916 0.639182 -0.08735
C_ C_ 0.374777 0.214323 0.663042 0.68181
C_ C_ 0.365749 0.412612 0.647437 0.68181
C_ C_ 0.373942 0.468702 0.647302 -0.05681
C_ C_ 0.359601 -0.0042520000000000335 0.672798 -0.08735
C_ C_ 0.359724 0.0499198 0.668454 -0.05681
C_ C_ 0.363286 0.0734488 0.640701 -0.05681
C_ C_ 0.357759 0.0398651 0.616594 -0.08735
C_ C_ 0.399712 0.491296 0.623361 -0.08735
C_ C_ 0.362907 0.0800283 0.693436 -0.08735
C_ C_ 0.371217 0.131691 0.690902 -0.08735
C_ C_ 0.371313 0.15685 0.663766 -0.05681
C_ C_ 0.371881 0.126114 0.638388 -0.08735
C_ C_ 0.468019 0.315839 0.662584 0.68181
C_ C_ 0.384801 0.374306 0.73358 0.1947
C_ C_ 0.39079 0.39048 0.762059 -0.08735
C_ C_ 0.364314 0.363384 0.782915 -0.08735
C_ C_ 0.351702 0.31249 0.778249 -0.05681
C_ C_ 0.347007 0.295282 0.750016 0.18498
C_ C_ 0.319681 0.249095 0.745238 -0.08735
C_ C_ 0.313057 0.215028 0.767802 -0.08735
C_ C_ 0.319909 0.231652 0.796157 -0.08735
C_ C_ 0.340709 0.277747 0.801226 0.18498
C_ C_ 0.313926 0.309221 0.848421 0.44287
C_ C_ 0.396778 0.277589 0.843121 0.44287
C_ C_ 0.408289 0.294007 0.87139 -0.05681
C_ C_ 0.457542 0.287162 0.883992 -0.08735
C_ C_ 0.465775 0.293894 0.914173 -0.08735
C_ C_ 0.425266 0.307687 0.931449 -0.05681
C_ C_ 0.377306 0.314712 0.920308 -0.05681
C_ C_ 0.369801 0.309204 0.890165 -0.05681
C_ C_ 0.322403 0.31619 0.878139 -0.05681
C_ C_ 0.282088 0.33583 0.89532 -0.08735
C_ C_ 0.288461 0.341404 0.924239 -0.08735
C_ C_ 0.337485 0.330804 0.937034 -0.05681
C_ C_ 0.345524 0.337698 0.966584 0.44287
C_ C_ 0.429959 0.312964 0.961224 0.44287
C_ C_ 0.395835 0.339396 0.510841 0.18498
C_ C_ 0.429116 0.379371 0.518117 -0.08735
C_ C_ 0.447269 0.38593 0.546339 -0.08735
C_ C_ 0.426331 0.356252 0.568737 -0.08735
C_ C_ 0.390537 0.320886 0.56262 0.18498
C_ C_ 0.378749 0.307183 0.533079 -0.05681
C_ C_ 0.349548 0.26516 0.529147 -0.08735
C_ C_ 0.328567 0.237403 0.551076 -0.08735
C_ C_ 0.335724 0.25581 0.578602 0.1947
N_ N_ 0.130295 0.180179 0.978363 -0.29468
N_ N_ 0.148867 0.187596 0.57938 -0.17154
N_ N_ 0.121184 0.181257 0.729683 -0.17154
N_ N_ 0.140774 0.206604 0.836403 -0.29468
N_ N_ 0.362072 0.327419 0.727499 -0.29468
N_ N_ 0.35223 0.293313 0.830808 -0.17154
N_ N_ 0.390685 0.327084 0.979287 -0.17154
N_ N_ 0.369735 0.292563 0.584612 -0.29468
O_ O_ 0.212537 0.184613 0.931913 -0.58347
O_ O_ 0.208972 0.200969 0.885341 -0.58347
O_ O_ 0.136748 0.260243 0.931853 -0.58347
O_ O_ 0.124326 0.264737 0.884939 -0.58347
O_ O_ 0.12904 0.107329 0.926517 -0.58347
O_ O_ 0.140475 0.114954 0.880149 -0.58347
O_ O_ 0.0643075 0.193066 0.925355 -0.58347
O_ O_ 0.0578161 0.183768 0.878986 -0.58347
O_ O_ 0.0636546 0.206099 0.575625 -0.46727
O_ O_ 0.234932 0.18417 0.587251 -0.46727
O_ O_ 0.0383466 0.207156 0.725856 -0.46727
O_ O_ 0.203604 0.157579 0.734361 -0.46727
O_ O_ 0.292124 0.298664 0.674943 -0.58347
O_ O_ 0.30181 0.316701 0.629152 -0.58347
O_ O_ 0.373053 0.23871 0.686695 -0.58347
O_ O_ 0.371605 0.236535 0.639189 -0.58347
O_ O_ 0.358201 0.389495 0.670789 -0.58347
O_ O_ 0.374103 0.38754 0.625151 -0.58347
O_ O_ 0.440797 0.32011 0.685046 -0.58347
O_ O_ 0.446705 0.318602 0.63774 -0.58347
O_ O_ 0.433515 0.260681 0.827462 -0.46727
O_ O_ 0.268719 0.318044 0.836925 -0.46727
O_ O_ 0.474025 0.304062 0.972319 -0.46727
O_ O_ 0.305144 0.345991 0.982814 -0.46727
Zn Zn 0.117343 0.695593 0.380033 0.90689
Zn Zn 0.128107 0.684009 0.426939 0.90689
Zn Zn 0.369253 0.821342 0.13027 0.90689
Zn Zn 0.362689 0.82441 0.179914 0.90689
H_ H_ 0.297764 0.672848 0.447218 0.11455
H_ H_ 0.35904 0.666438 0.348049 0.11455
H_ H_ 0.269066 0.682379 0.35664 0.11455
H_ H_ 0.379826 0.636943 0.465135 0.11455
H_ H_ 0.471254 0.649256 0.457088 0.11455
H_ H_ 0.447835 0.683772 0.368848 0.11455
H_ H_ 0.152841 0.513661 0.437859 0.11455
H_ H_ 0.113622 0.941305 0.339682 0.11455
H_ H_ 0.118782 0.532412 0.349321 0.11455
H_ H_ 0.146012 0.938131 0.4565 0.11455
H_ H_ 0.129248 0.849354 0.45567 0.11455
H_ H_ 0.109737 0.856339 0.363727 0.11455
H_ H_ 0.0669569 0.615428 0.461569 0.11455
H_ H_ 0.0736384 0.57536 0.00950819 0.11455
H_ H_ 0.112936 0.617998 0.0506012 0.11455
H_ H_ 0.176823 0.749357 0.469219 0.11455
H_ H_ 0.218674 0.806253 0.0131658 0.11455
H_ H_ 0.195843 0.783023 0.0624292 0.11455
H_ H_ 0.0127097 0.706563 0.115241 0.11455
H_ H_ -0.005850000000000022 0.687194 0.168261 0.11455
H_ H_ 0.256493 0.650198 0.140265 0.11455
H_ H_ 0.237985 0.639172 0.190233 0.11455
H_ H_ 0.0535856 0.590017 0.24992 0.11455
H_ H_ 0.0276201 0.577311 0.299546 0.11455
H_ H_ 0.066646 0.623767 0.338257 0.11455
H_ H_ 0.140201 0.754376 0.254458 0.11455
H_ H_ 0.177446 0.798111 0.295016 0.11455
H_ H_ 0.175079 0.762815 0.344097 0.11455
H_ H_ 0.194476 0.823194 0.197135 0.11455
H_ H_ 0.118648 0.825406 0.0985869 0.11455
H_ H_ 0.209173 0.828207 0.104511 0.11455
H_ H_ 0.113379 0.815199 0.215347 0.11455
H_ H_ 0.0192456 0.810331 0.210409 0.11455
H_ H_ 0.030449 0.832069 0.120448 0.11455
H_ H_ 0.355135 0.9894 0.194952 0.11455
H_ H_ 0.369315 0.569131 0.0992189 0.11455
H_ H_ 0.363036 0.979725 0.103001 0.11455
H_ H_ 0.400066 0.568754 0.217192 0.11455
H_ H_ 0.391948 0.660074 0.212291 0.11455
H_ H_ 0.375185 0.654335 0.12218 0.11455
H_ H_ 0.420327 0.890913 0.216831 0.11455
H_ H_ 0.450366 0.902783 0.266826 0.11455
H_ H_ 0.408123 0.873112 0.305472 0.11455
H_ H_ 0.294706 0.772334 0.222036 0.11455
H_ H_ 0.248381 0.726017 0.260612 0.11455
H_ H_ 0.271604 0.737925 0.309465 0.11455
H_ H_ 0.474498 0.796454 0.372878 0.11455
H_ H_ 0.487065 0.790996 0.42441 0.11455
H_ H_ 0.225924 0.833123 0.39005 0.11455
H_ H_ 0.239647 0.850563 0.440578 0.11455
H_ H_ 0.433841 0.906198 0.500951 0.11455
H_ H_ 0.46337 0.934664 0.0478041 0.11455
H_ H_ 0.42084 0.888582 0.0888665 0.11455
H_ H_ 0.325784 0.775116 0.00718866 0.11455
H_ H_ 0.297779 0.720997 0.0478641 0.11455
H_ H_ 0.326306 0.740525 0.0942557 0.11455
C_ C_ 0.22131 0.688349 0.406626 0.68181
C_ C_ 0.276671 0.678511 0.402873 -0.05681
C_ C_ 0.310421 0.667295 0.425762 -0.08735
C_ C_ 0.361378 0.659774 0.420255 -0.05681
C_ C_ 0.381611 0.664681 0.392568 -0.05681
C_ C_ 0.346989 0.670235 0.369762 -0.08735
C_ C_ 0.295523 0.679147 0.374897 -0.08735
C_ C_ 0.395182 0.651036 0.443925 -0.08735
C_ C_ 0.447645 0.651968 0.438945 -0.08735
C_ C_ 0.467234 0.667615 0.412314 -0.05681
C_ C_ 0.434003 0.669223 0.388807 -0.08735
C_ C_ 0.118545 0.78805 0.40742 0.68181
C_ C_ 0.129251 0.589002 0.398954 0.68181
C_ C_ 0.13857 0.533186 0.393022 -0.05681
C_ C_ 0.124992 1.00339762 0.415726 -0.08735
C_ C_ 0.12653 0.949469 0.412841 -0.05681
C_ C_ 0.120041 0.927317 0.386187 -0.05681
C_ C_ 0.115921 0.957878 0.361755 -0.08735
C_ C_ 0.114908 1.00965535 0.364565 -0.08735
C_ C_ 0.135806 0.920116 0.436672 -0.08735
C_ C_ 0.13723 0.868154 0.434933 -0.08735
C_ C_ 0.121653 0.845148 0.408783 -0.05681
C_ C_ 0.118753 0.875116 0.383752 -0.08735
C_ C_ 0.0220847 0.688016 0.400124 0.68181
C_ C_ 0.0845461 0.635078 0.479539 0.1947
C_ C_ 0.0997994 0.608173 0.00719139 -0.08735
C_ C_ 0.121902 0.631568 0.0297906 -0.08735
C_ C_ 0.146816 0.678621 0.0261876 -0.05681
C_ C_ 0.157616 0.696199 0.997808 0.18498
C_ C_ 0.169964 0.741812 0.49035 -0.08735
C_ C_ 0.194679 0.772333 0.0174254 -0.08735
C_ C_ 0.185962 0.756894 0.0458835 -0.08735
C_ C_ 0.165022 0.707767 0.0508763 0.18498
C_ C_ 0.189929 0.679539 0.0980071 0.44287
C_ C_ 0.106839 0.703706 0.0911696 0.44287
C_ C_ 0.0926646 0.693756 0.120809 -0.05681
C_ C_ 0.042788 0.701471 0.130672 -0.08735
C_ C_ 0.0327145 0.687501 0.159727 -0.08735
C_ C_ 0.0737282 0.680768 0.179588 -0.05681
C_ C_ 0.122563 0.67267 0.168623 -0.05681
C_ C_ 0.132213 0.679843 0.139293 -0.05681
C_ C_ 0.178752 0.667089 0.126933 -0.05681
C_ C_ 0.218602 0.655454 0.147906 -0.08735
C_ C_ 0.209374 0.651396 0.176618 -0.08735
C_ C_ 0.161107 0.65918 0.187729 -0.05681
C_ C_ 0.151777 0.657582 0.217614 0.44287
C_ C_ 0.0653291 0.67877 0.209588 0.44287
C_ C_ 0.0934996 0.658638 0.258213 0.18498
C_ C_ 0.0675638 0.613981 0.266082 -0.08735
C_ C_ 0.0590865 0.60117 0.294681 -0.08735
C_ C_ 0.0779301 0.632219 0.315969 -0.08735
C_ C_ 0.101454 0.677183 0.30963 0.18498
C_ C_ 0.109491 0.691878 0.279812 -0.05681
C_ C_ 0.136308 0.738436 0.274669 -0.08735
C_ C_ 0.163909 0.759045 0.297062 -0.08735
C_ C_ 0.158446 0.740987 0.325866 0.1947
C_ C_ 0.263733 0.82475 0.152341 0.68181
C_ C_ 0.20818 0.826886 0.150684 -0.05681
C_ C_ 0.177478 0.823848 0.174439 -0.08735
C_ C_ 0.124902 0.82211 0.171871 -0.05681
C_ C_ 0.102001 0.824532 0.144118 -0.05681
C_ C_ 0.133979 0.826356 0.120761 -0.08735
C_ C_ 0.185498 0.831669 0.124025 -0.08735
C_ C_ 0.0924992 0.818115 0.195925 -0.08735
C_ C_ 0.0414288 0.815125 0.192678 -0.08735
C_ C_ 0.0189752 0.825247 0.165899 -0.05681
C_ C_ 0.0499381 0.827576 0.140806 -0.08735
C_ C_ 0.379543 0.722222 0.163506 0.68181
C_ C_ 0.362306 0.921165 0.149447 0.68181
C_ C_ 0.360183 0.976182 0.148203 -0.05681
C_ C_ 0.383927 0.505297 0.173751 -0.08735
C_ C_ 0.384169 0.558752 0.171329 -0.05681
C_ C_ 0.377227 0.583487 0.144877 -0.05681
C_ C_ 0.372157 0.55175 0.12072 -0.08735
C_ C_ 0.366812 0.000849238 0.122191 -0.08735
C_ C_ 0.390753 0.587988 0.196719 -0.08735
C_ C_ 0.392277 0.641158 0.193085 -0.08735
C_ C_ 0.386998 0.667163 0.166514 -0.05681
C_ C_ 0.381578 0.637044 0.141927 -0.08735
C_ C_ 0.463608 0.828052 0.154672 0.68181
C_ C_ 0.402638 0.871665 0.23382 0.1947
C_ C_ 0.416559 0.88245 0.262078 -0.08735
C_ C_ 0.391859 0.861573 0.285137 -0.08735
C_ C_ 0.354247 0.825283 0.279827 -0.05681
C_ C_ 0.342586 0.814092 0.249984 0.18498
C_ C_ 0.304456 0.777465 0.243471 -0.08735
C_ C_ 0.28339 0.748721 0.264878 -0.08735
C_ C_ 0.296369 0.756413 0.293201 -0.08735
C_ C_ 0.327046 0.796234 0.301715 0.18498
C_ C_ 0.297857 0.81803 0.350846 0.44287
C_ C_ 0.383549 0.789997 0.344851 0.44287
C_ C_ 0.393694 0.800415 0.374942 -0.05681
C_ C_ 0.442234 0.795839 0.386885 -0.08735
C_ C_ 0.449693 0.799583 0.416534 -0.08735
C_ C_ 0.410607 0.808669 0.435001 -0.05681
C_ C_ 0.361347 0.814169 0.423568 -0.05681
C_ C_ 0.353024 0.809993 0.394335 -0.05681
C_ C_ 0.306525 0.82251 0.380883 -0.05681
C_ C_ 0.264381 0.829327 0.399565 -0.08735
C_ C_ 0.271157 0.832859 0.429339 -0.08735
C_ C_ 0.321466 0.824928 0.441924 -0.05681
C_ C_ 0.330851 0.833619 0.471286 0.44287
C_ C_ 0.417625 0.808792 0.46502 0.44287
C_ C_ 0.393652 0.85076 0.00986945 0.18498
C_ C_ 0.428555 0.889902 0.01559 -0.08735
C_ C_ 0.438931 0.902069 0.0441534 -0.08735
C_ C_ 0.41669 0.874552 0.0666633 -0.08735
C_ C_ 0.384045 0.83315 0.0615763 0.18498
C_ C_ 0.377834 0.818104 0.0328103 -0.05681
C_ C_ 0.344004 0.779256 0.028143 -0.08735
C_ C_ 0.323693 0.753195 0.0505474 -0.08735
C_ C_ 0.339302 0.762979 0.0780005 0.1947
N_ N_ 0.119131 0.673688 0.47402 -0.29468
N_ N_ 0.152459 0.692902 0.0799089 -0.17154
N_ N_ 0.105314 0.669487 0.228145 -0.17154
N_ N_ 0.122789 0.705467 0.331502 -0.29468
N_ N_ 0.364516 0.838572 0.227745 -0.29468
N_ N_ 0.336202 0.803452 0.332933 -0.17154
N_ N_ 0.378577 0.828121 0.482123 -0.17154
N_ N_ 0.370952 0.803081 0.0832428 -0.29468
O_ O_ 0.203092 0.6861 0.430982 -0.58347
O_ O_ 0.193174 0.691846 0.383945 -0.58347
O_ O_ 0.119946 0.760539 0.429857 -0.58347
O_ O_ 0.121434 0.767606 0.38245 -0.58347
O_ O_ 0.135056 0.606779 0.423995 -0.58347
O_ O_ 0.113378 0.616672 0.378528 -0.58347
O_ O_ 0.0497429 0.677856 0.421834 -0.58347
O_ O_ 0.0424184 0.696086 0.376271 -0.58347
O_ O_ 0.0740953 0.72608 0.0763496 -0.46727
O_ O_ 0.238566 0.674924 0.0890554 -0.46727
O_ O_ 0.0171439 0.693003 0.219023 -0.46727
O_ O_ 0.190433 0.65101 0.235564 -0.46727
O_ O_ 0.285053 0.826558 0.175838 -0.58347
O_ O_ 0.29084 0.813542 0.130575 -0.58347
O_ O_ 0.372612 0.747442 0.185738 -0.58347
O_ O_ 0.380128 0.744485 0.138686 -0.58347
O_ O_ 0.364898 0.899958 0.172703 -0.58347
O_ O_ 0.362097 0.894615 0.127007 -0.58347
O_ O_ 0.436282 0.828183 0.17753 -0.58347
O_ O_ 0.443907 0.83178 0.130523 -0.58347
O_ O_ 0.42043 0.777647 0.327685 -0.46727
O_ O_ 0.25262 0.825479 0.341235 -0.46727
O_ O_ 0.452998 0.780987 0.475463 -0.46727
O_ O_ 0.29288 0.844152 0.488495 -0.46727
Zn Zn 0.134684 0.6891 0.879265 0.90689
Zn Zn 0.140662 0.683903 0.929021 0.90689
Zn Zn 0.367594 0.807977 0.63487 0.90689
Zn Zn 0.358089 0.813091 0.68019 0.90689
H_ H_ 0.311628 0.68171 0.945603 0.11455
H_ H_ 0.379581 0.64342 0.851118 0.11455
H_ H_ 0.290266 0.667921 0.855179 0.11455
H_ H_ 0.39757 0.674679 0.967133 0.11455
H_ H_ 0.490384 0.676187 0.957177 0.11455
H_ H_ 0.463993 0.638809 0.869268 0.11455
H_ H_ 0.138464 0.519748 0.939834 0.11455
H_ H_ 0.118773 0.943708 0.847324 0.11455
H_ H_ 0.152475 0.528976 0.848834 0.11455
H_ H_ 0.131651 0.932816 0.964607 0.11455
H_ H_ 0.1434 0.843332 0.958735 0.11455
H_ H_ 0.0970051 0.855719 0.87018 0.11455
H_ H_ 0.0851317 0.609902 0.962156 0.11455
H_ H_ 0.0538604 0.582959 0.511644 0.11455
H_ H_ 0.088957 0.627843 0.551158 0.11455
H_ H_ 0.203847 0.75144 0.973982 0.11455
H_ H_ 0.213271 0.802915 0.508274 0.11455
H_ H_ 0.184954 0.785482 0.55827 0.11455
H_ H_ 1.00847972 0.701923 0.617919 0.11455
H_ H_ 1.00484811 0.71722 0.671865 0.11455
H_ H_ 0.25765 0.655884 0.631965 0.11455
H_ H_ 0.248131 0.640198 0.679102 0.11455
H_ H_ 0.0545231 0.602673 0.744924 0.11455
H_ H_ 0.0355562 0.574999 0.791403 0.11455
H_ H_ 0.0809491 0.619782 0.834641 0.11455
H_ H_ 0.151551 0.753678 0.755252 0.11455
H_ H_ 0.195871 0.794847 0.797558 0.11455
H_ H_ 0.181181 0.75995 0.844893 0.11455
H_ H_ 0.190759 0.814279 0.696623 0.11455
H_ H_ 0.125659 0.837495 0.598153 0.11455
H_ H_ 0.216502 0.816274 0.604657 0.11455
H_ H_ 0.104868 0.801989 0.715688 0.11455
H_ H_ 0.0147584 0.813674 0.707935 0.11455
H_ H_ 0.0428014 0.845916 0.619 0.11455
H_ H_ 0.360464 0.981455 0.693203 0.11455
H_ H_ 0.429752 0.560839 0.606598 0.11455
H_ H_ 0.353691 0.963244 0.601742 0.11455
H_ H_ 0.323722 0.565136 0.708463 0.11455
H_ H_ 0.335339 0.654782 0.708206 0.11455
H_ H_ 0.412393 0.643843 0.625219 0.11455
H_ H_ 0.413866 0.878076 0.715215 0.11455
H_ H_ 0.423708 0.913844 0.760843 0.11455
H_ H_ 0.386726 0.875573 0.803526 0.11455
H_ H_ 0.295509 0.750035 0.724562 0.11455
H_ H_ 0.264062 0.69473 0.764541 0.11455
H_ H_ 0.284417 0.723832 0.814546 0.11455
H_ H_ 0.471142 0.765801 0.874975 0.11455
H_ H_ 0.484334 0.765027 0.926369 0.11455
H_ H_ 0.235146 0.856054 0.89089 0.11455
H_ H_ 0.249396 0.870072 0.939355 0.11455
H_ H_ 0.444313 0.910147 0.998078 0.11455
H_ H_ 0.459273 0.920141 0.550054 0.11455
H_ H_ 0.420702 0.879965 0.590875 0.11455
H_ H_ 0.334886 0.747603 0.510875 0.11455
H_ H_ 0.303601 0.700173 0.551061 0.11455
H_ H_ 0.317807 0.730025 0.597855 0.11455
C_ C_ 0.236498 0.684458 0.902809 0.68181
C_ C_ 0.293306 0.677058 0.901286 -0.05681
C_ C_ 0.325527 0.67388 0.924916 -0.08735
C_ C_ 0.377674 0.66614 0.921749 -0.05681
C_ C_ 0.39785 0.657556 0.894224 -0.05681
C_ C_ 0.36488 0.656804 0.871334 -0.08735
C_ C_ 0.313023 0.668587 0.874533 -0.08735
C_ C_ 0.411173 0.668069 0.946228 -0.08735
C_ C_ 0.464678 0.666146 0.941377 -0.08735
C_ C_ 0.483841 0.655969 0.913511 -0.05681
C_ C_ 0.450268 0.648508 0.891174 -0.08735
C_ C_ 0.128365 0.785377 0.910877 0.68181
C_ C_ 0.134544 0.588069 0.89448 0.68181
C_ C_ 0.138695 0.530775 0.893952 -0.05681
C_ C_ 0.121899 1.00122 0.922286 -0.08735
C_ C_ 0.122527 0.947871 0.920022 -0.05681
C_ C_ 0.119378 0.924409 0.892802 -0.05681
C_ C_ 0.11651 0.956018 0.868622 -0.08735
C_ C_ 0.1223 0.00754695 0.871679 -0.08735
C_ C_ 0.127228 0.915923 0.944172 -0.08735
C_ C_ 0.132147 0.863617 0.940867 -0.08735
C_ C_ 0.124345 0.840892 0.914196 -0.05681
C_ C_ 0.11122 0.871507 0.890266 -0.08735
C_ C_ 0.0373811 0.687203 0.90559 0.68181
C_ C_ 0.10537 0.629064 0.981126 0.1947
C_ C_ 0.0749208 0.617446 0.507601 -0.08735
C_ C_ 0.102598 0.636575 0.530264 -0.08735
C_ C_ 0.130584 0.683113 0.525453 -0.05681
C_ C_ 0.139503 0.700802 0.496469 0.18498
C_ C_ 0.184097 0.739441 0.993754 -0.08735
C_ C_ 0.18482 0.773701 0.513101 -0.08735
C_ C_ 0.174991 0.758415 0.541838 -0.08735
C_ C_ 0.149576 0.713479 0.548093 0.18498
C_ C_ 0.184167 0.678566 0.59252 0.44287
C_ C_ 0.0968651 0.703415 0.590192 0.44287
C_ C_ 0.0895955 0.693598 0.620056 -0.05681
C_ C_ 0.0401433 0.696445 0.633102 -0.08735
C_ C_ 0.0369767 0.697324 0.662509 -0.08735
C_ C_ 0.0809042 0.689049 0.679156 -0.05681
C_ C_ 0.128854 0.675718 0.666533 -0.05681
C_ C_ 0.133739 0.679944 0.636558 -0.05681
C_ C_ 0.179741 0.668308 0.622394 -0.05681
C_ C_ 0.219972 0.658126 0.64081 -0.08735
C_ C_ 0.216331 0.654745 0.670173 -0.08735
C_ C_ 0.170246 0.661583 0.684131 -0.05681
C_ C_ 0.163572 0.663016 0.714516 0.44287
C_ C_ 0.0772095 0.687392 0.709777 0.44287
C_ C_ 0.106835 0.65911 0.756719 0.18498
C_ C_ 0.072925 0.620181 0.762389 -0.08735
C_ C_ 0.0588858 0.607658 0.789698 -0.08735
C_ C_ 0.0799807 0.635788 0.812622 -0.08735
C_ C_ 0.115818 0.672146 0.808742 0.18498
C_ C_ 0.127506 0.687899 0.780464 -0.05681
C_ C_ 0.156259 0.732421 0.774893 -0.08735
C_ C_ 0.178639 0.755966 0.798074 -0.08735
C_ C_ 0.167883 0.736324 0.826296 0.1947
C_ C_ 0.267282 0.809118 0.655538 0.68181
C_ C_ 0.211788 0.809682 0.651473 -0.05681
C_ C_ 0.176527 0.810152 0.674293 -0.08735
C_ C_ 0.124944 0.812142 0.670151 -0.05681
C_ C_ 0.10474 0.820428 0.642846 -0.05681
C_ C_ 0.139021 0.825352 0.619331 -0.08735
C_ C_ 0.191988 0.815548 0.623542 -0.08735
C_ C_ 0.0915323 0.811433 0.694467 -0.08735
C_ C_ 0.0398658 0.818368 0.68982 -0.08735
C_ C_ 0.0210646 0.826498 0.66263 -0.05681
C_ C_ 0.053238 0.829188 0.639034 -0.08735
C_ C_ 0.364744 0.710703 0.662201 0.68181
C_ C_ 0.352283 0.907952 0.650873 0.68181
C_ C_ 0.354536 0.964454 0.648576 -0.05681
C_ C_ 0.358587 0.499073 0.670971 -0.08735
C_ C_ 0.368225 0.551252 0.670539 -0.05681
C_ C_ 0.398316 0.573479 0.648694 -0.05681
C_ C_ 0.41526 0.542811 0.625633 -0.08735
C_ C_ 0.35321 0.987583 0.620132 -0.08735
C_ C_ 0.343537 0.581878 0.690616 -0.08735
C_ C_ 0.350635 0.633631 0.689485 -0.08735
C_ C_ 0.375746 0.657201 0.666297 -0.05681
C_ C_ 0.397625 0.626639 0.644957 -0.08735
C_ C_ 0.463261 0.810304 0.656023 0.68181
C_ C_ 0.395418 0.859433 0.732647 0.1947
C_ C_ 0.401607 0.879485 0.759524 -0.08735
C_ C_ 0.376268 0.860373 0.78394 -0.08735
C_ C_ 0.344898 0.819393 0.779406 -0.05681
C_ C_ 0.337005 0.800266 0.750747 0.18498
C_ C_ 0.307914 0.756369 0.746259 -0.08735
C_ C_ 0.293005 0.725328 0.769166 -0.08735
C_ C_ 0.301477 0.743646 0.797182 -0.08735
C_ C_ 0.328217 0.789043 0.802532 0.18498
C_ C_ 0.303357 0.823343 0.84906 0.44287
C_ C_ 0.385558 0.787331 0.844369 0.44287
C_ C_ 0.394548 0.793913 0.874329 -0.05681
C_ C_ 0.440871 0.780667 0.887516 -0.08735
C_ C_ 0.447169 0.780472 0.916752 -0.08735
C_ C_ 0.407029 0.79753 0.935196 -0.05681
C_ C_ 0.361675 0.815967 0.922108 -0.05681
C_ C_ 0.355335 0.812308 0.891877 -0.05681
C_ C_ 0.309433 0.827224 0.879071 -0.05681
C_ C_ 0.272333 0.849201 0.897815 -0.08735
C_ C_ 0.281679 0.857679 0.926724 -0.08735
C_ C_ 0.326209 0.838473 0.940502 -0.05681
C_ C_ 0.338957 0.851505 0.968734 0.44287
C_ C_ 0.417683 0.812274 0.963912 0.44287
C_ C_ 0.389158 0.838834 0.511689 0.18498
C_ C_ 0.41951 0.88148 0.517676 -0.08735
C_ C_ 0.431633 0.892099 0.545906 -0.08735
C_ C_ 0.410521 0.866983 0.568301 -0.08735
C_ C_ 0.380288 0.824054 0.563527 0.18498
C_ C_ 0.373376 0.8066 0.535211 -0.05681
C_ C_ 0.349311 0.758604 0.53111 -0.08735
C_ C_ 0.330773 0.730667 0.554667 -0.08735
C_ C_ 0.337946 0.749433 0.581292 0.1947
N_ N_ 0.135152 0.671094 0.976217 -0.29468
N_ N_ 0.142822 0.697326 0.577314 -0.17154
N_ N_ 0.116969 0.667981 0.726221 -0.17154
N_ N_ 0.139011 0.694574 0.830985 -0.29468
N_ N_ 0.359288 0.823222 0.727951 -0.29468
N_ N_ 0.339944 0.80228 0.833092 -0.17154
N_ N_ 0.383433 0.836811 0.980401 -0.17154
N_ N_ 0.361924 0.794222 0.585426 -0.29468
O_ O_ 0.215313 0.678675 0.926363 -0.58347
O_ O_ 0.209877 0.696028 0.880939 -0.58347
O_ O_ 0.14601 0.759194 0.931824 -0.58347
O_ O_ 0.122784 0.765323 0.885679 -0.58347
O_ O_ 0.131118 0.610508 0.919297 -0.58347
O_ O_ 0.147091 0.614632 0.873636 -0.58347
O_ O_ 0.0656154 0.685846 0.927279 -0.58347
O_ O_ 0.0560487 0.683218 0.87985 -0.58347
O_ O_ 0.0604074 0.725349 0.57608 -0.46727
O_ O_ 0.227422 0.674896 0.580086 -0.46727
O_ O_ 0.0345595 0.697814 0.721989 -0.46727
O_ O_ 0.201881 0.650323 0.731996 -0.46727
O_ O_ 0.285765 0.821113 0.680311 -0.58347
O_ O_ 0.296262 0.799995 0.634621 -0.58347
O_ O_ 0.350607 0.736093 0.682922 -0.58347
O_ O_ 0.37822 0.733859 0.639903 -0.58347
O_ O_ 0.356949 0.88798 0.674991 -0.58347
O_ O_ 0.350638 0.880154 0.629125 -0.58347
O_ O_ 0.435123 0.804301 0.677533 -0.58347
O_ O_ 0.444397 0.819458 0.632417 -0.58347
O_ O_ 0.422667 0.771262 0.82816 -0.46727
O_ O_ 0.261183 0.839049 0.837179 -0.46727
O_ O_ 0.458777 0.792846 0.976374 -0.46727
O_ O_ 0.302576 0.868957 0.985887 -0.46727
Zn Zn 0.618591 0.184069 0.383667 0.90689
Zn Zn 0.629151 0.18162 0.433486 0.90689
Zn Zn 0.881292 0.325197 0.131248 0.90689
Zn Zn 0.868838 0.330934 0.179583 0.90689
H_ H_ 0.796443 0.166039 0.446318 0.11455
H_ H_ 0.86063 0.168583 0.346127 0.11455
H_ H_ 0.773238 0.166069 0.354997 0.11455
H_ H_ 0.888584 0.165707 0.462773 0.11455
H_ H_ 0.977864 0.17764 0.454365 0.11455
H_ H_ 0.948141 0.176062 0.363605 0.11455
H_ H_ 0.608061 0.0137076 0.443195 0.11455
H_ H_ 0.567274 0.435853 0.350285 0.11455
H_ H_ 0.666961 0.027597 0.358728 0.11455
H_ H_ 0.672261 0.430934 0.453952 0.11455
H_ H_ 0.660766 0.34203 0.45536 0.11455
H_ H_ 0.585873 0.350015 0.371938 0.11455
H_ H_ 0.595697 0.0914175 0.472043 0.11455
H_ H_ 0.582126 0.080214 0.0171867 0.11455
H_ H_ 0.615476 0.128679 0.0584821 0.11455
H_ H_ 0.694557 0.232866 0.474361 0.11455
H_ H_ 0.732072 0.304561 0.0151589 0.11455
H_ H_ 0.712229 0.282576 0.0656452 0.11455
H_ H_ 0.522227 0.226122 0.119346 0.11455
H_ H_ 0.508833 0.221789 0.174437 0.11455
H_ H_ 0.770819 0.183854 0.143083 0.11455
H_ H_ 0.750186 0.171971 0.19519 0.11455
H_ H_ 0.561332 0.0913183 0.247219 0.11455
H_ H_ 0.530051 0.0705518 0.293733 0.11455
H_ H_ 0.555246 0.120359 0.336541 0.11455
H_ H_ 0.651639 0.250937 0.260994 0.11455
H_ H_ 0.683944 0.290875 0.303793 0.11455
H_ H_ 0.675499 0.247499 0.352507 0.11455
H_ H_ 0.700222 0.32864 0.193343 0.11455
H_ H_ 0.637526 0.343036 0.0912838 0.11455
H_ H_ 0.731083 0.325924 0.104117 0.11455
H_ H_ 0.611106 0.353788 0.208752 0.11455
H_ H_ 0.521954 0.359305 0.200528 0.11455
H_ H_ 0.546553 0.341698 0.109834 0.11455
H_ H_ 0.862202 0.491508 0.189131 0.11455
H_ H_ 0.919226 0.0749528 0.104557 0.11455
H_ H_ 0.876268 0.487119 0.0995531 0.11455
H_ H_ 0.823701 0.0822923 0.208456 0.11455
H_ H_ 0.835062 0.173623 0.204734 0.11455
H_ H_ 0.912427 0.158358 0.123187 0.11455
H_ H_ 0.932899 0.399192 0.211601 0.11455
H_ H_ 0.963558 0.411814 0.26332 0.11455
H_ H_ 0.913111 0.384688 0.305096 0.11455
H_ H_ 0.803043 0.283741 0.221148 0.11455
H_ H_ 0.759687 0.235968 0.258556 0.11455
H_ H_ 0.77584 0.25486 0.308167 0.11455
H_ H_ 0.983677 0.283045 0.369902 0.11455
H_ H_ 0.00125413 0.28367 0.419652 0.11455
H_ H_ 0.745445 0.362944 0.390528 0.11455
H_ H_ 0.754506 0.349649 0.439811 0.11455
H_ H_ 0.948876 0.391033 0.49773 0.11455
H_ H_ 0.985175 0.420764 0.0474063 0.11455
H_ H_ 0.93752 0.383541 0.0898459 0.11455
H_ H_ 0.859245 0.241756 0.0115997 0.11455
H_ H_ 0.817681 0.203671 0.0525439 0.11455
H_ H_ 0.826053 0.244908 0.101417 0.11455
C_ C_ 0.721185 0.175138 0.406857 0.68181
C_ C_ 0.779531 0.171752 0.402007 -0.05681
C_ C_ 0.813101 0.167747 0.425047 -0.08735
C_ C_ 0.865566 0.174372 0.419286 -0.05681
C_ C_ 0.884378 0.178781 0.390913 -0.05681
C_ C_ 0.850505 0.173126 0.368278 -0.08735
C_ C_ 0.798454 0.171051 0.37351 -0.08735
C_ C_ 0.899487 0.174972 0.441376 -0.08735
C_ C_ 0.950425 0.178243 0.436942 -0.08735
C_ C_ 0.9714 0.17659 0.40844 -0.05681
C_ C_ 0.936302 0.174976 0.385374 -0.08735
C_ C_ 0.618485 0.281984 0.414222 0.68181
C_ C_ 0.627687 0.0802701 0.401819 0.68181
C_ C_ 0.631142 0.0252387 0.39975 -0.05681
C_ C_ 0.639425 0.496472 0.416323 -0.08735
C_ C_ 0.632045 0.44397 0.415096 -0.05681
C_ C_ 0.608407 0.421411 0.391902 -0.05681
C_ C_ 0.592215 0.453059 0.368713 -0.08735
C_ C_ 0.598494 0.505244 0.370112 -0.08735
C_ C_ 0.649855 0.41405 0.436897 -0.08735
C_ C_ 0.643937 0.362396 0.438145 -0.08735
C_ C_ 0.620569 0.337498 0.414595 -0.05681
C_ C_ 0.602957 0.365809 0.391251 -0.08735
C_ C_ 0.523608 0.182271 0.411148 0.68181
C_ C_ 0.594822 0.122602 0.486599 0.1947
C_ C_ 0.611227 0.109152 0.0133721 -0.08735
C_ C_ 0.623765 0.140132 0.0363603 -0.08735
C_ C_ 0.653299 0.183192 0.0321935 -0.05681
C_ C_ 0.667725 0.193847 1.00262154 0.18498
C_ C_ 0.685982 0.226221 0.497176 -0.08735
C_ C_ 0.71567 0.265859 0.0201292 -0.08735
C_ C_ 0.696817 0.259807 0.047378 -0.08735
C_ C_ 0.671498 0.214643 0.054465 0.18498
C_ C_ 0.69712 0.192868 0.103007 0.44287
C_ C_ 0.611336 0.213309 0.0948444 0.44287
C_ C_ 0.601804 0.208862 0.124111 -0.05681
C_ C_ 0.553939 0.218862 0.134901 -0.08735
C_ C_ 0.544639 0.217402 0.164662 -0.08735
C_ C_ 0.583893 0.198439 0.183729 -0.05681
C_ C_ 0.63252 0.190144 0.17282 -0.05681
C_ C_ 0.640919 0.198499 0.143089 -0.05681
C_ C_ 0.691611 0.193757 0.131767 -0.05681
C_ C_ 0.731114 0.180082 0.149903 -0.08735
C_ C_ 0.721083 0.173256 0.179714 -0.08735
C_ C_ 0.672002 0.177424 0.190823 -0.05681
C_ C_ 0.660528 0.16859 0.219434 0.44287
C_ C_ 0.575961 0.188492 0.212343 0.44287
C_ C_ 0.600325 0.157229 0.259221 0.18498
C_ C_ 0.566899 0.11759 0.2645 -0.08735
C_ C_ 0.548171 0.105441 0.291884 -0.08735
C_ C_ 0.565673 0.131573 0.31555 -0.08735
C_ C_ 0.604009 0.16979 0.313163 0.18498
C_ C_ 0.617305 0.185268 0.284366 -0.05681
C_ C_ 0.64303 0.232269 0.281633 -0.08735
C_ C_ 0.669003 0.25397 0.305215 -0.08735
C_ C_ 0.658859 0.233412 0.332365 0.1947
C_ C_ 0.776813 0.324324 0.154326 0.68181
C_ C_ 0.71957 0.328565 0.148897 -0.05681
C_ C_ 0.684664 0.331033 0.17093 -0.08735
C_ C_ 0.633599 0.340072 0.165145 -0.05681
C_ C_ 0.614254 0.344106 0.136787 -0.05681
C_ C_ 0.64935 0.337656 0.114129 -0.08735
C_ C_ 0.702404 0.333969 0.12026 -0.08735
C_ C_ 0.599509 0.344939 0.188043 -0.08735
C_ C_ 0.547882 0.346506 0.18316 -0.08735
C_ C_ 0.527534 0.339416 0.154935 -0.05681
C_ C_ 0.561641 0.339777 0.131278 -0.08735
C_ C_ 0.878648 0.229797 0.163615 0.68181
C_ C_ 0.870276 0.426635 0.145018 0.68181
C_ C_ 0.873265 0.483053 0.144059 -0.05681
C_ C_ 0.854748 0.0125425 0.169051 -0.08735
C_ C_ 0.865118 0.06511 0.168824 -0.05681
C_ C_ 0.886221 0.0874299 0.143759 -0.05681
C_ C_ 0.903421 0.0568 0.12227 -0.08735
C_ C_ 0.874378 0.507841 0.117918 -0.08735
C_ C_ 0.849294 0.0976793 0.191132 -0.08735
C_ C_ 0.852411 0.150242 0.188046 -0.08735
C_ C_ 0.873074 0.173547 0.164295 -0.05681
C_ C_ 0.893017 0.141524 0.141578 -0.08735
C_ C_ 0.975084 0.334577 0.160152 0.68181
C_ C_ 0.913311 0.384284 0.230048 0.1947
C_ C_ 0.925202 0.398461 0.258897 -0.08735
C_ C_ 0.899318 0.376411 0.282559 -0.08735
C_ C_ 0.860541 0.340426 0.276877 -0.05681
C_ C_ 0.849675 0.327504 0.248609 0.18498
C_ C_ 0.810756 0.294227 0.242616 -0.08735
C_ C_ 0.78666 0.266375 0.26401 -0.08735
C_ C_ 0.798622 0.278322 0.29284 -0.08735
C_ C_ 0.835766 0.312973 0.300361 0.18498
C_ C_ 0.812816 0.334837 0.349724 0.44287
C_ C_ 0.898247 0.307484 0.340437 0.44287
C_ C_ 0.905572 0.305995 0.370852 -0.05681
C_ C_ 0.954119 0.29511 0.382269 -0.08735
C_ C_ 0.963355 0.298024 0.411915 -0.08735
C_ C_ 0.924422 0.307535 0.432163 -0.05681
C_ C_ 0.875689 0.316493 0.419804 -0.05681
C_ C_ 0.86651 0.315125 0.389963 -0.05681
C_ C_ 0.819425 0.331516 0.379178 -0.05681
C_ C_ 0.782686 0.348111 0.398618 -0.08735
C_ C_ 0.788748 0.344675 0.426679 -0.08735
C_ C_ 0.835568 0.328773 0.437696 -0.05681
C_ C_ 0.844339 0.331735 0.467346 0.44287
C_ C_ 0.929556 0.31042 0.462022 0.44287
C_ C_ 0.915491 0.331512 0.0115362 0.18498
C_ C_ 0.951956 0.369709 0.016811 -0.08735
C_ C_ 0.957358 0.389986 0.0442763 -0.08735
C_ C_ 0.931434 0.36831 0.0678522 -0.08735
C_ C_ 0.899484 0.325986 0.0633378 0.18498
C_ C_ 0.892283 0.305558 0.0349731 -0.05681
C_ C_ 0.863139 0.262298 0.0318517 -0.08735
C_ C_ 0.839681 0.239473 0.0543326 -0.08735
C_ C_ 0.846913 0.260557 0.0823071 0.1947
N_ N_ 0.626391 0.163137 0.481118 -0.29468
N_ N_ 0.659085 0.204344 0.0844841 -0.17154
N_ N_ 0.61238 0.17343 0.230238 -0.17154
N_ N_ 0.627588 0.192849 0.335076 -0.29468
N_ N_ 0.87411 0.351751 0.226454 -0.29468
N_ N_ 0.849181 0.318947 0.33044 -0.17154
N_ N_ 0.889015 0.317535 0.479832 -0.17154
N_ N_ 0.876696 0.302445 0.086661 -0.29468
O_ O_ 0.704948 0.188897 0.431718 -0.58347
O_ O_ 0.693618 0.18462 0.385027 -0.58347
O_ O_ 0.625638 0.257003 0.436508 -0.58347
O_ O_ 0.615246 0.259568 0.390574 -0.58347
O_ O_ 0.635833 0.10217 0.426153 -0.58347
O_ O_ 0.617302 0.10598 0.379816 -0.58347
O_ O_ 0.553093 0.17388 0.432543 -0.58347
O_ O_ 0.54108 0.186683 0.385888 -0.58347
O_ O_ 0.576952 0.232469 0.0779609 -0.46727
O_ O_ 0.743906 0.182816 0.0915567 -0.46727
O_ O_ 0.530061 0.193419 0.221035 -0.46727
O_ O_ 0.697313 0.148047 0.23477 -0.46727
O_ O_ 0.793652 0.338389 0.177651 -0.58347
O_ O_ 0.808439 0.311882 0.133753 -0.58347
O_ O_ 0.864735 0.256337 0.184246 -0.58347
O_ O_ 0.894905 0.250844 0.141231 -0.58347
O_ O_ 0.878146 0.404472 0.168693 -0.58347
O_ O_ 0.864393 0.40211 0.122965 -0.58347
O_ O_ 0.945358 0.325137 0.180468 -0.58347
O_ O_ 0.959296 0.338795 0.135546 -0.58347
O_ O_ 0.933753 0.296811 0.32203 -0.46727
O_ O_ 0.772207 0.355973 0.339256 -0.46727
O_ O_ 0.975208 0.314409 0.472625 -0.46727
O_ O_ 0.807352 0.347753 0.484618 -0.46727
Zn Zn 0.628672 0.178703 0.885377 0.90689
Zn Zn 0.643222 0.176084 0.93255 0.90689
Zn Zn 0.869748 0.309727 0.632663 0.90689
Zn Zn 0.864702 0.315568 0.682285 0.90689
H_ H_ 0.817836 0.183139 0.944903 0.11455
H_ H_ 0.87719 0.16398 0.844364 0.11455
H_ H_ 0.780053 0.16163 0.855167 0.11455
H_ H_ 0.902941 0.17948 0.96089 0.11455
H_ H_ 0.987842 0.187823 0.95322 0.11455
H_ H_ 0.962453 0.169027 0.864114 0.11455
H_ H_ 0.645735 0.00911295 0.944446 0.11455
H_ H_ 0.649856 0.43379 0.847079 0.11455
H_ H_ 0.628489 0.0180281 0.855512 0.11455
H_ H_ 0.636722 0.426104 0.966265 0.11455
H_ H_ 0.612449 0.334364 0.960154 0.11455
H_ H_ 0.639055 0.34709 0.869157 0.11455
H_ H_ 0.602981 0.10196 0.968277 0.11455
H_ H_ 0.550442 0.0816129 0.519541 0.11455
H_ H_ 0.585977 0.128373 0.558572 0.11455
H_ H_ 0.710471 0.245268 0.975773 0.11455
H_ H_ 0.72997 0.286897 0.513458 0.11455
H_ H_ 0.708503 0.267053 0.564522 0.11455
H_ H_ 0.512655 0.20878 0.626231 0.11455
H_ H_ 0.501002 0.208372 0.677052 0.11455
H_ H_ 0.761716 0.151569 0.642903 0.11455
H_ H_ 0.749975 0.140719 0.694316 0.11455
H_ H_ 0.566638 0.0846729 0.752203 0.11455
H_ H_ 0.539692 0.067375 0.805154 0.11455
H_ H_ 0.575973 0.12025 0.843968 0.11455
H_ H_ 0.655691 0.248357 0.760372 0.11455
H_ H_ 0.697615 0.288012 0.79832 0.11455
H_ H_ 0.688944 0.258282 0.848803 0.11455
H_ H_ 0.697884 0.329428 0.698355 0.11455
H_ H_ 0.631462 0.320314 0.60034 0.11455
H_ H_ 0.717635 0.310238 0.607799 0.11455
H_ H_ 0.612648 0.350132 0.716859 0.11455
H_ H_ 0.524593 0.329812 0.712897 0.11455
H_ H_ 0.535422 0.319381 0.620989 0.11455
H_ H_ 0.876947 0.482831 0.69527 0.11455
H_ H_ 0.910322 0.0582916 0.603251 0.11455
H_ H_ 0.868882 0.469573 0.603004 0.11455
H_ H_ 0.818744 0.0683807 0.709329 0.11455
H_ H_ 0.835535 0.159632 0.707286 0.11455
H_ H_ 0.914143 0.140936 0.626511 0.11455
H_ H_ 0.928192 0.376339 0.718388 0.11455
H_ H_ 0.93758 0.406584 0.769421 0.11455
H_ H_ 0.887298 0.375162 0.807495 0.11455
H_ H_ 0.806834 0.246795 0.725664 0.11455
H_ H_ 0.768902 0.200341 0.767219 0.11455
H_ H_ 0.791575 0.218457 0.816096 0.11455
H_ H_ 0.994583 0.280129 0.87004 0.11455
H_ H_ 0.00987356 0.287495 0.92195 0.11455
H_ H_ 0.7508 0.327932 0.895843 0.11455
H_ H_ 0.761551 0.328443 0.947324 0.11455
H_ H_ 0.969038 0.391565 0.99869485 0.11455
H_ H_ 0.964443 0.420723 0.549094 0.11455
H_ H_ 0.923463 0.376611 0.589885 0.11455
H_ H_ 0.849197 0.235022 0.510197 0.11455
H_ H_ 0.807847 0.20099 0.551696 0.11455
H_ H_ 0.822974 0.234482 0.59759 0.11455
C_ C_ 0.733986 0.180733 0.90564 0.68181
C_ C_ 0.791827 0.172044 0.90015 -0.05681
C_ C_ 0.828401 0.169323 0.922864 -0.08735
C_ C_ 0.879313 0.163176 0.917527 -0.05681
C_ C_ 0.896074 0.157428 0.889479 -0.05681
C_ C_ 0.862262 0.167052 0.866202 -0.08735
C_ C_ 0.809516 0.165715 0.872263 -0.08735
C_ C_ 0.914415 0.169885 0.939652 -0.08735
C_ C_ 0.965975 0.178651 0.934665 -0.08735
C_ C_ 0.9833 0.178251 0.907548 -0.05681
C_ C_ 0.950438 0.165286 0.885545 -0.08735
C_ C_ 0.630169 0.276894 0.916253 0.68181
C_ C_ 0.645907 0.0794082 0.902679 0.68181
C_ C_ 0.641902 0.0222736 0.900765 -0.05681
C_ C_ 0.644282 0.494335 0.923747 -0.08735
C_ C_ 0.64034 0.441391 0.921256 -0.05681
C_ C_ 0.639325 0.418816 0.893178 -0.05681
C_ C_ 0.646985 0.448773 0.868501 -0.08735
C_ C_ 0.655352 0.501996 0.872163 -0.08735
C_ C_ 0.635626 0.408897 0.944732 -0.08735
C_ C_ 0.623758 0.357964 0.941266 -0.08735
C_ C_ 0.62794 0.333856 0.915785 -0.05681
C_ C_ 0.634257 0.364922 0.890838 -0.08735
C_ C_ 0.536089 0.169903 0.912782 0.68181
C_ C_ 0.620185 0.123649 0.985302 0.1947
C_ C_ 0.578764 0.114201 0.514618 -0.08735
C_ C_ 0.60032 0.138361 0.537931 -0.08735
C_ C_ 0.637252 0.177515 0.532632 -0.05681
C_ C_ 0.648604 0.188487 0.502978 0.18498
C_ C_ 0.697304 0.237442 0.997475 -0.08735
C_ C_ 0.705869 0.255954 0.519502 -0.08735
C_ C_ 0.694571 0.243529 0.548679 -0.08735
C_ C_ 0.65962 0.203799 0.555086 0.18498
C_ C_ 0.690656 0.177493 0.602427 0.44287
C_ C_ 0.603381 0.202507 0.596681 0.44287
C_ C_ 0.59299 0.189687 0.625266 -0.05681
C_ C_ 0.544093 0.197682 0.638322 -0.08735
C_ C_ 0.538053 0.196567 0.667747 -0.08735
C_ C_ 0.580413 0.185671 0.686636 -0.05681
C_ C_ 0.627446 0.170287 0.673975 -0.05681
C_ C_ 0.633877 0.178178 0.644346 -0.05681
C_ C_ 0.682584 0.169742 0.632152 -0.05681
C_ C_ 0.724702 0.160438 0.65209 -0.08735
C_ C_ 0.71646 0.150688 0.680509 -0.08735
C_ C_ 0.667685 0.158247 0.692727 -0.05681
C_ C_ 0.658518 0.156938 0.723018 0.44287
C_ C_ 0.572508 0.179943 0.716559 0.44287
C_ C_ 0.605052 0.154196 0.764748 0.18498
C_ C_ 0.580533 0.107974 0.770038 -0.08735
C_ C_ 0.566726 0.0972636 0.799226 -0.08735
C_ C_ 0.583666 0.130927 0.821522 -0.08735
C_ C_ 0.613973 0.172688 0.816005 0.18498
C_ C_ 0.621922 0.187102 0.787148 -0.05681
C_ C_ 0.651679 0.229714 0.781148 -0.08735
C_ C_ 0.675345 0.254354 0.802974 -0.08735
C_ C_ 0.667125 0.240294 0.831619 0.1947
C_ C_ 0.771092 0.316111 0.656742 0.68181
C_ C_ 0.715375 0.318579 0.653882 -0.05681
C_ C_ 0.68328 0.328138 0.67769 -0.08735
C_ C_ 0.630065 0.328895 0.672833 -0.05681
C_ C_ 0.60836 0.321385 0.645305 -0.05681
C_ C_ 0.641691 0.319793 0.622028 -0.08735
C_ C_ 0.693154 0.314189 0.627008 -0.08735
C_ C_ 0.596519 0.340087 0.695657 -0.08735
C_ C_ 0.545575 0.335652 0.692648 -0.08735
C_ C_ 0.524222 0.323838 0.665644 -0.05681
C_ C_ 0.554493 0.322055 0.641462 -0.08735
C_ C_ 0.874056 0.213179 0.663207 0.68181
C_ C_ 0.871498 0.412688 0.652232 0.68181
C_ C_ 0.869672 0.469425 0.649927 -0.05681
C_ C_ 0.840596 -0.00214488 0.670272 -0.08735
C_ C_ 0.853516 0.0514335 0.669747 -0.05681
C_ C_ 0.880439 0.0722169 0.646063 -0.05681
C_ C_ 0.888063 0.0432583 0.621498 -0.08735
C_ C_ 0.873418 0.493533 0.622102 -0.08735
C_ C_ 0.838047 0.0830691 0.69077 -0.08735
C_ C_ 0.851946 0.135197 0.691172 -0.08735
C_ C_ 0.873223 0.156961 0.66666 -0.05681
C_ C_ 0.888624 0.125032 0.643844 -0.08735
C_ C_ 0.967681 0.314188 0.659961 0.68181
C_ C_ 0.907578 0.360024 0.735952 0.1947
C_ C_ 0.913223 0.375971 0.763802 -0.08735
C_ C_ 0.886595 0.35524 0.785864 -0.08735
C_ C_ 0.859722 0.309883 0.781131 -0.05681
C_ C_ 0.853704 0.292739 0.752097 0.18498
C_ C_ 0.822123 0.251906 0.747064 -0.08735
C_ C_ 0.800876 0.225408 0.771216 -0.08735
C_ C_ 0.813889 0.237292 0.798797 -0.08735
C_ C_ 0.845135 0.277724 0.804545 0.18498
C_ C_ 0.817622 0.308824 0.852186 0.44287
C_ C_ 0.903757 0.28808 0.844068 0.44287
C_ C_ 0.913846 0.297227 0.872799 -0.05681
C_ C_ 0.963532 0.291733 0.884412 -0.08735
C_ C_ 0.971677 0.289326 0.914718 -0.08735
C_ C_ 0.933455 0.300774 0.933406 -0.05681
C_ C_ 0.884897 0.307416 0.923466 -0.05681
C_ C_ 0.873231 0.304251 0.892137 -0.05681
C_ C_ 0.824221 0.308476 0.88291 -0.05681
C_ C_ 0.786381 0.317739 0.903497 -0.08735
C_ C_ 0.79527 0.318781 0.933739 -0.08735
C_ C_ 0.845648 0.316372 0.943395 -0.05681
C_ C_ 0.856861 0.323937 0.972876 0.44287
C_ C_ 0.942932 0.301027 0.963594 0.44287
C_ C_ 0.89789 0.331807 0.509492 0.18498
C_ C_ 0.928253 0.374803 0.516026 -0.08735
C_ C_ 0.939997 0.38905 0.544532 -0.08735
C_ C_ 0.916421 0.364526 0.567157 -0.08735
C_ C_ 0.886799 0.322122 0.562377 0.18498
C_ C_ 0.880061 0.302884 0.533452 -0.05681
C_ C_ 0.857351 0.253402 0.530829 -0.08735
C_ C_ 0.83666 0.231431 0.554628 -0.08735
C_ C_ 0.841165 0.252957 0.581147 0.1947
N_ N_ 0.648417 0.16569 0.979833 -0.29468
N_ N_ 0.650814 0.191993 0.584519 -0.17154
N_ N_ 0.611445 0.165356 0.734582 -0.17154
N_ N_ 0.63365 0.202725 0.83785 -0.29468
N_ N_ 0.875184 0.320029 0.730076 -0.29468
N_ N_ 0.853896 0.290192 0.834814 -0.17154
N_ N_ 0.905022 0.316373 0.982326 -0.17154
N_ N_ 0.867917 0.29643 0.58545 -0.29468
O_ O_ 0.715802 0.187715 0.930497 -0.58347
O_ O_ 0.704411 0.184345 0.884198 -0.58347
O_ O_ 0.635747 0.249882 0.938727 -0.58347
O_ O_ 0.622533 0.2547 0.892318 -0.58347
O_ O_ 0.654577 0.101476 0.926101 -0.58347
O_ O_ 0.636913 0.104143 0.879774 -0.58347
O_ O_ 0.565154 0.16191 0.934015 -0.58347
O_ O_ 0.554942 0.171042 0.887886 -0.58347
O_ O_ 0.568583 0.224472 0.581116 -0.46727
O_ O_ 0.737284 0.178001 0.592256 -0.46727
O_ O_ 0.526538 0.189395 0.727588 -0.46727
O_ O_ 0.69882 0.147059 0.738566 -0.46727
O_ O_ 0.790878 0.323782 0.680955 -0.58347
O_ O_ 0.796198 0.300422 0.635819 -0.58347
O_ O_ 0.865117 0.241932 0.684462 -0.58347
O_ O_ 0.880499 0.232702 0.638932 -0.58347
O_ O_ 0.86963 0.393105 0.677226 -0.58347
O_ O_ 0.860557 0.385741 0.629741 -0.58347
O_ O_ 0.940033 0.312356 0.681536 -0.58347
O_ O_ 0.946077 0.315358 0.635385 -0.58347
O_ O_ 0.938334 0.267191 0.826767 -0.46727
O_ O_ 0.771949 0.31329 0.842527 -0.46727
O_ O_ 0.98976 0.291984 0.973577 -0.46727
O_ O_ 0.818704 0.335012 0.990891 -0.46727
Zn Zn 0.61611 0.683061 0.3828 0.90689
Zn Zn 0.626778 0.681831 0.430805 0.90689
Zn Zn 0.870194 0.823213 0.133135 0.90689
Zn Zn 0.86044 0.830049 0.181048 0.90689
H_ H_ 0.795038 0.692787 0.440392 0.11455
H_ H_ 0.858064 0.676783 0.34268 0.11455
H_ H_ 0.766768 0.674386 0.354729 0.11455
H_ H_ 0.883223 0.692005 0.458871 0.11455
H_ H_ 0.976061 0.687252 0.449922 0.11455
H_ H_ 0.945283 0.679864 0.360519 0.11455
H_ H_ 0.663632 0.513041 0.4328 0.11455
H_ H_ 0.667242 0.929095 0.35342 0.11455
H_ H_ 0.582396 0.529321 0.353834 0.11455
H_ H_ 0.614769 0.925044 0.468472 0.11455
H_ H_ 0.600372 0.837254 0.462207 0.11455
H_ H_ 0.638824 0.846489 0.371433 0.11455
H_ H_ 0.563549 0.616599 0.465261 0.11455
H_ H_ 0.576457 0.57029 0.0136191 0.11455
H_ H_ 0.607913 0.618242 0.0548 0.11455
H_ H_ 0.688477 0.742915 0.476217 0.11455
H_ H_ 0.722369 0.800453 0.0141346 0.11455
H_ H_ 0.690737 0.782469 0.0650565 0.11455
H_ H_ 0.508747 0.71867 0.121799 0.11455
H_ H_ 0.492865 0.711168 0.174133 0.11455
H_ H_ 0.753469 0.666582 0.141802 0.11455
H_ H_ 0.739682 0.656713 0.193431 0.11455
H_ H_ 0.55323 0.588661 0.250211 0.11455
H_ H_ 0.531568 0.568925 0.301738 0.11455
H_ H_ 0.566328 0.619864 0.340255 0.11455
H_ H_ 0.656042 0.743591 0.257835 0.11455
H_ H_ 0.67551 0.796853 0.296882 0.11455
H_ H_ 0.6583 0.769798 0.347368 0.11455
H_ H_ 0.692577 0.810045 0.19215 0.11455
H_ H_ 0.624139 0.838561 0.0917579 0.11455
H_ H_ 0.713509 0.840056 0.102909 0.11455
H_ H_ 0.606791 0.7984 0.209117 0.11455
H_ H_ 0.51811 0.797148 0.201534 0.11455
H_ H_ 0.537121 0.842762 0.114915 0.11455
H_ H_ 0.840954 0.99372156 0.189013 0.11455
H_ H_ 0.878968 0.579755 0.0981426 0.11455
H_ H_ 0.906566 0.980569 0.104337 0.11455
H_ H_ 0.871342 0.576529 0.214272 0.11455
H_ H_ 0.870842 0.666565 0.2117 0.11455
H_ H_ 0.884012 0.661423 0.121706 0.11455
H_ H_ 0.90152 0.90766 0.217086 0.11455
H_ H_ 0.9113 0.938825 0.267791 0.11455
H_ H_ 0.86814 0.899084 0.30547 0.11455
H_ H_ 0.805133 0.755211 0.223905 0.11455
H_ H_ 0.770765 0.70428 0.262828 0.11455
H_ H_ 0.787493 0.734935 0.312741 0.11455
H_ H_ 0.973301 0.811257 0.369603 0.11455
H_ H_ -0.009382000000000001 0.817107 0.420111 0.11455
H_ H_ 0.725212 0.835587 0.395681 0.11455
H_ H_ 0.74112 0.843324 0.443337 0.11455
H_ H_ 0.930624 0.909891 0.500269 0.11455
H_ H_ 0.982599 0.924518 0.0505821 0.11455
H_ H_ 0.948112 0.867926 0.0882915 0.11455
H_ H_ 0.851482 0.756902 0.0102032 0.11455
H_ H_ 0.820095 0.705274 0.0519987 0.11455
H_ H_ 0.822869 0.74808 0.0994272 0.11455
C_ C_ 0.720753 0.688564 0.404644 0.68181
C_ C_ 0.775914 0.68894 0.398355 -0.05681
C_ C_ 0.81048 0.688501 0.420222 -0.08735
C_ C_ 0.862699 0.68826 0.414902 -0.05681
C_ C_ 0.88 0.686513 0.386814 -0.05681
C_ C_ 0.84415 0.678102 0.364891 -0.08735
C_ C_ 0.793291 0.682793 0.370888 -0.08735
C_ C_ 0.8979 0.695491 0.437515 -0.08735
C_ C_ 0.949893 0.691595 0.431677 -0.08735
C_ C_ 0.968151 0.691767 0.404187 -0.05681
C_ C_ 0.933058 0.685968 0.38113 -0.08735
C_ C_ 0.615911 0.777655 0.412804 0.68181
C_ C_ 0.62083 0.584784 0.397454 0.68181
C_ C_ 0.619262 0.529063 0.394497 -0.05681
C_ C_ 0.620316 0.995411 0.423702 -0.08735
C_ C_ 0.620173 0.942633 0.420838 -0.05681
C_ C_ 0.631645 0.917848 0.394915 -0.05681
C_ C_ 0.651556 0.949325 0.372068 -0.08735
C_ C_ 0.650808 1.00186295 0.375315 -0.08735
C_ C_ 0.61323 0.912039 0.445932 -0.08735
C_ C_ 0.602768 0.861058 0.442037 -0.08735
C_ C_ 0.613677 0.834359 0.415463 -0.05681
C_ C_ 0.62487 0.864201 0.391236 -0.08735
C_ C_ 0.522929 0.676658 0.407838 0.68181
C_ C_ 0.583151 0.633519 0.483557 0.1947
C_ C_ 0.600718 0.603778 0.00911023 -0.08735
C_ C_ 0.613668 0.634429 0.0324485 -0.08735
C_ C_ 0.640725 0.678724 0.0286272 -0.05681
C_ C_ 0.652509 0.692589 0.99960118 0.18498
C_ C_ 0.679197 0.729469 0.498939 -0.08735
C_ C_ 0.70061 0.764574 0.0193245 -0.08735
C_ C_ 0.682576 0.754875 0.04713 -0.08735
C_ C_ 0.653081 0.711776 0.0541695 0.18498
C_ C_ 0.681916 0.692372 0.100911 0.44287
C_ C_ 0.597146 0.708938 0.0946275 0.44287
C_ C_ 0.587728 0.706485 0.124535 -0.05681
C_ C_ 0.539687 0.706202 0.135482 -0.08735
C_ C_ 0.530448 0.701946 0.165318 -0.08735
C_ C_ 0.570933 0.695439 0.184364 -0.05681
C_ C_ 0.620266 0.690536 0.173842 -0.05681
C_ C_ 0.628573 0.69308 0.143184 -0.05681
C_ C_ 0.675799 0.688688 0.131322 -0.05681
C_ C_ 0.716699 0.674639 0.14983 -0.08735
C_ C_ 0.708794 0.671103 0.179898 -0.08735
C_ C_ 0.660311 0.677876 0.191996 -0.05681
C_ C_ 0.649961 0.661076 0.219859 0.44287
C_ C_ 0.563169 0.685814 0.214057 0.44287
C_ C_ 0.594132 0.657626 0.261521 0.18498
C_ C_ 0.565965 0.614773 0.267115 -0.08735
C_ C_ 0.553926 0.602113 0.29609 -0.08735
C_ C_ 0.575575 0.628654 0.318341 -0.08735
C_ C_ 0.604588 0.672497 0.312854 0.18498
C_ C_ 0.613691 0.687281 0.284075 -0.05681
C_ C_ 0.639815 0.733274 0.278043 -0.08735
C_ C_ 0.652544 0.764845 0.301605 -0.08735
C_ C_ 0.648054 0.747277 0.329774 0.1947
C_ C_ 0.765263 0.822763 0.152014 0.68181
C_ C_ 0.708825 0.823417 0.148604 -0.05681
C_ C_ 0.676329 0.812409 0.170308 -0.08735
C_ C_ 0.625595 0.818098 0.166171 -0.05681
C_ C_ 0.605403 0.82856 0.138768 -0.05681
C_ C_ 0.63698 0.835604 0.114612 -0.08735
C_ C_ 0.688877 0.831327 0.119595 -0.08735
C_ C_ 0.592783 0.811017 0.189103 -0.08735
C_ C_ 0.540469 0.812916 0.18465 -0.08735
C_ C_ 0.520645 0.825228 0.15752 -0.05681
C_ C_ 0.55226 0.832081 0.135307 -0.08735
C_ C_ 0.873025 0.728681 0.166102 0.68181
C_ C_ 0.865554 0.924854 0.15008 0.68181
C_ C_ 0.868366 0.980539 0.146099 -0.05681
C_ C_ 0.871148 0.511289 0.168842 -0.08735
C_ C_ 0.868532 0.564914 0.167552 -0.05681
C_ C_ 0.87434 0.589119 0.141416 -0.05681
C_ C_ 0.879164 0.560691 0.117339 -0.08735
C_ C_ 0.893144 1.00446182 0.12195 -0.08735
C_ C_ 0.869318 0.593226 0.192957 -0.08735
C_ C_ 0.866603 0.646422 0.192006 -0.08735
C_ C_ 0.870694 0.670855 0.165896 -0.05681
C_ C_ 0.87626 0.641833 0.140871 -0.08735
C_ C_ 0.96255 0.825697 0.161274 0.68181
C_ C_ 0.886622 0.885064 0.233889 0.1947
C_ C_ 0.888646 0.904682 0.261826 -0.08735
C_ C_ 0.863342 0.882342 0.284553 -0.08735
C_ C_ 0.840946 0.835561 0.278743 -0.05681
C_ C_ 0.834032 0.817391 0.250019 0.18498
C_ C_ 0.812398 0.769138 0.245352 -0.08735
C_ C_ 0.794361 0.739989 0.268099 -0.08735
C_ C_ 0.802105 0.758736 0.295924 -0.08735
C_ C_ 0.8255 0.804874 0.302442 0.18498
C_ C_ 0.796925 0.823364 0.351916 0.44287
C_ C_ 0.884072 0.813222 0.342838 0.44287
C_ C_ 0.89366 0.817408 0.372622 -0.05681
C_ C_ 0.9429 0.819187 0.382664 -0.08735
C_ C_ 0.953028 0.821989 0.412506 -0.08735
C_ C_ 0.913211 0.820363 0.431449 -0.05681
C_ C_ 0.863169 0.826756 0.421981 -0.05681
C_ C_ 0.853789 0.823155 0.391737 -0.05681
C_ C_ 0.804002 0.827568 0.38186 -0.05681
C_ C_ 0.764752 0.836685 0.402245 -0.08735
C_ C_ 0.774913 0.839029 0.430846 -0.08735
C_ C_ 0.822341 0.829627 0.44235 -0.05681
C_ C_ 0.834877 0.832414 0.470853 0.44287
C_ C_ 0.922691 0.819574 0.461107 0.44287
C_ C_ 0.905023 0.844532 0.00978807 0.18498
C_ C_ 0.941898 0.88256 0.0167973 -0.08735
C_ C_ 0.952304 0.894927 0.0451631 -0.08735
C_ C_ 0.931755 0.86724 0.0679387 -0.08735
C_ C_ 0.894311 0.831411 0.0628465 0.18498
C_ C_ 0.882897 0.817695 0.0340012 -0.05681
C_ C_ 0.855616 0.773818 0.03095 -0.08735
C_ C_ 0.83753 0.744646 0.0540815 -0.08735
C_ C_ 0.843114 0.764601 0.0813464 0.1947
N_ N_ 0.619878 0.668694 0.47995 -0.29468
N_ N_ 0.642573 0.69859 0.083518 -0.17154
N_ N_ 0.602689 0.669386 0.23161 -0.17154
N_ N_ 0.622853 0.701767 0.335508 -0.29468
N_ N_ 0.85594 0.844385 0.228251 -0.29468
N_ N_ 0.835831 0.816052 0.332276 -0.17154
N_ N_ 0.884616 0.824662 0.480238 -0.17154
N_ N_ 0.870891 0.807214 0.0858722 -0.29468
O_ O_ 0.704581 0.675457 0.428946 -0.58347
O_ O_ 0.692277 0.700828 0.384921 -0.58347
O_ O_ 0.629313 0.751775 0.43515 -0.58347
O_ O_ 0.602919 0.754875 0.390207 -0.58347
O_ O_ 0.616547 0.60602 0.421358 -0.58347
O_ O_ 0.630128 0.613588 0.376271 -0.58347
O_ O_ 0.550678 0.686872 0.429734 -0.58347
O_ O_ 0.540071 0.673377 0.382434 -0.58347
O_ O_ 0.559274 0.719494 0.0775522 -0.46727
O_ O_ 0.728133 0.689488 0.0881858 -0.46727
O_ O_ 0.517855 0.693984 0.226468 -0.46727
O_ O_ 0.684998 0.63994 0.235025 -0.46727
O_ O_ 0.783623 0.81652 0.17704 -0.58347
O_ O_ 0.794768 0.823443 0.130145 -0.58347
O_ O_ 0.866244 0.754639 0.187732 -0.58347
O_ O_ 0.873403 0.751195 0.142104 -0.58347
O_ O_ 0.851047 0.905336 0.174212 -0.58347
O_ O_ 0.871192 0.896786 0.128157 -0.58347
O_ O_ 0.933225 0.841042 0.180158 -0.58347
O_ O_ 0.943181 0.81944 0.136008 -0.58347
O_ O_ 0.924489 0.813523 0.325927 -0.46727
O_ O_ 0.751302 0.833507 0.341507 -0.46727
O_ O_ 0.969367 0.818816 0.470797 -0.46727
O_ O_ 0.798099 0.842798 0.490356 -0.46727
Zn Zn 0.630521 0.680625 0.883017 0.90689
Zn Zn 0.642322 0.674226 0.931071 0.90689
Zn Zn 0.870424 0.81101 0.631944 0.90689
Zn Zn 0.860612 0.815737 0.679047 0.90689
H_ H_ 0.804741 0.705109 0.939714 0.11455
H_ H_ 0.880716 0.657034 0.848203 0.11455
H_ H_ 0.787749 0.65614 0.854269 0.11455
H_ H_ 0.8935 0.69596 0.963619 0.11455
H_ H_ 0.984988 0.688521 0.955705 0.11455
H_ H_ 0.961812 0.672605 0.865603 0.11455
H_ H_ 0.632923 0.513143 0.944503 0.11455
H_ H_ 0.646212 0.925881 0.851425 0.11455
H_ H_ 0.671459 0.524618 0.853778 0.11455
H_ H_ 0.635511 0.926462 0.96728 0.11455
H_ H_ 0.642744 0.832532 0.962577 0.11455
H_ H_ 0.634958 0.841975 0.871036 0.11455
H_ H_ 0.592849 0.599929 0.965212 0.11455
H_ H_ 0.543271 0.589962 0.514733 0.11455
H_ H_ 0.585939 0.624231 0.556475 0.11455
H_ H_ 0.699152 0.740165 0.975251 0.11455
H_ H_ 0.728816 0.782832 0.518294 0.11455
H_ H_ 0.714316 0.758043 0.566131 0.11455
H_ H_ 0.516625 0.6857 0.622846 0.11455
H_ H_ 0.502175 0.6665 0.675372 0.11455
H_ H_ 0.762127 0.633778 0.639394 0.11455
H_ H_ 0.749373 0.619967 0.690475 0.11455
H_ H_ 0.563974 0.570681 0.752183 0.11455
H_ H_ 0.528772 0.55977 0.80204 0.11455
H_ H_ 0.558702 0.620965 0.838579 0.11455
H_ H_ 0.665708 0.719844 0.755752 0.11455
H_ H_ 0.701155 0.773555 0.794061 0.11455
H_ H_ 0.683889 0.750494 0.845501 0.11455
H_ H_ 0.689733 0.766996 0.692765 0.11455
H_ H_ 0.627467 0.824974 0.59637 0.11455
H_ H_ 0.714789 0.820488 0.604608 0.11455
H_ H_ 0.603892 0.768184 0.709854 0.11455
H_ H_ 0.514443 0.768821 0.701102 0.11455
H_ H_ 0.537531 0.817567 0.614452 0.11455
H_ H_ 0.821202 0.982184 0.688397 0.11455
H_ H_ 0.887645 0.561393 0.598615 0.11455
H_ H_ 0.889501 0.965821 0.607686 0.11455
H_ H_ 0.851963 0.569337 0.714153 0.11455
H_ H_ 0.871076 0.659755 0.711626 0.11455
H_ H_ 0.891136 0.64532 0.620395 0.11455
H_ H_ 0.912335 0.888191 0.715238 0.11455
H_ H_ 0.924687 0.923237 0.764299 0.11455
H_ H_ 0.877087 0.881653 0.804318 0.11455
H_ H_ 0.793837 0.753116 0.724629 0.11455
H_ H_ 0.778827 0.693708 0.764557 0.11455
H_ H_ 0.806718 0.717468 0.812976 0.11455
H_ H_ 0.986639 0.786706 0.86782 0.11455
H_ H_ 1.0046771 0.804587 0.918925 0.11455
H_ H_ 0.744201 0.853284 0.894065 0.11455
H_ H_ 0.758697 0.855595 0.943398 0.11455
H_ H_ 0.96159 0.90631 1.000875243 0.11455
H_ H_ 0.944833 0.934326 0.550582 0.11455
H_ H_ 0.91816 0.877429 0.590003 0.11455
H_ H_ 0.836518 0.753624 0.507523 0.11455
H_ H_ 0.812617 0.696482 0.550356 0.11455
H_ H_ 0.823417 0.729115 0.597507 0.11455
C_ C_ 0.732977 0.680674 0.901393 0.68181
C_ C_ 0.79139 0.682374 0.897636 -0.05681
C_ C_ 0.822528 0.694127 0.919921 -0.08735
C_ C_ 0.874947 0.693693 0.917005 -0.05681
C_ C_ 0.89526 0.679697 0.890904 -0.05681
C_ C_ 0.864032 0.671008 0.867029 -0.08735
C_ C_ 0.811931 0.671232 0.871132 -0.08735
C_ C_ 0.90686 0.694579 0.941668 -0.08735
C_ C_ 0.960918 0.692751 0.937367 -0.08735
C_ C_ 0.9824 0.684878 0.909749 -0.05681
C_ C_ 0.948405 0.678032 0.886865 -0.08735
C_ C_ 0.64004 0.774178 0.912696 0.68181
C_ C_ 0.642593 0.580714 0.900902 0.68181
C_ C_ 0.6486 0.5245 0.89932 -0.05681
C_ C_ 0.647049 -0.00851500000000005 0.924154 -0.08735
C_ C_ 0.647391 0.936464 0.922475 -0.05681
C_ C_ 0.64233 0.912861 0.895061 -0.05681
C_ C_ 0.638573 0.943918 0.871872 -0.08735
C_ C_ 0.636121 -0.00346364 0.874086 -0.08735
C_ C_ 0.643095 0.909157 0.947061 -0.08735
C_ C_ 0.645568 0.855258 0.944127 -0.08735
C_ C_ 0.637789 0.831923 0.916352 -0.05681
C_ C_ 0.638147 0.860094 0.892266 -0.08735
C_ C_ 0.537679 0.667339 0.908723 0.68181
C_ C_ 0.604799 0.623351 0.982196 0.1947
C_ C_ 0.56851 0.618882 0.511099 -0.08735
C_ C_ 0.593289 0.638003 0.535205 -0.08735
C_ C_ 0.629983 0.677639 0.531817 -0.05681
C_ C_ 0.641444 0.692905 0.502861 0.18498
C_ C_ 0.685196 0.733256 0.995951 -0.08735
C_ C_ 0.708197 0.748697 0.521691 -0.08735
C_ C_ 0.696635 0.736201 0.548741 -0.08735
C_ C_ 0.659981 0.697287 0.554524 0.18498
C_ C_ 0.69261 0.666654 0.60017 0.44287
C_ C_ 0.606084 0.693983 0.597118 0.44287
C_ C_ 0.596957 0.67792 0.625711 -0.05681
C_ C_ 0.54788 0.679919 0.637326 -0.08735
C_ C_ 0.539814 0.665287 0.666038 -0.08735
C_ C_ 0.580869 0.657424 0.68469 -0.05681
C_ C_ 0.631381 0.655158 0.6723 -0.05681
C_ C_ 0.637719 0.665421 0.64309 -0.05681
C_ C_ 0.686435 0.662822 0.630486 -0.05681
C_ C_ 0.726646 0.644314 0.647874 -0.08735
C_ C_ 0.718191 0.636461 0.677461 -0.08735
C_ C_ 0.671891 0.644047 0.689651 -0.05681
C_ C_ 0.66225 0.633762 0.71913 0.44287
C_ C_ 0.576307 0.65465 0.71447 0.44287
C_ C_ 0.606355 0.634004 0.761213 0.18498
C_ C_ 0.575639 0.595357 0.768737 -0.08735
C_ C_ 0.560797 0.584703 0.797669 -0.08735
C_ C_ 0.580929 0.617982 0.819205 -0.08735
C_ C_ 0.613287 0.658964 0.812628 0.18498
C_ C_ 0.627361 0.666017 0.783559 -0.05681
C_ C_ 0.657774 0.709082 0.77702 -0.08735
C_ C_ 0.679994 0.737712 0.798516 -0.08735
C_ C_ 0.669614 0.72572 0.827673 0.1947
C_ C_ 0.766287 0.800999 0.652072 0.68181
C_ C_ 0.710564 0.791942 0.64823 -0.05681
C_ C_ 0.676406 0.78461 0.672322 -0.08735
C_ C_ 0.624123 0.794085 0.668706 -0.05681
C_ C_ 0.606981 0.808681 0.641752 -0.05681
C_ C_ 0.63952 0.813817 0.617752 -0.08735
C_ C_ 0.689683 0.809363 0.621917 -0.08735
C_ C_ 0.589167 0.782846 0.69028 -0.08735
C_ C_ 0.53856 0.788321 0.686695 -0.08735
C_ C_ 0.517811 0.801511 0.659651 -0.05681
C_ C_ 0.553359 0.812014 0.63709 -0.08735
C_ C_ 0.874359 0.717331 0.662178 0.68181
C_ C_ 0.854824 0.911544 0.648777 0.68181
C_ C_ 0.857646 0.966934 0.647172 -0.05681
C_ C_ 0.874542 0.500012 0.674321 -0.08735
C_ C_ 0.87669 0.552616 0.670767 -0.05681
C_ C_ 0.885155 0.576049 0.643962 -0.05681
C_ C_ 0.88717 0.545038 0.619436 -0.08735
C_ C_ 0.877977 0.990869 0.624161 -0.08735
C_ C_ 0.87148 0.582363 0.695495 -0.08735
C_ C_ 0.874566 0.635974 0.692887 -0.08735
C_ C_ 0.87932 0.659275 0.665867 -0.05681
C_ C_ 0.886835 0.628126 0.640845 -0.08735
C_ C_ 0.964662 0.820178 0.657093 0.68181
C_ C_ 0.895027 0.869128 0.733651 0.1947
C_ C_ 0.905123 0.88808 0.760372 -0.08735
C_ C_ 0.879838 0.863458 0.783329 -0.08735
C_ C_ 0.849447 0.822038 0.779383 -0.05681
C_ C_ 0.841322 0.803762 0.750853 0.18498
C_ C_ 0.812112 0.761309 0.745696 -0.08735
C_ C_ 0.800595 0.728345 0.767636 -0.08735
C_ C_ 0.810638 0.742592 0.795739 -0.08735
C_ C_ 0.835115 0.789787 0.802967 0.18498
C_ C_ 0.807014 0.812327 0.851895 0.44287
C_ C_ 0.893985 0.791773 0.842657 0.44287
C_ C_ 0.906158 0.800187 0.87253 -0.05681
C_ C_ 0.955985 0.799588 0.880836 -0.08735
C_ C_ 0.966212 0.809944 0.910936 -0.08735
C_ C_ 0.925788 0.81551 0.93108 -0.05681
C_ C_ 0.876319 0.82586 0.920692 -0.05681
C_ C_ 0.866486 0.820413 0.890535 -0.05681
C_ C_ 0.818216 0.826359 0.880461 -0.05681
C_ C_ 0.780023 0.842371 0.900502 -0.08735
C_ C_ 0.789928 0.843209 0.929503 -0.08735
C_ C_ 0.839887 0.839301 0.940421 -0.05681
C_ C_ 0.847619 0.839225 0.969625 0.44287
C_ C_ 0.932611 0.818085 0.961418 0.44287
C_ C_ 0.895565 0.838173 0.510034 0.18498
C_ C_ 0.91987 0.884776 0.516582 -0.08735
C_ C_ 0.929903 0.897637 0.545948 -0.08735
C_ C_ 0.913594 0.867182 0.568321 -0.08735
C_ C_ 0.8897 0.820566 0.562495 0.18498
C_ C_ 0.88072 0.806387 0.533166 -0.05681
C_ C_ 0.851973 0.762413 0.528556 -0.08735
C_ C_ 0.839191 0.729459 0.552288 -0.08735
C_ C_ 0.843344 0.748478 0.580162 0.1947
N_ N_ 0.636309 0.663925 0.977567 -0.29468
N_ N_ 0.651768 0.685831 0.584481 -0.17154
N_ N_ 0.615508 0.640871 0.731046 -0.17154
N_ N_ 0.634781 0.688884 0.833844 -0.29468
N_ N_ 0.863388 0.828962 0.728539 -0.29468
N_ N_ 0.845869 0.79987 0.832945 -0.17154
N_ N_ 0.894451 0.832605 0.980048 -0.17154
N_ N_ 0.873835 0.7897 0.584718 -0.29468
O_ O_ 0.715269 0.682383 0.926876 -0.58347
O_ O_ 0.705093 0.682068 0.879691 -0.58347
O_ O_ 0.637206 0.747294 0.934684 -0.58347
O_ O_ 0.631532 0.754269 0.888912 -0.58347
O_ O_ 0.646708 0.599678 0.92583 -0.58347
O_ O_ 0.634401 0.607577 0.87915 -0.58347
O_ O_ 0.569629 0.668753 0.930106 -0.58347
O_ O_ 0.554129 0.677551 0.884231 -0.58347
O_ O_ 0.567517 0.704867 0.581538 -0.46727
O_ O_ 0.73538 0.656887 0.588109 -0.46727
O_ O_ 0.530216 0.6595 0.726165 -0.46727
O_ O_ 0.69834 0.614826 0.735424 -0.46727
O_ O_ 0.784102 0.807946 0.677141 -0.58347
O_ O_ 0.796061 0.797387 0.630888 -0.58347
O_ O_ 0.86956 0.741651 0.685005 -0.58347
O_ O_ 0.879422 0.737031 0.638447 -0.58347
O_ O_ 0.853749 0.889341 0.67334 -0.58347
O_ O_ 0.860485 0.883128 0.626224 -0.58347
O_ O_ 0.936529 0.821622 0.678964 -0.58347
O_ O_ 0.944235 0.825247 0.632273 -0.58347
O_ O_ 0.929093 0.774289 0.825709 -0.46727
O_ O_ 0.761118 0.818041 0.842538 -0.46727
O_ O_ 0.976481 0.805201 0.972477 -0.46727
O_ O_ 0.809776 0.834823 0.988528 -0.46727
