_cell_length_a 26.376
_cell_length_b 26.400000238300095
_cell_length_c 46.67800035477134
_cell_angle_alpha 90.00700052986613
_cell_angle_beta 89.99899961309502
_cell_angle_gamma 90.45000003183146
_symmetry_space_group_name_H-M         'P 1'
_symmetry_Int_Tables_number            1
loop_
_symmetry_equiv_pos_as_xyz
   'x, y, z'
                         
loop_
_atom_site_label
_atom_site_type_symbol
_atom_site_fract_x 
_atom_site_fract_y
_atom_site_fract_z
_atom_site_charge
Zn Zn 0.124665 0.184205 0.383281 0.90689
Zn Zn 0.133284 0.176358 0.431382 0.90689
Zn Zn 0.3677 0.309669 0.132199 0.90689
Zn Zn 0.357796 0.317846 0.179323 0.90689
H_ H_ 0.309076 0.200387 0.450806 0.11455
H_ H_ 0.372859 0.186296 0.350238 0.11455
H_ H_ 0.281493 0.184778 0.358223 0.11455
H_ H_ 0.397096 0.198042 0.467708 0.11455
H_ H_ 0.488366 0.192054 0.458573 0.11455
H_ H_ 0.459985 0.184678 0.368464 0.11455
H_ H_ 0.147804 0.013419 0.446632 0.11455
H_ H_ 0.0771595 0.439253 0.355772 0.11455
H_ H_ 0.12217 0.021157 0.35775 0.11455
H_ H_ 0.165426 0.425801 0.463885 0.11455
H_ H_ 0.137306 0.335403 0.462584 0.11455
H_ H_ 0.0963146 0.35085 0.374404 0.11455
H_ H_ 0.0936459 0.0974389 0.466973 0.11455
H_ H_ 0.087439 0.0610136 0.016165 0.11455
H_ H_ 0.132389 0.108652 0.0565088 0.11455
H_ H_ 0.187574 0.248977 0.474379 0.11455
H_ H_ 0.210312 0.302265 0.00828742 0.11455
H_ H_ 0.193698 0.279146 0.0606394 0.11455
H_ H_ 0.0189618 0.210557 0.118245 0.11455
H_ H_ 0.0033105 0.189184 0.169316 0.11455
H_ H_ 0.265143 0.160965 0.139352 0.11455
H_ H_ 0.248967 0.145871 0.190254 0.11455
H_ H_ 0.0646068 0.0858249 0.249855 0.11455
H_ H_ 0.0389371 0.0656896 0.299164 0.11455
H_ H_ 0.0741083 0.115812 0.34111 0.11455
H_ H_ 0.148721 0.248954 0.258428 0.11455
H_ H_ 0.183342 0.299781 0.297157 0.11455
H_ H_ 0.178225 0.264568 0.348235 0.11455
H_ H_ 0.185993 0.281643 0.188333 0.11455
H_ H_ 0.121795 0.330352 0.0924824 0.11455
H_ H_ 0.216698 0.332256 0.101974 0.11455
H_ H_ 0.106319 0.309431 0.209469 0.11455
H_ H_ 0.0131714 0.319603 0.203747 0.11455
H_ H_ 0.0352333 0.319769 0.110955 0.11455
H_ H_ 0.345007 0.483533 0.191829 0.11455
H_ H_ 0.400327 0.0648243 0.104188 0.11455
H_ H_ 0.357978 0.473219 0.0994146 0.11455
H_ H_ 0.345461 0.0673306 0.215859 0.11455
H_ H_ 0.359082 0.159566 0.211085 0.11455
H_ H_ 0.367276 0.144266 0.119454 0.11455
H_ H_ 0.411099 0.386062 0.213242 0.11455
H_ H_ 0.429464 0.41174 0.264591 0.11455
H_ H_ 0.393415 0.364216 0.304459 0.11455
H_ H_ 0.293647 0.249493 0.222474 0.11455
H_ H_ 0.278015 0.191283 0.262821 0.11455
H_ H_ 0.300726 0.212377 0.311771 0.11455
H_ H_ 0.485723 0.296041 0.371159 0.11455
H_ H_ 0.495732 0.312337 0.423689 0.11455
H_ H_ 0.232804 0.32563 0.38826 0.11455
H_ H_ 0.245912 0.338296 0.438514 0.11455
H_ H_ 0.425663 0.426289 0.500283 0.11455
H_ H_ 0.449594 0.427449 0.0488072 0.11455
H_ H_ 0.417385 0.374723 0.0912433 0.11455
H_ H_ 0.342932 0.237 0.00758267 0.11455
H_ H_ 0.306598 0.194965 0.0489483 0.11455
H_ H_ 0.318439 0.220636 0.0982629 0.11455
C_ C_ 0.230172 0.189363 0.407567 0.68181
C_ C_ 0.285539 0.190209 0.40499 -0.05681
C_ C_ 0.320972 0.192919 0.428463 -0.08735
C_ C_ 0.373766 0.184756 0.423538 -0.05681
C_ C_ 0.393802 0.184921 0.394824 -0.05681
C_ C_ 0.359131 0.184814 0.372409 -0.08735
C_ C_ 0.306795 0.183815 0.376959 -0.08735
C_ C_ 0.41022 0.190412 0.446609 -0.08735
C_ C_ 0.462151 0.19136 0.441055 -0.08735
C_ C_ 0.481003 0.184638 0.412467 -0.05681
C_ C_ 0.445359 0.181222 0.390131 -0.08735
C_ C_ 0.113231 0.280742 0.413953 0.68181
C_ C_ 0.142064 0.0809057 0.402484 0.68181
C_ C_ 0.14397 0.0231225 0.401113 -0.05681
C_ C_ 0.148108 0.496007 0.422379 -0.08735
C_ C_ 0.136249 0.442745 0.420851 -0.05681
C_ C_ 0.115026 0.422499 0.396116 -0.05681
C_ C_ 0.0982506 0.454706 0.374124 -0.08735
C_ C_ 0.101406 0.505695 0.377441 -0.08735
C_ C_ 0.147332 0.410905 0.444465 -0.08735
C_ C_ 0.133918 0.35926 0.443358 -0.08735
C_ C_ 0.11994 0.33649 0.41658 -0.05681
C_ C_ 0.109428 0.369187 0.393702 -0.08735
C_ C_ 0.0300573 0.177297 0.406328 0.68181
C_ C_ 0.104666 0.122919 0.485388 0.1947
C_ C_ 0.109382 0.0948255 0.0113756 -0.08735
C_ C_ 0.132256 0.121556 0.0345737 -0.08735
C_ C_ 0.154297 0.170272 0.0283701 -0.05681
C_ C_ 0.152851 0.188144 0.998743 0.18498
C_ C_ 0.179671 0.23905 0.496808 -0.08735
C_ C_ 0.190017 0.265597 0.013947 -0.08735
C_ C_ 0.184592 0.253007 0.042247 -0.08735
C_ C_ 0.165179 0.205781 0.050407 0.18498
C_ C_ 0.19398 0.181725 0.0982946 0.44287
C_ C_ 0.108848 0.204495 0.0913541 0.44287
C_ C_ 0.097853 0.193943 0.120667 -0.05681
C_ C_ 0.0505409 0.203177 0.132412 -0.08735
C_ C_ 0.0413966 0.190965 0.161978 -0.08735
C_ C_ 0.0818901 0.186831 0.181902 -0.05681
C_ C_ 0.128981 0.180537 0.169767 -0.05681
C_ C_ 0.138316 0.182763 0.139415 -0.05681
C_ C_ 0.186857 0.17493 0.127855 -0.05681
C_ C_ 0.226759 0.162801 0.146269 -0.08735
C_ C_ 0.2174 0.155839 0.176022 -0.08735
C_ C_ 0.170881 0.166295 0.188601 -0.05681
C_ C_ 0.160031 0.157187 0.218759 0.44287
C_ C_ 0.0756086 0.185488 0.212191 0.44287
C_ C_ 0.103632 0.155057 0.25992 0.18498
C_ C_ 0.0781696 0.110259 0.266814 -0.08735
C_ C_ 0.0686675 0.0966732 0.295042 -0.08735
C_ C_ 0.0856377 0.125743 0.319066 -0.08735
C_ C_ 0.114102 0.17055 0.313235 0.18498
C_ C_ 0.121408 0.186452 0.283951 -0.05681
C_ C_ 0.146575 0.232535 0.279095 -0.08735
C_ C_ 0.170686 0.259641 0.301551 -0.08735
C_ C_ 0.165386 0.239885 0.329605 0.1947
C_ C_ 0.263374 0.302587 0.152483 0.68181
C_ C_ 0.207749 0.307056 0.146568 -0.05681
C_ C_ 0.172723 0.29849 0.168823 -0.08735
C_ C_ 0.121996 0.305875 0.165444 -0.05681
C_ C_ 0.102492 0.314545 0.137773 -0.05681
C_ C_ 0.136553 0.323548 0.114078 -0.08735
C_ C_ 0.188474 0.318751 0.11889 -0.08735
C_ C_ 0.0904718 0.310963 0.188801 -0.08735
C_ C_ 0.0374268 0.320017 0.185131 -0.08735
C_ C_ 0.0173511 0.318778 0.157489 -0.05681
C_ C_ 0.0491684 0.317601 0.13368 -0.08735
C_ C_ 0.366344 0.215952 0.162692 0.68181
C_ C_ 0.352316 0.413061 0.148723 0.68181
C_ C_ 0.35143 0.469242 0.146472 -0.05681
C_ C_ 0.359753 -0.0013050000000000006 0.173261 -0.08735
C_ C_ 0.359801 0.0530818 0.170958 -0.05681
C_ C_ 0.366199 0.0764069 0.144483 -0.05681
C_ C_ 0.383351 0.0458062 0.122692 -0.08735
C_ C_ 0.357151 0.494944 0.119764 -0.08735
C_ C_ 0.354189 0.0845721 0.195634 -0.08735
C_ C_ 0.362183 0.135984 0.192304 -0.08735
C_ C_ 0.365673 0.159655 0.164935 -0.05681
C_ C_ 0.370125 0.12979 0.140582 -0.08735
C_ C_ 0.460795 0.321927 0.157601 0.68181
C_ C_ 0.390262 0.369389 0.230946 0.1947
C_ C_ 0.405929 0.380177 0.259057 -0.08735
C_ C_ 0.381568 0.355833 0.28212 -0.08735
C_ C_ 0.355113 0.311762 0.277366 -0.05681
C_ C_ 0.343702 0.297034 0.248738 0.18498
C_ C_ 0.30819 0.257768 0.243354 -0.08735
C_ C_ 0.294869 0.226712 0.265488 -0.08735
C_ C_ 0.312199 0.236884 0.294375 -0.08735
C_ C_ 0.339787 0.280885 0.300305 0.18498
C_ C_ 0.306977 0.310119 0.34728 0.44287
C_ C_ 0.394343 0.292184 0.343262 0.44287
C_ C_ 0.402537 0.300992 0.373022 -0.05681
C_ C_ 0.452319 0.303491 0.385367 -0.08735
C_ C_ 0.459043 0.314219 0.415181 -0.08735
C_ C_ 0.416045 0.320511 0.433411 -0.05681
C_ C_ 0.368624 0.320705 0.420429 -0.05681
C_ C_ 0.361991 0.314333 0.390596 -0.05681
C_ C_ 0.312708 0.314836 0.378566 -0.05681
C_ C_ 0.270669 0.324552 0.397068 -0.08735
C_ C_ 0.27875 0.333532 0.425562 -0.08735
C_ C_ 0.327829 0.330698 0.438232 -0.05681
C_ C_ 0.333135 0.338908 0.467925 0.44287
C_ C_ 0.423794 0.331714 0.46267 0.44287
C_ C_ 0.387615 0.333358 0.0110393 0.18498
C_ C_ 0.414877 0.378023 0.0173629 -0.08735
C_ C_ 0.431001 0.38934 0.0450626 -0.08735
C_ C_ 0.410129 0.361106 0.0681935 -0.08735
C_ C_ 0.38126 0.315855 0.0633702 0.18498
C_ C_ 0.373443 0.298629 0.0343359 -0.05681
C_ C_ 0.350866 0.25146 0.0289473 -0.08735
C_ C_ 0.326842 0.22995 0.0526769 -0.08735
C_ C_ 0.336977 0.243088 0.0806775 0.1947
N_ N_ 0.126587 0.168823 0.480511 -0.29468
N_ N_ 0.155467 0.194272 0.0800669 -0.17154
N_ N_ 0.11486 0.169078 0.229856 -0.17154
N_ N_ 0.135475 0.198937 0.335379 -0.29468
N_ N_ 0.359394 0.329908 0.225572 -0.29468
N_ N_ 0.347559 0.297724 0.330192 -0.17154
N_ N_ 0.382746 0.340591 0.479723 -0.17154
N_ N_ 0.362889 0.287738 0.0859739 -0.29468
O_ O_ 0.21011 0.187445 0.432562 -0.58347
O_ O_ 0.200461 0.190959 0.385939 -0.58347
O_ O_ 0.120092 0.254241 0.436236 -0.58347
O_ O_ 0.118237 0.259763 0.389254 -0.58347
O_ O_ 0.145789 0.102534 0.426649 -0.58347
O_ O_ 0.131948 0.107709 0.380594 -0.58347
O_ O_ 0.0588322 0.161986 0.426758 -0.58347
O_ O_ 0.0489554 0.178724 0.380898 -0.58347
O_ O_ 0.0740052 0.224266 0.0751365 -0.46727
O_ O_ 0.238283 0.172256 0.0874599 -0.46727
O_ O_ 0.0288635 0.188582 0.222814 -0.46727
O_ O_ 0.195085 0.136058 0.235571 -0.46727
O_ O_ 0.280722 0.317403 0.176381 -0.58347
O_ O_ 0.29223 0.297368 0.132144 -0.58347
O_ O_ 0.356476 0.243183 0.184311 -0.58347
O_ O_ 0.378829 0.23712 0.139333 -0.58347
O_ O_ 0.353537 0.393029 0.174604 -0.58347
O_ O_ 0.353288 0.387243 0.126563 -0.58347
O_ O_ 0.432922 0.322343 0.179047 -0.58347
O_ O_ 0.439322 0.31484 0.133831 -0.58347
O_ O_ 0.43408 0.283491 0.325173 -0.46727
O_ O_ 0.262331 0.322088 0.335565 -0.46727
O_ O_ 0.469987 0.341367 0.472271 -0.46727
O_ O_ 0.294066 0.35629 0.483497 -0.46727
Zn Zn 0.125425 0.181705 0.882217 0.90689
Zn Zn 0.135511 0.171648 0.929162 0.90689
Zn Zn 0.370509 0.328387 0.632697 0.90689
Zn Zn 0.360197 0.330316 0.68171 0.90689
H_ H_ 0.30559 0.193115 0.940442 0.11455
H_ H_ 0.377728 0.157058 0.843268 0.11455
H_ H_ 0.281304 0.164532 0.851798 0.11455
H_ H_ 0.386738 0.19651 0.959554 0.11455
H_ H_ 0.48258 0.185787 0.953941 0.11455
H_ H_ 0.459782 0.170422 0.864738 0.11455
H_ H_ 0.169262 0.00640212 0.93865 0.11455
H_ H_ 0.117159 0.428661 0.848164 0.11455
H_ H_ 0.109348 0.0206161 0.85391 0.11455
H_ H_ 0.139068 0.421764 0.969154 0.11455
H_ H_ 0.1414 0.330859 0.962518 0.11455
H_ H_ 0.128526 0.343409 0.87047 0.11455
H_ H_ 0.0971812 0.0899954 0.965617 0.11455
H_ H_ 0.072756 0.0747304 0.517794 0.11455
H_ H_ 0.104099 0.122839 0.557606 0.11455
H_ H_ 0.188397 0.240702 0.970301 0.11455
H_ H_ 0.21361 0.30727 0.512301 0.11455
H_ H_ 0.210816 0.276568 0.563713 0.11455
H_ H_ 0.0133862 0.227997 0.622865 0.11455
H_ H_ 0.000167447 0.219758 0.67242 0.11455
H_ H_ 0.259251 0.15878 0.64 0.11455
H_ H_ 0.250409 0.162803 0.69296 0.11455
H_ H_ 0.0525717 0.0922024 0.750083 0.11455
H_ H_ 0.0463251 0.0613933 0.795494 0.11455
H_ H_ 0.0622103 0.121293 0.838778 0.11455
H_ H_ 0.142686 0.256653 0.758533 0.11455
H_ H_ 0.187191 0.295172 0.800423 0.11455
H_ H_ 0.180916 0.255097 0.846761 0.11455
H_ H_ 0.189804 0.330551 0.696031 0.11455
H_ H_ 0.126071 0.349497 0.598604 0.11455
H_ H_ 0.2182 0.35335 0.608792 0.11455
H_ H_ 0.10835 0.325846 0.715937 0.11455
H_ H_ 0.0126699 0.31691 0.706557 0.11455
H_ H_ 0.0388387 0.354819 0.619573 0.11455
H_ H_ 0.379608 0.496157 0.696315 0.11455
H_ H_ 0.346581 0.0763775 0.601639 0.11455
H_ H_ 0.324717 0.485073 0.608824 0.11455
H_ H_ 0.39112 0.0880004 0.716951 0.11455
H_ H_ 0.39281 0.179344 0.709656 0.11455
H_ H_ 0.368765 0.160864 0.618958 0.11455
H_ H_ 0.435993 0.385679 0.721488 0.11455
H_ H_ 0.439098 0.415772 0.775576 0.11455
H_ H_ 0.403059 0.362763 0.810089 0.11455
H_ H_ 0.292338 0.272648 0.724326 0.11455
H_ H_ 0.25631 0.221272 0.759773 0.11455
H_ H_ 0.268251 0.238746 0.808419 0.11455
H_ H_ 0.472335 0.279657 0.870793 0.11455
H_ H_ 0.488928 0.293824 0.921271 0.11455
H_ H_ 0.230518 0.340594 0.888958 0.11455
H_ H_ 0.242171 0.357275 0.940121 0.11455
H_ H_ 0.428012 0.402226 0.000180000000000069 0.11455
H_ H_ 0.440338 0.45497 0.548981 0.11455
H_ H_ 0.417566 0.398278 0.58892 0.11455
H_ H_ 0.34812 0.261957 0.508296 0.11455
H_ H_ 0.304468 0.223604 0.547263 0.11455
H_ H_ 0.323063 0.251099 0.598041 0.11455
C_ C_ 0.23254 0.1834 0.902508 0.68181
C_ C_ 0.2877 0.174677 0.897705 -0.05681
C_ C_ 0.320033 0.178374 0.921499 -0.08735
C_ C_ 0.371885 0.171851 0.917173 -0.05681
C_ C_ 0.391187 0.168224 0.889069 -0.05681
C_ C_ 0.360359 0.161473 0.864855 -0.08735
C_ C_ 0.307769 0.166818 0.869721 -0.08735
C_ C_ 0.404542 0.185739 0.940012 -0.08735
C_ C_ 0.457643 0.180872 0.9361 -0.08735
C_ C_ 0.477525 0.178572 0.908349 -0.05681
C_ C_ 0.443688 0.172743 0.885165 -0.08735
C_ C_ 0.127902 0.274979 0.913792 0.68181
C_ C_ 0.142527 0.0776499 0.898617 0.68181
C_ C_ 0.141211 0.0184934 0.896486 -0.05681
C_ C_ 0.133538 0.488672 0.924161 -0.08735
C_ C_ 0.132894 0.436465 0.921802 -0.05681
C_ C_ 0.131839 0.414518 0.894537 -0.05681
C_ C_ 0.122033 0.443469 0.869316 -0.08735
C_ C_ 0.133303 0.493945 0.871524 -0.08735
C_ C_ 0.136939 0.405629 0.945817 -0.08735
C_ C_ 0.135922 0.353607 0.943072 -0.08735
C_ C_ 0.134156 0.33026 0.916275 -0.05681
C_ C_ 0.132676 0.362188 0.891532 -0.08735
C_ C_ 0.0312123 0.168799 0.906461 0.68181
C_ C_ 0.111526 0.112235 0.982492 0.1947
C_ C_ 0.0976342 0.106228 0.513649 -0.08735
C_ C_ 0.113989 0.135852 0.536175 -0.08735
C_ C_ 0.142369 0.181161 0.531086 -0.05681
C_ C_ 0.148233 0.197442 0.502774 0.18498
C_ C_ 0.174772 0.233621 0.992049 -0.08735
C_ C_ 0.193843 0.271631 0.51834 -0.08735
C_ C_ 0.190258 0.255228 0.546848 -0.08735
C_ C_ 0.158581 0.214349 0.553878 0.18498
C_ C_ 0.190608 0.189908 0.600917 0.44287
C_ C_ 0.105182 0.21552 0.594322 0.44287
C_ C_ 0.0959922 0.211445 0.623856 -0.05681
C_ C_ 0.0453357 0.214315 0.635705 -0.08735
C_ C_ 0.0379136 0.213006 0.664882 -0.08735
C_ C_ 0.0779617 0.196395 0.683018 -0.05681
C_ C_ 0.12609 0.18511 0.671635 -0.05681
C_ C_ 0.136832 0.19642 0.642456 -0.05681
C_ C_ 0.184635 0.186556 0.630846 -0.05681
C_ C_ 0.224344 0.171737 0.648787 -0.08735
C_ C_ 0.216615 0.168646 0.679153 -0.08735
C_ C_ 0.167456 0.17238 0.689402 -0.05681
C_ C_ 0.155674 0.164209 0.718606 0.44287
C_ C_ 0.0699947 0.188427 0.711993 0.44287
C_ C_ 0.0964212 0.162062 0.759165 0.18498
C_ C_ 0.0698035 0.116096 0.764902 -0.08735
C_ C_ 0.0638558 0.099626 0.792946 -0.08735
C_ C_ 0.0753671 0.130776 0.81687 -0.08735
C_ C_ 0.104414 0.175806 0.8126 0.18498
C_ C_ 0.111542 0.194177 0.783116 -0.05681
C_ C_ 0.139762 0.239283 0.779978 -0.08735
C_ C_ 0.161886 0.262203 0.80398 -0.08735
C_ C_ 0.160267 0.237383 0.829452 0.1947
C_ C_ 0.267602 0.323858 0.657371 0.68181
C_ C_ 0.21116 0.328194 0.652068 -0.05681
C_ C_ 0.176897 0.322332 0.674932 -0.08735
C_ C_ 0.124956 0.32664 0.670586 -0.05681
C_ C_ 0.105895 0.334493 0.643086 -0.05681
C_ C_ 0.139808 0.340938 0.620416 -0.08735
C_ C_ 0.192662 0.33888 0.62453 -0.08735
C_ C_ 0.0916682 0.330425 0.694069 -0.08735
C_ C_ 0.0382804 0.32746 0.690021 -0.08735
C_ C_ 0.0205467 0.327552 0.661226 -0.05681
C_ C_ 0.0546285 0.340036 0.639153 -0.08735
C_ C_ 0.37095 0.233852 0.662252 0.68181
C_ C_ 0.364441 0.427156 0.652596 0.68181
C_ C_ 0.355029 0.48157 0.652161 -0.05681
C_ C_ 0.376836 0.015595 0.675871 -0.08735
C_ C_ 0.382328 0.0675748 0.671429 -0.05681
C_ C_ 0.373359 0.0900883 0.643894 -0.05681
C_ C_ 0.357465 0.0577072 0.621662 -0.08735
C_ C_ 0.339436 0.505241 0.627741 -0.08735
C_ C_ 0.39045 0.101348 0.694189 -0.08735
C_ C_ 0.38754 0.154498 0.690645 -0.08735
C_ C_ 0.373951 0.175579 0.665262 -0.05681
C_ C_ 0.371282 0.143785 0.640451 -0.08735
C_ C_ 0.466691 0.34103 0.659158 0.68181
C_ C_ 0.409734 0.371994 0.738106 0.1947
C_ C_ 0.416584 0.385332 0.768034 -0.08735
C_ C_ 0.389928 0.358503 0.789037 -0.08735
C_ C_ 0.358418 0.320387 0.781174 -0.05681
C_ C_ 0.344731 0.313036 0.750737 0.18498
C_ C_ 0.308303 0.27599 0.74553 -0.08735
C_ C_ 0.286876 0.246336 0.765935 -0.08735
C_ C_ 0.296216 0.253448 0.794494 -0.08735
C_ C_ 0.330616 0.292521 0.803088 0.18498
C_ C_ 0.300013 0.317144 0.849842 0.44287
C_ C_ 0.382916 0.286705 0.844752 0.44287
C_ C_ 0.393636 0.295743 0.873719 -0.05681
C_ C_ 0.440493 0.285837 0.885767 -0.08735
C_ C_ 0.449852 0.296459 0.9139 -0.08735
C_ C_ 0.407862 0.309839 0.933036 -0.05681
C_ C_ 0.360714 0.321288 0.922061 -0.05681
C_ C_ 0.354712 0.314635 0.891625 -0.05681
C_ C_ 0.306329 0.322825 0.879903 -0.05681
C_ C_ 0.268362 0.338551 0.897665 -0.08735
C_ C_ 0.27437 0.345073 0.927935 -0.08735
C_ C_ 0.322282 0.335731 0.940504 -0.05681
C_ C_ 0.331104 0.338016 0.970331 0.44287
C_ C_ 0.415266 0.310416 0.96313 0.44287
C_ C_ 0.391719 0.356912 0.510312 0.18498
C_ C_ 0.410228 0.404485 0.517153 -0.08735
C_ C_ 0.420684 0.41982 0.544963 -0.08735
C_ C_ 0.404638 0.389453 0.568181 -0.08735
C_ C_ 0.382118 0.342498 0.56233 0.18498
C_ C_ 0.37261 0.326643 0.533683 -0.05681
C_ C_ 0.349903 0.279675 0.528552 -0.08735
C_ C_ 0.330482 0.253219 0.551771 -0.08735
C_ C_ 0.338029 0.270858 0.579992 0.1947
N_ N_ 0.137499 0.156197 0.976647 -0.29468
N_ N_ 0.15093 0.201614 0.582958 -0.17154
N_ N_ 0.108208 0.173852 0.729102 -0.17154
N_ N_ 0.128965 0.197434 0.834486 -0.29468
N_ N_ 0.370514 0.34143 0.729855 -0.29468
N_ N_ 0.339188 0.302022 0.833422 -0.17154
N_ N_ 0.37798 0.324469 0.981336 -0.17154
N_ N_ 0.366273 0.313719 0.584336 -0.29468
O_ O_ 0.2127 0.190039 0.927646 -0.58347
O_ O_ 0.203339 0.175681 0.881418 -0.58347
O_ O_ 0.120959 0.246288 0.936092 -0.58347
O_ O_ 0.129701 0.255443 0.889023 -0.58347
O_ O_ 0.155278 0.0995507 0.921342 -0.58347
O_ O_ 0.125511 0.103573 0.877299 -0.58347
O_ O_ 0.060093 0.156874 0.926939 -0.58347
O_ O_ 0.0506277 0.182109 0.882634 -0.58347
O_ O_ 0.0686514 0.232144 0.579075 -0.46727
O_ O_ 0.233007 0.179724 0.587652 -0.46727
O_ O_ 0.0237224 0.194699 0.72226 -0.46727
O_ O_ 0.190912 0.145905 0.735933 -0.46727
O_ O_ 0.289832 0.334095 0.681866 -0.58347
O_ O_ 0.296318 0.31616 0.636253 -0.58347
O_ O_ 0.349208 0.258724 0.682033 -0.58347
O_ O_ 0.378552 0.253042 0.6386 -0.58347
O_ O_ 0.365973 0.405399 0.676637 -0.58347
O_ O_ 0.35727 0.402622 0.630075 -0.58347
O_ O_ 0.438939 0.330279 0.679369 -0.58347
O_ O_ 0.448102 0.341267 0.63378 -0.58347
O_ O_ 0.413437 0.257023 0.830001 -0.46727
O_ O_ 0.255886 0.327265 0.838356 -0.46727
O_ O_ 0.461216 0.300303 0.975028 -0.46727
O_ O_ 0.297639 0.358397 0.987322 -0.46727
Zn Zn 0.130379 0.687339 0.384308 0.90689
Zn Zn 0.137936 0.678192 0.43255 0.90689
Zn Zn 0.376438 0.813268 0.131523 0.90689
Zn Zn 0.365412 0.816767 0.180636 0.90689
H_ H_ 0.303769 0.673619 0.446377 0.11455
H_ H_ 0.376511 0.678028 0.347356 0.11455
H_ H_ 0.282998 0.683312 0.354351 0.11455
H_ H_ 0.392627 0.672492 0.465302 0.11455
H_ H_ 0.484789 0.65932 0.457864 0.11455
H_ H_ 0.462308 0.694692 0.368136 0.11455
H_ H_ 0.168932 0.510795 0.440846 0.11455
H_ H_ 0.124555 0.929255 0.352258 0.11455
H_ H_ 0.0774455 0.529825 0.363083 0.11455
H_ H_ 0.144792 0.923443 0.470442 0.11455
H_ H_ 0.125804 0.835093 0.463965 0.11455
H_ H_ 0.108594 0.846428 0.375209 0.11455
H_ H_ 0.0842935 0.605687 0.466937 0.11455
H_ H_ 0.0770344 0.558807 0.0171428 0.11455
H_ H_ 0.112201 0.606775 0.0575988 0.11455
H_ H_ 0.196353 0.739286 0.473908 0.11455
H_ H_ 0.217629 0.791251 0.0128623 0.11455
H_ H_ 0.212668 0.758316 0.0637811 0.11455
H_ H_ 0.0184425 0.683644 0.123967 0.11455
H_ H_ 0.00532909 0.694119 0.174366 0.11455
H_ H_ 0.267747 0.648563 0.142518 0.11455
H_ H_ 0.250921 0.621001 0.192314 0.11455
H_ H_ 0.0668785 0.57682 0.253209 0.11455
H_ H_ 0.0472169 0.560406 0.301746 0.11455
H_ H_ 0.0692881 0.6165 0.339487 0.11455
H_ H_ 0.160934 0.736424 0.257619 0.11455
H_ H_ 0.193238 0.788266 0.297773 0.11455
H_ H_ 0.188974 0.755847 0.346903 0.11455
H_ H_ 0.197606 0.798102 0.193067 0.11455
H_ H_ 0.12867 0.809542 0.0966794 0.11455
H_ H_ 0.217232 0.813302 0.102776 0.11455
H_ H_ 0.111633 0.802309 0.212847 0.11455
H_ H_ 0.0191619 0.80016 0.206368 0.11455
H_ H_ 0.0411266 0.819348 0.115447 0.11455
H_ H_ 0.361106 0.98118 0.193488 0.11455
H_ H_ 0.363507 0.56366 0.0967928 0.11455
H_ H_ 0.39359 0.96977 0.104516 0.11455
H_ H_ 0.349034 0.566781 0.21328 0.11455
H_ H_ 0.376088 0.660587 0.210459 0.11455
H_ H_ 0.36987 0.647136 0.116418 0.11455
H_ H_ 0.417135 0.890726 0.215027 0.11455
H_ H_ 0.420626 0.939426 0.262806 0.11455
H_ H_ 0.389773 0.891109 0.302769 0.11455
H_ H_ 0.302489 0.759636 0.223276 0.11455
H_ H_ 0.270189 0.707173 0.266965 0.11455
H_ H_ 0.294242 0.733311 0.316019 0.11455
H_ H_ 0.487804 0.806887 0.373307 0.11455
H_ H_ 0.494931 0.798605 0.42718 0.11455
H_ H_ 0.237077 0.85104 0.386903 0.11455
H_ H_ 0.243701 0.840423 0.440598 0.11455
H_ H_ 0.442381 0.898419 0.493076 0.11455
H_ H_ 0.446565 0.940693 0.0489807 0.11455
H_ H_ 0.439426 0.873268 0.0876396 0.11455
H_ H_ 0.352084 0.753408 0.00701282 0.11455
H_ H_ 0.323682 0.698358 0.0476339 0.11455
H_ H_ 0.328616 0.735076 0.0961904 0.11455
C_ C_ 0.231675 0.684599 0.405641 0.68181
C_ C_ 0.286429 0.68376 0.400546 -0.05681
C_ C_ 0.319699 0.674776 0.424447 -0.08735
C_ C_ 0.373133 0.6788 0.420579 -0.05681
C_ C_ 0.392345 0.681764 0.391947 -0.05681
C_ C_ 0.359892 0.684057 0.36852 -0.08735
C_ C_ 0.30774 0.681659 0.372901 -0.08735
C_ C_ 0.406118 0.672566 0.444265 -0.08735
C_ C_ 0.458924 0.669489 0.439793 -0.08735
C_ C_ 0.479167 0.679312 0.412206 -0.05681
C_ C_ 0.445391 0.687246 0.389432 -0.08735
C_ C_ 0.128109 0.778842 0.416237 0.68181
C_ C_ 0.135954 0.580976 0.402208 0.68181
C_ C_ 0.131286 0.526058 0.400081 -0.05681
C_ C_ 0.143763 0.993242 0.426268 -0.08735
C_ C_ 0.136803 0.940688 0.42448 -0.05681
C_ C_ 0.129627 0.91808 0.39742 -0.05681
C_ C_ 0.129713 0.947538 0.372058 -0.08735
C_ C_ 0.135141 0.999802266 0.37438 -0.08735
C_ C_ 0.135478 0.910142 0.448499 -0.08735
C_ C_ 0.12509 0.8593 0.446132 -0.08735
C_ C_ 0.124807 0.834769 0.419758 -0.05681
C_ C_ 0.123137 0.865498 0.394736 -0.08735
C_ C_ 0.033469 0.680223 0.409987 0.68181
C_ C_ 0.102281 0.623159 0.484839 0.1947
C_ C_ 0.0986349 0.592085 0.0122491 -0.08735
C_ C_ 0.120677 0.618323 0.035623 -0.08735
C_ C_ 0.147227 0.663706 0.0299661 -0.05681
C_ C_ 0.154273 0.680047 1.00137452 0.18498
C_ C_ 0.179131 0.736144 0.494108 -0.08735
C_ C_ 0.201929 0.753609 0.0171499 -0.08735
C_ C_ 0.194184 0.738209 0.0464001 -0.08735
C_ C_ 0.165453 0.694542 0.0530239 0.18498
C_ C_ 0.19673 0.672157 0.102181 0.44287
C_ C_ 0.109916 0.687079 0.0948678 0.44287
C_ C_ 0.103206 0.683092 0.125413 -0.05681
C_ C_ 0.0529572 0.683579 0.136884 -0.08735
C_ C_ 0.0431044 0.684908 0.166686 -0.08735
C_ C_ 0.0859214 0.67307 0.184695 -0.05681
C_ C_ 0.134072 0.664815 0.173733 -0.05681
C_ C_ 0.141125 0.668271 0.14343 -0.05681
C_ C_ 0.188752 0.66223 0.131919 -0.05681
C_ C_ 0.229625 0.65488 0.151214 -0.08735
C_ C_ 0.2219 0.642269 0.181193 -0.08735
C_ C_ 0.175177 0.65298 0.192028 -0.05681
C_ C_ 0.163208 0.649604 0.222287 0.44287
C_ C_ 0.0772368 0.669187 0.214104 0.44287
C_ C_ 0.102849 0.650716 0.261584 0.18498
C_ C_ 0.0830923 0.603372 0.269352 -0.08735
C_ C_ 0.0785602 0.587965 0.297866 -0.08735
C_ C_ 0.0873179 0.622468 0.319222 -0.08735
C_ C_ 0.113196 0.668476 0.31414 0.18498
C_ C_ 0.120865 0.68414 0.285206 -0.05681
C_ C_ 0.149406 0.728087 0.279845 -0.08735
C_ C_ 0.172276 0.75487 0.302107 -0.08735
C_ C_ 0.165864 0.737037 0.329966 0.1947
C_ C_ 0.269185 0.815099 0.15384 0.68181
C_ C_ 0.214209 0.808074 0.149065 -0.05681
C_ C_ 0.181799 0.802799 0.173258 -0.08735
C_ C_ 0.129402 0.802538 0.168857 -0.05681
C_ C_ 0.107709 0.809677 0.140552 -0.05681
C_ C_ 0.141907 0.81421 0.117201 -0.08735
C_ C_ 0.194595 0.808635 0.120872 -0.08735
C_ C_ 0.0949149 0.80181 0.191791 -0.08735
C_ C_ 0.0433224 0.803908 0.186992 -0.08735
C_ C_ 0.0233743 0.806294 0.159368 -0.05681
C_ C_ 0.0562077 0.813937 0.136319 -0.08735
C_ C_ 0.371819 0.717128 0.16153 0.68181
C_ C_ 0.367487 0.910743 0.151081 0.68181
C_ C_ 0.365025 0.967863 0.148405 -0.05681
C_ C_ 0.347309 0.500876 0.171071 -0.08735
C_ C_ 0.353824 0.552787 0.168929 -0.05681
C_ C_ 0.359092 0.576307 0.141576 -0.05681
C_ C_ 0.357428 0.547272 0.117341 -0.08735
C_ C_ 0.380218 -0.007225999999999955 0.122968 -0.08735
C_ C_ 0.360394 0.584152 0.19331 -0.08735
C_ C_ 0.368607 0.63733 0.190807 -0.08735
C_ C_ 0.37341 0.660069 0.163532 -0.05681
C_ C_ 0.366254 0.630349 0.138907 -0.08735
C_ C_ 0.468484 0.816439 0.156876 0.68181
C_ C_ 0.391087 0.880986 0.231053 0.1947
C_ C_ 0.397788 0.903752 0.258867 -0.08735
C_ C_ 0.382056 0.872733 0.282461 -0.08735
C_ C_ 0.351113 0.829599 0.279089 -0.05681
C_ C_ 0.341064 0.813944 0.250605 0.18498
C_ C_ 0.311387 0.771438 0.245671 -0.08735
C_ C_ 0.294134 0.743078 0.269391 -0.08735
C_ C_ 0.310246 0.75485 0.297296 -0.08735
C_ C_ 0.338148 0.798512 0.302931 0.18498
C_ C_ 0.309064 0.822832 0.350304 0.44287
C_ C_ 0.394526 0.800743 0.345568 0.44287
C_ C_ 0.403343 0.809294 0.3742 -0.05681
C_ C_ 0.453644 0.804646 0.386467 -0.08735
C_ C_ 0.459213 0.806923 0.416666 -0.08735
C_ C_ 0.415773 0.808716 0.434807 -0.05681
C_ C_ 0.368325 0.817354 0.421761 -0.05681
C_ C_ 0.362307 0.818121 0.391929 -0.05681
C_ C_ 0.31348 0.826274 0.380001 -0.05681
C_ C_ 0.272572 0.837661 0.397393 -0.08735
C_ C_ 0.276704 0.834858 0.427415 -0.08735
C_ C_ 0.325254 0.827553 0.440006 -0.05681
C_ C_ 0.330783 0.830119 0.469954 0.44287
C_ C_ 0.416555 0.805931 0.465184 0.44287
C_ C_ 0.394193 0.845538 0.0104141 0.18498
C_ C_ 0.421014 0.891258 0.0169022 -0.08735
C_ C_ 0.431705 0.90363 0.0451514 -0.08735
C_ C_ 0.420737 0.86952 0.0673175 -0.08735
C_ C_ 0.393205 0.826045 0.0618387 0.18498
C_ C_ 0.37793 0.814342 0.033657 -0.05681
C_ C_ 0.356959 0.767077 0.0283805 -0.08735
C_ C_ 0.343096 0.734475 0.0518092 -0.08735
C_ C_ 0.348562 0.753773 0.0801608 0.1947
N_ N_ 0.133597 0.661678 0.47997 -0.29468
N_ N_ 0.156961 0.680934 0.0835208 -0.17154
N_ N_ 0.115462 0.659402 0.232387 -0.17154
N_ N_ 0.135323 0.69649 0.336304 -0.29468
N_ N_ 0.366122 0.836366 0.228569 -0.29468
N_ N_ 0.349338 0.810918 0.333526 -0.17154
N_ N_ 0.379118 0.826319 0.481364 -0.17154
N_ N_ 0.372758 0.79787 0.084919 -0.29468
O_ O_ 0.214644 0.684825 0.430515 -0.58347
O_ O_ 0.204346 0.683673 0.383898 -0.58347
O_ O_ 0.129357 0.750127 0.437773 -0.58347
O_ O_ 0.133275 0.759605 0.391488 -0.58347
O_ O_ 0.141493 0.601638 0.426399 -0.58347
O_ O_ 0.130326 0.609851 0.380399 -0.58347
O_ O_ 0.0600966 0.669991 0.431369 -0.58347
O_ O_ 0.0551949 0.690294 0.386093 -0.58347
O_ O_ 0.07146 0.694334 0.0778921 -0.46727
O_ O_ 0.243163 0.679766 0.0915886 -0.46727
O_ O_ 0.032016 0.676531 0.225209 -0.46727
O_ O_ 0.19814 0.632996 0.239081 -0.46727
O_ O_ 0.28806 0.817981 0.179538 -0.58347
O_ O_ 0.298338 0.812761 0.132586 -0.58347
O_ O_ 0.363548 0.74164 0.184374 -0.58347
O_ O_ 0.379556 0.738763 0.138381 -0.58347
O_ O_ 0.364387 0.889275 0.174991 -0.58347
O_ O_ 0.372338 0.883713 0.128484 -0.58347
O_ O_ 0.441287 0.818626 0.178764 -0.58347
O_ O_ 0.448547 0.819462 0.131641 -0.58347
O_ O_ 0.431574 0.782047 0.329559 -0.46727
O_ O_ 0.263282 0.820249 0.338632 -0.46727
O_ O_ 0.453693 0.780636 0.477639 -0.46727
O_ O_ 0.290013 0.83615 0.486945 -0.46727
Zn Zn 0.125623 0.679145 0.884033 0.90689
Zn Zn 0.135004 0.670206 0.931535 0.90689
Zn Zn 0.379644 0.82137 0.635863 0.90689
Zn Zn 0.366441 0.830589 0.683947 0.90689
H_ H_ 0.30599 0.673295 0.946589 0.11455
H_ H_ 0.373956 0.665184 0.847375 0.11455
H_ H_ 0.281868 0.678654 0.855394 0.11455
H_ H_ 0.388249 0.675107 0.964897 0.11455
H_ H_ 0.482433 0.683749 0.958358 0.11455
H_ H_ 0.45806 0.665083 0.867002 0.11455
H_ H_ 0.145917 0.505699 0.944482 0.11455
H_ H_ 0.0960935 0.928642 0.851156 0.11455
H_ H_ 0.135212 0.515549 0.852052 0.11455
H_ H_ 0.157929 0.921743 0.964745 0.11455
H_ H_ 0.120915 0.83397 0.963234 0.11455
H_ H_ 0.115589 0.840494 0.870116 0.11455
H_ H_ 0.0748865 0.600587 0.969154 0.11455
H_ H_ 0.0733268 0.573694 0.516046 0.11455
H_ H_ 0.0994153 0.627665 0.557511 0.11455
H_ H_ 0.194824 0.729754 0.9729 0.11455
H_ H_ 0.209916 0.807291 0.511463 0.11455
H_ H_ 0.187211 0.789404 0.559267 0.11455
H_ H_ 1.00861386 0.693951 0.621773 0.11455
H_ H_ 0.999137 0.690733 0.674991 0.11455
H_ H_ 0.264369 0.692416 0.640747 0.11455
H_ H_ 0.251714 0.67688 0.694615 0.11455
H_ H_ 0.0532802 0.597938 0.748787 0.11455
H_ H_ 0.0517597 0.559412 0.797749 0.11455
H_ H_ 0.067836 0.618308 0.838097 0.11455
H_ H_ 0.158544 0.745301 0.759927 0.11455
H_ H_ 0.185479 0.795877 0.801509 0.11455
H_ H_ 0.182092 0.75477 0.850113 0.11455
H_ H_ 0.194713 0.80395 0.699899 0.11455
H_ H_ 0.127346 0.812147 0.603538 0.11455
H_ H_ 0.221234 0.808437 0.609736 0.11455
H_ H_ 0.113479 0.822586 0.71845 0.11455
H_ H_ 0.022272 0.835266 0.715114 0.11455
H_ H_ 0.0418712 0.816632 0.622928 0.11455
H_ H_ 0.385664 0.99625 0.696374 0.11455
H_ H_ 0.327536 0.574239 0.605508 0.11455
H_ H_ 0.346342 0.979493 0.605885 0.11455
H_ H_ 0.40062 0.577262 0.71632 0.11455
H_ H_ 0.400776 0.66999 0.714056 0.11455
H_ H_ 0.36581 0.655192 0.623915 0.11455
H_ H_ 0.423753 0.896002 0.72297 0.11455
H_ H_ 0.427908 0.929261 0.774653 0.11455
H_ H_ 0.386133 0.880262 0.811505 0.11455
H_ H_ 0.299327 0.768164 0.722427 0.11455
H_ H_ 0.263038 0.711794 0.75883 0.11455
H_ H_ 0.273612 0.730375 0.809477 0.11455
H_ H_ 0.480049 0.791509 0.870037 0.11455
H_ H_ 0.489403 0.792038 0.923755 0.11455
H_ H_ 0.231584 0.848134 0.88844 0.11455
H_ H_ 0.244939 0.8468 0.941088 0.11455
H_ H_ 0.424315 0.92198 1.00058 0.11455
H_ H_ 0.463705 0.937266 0.542877 0.11455
H_ H_ 0.431242 0.89253 0.585295 0.11455
H_ H_ 0.338594 0.756515 0.511882 0.11455
H_ H_ 0.306422 0.71542 0.554813 0.11455
H_ H_ 0.320146 0.752789 0.602157 0.11455
C_ C_ 0.231234 0.675628 0.90462 0.68181
C_ C_ 0.286981 0.672754 0.900515 -0.05681
C_ C_ 0.320618 0.676034 0.924743 -0.08735
C_ C_ 0.373073 0.676183 0.919614 -0.05681
C_ C_ 0.392781 0.671112 0.891945 -0.05681
C_ C_ 0.358353 0.665915 0.86859 -0.08735
C_ C_ 0.305076 0.668723 0.872497 -0.08735
C_ C_ 0.405457 0.678023 0.943198 -0.08735
C_ C_ 0.457571 0.679504 0.938795 -0.08735
C_ C_ 0.475737 0.677965 0.911072 -0.05681
C_ C_ 0.445142 0.673758 0.887379 -0.08735
C_ C_ 0.123921 0.771902 0.914916 0.68181
C_ C_ 0.130696 0.575716 0.902192 0.68181
C_ C_ 0.134131 0.518951 0.89912 -0.05681
C_ C_ 0.153859 0.98814 0.920213 -0.08735
C_ C_ 0.143536 0.933853 0.918629 -0.05681
C_ C_ 0.128115 0.912244 0.892545 -0.05681
C_ C_ 0.114643 0.943929 0.869971 -0.08735
C_ C_ 0.118105 -0.0026880000000000237 0.872588 -0.08735
C_ C_ 0.147974 0.904203 0.943475 -0.08735
C_ C_ 0.129725 0.854566 0.94254 -0.08735
C_ C_ 0.125214 0.829302 0.916616 -0.05681
C_ C_ 0.123314 0.858024 0.891156 -0.08735
C_ C_ 0.0289072 0.675665 0.909666 0.68181
C_ C_ 0.102146 0.613221 0.984727 0.1947
C_ C_ 0.0912539 0.609656 0.512737 -0.08735
C_ C_ 0.112447 0.636093 0.536711 -0.08735
C_ C_ 0.142462 0.678805 0.530429 -0.05681
C_ C_ 0.148261 0.693924 0.501065 0.18498
C_ C_ 0.182382 0.723251 0.994713 -0.08735
C_ C_ 0.194408 0.769804 0.516781 -0.08735
C_ C_ 0.180561 0.759492 0.544084 -0.08735
C_ C_ 0.15839 0.712125 0.552521 0.18498
C_ C_ 0.190004 0.698141 0.601943 0.44287
C_ C_ 0.101138 0.700483 0.593637 0.44287
C_ C_ 0.0915734 0.693162 0.62336 -0.05681
C_ C_ 0.0422892 0.699362 0.635083 -0.08735
C_ C_ 0.0367317 0.694921 0.66529 -0.08735
C_ C_ 0.0780525 0.691806 0.684575 -0.05681
C_ C_ 0.126868 0.685499 0.672775 -0.05681
C_ C_ 0.133485 0.686324 0.642234 -0.05681
C_ C_ 0.184496 0.689968 0.631254 -0.05681
C_ C_ 0.22684 0.690914 0.649951 -0.08735
C_ C_ 0.217523 0.680083 0.679026 -0.08735
C_ C_ 0.167603 0.676554 0.690152 -0.05681
C_ C_ 0.158791 0.668182 0.719354 0.44287
C_ C_ 0.0733103 0.689479 0.715176 0.44287
C_ C_ 0.103478 0.659603 0.760684 0.18498
C_ C_ 0.0734812 0.615657 0.767056 -0.08735
C_ C_ 0.0704689 0.595884 0.794133 -0.08735
C_ C_ 0.0846758 0.625463 0.817592 -0.08735
C_ C_ 0.109318 0.671508 0.813216 0.18498
C_ C_ 0.122433 0.686911 0.784359 -0.05681
C_ C_ 0.147491 0.733647 0.78113 -0.08735
C_ C_ 0.165511 0.760769 0.805629 -0.08735
C_ C_ 0.160266 0.737343 0.832194 0.1947
C_ C_ 0.274841 0.822789 0.659917 0.68181
C_ C_ 0.218456 0.81737 0.65554 -0.05681
C_ C_ 0.184194 0.810996 0.679388 -0.08735
C_ C_ 0.129904 0.817902 0.67441 -0.05681
C_ C_ 0.109816 0.819475 0.647097 -0.05681
C_ C_ 0.142061 0.814723 0.624409 -0.08735
C_ C_ 0.19651 0.815561 0.627438 -0.08735
C_ C_ 0.0966186 0.82624 0.69745 -0.08735
C_ C_ 0.0448589 0.830593 0.695566 -0.08735
C_ C_ 0.0250446 0.827193 0.66776 -0.05681
C_ C_ 0.0584088 0.820391 0.644443 -0.08735
C_ C_ 0.377969 0.72716 0.667303 0.68181
C_ C_ 0.367924 0.925508 0.655026 0.68181
C_ C_ 0.365751 0.981871 0.651949 -0.05681
C_ C_ 0.37027 0.514449 0.675455 -0.08735
C_ C_ 0.372523 0.565532 0.672999 -0.05681
C_ C_ 0.36143 0.58871 0.647486 -0.05681
C_ C_ 0.343394 0.558757 0.624694 -0.08735
C_ C_ 0.356432 1.00332112 0.624744 -0.08735
C_ C_ 0.389863 0.595169 0.696737 -0.08735
C_ C_ 0.393311 0.647407 0.69582 -0.08735
C_ C_ 0.383303 0.67082 0.669443 -0.05681
C_ C_ 0.363633 0.640588 0.645557 -0.08735
C_ C_ 0.470248 0.828532 0.66253 0.68181
C_ C_ 0.399066 0.879587 0.738986 0.1947
C_ C_ 0.404423 0.896308 0.767909 -0.08735
C_ C_ 0.378569 0.868081 0.788977 -0.08735
C_ C_ 0.34755 0.824892 0.781909 -0.05681
C_ C_ 0.341246 0.813874 0.752381 0.18498
C_ C_ 0.310279 0.77262 0.745102 -0.08735
C_ C_ 0.288171 0.743007 0.765604 -0.08735
C_ C_ 0.297409 0.752227 0.795453 -0.08735
C_ C_ 0.330099 0.790877 0.803515 0.18498
C_ C_ 0.301575 0.818039 0.850195 0.44287
C_ C_ 0.386609 0.792236 0.844486 0.44287
C_ C_ 0.397673 0.802625 0.873365 -0.05681
C_ C_ 0.447969 0.80183 0.883719 -0.08735
C_ C_ 0.456425 0.803285 0.914335 -0.08735
C_ C_ 0.416502 0.819694 0.931574 -0.05681
C_ C_ 0.368107 0.823987 0.919999 -0.05681
C_ C_ 0.359474 0.817784 0.891274 -0.05681
C_ C_ 0.309353 0.825234 0.879718 -0.05681
C_ C_ 0.27026 0.839359 0.897602 -0.08735
C_ C_ 0.27696 0.835064 0.92749 -0.08735
C_ C_ 0.32564 0.830438 0.93909 -0.05681
C_ C_ 0.334278 0.836605 0.968536 0.44287
C_ C_ 0.423193 0.825718 0.961982 0.44287
C_ C_ 0.391176 0.844835 0.509562 0.18498
C_ C_ 0.425609 0.883674 0.512641 -0.08735
C_ C_ 0.443035 0.899536 0.54027 -0.08735
C_ C_ 0.42368 0.874814 0.564366 -0.08735
C_ C_ 0.388165 0.836218 0.562101 0.18498
C_ C_ 0.372969 0.820106 0.53444 -0.05681
C_ C_ 0.344368 0.775326 0.532578 -0.08735
C_ C_ 0.332593 0.747516 0.556757 -0.08735
C_ C_ 0.337788 0.771757 0.583818 0.1947
N_ N_ 0.130933 0.653444 0.979129 -0.29468
N_ N_ 0.149258 0.700399 0.583568 -0.17154
N_ N_ 0.111882 0.674355 0.731395 -0.17154
N_ N_ 0.129726 0.696244 0.836611 -0.29468
N_ N_ 0.365416 0.842951 0.731715 -0.29468
N_ N_ 0.339804 0.801852 0.833922 -0.17154
N_ N_ 0.381971 0.835933 0.979945 -0.17154
N_ N_ 0.37108 0.811012 0.586794 -0.29468
O_ O_ 0.210359 0.668499 0.929082 -0.58347
O_ O_ 0.205369 0.685662 0.88276 -0.58347
O_ O_ 0.131625 0.744555 0.937102 -0.58347
O_ O_ 0.116976 0.750397 0.891259 -0.58347
O_ O_ 0.126263 0.595725 0.926872 -0.58347
O_ O_ 0.13602 0.603901 0.880619 -0.58347
O_ O_ 0.0561256 0.671524 0.931222 -0.58347
O_ O_ 0.0498739 0.673696 0.884629 -0.58347
O_ O_ 0.0613682 0.706071 0.575974 -0.46727
O_ O_ 0.23566 0.695311 0.589478 -0.46727
O_ O_ 0.0267914 0.689148 0.724978 -0.46727
O_ O_ 0.195823 0.654268 0.735542 -0.46727
O_ O_ 0.293628 0.827876 0.684502 -0.58347
O_ O_ 0.303167 0.816542 0.638571 -0.58347
O_ O_ 0.369845 0.75399 0.68922 -0.58347
O_ O_ 0.384182 0.748403 0.643088 -0.58347
O_ O_ 0.364603 0.906423 0.679056 -0.58347
O_ O_ 0.373908 0.898559 0.633444 -0.58347
O_ O_ 0.442608 0.835883 0.68378 -0.58347
O_ O_ 0.454219 0.828298 0.636662 -0.58347
O_ O_ 0.423264 0.772073 0.828611 -0.46727
O_ O_ 0.257488 0.82551 0.838146 -0.46727
O_ O_ 0.467386 0.820323 0.974342 -0.46727
O_ O_ 0.294851 0.835539 0.986258 -0.46727
Zn Zn 0.629201 0.192223 0.37869 0.90689
Zn Zn 0.637818 0.185655 0.427319 0.90689
Zn Zn 0.870309 0.300879 0.128809 0.90689
Zn Zn 0.855024 0.313391 0.175992 0.90689
H_ H_ 0.804002 0.208809 0.440373 0.11455
H_ H_ 0.866897 0.148298 0.345835 0.11455
H_ H_ 0.777422 0.169439 0.353401 0.11455
H_ H_ 0.886994 0.197663 0.462401 0.11455
H_ H_ 0.97644 0.192137 0.45501 0.11455
H_ H_ 0.958121 0.161923 0.364582 0.11455
H_ H_ 0.619725 0.0284605 0.438575 0.11455
H_ H_ 0.614838 0.4409 0.348307 0.11455
H_ H_ 0.671671 0.0347043 0.350203 0.11455
H_ H_ 0.643738 0.434691 0.465181 0.11455
H_ H_ 0.648588 0.341116 0.459937 0.11455
H_ H_ 0.616793 0.357764 0.369238 0.11455
H_ H_ 0.606968 0.104457 0.4644 0.11455
H_ H_ 0.573236 0.0655229 0.0125218 0.11455
H_ H_ 0.605148 0.116114 0.0536217 0.11455
H_ H_ 0.700861 0.252557 0.470657 0.11455
H_ H_ 0.73582 0.278743 0.0137899 0.11455
H_ H_ 0.691032 0.273142 0.060468 0.11455
H_ H_ 0.52237 0.202854 0.11945 0.11455
H_ H_ 0.504292 0.191014 0.170339 0.11455
H_ H_ 0.767867 0.147342 0.136696 0.11455
H_ H_ 0.756965 0.16145 0.187364 0.11455
H_ H_ 0.574554 0.0934804 0.245791 0.11455
H_ H_ 0.547706 0.0726201 0.295545 0.11455
H_ H_ 0.566064 0.134526 0.334756 0.11455
H_ H_ 0.653488 0.256937 0.254882 0.11455
H_ H_ 0.689463 0.308227 0.297022 0.11455
H_ H_ 0.680658 0.264879 0.344118 0.11455
H_ H_ 0.692948 0.296348 0.191819 0.11455
H_ H_ 0.616151 0.305546 0.0947709 0.11455
H_ H_ 0.710387 0.306517 0.10295 0.11455
H_ H_ 0.60708 0.307597 0.214082 0.11455
H_ H_ 0.513546 0.321655 0.206117 0.11455
H_ H_ 0.532566 0.315986 0.113875 0.11455
H_ H_ 0.897517 0.471261 0.181536 0.11455
H_ H_ 0.873291 0.0503 0.0952612 0.11455
H_ H_ 0.815044 0.458858 0.10343 0.11455
H_ H_ 0.878778 0.0591309 0.213405 0.11455
H_ H_ 0.881841 0.154146 0.207656 0.11455
H_ H_ 0.871108 0.141878 0.116973 0.11455
H_ H_ 0.90737 0.386677 0.209901 0.11455
H_ H_ 0.942101 0.405763 0.257831 0.11455
H_ H_ 0.896231 0.370372 0.297973 0.11455
H_ H_ 0.810374 0.244692 0.219051 0.11455
H_ H_ 0.773248 0.196882 0.258882 0.11455
H_ H_ 0.783815 0.223793 0.30907 0.11455
H_ H_ 0.985819 0.284962 0.36407 0.11455
H_ H_ -0.002770999999999968 0.291131 0.417953 0.11455
H_ H_ 0.740078 0.340854 0.382757 0.11455
H_ H_ 0.754049 0.349837 0.436478 0.11455
H_ H_ 0.950529 0.412211 0.49545 0.11455
H_ H_ 0.965627 0.415048 0.044327 0.11455
H_ H_ 0.925482 0.367286 0.0872484 0.11455
H_ H_ 0.841606 0.243399 0.00503202 0.11455
H_ H_ 0.803045 0.194972 0.0436097 0.11455
H_ H_ 0.817872 0.223311 0.0935208 0.11455
C_ C_ 0.730296 0.194365 0.402268 0.68181
C_ C_ 0.784965 0.188523 0.397439 -0.05681
C_ C_ 0.817856 0.194502 0.420211 -0.08735
C_ C_ 0.869047 0.179774 0.41701 -0.05681
C_ C_ 0.888861 0.166136 0.390257 -0.05681
C_ C_ 0.854562 0.163775 0.367059 -0.08735
C_ C_ 0.802772 0.168704 0.371678 -0.08735
C_ C_ 0.900461 0.185431 0.440171 -0.08735
C_ C_ 0.953011 0.182803 0.436349 -0.08735
C_ C_ 0.97393 0.173432 0.410285 -0.05681
C_ C_ 0.941472 0.167481 0.386601 -0.08735
C_ C_ 0.627276 0.285727 0.412574 0.68181
C_ C_ 0.640059 0.0907869 0.394073 0.68181
C_ C_ 0.643976 0.0361437 0.392945 -0.05681
C_ C_ 0.646544 0.501788 0.42049 -0.08735
C_ C_ 0.638507 0.448622 0.419803 -0.05681
C_ C_ 0.629909 0.426391 0.392179 -0.05681
C_ C_ 0.620515 0.455555 0.368291 -0.08735
C_ C_ 0.620074 0.508195 0.37165 -0.08735
C_ C_ 0.641726 0.416617 0.443933 -0.08735
C_ C_ 0.641626 0.364222 0.440584 -0.08735
C_ C_ 0.62962 0.342565 0.414776 -0.05681
C_ C_ 0.623969 0.373993 0.390225 -0.08735
C_ C_ 0.535795 0.182571 0.406457 0.68181
C_ C_ 0.62173 0.125051 0.481755 0.1947
C_ C_ 0.590739 0.101834 0.00924964 -0.08735
C_ C_ 0.612915 0.128021 0.0319154 -0.08735
C_ C_ 0.638794 0.172027 0.0274475 -0.05681
C_ C_ 0.649755 0.185975 0.998623 0.18498
C_ C_ 0.690864 0.244076 0.492184 -0.08735
C_ C_ 0.702212 0.254667 0.0160691 -0.08735
C_ C_ 0.683007 0.245312 0.0440754 -0.08735
C_ C_ 0.660753 0.198338 0.0507587 0.18498
C_ C_ 0.696097 0.17456 0.0971889 0.44287
C_ C_ 0.607293 0.19394 0.0914793 0.44287
C_ C_ 0.597271 0.183316 0.120839 -0.05681
C_ C_ 0.550992 0.19071 0.133152 -0.08735
C_ C_ 0.544131 0.185709 0.162128 -0.08735
C_ C_ 0.583509 0.178536 0.18031 -0.05681
C_ C_ 0.633615 0.174184 0.167688 -0.05681
C_ C_ 0.639492 0.173103 0.137817 -0.05681
C_ C_ 0.68891 0.166886 0.126253 -0.05681
C_ C_ 0.730893 0.160175 0.145889 -0.08735
C_ C_ 0.72214 0.159074 0.173963 -0.08735
C_ C_ 0.675392 0.167557 0.185937 -0.05681
C_ C_ 0.668566 0.169846 0.216156 0.44287
C_ C_ 0.57789 0.183301 0.210421 0.44287
C_ C_ 0.614236 0.161126 0.258011 0.18498
C_ C_ 0.586835 0.116464 0.264041 -0.08735
C_ C_ 0.574682 0.104186 0.292401 -0.08735
C_ C_ 0.586393 0.138394 0.314038 -0.08735
C_ C_ 0.615151 0.178759 0.309075 0.18498
C_ C_ 0.623093 0.195949 0.2809 -0.05681
C_ C_ 0.645483 0.244237 0.276786 -0.08735
C_ C_ 0.665706 0.271956 0.300482 -0.08735
C_ C_ 0.658726 0.251296 0.327878 0.1947
C_ C_ 0.764272 0.29904 0.152753 0.68181
C_ C_ 0.706959 0.297349 0.147427 -0.05681
C_ C_ 0.675307 0.299491 0.171702 -0.08735
C_ C_ 0.622169 0.303158 0.168571 -0.05681
C_ C_ 0.601183 0.30544 0.140351 -0.05681
C_ C_ 0.63372 0.306727 0.115977 -0.08735
C_ C_ 0.685679 0.302928 0.120658 -0.08735
C_ C_ 0.590816 0.307752 0.19203 -0.08735
C_ C_ 0.538474 0.318445 0.188171 -0.08735
C_ C_ 0.516844 0.318523 0.160285 -0.05681
C_ C_ 0.549403 0.312909 0.135834 -0.08735
C_ C_ 0.876676 0.209441 0.159031 0.68181
C_ C_ 0.856486 0.403682 0.146419 0.68181
C_ C_ 0.858969 0.458709 0.142132 -0.05681
C_ C_ 0.875604 -0.00862099999999999 0.172025 -0.08735
C_ C_ 0.872503 0.0459947 0.16841 -0.05681
C_ C_ 0.873119 0.0684268 0.141291 -0.05681
C_ C_ 0.866735 0.0351756 0.117084 -0.08735
C_ C_ 0.838111 0.482811 0.11894 -0.08735
C_ C_ 0.875738 0.0768897 0.19266 -0.08735
C_ C_ 0.882947 0.129691 0.189055 -0.08735
C_ C_ 0.879241 0.153408 0.161723 -0.05681
C_ C_ 0.874917 0.123047 0.137879 -0.08735
C_ C_ 0.962205 0.316781 0.152219 0.68181
C_ C_ 0.898745 0.362336 0.22782 0.1947
C_ C_ 0.913126 0.377905 0.254715 -0.08735
C_ C_ 0.890183 0.353321 0.278406 -0.08735
C_ C_ 0.856211 0.312919 0.274966 -0.05681
C_ C_ 0.841275 0.30109 0.246207 0.18498
C_ C_ 0.815155 0.257262 0.241 -0.08735
C_ C_ 0.791983 0.231788 0.263623 -0.08735
C_ C_ 0.800225 0.246557 0.29222 -0.08735
C_ C_ 0.834886 0.286524 0.298022 0.18498
C_ C_ 0.810088 0.317028 0.344404 0.44287
C_ C_ 0.89228 0.288282 0.338217 0.44287
C_ C_ 0.902491 0.29806 0.367437 -0.05681
C_ C_ 0.95255 0.288779 0.379587 -0.08735
C_ C_ 0.962325 0.297363 0.409176 -0.08735
C_ C_ 0.921194 0.31387 0.426914 -0.05681
C_ C_ 0.873307 0.321165 0.414874 -0.05681
C_ C_ 0.864687 0.314718 0.385861 -0.05681
C_ C_ 0.817249 0.325763 0.373403 -0.05681
C_ C_ 0.777767 0.338232 0.392092 -0.08735
C_ C_ 0.784092 0.338107 0.422238 -0.08735
C_ C_ 0.834222 0.3326 0.433446 -0.05681
C_ C_ 0.843551 0.342187 0.463124 0.44287
C_ C_ 0.928264 0.316699 0.456829 0.44287
C_ C_ 0.896592 0.329294 0.00740042 0.18498
C_ C_ 0.928521 0.370644 0.0134386 -0.08735
C_ C_ 0.940859 0.382388 0.0409497 -0.08735
C_ C_ 0.9145 0.357484 0.0652436 -0.08735
C_ C_ 0.878865 0.3181 0.0596544 0.18498
C_ C_ 0.872423 0.302997 0.0307651 -0.05681
C_ C_ 0.847103 0.257238 0.0260973 -0.08735
C_ C_ 0.822622 0.230031 0.0485575 -0.08735
C_ C_ 0.832344 0.244969 0.0760156 0.1947
N_ N_ 0.64454 0.170074 0.476257 -0.29468
N_ N_ 0.653868 0.187156 0.080483 -0.17154
N_ N_ 0.620117 0.173237 0.227369 -0.17154
N_ N_ 0.630649 0.206506 0.332567 -0.29468
N_ N_ 0.862237 0.326559 0.22341 -0.29468
N_ N_ 0.847899 0.300294 0.327277 -0.17154
N_ N_ 0.890884 0.333703 0.475192 -0.17154
N_ N_ 0.859567 0.288217 0.0815829 -0.29468
O_ O_ 0.71073 0.186687 0.427154 -0.58347
O_ O_ 0.703605 0.201073 0.380595 -0.58347
O_ O_ 0.632625 0.259232 0.434755 -0.58347
O_ O_ 0.623805 0.265899 0.38841 -0.58347
O_ O_ 0.637495 0.111528 0.418639 -0.58347
O_ O_ 0.638731 0.115933 0.370753 -0.58347
O_ O_ 0.562692 0.180199 0.426859 -0.58347
O_ O_ 0.554171 0.191009 0.381605 -0.58347
O_ O_ 0.570695 0.210716 0.0743654 -0.46727
O_ O_ 0.738665 0.161404 0.0842078 -0.46727
O_ O_ 0.535096 0.184253 0.222614 -0.46727
O_ O_ 0.706996 0.166456 0.234067 -0.46727
O_ O_ 0.781454 0.307359 0.177673 -0.58347
O_ O_ 0.793958 0.295595 0.132037 -0.58347
O_ O_ 0.865893 0.237671 0.179903 -0.58347
O_ O_ 0.884447 0.228632 0.134372 -0.58347
O_ O_ 0.849899 0.385974 0.170733 -0.58347
O_ O_ 0.86285 0.376009 0.124332 -0.58347
O_ O_ 0.932918 0.322923 0.171872 -0.58347
O_ O_ 0.945529 0.306673 0.127697 -0.58347
O_ O_ 0.928332 0.268437 0.321395 -0.46727
O_ O_ 0.763416 0.317831 0.334555 -0.46727
O_ O_ 0.97262 0.306769 0.468279 -0.46727
O_ O_ 0.808742 0.362972 0.479104 -0.46727
Zn Zn 0.627428 0.189116 0.879203 0.90689
Zn Zn 0.637221 0.178696 0.928894 0.90689
Zn Zn 0.876913 0.323546 0.628907 0.90689
Zn Zn 0.856642 0.334449 0.677588 0.90689
H_ H_ 0.801226 0.166332 0.941997 0.11455
H_ H_ 0.870679 0.181787 0.843893 0.11455
H_ H_ 0.778328 0.181759 0.853369 0.11455
H_ H_ 0.889402 0.163176 0.96334 0.11455
H_ H_ 0.980124 0.176296 0.957226 0.11455
H_ H_ 0.96046 0.172068 0.864817 0.11455
H_ H_ 0.612514 0.0159684 0.936269 0.11455
H_ H_ 0.623588 0.434149 0.851636 0.11455
H_ H_ 0.653147 0.0263403 0.84656 0.11455
H_ H_ 0.624488 0.433144 0.970638 0.11455
H_ H_ 0.627558 0.340022 0.967031 0.11455
H_ H_ 0.618408 0.349524 0.873667 0.11455
H_ H_ 0.577957 0.103127 0.962852 0.11455
H_ H_ 0.612709 0.0697473 0.51478 0.11455
H_ H_ 0.631814 0.125995 0.554765 0.11455
H_ H_ 0.702692 0.228382 0.972731 0.11455
H_ H_ 0.736114 0.303306 0.507136 0.11455
H_ H_ 0.710475 0.292857 0.557882 0.11455
H_ H_ 0.520664 0.226485 0.620668 0.11455
H_ H_ 0.514974 0.226364 0.674151 0.11455
H_ H_ 0.765652 0.149494 0.631485 0.11455
H_ H_ 0.75302 0.136838 0.682946 0.11455
H_ H_ 0.590075 0.0866962 0.749334 0.11455
H_ H_ 0.552356 0.0782619 0.794798 0.11455
H_ H_ 0.5632 0.134549 0.83167 0.11455
H_ H_ 0.663856 0.254813 0.756327 0.11455
H_ H_ 0.695777 0.303164 0.801757 0.11455
H_ H_ 0.672351 0.275538 0.847913 0.11455
H_ H_ 0.699726 0.345426 0.694574 0.11455
H_ H_ 0.620081 0.338882 0.595165 0.11455
H_ H_ 0.711543 0.3355 0.602597 0.11455
H_ H_ 0.609402 0.344725 0.714409 0.11455
H_ H_ 0.520061 0.345563 0.707319 0.11455
H_ H_ 0.535572 0.340707 0.61747 0.11455
H_ H_ 0.845346 0.499809 0.688138 0.11455
H_ H_ 0.927002 0.0772235 0.603864 0.11455
H_ H_ 0.869805 0.490917 0.598119 0.11455
H_ H_ 0.824418 0.0830921 0.708874 0.11455
H_ H_ 0.837113 0.17256 0.707576 0.11455
H_ H_ 0.911619 0.157989 0.624425 0.11455
H_ H_ 0.906081 0.415677 0.713925 0.11455
H_ H_ 0.920571 0.446578 0.763663 0.11455
H_ H_ 0.894589 0.391355 0.802773 0.11455
H_ H_ 0.79913 0.277171 0.71926 0.11455
H_ H_ 0.76036 0.225046 0.759208 0.11455
H_ H_ 0.803221 0.228046 0.807112 0.11455
H_ H_ 0.983992 0.284695 0.869078 0.11455
H_ H_ 0.00024000000000001798 0.285783 0.920713 0.11455
H_ H_ 0.737921 0.331353 0.886507 0.11455
H_ H_ 0.74612 0.327438 0.939116 0.11455
H_ H_ 0.952182 0.385618 0.997071 0.11455
H_ H_ 0.96764 0.437946 0.544054 0.11455
H_ H_ 0.930958 0.390536 0.58372 0.11455
H_ H_ 0.841875 0.266812 0.503461 0.11455
H_ H_ 0.807877 0.218673 0.544534 0.11455
H_ H_ 0.825398 0.250189 0.592244 0.11455
C_ C_ 0.729138 0.185249 0.904687 0.68181
C_ C_ 0.785466 0.179492 0.898951 -0.05681
C_ C_ 0.818116 0.168068 0.921681 -0.08735
C_ C_ 0.871308 0.167182 0.916716 -0.05681
C_ C_ 0.891657 0.168363 0.888758 -0.05681
C_ C_ 0.85817 0.179011 0.86562 -0.08735
C_ C_ 0.805816 0.181577 0.870303 -0.08735
C_ C_ 0.902343 0.160709 0.94134 -0.08735
C_ C_ 0.955457 0.166999 0.938683 -0.08735
C_ C_ 0.976595 0.16267 0.910772 -0.05681
C_ C_ 0.943266 0.169206 0.886898 -0.08735
C_ C_ 0.627479 0.280991 0.916777 0.68181
C_ C_ 0.632516 0.0866803 0.894268 0.68181
C_ C_ 0.629555 0.0303604 0.890984 -0.05681
C_ C_ 0.625625 0.501771 0.92682 -0.08735
C_ C_ 0.624891 0.446847 0.925356 -0.05681
C_ C_ 0.622198 0.422962 0.898332 -0.05681
C_ C_ 0.620263 0.451941 0.87287 -0.08735
C_ C_ 0.622632 0.505276 0.873982 -0.08735
C_ C_ 0.624949 0.414529 0.950004 -0.08735
C_ C_ 0.627454 0.36042 0.948083 -0.08735
C_ C_ 0.623101 0.336941 0.9204 -0.05681
C_ C_ 0.621257 0.368753 0.895286 -0.08735
C_ C_ 0.532964 0.182981 0.904862 0.68181
C_ C_ 0.594035 0.121943 0.981236 0.1947
C_ C_ 0.615722 0.107433 0.51021 -0.08735
C_ C_ 0.631365 0.140838 0.532598 -0.08735
C_ C_ 0.650391 0.188286 0.526497 -0.05681
C_ C_ 0.660894 0.200418 0.497964 0.18498
C_ C_ 0.683572 0.226062 0.993183 -0.08735
C_ C_ 0.709042 0.27408 0.514437 -0.08735
C_ C_ 0.693414 0.267228 0.542436 -0.08735
C_ C_ 0.663289 0.224693 0.549751 0.18498
C_ C_ 0.69671 0.19547 0.595641 0.44287
C_ C_ 0.609418 0.21193 0.591269 0.44287
C_ C_ 0.602111 0.207036 0.620401 -0.05681
C_ C_ 0.554869 0.21612 0.633571 -0.08735
C_ C_ 0.551079 0.215878 0.664735 -0.08735
C_ C_ 0.59363 0.201653 0.681941 -0.05681
C_ C_ 0.639489 0.189269 0.668698 -0.05681
C_ C_ 0.645177 0.195251 0.638833 -0.05681
C_ C_ 0.691512 0.184878 0.625031 -0.05681
C_ C_ 0.731505 0.165225 0.64196 -0.08735
C_ C_ 0.725679 0.16026 0.672016 -0.08735
C_ C_ 0.679569 0.172362 0.685516 -0.05681
C_ C_ 0.670401 0.165 0.716034 0.44287
C_ C_ 0.589712 0.204618 0.712199 0.44287
C_ C_ 0.614211 0.165771 0.758031 0.18498
C_ C_ 0.594239 0.117879 0.76421 -0.08735
C_ C_ 0.582207 0.105747 0.791815 -0.08735
C_ C_ 0.587106 0.137602 0.81398 -0.08735
C_ C_ 0.616741 0.1821 0.810679 0.18498
C_ C_ 0.629073 0.196776 0.781876 -0.05681
C_ C_ 0.660643 0.239619 0.777722 -0.08735
C_ C_ 0.670548 0.270938 0.802421 -0.08735
C_ C_ 0.656579 0.25568 0.829645 0.1947
C_ C_ 0.768242 0.328651 0.652028 0.68181
C_ C_ 0.71221 0.332921 0.648664 -0.05681
C_ C_ 0.681451 0.342514 0.672973 -0.08735
C_ C_ 0.62796 0.345927 0.6693 -0.05681
C_ C_ 0.606353 0.345132 0.641054 -0.05681
C_ C_ 0.636386 0.336868 0.617609 -0.08735
C_ C_ 0.687997 0.328614 0.620915 -0.08735
C_ C_ 0.595454 0.345788 0.693043 -0.08735
C_ C_ 0.54434 0.349934 0.689401 -0.08735
C_ C_ 0.521966 0.348829 0.662484 -0.05681
C_ C_ 0.553593 0.346118 0.638021 -0.08735
C_ C_ 0.87119 0.228883 0.661808 0.68181
C_ C_ 0.854059 0.426949 0.64509 0.68181
C_ C_ 0.852497 0.484824 0.642455 -0.05681
C_ C_ 0.865867 0.0126601 0.671089 -0.08735
C_ C_ 0.867282 0.0661752 0.669861 -0.05681
C_ C_ 0.892467 0.0895445 0.646284 -0.05681
C_ C_ 0.916799 0.0602799 0.625189 -0.08735
C_ C_ 0.861867 0.511115 0.616747 -0.08735
C_ C_ 0.848259 0.0982132 0.690694 -0.08735
C_ C_ 0.851269 0.150284 0.689142 -0.08735
C_ C_ 0.875922 0.174214 0.66549 -0.05681
C_ C_ 0.894969 0.142382 0.643756 -0.08735
C_ C_ 0.965199 0.325666 0.654693 0.68181
C_ C_ 0.890625 0.395399 0.731713 0.1947
C_ C_ 0.901414 0.409944 0.759947 -0.08735
C_ C_ 0.887595 0.378593 0.782081 -0.08735
C_ C_ 0.854374 0.336383 0.776424 -0.05681
C_ C_ 0.843675 0.323127 0.746838 0.18498
C_ C_ 0.807954 0.284509 0.741278 -0.08735
C_ C_ 0.790327 0.252516 0.764085 -0.08735
C_ C_ 0.814998 0.256206 0.790761 -0.08735
C_ C_ 0.841636 0.300712 0.798653 0.18498
C_ C_ 0.809709 0.316018 0.846051 0.44287
C_ C_ 0.897904 0.302929 0.841162 0.44287
C_ C_ 0.905854 0.302027 0.871347 -0.05681
C_ C_ 0.953138 0.293627 0.882805 -0.08735
C_ C_ 0.960559 0.289354 0.912397 -0.08735
C_ C_ 0.918007 0.296156 0.931447 -0.05681
C_ C_ 0.870286 0.308917 0.919635 -0.05681
C_ C_ 0.86251 0.310298 0.889131 -0.05681
C_ C_ 0.814612 0.319786 0.876622 -0.05681
C_ C_ 0.773748 0.328815 0.894922 -0.08735
C_ C_ 0.780325 0.329438 0.924763 -0.08735
C_ C_ 0.828065 0.320155 0.937221 -0.05681
C_ C_ 0.836855 0.326562 0.967333 0.44287
C_ C_ 0.921647 0.296973 0.962473 0.44287
C_ C_ 0.900955 0.349074 0.504684 0.18498
C_ C_ 0.933751 0.389001 0.511695 -0.08735
C_ C_ 0.948514 0.401219 0.539516 -0.08735
C_ C_ 0.928677 0.373217 0.561964 -0.08735
C_ C_ 0.891595 0.336555 0.556837 0.18498
C_ C_ 0.877772 0.323898 0.528153 -0.05681
C_ C_ 0.845554 0.282063 0.524053 -0.08735
C_ C_ 0.830066 0.253302 0.547823 -0.08735
C_ C_ 0.839894 0.270451 0.575337 0.1947
N_ N_ 0.626234 0.160955 0.976641 -0.29468
N_ N_ 0.656797 0.212522 0.580232 -0.17154
N_ N_ 0.624666 0.178983 0.727825 -0.17154
N_ N_ 0.634068 0.209263 0.833679 -0.29468
N_ N_ 0.861689 0.353064 0.725034 -0.29468
N_ N_ 0.851118 0.309886 0.828633 -0.17154
N_ N_ 0.883454 0.317913 0.978258 -0.17154
N_ N_ 0.87239 0.309838 0.579382 -0.29468
O_ O_ 0.710813 0.180924 0.929251 -0.58347
O_ O_ 0.69942 0.191492 0.882721 -0.58347
O_ O_ 0.642257 0.253043 0.937233 -0.58347
O_ O_ 0.618497 0.260438 0.892455 -0.58347
O_ O_ 0.638354 0.106407 0.918892 -0.58347
O_ O_ 0.638122 0.114141 0.87185 -0.58347
O_ O_ 0.562209 0.181973 0.926707 -0.58347
O_ O_ 0.55212 0.180736 0.879751 -0.58347
O_ O_ 0.570387 0.215843 0.57381 -0.46727
O_ O_ 0.741292 0.18603 0.582089 -0.46727
O_ O_ 0.54911 0.222358 0.725997 -0.46727
O_ O_ 0.702922 0.139106 0.731552 -0.46727
O_ O_ 0.786717 0.324277 0.677173 -0.58347
O_ O_ 0.796245 0.325011 0.629982 -0.58347
O_ O_ 0.86838 0.257286 0.68269 -0.58347
O_ O_ 0.880338 0.247674 0.636782 -0.58347
O_ O_ 0.843579 0.407855 0.669236 -0.58347
O_ O_ 0.877149 0.400718 0.625829 -0.58347
O_ O_ 0.93316 0.339905 0.673869 -0.58347
O_ O_ 0.951352 0.321477 0.628342 -0.58347
O_ O_ 0.935731 0.296717 0.823496 -0.46727
O_ O_ 0.766061 0.329849 0.835393 -0.46727
O_ O_ 0.966423 0.289051 0.973899 -0.46727
O_ O_ 0.803715 0.348012 0.983856 -0.46727
Zn Zn 0.630114 0.690538 0.382724 0.90689
Zn Zn 0.63875 0.689786 0.429874 0.90689
Zn Zn 0.877131 0.798231 0.132152 0.90689
Zn Zn 0.864 0.805527 0.179693 0.90689
H_ H_ 0.803748 0.694931 0.447547 0.11455
H_ H_ 0.8713 0.645689 0.351223 0.11455
H_ H_ 0.779923 0.647664 0.359814 0.11455
H_ H_ 0.888076 0.695688 0.466404 0.11455
H_ H_ 0.979902 0.699388 0.458443 0.11455
H_ H_ 0.961804 0.663453 0.369566 0.11455
H_ H_ 0.659143 0.521692 0.439205 0.11455
H_ H_ 0.66083 0.943822 0.346585 0.11455
H_ H_ 0.612172 0.530864 0.353076 0.11455
H_ H_ 0.595519 0.944033 0.458554 0.11455
H_ H_ 0.597498 0.853507 0.45554 0.11455
H_ H_ 0.658559 0.859777 0.371762 0.11455
H_ H_ 0.595542 0.601621 0.467797 0.11455
H_ H_ 0.579695 0.572956 0.0100437 0.11455
H_ H_ 0.594448 0.62795 0.0536334 0.11455
H_ H_ 0.704978 0.742706 0.475599 0.11455
H_ H_ 0.724925 0.799877 0.0179097 0.11455
H_ H_ 0.706373 0.775317 0.0651467 0.11455
H_ H_ 0.517975 0.695503 0.123331 0.11455
H_ H_ 0.506476 0.694765 0.175773 0.11455
H_ H_ 0.765445 0.659774 0.137929 0.11455
H_ H_ 0.757781 0.645512 0.190884 0.11455
H_ H_ 0.577091 0.577304 0.25501 0.11455
H_ H_ 0.544609 0.570079 0.303825 0.11455
H_ H_ 0.562062 0.63901 0.339838 0.11455
H_ H_ 0.676364 0.730994 0.255314 0.11455
H_ H_ 0.710155 0.779567 0.296896 0.11455
H_ H_ 0.683228 0.767061 0.345687 0.11455
H_ H_ 0.695662 0.791962 0.195482 0.11455
H_ H_ 0.631717 0.839642 0.0991519 0.11455
H_ H_ 0.725376 0.822652 0.105133 0.11455
H_ H_ 0.610326 0.80306 0.214752 0.11455
H_ H_ 0.518801 0.81498 0.207397 0.11455
H_ H_ 0.547177 0.822675 0.11379 0.11455
H_ H_ 0.877265 0.971825 0.192398 0.11455
H_ H_ 0.823195 0.550671 0.0967079 0.11455
H_ H_ 0.871404 0.958833 0.101296 0.11455
H_ H_ 0.915795 0.553792 0.202895 0.11455
H_ H_ 0.922133 0.645147 0.199673 0.11455
H_ H_ 0.840071 0.639985 0.119372 0.11455
H_ H_ 0.922415 0.87676 0.211671 0.11455
H_ H_ 0.943587 0.910985 0.258138 0.11455
H_ H_ 0.892746 0.883805 0.30044 0.11455
H_ H_ 0.806272 0.744121 0.227364 0.11455
H_ H_ 0.786854 0.69122 0.270077 0.11455
H_ H_ 0.810119 0.723727 0.31989 0.11455
H_ H_ 1.0005 0.794926 0.371871 0.11455
H_ H_ 0.0104874 0.796702 0.42577 0.11455
H_ H_ 0.748038 0.827353 0.388534 0.11455
H_ H_ 0.760603 0.836564 0.440774 0.11455
H_ H_ 0.957283 0.910953 0.499064 0.11455
H_ H_ 0.976883 0.897764 0.0499223 0.11455
H_ H_ 0.946538 0.846706 0.0892229 0.11455
H_ H_ 0.846527 0.742097 0.00442805 0.11455
H_ H_ 0.811864 0.696342 0.0449499 0.11455
H_ H_ 0.820388 0.724816 0.0953131 0.11455
C_ C_ 0.731518 0.681762 0.405252 0.68181
C_ C_ 0.787198 0.678144 0.402535 -0.05681
C_ C_ 0.819553 0.685797 0.426517 -0.08735
C_ C_ 0.870927 0.683533 0.421975 -0.05681
C_ C_ 0.891171 0.670024 0.395042 -0.05681
C_ C_ 0.857077 0.655668 0.372959 -0.08735
C_ C_ 0.806173 0.663004 0.376001 -0.08735
C_ C_ 0.903415 0.696001 0.444294 -0.08735
C_ C_ 0.955156 0.692236 0.440295 -0.08735
C_ C_ 0.977432 0.689042 0.412501 -0.05681
C_ C_ 0.944853 0.674551 0.390302 -0.08735
C_ C_ 0.63269 0.790418 0.413724 0.68181
C_ C_ 0.63499 0.58972 0.399467 0.68181
C_ C_ 0.632727 0.532075 0.397792 -0.05681
C_ C_ 0.626769 1.0103992 0.417773 -0.08735
C_ C_ 0.628884 0.957419 0.416922 -0.05681
C_ C_ 0.646874 0.931189 0.391111 -0.05681
C_ C_ 0.664224 0.959197 0.367362 -0.08735
C_ C_ 0.663999 1.0113589 0.368966 -0.08735
C_ C_ 0.615499 0.927584 0.440329 -0.08735
C_ C_ 0.618344 0.872957 0.439645 -0.08735
C_ C_ 0.628817 0.849061 0.413851 -0.05681
C_ C_ 0.64437 0.878458 0.389847 -0.08735
C_ C_ 0.535879 0.684248 0.40829 0.68181
C_ C_ 0.613858 0.623016 0.48485 0.1947
C_ C_ 0.594714 0.611133 0.00920253 -0.08735
C_ C_ 0.612071 0.636277 0.0340002 -0.08735
C_ C_ 0.645682 0.677586 0.0303689 -0.05681
C_ C_ 0.659272 0.69661 1.00209268 0.18498
C_ C_ 0.690322 0.739549 0.496465 -0.08735
C_ C_ 0.702891 0.767015 0.0215771 -0.08735
C_ C_ 0.692062 0.750763 0.049171 -0.08735
C_ C_ 0.664051 0.704576 0.0540406 0.18498
C_ C_ 0.695116 0.679828 0.101391 0.44287
C_ C_ 0.608196 0.695954 0.0950445 0.44287
C_ C_ 0.59865 0.682257 0.124534 -0.05681
C_ C_ 0.55002 0.685591 0.136869 -0.08735
C_ C_ 0.542489 0.681418 0.166297 -0.08735
C_ C_ 0.585642 0.672329 0.184471 -0.05681
C_ C_ 0.632732 0.668666 0.172161 -0.05681
C_ C_ 0.638823 0.671886 0.142487 -0.05681
C_ C_ 0.688039 0.672575 0.130837 -0.05681
C_ C_ 0.729497 0.663824 0.147839 -0.08735
C_ C_ 0.724271 0.652736 0.177515 -0.08735
C_ C_ 0.675847 0.658896 0.190212 -0.05681
C_ C_ 0.667916 0.653274 0.220472 0.44287
C_ C_ 0.581289 0.673507 0.215029 0.44287
C_ C_ 0.613595 0.648875 0.262587 0.18498
C_ C_ 0.586522 0.606049 0.270226 -0.08735
C_ C_ 0.569365 0.601335 0.297902 -0.08735
C_ C_ 0.584413 0.634182 0.319654 -0.08735
C_ C_ 0.618289 0.673065 0.313724 0.18498
C_ C_ 0.627978 0.685589 0.28419 -0.05681
C_ C_ 0.662317 0.722941 0.277543 -0.08735
C_ C_ 0.678698 0.754161 0.299812 -0.08735
C_ C_ 0.665192 0.745224 0.328758 0.1947
C_ C_ 0.771604 0.803795 0.154789 0.68181
C_ C_ 0.715533 0.80163 0.14972 -0.05681
C_ C_ 0.681973 0.799206 0.174655 -0.08735
C_ C_ 0.631185 0.80958 0.168729 -0.05681
C_ C_ 0.61193 0.814014 0.140191 -0.05681
C_ C_ 0.644509 0.821102 0.11803 -0.08735
C_ C_ 0.696424 0.812173 0.122959 -0.08735
C_ C_ 0.59715 0.809859 0.192301 -0.08735
C_ C_ 0.543635 0.812057 0.188094 -0.08735
C_ C_ 0.524882 0.818191 0.160462 -0.05681
C_ C_ 0.560125 0.819369 0.136244 -0.08735
C_ C_ 0.873168 0.703399 0.159882 0.68181
C_ C_ 0.875549 0.900314 0.149607 0.68181
C_ C_ 0.873803 0.957278 0.147839 -0.05681
C_ C_ 0.884178 0.489283 0.163288 -0.08735
C_ C_ 0.884059 0.542937 0.160526 -0.05681
C_ C_ 0.862534 0.565904 0.137929 -0.05681
C_ C_ 0.838008 0.534986 0.117167 -0.08735
C_ C_ 0.869051 0.981908 0.120778 -0.08735
C_ C_ 0.901447 0.570891 0.183671 -0.08735
C_ C_ 0.897385 0.623308 0.184184 -0.08735
C_ C_ 0.875121 0.647302 0.1609 -0.05681
C_ C_ 0.855861 0.619638 0.138216 -0.08735
C_ C_ 0.966372 0.80321 0.153677 0.68181
C_ C_ 0.906879 0.859203 0.229495 0.1947
C_ C_ 0.913894 0.883747 0.25511 -0.08735
C_ C_ 0.89076 0.862291 0.279958 -0.08735
C_ C_ 0.867753 0.813831 0.278088 -0.05681
C_ C_ 0.855238 0.795867 0.250879 0.18498
C_ C_ 0.825301 0.753149 0.248578 -0.08735
C_ C_ 0.814237 0.723596 0.27325 -0.08735
C_ C_ 0.825857 0.7402 0.301054 -0.08735
C_ C_ 0.851982 0.786105 0.303176 0.18498
C_ C_ 0.823559 0.822813 0.348861 0.44287
C_ C_ 0.910995 0.803023 0.343532 0.44287
C_ C_ 0.919875 0.813901 0.37298 -0.05681
C_ C_ 0.9673 0.808319 0.385713 -0.08735
C_ C_ 0.974791 0.809219 0.415277 -0.08735
C_ C_ 0.933583 0.817338 0.43321 -0.05681
C_ C_ 0.885533 0.825152 0.421755 -0.05681
C_ C_ 0.878585 0.824887 0.391398 -0.05681
C_ C_ 0.829791 0.829604 0.378378 -0.05681
C_ C_ 0.787125 0.83432 0.39756 -0.08735
C_ C_ 0.795407 0.8376 0.427545 -0.08735
C_ C_ 0.844503 0.837125 0.439604 -0.05681
C_ C_ 0.851307 0.839244 0.469789 0.44287
C_ C_ 0.941211 0.823543 0.463263 0.44287
C_ C_ 0.896954 0.832758 0.0103992 0.18498
C_ C_ 0.924473 0.8756 0.018095 -0.08735
C_ C_ 0.941071 0.882612 0.046332 -0.08735
C_ C_ 0.927285 0.847729 0.0676184 -0.08735
C_ C_ 0.891525 0.810449 0.0620237 0.18498
C_ C_ 0.88078 0.798854 0.0322075 -0.05681
C_ C_ 0.853361 0.755265 0.0263169 -0.08735
C_ C_ 0.831771 0.729597 0.0497191 -0.08735
C_ C_ 0.839217 0.744567 0.0780472 0.1947
N_ N_ 0.637391 0.668591 0.478565 -0.29468
N_ N_ 0.655651 0.690102 0.0829673 -0.17154
N_ N_ 0.620895 0.659825 0.232319 -0.17154
N_ N_ 0.636728 0.703583 0.335352 -0.29468
N_ N_ 0.874636 0.819543 0.226747 -0.29468
N_ N_ 0.862812 0.80515 0.331875 -0.17154
N_ N_ 0.900372 0.833093 0.480873 -0.17154
N_ N_ 0.870775 0.784077 0.0840983 -0.29468
O_ O_ 0.713078 0.689472 0.429217 -0.58347
O_ O_ 0.704146 0.689294 0.38336 -0.58347
O_ O_ 0.635465 0.762647 0.435048 -0.58347
O_ O_ 0.634794 0.767428 0.389496 -0.58347
O_ O_ 0.639352 0.613066 0.423366 -0.58347
O_ O_ 0.629419 0.615551 0.376478 -0.58347
O_ O_ 0.565153 0.682283 0.429429 -0.58347
O_ O_ 0.55362 0.693996 0.384182 -0.58347
O_ O_ 0.574133 0.717958 0.080446 -0.46727
O_ O_ 0.739749 0.669074 0.0910546 -0.46727
O_ O_ 0.533706 0.673852 0.22585 -0.46727
O_ O_ 0.705168 0.636313 0.236348 -0.46727
O_ O_ 0.790842 0.804156 0.179973 -0.58347
O_ O_ 0.801934 0.796033 0.133858 -0.58347
O_ O_ 0.864965 0.728226 0.18338 -0.58347
O_ O_ 0.875183 0.724786 0.136371 -0.58347
O_ O_ 0.866136 0.879399 0.173111 -0.58347
O_ O_ 0.878054 0.872957 0.12734 -0.58347
O_ O_ 0.93689 0.804077 0.175041 -0.58347
O_ O_ 0.951015 0.793812 0.129305 -0.58347
O_ O_ 0.948899 0.796741 0.326949 -0.46727
O_ O_ 0.778022 0.827652 0.337806 -0.46727
O_ O_ 0.987139 0.8173 0.472933 -0.46727
O_ O_ 0.812255 0.850997 0.486651 -0.46727
Zn Zn 0.626587 0.687486 0.882661 0.90689
Zn Zn 0.634461 0.687125 0.930688 0.90689
Zn Zn 0.87601 0.825454 0.635739 0.90689
Zn Zn 0.867896 0.82746 0.681804 0.90689
H_ H_ 0.801107 0.690932 0.944127 0.11455
H_ H_ 0.870903 0.643677 0.849834 0.11455
H_ H_ 0.779666 0.660738 0.853219 0.11455
H_ H_ 0.884842 0.670766 0.966424 0.11455
H_ H_ 0.978055 0.675436 0.961602 0.11455
H_ H_ 0.959681 0.669329 0.869876 0.11455
H_ H_ 0.633038 0.52248 0.947324 0.11455
H_ H_ 0.633715 0.930541 0.842019 0.11455
H_ H_ 0.61853 0.524521 0.854934 0.11455
H_ H_ 0.595129 0.935195 0.959804 0.11455
H_ H_ 0.593305 0.841624 0.954671 0.11455
H_ H_ 0.634752 0.846398 0.86771 0.11455
H_ H_ 0.592502 0.612225 0.964715 0.11455
H_ H_ 0.59113 0.568275 0.518432 0.11455
H_ H_ 0.592842 0.638575 0.554933 0.11455
H_ H_ 0.701459 0.753891 0.977362 0.11455
H_ H_ 0.729788 0.80453 0.514139 0.11455
H_ H_ 0.694651 0.789745 0.562334 0.11455
H_ H_ 0.501609 0.723092 0.623843 0.11455
H_ H_ 0.495814 0.72069 0.674453 0.11455
H_ H_ 0.7504 0.667543 0.636291 0.11455
H_ H_ 0.740663 0.653362 0.687198 0.11455
H_ H_ 0.539936 0.611319 0.746129 0.11455
H_ H_ 0.514818 0.589429 0.79574 0.11455
H_ H_ 0.553878 0.634232 0.836662 0.11455
H_ H_ 0.652863 0.755564 0.756661 0.11455
H_ H_ 0.694028 0.796974 0.799747 0.11455
H_ H_ 0.682419 0.759301 0.846888 0.11455
H_ H_ 0.703716 0.810349 0.697626 0.11455
H_ H_ 0.631235 0.832099 0.601853 0.11455
H_ H_ 0.719854 0.818991 0.60864 0.11455
H_ H_ 0.617725 0.834597 0.720559 0.11455
H_ H_ 0.523172 0.840183 0.714499 0.11455
H_ H_ 0.546308 0.839146 0.622558 0.11455
H_ H_ 0.846266 0.9942 0.689527 0.11455
H_ H_ 0.8672 0.583999 0.594347 0.11455
H_ H_ 0.928489 0.987489 0.607109 0.11455
H_ H_ 0.881667 0.574945 0.710636 0.11455
H_ H_ 0.886293 0.665944 0.71061 0.11455
H_ H_ 0.875975 0.664395 0.620398 0.11455
H_ H_ 0.903149 0.917054 0.723266 0.11455
H_ H_ 0.909809 0.934315 0.773712 0.11455
H_ H_ 0.889899 0.871921 0.811702 0.11455
H_ H_ 0.797923 0.76963 0.722134 0.11455
H_ H_ 0.760236 0.7141 0.759082 0.11455
H_ H_ 0.793873 0.714924 0.806392 0.11455
H_ H_ 0.984016 0.787298 0.871661 0.11455
H_ H_ 0.996621 0.792201 0.923133 0.11455
H_ H_ 0.736479 0.828419 0.891045 0.11455
H_ H_ 0.749395 0.82276 0.944177 0.11455
H_ H_ 0.932783 0.905094 1.00261 0.11455
H_ H_ 0.989133 0.924259 0.547835 0.11455
H_ H_ 0.950961 0.884469 0.591069 0.11455
H_ H_ 0.84154 0.762563 0.510881 0.11455
H_ H_ 0.800295 0.728561 0.551775 0.11455
H_ H_ 0.82474 0.754007 0.600604 0.11455
C_ C_ 0.728269 0.688264 0.903999 0.68181
C_ C_ 0.784281 0.677137 0.900226 -0.05681
C_ C_ 0.817347 0.680919 0.924132 -0.08735
C_ C_ 0.870603 0.672115 0.920755 -0.05681
C_ C_ 0.890029 0.666186 0.893007 -0.05681
C_ C_ 0.856736 0.661924 0.86938 -0.08735
C_ C_ 0.803669 0.666088 0.872529 -0.08735
C_ C_ 0.90025 0.668684 0.944466 -0.08735
C_ C_ 0.954646 0.664817 0.942062 -0.08735
C_ C_ 0.973943 0.668099 0.913669 -0.05681
C_ C_ 0.941919 0.661055 0.889748 -0.08735
C_ C_ 0.621016 0.781009 0.910745 0.68181
C_ C_ 0.629199 0.587801 0.901662 0.68181
C_ C_ 0.624094 0.531092 0.900987 -0.05681
C_ C_ 0.62057 -0.0010930000000000106 0.915798 -0.08735
C_ C_ 0.614107 0.946276 0.913465 -0.05681
C_ C_ 0.620194 0.923002 0.886651 -0.05681
C_ C_ 0.631044 0.950896 0.862309 -0.08735
C_ C_ 0.634115 0.00475159 0.864112 -0.08735
C_ C_ 0.603755 0.918956 0.93806 -0.08735
C_ C_ 0.602831 0.864998 0.935841 -0.08735
C_ C_ 0.614249 0.838932 0.911098 -0.05681
C_ C_ 0.62493 0.868082 0.886315 -0.08735
C_ C_ 0.531583 0.680617 0.907663 0.68181
C_ C_ 0.608986 0.629465 0.982185 0.1947
C_ C_ 0.6051 0.608641 0.513328 -0.08735
C_ C_ 0.611664 0.643659 0.534843 -0.08735
C_ C_ 0.636378 0.689891 0.529517 -0.05681
C_ C_ 0.652473 0.699821 0.500364 0.18498
C_ C_ 0.688566 0.740825 0.998492 -0.08735
C_ C_ 0.704523 0.772552 0.517992 -0.08735
C_ C_ 0.679117 0.76714 0.545056 -0.08735
C_ C_ 0.649523 0.724542 0.551772 0.18498
C_ C_ 0.680375 0.698825 0.59851 0.44287
C_ C_ 0.59422 0.717122 0.593218 0.44287
C_ C_ 0.584498 0.705611 0.622775 -0.05681
C_ C_ 0.536305 0.71176 0.63533 -0.08735
C_ C_ 0.530165 0.707928 0.664764 -0.08735
C_ C_ 0.572056 0.697609 0.682674 -0.05681
C_ C_ 0.620652 0.691911 0.67007 -0.05681
C_ C_ 0.625273 0.69063 0.639945 -0.05681
C_ C_ 0.674233 0.687816 0.62798 -0.05681
C_ C_ 0.71449 0.674414 0.645981 -0.08735
C_ C_ 0.708334 0.667643 0.675949 -0.08735
C_ C_ 0.660653 0.679236 0.68758 -0.05681
C_ C_ 0.652601 0.673287 0.716997 0.44287
C_ C_ 0.566919 0.69867 0.712474 0.44287
C_ C_ 0.596545 0.668939 0.758885 0.18498
C_ C_ 0.561563 0.628897 0.763964 -0.08735
C_ C_ 0.543287 0.619154 0.792054 -0.08735
C_ C_ 0.567022 0.642947 0.815679 -0.08735
C_ C_ 0.604233 0.679591 0.810923 0.18498
C_ C_ 0.616586 0.696247 0.781801 -0.05681
C_ C_ 0.647198 0.739835 0.778329 -0.08735
C_ C_ 0.670562 0.762368 0.802256 -0.08735
C_ C_ 0.66161 0.741456 0.829142 0.1947
C_ C_ 0.774642 0.816684 0.656663 0.68181
C_ C_ 0.718098 0.820827 0.653658 -0.05681
C_ C_ 0.685783 0.818473 0.677028 -0.08735
C_ C_ 0.633213 0.828161 0.675076 -0.05681
C_ C_ 0.614213 0.834305 0.647637 -0.05681
C_ C_ 0.645914 0.829418 0.623087 -0.08735
C_ C_ 0.696103 0.82526 0.627051 -0.08735
C_ C_ 0.601688 0.835318 0.699064 -0.08735
C_ C_ 0.547313 0.836612 0.695374 -0.08735
C_ C_ 0.525952 0.836689 0.667139 -0.05681
C_ C_ 0.56076 0.83928 0.644112 -0.08735
C_ C_ 0.880343 0.731891 0.666473 0.68181
C_ C_ 0.878204 0.926917 0.65 0.68181
C_ C_ 0.884979 0.982648 0.649539 -0.05681
C_ C_ 0.848787 0.515552 0.66731 -0.08735
C_ C_ 0.860417 0.568016 0.666732 -0.05681
C_ C_ 0.868509 0.592798 0.640373 -0.05681
C_ C_ 0.864024 0.564698 0.614634 -0.08735
C_ C_ 0.913277 1.00807573 0.626088 -0.08735
C_ C_ 0.871442 0.593901 0.692037 -0.08735
C_ C_ 0.876284 0.647371 0.691923 -0.08735
C_ C_ 0.878237 0.673023 0.666279 -0.05681
C_ C_ 0.872749 0.644834 0.640593 -0.08735
C_ C_ 0.970258 0.8247 0.663639 0.68181
C_ C_ 0.893861 0.885626 0.738555 0.1947
C_ C_ 0.90051 0.895222 0.768219 -0.08735
C_ C_ 0.88297 0.862355 0.789392 -0.08735
C_ C_ 0.853997 0.82038 0.780988 -0.05681
C_ C_ 0.845525 0.811793 0.75111 0.18498
C_ C_ 0.812117 0.772412 0.743289 -0.08735
C_ C_ 0.791719 0.739082 0.762916 -0.08735
C_ C_ 0.81047 0.740585 0.790611 -0.08735
C_ C_ 0.838531 0.781966 0.801014 0.18498
C_ C_ 0.807308 0.80478 0.850022 0.44287
C_ C_ 0.89243 0.780888 0.843897 0.44287
C_ C_ 0.900876 0.79022 0.874296 -0.05681
C_ C_ 0.950361 0.790901 0.885788 -0.08735
C_ C_ 0.958127 0.788882 0.914291 -0.08735
C_ C_ 0.917761 0.798916 0.933674 -0.05681
C_ C_ 0.869374 0.805025 0.922039 -0.05681
C_ C_ 0.861426 0.797812 0.89273 -0.05681
C_ C_ 0.812675 0.808017 0.88133 -0.05681
C_ C_ 0.772397 0.821421 0.898699 -0.08735
C_ C_ 0.781658 0.823049 0.929187 -0.08735
C_ C_ 0.828741 0.816126 0.940484 -0.05681
C_ C_ 0.838018 0.824227 0.969812 0.44287
C_ C_ 0.926351 0.809988 0.962185 0.44287
C_ C_ 0.909905 0.843847 0.510243 0.18498
C_ C_ 0.944129 0.886132 0.516555 -0.08735
C_ C_ 0.960537 0.895287 0.54458 -0.08735
C_ C_ 0.936697 0.873042 0.568455 -0.08735
C_ C_ 0.898506 0.835089 0.564631 0.18498
C_ C_ 0.886034 0.819627 0.5349 -0.05681
C_ C_ 0.85018 0.780401 0.530925 -0.08735
C_ C_ 0.825722 0.761331 0.555732 -0.08735
C_ C_ 0.843867 0.772431 0.582924 0.1947
N_ N_ 0.638617 0.671457 0.978314 -0.29468
N_ N_ 0.640051 0.70927 0.58147 -0.17154
N_ N_ 0.606174 0.682378 0.729195 -0.17154
N_ N_ 0.627301 0.703701 0.833982 -0.29468
N_ N_ 0.86475 0.84551 0.730588 -0.29468
N_ N_ 0.846124 0.789928 0.832701 -0.17154
N_ N_ 0.886837 0.821021 0.980423 -0.17154
N_ N_ 0.879545 0.80804 0.587205 -0.29468
O_ O_ 0.708483 0.692192 0.928263 -0.58347
O_ O_ 0.70118 0.683763 0.882428 -0.58347
O_ O_ 0.629816 0.757339 0.933886 -0.58347
O_ O_ 0.627629 0.759061 0.886942 -0.58347
O_ O_ 0.638911 0.608961 0.925302 -0.58347
O_ O_ 0.62443 0.613715 0.87843 -0.58347
O_ O_ 0.55998 0.67489 0.929676 -0.58347
O_ O_ 0.550645 0.689028 0.88318 -0.58347
O_ O_ 0.554757 0.738093 0.578627 -0.46727
O_ O_ 0.725989 0.693712 0.585874 -0.46727
O_ O_ 0.527872 0.721622 0.724002 -0.46727
O_ O_ 0.693232 0.668978 0.73392 -0.46727
O_ O_ 0.794139 0.818375 0.681069 -0.58347
O_ O_ 0.802083 0.823779 0.634583 -0.58347
O_ O_ 0.878727 0.755833 0.689843 -0.58347
O_ O_ 0.874702 0.752037 0.642562 -0.58347
O_ O_ 0.8703 0.903572 0.672905 -0.58347
O_ O_ 0.880155 0.899671 0.628097 -0.58347
O_ O_ 0.941462 0.835728 0.685033 -0.58347
O_ O_ 0.95267 0.824058 0.638206 -0.58347
O_ O_ 0.927412 0.759667 0.82759 -0.46727
O_ O_ 0.762726 0.81044 0.837965 -0.46727
O_ O_ 0.971839 0.806681 0.973306 -0.46727
O_ O_ 0.800641 0.834807 0.986428 -0.46727
_cell_length_a 26.376
_cell_length_b 26.400000238300095
_cell_length_c 46.67800035477134
_cell_angle_alpha 90.00700052986613
_cell_angle_beta 89.99899961309502
_cell_angle_gamma 90.45000003183146
_symmetry_space_group_name_H-M         'P 1'
_symmetry_Int_Tables_number            1
loop_
_symmetry_equiv_pos_as_xyz
   'x, y, z'
                         
loop_
_atom_site_label
_atom_site_type_symbol
_atom_site_fract_x 
_atom_site_fract_y
_atom_site_fract_z
_atom_site_charge
Zn Zn 0.124665 0.184205 0.383281 0.90689
Zn Zn 0.133284 0.176358 0.431382 0.90689
Zn Zn 0.3677 0.309669 0.132199 0.90689
Zn Zn 0.357796 0.317846 0.179323 0.90689
H_ H_ 0.309076 0.200387 0.450806 0.11455
H_ H_ 0.372859 0.186296 0.350238 0.11455
H_ H_ 0.281493 0.184778 0.358223 0.11455
H_ H_ 0.397096 0.198042 0.467708 0.11455
H_ H_ 0.488366 0.192054 0.458573 0.11455
H_ H_ 0.459985 0.184678 0.368464 0.11455
H_ H_ 0.147804 0.013419 0.446632 0.11455
H_ H_ 0.0771595 0.439253 0.355772 0.11455
H_ H_ 0.12217 0.021157 0.35775 0.11455
H_ H_ 0.165426 0.425801 0.463885 0.11455
H_ H_ 0.137306 0.335403 0.462584 0.11455
H_ H_ 0.0963146 0.35085 0.374404 0.11455
H_ H_ 0.0936459 0.0974389 0.466973 0.11455
H_ H_ 0.087439 0.0610136 0.016165 0.11455
H_ H_ 0.132389 0.108652 0.0565088 0.11455
H_ H_ 0.187574 0.248977 0.474379 0.11455
H_ H_ 0.210312 0.302265 0.00828742 0.11455
H_ H_ 0.193698 0.279146 0.0606394 0.11455
H_ H_ 0.0189618 0.210557 0.118245 0.11455
H_ H_ 0.0033105 0.189184 0.169316 0.11455
H_ H_ 0.265143 0.160965 0.139352 0.11455
H_ H_ 0.248967 0.145871 0.190254 0.11455
H_ H_ 0.0646068 0.0858249 0.249855 0.11455
H_ H_ 0.0389371 0.0656896 0.299164 0.11455
H_ H_ 0.0741083 0.115812 0.34111 0.11455
H_ H_ 0.148721 0.248954 0.258428 0.11455
H_ H_ 0.183342 0.299781 0.297157 0.11455
H_ H_ 0.178225 0.264568 0.348235 0.11455
H_ H_ 0.185993 0.281643 0.188333 0.11455
H_ H_ 0.121795 0.330352 0.0924824 0.11455
H_ H_ 0.216698 0.332256 0.101974 0.11455
H_ H_ 0.106319 0.309431 0.209469 0.11455
H_ H_ 0.0131714 0.319603 0.203747 0.11455
H_ H_ 0.0352333 0.319769 0.110955 0.11455
H_ H_ 0.345007 0.483533 0.191829 0.11455
H_ H_ 0.400327 0.0648243 0.104188 0.11455
H_ H_ 0.357978 0.473219 0.0994146 0.11455
H_ H_ 0.345461 0.0673306 0.215859 0.11455
H_ H_ 0.359082 0.159566 0.211085 0.11455
H_ H_ 0.367276 0.144266 0.119454 0.11455
H_ H_ 0.411099 0.386062 0.213242 0.11455
H_ H_ 0.429464 0.41174 0.264591 0.11455
H_ H_ 0.393415 0.364216 0.304459 0.11455
H_ H_ 0.293647 0.249493 0.222474 0.11455
H_ H_ 0.278015 0.191283 0.262821 0.11455
H_ H_ 0.300726 0.212377 0.311771 0.11455
H_ H_ 0.485723 0.296041 0.371159 0.11455
H_ H_ 0.495732 0.312337 0.423689 0.11455
H_ H_ 0.232804 0.32563 0.38826 0.11455
H_ H_ 0.245912 0.338296 0.438514 0.11455
H_ H_ 0.425663 0.426289 0.500283 0.11455
H_ H_ 0.449594 0.427449 0.0488072 0.11455
H_ H_ 0.417385 0.374723 0.0912433 0.11455
H_ H_ 0.342932 0.237 0.00758267 0.11455
H_ H_ 0.306598 0.194965 0.0489483 0.11455
H_ H_ 0.318439 0.220636 0.0982629 0.11455
C_ C_ 0.230172 0.189363 0.407567 0.68181
C_ C_ 0.285539 0.190209 0.40499 -0.05681
C_ C_ 0.320972 0.192919 0.428463 -0.08735
C_ C_ 0.373766 0.184756 0.423538 -0.05681
C_ C_ 0.393802 0.184921 0.394824 -0.05681
C_ C_ 0.359131 0.184814 0.372409 -0.08735
C_ C_ 0.306795 0.183815 0.376959 -0.08735
C_ C_ 0.41022 0.190412 0.446609 -0.08735
C_ C_ 0.462151 0.19136 0.441055 -0.08735
C_ C_ 0.481003 0.184638 0.412467 -0.05681
C_ C_ 0.445359 0.181222 0.390131 -0.08735
C_ C_ 0.113231 0.280742 0.413953 0.68181
C_ C_ 0.142064 0.0809057 0.402484 0.68181
C_ C_ 0.14397 0.0231225 0.401113 -0.05681
C_ C_ 0.148108 0.496007 0.422379 -0.08735
C_ C_ 0.136249 0.442745 0.420851 -0.05681
C_ C_ 0.115026 0.422499 0.396116 -0.05681
C_ C_ 0.0982506 0.454706 0.374124 -0.08735
C_ C_ 0.101406 0.505695 0.377441 -0.08735
C_ C_ 0.147332 0.410905 0.444465 -0.08735
C_ C_ 0.133918 0.35926 0.443358 -0.08735
C_ C_ 0.11994 0.33649 0.41658 -0.05681
C_ C_ 0.109428 0.369187 0.393702 -0.08735
C_ C_ 0.0300573 0.177297 0.406328 0.68181
C_ C_ 0.104666 0.122919 0.485388 0.1947
C_ C_ 0.109382 0.0948255 0.0113756 -0.08735
C_ C_ 0.132256 0.121556 0.0345737 -0.08735
C_ C_ 0.154297 0.170272 0.0283701 -0.05681
C_ C_ 0.152851 0.188144 0.998743 0.18498
C_ C_ 0.179671 0.23905 0.496808 -0.08735
C_ C_ 0.190017 0.265597 0.013947 -0.08735
C_ C_ 0.184592 0.253007 0.042247 -0.08735
C_ C_ 0.165179 0.205781 0.050407 0.18498
C_ C_ 0.19398 0.181725 0.0982946 0.44287
C_ C_ 0.108848 0.204495 0.0913541 0.44287
C_ C_ 0.097853 0.193943 0.120667 -0.05681
C_ C_ 0.0505409 0.203177 0.132412 -0.08735
C_ C_ 0.0413966 0.190965 0.161978 -0.08735
C_ C_ 0.0818901 0.186831 0.181902 -0.05681
C_ C_ 0.128981 0.180537 0.169767 -0.05681
C_ C_ 0.138316 0.182763 0.139415 -0.05681
C_ C_ 0.186857 0.17493 0.127855 -0.05681
C_ C_ 0.226759 0.162801 0.146269 -0.08735
C_ C_ 0.2174 0.155839 0.176022 -0.08735
C_ C_ 0.170881 0.166295 0.188601 -0.05681
C_ C_ 0.160031 0.157187 0.218759 0.44287
C_ C_ 0.0756086 0.185488 0.212191 0.44287
C_ C_ 0.103632 0.155057 0.25992 0.18498
C_ C_ 0.0781696 0.110259 0.266814 -0.08735
C_ C_ 0.0686675 0.0966732 0.295042 -0.08735
C_ C_ 0.0856377 0.125743 0.319066 -0.08735
C_ C_ 0.114102 0.17055 0.313235 0.18498
C_ C_ 0.121408 0.186452 0.283951 -0.05681
C_ C_ 0.146575 0.232535 0.279095 -0.08735
C_ C_ 0.170686 0.259641 0.301551 -0.08735
C_ C_ 0.165386 0.239885 0.329605 0.1947
C_ C_ 0.263374 0.302587 0.152483 0.68181
C_ C_ 0.207749 0.307056 0.146568 -0.05681
C_ C_ 0.172723 0.29849 0.168823 -0.08735
C_ C_ 0.121996 0.305875 0.165444 -0.05681
C_ C_ 0.102492 0.314545 0.137773 -0.05681
C_ C_ 0.136553 0.323548 0.114078 -0.08735
C_ C_ 0.188474 0.318751 0.11889 -0.08735
C_ C_ 0.0904718 0.310963 0.188801 -0.08735
C_ C_ 0.0374268 0.320017 0.185131 -0.08735
C_ C_ 0.0173511 0.318778 0.157489 -0.05681
C_ C_ 0.0491684 0.317601 0.13368 -0.08735
C_ C_ 0.366344 0.215952 0.162692 0.68181
C_ C_ 0.352316 0.413061 0.148723 0.68181
C_ C_ 0.35143 0.469242 0.146472 -0.05681
C_ C_ 0.359753 -0.0013050000000000006 0.173261 -0.08735
C_ C_ 0.359801 0.0530818 0.170958 -0.05681
C_ C_ 0.366199 0.0764069 0.144483 -0.05681
C_ C_ 0.383351 0.0458062 0.122692 -0.08735
C_ C_ 0.357151 0.494944 0.119764 -0.08735
C_ C_ 0.354189 0.0845721 0.195634 -0.08735
C_ C_ 0.362183 0.135984 0.192304 -0.08735
C_ C_ 0.365673 0.159655 0.164935 -0.05681
C_ C_ 0.370125 0.12979 0.140582 -0.08735
C_ C_ 0.460795 0.321927 0.157601 0.68181
C_ C_ 0.390262 0.369389 0.230946 0.1947
C_ C_ 0.405929 0.380177 0.259057 -0.08735
C_ C_ 0.381568 0.355833 0.28212 -0.08735
C_ C_ 0.355113 0.311762 0.277366 -0.05681
C_ C_ 0.343702 0.297034 0.248738 0.18498
C_ C_ 0.30819 0.257768 0.243354 -0.08735
C_ C_ 0.294869 0.226712 0.265488 -0.08735
C_ C_ 0.312199 0.236884 0.294375 -0.08735
C_ C_ 0.339787 0.280885 0.300305 0.18498
C_ C_ 0.306977 0.310119 0.34728 0.44287
C_ C_ 0.394343 0.292184 0.343262 0.44287
C_ C_ 0.402537 0.300992 0.373022 -0.05681
C_ C_ 0.452319 0.303491 0.385367 -0.08735
C_ C_ 0.459043 0.314219 0.415181 -0.08735
C_ C_ 0.416045 0.320511 0.433411 -0.05681
C_ C_ 0.368624 0.320705 0.420429 -0.05681
C_ C_ 0.361991 0.314333 0.390596 -0.05681
C_ C_ 0.312708 0.314836 0.378566 -0.05681
C_ C_ 0.270669 0.324552 0.397068 -0.08735
C_ C_ 0.27875 0.333532 0.425562 -0.08735
C_ C_ 0.327829 0.330698 0.438232 -0.05681
C_ C_ 0.333135 0.338908 0.467925 0.44287
C_ C_ 0.423794 0.331714 0.46267 0.44287
C_ C_ 0.387615 0.333358 0.0110393 0.18498
C_ C_ 0.414877 0.378023 0.0173629 -0.08735
C_ C_ 0.431001 0.38934 0.0450626 -0.08735
C_ C_ 0.410129 0.361106 0.0681935 -0.08735
C_ C_ 0.38126 0.315855 0.0633702 0.18498
C_ C_ 0.373443 0.298629 0.0343359 -0.05681
C_ C_ 0.350866 0.25146 0.0289473 -0.08735
C_ C_ 0.326842 0.22995 0.0526769 -0.08735
C_ C_ 0.336977 0.243088 0.0806775 0.1947
N_ N_ 0.126587 0.168823 0.480511 -0.29468
N_ N_ 0.155467 0.194272 0.0800669 -0.17154
N_ N_ 0.11486 0.169078 0.229856 -0.17154
N_ N_ 0.135475 0.198937 0.335379 -0.29468
N_ N_ 0.359394 0.329908 0.225572 -0.29468
N_ N_ 0.347559 0.297724 0.330192 -0.17154
N_ N_ 0.382746 0.340591 0.479723 -0.17154
N_ N_ 0.362889 0.287738 0.0859739 -0.29468
O_ O_ 0.21011 0.187445 0.432562 -0.58347
O_ O_ 0.200461 0.190959 0.385939 -0.58347
O_ O_ 0.120092 0.254241 0.436236 -0.58347
O_ O_ 0.118237 0.259763 0.389254 -0.58347
O_ O_ 0.145789 0.102534 0.426649 -0.58347
O_ O_ 0.131948 0.107709 0.380594 -0.58347
O_ O_ 0.0588322 0.161986 0.426758 -0.58347
O_ O_ 0.0489554 0.178724 0.380898 -0.58347
O_ O_ 0.0740052 0.224266 0.0751365 -0.46727
O_ O_ 0.238283 0.172256 0.0874599 -0.46727
O_ O_ 0.0288635 0.188582 0.222814 -0.46727
O_ O_ 0.195085 0.136058 0.235571 -0.46727
O_ O_ 0.280722 0.317403 0.176381 -0.58347
O_ O_ 0.29223 0.297368 0.132144 -0.58347
O_ O_ 0.356476 0.243183 0.184311 -0.58347
O_ O_ 0.378829 0.23712 0.139333 -0.58347
O_ O_ 0.353537 0.393029 0.174604 -0.58347
O_ O_ 0.353288 0.387243 0.126563 -0.58347
O_ O_ 0.432922 0.322343 0.179047 -0.58347
O_ O_ 0.439322 0.31484 0.133831 -0.58347
O_ O_ 0.43408 0.283491 0.325173 -0.46727
O_ O_ 0.262331 0.322088 0.335565 -0.46727
O_ O_ 0.469987 0.341367 0.472271 -0.46727
O_ O_ 0.294066 0.35629 0.483497 -0.46727
Zn Zn 0.125425 0.181705 0.882217 0.90689
Zn Zn 0.135511 0.171648 0.929162 0.90689
Zn Zn 0.370509 0.328387 0.632697 0.90689
Zn Zn 0.360197 0.330316 0.68171 0.90689
H_ H_ 0.30559 0.193115 0.940442 0.11455
H_ H_ 0.377728 0.157058 0.843268 0.11455
H_ H_ 0.281304 0.164532 0.851798 0.11455
H_ H_ 0.386738 0.19651 0.959554 0.11455
H_ H_ 0.48258 0.185787 0.953941 0.11455
H_ H_ 0.459782 0.170422 0.864738 0.11455
H_ H_ 0.169262 0.00640212 0.93865 0.11455
H_ H_ 0.117159 0.428661 0.848164 0.11455
H_ H_ 0.109348 0.0206161 0.85391 0.11455
H_ H_ 0.139068 0.421764 0.969154 0.11455
H_ H_ 0.1414 0.330859 0.962518 0.11455
H_ H_ 0.128526 0.343409 0.87047 0.11455
H_ H_ 0.0971812 0.0899954 0.965617 0.11455
H_ H_ 0.072756 0.0747304 0.517794 0.11455
H_ H_ 0.104099 0.122839 0.557606 0.11455
H_ H_ 0.188397 0.240702 0.970301 0.11455
H_ H_ 0.21361 0.30727 0.512301 0.11455
H_ H_ 0.210816 0.276568 0.563713 0.11455
H_ H_ 0.0133862 0.227997 0.622865 0.11455
H_ H_ 0.000167447 0.219758 0.67242 0.11455
H_ H_ 0.259251 0.15878 0.64 0.11455
H_ H_ 0.250409 0.162803 0.69296 0.11455
H_ H_ 0.0525717 0.0922024 0.750083 0.11455
H_ H_ 0.0463251 0.0613933 0.795494 0.11455
H_ H_ 0.0622103 0.121293 0.838778 0.11455
H_ H_ 0.142686 0.256653 0.758533 0.11455
H_ H_ 0.187191 0.295172 0.800423 0.11455
H_ H_ 0.180916 0.255097 0.846761 0.11455
H_ H_ 0.189804 0.330551 0.696031 0.11455
H_ H_ 0.126071 0.349497 0.598604 0.11455
H_ H_ 0.2182 0.35335 0.608792 0.11455
H_ H_ 0.10835 0.325846 0.715937 0.11455
H_ H_ 0.0126699 0.31691 0.706557 0.11455
H_ H_ 0.0388387 0.354819 0.619573 0.11455
H_ H_ 0.379608 0.496157 0.696315 0.11455
H_ H_ 0.346581 0.0763775 0.601639 0.11455
H_ H_ 0.324717 0.485073 0.608824 0.11455
H_ H_ 0.39112 0.0880004 0.716951 0.11455
H_ H_ 0.39281 0.179344 0.709656 0.11455
H_ H_ 0.368765 0.160864 0.618958 0.11455
H_ H_ 0.435993 0.385679 0.721488 0.11455
H_ H_ 0.439098 0.415772 0.775576 0.11455
H_ H_ 0.403059 0.362763 0.810089 0.11455
H_ H_ 0.292338 0.272648 0.724326 0.11455
H_ H_ 0.25631 0.221272 0.759773 0.11455
H_ H_ 0.268251 0.238746 0.808419 0.11455
H_ H_ 0.472335 0.279657 0.870793 0.11455
H_ H_ 0.488928 0.293824 0.921271 0.11455
H_ H_ 0.230518 0.340594 0.888958 0.11455
H_ H_ 0.242171 0.357275 0.940121 0.11455
H_ H_ 0.428012 0.402226 0.000180000000000069 0.11455
H_ H_ 0.440338 0.45497 0.548981 0.11455
H_ H_ 0.417566 0.398278 0.58892 0.11455
H_ H_ 0.34812 0.261957 0.508296 0.11455
H_ H_ 0.304468 0.223604 0.547263 0.11455
H_ H_ 0.323063 0.251099 0.598041 0.11455
C_ C_ 0.23254 0.1834 0.902508 0.68181
C_ C_ 0.2877 0.174677 0.897705 -0.05681
C_ C_ 0.320033 0.178374 0.921499 -0.08735
C_ C_ 0.371885 0.171851 0.917173 -0.05681
C_ C_ 0.391187 0.168224 0.889069 -0.05681
C_ C_ 0.360359 0.161473 0.864855 -0.08735
C_ C_ 0.307769 0.166818 0.869721 -0.08735
C_ C_ 0.404542 0.185739 0.940012 -0.08735
C_ C_ 0.457643 0.180872 0.9361 -0.08735
C_ C_ 0.477525 0.178572 0.908349 -0.05681
C_ C_ 0.443688 0.172743 0.885165 -0.08735
C_ C_ 0.127902 0.274979 0.913792 0.68181
C_ C_ 0.142527 0.0776499 0.898617 0.68181
C_ C_ 0.141211 0.0184934 0.896486 -0.05681
C_ C_ 0.133538 0.488672 0.924161 -0.08735
C_ C_ 0.132894 0.436465 0.921802 -0.05681
C_ C_ 0.131839 0.414518 0.894537 -0.05681
C_ C_ 0.122033 0.443469 0.869316 -0.08735
C_ C_ 0.133303 0.493945 0.871524 -0.08735
C_ C_ 0.136939 0.405629 0.945817 -0.08735
C_ C_ 0.135922 0.353607 0.943072 -0.08735
C_ C_ 0.134156 0.33026 0.916275 -0.05681
C_ C_ 0.132676 0.362188 0.891532 -0.08735
C_ C_ 0.0312123 0.168799 0.906461 0.68181
C_ C_ 0.111526 0.112235 0.982492 0.1947
C_ C_ 0.0976342 0.106228 0.513649 -0.08735
C_ C_ 0.113989 0.135852 0.536175 -0.08735
C_ C_ 0.142369 0.181161 0.531086 -0.05681
C_ C_ 0.148233 0.197442 0.502774 0.18498
C_ C_ 0.174772 0.233621 0.992049 -0.08735
C_ C_ 0.193843 0.271631 0.51834 -0.08735
C_ C_ 0.190258 0.255228 0.546848 -0.08735
C_ C_ 0.158581 0.214349 0.553878 0.18498
C_ C_ 0.190608 0.189908 0.600917 0.44287
C_ C_ 0.105182 0.21552 0.594322 0.44287
C_ C_ 0.0959922 0.211445 0.623856 -0.05681
C_ C_ 0.0453357 0.214315 0.635705 -0.08735
C_ C_ 0.0379136 0.213006 0.664882 -0.08735
C_ C_ 0.0779617 0.196395 0.683018 -0.05681
C_ C_ 0.12609 0.18511 0.671635 -0.05681
C_ C_ 0.136832 0.19642 0.642456 -0.05681
C_ C_ 0.184635 0.186556 0.630846 -0.05681
C_ C_ 0.224344 0.171737 0.648787 -0.08735
C_ C_ 0.216615 0.168646 0.679153 -0.08735
C_ C_ 0.167456 0.17238 0.689402 -0.05681
C_ C_ 0.155674 0.164209 0.718606 0.44287
C_ C_ 0.0699947 0.188427 0.711993 0.44287
C_ C_ 0.0964212 0.162062 0.759165 0.18498
C_ C_ 0.0698035 0.116096 0.764902 -0.08735
C_ C_ 0.0638558 0.099626 0.792946 -0.08735
C_ C_ 0.0753671 0.130776 0.81687 -0.08735
C_ C_ 0.104414 0.175806 0.8126 0.18498
C_ C_ 0.111542 0.194177 0.783116 -0.05681
C_ C_ 0.139762 0.239283 0.779978 -0.08735
C_ C_ 0.161886 0.262203 0.80398 -0.08735
C_ C_ 0.160267 0.237383 0.829452 0.1947
C_ C_ 0.267602 0.323858 0.657371 0.68181
C_ C_ 0.21116 0.328194 0.652068 -0.05681
C_ C_ 0.176897 0.322332 0.674932 -0.08735
C_ C_ 0.124956 0.32664 0.670586 -0.05681
C_ C_ 0.105895 0.334493 0.643086 -0.05681
C_ C_ 0.139808 0.340938 0.620416 -0.08735
C_ C_ 0.192662 0.33888 0.62453 -0.08735
C_ C_ 0.0916682 0.330425 0.694069 -0.08735
C_ C_ 0.0382804 0.32746 0.690021 -0.08735
C_ C_ 0.0205467 0.327552 0.661226 -0.05681
C_ C_ 0.0546285 0.340036 0.639153 -0.08735
C_ C_ 0.37095 0.233852 0.662252 0.68181
C_ C_ 0.364441 0.427156 0.652596 0.68181
C_ C_ 0.355029 0.48157 0.652161 -0.05681
C_ C_ 0.376836 0.015595 0.675871 -0.08735
C_ C_ 0.382328 0.0675748 0.671429 -0.05681
C_ C_ 0.373359 0.0900883 0.643894 -0.05681
C_ C_ 0.357465 0.0577072 0.621662 -0.08735
C_ C_ 0.339436 0.505241 0.627741 -0.08735
C_ C_ 0.39045 0.101348 0.694189 -0.08735
C_ C_ 0.38754 0.154498 0.690645 -0.08735
C_ C_ 0.373951 0.175579 0.665262 -0.05681
C_ C_ 0.371282 0.143785 0.640451 -0.08735
C_ C_ 0.466691 0.34103 0.659158 0.68181
C_ C_ 0.409734 0.371994 0.738106 0.1947
C_ C_ 0.416584 0.385332 0.768034 -0.08735
C_ C_ 0.389928 0.358503 0.789037 -0.08735
C_ C_ 0.358418 0.320387 0.781174 -0.05681
C_ C_ 0.344731 0.313036 0.750737 0.18498
C_ C_ 0.308303 0.27599 0.74553 -0.08735
C_ C_ 0.286876 0.246336 0.765935 -0.08735
C_ C_ 0.296216 0.253448 0.794494 -0.08735
C_ C_ 0.330616 0.292521 0.803088 0.18498
C_ C_ 0.300013 0.317144 0.849842 0.44287
C_ C_ 0.382916 0.286705 0.844752 0.44287
C_ C_ 0.393636 0.295743 0.873719 -0.05681
C_ C_ 0.440493 0.285837 0.885767 -0.08735
C_ C_ 0.449852 0.296459 0.9139 -0.08735
C_ C_ 0.407862 0.309839 0.933036 -0.05681
C_ C_ 0.360714 0.321288 0.922061 -0.05681
C_ C_ 0.354712 0.314635 0.891625 -0.05681
C_ C_ 0.306329 0.322825 0.879903 -0.05681
C_ C_ 0.268362 0.338551 0.897665 -0.08735
C_ C_ 0.27437 0.345073 0.927935 -0.08735
C_ C_ 0.322282 0.335731 0.940504 -0.05681
C_ C_ 0.331104 0.338016 0.970331 0.44287
C_ C_ 0.415266 0.310416 0.96313 0.44287
C_ C_ 0.391719 0.356912 0.510312 0.18498
C_ C_ 0.410228 0.404485 0.517153 -0.08735
C_ C_ 0.420684 0.41982 0.544963 -0.08735
C_ C_ 0.404638 0.389453 0.568181 -0.08735
C_ C_ 0.382118 0.342498 0.56233 0.18498
C_ C_ 0.37261 0.326643 0.533683 -0.05681
C_ C_ 0.349903 0.279675 0.528552 -0.08735
C_ C_ 0.330482 0.253219 0.551771 -0.08735
C_ C_ 0.338029 0.270858 0.579992 0.1947
N_ N_ 0.137499 0.156197 0.976647 -0.29468
N_ N_ 0.15093 0.201614 0.582958 -0.17154
N_ N_ 0.108208 0.173852 0.729102 -0.17154
N_ N_ 0.128965 0.197434 0.834486 -0.29468
N_ N_ 0.370514 0.34143 0.729855 -0.29468
N_ N_ 0.339188 0.302022 0.833422 -0.17154
N_ N_ 0.37798 0.324469 0.981336 -0.17154
N_ N_ 0.366273 0.313719 0.584336 -0.29468
O_ O_ 0.2127 0.190039 0.927646 -0.58347
O_ O_ 0.203339 0.175681 0.881418 -0.58347
O_ O_ 0.120959 0.246288 0.936092 -0.58347
O_ O_ 0.129701 0.255443 0.889023 -0.58347
O_ O_ 0.155278 0.0995507 0.921342 -0.58347
O_ O_ 0.125511 0.103573 0.877299 -0.58347
O_ O_ 0.060093 0.156874 0.926939 -0.58347
O_ O_ 0.0506277 0.182109 0.882634 -0.58347
O_ O_ 0.0686514 0.232144 0.579075 -0.46727
O_ O_ 0.233007 0.179724 0.587652 -0.46727
O_ O_ 0.0237224 0.194699 0.72226 -0.46727
O_ O_ 0.190912 0.145905 0.735933 -0.46727
O_ O_ 0.289832 0.334095 0.681866 -0.58347
O_ O_ 0.296318 0.31616 0.636253 -0.58347
O_ O_ 0.349208 0.258724 0.682033 -0.58347
O_ O_ 0.378552 0.253042 0.6386 -0.58347
O_ O_ 0.365973 0.405399 0.676637 -0.58347
O_ O_ 0.35727 0.402622 0.630075 -0.58347
O_ O_ 0.438939 0.330279 0.679369 -0.58347
O_ O_ 0.448102 0.341267 0.63378 -0.58347
O_ O_ 0.413437 0.257023 0.830001 -0.46727
O_ O_ 0.255886 0.327265 0.838356 -0.46727
O_ O_ 0.461216 0.300303 0.975028 -0.46727
O_ O_ 0.297639 0.358397 0.987322 -0.46727
Zn Zn 0.130379 0.687339 0.384308 0.90689
Zn Zn 0.137936 0.678192 0.43255 0.90689
Zn Zn 0.376438 0.813268 0.131523 0.90689
Zn Zn 0.365412 0.816767 0.180636 0.90689
H_ H_ 0.303769 0.673619 0.446377 0.11455
H_ H_ 0.376511 0.678028 0.347356 0.11455
H_ H_ 0.282998 0.683312 0.354351 0.11455
H_ H_ 0.392627 0.672492 0.465302 0.11455
H_ H_ 0.484789 0.65932 0.457864 0.11455
H_ H_ 0.462308 0.694692 0.368136 0.11455
H_ H_ 0.168932 0.510795 0.440846 0.11455
H_ H_ 0.124555 0.929255 0.352258 0.11455
H_ H_ 0.0774455 0.529825 0.363083 0.11455
H_ H_ 0.144792 0.923443 0.470442 0.11455
H_ H_ 0.125804 0.835093 0.463965 0.11455
H_ H_ 0.108594 0.846428 0.375209 0.11455
H_ H_ 0.0842935 0.605687 0.466937 0.11455
H_ H_ 0.0770344 0.558807 0.0171428 0.11455
H_ H_ 0.112201 0.606775 0.0575988 0.11455
H_ H_ 0.196353 0.739286 0.473908 0.11455
H_ H_ 0.217629 0.791251 0.0128623 0.11455
H_ H_ 0.212668 0.758316 0.0637811 0.11455
H_ H_ 0.0184425 0.683644 0.123967 0.11455
H_ H_ 0.00532909 0.694119 0.174366 0.11455
H_ H_ 0.267747 0.648563 0.142518 0.11455
H_ H_ 0.250921 0.621001 0.192314 0.11455
H_ H_ 0.0668785 0.57682 0.253209 0.11455
H_ H_ 0.0472169 0.560406 0.301746 0.11455
H_ H_ 0.0692881 0.6165 0.339487 0.11455
H_ H_ 0.160934 0.736424 0.257619 0.11455
H_ H_ 0.193238 0.788266 0.297773 0.11455
H_ H_ 0.188974 0.755847 0.346903 0.11455
H_ H_ 0.197606 0.798102 0.193067 0.11455
H_ H_ 0.12867 0.809542 0.0966794 0.11455
H_ H_ 0.217232 0.813302 0.102776 0.11455
H_ H_ 0.111633 0.802309 0.212847 0.11455
H_ H_ 0.0191619 0.80016 0.206368 0.11455
H_ H_ 0.0411266 0.819348 0.115447 0.11455
H_ H_ 0.361106 0.98118 0.193488 0.11455
H_ H_ 0.363507 0.56366 0.0967928 0.11455
H_ H_ 0.39359 0.96977 0.104516 0.11455
H_ H_ 0.349034 0.566781 0.21328 0.11455
H_ H_ 0.376088 0.660587 0.210459 0.11455
H_ H_ 0.36987 0.647136 0.116418 0.11455
H_ H_ 0.417135 0.890726 0.215027 0.11455
H_ H_ 0.420626 0.939426 0.262806 0.11455
H_ H_ 0.389773 0.891109 0.302769 0.11455
H_ H_ 0.302489 0.759636 0.223276 0.11455
H_ H_ 0.270189 0.707173 0.266965 0.11455
H_ H_ 0.294242 0.733311 0.316019 0.11455
H_ H_ 0.487804 0.806887 0.373307 0.11455
H_ H_ 0.494931 0.798605 0.42718 0.11455
H_ H_ 0.237077 0.85104 0.386903 0.11455
H_ H_ 0.243701 0.840423 0.440598 0.11455
H_ H_ 0.442381 0.898419 0.493076 0.11455
H_ H_ 0.446565 0.940693 0.0489807 0.11455
H_ H_ 0.439426 0.873268 0.0876396 0.11455
H_ H_ 0.352084 0.753408 0.00701282 0.11455
H_ H_ 0.323682 0.698358 0.0476339 0.11455
H_ H_ 0.328616 0.735076 0.0961904 0.11455
C_ C_ 0.231675 0.684599 0.405641 0.68181
C_ C_ 0.286429 0.68376 0.400546 -0.05681
C_ C_ 0.319699 0.674776 0.424447 -0.08735
C_ C_ 0.373133 0.6788 0.420579 -0.05681
C_ C_ 0.392345 0.681764 0.391947 -0.05681
C_ C_ 0.359892 0.684057 0.36852 -0.08735
C_ C_ 0.30774 0.681659 0.372901 -0.08735
C_ C_ 0.406118 0.672566 0.444265 -0.08735
C_ C_ 0.458924 0.669489 0.439793 -0.08735
C_ C_ 0.479167 0.679312 0.412206 -0.05681
C_ C_ 0.445391 0.687246 0.389432 -0.08735
C_ C_ 0.128109 0.778842 0.416237 0.68181
C_ C_ 0.135954 0.580976 0.402208 0.68181
C_ C_ 0.131286 0.526058 0.400081 -0.05681
C_ C_ 0.143763 0.993242 0.426268 -0.08735
C_ C_ 0.136803 0.940688 0.42448 -0.05681
C_ C_ 0.129627 0.91808 0.39742 -0.05681
C_ C_ 0.129713 0.947538 0.372058 -0.08735
C_ C_ 0.135141 0.999802266 0.37438 -0.08735
C_ C_ 0.135478 0.910142 0.448499 -0.08735
C_ C_ 0.12509 0.8593 0.446132 -0.08735
C_ C_ 0.124807 0.834769 0.419758 -0.05681
C_ C_ 0.123137 0.865498 0.394736 -0.08735
C_ C_ 0.033469 0.680223 0.409987 0.68181
C_ C_ 0.102281 0.623159 0.484839 0.1947
C_ C_ 0.0986349 0.592085 0.0122491 -0.08735
C_ C_ 0.120677 0.618323 0.035623 -0.08735
C_ C_ 0.147227 0.663706 0.0299661 -0.05681
C_ C_ 0.154273 0.680047 1.00137452 0.18498
C_ C_ 0.179131 0.736144 0.494108 -0.08735
C_ C_ 0.201929 0.753609 0.0171499 -0.08735
C_ C_ 0.194184 0.738209 0.0464001 -0.08735
C_ C_ 0.165453 0.694542 0.0530239 0.18498
C_ C_ 0.19673 0.672157 0.102181 0.44287
C_ C_ 0.109916 0.687079 0.0948678 0.44287
C_ C_ 0.103206 0.683092 0.125413 -0.05681
C_ C_ 0.0529572 0.683579 0.136884 -0.08735
C_ C_ 0.0431044 0.684908 0.166686 -0.08735
C_ C_ 0.0859214 0.67307 0.184695 -0.05681
C_ C_ 0.134072 0.664815 0.173733 -0.05681
C_ C_ 0.141125 0.668271 0.14343 -0.05681
C_ C_ 0.188752 0.66223 0.131919 -0.05681
C_ C_ 0.229625 0.65488 0.151214 -0.08735
C_ C_ 0.2219 0.642269 0.181193 -0.08735
C_ C_ 0.175177 0.65298 0.192028 -0.05681
C_ C_ 0.163208 0.649604 0.222287 0.44287
C_ C_ 0.0772368 0.669187 0.214104 0.44287
C_ C_ 0.102849 0.650716 0.261584 0.18498
C_ C_ 0.0830923 0.603372 0.269352 -0.08735
C_ C_ 0.0785602 0.587965 0.297866 -0.08735
C_ C_ 0.0873179 0.622468 0.319222 -0.08735
C_ C_ 0.113196 0.668476 0.31414 0.18498
C_ C_ 0.120865 0.68414 0.285206 -0.05681
C_ C_ 0.149406 0.728087 0.279845 -0.08735
C_ C_ 0.172276 0.75487 0.302107 -0.08735
C_ C_ 0.165864 0.737037 0.329966 0.1947
C_ C_ 0.269185 0.815099 0.15384 0.68181
C_ C_ 0.214209 0.808074 0.149065 -0.05681
C_ C_ 0.181799 0.802799 0.173258 -0.08735
C_ C_ 0.129402 0.802538 0.168857 -0.05681
C_ C_ 0.107709 0.809677 0.140552 -0.05681
C_ C_ 0.141907 0.81421 0.117201 -0.08735
C_ C_ 0.194595 0.808635 0.120872 -0.08735
C_ C_ 0.0949149 0.80181 0.191791 -0.08735
C_ C_ 0.0433224 0.803908 0.186992 -0.08735
C_ C_ 0.0233743 0.806294 0.159368 -0.05681
C_ C_ 0.0562077 0.813937 0.136319 -0.08735
C_ C_ 0.371819 0.717128 0.16153 0.68181
C_ C_ 0.367487 0.910743 0.151081 0.68181
C_ C_ 0.365025 0.967863 0.148405 -0.05681
C_ C_ 0.347309 0.500876 0.171071 -0.08735
C_ C_ 0.353824 0.552787 0.168929 -0.05681
C_ C_ 0.359092 0.576307 0.141576 -0.05681
C_ C_ 0.357428 0.547272 0.117341 -0.08735
C_ C_ 0.380218 -0.007225999999999955 0.122968 -0.08735
C_ C_ 0.360394 0.584152 0.19331 -0.08735
C_ C_ 0.368607 0.63733 0.190807 -0.08735
C_ C_ 0.37341 0.660069 0.163532 -0.05681
C_ C_ 0.366254 0.630349 0.138907 -0.08735
C_ C_ 0.468484 0.816439 0.156876 0.68181
C_ C_ 0.391087 0.880986 0.231053 0.1947
C_ C_ 0.397788 0.903752 0.258867 -0.08735
C_ C_ 0.382056 0.872733 0.282461 -0.08735
C_ C_ 0.351113 0.829599 0.279089 -0.05681
C_ C_ 0.341064 0.813944 0.250605 0.18498
C_ C_ 0.311387 0.771438 0.245671 -0.08735
C_ C_ 0.294134 0.743078 0.269391 -0.08735
C_ C_ 0.310246 0.75485 0.297296 -0.08735
C_ C_ 0.338148 0.798512 0.302931 0.18498
C_ C_ 0.309064 0.822832 0.350304 0.44287
C_ C_ 0.394526 0.800743 0.345568 0.44287
C_ C_ 0.403343 0.809294 0.3742 -0.05681
C_ C_ 0.453644 0.804646 0.386467 -0.08735
C_ C_ 0.459213 0.806923 0.416666 -0.08735
C_ C_ 0.415773 0.808716 0.434807 -0.05681
C_ C_ 0.368325 0.817354 0.421761 -0.05681
C_ C_ 0.362307 0.818121 0.391929 -0.05681
C_ C_ 0.31348 0.826274 0.380001 -0.05681
C_ C_ 0.272572 0.837661 0.397393 -0.08735
C_ C_ 0.276704 0.834858 0.427415 -0.08735
C_ C_ 0.325254 0.827553 0.440006 -0.05681
C_ C_ 0.330783 0.830119 0.469954 0.44287
C_ C_ 0.416555 0.805931 0.465184 0.44287
C_ C_ 0.394193 0.845538 0.0104141 0.18498
C_ C_ 0.421014 0.891258 0.0169022 -0.08735
C_ C_ 0.431705 0.90363 0.0451514 -0.08735
C_ C_ 0.420737 0.86952 0.0673175 -0.08735
C_ C_ 0.393205 0.826045 0.0618387 0.18498
C_ C_ 0.37793 0.814342 0.033657 -0.05681
C_ C_ 0.356959 0.767077 0.0283805 -0.08735
C_ C_ 0.343096 0.734475 0.0518092 -0.08735
C_ C_ 0.348562 0.753773 0.0801608 0.1947
N_ N_ 0.133597 0.661678 0.47997 -0.29468
N_ N_ 0.156961 0.680934 0.0835208 -0.17154
N_ N_ 0.115462 0.659402 0.232387 -0.17154
N_ N_ 0.135323 0.69649 0.336304 -0.29468
N_ N_ 0.366122 0.836366 0.228569 -0.29468
N_ N_ 0.349338 0.810918 0.333526 -0.17154
N_ N_ 0.379118 0.826319 0.481364 -0.17154
N_ N_ 0.372758 0.79787 0.084919 -0.29468
O_ O_ 0.214644 0.684825 0.430515 -0.58347
O_ O_ 0.204346 0.683673 0.383898 -0.58347
O_ O_ 0.129357 0.750127 0.437773 -0.58347
O_ O_ 0.133275 0.759605 0.391488 -0.58347
O_ O_ 0.141493 0.601638 0.426399 -0.58347
O_ O_ 0.130326 0.609851 0.380399 -0.58347
O_ O_ 0.0600966 0.669991 0.431369 -0.58347
O_ O_ 0.0551949 0.690294 0.386093 -0.58347
O_ O_ 0.07146 0.694334 0.0778921 -0.46727
O_ O_ 0.243163 0.679766 0.0915886 -0.46727
O_ O_ 0.032016 0.676531 0.225209 -0.46727
O_ O_ 0.19814 0.632996 0.239081 -0.46727
O_ O_ 0.28806 0.817981 0.179538 -0.58347
O_ O_ 0.298338 0.812761 0.132586 -0.58347
O_ O_ 0.363548 0.74164 0.184374 -0.58347
O_ O_ 0.379556 0.738763 0.138381 -0.58347
O_ O_ 0.364387 0.889275 0.174991 -0.58347
O_ O_ 0.372338 0.883713 0.128484 -0.58347
O_ O_ 0.441287 0.818626 0.178764 -0.58347
O_ O_ 0.448547 0.819462 0.131641 -0.58347
O_ O_ 0.431574 0.782047 0.329559 -0.46727
O_ O_ 0.263282 0.820249 0.338632 -0.46727
O_ O_ 0.453693 0.780636 0.477639 -0.46727
O_ O_ 0.290013 0.83615 0.486945 -0.46727
Zn Zn 0.125623 0.679145 0.884033 0.90689
Zn Zn 0.135004 0.670206 0.931535 0.90689
Zn Zn 0.379644 0.82137 0.635863 0.90689
Zn Zn 0.366441 0.830589 0.683947 0.90689
H_ H_ 0.30599 0.673295 0.946589 0.11455
H_ H_ 0.373956 0.665184 0.847375 0.11455
H_ H_ 0.281868 0.678654 0.855394 0.11455
H_ H_ 0.388249 0.675107 0.964897 0.11455
H_ H_ 0.482433 0.683749 0.958358 0.11455
H_ H_ 0.45806 0.665083 0.867002 0.11455
H_ H_ 0.145917 0.505699 0.944482 0.11455
H_ H_ 0.0960935 0.928642 0.851156 0.11455
H_ H_ 0.135212 0.515549 0.852052 0.11455
H_ H_ 0.157929 0.921743 0.964745 0.11455
H_ H_ 0.120915 0.83397 0.963234 0.11455
H_ H_ 0.115589 0.840494 0.870116 0.11455
H_ H_ 0.0748865 0.600587 0.969154 0.11455
H_ H_ 0.0733268 0.573694 0.516046 0.11455
H_ H_ 0.0994153 0.627665 0.557511 0.11455
H_ H_ 0.194824 0.729754 0.9729 0.11455
H_ H_ 0.209916 0.807291 0.511463 0.11455
H_ H_ 0.187211 0.789404 0.559267 0.11455
H_ H_ 1.00861386 0.693951 0.621773 0.11455
H_ H_ 0.999137 0.690733 0.674991 0.11455
H_ H_ 0.264369 0.692416 0.640747 0.11455
H_ H_ 0.251714 0.67688 0.694615 0.11455
H_ H_ 0.0532802 0.597938 0.748787 0.11455
H_ H_ 0.0517597 0.559412 0.797749 0.11455
H_ H_ 0.067836 0.618308 0.838097 0.11455
H_ H_ 0.158544 0.745301 0.759927 0.11455
H_ H_ 0.185479 0.795877 0.801509 0.11455
H_ H_ 0.182092 0.75477 0.850113 0.11455
H_ H_ 0.194713 0.80395 0.699899 0.11455
H_ H_ 0.127346 0.812147 0.603538 0.11455
H_ H_ 0.221234 0.808437 0.609736 0.11455
H_ H_ 0.113479 0.822586 0.71845 0.11455
H_ H_ 0.022272 0.835266 0.715114 0.11455
H_ H_ 0.0418712 0.816632 0.622928 0.11455
H_ H_ 0.385664 0.99625 0.696374 0.11455
H_ H_ 0.327536 0.574239 0.605508 0.11455
H_ H_ 0.346342 0.979493 0.605885 0.11455
H_ H_ 0.40062 0.577262 0.71632 0.11455
H_ H_ 0.400776 0.66999 0.714056 0.11455
H_ H_ 0.36581 0.655192 0.623915 0.11455
H_ H_ 0.423753 0.896002 0.72297 0.11455
H_ H_ 0.427908 0.929261 0.774653 0.11455
H_ H_ 0.386133 0.880262 0.811505 0.11455
H_ H_ 0.299327 0.768164 0.722427 0.11455
H_ H_ 0.263038 0.711794 0.75883 0.11455
H_ H_ 0.273612 0.730375 0.809477 0.11455
H_ H_ 0.480049 0.791509 0.870037 0.11455
H_ H_ 0.489403 0.792038 0.923755 0.11455
H_ H_ 0.231584 0.848134 0.88844 0.11455
H_ H_ 0.244939 0.8468 0.941088 0.11455
H_ H_ 0.424315 0.92198 1.00058 0.11455
H_ H_ 0.463705 0.937266 0.542877 0.11455
H_ H_ 0.431242 0.89253 0.585295 0.11455
H_ H_ 0.338594 0.756515 0.511882 0.11455
H_ H_ 0.306422 0.71542 0.554813 0.11455
H_ H_ 0.320146 0.752789 0.602157 0.11455
C_ C_ 0.231234 0.675628 0.90462 0.68181
C_ C_ 0.286981 0.672754 0.900515 -0.05681
C_ C_ 0.320618 0.676034 0.924743 -0.08735
C_ C_ 0.373073 0.676183 0.919614 -0.05681
C_ C_ 0.392781 0.671112 0.891945 -0.05681
C_ C_ 0.358353 0.665915 0.86859 -0.08735
C_ C_ 0.305076 0.668723 0.872497 -0.08735
C_ C_ 0.405457 0.678023 0.943198 -0.08735
C_ C_ 0.457571 0.679504 0.938795 -0.08735
C_ C_ 0.475737 0.677965 0.911072 -0.05681
C_ C_ 0.445142 0.673758 0.887379 -0.08735
C_ C_ 0.123921 0.771902 0.914916 0.68181
C_ C_ 0.130696 0.575716 0.902192 0.68181
C_ C_ 0.134131 0.518951 0.89912 -0.05681
C_ C_ 0.153859 0.98814 0.920213 -0.08735
C_ C_ 0.143536 0.933853 0.918629 -0.05681
C_ C_ 0.128115 0.912244 0.892545 -0.05681
C_ C_ 0.114643 0.943929 0.869971 -0.08735
C_ C_ 0.118105 -0.0026880000000000237 0.872588 -0.08735
C_ C_ 0.147974 0.904203 0.943475 -0.08735
C_ C_ 0.129725 0.854566 0.94254 -0.08735
C_ C_ 0.125214 0.829302 0.916616 -0.05681
C_ C_ 0.123314 0.858024 0.891156 -0.08735
C_ C_ 0.0289072 0.675665 0.909666 0.68181
C_ C_ 0.102146 0.613221 0.984727 0.1947
C_ C_ 0.0912539 0.609656 0.512737 -0.08735
C_ C_ 0.112447 0.636093 0.536711 -0.08735
C_ C_ 0.142462 0.678805 0.530429 -0.05681
C_ C_ 0.148261 0.693924 0.501065 0.18498
C_ C_ 0.182382 0.723251 0.994713 -0.08735
C_ C_ 0.194408 0.769804 0.516781 -0.08735
C_ C_ 0.180561 0.759492 0.544084 -0.08735
C_ C_ 0.15839 0.712125 0.552521 0.18498
C_ C_ 0.190004 0.698141 0.601943 0.44287
C_ C_ 0.101138 0.700483 0.593637 0.44287
C_ C_ 0.0915734 0.693162 0.62336 -0.05681
C_ C_ 0.0422892 0.699362 0.635083 -0.08735
C_ C_ 0.0367317 0.694921 0.66529 -0.08735
C_ C_ 0.0780525 0.691806 0.684575 -0.05681
C_ C_ 0.126868 0.685499 0.672775 -0.05681
C_ C_ 0.133485 0.686324 0.642234 -0.05681
C_ C_ 0.184496 0.689968 0.631254 -0.05681
C_ C_ 0.22684 0.690914 0.649951 -0.08735
C_ C_ 0.217523 0.680083 0.679026 -0.08735
C_ C_ 0.167603 0.676554 0.690152 -0.05681
C_ C_ 0.158791 0.668182 0.719354 0.44287
C_ C_ 0.0733103 0.689479 0.715176 0.44287
C_ C_ 0.103478 0.659603 0.760684 0.18498
C_ C_ 0.0734812 0.615657 0.767056 -0.08735
C_ C_ 0.0704689 0.595884 0.794133 -0.08735
C_ C_ 0.0846758 0.625463 0.817592 -0.08735
C_ C_ 0.109318 0.671508 0.813216 0.18498
C_ C_ 0.122433 0.686911 0.784359 -0.05681
C_ C_ 0.147491 0.733647 0.78113 -0.08735
C_ C_ 0.165511 0.760769 0.805629 -0.08735
C_ C_ 0.160266 0.737343 0.832194 0.1947
C_ C_ 0.274841 0.822789 0.659917 0.68181
C_ C_ 0.218456 0.81737 0.65554 -0.05681
C_ C_ 0.184194 0.810996 0.679388 -0.08735
C_ C_ 0.129904 0.817902 0.67441 -0.05681
C_ C_ 0.109816 0.819475 0.647097 -0.05681
C_ C_ 0.142061 0.814723 0.624409 -0.08735
C_ C_ 0.19651 0.815561 0.627438 -0.08735
C_ C_ 0.0966186 0.82624 0.69745 -0.08735
C_ C_ 0.0448589 0.830593 0.695566 -0.08735
C_ C_ 0.0250446 0.827193 0.66776 -0.05681
C_ C_ 0.0584088 0.820391 0.644443 -0.08735
C_ C_ 0.377969 0.72716 0.667303 0.68181
C_ C_ 0.367924 0.925508 0.655026 0.68181
C_ C_ 0.365751 0.981871 0.651949 -0.05681
C_ C_ 0.37027 0.514449 0.675455 -0.08735
C_ C_ 0.372523 0.565532 0.672999 -0.05681
C_ C_ 0.36143 0.58871 0.647486 -0.05681
C_ C_ 0.343394 0.558757 0.624694 -0.08735
C_ C_ 0.356432 1.00332112 0.624744 -0.08735
C_ C_ 0.389863 0.595169 0.696737 -0.08735
C_ C_ 0.393311 0.647407 0.69582 -0.08735
C_ C_ 0.383303 0.67082 0.669443 -0.05681
C_ C_ 0.363633 0.640588 0.645557 -0.08735
C_ C_ 0.470248 0.828532 0.66253 0.68181
C_ C_ 0.399066 0.879587 0.738986 0.1947
C_ C_ 0.404423 0.896308 0.767909 -0.08735
C_ C_ 0.378569 0.868081 0.788977 -0.08735
C_ C_ 0.34755 0.824892 0.781909 -0.05681
C_ C_ 0.341246 0.813874 0.752381 0.18498
C_ C_ 0.310279 0.77262 0.745102 -0.08735
C_ C_ 0.288171 0.743007 0.765604 -0.08735
C_ C_ 0.297409 0.752227 0.795453 -0.08735
C_ C_ 0.330099 0.790877 0.803515 0.18498
C_ C_ 0.301575 0.818039 0.850195 0.44287
C_ C_ 0.386609 0.792236 0.844486 0.44287
C_ C_ 0.397673 0.802625 0.873365 -0.05681
C_ C_ 0.447969 0.80183 0.883719 -0.08735
C_ C_ 0.456425 0.803285 0.914335 -0.08735
C_ C_ 0.416502 0.819694 0.931574 -0.05681
C_ C_ 0.368107 0.823987 0.919999 -0.05681
C_ C_ 0.359474 0.817784 0.891274 -0.05681
C_ C_ 0.309353 0.825234 0.879718 -0.05681
C_ C_ 0.27026 0.839359 0.897602 -0.08735
C_ C_ 0.27696 0.835064 0.92749 -0.08735
C_ C_ 0.32564 0.830438 0.93909 -0.05681
C_ C_ 0.334278 0.836605 0.968536 0.44287
C_ C_ 0.423193 0.825718 0.961982 0.44287
C_ C_ 0.391176 0.844835 0.509562 0.18498
C_ C_ 0.425609 0.883674 0.512641 -0.08735
C_ C_ 0.443035 0.899536 0.54027 -0.08735
C_ C_ 0.42368 0.874814 0.564366 -0.08735
C_ C_ 0.388165 0.836218 0.562101 0.18498
C_ C_ 0.372969 0.820106 0.53444 -0.05681
C_ C_ 0.344368 0.775326 0.532578 -0.08735
C_ C_ 0.332593 0.747516 0.556757 -0.08735
C_ C_ 0.337788 0.771757 0.583818 0.1947
N_ N_ 0.130933 0.653444 0.979129 -0.29468
N_ N_ 0.149258 0.700399 0.583568 -0.17154
N_ N_ 0.111882 0.674355 0.731395 -0.17154
N_ N_ 0.129726 0.696244 0.836611 -0.29468
N_ N_ 0.365416 0.842951 0.731715 -0.29468
N_ N_ 0.339804 0.801852 0.833922 -0.17154
N_ N_ 0.381971 0.835933 0.979945 -0.17154
N_ N_ 0.37108 0.811012 0.586794 -0.29468
O_ O_ 0.210359 0.668499 0.929082 -0.58347
O_ O_ 0.205369 0.685662 0.88276 -0.58347
O_ O_ 0.131625 0.744555 0.937102 -0.58347
O_ O_ 0.116976 0.750397 0.891259 -0.58347
O_ O_ 0.126263 0.595725 0.926872 -0.58347
O_ O_ 0.13602 0.603901 0.880619 -0.58347
O_ O_ 0.0561256 0.671524 0.931222 -0.58347
O_ O_ 0.0498739 0.673696 0.884629 -0.58347
O_ O_ 0.0613682 0.706071 0.575974 -0.46727
O_ O_ 0.23566 0.695311 0.589478 -0.46727
O_ O_ 0.0267914 0.689148 0.724978 -0.46727
O_ O_ 0.195823 0.654268 0.735542 -0.46727
O_ O_ 0.293628 0.827876 0.684502 -0.58347
O_ O_ 0.303167 0.816542 0.638571 -0.58347
O_ O_ 0.369845 0.75399 0.68922 -0.58347
O_ O_ 0.384182 0.748403 0.643088 -0.58347
O_ O_ 0.364603 0.906423 0.679056 -0.58347
O_ O_ 0.373908 0.898559 0.633444 -0.58347
O_ O_ 0.442608 0.835883 0.68378 -0.58347
O_ O_ 0.454219 0.828298 0.636662 -0.58347
O_ O_ 0.423264 0.772073 0.828611 -0.46727
O_ O_ 0.257488 0.82551 0.838146 -0.46727
O_ O_ 0.467386 0.820323 0.974342 -0.46727
O_ O_ 0.294851 0.835539 0.986258 -0.46727
Zn Zn 0.629201 0.192223 0.37869 0.90689
Zn Zn 0.637818 0.185655 0.427319 0.90689
Zn Zn 0.870309 0.300879 0.128809 0.90689
Zn Zn 0.855024 0.313391 0.175992 0.90689
H_ H_ 0.804002 0.208809 0.440373 0.11455
H_ H_ 0.866897 0.148298 0.345835 0.11455
H_ H_ 0.777422 0.169439 0.353401 0.11455
H_ H_ 0.886994 0.197663 0.462401 0.11455
H_ H_ 0.97644 0.192137 0.45501 0.11455
H_ H_ 0.958121 0.161923 0.364582 0.11455
H_ H_ 0.619725 0.0284605 0.438575 0.11455
H_ H_ 0.614838 0.4409 0.348307 0.11455
H_ H_ 0.671671 0.0347043 0.350203 0.11455
H_ H_ 0.643738 0.434691 0.465181 0.11455
H_ H_ 0.648588 0.341116 0.459937 0.11455
H_ H_ 0.616793 0.357764 0.369238 0.11455
H_ H_ 0.606968 0.104457 0.4644 0.11455
H_ H_ 0.573236 0.0655229 0.0125218 0.11455
H_ H_ 0.605148 0.116114 0.0536217 0.11455
H_ H_ 0.700861 0.252557 0.470657 0.11455
H_ H_ 0.73582 0.278743 0.0137899 0.11455
H_ H_ 0.691032 0.273142 0.060468 0.11455
H_ H_ 0.52237 0.202854 0.11945 0.11455
H_ H_ 0.504292 0.191014 0.170339 0.11455
H_ H_ 0.767867 0.147342 0.136696 0.11455
H_ H_ 0.756965 0.16145 0.187364 0.11455
H_ H_ 0.574554 0.0934804 0.245791 0.11455
H_ H_ 0.547706 0.0726201 0.295545 0.11455
H_ H_ 0.566064 0.134526 0.334756 0.11455
H_ H_ 0.653488 0.256937 0.254882 0.11455
H_ H_ 0.689463 0.308227 0.297022 0.11455
H_ H_ 0.680658 0.264879 0.344118 0.11455
H_ H_ 0.692948 0.296348 0.191819 0.11455
H_ H_ 0.616151 0.305546 0.0947709 0.11455
H_ H_ 0.710387 0.306517 0.10295 0.11455
H_ H_ 0.60708 0.307597 0.214082 0.11455
H_ H_ 0.513546 0.321655 0.206117 0.11455
H_ H_ 0.532566 0.315986 0.113875 0.11455
H_ H_ 0.897517 0.471261 0.181536 0.11455
H_ H_ 0.873291 0.0503 0.0952612 0.11455
H_ H_ 0.815044 0.458858 0.10343 0.11455
H_ H_ 0.878778 0.0591309 0.213405 0.11455
H_ H_ 0.881841 0.154146 0.207656 0.11455
H_ H_ 0.871108 0.141878 0.116973 0.11455
H_ H_ 0.90737 0.386677 0.209901 0.11455
H_ H_ 0.942101 0.405763 0.257831 0.11455
H_ H_ 0.896231 0.370372 0.297973 0.11455
H_ H_ 0.810374 0.244692 0.219051 0.11455
H_ H_ 0.773248 0.196882 0.258882 0.11455
H_ H_ 0.783815 0.223793 0.30907 0.11455
H_ H_ 0.985819 0.284962 0.36407 0.11455
H_ H_ -0.002770999999999968 0.291131 0.417953 0.11455
H_ H_ 0.740078 0.340854 0.382757 0.11455
H_ H_ 0.754049 0.349837 0.436478 0.11455
H_ H_ 0.950529 0.412211 0.49545 0.11455
H_ H_ 0.965627 0.415048 0.044327 0.11455
H_ H_ 0.925482 0.367286 0.0872484 0.11455
H_ H_ 0.841606 0.243399 0.00503202 0.11455
H_ H_ 0.803045 0.194972 0.0436097 0.11455
H_ H_ 0.817872 0.223311 0.0935208 0.11455
C_ C_ 0.730296 0.194365 0.402268 0.68181
C_ C_ 0.784965 0.188523 0.397439 -0.05681
C_ C_ 0.817856 0.194502 0.420211 -0.08735
C_ C_ 0.869047 0.179774 0.41701 -0.05681
C_ C_ 0.888861 0.166136 0.390257 -0.05681
C_ C_ 0.854562 0.163775 0.367059 -0.08735
C_ C_ 0.802772 0.168704 0.371678 -0.08735
C_ C_ 0.900461 0.185431 0.440171 -0.08735
C_ C_ 0.953011 0.182803 0.436349 -0.08735
C_ C_ 0.97393 0.173432 0.410285 -0.05681
C_ C_ 0.941472 0.167481 0.386601 -0.08735
C_ C_ 0.627276 0.285727 0.412574 0.68181
C_ C_ 0.640059 0.0907869 0.394073 0.68181
C_ C_ 0.643976 0.0361437 0.392945 -0.05681
C_ C_ 0.646544 0.501788 0.42049 -0.08735
C_ C_ 0.638507 0.448622 0.419803 -0.05681
C_ C_ 0.629909 0.426391 0.392179 -0.05681
C_ C_ 0.620515 0.455555 0.368291 -0.08735
C_ C_ 0.620074 0.508195 0.37165 -0.08735
C_ C_ 0.641726 0.416617 0.443933 -0.08735
C_ C_ 0.641626 0.364222 0.440584 -0.08735
C_ C_ 0.62962 0.342565 0.414776 -0.05681
C_ C_ 0.623969 0.373993 0.390225 -0.08735
C_ C_ 0.535795 0.182571 0.406457 0.68181
C_ C_ 0.62173 0.125051 0.481755 0.1947
C_ C_ 0.590739 0.101834 0.00924964 -0.08735
C_ C_ 0.612915 0.128021 0.0319154 -0.08735
C_ C_ 0.638794 0.172027 0.0274475 -0.05681
C_ C_ 0.649755 0.185975 0.998623 0.18498
C_ C_ 0.690864 0.244076 0.492184 -0.08735
C_ C_ 0.702212 0.254667 0.0160691 -0.08735
C_ C_ 0.683007 0.245312 0.0440754 -0.08735
C_ C_ 0.660753 0.198338 0.0507587 0.18498
C_ C_ 0.696097 0.17456 0.0971889 0.44287
C_ C_ 0.607293 0.19394 0.0914793 0.44287
C_ C_ 0.597271 0.183316 0.120839 -0.05681
C_ C_ 0.550992 0.19071 0.133152 -0.08735
C_ C_ 0.544131 0.185709 0.162128 -0.08735
C_ C_ 0.583509 0.178536 0.18031 -0.05681
C_ C_ 0.633615 0.174184 0.167688 -0.05681
C_ C_ 0.639492 0.173103 0.137817 -0.05681
C_ C_ 0.68891 0.166886 0.126253 -0.05681
C_ C_ 0.730893 0.160175 0.145889 -0.08735
C_ C_ 0.72214 0.159074 0.173963 -0.08735
C_ C_ 0.675392 0.167557 0.185937 -0.05681
C_ C_ 0.668566 0.169846 0.216156 0.44287
C_ C_ 0.57789 0.183301 0.210421 0.44287
C_ C_ 0.614236 0.161126 0.258011 0.18498
C_ C_ 0.586835 0.116464 0.264041 -0.08735
C_ C_ 0.574682 0.104186 0.292401 -0.08735
C_ C_ 0.586393 0.138394 0.314038 -0.08735
C_ C_ 0.615151 0.178759 0.309075 0.18498
C_ C_ 0.623093 0.195949 0.2809 -0.05681
C_ C_ 0.645483 0.244237 0.276786 -0.08735
C_ C_ 0.665706 0.271956 0.300482 -0.08735
C_ C_ 0.658726 0.251296 0.327878 0.1947
C_ C_ 0.764272 0.29904 0.152753 0.68181
C_ C_ 0.706959 0.297349 0.147427 -0.05681
C_ C_ 0.675307 0.299491 0.171702 -0.08735
C_ C_ 0.622169 0.303158 0.168571 -0.05681
C_ C_ 0.601183 0.30544 0.140351 -0.05681
C_ C_ 0.63372 0.306727 0.115977 -0.08735
C_ C_ 0.685679 0.302928 0.120658 -0.08735
C_ C_ 0.590816 0.307752 0.19203 -0.08735
C_ C_ 0.538474 0.318445 0.188171 -0.08735
C_ C_ 0.516844 0.318523 0.160285 -0.05681
C_ C_ 0.549403 0.312909 0.135834 -0.08735
C_ C_ 0.876676 0.209441 0.159031 0.68181
C_ C_ 0.856486 0.403682 0.146419 0.68181
C_ C_ 0.858969 0.458709 0.142132 -0.05681
C_ C_ 0.875604 -0.00862099999999999 0.172025 -0.08735
C_ C_ 0.872503 0.0459947 0.16841 -0.05681
C_ C_ 0.873119 0.0684268 0.141291 -0.05681
C_ C_ 0.866735 0.0351756 0.117084 -0.08735
C_ C_ 0.838111 0.482811 0.11894 -0.08735
C_ C_ 0.875738 0.0768897 0.19266 -0.08735
C_ C_ 0.882947 0.129691 0.189055 -0.08735
C_ C_ 0.879241 0.153408 0.161723 -0.05681
C_ C_ 0.874917 0.123047 0.137879 -0.08735
C_ C_ 0.962205 0.316781 0.152219 0.68181
C_ C_ 0.898745 0.362336 0.22782 0.1947
C_ C_ 0.913126 0.377905 0.254715 -0.08735
C_ C_ 0.890183 0.353321 0.278406 -0.08735
C_ C_ 0.856211 0.312919 0.274966 -0.05681
C_ C_ 0.841275 0.30109 0.246207 0.18498
C_ C_ 0.815155 0.257262 0.241 -0.08735
C_ C_ 0.791983 0.231788 0.263623 -0.08735
C_ C_ 0.800225 0.246557 0.29222 -0.08735
C_ C_ 0.834886 0.286524 0.298022 0.18498
C_ C_ 0.810088 0.317028 0.344404 0.44287
C_ C_ 0.89228 0.288282 0.338217 0.44287
C_ C_ 0.902491 0.29806 0.367437 -0.05681
C_ C_ 0.95255 0.288779 0.379587 -0.08735
C_ C_ 0.962325 0.297363 0.409176 -0.08735
C_ C_ 0.921194 0.31387 0.426914 -0.05681
C_ C_ 0.873307 0.321165 0.414874 -0.05681
C_ C_ 0.864687 0.314718 0.385861 -0.05681
C_ C_ 0.817249 0.325763 0.373403 -0.05681
C_ C_ 0.777767 0.338232 0.392092 -0.08735
C_ C_ 0.784092 0.338107 0.422238 -0.08735
C_ C_ 0.834222 0.3326 0.433446 -0.05681
C_ C_ 0.843551 0.342187 0.463124 0.44287
C_ C_ 0.928264 0.316699 0.456829 0.44287
C_ C_ 0.896592 0.329294 0.00740042 0.18498
C_ C_ 0.928521 0.370644 0.0134386 -0.08735
C_ C_ 0.940859 0.382388 0.0409497 -0.08735
C_ C_ 0.9145 0.357484 0.0652436 -0.08735
C_ C_ 0.878865 0.3181 0.0596544 0.18498
C_ C_ 0.872423 0.302997 0.0307651 -0.05681
C_ C_ 0.847103 0.257238 0.0260973 -0.08735
C_ C_ 0.822622 0.230031 0.0485575 -0.08735
C_ C_ 0.832344 0.244969 0.0760156 0.1947
N_ N_ 0.64454 0.170074 0.476257 -0.29468
N_ N_ 0.653868 0.187156 0.080483 -0.17154
N_ N_ 0.620117 0.173237 0.227369 -0.17154
N_ N_ 0.630649 0.206506 0.332567 -0.29468
N_ N_ 0.862237 0.326559 0.22341 -0.29468
N_ N_ 0.847899 0.300294 0.327277 -0.17154
N_ N_ 0.890884 0.333703 0.475192 -0.17154
N_ N_ 0.859567 0.288217 0.0815829 -0.29468
O_ O_ 0.71073 0.186687 0.427154 -0.58347
O_ O_ 0.703605 0.201073 0.380595 -0.58347
O_ O_ 0.632625 0.259232 0.434755 -0.58347
O_ O_ 0.623805 0.265899 0.38841 -0.58347
O_ O_ 0.637495 0.111528 0.418639 -0.58347
O_ O_ 0.638731 0.115933 0.370753 -0.58347
O_ O_ 0.562692 0.180199 0.426859 -0.58347
O_ O_ 0.554171 0.191009 0.381605 -0.58347
O_ O_ 0.570695 0.210716 0.0743654 -0.46727
O_ O_ 0.738665 0.161404 0.0842078 -0.46727
O_ O_ 0.535096 0.184253 0.222614 -0.46727
O_ O_ 0.706996 0.166456 0.234067 -0.46727
O_ O_ 0.781454 0.307359 0.177673 -0.58347
O_ O_ 0.793958 0.295595 0.132037 -0.58347
O_ O_ 0.865893 0.237671 0.179903 -0.58347
O_ O_ 0.884447 0.228632 0.134372 -0.58347
O_ O_ 0.849899 0.385974 0.170733 -0.58347
O_ O_ 0.86285 0.376009 0.124332 -0.58347
O_ O_ 0.932918 0.322923 0.171872 -0.58347
O_ O_ 0.945529 0.306673 0.127697 -0.58347
O_ O_ 0.928332 0.268437 0.321395 -0.46727
O_ O_ 0.763416 0.317831 0.334555 -0.46727
O_ O_ 0.97262 0.306769 0.468279 -0.46727
O_ O_ 0.808742 0.362972 0.479104 -0.46727
Zn Zn 0.627428 0.189116 0.879203 0.90689
Zn Zn 0.637221 0.178696 0.928894 0.90689
Zn Zn 0.876913 0.323546 0.628907 0.90689
Zn Zn 0.856642 0.334449 0.677588 0.90689
H_ H_ 0.801226 0.166332 0.941997 0.11455
H_ H_ 0.870679 0.181787 0.843893 0.11455
H_ H_ 0.778328 0.181759 0.853369 0.11455
H_ H_ 0.889402 0.163176 0.96334 0.11455
H_ H_ 0.980124 0.176296 0.957226 0.11455
H_ H_ 0.96046 0.172068 0.864817 0.11455
H_ H_ 0.612514 0.0159684 0.936269 0.11455
H_ H_ 0.623588 0.434149 0.851636 0.11455
H_ H_ 0.653147 0.0263403 0.84656 0.11455
H_ H_ 0.624488 0.433144 0.970638 0.11455
H_ H_ 0.627558 0.340022 0.967031 0.11455
H_ H_ 0.618408 0.349524 0.873667 0.11455
H_ H_ 0.577957 0.103127 0.962852 0.11455
H_ H_ 0.612709 0.0697473 0.51478 0.11455
H_ H_ 0.631814 0.125995 0.554765 0.11455
H_ H_ 0.702692 0.228382 0.972731 0.11455
H_ H_ 0.736114 0.303306 0.507136 0.11455
H_ H_ 0.710475 0.292857 0.557882 0.11455
H_ H_ 0.520664 0.226485 0.620668 0.11455
H_ H_ 0.514974 0.226364 0.674151 0.11455
H_ H_ 0.765652 0.149494 0.631485 0.11455
H_ H_ 0.75302 0.136838 0.682946 0.11455
H_ H_ 0.590075 0.0866962 0.749334 0.11455
H_ H_ 0.552356 0.0782619 0.794798 0.11455
H_ H_ 0.5632 0.134549 0.83167 0.11455
H_ H_ 0.663856 0.254813 0.756327 0.11455
H_ H_ 0.695777 0.303164 0.801757 0.11455
H_ H_ 0.672351 0.275538 0.847913 0.11455
H_ H_ 0.699726 0.345426 0.694574 0.11455
H_ H_ 0.620081 0.338882 0.595165 0.11455
H_ H_ 0.711543 0.3355 0.602597 0.11455
H_ H_ 0.609402 0.344725 0.714409 0.11455
H_ H_ 0.520061 0.345563 0.707319 0.11455
H_ H_ 0.535572 0.340707 0.61747 0.11455
H_ H_ 0.845346 0.499809 0.688138 0.11455
H_ H_ 0.927002 0.0772235 0.603864 0.11455
H_ H_ 0.869805 0.490917 0.598119 0.11455
H_ H_ 0.824418 0.0830921 0.708874 0.11455
H_ H_ 0.837113 0.17256 0.707576 0.11455
H_ H_ 0.911619 0.157989 0.624425 0.11455
H_ H_ 0.906081 0.415677 0.713925 0.11455
H_ H_ 0.920571 0.446578 0.763663 0.11455
H_ H_ 0.894589 0.391355 0.802773 0.11455
H_ H_ 0.79913 0.277171 0.71926 0.11455
H_ H_ 0.76036 0.225046 0.759208 0.11455
H_ H_ 0.803221 0.228046 0.807112 0.11455
H_ H_ 0.983992 0.284695 0.869078 0.11455
H_ H_ 0.00024000000000001798 0.285783 0.920713 0.11455
H_ H_ 0.737921 0.331353 0.886507 0.11455
H_ H_ 0.74612 0.327438 0.939116 0.11455
H_ H_ 0.952182 0.385618 0.997071 0.11455
H_ H_ 0.96764 0.437946 0.544054 0.11455
H_ H_ 0.930958 0.390536 0.58372 0.11455
H_ H_ 0.841875 0.266812 0.503461 0.11455
H_ H_ 0.807877 0.218673 0.544534 0.11455
H_ H_ 0.825398 0.250189 0.592244 0.11455
C_ C_ 0.729138 0.185249 0.904687 0.68181
C_ C_ 0.785466 0.179492 0.898951 -0.05681
C_ C_ 0.818116 0.168068 0.921681 -0.08735
C_ C_ 0.871308 0.167182 0.916716 -0.05681
C_ C_ 0.891657 0.168363 0.888758 -0.05681
C_ C_ 0.85817 0.179011 0.86562 -0.08735
C_ C_ 0.805816 0.181577 0.870303 -0.08735
C_ C_ 0.902343 0.160709 0.94134 -0.08735
C_ C_ 0.955457 0.166999 0.938683 -0.08735
C_ C_ 0.976595 0.16267 0.910772 -0.05681
C_ C_ 0.943266 0.169206 0.886898 -0.08735
C_ C_ 0.627479 0.280991 0.916777 0.68181
C_ C_ 0.632516 0.0866803 0.894268 0.68181
C_ C_ 0.629555 0.0303604 0.890984 -0.05681
C_ C_ 0.625625 0.501771 0.92682 -0.08735
C_ C_ 0.624891 0.446847 0.925356 -0.05681
C_ C_ 0.622198 0.422962 0.898332 -0.05681
C_ C_ 0.620263 0.451941 0.87287 -0.08735
C_ C_ 0.622632 0.505276 0.873982 -0.08735
C_ C_ 0.624949 0.414529 0.950004 -0.08735
C_ C_ 0.627454 0.36042 0.948083 -0.08735
C_ C_ 0.623101 0.336941 0.9204 -0.05681
C_ C_ 0.621257 0.368753 0.895286 -0.08735
C_ C_ 0.532964 0.182981 0.904862 0.68181
C_ C_ 0.594035 0.121943 0.981236 0.1947
C_ C_ 0.615722 0.107433 0.51021 -0.08735
C_ C_ 0.631365 0.140838 0.532598 -0.08735
C_ C_ 0.650391 0.188286 0.526497 -0.05681
C_ C_ 0.660894 0.200418 0.497964 0.18498
C_ C_ 0.683572 0.226062 0.993183 -0.08735
C_ C_ 0.709042 0.27408 0.514437 -0.08735
C_ C_ 0.693414 0.267228 0.542436 -0.08735
C_ C_ 0.663289 0.224693 0.549751 0.18498
C_ C_ 0.69671 0.19547 0.595641 0.44287
C_ C_ 0.609418 0.21193 0.591269 0.44287
C_ C_ 0.602111 0.207036 0.620401 -0.05681
C_ C_ 0.554869 0.21612 0.633571 -0.08735
C_ C_ 0.551079 0.215878 0.664735 -0.08735
C_ C_ 0.59363 0.201653 0.681941 -0.05681
C_ C_ 0.639489 0.189269 0.668698 -0.05681
C_ C_ 0.645177 0.195251 0.638833 -0.05681
C_ C_ 0.691512 0.184878 0.625031 -0.05681
C_ C_ 0.731505 0.165225 0.64196 -0.08735
C_ C_ 0.725679 0.16026 0.672016 -0.08735
C_ C_ 0.679569 0.172362 0.685516 -0.05681
C_ C_ 0.670401 0.165 0.716034 0.44287
C_ C_ 0.589712 0.204618 0.712199 0.44287
C_ C_ 0.614211 0.165771 0.758031 0.18498
C_ C_ 0.594239 0.117879 0.76421 -0.08735
C_ C_ 0.582207 0.105747 0.791815 -0.08735
C_ C_ 0.587106 0.137602 0.81398 -0.08735
C_ C_ 0.616741 0.1821 0.810679 0.18498
C_ C_ 0.629073 0.196776 0.781876 -0.05681
C_ C_ 0.660643 0.239619 0.777722 -0.08735
C_ C_ 0.670548 0.270938 0.802421 -0.08735
C_ C_ 0.656579 0.25568 0.829645 0.1947
C_ C_ 0.768242 0.328651 0.652028 0.68181
C_ C_ 0.71221 0.332921 0.648664 -0.05681
C_ C_ 0.681451 0.342514 0.672973 -0.08735
C_ C_ 0.62796 0.345927 0.6693 -0.05681
C_ C_ 0.606353 0.345132 0.641054 -0.05681
C_ C_ 0.636386 0.336868 0.617609 -0.08735
C_ C_ 0.687997 0.328614 0.620915 -0.08735
C_ C_ 0.595454 0.345788 0.693043 -0.08735
C_ C_ 0.54434 0.349934 0.689401 -0.08735
C_ C_ 0.521966 0.348829 0.662484 -0.05681
C_ C_ 0.553593 0.346118 0.638021 -0.08735
C_ C_ 0.87119 0.228883 0.661808 0.68181
C_ C_ 0.854059 0.426949 0.64509 0.68181
C_ C_ 0.852497 0.484824 0.642455 -0.05681
C_ C_ 0.865867 0.0126601 0.671089 -0.08735
C_ C_ 0.867282 0.0661752 0.669861 -0.05681
C_ C_ 0.892467 0.0895445 0.646284 -0.05681
C_ C_ 0.916799 0.0602799 0.625189 -0.08735
C_ C_ 0.861867 0.511115 0.616747 -0.08735
C_ C_ 0.848259 0.0982132 0.690694 -0.08735
C_ C_ 0.851269 0.150284 0.689142 -0.08735
C_ C_ 0.875922 0.174214 0.66549 -0.05681
C_ C_ 0.894969 0.142382 0.643756 -0.08735
C_ C_ 0.965199 0.325666 0.654693 0.68181
C_ C_ 0.890625 0.395399 0.731713 0.1947
C_ C_ 0.901414 0.409944 0.759947 -0.08735
C_ C_ 0.887595 0.378593 0.782081 -0.08735
C_ C_ 0.854374 0.336383 0.776424 -0.05681
C_ C_ 0.843675 0.323127 0.746838 0.18498
C_ C_ 0.807954 0.284509 0.741278 -0.08735
C_ C_ 0.790327 0.252516 0.764085 -0.08735
C_ C_ 0.814998 0.256206 0.790761 -0.08735
C_ C_ 0.841636 0.300712 0.798653 0.18498
C_ C_ 0.809709 0.316018 0.846051 0.44287
C_ C_ 0.897904 0.302929 0.841162 0.44287
C_ C_ 0.905854 0.302027 0.871347 -0.05681
C_ C_ 0.953138 0.293627 0.882805 -0.08735
C_ C_ 0.960559 0.289354 0.912397 -0.08735
C_ C_ 0.918007 0.296156 0.931447 -0.05681
C_ C_ 0.870286 0.308917 0.919635 -0.05681
C_ C_ 0.86251 0.310298 0.889131 -0.05681
C_ C_ 0.814612 0.319786 0.876622 -0.05681
C_ C_ 0.773748 0.328815 0.894922 -0.08735
C_ C_ 0.780325 0.329438 0.924763 -0.08735
C_ C_ 0.828065 0.320155 0.937221 -0.05681
C_ C_ 0.836855 0.326562 0.967333 0.44287
C_ C_ 0.921647 0.296973 0.962473 0.44287
C_ C_ 0.900955 0.349074 0.504684 0.18498
C_ C_ 0.933751 0.389001 0.511695 -0.08735
C_ C_ 0.948514 0.401219 0.539516 -0.08735
C_ C_ 0.928677 0.373217 0.561964 -0.08735
C_ C_ 0.891595 0.336555 0.556837 0.18498
C_ C_ 0.877772 0.323898 0.528153 -0.05681
C_ C_ 0.845554 0.282063 0.524053 -0.08735
C_ C_ 0.830066 0.253302 0.547823 -0.08735
C_ C_ 0.839894 0.270451 0.575337 0.1947
N_ N_ 0.626234 0.160955 0.976641 -0.29468
N_ N_ 0.656797 0.212522 0.580232 -0.17154
N_ N_ 0.624666 0.178983 0.727825 -0.17154
N_ N_ 0.634068 0.209263 0.833679 -0.29468
N_ N_ 0.861689 0.353064 0.725034 -0.29468
N_ N_ 0.851118 0.309886 0.828633 -0.17154
N_ N_ 0.883454 0.317913 0.978258 -0.17154
N_ N_ 0.87239 0.309838 0.579382 -0.29468
O_ O_ 0.710813 0.180924 0.929251 -0.58347
O_ O_ 0.69942 0.191492 0.882721 -0.58347
O_ O_ 0.642257 0.253043 0.937233 -0.58347
O_ O_ 0.618497 0.260438 0.892455 -0.58347
O_ O_ 0.638354 0.106407 0.918892 -0.58347
O_ O_ 0.638122 0.114141 0.87185 -0.58347
O_ O_ 0.562209 0.181973 0.926707 -0.58347
O_ O_ 0.55212 0.180736 0.879751 -0.58347
O_ O_ 0.570387 0.215843 0.57381 -0.46727
O_ O_ 0.741292 0.18603 0.582089 -0.46727
O_ O_ 0.54911 0.222358 0.725997 -0.46727
O_ O_ 0.702922 0.139106 0.731552 -0.46727
O_ O_ 0.786717 0.324277 0.677173 -0.58347
O_ O_ 0.796245 0.325011 0.629982 -0.58347
O_ O_ 0.86838 0.257286 0.68269 -0.58347
O_ O_ 0.880338 0.247674 0.636782 -0.58347
O_ O_ 0.843579 0.407855 0.669236 -0.58347
O_ O_ 0.877149 0.400718 0.625829 -0.58347
O_ O_ 0.93316 0.339905 0.673869 -0.58347
O_ O_ 0.951352 0.321477 0.628342 -0.58347
O_ O_ 0.935731 0.296717 0.823496 -0.46727
O_ O_ 0.766061 0.329849 0.835393 -0.46727
O_ O_ 0.966423 0.289051 0.973899 -0.46727
O_ O_ 0.803715 0.348012 0.983856 -0.46727
Zn Zn 0.630114 0.690538 0.382724 0.90689
Zn Zn 0.63875 0.689786 0.429874 0.90689
Zn Zn 0.877131 0.798231 0.132152 0.90689
Zn Zn 0.864 0.805527 0.179693 0.90689
H_ H_ 0.803748 0.694931 0.447547 0.11455
H_ H_ 0.8713 0.645689 0.351223 0.11455
H_ H_ 0.779923 0.647664 0.359814 0.11455
H_ H_ 0.888076 0.695688 0.466404 0.11455
H_ H_ 0.979902 0.699388 0.458443 0.11455
H_ H_ 0.961804 0.663453 0.369566 0.11455
H_ H_ 0.659143 0.521692 0.439205 0.11455
H_ H_ 0.66083 0.943822 0.346585 0.11455
H_ H_ 0.612172 0.530864 0.353076 0.11455
H_ H_ 0.595519 0.944033 0.458554 0.11455
H_ H_ 0.597498 0.853507 0.45554 0.11455
H_ H_ 0.658559 0.859777 0.371762 0.11455
H_ H_ 0.595542 0.601621 0.467797 0.11455
H_ H_ 0.579695 0.572956 0.0100437 0.11455
H_ H_ 0.594448 0.62795 0.0536334 0.11455
H_ H_ 0.704978 0.742706 0.475599 0.11455
H_ H_ 0.724925 0.799877 0.0179097 0.11455
H_ H_ 0.706373 0.775317 0.0651467 0.11455
H_ H_ 0.517975 0.695503 0.123331 0.11455
H_ H_ 0.506476 0.694765 0.175773 0.11455
H_ H_ 0.765445 0.659774 0.137929 0.11455
H_ H_ 0.757781 0.645512 0.190884 0.11455
H_ H_ 0.577091 0.577304 0.25501 0.11455
H_ H_ 0.544609 0.570079 0.303825 0.11455
H_ H_ 0.562062 0.63901 0.339838 0.11455
H_ H_ 0.676364 0.730994 0.255314 0.11455
H_ H_ 0.710155 0.779567 0.296896 0.11455
H_ H_ 0.683228 0.767061 0.345687 0.11455
H_ H_ 0.695662 0.791962 0.195482 0.11455
H_ H_ 0.631717 0.839642 0.0991519 0.11455
H_ H_ 0.725376 0.822652 0.105133 0.11455
H_ H_ 0.610326 0.80306 0.214752 0.11455
H_ H_ 0.518801 0.81498 0.207397 0.11455
H_ H_ 0.547177 0.822675 0.11379 0.11455
H_ H_ 0.877265 0.971825 0.192398 0.11455
H_ H_ 0.823195 0.550671 0.0967079 0.11455
H_ H_ 0.871404 0.958833 0.101296 0.11455
H_ H_ 0.915795 0.553792 0.202895 0.11455
H_ H_ 0.922133 0.645147 0.199673 0.11455
H_ H_ 0.840071 0.639985 0.119372 0.11455
H_ H_ 0.922415 0.87676 0.211671 0.11455
H_ H_ 0.943587 0.910985 0.258138 0.11455
H_ H_ 0.892746 0.883805 0.30044 0.11455
H_ H_ 0.806272 0.744121 0.227364 0.11455
H_ H_ 0.786854 0.69122 0.270077 0.11455
H_ H_ 0.810119 0.723727 0.31989 0.11455
H_ H_ 1.0005 0.794926 0.371871 0.11455
H_ H_ 0.0104874 0.796702 0.42577 0.11455
H_ H_ 0.748038 0.827353 0.388534 0.11455
H_ H_ 0.760603 0.836564 0.440774 0.11455
H_ H_ 0.957283 0.910953 0.499064 0.11455
H_ H_ 0.976883 0.897764 0.0499223 0.11455
H_ H_ 0.946538 0.846706 0.0892229 0.11455
H_ H_ 0.846527 0.742097 0.00442805 0.11455
H_ H_ 0.811864 0.696342 0.0449499 0.11455
H_ H_ 0.820388 0.724816 0.0953131 0.11455
C_ C_ 0.731518 0.681762 0.405252 0.68181
C_ C_ 0.787198 0.678144 0.402535 -0.05681
C_ C_ 0.819553 0.685797 0.426517 -0.08735
C_ C_ 0.870927 0.683533 0.421975 -0.05681
C_ C_ 0.891171 0.670024 0.395042 -0.05681
C_ C_ 0.857077 0.655668 0.372959 -0.08735
C_ C_ 0.806173 0.663004 0.376001 -0.08735
C_ C_ 0.903415 0.696001 0.444294 -0.08735
C_ C_ 0.955156 0.692236 0.440295 -0.08735
C_ C_ 0.977432 0.689042 0.412501 -0.05681
C_ C_ 0.944853 0.674551 0.390302 -0.08735
C_ C_ 0.63269 0.790418 0.413724 0.68181
C_ C_ 0.63499 0.58972 0.399467 0.68181
C_ C_ 0.632727 0.532075 0.397792 -0.05681
C_ C_ 0.626769 1.0103992 0.417773 -0.08735
C_ C_ 0.628884 0.957419 0.416922 -0.05681
C_ C_ 0.646874 0.931189 0.391111 -0.05681
C_ C_ 0.664224 0.959197 0.367362 -0.08735
C_ C_ 0.663999 1.0113589 0.368966 -0.08735
C_ C_ 0.615499 0.927584 0.440329 -0.08735
C_ C_ 0.618344 0.872957 0.439645 -0.08735
C_ C_ 0.628817 0.849061 0.413851 -0.05681
C_ C_ 0.64437 0.878458 0.389847 -0.08735
C_ C_ 0.535879 0.684248 0.40829 0.68181
C_ C_ 0.613858 0.623016 0.48485 0.1947
C_ C_ 0.594714 0.611133 0.00920253 -0.08735
C_ C_ 0.612071 0.636277 0.0340002 -0.08735
C_ C_ 0.645682 0.677586 0.0303689 -0.05681
C_ C_ 0.659272 0.69661 1.00209268 0.18498
C_ C_ 0.690322 0.739549 0.496465 -0.08735
C_ C_ 0.702891 0.767015 0.0215771 -0.08735
C_ C_ 0.692062 0.750763 0.049171 -0.08735
C_ C_ 0.664051 0.704576 0.0540406 0.18498
C_ C_ 0.695116 0.679828 0.101391 0.44287
C_ C_ 0.608196 0.695954 0.0950445 0.44287
C_ C_ 0.59865 0.682257 0.124534 -0.05681
C_ C_ 0.55002 0.685591 0.136869 -0.08735
C_ C_ 0.542489 0.681418 0.166297 -0.08735
C_ C_ 0.585642 0.672329 0.184471 -0.05681
C_ C_ 0.632732 0.668666 0.172161 -0.05681
C_ C_ 0.638823 0.671886 0.142487 -0.05681
C_ C_ 0.688039 0.672575 0.130837 -0.05681
C_ C_ 0.729497 0.663824 0.147839 -0.08735
C_ C_ 0.724271 0.652736 0.177515 -0.08735
C_ C_ 0.675847 0.658896 0.190212 -0.05681
C_ C_ 0.667916 0.653274 0.220472 0.44287
C_ C_ 0.581289 0.673507 0.215029 0.44287
C_ C_ 0.613595 0.648875 0.262587 0.18498
C_ C_ 0.586522 0.606049 0.270226 -0.08735
C_ C_ 0.569365 0.601335 0.297902 -0.08735
C_ C_ 0.584413 0.634182 0.319654 -0.08735
C_ C_ 0.618289 0.673065 0.313724 0.18498
C_ C_ 0.627978 0.685589 0.28419 -0.05681
C_ C_ 0.662317 0.722941 0.277543 -0.08735
C_ C_ 0.678698 0.754161 0.299812 -0.08735
C_ C_ 0.665192 0.745224 0.328758 0.1947
C_ C_ 0.771604 0.803795 0.154789 0.68181
C_ C_ 0.715533 0.80163 0.14972 -0.05681
C_ C_ 0.681973 0.799206 0.174655 -0.08735
C_ C_ 0.631185 0.80958 0.168729 -0.05681
C_ C_ 0.61193 0.814014 0.140191 -0.05681
C_ C_ 0.644509 0.821102 0.11803 -0.08735
C_ C_ 0.696424 0.812173 0.122959 -0.08735
C_ C_ 0.59715 0.809859 0.192301 -0.08735
C_ C_ 0.543635 0.812057 0.188094 -0.08735
C_ C_ 0.524882 0.818191 0.160462 -0.05681
C_ C_ 0.560125 0.819369 0.136244 -0.08735
C_ C_ 0.873168 0.703399 0.159882 0.68181
C_ C_ 0.875549 0.900314 0.149607 0.68181
C_ C_ 0.873803 0.957278 0.147839 -0.05681
C_ C_ 0.884178 0.489283 0.163288 -0.08735
C_ C_ 0.884059 0.542937 0.160526 -0.05681
C_ C_ 0.862534 0.565904 0.137929 -0.05681
C_ C_ 0.838008 0.534986 0.117167 -0.08735
C_ C_ 0.869051 0.981908 0.120778 -0.08735
C_ C_ 0.901447 0.570891 0.183671 -0.08735
C_ C_ 0.897385 0.623308 0.184184 -0.08735
C_ C_ 0.875121 0.647302 0.1609 -0.05681
C_ C_ 0.855861 0.619638 0.138216 -0.08735
C_ C_ 0.966372 0.80321 0.153677 0.68181
C_ C_ 0.906879 0.859203 0.229495 0.1947
C_ C_ 0.913894 0.883747 0.25511 -0.08735
C_ C_ 0.89076 0.862291 0.279958 -0.08735
C_ C_ 0.867753 0.813831 0.278088 -0.05681
C_ C_ 0.855238 0.795867 0.250879 0.18498
C_ C_ 0.825301 0.753149 0.248578 -0.08735
C_ C_ 0.814237 0.723596 0.27325 -0.08735
C_ C_ 0.825857 0.7402 0.301054 -0.08735
C_ C_ 0.851982 0.786105 0.303176 0.18498
C_ C_ 0.823559 0.822813 0.348861 0.44287
C_ C_ 0.910995 0.803023 0.343532 0.44287
C_ C_ 0.919875 0.813901 0.37298 -0.05681
C_ C_ 0.9673 0.808319 0.385713 -0.08735
C_ C_ 0.974791 0.809219 0.415277 -0.08735
C_ C_ 0.933583 0.817338 0.43321 -0.05681
C_ C_ 0.885533 0.825152 0.421755 -0.05681
C_ C_ 0.878585 0.824887 0.391398 -0.05681
C_ C_ 0.829791 0.829604 0.378378 -0.05681
C_ C_ 0.787125 0.83432 0.39756 -0.08735
C_ C_ 0.795407 0.8376 0.427545 -0.08735
C_ C_ 0.844503 0.837125 0.439604 -0.05681
C_ C_ 0.851307 0.839244 0.469789 0.44287
C_ C_ 0.941211 0.823543 0.463263 0.44287
C_ C_ 0.896954 0.832758 0.0103992 0.18498
C_ C_ 0.924473 0.8756 0.018095 -0.08735
C_ C_ 0.941071 0.882612 0.046332 -0.08735
C_ C_ 0.927285 0.847729 0.0676184 -0.08735
C_ C_ 0.891525 0.810449 0.0620237 0.18498
C_ C_ 0.88078 0.798854 0.0322075 -0.05681
C_ C_ 0.853361 0.755265 0.0263169 -0.08735
C_ C_ 0.831771 0.729597 0.0497191 -0.08735
C_ C_ 0.839217 0.744567 0.0780472 0.1947
N_ N_ 0.637391 0.668591 0.478565 -0.29468
N_ N_ 0.655651 0.690102 0.0829673 -0.17154
N_ N_ 0.620895 0.659825 0.232319 -0.17154
N_ N_ 0.636728 0.703583 0.335352 -0.29468
N_ N_ 0.874636 0.819543 0.226747 -0.29468
N_ N_ 0.862812 0.80515 0.331875 -0.17154
N_ N_ 0.900372 0.833093 0.480873 -0.17154
N_ N_ 0.870775 0.784077 0.0840983 -0.29468
O_ O_ 0.713078 0.689472 0.429217 -0.58347
O_ O_ 0.704146 0.689294 0.38336 -0.58347
O_ O_ 0.635465 0.762647 0.435048 -0.58347
O_ O_ 0.634794 0.767428 0.389496 -0.58347
O_ O_ 0.639352 0.613066 0.423366 -0.58347
O_ O_ 0.629419 0.615551 0.376478 -0.58347
O_ O_ 0.565153 0.682283 0.429429 -0.58347
O_ O_ 0.55362 0.693996 0.384182 -0.58347
O_ O_ 0.574133 0.717958 0.080446 -0.46727
O_ O_ 0.739749 0.669074 0.0910546 -0.46727
O_ O_ 0.533706 0.673852 0.22585 -0.46727
O_ O_ 0.705168 0.636313 0.236348 -0.46727
O_ O_ 0.790842 0.804156 0.179973 -0.58347
O_ O_ 0.801934 0.796033 0.133858 -0.58347
O_ O_ 0.864965 0.728226 0.18338 -0.58347
O_ O_ 0.875183 0.724786 0.136371 -0.58347
O_ O_ 0.866136 0.879399 0.173111 -0.58347
O_ O_ 0.878054 0.872957 0.12734 -0.58347
O_ O_ 0.93689 0.804077 0.175041 -0.58347
O_ O_ 0.951015 0.793812 0.129305 -0.58347
O_ O_ 0.948899 0.796741 0.326949 -0.46727
O_ O_ 0.778022 0.827652 0.337806 -0.46727
O_ O_ 0.987139 0.8173 0.472933 -0.46727
O_ O_ 0.812255 0.850997 0.486651 -0.46727
Zn Zn 0.626587 0.687486 0.882661 0.90689
Zn Zn 0.634461 0.687125 0.930688 0.90689
Zn Zn 0.87601 0.825454 0.635739 0.90689
Zn Zn 0.867896 0.82746 0.681804 0.90689
H_ H_ 0.801107 0.690932 0.944127 0.11455
H_ H_ 0.870903 0.643677 0.849834 0.11455
H_ H_ 0.779666 0.660738 0.853219 0.11455
H_ H_ 0.884842 0.670766 0.966424 0.11455
H_ H_ 0.978055 0.675436 0.961602 0.11455
H_ H_ 0.959681 0.669329 0.869876 0.11455
H_ H_ 0.633038 0.52248 0.947324 0.11455
H_ H_ 0.633715 0.930541 0.842019 0.11455
H_ H_ 0.61853 0.524521 0.854934 0.11455
H_ H_ 0.595129 0.935195 0.959804 0.11455
H_ H_ 0.593305 0.841624 0.954671 0.11455
H_ H_ 0.634752 0.846398 0.86771 0.11455
H_ H_ 0.592502 0.612225 0.964715 0.11455
H_ H_ 0.59113 0.568275 0.518432 0.11455
H_ H_ 0.592842 0.638575 0.554933 0.11455
H_ H_ 0.701459 0.753891 0.977362 0.11455
H_ H_ 0.729788 0.80453 0.514139 0.11455
H_ H_ 0.694651 0.789745 0.562334 0.11455
H_ H_ 0.501609 0.723092 0.623843 0.11455
H_ H_ 0.495814 0.72069 0.674453 0.11455
H_ H_ 0.7504 0.667543 0.636291 0.11455
H_ H_ 0.740663 0.653362 0.687198 0.11455
H_ H_ 0.539936 0.611319 0.746129 0.11455
H_ H_ 0.514818 0.589429 0.79574 0.11455
H_ H_ 0.553878 0.634232 0.836662 0.11455
H_ H_ 0.652863 0.755564 0.756661 0.11455
H_ H_ 0.694028 0.796974 0.799747 0.11455
H_ H_ 0.682419 0.759301 0.846888 0.11455
H_ H_ 0.703716 0.810349 0.697626 0.11455
H_ H_ 0.631235 0.832099 0.601853 0.11455
H_ H_ 0.719854 0.818991 0.60864 0.11455
H_ H_ 0.617725 0.834597 0.720559 0.11455
H_ H_ 0.523172 0.840183 0.714499 0.11455
H_ H_ 0.546308 0.839146 0.622558 0.11455
H_ H_ 0.846266 0.9942 0.689527 0.11455
H_ H_ 0.8672 0.583999 0.594347 0.11455
H_ H_ 0.928489 0.987489 0.607109 0.11455
H_ H_ 0.881667 0.574945 0.710636 0.11455
H_ H_ 0.886293 0.665944 0.71061 0.11455
H_ H_ 0.875975 0.664395 0.620398 0.11455
H_ H_ 0.903149 0.917054 0.723266 0.11455
H_ H_ 0.909809 0.934315 0.773712 0.11455
H_ H_ 0.889899 0.871921 0.811702 0.11455
H_ H_ 0.797923 0.76963 0.722134 0.11455
H_ H_ 0.760236 0.7141 0.759082 0.11455
H_ H_ 0.793873 0.714924 0.806392 0.11455
H_ H_ 0.984016 0.787298 0.871661 0.11455
H_ H_ 0.996621 0.792201 0.923133 0.11455
H_ H_ 0.736479 0.828419 0.891045 0.11455
H_ H_ 0.749395 0.82276 0.944177 0.11455
H_ H_ 0.932783 0.905094 1.00261 0.11455
H_ H_ 0.989133 0.924259 0.547835 0.11455
H_ H_ 0.950961 0.884469 0.591069 0.11455
H_ H_ 0.84154 0.762563 0.510881 0.11455
H_ H_ 0.800295 0.728561 0.551775 0.11455
H_ H_ 0.82474 0.754007 0.600604 0.11455
C_ C_ 0.728269 0.688264 0.903999 0.68181
C_ C_ 0.784281 0.677137 0.900226 -0.05681
C_ C_ 0.817347 0.680919 0.924132 -0.08735
C_ C_ 0.870603 0.672115 0.920755 -0.05681
C_ C_ 0.890029 0.666186 0.893007 -0.05681
C_ C_ 0.856736 0.661924 0.86938 -0.08735
C_ C_ 0.803669 0.666088 0.872529 -0.08735
C_ C_ 0.90025 0.668684 0.944466 -0.08735
C_ C_ 0.954646 0.664817 0.942062 -0.08735
C_ C_ 0.973943 0.668099 0.913669 -0.05681
C_ C_ 0.941919 0.661055 0.889748 -0.08735
C_ C_ 0.621016 0.781009 0.910745 0.68181
C_ C_ 0.629199 0.587801 0.901662 0.68181
C_ C_ 0.624094 0.531092 0.900987 -0.05681
C_ C_ 0.62057 -0.0010930000000000106 0.915798 -0.08735
C_ C_ 0.614107 0.946276 0.913465 -0.05681
C_ C_ 0.620194 0.923002 0.886651 -0.05681
C_ C_ 0.631044 0.950896 0.862309 -0.08735
C_ C_ 0.634115 0.00475159 0.864112 -0.08735
C_ C_ 0.603755 0.918956 0.93806 -0.08735
C_ C_ 0.602831 0.864998 0.935841 -0.08735
C_ C_ 0.614249 0.838932 0.911098 -0.05681
C_ C_ 0.62493 0.868082 0.886315 -0.08735
C_ C_ 0.531583 0.680617 0.907663 0.68181
C_ C_ 0.608986 0.629465 0.982185 0.1947
C_ C_ 0.6051 0.608641 0.513328 -0.08735
C_ C_ 0.611664 0.643659 0.534843 -0.08735
C_ C_ 0.636378 0.689891 0.529517 -0.05681
C_ C_ 0.652473 0.699821 0.500364 0.18498
C_ C_ 0.688566 0.740825 0.998492 -0.08735
C_ C_ 0.704523 0.772552 0.517992 -0.08735
C_ C_ 0.679117 0.76714 0.545056 -0.08735
C_ C_ 0.649523 0.724542 0.551772 0.18498
C_ C_ 0.680375 0.698825 0.59851 0.44287
C_ C_ 0.59422 0.717122 0.593218 0.44287
C_ C_ 0.584498 0.705611 0.622775 -0.05681
C_ C_ 0.536305 0.71176 0.63533 -0.08735
C_ C_ 0.530165 0.707928 0.664764 -0.08735
C_ C_ 0.572056 0.697609 0.682674 -0.05681
C_ C_ 0.620652 0.691911 0.67007 -0.05681
C_ C_ 0.625273 0.69063 0.639945 -0.05681
C_ C_ 0.674233 0.687816 0.62798 -0.05681
C_ C_ 0.71449 0.674414 0.645981 -0.08735
C_ C_ 0.708334 0.667643 0.675949 -0.08735
C_ C_ 0.660653 0.679236 0.68758 -0.05681
C_ C_ 0.652601 0.673287 0.716997 0.44287
C_ C_ 0.566919 0.69867 0.712474 0.44287
C_ C_ 0.596545 0.668939 0.758885 0.18498
C_ C_ 0.561563 0.628897 0.763964 -0.08735
C_ C_ 0.543287 0.619154 0.792054 -0.08735
C_ C_ 0.567022 0.642947 0.815679 -0.08735
C_ C_ 0.604233 0.679591 0.810923 0.18498
C_ C_ 0.616586 0.696247 0.781801 -0.05681
C_ C_ 0.647198 0.739835 0.778329 -0.08735
C_ C_ 0.670562 0.762368 0.802256 -0.08735
C_ C_ 0.66161 0.741456 0.829142 0.1947
C_ C_ 0.774642 0.816684 0.656663 0.68181
C_ C_ 0.718098 0.820827 0.653658 -0.05681
C_ C_ 0.685783 0.818473 0.677028 -0.08735
C_ C_ 0.633213 0.828161 0.675076 -0.05681
C_ C_ 0.614213 0.834305 0.647637 -0.05681
C_ C_ 0.645914 0.829418 0.623087 -0.08735
C_ C_ 0.696103 0.82526 0.627051 -0.08735
C_ C_ 0.601688 0.835318 0.699064 -0.08735
C_ C_ 0.547313 0.836612 0.695374 -0.08735
C_ C_ 0.525952 0.836689 0.667139 -0.05681
C_ C_ 0.56076 0.83928 0.644112 -0.08735
C_ C_ 0.880343 0.731891 0.666473 0.68181
C_ C_ 0.878204 0.926917 0.65 0.68181
C_ C_ 0.884979 0.982648 0.649539 -0.05681
C_ C_ 0.848787 0.515552 0.66731 -0.08735
C_ C_ 0.860417 0.568016 0.666732 -0.05681
C_ C_ 0.868509 0.592798 0.640373 -0.05681
C_ C_ 0.864024 0.564698 0.614634 -0.08735
C_ C_ 0.913277 1.00807573 0.626088 -0.08735
C_ C_ 0.871442 0.593901 0.692037 -0.08735
C_ C_ 0.876284 0.647371 0.691923 -0.08735
C_ C_ 0.878237 0.673023 0.666279 -0.05681
C_ C_ 0.872749 0.644834 0.640593 -0.08735
C_ C_ 0.970258 0.8247 0.663639 0.68181
C_ C_ 0.893861 0.885626 0.738555 0.1947
C_ C_ 0.90051 0.895222 0.768219 -0.08735
C_ C_ 0.88297 0.862355 0.789392 -0.08735
C_ C_ 0.853997 0.82038 0.780988 -0.05681
C_ C_ 0.845525 0.811793 0.75111 0.18498
C_ C_ 0.812117 0.772412 0.743289 -0.08735
C_ C_ 0.791719 0.739082 0.762916 -0.08735
C_ C_ 0.81047 0.740585 0.790611 -0.08735
C_ C_ 0.838531 0.781966 0.801014 0.18498
C_ C_ 0.807308 0.80478 0.850022 0.44287
C_ C_ 0.89243 0.780888 0.843897 0.44287
C_ C_ 0.900876 0.79022 0.874296 -0.05681
C_ C_ 0.950361 0.790901 0.885788 -0.08735
C_ C_ 0.958127 0.788882 0.914291 -0.08735
C_ C_ 0.917761 0.798916 0.933674 -0.05681
C_ C_ 0.869374 0.805025 0.922039 -0.05681
C_ C_ 0.861426 0.797812 0.89273 -0.05681
C_ C_ 0.812675 0.808017 0.88133 -0.05681
C_ C_ 0.772397 0.821421 0.898699 -0.08735
C_ C_ 0.781658 0.823049 0.929187 -0.08735
C_ C_ 0.828741 0.816126 0.940484 -0.05681
C_ C_ 0.838018 0.824227 0.969812 0.44287
C_ C_ 0.926351 0.809988 0.962185 0.44287
C_ C_ 0.909905 0.843847 0.510243 0.18498
C_ C_ 0.944129 0.886132 0.516555 -0.08735
C_ C_ 0.960537 0.895287 0.54458 -0.08735
C_ C_ 0.936697 0.873042 0.568455 -0.08735
C_ C_ 0.898506 0.835089 0.564631 0.18498
C_ C_ 0.886034 0.819627 0.5349 -0.05681
C_ C_ 0.85018 0.780401 0.530925 -0.08735
C_ C_ 0.825722 0.761331 0.555732 -0.08735
C_ C_ 0.843867 0.772431 0.582924 0.1947
N_ N_ 0.638617 0.671457 0.978314 -0.29468
N_ N_ 0.640051 0.70927 0.58147 -0.17154
N_ N_ 0.606174 0.682378 0.729195 -0.17154
N_ N_ 0.627301 0.703701 0.833982 -0.29468
N_ N_ 0.86475 0.84551 0.730588 -0.29468
N_ N_ 0.846124 0.789928 0.832701 -0.17154
N_ N_ 0.886837 0.821021 0.980423 -0.17154
N_ N_ 0.879545 0.80804 0.587205 -0.29468
O_ O_ 0.708483 0.692192 0.928263 -0.58347
O_ O_ 0.70118 0.683763 0.882428 -0.58347
O_ O_ 0.629816 0.757339 0.933886 -0.58347
O_ O_ 0.627629 0.759061 0.886942 -0.58347
O_ O_ 0.638911 0.608961 0.925302 -0.58347
O_ O_ 0.62443 0.613715 0.87843 -0.58347
O_ O_ 0.55998 0.67489 0.929676 -0.58347
O_ O_ 0.550645 0.689028 0.88318 -0.58347
O_ O_ 0.554757 0.738093 0.578627 -0.46727
O_ O_ 0.725989 0.693712 0.585874 -0.46727
O_ O_ 0.527872 0.721622 0.724002 -0.46727
O_ O_ 0.693232 0.668978 0.73392 -0.46727
O_ O_ 0.794139 0.818375 0.681069 -0.58347
O_ O_ 0.802083 0.823779 0.634583 -0.58347
O_ O_ 0.878727 0.755833 0.689843 -0.58347
O_ O_ 0.874702 0.752037 0.642562 -0.58347
O_ O_ 0.8703 0.903572 0.672905 -0.58347
O_ O_ 0.880155 0.899671 0.628097 -0.58347
O_ O_ 0.941462 0.835728 0.685033 -0.58347
O_ O_ 0.95267 0.824058 0.638206 -0.58347
O_ O_ 0.927412 0.759667 0.82759 -0.46727
O_ O_ 0.762726 0.81044 0.837965 -0.46727
O_ O_ 0.971839 0.806681 0.973306 -0.46727
O_ O_ 0.800641 0.834807 0.986428 -0.46727
