_cell_length_a 26.376
_cell_length_b 26.400000238300095
_cell_length_c 46.67800035477134
_cell_angle_alpha 90.00700052986613
_cell_angle_beta 89.99899961309502
_cell_angle_gamma 90.45000003183146
_symmetry_space_group_name_H-M         'P 1'
_symmetry_Int_Tables_number            1
loop_
_symmetry_equiv_pos_as_xyz
   'x, y, z'
                         
loop_
_atom_site_label
_atom_site_type_symbol
_atom_site_fract_x 
_atom_site_fract_y
_atom_site_fract_z
_atom_site_charge
Zn Zn 0.125823 0.183005 0.384504 0.90689
Zn Zn 0.136427 0.178095 0.431219 0.90689
Zn Zn 0.377631 0.314648 0.133567 0.90689
Zn Zn 0.368044 0.322891 0.182184 0.90689
H_ H_ 0.304043 0.190377 0.445675 0.11455
H_ H_ 0.375479 0.156734 0.347869 0.11455
H_ H_ 0.288297 0.158667 0.354218 0.11455
H_ H_ 0.393591 0.195901 0.465204 0.11455
H_ H_ 0.481787 0.207989 0.453864 0.11455
H_ H_ 0.462383 0.162416 0.36893 0.11455
H_ H_ 0.147753 0.0160253 0.448133 0.11455
H_ H_ 0.143399 0.427936 0.348189 0.11455
H_ H_ 0.146152 0.023825 0.354835 0.11455
H_ H_ 0.128974 0.432527 0.465485 0.11455
H_ H_ 0.118473 0.337822 0.461612 0.11455
H_ H_ 0.12221 0.347764 0.370129 0.11455
H_ H_ 0.0828735 0.101687 0.468156 0.11455
H_ H_ 0.0486065 0.0859907 0.0132892 0.11455
H_ H_ 0.0925233 0.125715 0.0534678 0.11455
H_ H_ 0.188376 0.243362 0.473749 0.11455
H_ H_ 0.2049 0.307541 0.0141825 0.11455
H_ H_ 0.193624 0.274314 0.067006 0.11455
H_ H_ 0.00905751 0.21292 0.125164 0.11455
H_ H_ 0.00041000000000002146 0.205731 0.176078 0.11455
H_ H_ 0.256136 0.156267 0.13877 0.11455
H_ H_ 0.246339 0.158112 0.189196 0.11455
H_ H_ 0.0478134 0.0957573 0.250236 0.11455
H_ H_ 0.0243327 0.0745668 0.300163 0.11455
H_ H_ 0.0624582 0.119028 0.339838 0.11455
H_ H_ 0.150272 0.245468 0.259639 0.11455
H_ H_ 0.193501 0.2833 0.299799 0.11455
H_ H_ 0.186351 0.249045 0.350234 0.11455
H_ H_ 0.198708 0.29715 0.195728 0.11455
H_ H_ 0.129508 0.336768 0.0987201 0.11455
H_ H_ 0.219975 0.336047 0.107174 0.11455
H_ H_ 0.10552 0.289562 0.215054 0.11455
H_ H_ 0.0187939 0.305094 0.207213 0.11455
H_ H_ 0.0478635 0.332731 0.116048 0.11455
H_ H_ 0.359315 0.486568 0.191227 0.11455
H_ H_ 0.355879 0.0764731 0.100137 0.11455
H_ H_ 0.371329 0.467757 0.0999194 0.11455
H_ H_ 0.397314 0.068508 0.21371 0.11455
H_ H_ 0.403965 0.161856 0.211758 0.11455
H_ H_ 0.375265 0.154491 0.119773 0.11455
H_ H_ 0.410032 0.404666 0.220199 0.11455
H_ H_ 0.424056 0.427309 0.271146 0.11455
H_ H_ 0.39238 0.372287 0.307467 0.11455
H_ H_ 0.31504 0.248271 0.223338 0.11455
H_ H_ 0.294385 0.188365 0.262912 0.11455
H_ H_ 0.335242 0.201831 0.308379 0.11455
H_ H_ 0.486914 0.30768 0.375899 0.11455
H_ H_ 0.496367 0.312439 0.425901 0.11455
H_ H_ 0.233713 0.306671 0.383357 0.11455
H_ H_ 0.236567 0.321994 0.433838 0.11455
H_ H_ 0.411296 0.416289 0.499475 0.11455
H_ H_ 0.479396 0.423331 0.0453056 0.11455
H_ H_ 0.451217 0.372111 0.0875735 0.11455
H_ H_ 0.328248 0.268404 0.00908663 0.11455
H_ H_ 0.292417 0.22724 0.0511357 0.11455
H_ H_ 0.316089 0.254699 0.0986902 0.11455
C_ C_ 0.230792 0.183334 0.404288 0.68181
C_ C_ 0.28583 0.177032 0.400225 -0.05681
C_ C_ 0.319379 0.183562 0.424874 -0.08735
C_ C_ 0.371692 0.177447 0.420571 -0.05681
C_ C_ 0.392192 0.17215 0.39222 -0.05681
C_ C_ 0.360086 0.16064 0.369162 -0.08735
C_ C_ 0.30909 0.163463 0.373454 -0.08735
C_ C_ 0.406551 0.19087 0.442762 -0.08735
C_ C_ 0.457395 0.196925 0.436702 -0.08735
C_ C_ 0.477994 0.186176 0.410184 -0.05681
C_ C_ 0.444648 0.174825 0.38847 -0.08735
C_ C_ 0.126711 0.281598 0.412857 0.68181
C_ C_ 0.140813 0.082327 0.402626 0.68181
C_ C_ 0.143444 0.025152 0.401091 -0.05681
C_ C_ 0.126179 0.495036 0.421438 -0.08735
C_ C_ 0.125733 0.44302 0.420362 -0.05681
C_ C_ 0.13276 0.418484 0.393555 -0.05681
C_ C_ 0.14081 0.446409 0.368646 -0.08735
C_ C_ 0.142515 0.498613 0.370124 -0.08735
C_ C_ 0.123518 0.413189 0.44508 -0.08735
C_ C_ 0.121275 0.360179 0.442727 -0.08735
C_ C_ 0.124837 0.336951 0.415968 -0.05681
C_ C_ 0.129539 0.365541 0.391145 -0.08735
C_ C_ 0.0342793 0.17478 0.412264 0.68181
C_ C_ 0.104825 0.119925 0.486198 0.1947
C_ C_ 0.0749134 0.117301 0.0096357 -0.08735
C_ C_ 0.101878 0.138626 0.0316136 -0.08735
C_ C_ 0.135137 0.178954 0.0280554 -0.05681
C_ C_ 0.142613 0.195776 0.9999768836 0.18498
C_ C_ 0.180143 0.232908 0.496472 -0.08735
C_ C_ 0.187531 0.269093 0.0186335 -0.08735
C_ C_ 0.178145 0.253265 0.0469573 -0.08735
C_ C_ 0.151627 0.207715 0.0517983 0.18498
C_ C_ 0.183708 0.176785 0.0984762 0.44287
C_ C_ 0.0969335 0.199474 0.0936725 0.44287
C_ C_ 0.0902654 0.192396 0.124098 -0.05681
C_ C_ 0.0416081 0.197287 0.137031 -0.08735
C_ C_ 0.0371597 0.196236 0.167257 -0.08735
C_ C_ 0.0777412 0.183495 0.183932 -0.05681
C_ C_ 0.125471 0.173413 0.171875 -0.05681
C_ C_ 0.13148 0.178435 0.141076 -0.05681
C_ C_ 0.179171 0.172449 0.128726 -0.05681
C_ C_ 0.219783 0.166136 0.146242 -0.08735
C_ C_ 0.214304 0.164973 0.176435 -0.08735
C_ C_ 0.166076 0.164229 0.189299 -0.05681
C_ C_ 0.158057 0.160935 0.220049 0.44287
C_ C_ 0.0713335 0.181457 0.213978 0.44287
C_ C_ 0.098915 0.155826 0.261188 0.18498
C_ C_ 0.062317 0.117128 0.267619 -0.08735
C_ C_ 0.045646 0.105867 0.295922 -0.08735
C_ C_ 0.070322 0.131389 0.318316 -0.08735
C_ C_ 0.106491 0.169644 0.313073 0.18498
C_ C_ 0.120661 0.183816 0.284093 -0.05681
C_ C_ 0.150098 0.225866 0.280668 -0.08735
C_ C_ 0.17366 0.247629 0.303463 -0.08735
C_ C_ 0.165143 0.230163 0.331538 0.1947
C_ C_ 0.273273 0.319453 0.155431 0.68181
C_ C_ 0.217847 0.312728 0.151758 -0.05681
C_ C_ 0.182732 0.306176 0.174217 -0.08735
C_ C_ 0.129438 0.308836 0.170018 -0.05681
C_ C_ 0.110727 0.319323 0.141784 -0.05681
C_ C_ 0.144672 0.325043 0.119626 -0.08735
C_ C_ 0.196423 0.327971 0.125304 -0.08735
C_ C_ 0.0957094 0.307268 0.193214 -0.08735
C_ C_ 0.0438487 0.314521 0.189292 -0.08735
C_ C_ 0.0252837 0.322307 0.161216 -0.05681
C_ C_ 0.0591628 0.327463 0.13825 -0.08735
C_ C_ 0.383216 0.222075 0.163267 0.68181
C_ C_ 0.367455 0.416709 0.149113 0.68181
C_ C_ 0.368388 0.470915 0.146001 -0.05681
C_ C_ 0.38556 0.0052243 0.168679 -0.08735
C_ C_ 0.393358 0.0579886 0.167761 -0.05681
C_ C_ 0.386988 0.0828668 0.141277 -0.05681
C_ C_ 0.366625 0.0553616 0.118757 -0.08735
C_ C_ 0.373441 0.491716 0.117812 -0.08735
C_ C_ 0.399199 0.0868201 0.192979 -0.08735
C_ C_ 0.402075 0.140527 0.191743 -0.08735
C_ C_ 0.393542 0.16598 0.164968 -0.05681
C_ C_ 0.383786 0.135356 0.140231 -0.08735
C_ C_ 0.470555 0.325658 0.159687 0.68181
C_ C_ 0.394764 0.379226 0.236465 0.1947
C_ C_ 0.407854 0.390463 0.264543 -0.08735
C_ C_ 0.388894 0.360397 0.286036 -0.08735
C_ C_ 0.366476 0.314204 0.278962 -0.05681
C_ C_ 0.355457 0.302905 0.250071 0.18498
C_ C_ 0.328443 0.258386 0.243899 -0.08735
C_ C_ 0.315479 0.223015 0.265445 -0.08735
C_ C_ 0.332811 0.231342 0.293042 -0.08735
C_ C_ 0.353938 0.278502 0.300727 0.18498
C_ C_ 0.312871 0.294464 0.34675 0.44287
C_ C_ 0.404218 0.286183 0.344482 0.44287
C_ C_ 0.405137 0.295646 0.373686 -0.05681
C_ C_ 0.452905 0.302532 0.387674 -0.08735
C_ C_ 0.456433 0.307222 0.417245 -0.08735
C_ C_ 0.411939 0.309968 0.434278 -0.05681
C_ C_ 0.362742 0.308783 0.420439 -0.05681
C_ C_ 0.36062 0.300341 0.390166 -0.05681
C_ C_ 0.314725 0.29874 0.376937 -0.05681
C_ C_ 0.269137 0.305036 0.393034 -0.08735
C_ C_ 0.272417 0.315116 0.422187 -0.08735
C_ C_ 0.319011 0.315452 0.436767 -0.05681
C_ C_ 0.326369 0.32507 0.467005 0.44287
C_ C_ 0.415145 0.316404 0.464034 0.44287
C_ C_ 0.396818 0.348925 0.0106614 0.18498
C_ C_ 0.43148 0.386592 0.0145428 -0.08735
C_ C_ 0.449244 0.397056 0.0424646 -0.08735
C_ C_ 0.435163 0.366387 0.0653441 -0.08735
C_ C_ 0.395726 0.330346 0.0616624 0.18498
C_ C_ 0.378907 0.320239 0.0335722 -0.05681
C_ C_ 0.341616 0.282609 0.0297905 -0.08735
C_ C_ 0.320958 0.256449 0.053685 -0.08735
C_ C_ 0.338293 0.267902 0.0803878 0.1947
N_ N_ 0.134211 0.162959 0.480761 -0.29468
N_ N_ 0.143124 0.192995 0.081546 -0.17154
N_ N_ 0.110032 0.167304 0.231755 -0.17154
N_ N_ 0.130858 0.191664 0.335901 -0.29468
N_ N_ 0.369488 0.334877 0.229517 -0.29468
N_ N_ 0.357033 0.288786 0.330742 -0.17154
N_ N_ 0.374404 0.326929 0.480176 -0.17154
N_ N_ 0.375642 0.300948 0.0849855 -0.29468
O_ O_ 0.21131 0.181221 0.429365 -0.58347
O_ O_ 0.2017 0.185472 0.382315 -0.58347
O_ O_ 0.129853 0.25546 0.435327 -0.58347
O_ O_ 0.122563 0.260814 0.388379 -0.58347
O_ O_ 0.137166 0.103257 0.426567 -0.58347
O_ O_ 0.125007 0.106897 0.380562 -0.58347
O_ O_ 0.0645495 0.176951 0.432672 -0.58347
O_ O_ 0.0531449 0.174682 0.387235 -0.58347
O_ O_ 0.0578951 0.216627 0.0778853 -0.46727
O_ O_ 0.226593 0.169408 0.085822 -0.46727
O_ O_ 0.0257198 0.190053 0.224903 -0.46727
O_ O_ 0.195239 0.148175 0.236365 -0.46727
O_ O_ 0.29427 0.315899 0.179878 -0.58347
O_ O_ 0.300346 0.313554 0.133098 -0.58347
O_ O_ 0.375603 0.247997 0.186617 -0.58347
O_ O_ 0.37956 0.242135 0.138729 -0.58347
O_ O_ 0.358151 0.398489 0.173596 -0.58347
O_ O_ 0.372669 0.388638 0.127607 -0.58347
O_ O_ 0.439674 0.332616 0.181085 -0.58347
O_ O_ 0.452027 0.319078 0.135304 -0.58347
O_ O_ 0.446667 0.285362 0.328302 -0.46727
O_ O_ 0.270391 0.301718 0.333159 -0.46727
O_ O_ 0.459275 0.312673 0.475769 -0.46727
O_ O_ 0.285884 0.324626 0.484177 -0.46727
Zn Zn 0.119176 0.188346 0.882915 0.90689
Zn Zn 0.126313 0.187861 0.928725 0.90689
Zn Zn 0.372481 0.306445 0.631589 0.90689
Zn Zn 0.366078 0.31359 0.679896 0.90689
H_ H_ 0.295125 0.204202 0.944407 0.11455
H_ H_ 0.364641 0.170357 0.846798 0.11455
H_ H_ 0.270456 0.173004 0.853315 0.11455
H_ H_ 0.381176 0.189034 0.96323 0.11455
H_ H_ 0.471977 0.184913 0.957099 0.11455
H_ H_ 0.453316 0.178212 0.864792 0.11455
H_ H_ 0.136564 0.0204415 0.944716 0.11455
H_ H_ 0.117025 0.442247 0.844621 0.11455
H_ H_ 0.14139 0.0383956 0.852969 0.11455
H_ H_ 0.142854 0.429746 0.964511 0.11455
H_ H_ 0.12726 0.340303 0.960088 0.11455
H_ H_ 0.120765 0.353569 0.868325 0.11455
H_ H_ 0.0657036 0.116473 0.965719 0.11455
H_ H_ 0.0824554 0.0642936 0.517918 0.11455
H_ H_ 0.11824 0.113398 0.558074 0.11455
H_ H_ 0.191563 0.246313 0.976467 0.11455
H_ H_ 0.215252 0.298364 0.514045 0.11455
H_ H_ 0.198675 0.277343 0.564827 0.11455
H_ H_ 0.0178494 0.220378 0.622015 0.11455
H_ H_ -0.0007470000000000532 0.196243 0.674432 0.11455
H_ H_ 0.264751 0.184001 0.644438 0.11455
H_ H_ 0.250476 0.1776 0.693347 0.11455
H_ H_ 0.0788403 0.0747506 0.752297 0.11455
H_ H_ 0.044805 0.061526 0.802553 0.11455
H_ H_ 0.0725229 0.115439 0.842874 0.11455
H_ H_ 0.144325 0.248999 0.757801 0.11455
H_ H_ 0.190246 0.287023 0.798533 0.11455
H_ H_ 0.169443 0.263991 0.846177 0.11455
H_ H_ 0.197896 0.286685 0.694183 0.11455
H_ H_ 0.125752 0.363593 0.606414 0.11455
H_ H_ 0.220388 0.356972 0.611432 0.11455
H_ H_ 0.111902 0.298863 0.715933 0.11455
H_ H_ 0.0173147 0.285337 0.705755 0.11455
H_ H_ 0.0406038 0.351098 0.622877 0.11455
H_ H_ 0.384947 0.481241 0.688802 0.11455
H_ H_ 0.457283 0.0571341 0.616922 0.11455
H_ H_ 0.328796 0.468127 0.60453 0.11455
H_ H_ 0.320892 0.0613003 0.707322 0.11455
H_ H_ 0.338023 0.158459 0.707964 0.11455
H_ H_ 0.41963 0.142357 0.628249 0.11455
H_ H_ 0.424048 0.378148 0.715232 0.11455
H_ H_ 0.42784 0.423829 0.760617 0.11455
H_ H_ 0.384778 0.385528 0.803803 0.11455
H_ H_ 0.303048 0.255172 0.72581 0.11455
H_ H_ 0.261381 0.213141 0.767806 0.11455
H_ H_ 0.282766 0.234008 0.815619 0.11455
H_ H_ 0.482989 0.295013 0.87406 0.11455
H_ H_ 0.495519 0.306867 0.92548 0.11455
H_ H_ 0.232828 0.323552 0.89099 0.11455
H_ H_ 0.244306 0.328354 0.943689 0.11455
H_ H_ 0.437571 0.412866 -0.00400900000000004 0.11455
H_ H_ 0.452953 0.428088 0.547697 0.11455
H_ H_ 0.429487 0.368506 0.587409 0.11455
H_ H_ 0.344613 0.240517 0.507048 0.11455
H_ H_ 0.306492 0.200175 0.54938 0.11455
H_ H_ 0.321089 0.233212 0.596588 0.11455
C_ C_ 0.220122 0.187465 0.902551 0.68181
C_ C_ 0.274775 0.184458 0.900114 -0.05681
C_ C_ 0.308843 0.193622 0.923381 -0.08735
C_ C_ 0.361373 0.18828 0.91863 -0.05681
C_ C_ 0.38145 0.181425 0.890584 -0.05681
C_ C_ 0.346806 0.173693 0.868408 -0.08735
C_ C_ 0.294077 0.17783 0.8721 -0.08735
C_ C_ 0.39511 0.18921 0.94111 -0.08735
C_ C_ 0.44671 0.184038 0.937674 -0.08735
C_ C_ 0.469756 0.183408 0.90957 -0.05681
C_ C_ 0.43533 0.181782 0.885766 -0.08735
C_ C_ 0.113769 0.284281 0.912766 0.68181
C_ C_ 0.137829 0.0935101 0.901533 0.68181
C_ C_ 0.132539 0.0362314 0.898651 -0.05681
C_ C_ 0.141613 0.498359 0.921983 -0.08735
C_ C_ 0.13568 0.445613 0.919122 -0.05681
C_ C_ 0.132031 0.422811 0.891086 -0.05681
C_ C_ 0.127539 0.454224 0.867506 -0.08735
C_ C_ 0.127653 0.507029 0.871329 -0.08735
C_ C_ 0.140562 0.414703 0.943975 -0.08735
C_ C_ 0.128921 0.364165 0.94146 -0.08735
C_ C_ 0.122319 0.339114 0.91472 -0.05681
C_ C_ 0.12575 0.36989 0.889384 -0.08735
C_ C_ 0.024369 0.188594 0.905614 0.68181
C_ C_ 0.083658 0.134847 0.982523 0.1947
C_ C_ 0.101555 0.100775 0.5138 -0.08735
C_ C_ 0.120462 0.13036 0.537303 -0.08735
C_ C_ 0.145943 0.176464 0.530899 -0.05681
C_ C_ 0.154791 0.18961 0.502331 0.18498
C_ C_ 0.172466 0.237112 0.995323 -0.08735
C_ C_ 0.197584 0.264372 0.519499 -0.08735
C_ C_ 0.193164 0.249983 0.547621 -0.08735
C_ C_ 0.16442 0.207235 0.554127 0.18498
C_ C_ 0.193788 0.181043 0.602153 0.44287
C_ C_ 0.106806 0.207353 0.595008 0.44287
C_ C_ 0.0969556 0.201642 0.625167 -0.05681
C_ C_ 0.0471867 0.207211 0.636306 -0.08735
C_ C_ 0.0373396 0.194414 0.665965 -0.08735
C_ C_ 0.0801452 0.184364 0.684184 -0.05681
C_ C_ 0.128464 0.18356 0.673192 -0.05681
C_ C_ 0.136587 0.184344 0.643373 -0.05681
C_ C_ 0.186665 0.182936 0.631593 -0.05681
C_ C_ 0.227472 0.180538 0.651406 -0.08735
C_ C_ 0.219682 0.174292 0.680343 -0.08735
C_ C_ 0.170286 0.176356 0.692584 -0.05681
C_ C_ 0.162045 0.164846 0.722164 0.44287
C_ C_ 0.070782 0.173352 0.714504 0.44287
C_ C_ 0.103189 0.152422 0.762675 0.18498
C_ C_ 0.079772 0.105889 0.769607 -0.08735
C_ C_ 0.0680749 0.0926909 0.797237 -0.08735
C_ C_ 0.0824043 0.123812 0.820204 -0.08735
C_ C_ 0.105916 0.172107 0.814075 0.18498
C_ C_ 0.113421 0.187007 0.78454 -0.05681
C_ C_ 0.139499 0.23302 0.779544 -0.08735
C_ C_ 0.16358 0.256694 0.801651 -0.08735
C_ C_ 0.150876 0.243223 0.829913 0.1947
C_ C_ 0.271345 0.315459 0.654346 0.68181
C_ C_ 0.214683 0.319812 0.653294 -0.05681
C_ C_ 0.18112 0.300918 0.673858 -0.08735
C_ C_ 0.130187 0.312439 0.67184 -0.05681
C_ C_ 0.109329 0.331314 0.646128 -0.05681
C_ C_ 0.141342 0.343146 0.623658 -0.08735
C_ C_ 0.194031 0.337431 0.627279 -0.08735
C_ C_ 0.0969779 0.304374 0.69457 -0.08735
C_ C_ 0.0442514 0.301315 0.689789 -0.08735
C_ C_ 0.0248314 0.323361 0.664798 -0.05681
C_ C_ 0.0573042 0.339133 0.643136 -0.08735
C_ C_ 0.373373 0.213971 0.663752 0.68181
C_ C_ 0.364068 0.41138 0.649198 0.68181
C_ C_ 0.363831 0.466647 0.646757 -0.05681
C_ C_ 0.357851 -0.0020409999999999595 0.668666 -0.08735
C_ C_ 0.364255 0.051527 0.667889 -0.05681
C_ C_ 0.393237 0.0734438 0.64655 -0.05681
C_ C_ 0.422795 0.0409085 0.628097 -0.08735
C_ C_ 0.348361 0.489783 0.620884 -0.08735
C_ C_ 0.342594 0.0815584 0.690491 -0.08735
C_ C_ 0.350035 0.134484 0.69075 -0.08735
C_ C_ 0.373414 0.156987 0.66614 -0.05681
C_ C_ 0.399011 0.126653 0.646799 -0.08735
C_ C_ 0.470833 0.318871 0.656691 0.68181
C_ C_ 0.408351 0.359061 0.733246 0.1947
C_ C_ 0.41169 0.383833 0.760215 -0.08735
C_ C_ 0.386774 0.362824 0.784533 -0.08735
C_ C_ 0.356181 0.318482 0.779594 -0.05681
C_ C_ 0.348314 0.301278 0.751514 0.18498
C_ C_ 0.312142 0.265696 0.747073 -0.08735
C_ C_ 0.283861 0.24563 0.770899 -0.08735
C_ C_ 0.300784 0.25517 0.798491 -0.08735
C_ C_ 0.335896 0.293811 0.804389 0.18498
C_ C_ 0.305216 0.320802 0.8512 0.44287
C_ C_ 0.393706 0.308115 0.844217 0.44287
C_ C_ 0.402249 0.30995 0.875169 -0.05681
C_ C_ 0.450143 0.304212 0.887255 -0.08735
C_ C_ 0.458636 0.305456 0.917129 -0.08735
C_ C_ 0.417431 0.318893 0.934474 -0.05681
C_ C_ 0.367263 0.320663 0.923178 -0.05681
C_ C_ 0.361348 0.322373 0.893017 -0.05681
C_ C_ 0.313191 0.326967 0.880552 -0.05681
C_ C_ 0.27164 0.327565 0.899347 -0.08735
C_ C_ 0.277228 0.326409 0.928961 -0.08735
C_ C_ 0.325578 0.330184 0.941143 -0.05681
C_ C_ 0.33575 0.341026 0.970038 0.44287
C_ C_ 0.42324 0.32217 0.964223 0.44287
C_ C_ 0.380355 0.341606 0.510145 0.18498
C_ C_ 0.402291 0.390104 0.516981 -0.08735
C_ C_ 0.426186 0.39684 0.544246 -0.08735
C_ C_ 0.416627 0.361886 0.565772 -0.08735
C_ C_ 0.386233 0.32145 0.560817 0.18498
C_ C_ 0.376685 0.305557 0.532402 -0.05681
C_ C_ 0.348555 0.259658 0.528244 -0.08735
C_ C_ 0.333395 0.232764 0.55183 -0.08735
C_ C_ 0.338146 0.252925 0.579328 0.1947
N_ N_ 0.118795 0.173062 0.977631 -0.29468
N_ N_ 0.155112 0.196587 0.58371 -0.17154
N_ N_ 0.113167 0.166748 0.732642 -0.17154
N_ N_ 0.126312 0.199869 0.836074 -0.29468
N_ N_ 0.374285 0.322094 0.729363 -0.29468
N_ N_ 0.345296 0.310311 0.833933 -0.17154
N_ N_ 0.383296 0.336164 0.981845 -0.17154
N_ N_ 0.364587 0.296475 0.584286 -0.29468
O_ O_ 0.201752 0.181288 0.926727 -0.58347
O_ O_ 0.193861 0.20319 0.882091 -0.58347
O_ O_ 0.127387 0.258097 0.933402 -0.58347
O_ O_ 0.10559 0.262324 0.88843 -0.58347
O_ O_ 0.121911 0.114046 0.924187 -0.58347
O_ O_ 0.139118 0.117951 0.878933 -0.58347
O_ O_ 0.0532006 0.195834 0.928094 -0.58347
O_ O_ 0.0436739 0.173925 0.881955 -0.58347
O_ O_ 0.0725195 0.22561 0.577954 -0.46727
O_ O_ 0.239763 0.174396 0.591588 -0.46727
O_ O_ 0.0239093 0.166559 0.724553 -0.46727
O_ O_ 0.199695 0.159451 0.738675 -0.46727
O_ O_ 0.291459 0.311617 0.678495 -0.58347
O_ O_ 0.297283 0.305702 0.631139 -0.58347
O_ O_ 0.371634 0.242292 0.684932 -0.58347
O_ O_ 0.377281 0.234481 0.63879 -0.58347
O_ O_ 0.363209 0.388583 0.67298 -0.58347
O_ O_ 0.363462 0.383427 0.627048 -0.58347
O_ O_ 0.440778 0.314014 0.678348 -0.58347
O_ O_ 0.452153 0.320081 0.632046 -0.58347
O_ O_ 0.427243 0.290001 0.828064 -0.46727
O_ O_ 0.261587 0.331989 0.841114 -0.46727
O_ O_ 0.466088 0.307344 0.97599 -0.46727
O_ O_ 0.298083 0.363503 0.984508 -0.46727
Zn Zn 0.131335 0.686939 0.381224 0.90689
Zn Zn 0.138284 0.676914 0.429151 0.90689
Zn Zn 0.375963 0.820677 0.128979 0.90689
Zn Zn 0.36413 0.823098 0.176833 0.90689
H_ H_ 0.309583 0.676201 0.443263 0.11455
H_ H_ 0.378533 0.66654 0.345026 0.11455
H_ H_ 0.286137 0.669928 0.351159 0.11455
H_ H_ 0.39476 0.682125 0.46336 0.11455
H_ H_ 0.486846 0.684658 0.455025 0.11455
H_ H_ 0.465447 0.680272 0.364366 0.11455
H_ H_ 0.118929 0.513044 0.441857 0.11455
H_ H_ 0.119113 0.934074 0.351714 0.11455
H_ H_ 0.152028 0.516758 0.350764 0.11455
H_ H_ 0.140351 0.927186 0.468333 0.11455
H_ H_ 0.138535 0.834164 0.463295 0.11455
H_ H_ 0.134768 0.851305 0.373078 0.11455
H_ H_ 0.0921816 0.584718 0.465376 0.11455
H_ H_ 0.0897572 0.573249 0.0159016 0.11455
H_ H_ 0.129685 0.61961 0.0548769 0.11455
H_ H_ 0.203122 0.726154 0.468514 0.11455
H_ H_ 0.230961 0.805961 0.00780918 0.11455
H_ H_ 0.222338 0.77769 0.0591619 0.11455
H_ H_ 0.0234547 0.706286 0.117983 0.11455
H_ H_ 0.0115589 0.697582 0.170107 0.11455
H_ H_ 0.277351 0.693715 0.138468 0.11455
H_ H_ 0.264722 0.693814 0.190515 0.11455
H_ H_ 0.104318 0.593133 0.244083 0.11455
H_ H_ 0.0956142 0.559809 0.293642 0.11455
H_ H_ 0.0915179 0.613292 0.334648 0.11455
H_ H_ 0.167071 0.756895 0.257447 0.11455
H_ H_ 0.196264 0.804699 0.301089 0.11455
H_ H_ 0.186591 0.768166 0.348812 0.11455
H_ H_ 0.201816 0.832396 0.192393 0.11455
H_ H_ 0.128876 0.87216 0.0958247 0.11455
H_ H_ 0.222109 0.848958 0.10211 0.11455
H_ H_ 0.111953 0.827138 0.212017 0.11455
H_ H_ 0.0224682 0.824458 0.206413 0.11455
H_ H_ 0.0396241 0.855506 0.114007 0.11455
H_ H_ 0.387534 0.983949 0.188811 0.11455
H_ H_ 0.376943 0.558093 0.0936424 0.11455
H_ H_ 0.35643 0.985057 0.099286 0.11455
H_ H_ 0.37463 0.570105 0.210537 0.11455
H_ H_ 0.362729 0.662395 0.206934 0.11455
H_ H_ 0.366125 0.648599 0.116017 0.11455
H_ H_ 0.419242 0.897071 0.213733 0.11455
H_ H_ 0.415938 0.935574 0.257593 0.11455
H_ H_ 0.382447 0.891952 0.298616 0.11455
H_ H_ 0.306667 0.757677 0.219436 0.11455
H_ H_ 0.27056 0.710846 0.261494 0.11455
H_ H_ 0.296054 0.727385 0.309827 0.11455
H_ H_ 0.490411 0.79428 0.362971 0.11455
H_ H_ 0.504261 0.788568 0.414192 0.11455
H_ H_ 0.240952 0.846385 0.386571 0.11455
H_ H_ 0.260497 0.845536 0.439116 0.11455
H_ H_ 0.459346 0.890599 0.494503 0.11455
H_ H_ 0.436874 0.955149 0.0432612 0.11455
H_ H_ 0.428473 0.89833 0.0821415 0.11455
H_ H_ 0.352388 0.753062 0.00723012 0.11455
H_ H_ 0.309035 0.716576 0.0478851 0.11455
H_ H_ 0.32445 0.750553 0.0940085 0.11455
C_ C_ 0.234487 0.686247 0.402696 0.68181
C_ C_ 0.289451 0.686202 0.398425 -0.05681
C_ C_ 0.322916 0.681214 0.421437 -0.08735
C_ C_ 0.37708 0.680261 0.417397 -0.05681
C_ C_ 0.395973 0.677427 0.389597 -0.05681
C_ C_ 0.361987 0.670475 0.365586 -0.08735
C_ C_ 0.309769 0.676522 0.369957 -0.08735
C_ C_ 0.409056 0.681355 0.44139 -0.08735
C_ C_ 0.461826 0.680107 0.437435 -0.08735
C_ C_ 0.482832 0.67938 0.409623 -0.05681
C_ C_ 0.449498 0.679944 0.385587 -0.08735
C_ C_ 0.130016 0.780699 0.412412 0.68181
C_ C_ 0.131851 0.580389 0.397875 0.68181
C_ C_ 0.134352 0.524171 0.396044 -0.05681
C_ C_ 0.142451 0.996329 0.426894 -0.08735
C_ C_ 0.136381 0.943791 0.423763 -0.05681
C_ C_ 0.130586 0.920294 0.396456 -0.05681
C_ C_ 0.133158 0.949894 0.371938 -0.08735
C_ C_ 0.137096 1.00144044 0.374247 -0.08735
C_ C_ 0.135398 0.912009 0.447891 -0.08735
C_ C_ 0.130642 0.859694 0.444889 -0.08735
C_ C_ 0.124726 0.837706 0.417019 -0.05681
C_ C_ 0.123573 0.869153 0.39314 -0.08735
C_ C_ 0.0365394 0.671945 0.408679 0.68181
C_ C_ 0.108364 0.607803 0.481559 0.1947
C_ C_ 0.114181 0.607893 0.0120109 -0.08735
C_ C_ 0.132998 0.63641 0.0341579 -0.08735
C_ C_ 0.15943 0.681545 0.027895 -0.05681
C_ C_ 0.165324 0.697606 0.999201 0.18498
C_ C_ 0.186778 0.721239 0.49043 -0.08735
C_ C_ 0.213631 0.770587 0.0142218 -0.08735
C_ C_ 0.201371 0.760324 0.0417318 -0.08735
C_ C_ 0.175397 0.71627 0.04946 0.18498
C_ C_ 0.204309 0.698156 0.0980412 0.44287
C_ C_ 0.116811 0.718164 0.0900282 0.44287
C_ C_ 0.105038 0.710454 0.120276 -0.05681
C_ C_ 0.0566143 0.709089 0.132176 -0.08735
C_ C_ 0.0504161 0.704723 0.16293 -0.08735
C_ C_ 0.0905554 0.69879 0.181726 -0.05681
C_ C_ 0.139183 0.694049 0.169212 -0.05681
C_ C_ 0.146073 0.699969 0.138292 -0.05681
C_ C_ 0.196765 0.701128 0.128354 -0.05681
C_ C_ 0.238244 0.692971 0.146704 -0.08735
C_ C_ 0.230233 0.692092 0.176034 -0.08735
C_ C_ 0.179498 0.688083 0.186987 -0.05681
C_ C_ 0.172437 0.678958 0.216303 0.44287
C_ C_ 0.0845555 0.698205 0.211768 0.44287
C_ C_ 0.119943 0.668228 0.258095 0.18498
C_ C_ 0.104007 0.617727 0.262195 -0.08735
C_ C_ 0.0942435 0.599013 0.289782 -0.08735
C_ C_ 0.0985767 0.630739 0.314371 -0.08735
C_ C_ 0.118275 0.680547 0.311001 0.18498
C_ C_ 0.128226 0.700077 0.281542 -0.05681
C_ C_ 0.157492 0.742943 0.278279 -0.08735
C_ C_ 0.180236 0.765948 0.302767 -0.08735
C_ C_ 0.168561 0.747948 0.329576 0.1947
C_ C_ 0.269236 0.826846 0.150794 0.68181
C_ C_ 0.21512 0.836829 0.147022 -0.05681
C_ C_ 0.185315 0.83915 0.171464 -0.08735
C_ C_ 0.131096 0.843539 0.167377 -0.05681
C_ C_ 0.108691 0.848314 0.139781 -0.05681
C_ C_ 0.143331 0.85996 0.117051 -0.08735
C_ C_ 0.194494 0.846646 0.120509 -0.08735
C_ C_ 0.0988548 0.835936 0.190498 -0.08735
C_ C_ 0.0463526 0.834639 0.187657 -0.08735
C_ C_ 0.0231581 0.841888 0.159943 -0.05681
C_ C_ 0.0544635 0.848435 0.135453 -0.08735
C_ C_ 0.371052 0.723368 0.159944 0.68181
C_ C_ 0.367439 0.920887 0.145043 0.68181
C_ C_ 0.374391 0.977197 0.143698 -0.05681
C_ C_ 0.363155 0.504116 0.16991 -0.08735
C_ C_ 0.370888 0.556108 0.166467 -0.05681
C_ C_ 0.373354 0.577707 0.139181 -0.05681
C_ C_ 0.375406 0.546008 0.115518 -0.08735
C_ C_ 0.365826 0.0038545 0.118425 -0.08735
C_ C_ 0.368191 0.587681 0.190212 -0.08735
C_ C_ 0.36525 0.640123 0.187917 -0.08735
C_ C_ 0.36728 0.66331 0.160346 -0.05681
C_ C_ 0.373627 0.632343 0.136328 -0.08735
C_ C_ 0.466935 0.821484 0.154941 0.68181
C_ C_ 0.395038 0.880378 0.228938 0.1947
C_ C_ 0.398058 0.900148 0.255918 -0.08735
C_ C_ 0.37878 0.873292 0.278876 -0.08735
C_ C_ 0.355149 0.826776 0.27544 -0.05681
C_ C_ 0.343062 0.811666 0.246852 0.18498
C_ C_ 0.315169 0.767111 0.242022 -0.08735
C_ C_ 0.297194 0.740355 0.26442 -0.08735
C_ C_ 0.309591 0.750943 0.292573 -0.08735
C_ C_ 0.338327 0.795507 0.299295 0.18498
C_ C_ 0.313796 0.828071 0.344236 0.44287
C_ C_ 0.39866 0.805896 0.336959 0.44287
C_ C_ 0.410198 0.810535 0.366284 -0.05681
C_ C_ 0.458597 0.798886 0.377196 -0.08735
C_ C_ 0.468842 0.802232 0.406533 -0.08735
C_ C_ 0.427811 0.806966 0.426286 -0.05681
C_ C_ 0.378893 0.820419 0.415426 -0.05681
C_ C_ 0.369523 0.820611 0.385326 -0.05681
C_ C_ 0.320569 0.831113 0.374456 -0.05681
C_ C_ 0.280856 0.843568 0.394337 -0.08735
C_ C_ 0.291475 0.840845 0.423694 -0.08735
C_ C_ 0.339093 0.827259 0.434949 -0.05681
C_ C_ 0.349743 0.82604 0.464228 0.44287
C_ C_ 0.433459 0.803816 0.456588 0.44287
C_ C_ 0.396224 0.848613 0.00566771 0.18498
C_ C_ 0.420085 0.894945 0.0105549 -0.08735
C_ C_ 0.423203 0.916029 0.0384752 -0.08735
C_ C_ 0.413453 0.884102 0.0617337 -0.08735
C_ C_ 0.392929 0.835944 0.0579143 0.18498
C_ C_ 0.380812 0.819315 0.0298491 -0.05681
C_ C_ 0.355742 0.772418 0.0271867 -0.08735
C_ C_ 0.336471 0.746637 0.0505005 -0.08735
C_ C_ 0.344229 0.767145 0.0775622 0.1947
N_ N_ 0.139219 0.648432 0.475476 -0.29468
N_ N_ 0.165636 0.708823 0.0790932 -0.17154
N_ N_ 0.125808 0.683609 0.22844 -0.17154
N_ N_ 0.138819 0.705924 0.333972 -0.29468
N_ N_ 0.366228 0.836954 0.223849 -0.29468
N_ N_ 0.350748 0.810076 0.327345 -0.17154
N_ N_ 0.39647 0.818296 0.474362 -0.17154
N_ N_ 0.376366 0.807624 0.0806355 -0.29468
O_ O_ 0.214932 0.672255 0.426391 -0.58347
O_ O_ 0.204781 0.694079 0.382218 -0.58347
O_ O_ 0.142598 0.752261 0.432658 -0.58347
O_ O_ 0.121757 0.762098 0.387192 -0.58347
O_ O_ 0.130507 0.60013 0.423363 -0.58347
O_ O_ 0.142655 0.609889 0.376657 -0.58347
O_ O_ 0.0650691 0.674685 0.430545 -0.58347
O_ O_ 0.0548612 0.679523 0.383951 -0.58347
O_ O_ 0.0816478 0.735563 0.0722824 -0.46727
O_ O_ 0.246088 0.683308 0.0873053 -0.46727
O_ O_ 0.0389228 0.687427 0.22176 -0.46727
O_ O_ 0.209811 0.667704 0.233071 -0.46727
O_ O_ 0.290737 0.825476 0.175676 -0.58347
O_ O_ 0.297189 0.820642 0.128365 -0.58347
O_ O_ 0.365642 0.748219 0.182552 -0.58347
O_ O_ 0.373424 0.74622 0.13642 -0.58347
O_ O_ 0.362026 0.90021 0.169405 -0.58347
O_ O_ 0.378552 0.895361 0.12449 -0.58347
O_ O_ 0.439736 0.824768 0.177753 -0.58347
O_ O_ 0.447546 0.814121 0.130583 -0.58347
O_ O_ 0.436622 0.792218 0.320131 -0.46727
O_ O_ 0.268935 0.837007 0.333587 -0.46727
O_ O_ 0.480079 0.794777 0.467054 -0.46727
O_ O_ 0.315903 0.845001 0.482255 -0.46727
Zn Zn 0.129642 0.693185 0.880374 0.90689
Zn Zn 0.141386 0.685797 0.929452 0.90689
Zn Zn 0.380094 0.804618 0.627747 0.90689
Zn Zn 0.362019 0.81446 0.675671 0.90689
H_ H_ 0.301714 0.702749 0.939513 0.11455
H_ H_ 0.371597 0.651582 0.845164 0.11455
H_ H_ 0.277539 0.667264 0.851881 0.11455
H_ H_ 0.387963 0.684022 0.961034 0.11455
H_ H_ 0.474413 0.697425 0.955462 0.11455
H_ H_ 0.46077 0.65346 0.864684 0.11455
H_ H_ 0.156395 0.514221 0.942137 0.11455
H_ H_ 0.118844 0.943491 0.845684 0.11455
H_ H_ 0.131423 0.531485 0.85245 0.11455
H_ H_ 0.160978 0.934947 0.961076 0.11455
H_ H_ 0.152527 0.84433 0.955108 0.11455
H_ H_ 0.103627 0.86143 0.869078 0.11455
H_ H_ 0.0892844 0.612128 0.968493 0.11455
H_ H_ 0.0974768 0.550803 0.514848 0.11455
H_ H_ 0.122152 0.605602 0.55514 0.11455
H_ H_ 0.203159 0.75058 0.971715 0.11455
H_ H_ 0.222059 0.787746 0.507207 0.11455
H_ H_ 0.182508 0.776133 0.557508 0.11455
H_ H_ 1.0104482 0.711393 0.622744 0.11455
H_ H_ 1.00204 0.690486 0.673119 0.11455
H_ H_ 0.26255 0.672882 0.637398 0.11455
H_ H_ 0.256382 0.678345 0.687474 0.11455
H_ H_ 0.0731247 0.59715 0.748426 0.11455
H_ H_ 0.0483617 0.580298 0.798746 0.11455
H_ H_ 0.0806197 0.628689 0.837686 0.11455
H_ H_ 0.166807 0.757427 0.757286 0.11455
H_ H_ 0.196445 0.804138 0.799213 0.11455
H_ H_ 0.174879 0.777989 0.849016 0.11455
H_ H_ 0.203348 0.806355 0.695207 0.11455
H_ H_ 0.123723 0.8177 0.595191 0.11455
H_ H_ 0.218166 0.808067 0.600571 0.11455
H_ H_ 0.115846 0.801734 0.713213 0.11455
H_ H_ 0.0255619 0.810143 0.707649 0.11455
H_ H_ 0.039777 0.809138 0.618463 0.11455
H_ H_ 0.334937 0.979544 0.6859 0.11455
H_ H_ 0.34576 0.559243 0.59792 0.11455
H_ H_ 0.428672 0.963506 0.611474 0.11455
H_ H_ 0.412897 0.563259 0.709959 0.11455
H_ H_ 0.404492 0.658978 0.707043 0.11455
H_ H_ 0.35207 0.637022 0.621201 0.11455
H_ H_ 0.392853 0.903852 0.712649 0.11455
H_ H_ 0.40703 0.931991 0.76065 0.11455
H_ H_ 0.382474 0.881322 0.801065 0.11455
H_ H_ 0.317139 0.744181 0.720008 0.11455
H_ H_ 0.298416 0.68658 0.762229 0.11455
H_ H_ 0.312125 0.715457 0.811386 0.11455
H_ H_ 0.493324 0.791453 0.870361 0.11455
H_ H_ 0.505347 0.800959 0.923084 0.11455
H_ H_ 0.241485 0.827428 0.881705 0.11455
H_ H_ 0.25463 0.854048 0.934009 0.11455
H_ H_ 0.431102 0.914544 0.991666 0.11455
H_ H_ 0.47059 0.914837 0.542169 0.11455
H_ H_ 0.446546 0.856463 0.581621 0.11455
H_ H_ 0.345392 0.744229 0.503157 0.11455
H_ H_ 0.293384 0.716454 0.545406 0.11455
H_ H_ 0.311163 0.747197 0.592186 0.11455
C_ C_ 0.228792 0.682866 0.901224 0.68181
C_ C_ 0.283969 0.679677 0.897018 -0.05681
C_ C_ 0.316918 0.688693 0.91987 -0.08735
C_ C_ 0.369432 0.677843 0.916414 -0.05681
C_ C_ 0.389605 0.664806 0.889751 -0.05681
C_ C_ 0.355692 0.658953 0.866405 -0.08735
C_ C_ 0.303923 0.665562 0.870216 -0.08735
C_ C_ 0.402376 0.675719 0.940186 -0.08735
C_ C_ 0.453947 0.685302 0.936752 -0.08735
C_ C_ 0.475388 0.67428 0.910928 -0.05681
C_ C_ 0.444154 0.665213 0.885599 -0.08735
C_ C_ 0.128366 0.788318 0.910238 0.68181
C_ C_ 0.136192 0.588125 0.900499 0.68181
C_ C_ 0.133194 0.529999 0.897751 -0.05681
C_ C_ 0.134397 1.00421539 0.923108 -0.08735
C_ C_ 0.135857 0.95211 0.919119 -0.05681
C_ C_ 0.126681 0.931489 0.891112 -0.05681
C_ C_ 0.122096 0.96304 0.867745 -0.08735
C_ C_ 0.131016 0.0144133 0.87135 -0.08735
C_ C_ 0.147232 0.919875 0.941325 -0.08735
C_ C_ 0.144647 0.868413 0.938075 -0.08735
C_ C_ 0.12704 0.846217 0.91249 -0.05681
C_ C_ 0.115047 0.877867 0.888839 -0.08735
C_ C_ 0.0353645 0.691689 0.909589 0.68181
C_ C_ 0.113269 0.628304 0.984119 0.1947
C_ C_ 0.111379 0.588766 0.50971 -0.08735
C_ C_ 0.129115 0.618099 0.532489 -0.08735
C_ C_ 0.146636 0.66644 0.527677 -0.05681
C_ C_ 0.157345 0.677949 0.497564 0.18498
C_ C_ 0.194315 0.740122 0.992782 -0.08735
C_ C_ 0.197981 0.755024 0.512731 -0.08735
C_ C_ 0.179811 0.747783 0.541595 -0.08735
C_ C_ 0.156713 0.702225 0.549269 0.18498
C_ C_ 0.187891 0.682508 0.595532 0.44287
C_ C_ 0.0984624 0.694657 0.590421 0.44287
C_ C_ 0.0906486 0.688639 0.620479 -0.05681
C_ C_ 0.0437712 0.694732 0.633306 -0.08735
C_ C_ 0.0381871 0.693519 0.663062 -0.08735
C_ C_ 0.0814202 0.689015 0.681523 -0.05681
C_ C_ 0.128791 0.688047 0.669015 -0.05681
C_ C_ 0.132921 0.684068 0.638143 -0.05681
C_ C_ 0.183476 0.679214 0.625938 -0.05681
C_ C_ 0.227129 0.673655 0.644755 -0.08735
C_ C_ 0.220845 0.675399 0.674688 -0.08735
C_ C_ 0.171793 0.680011 0.687167 -0.05681
C_ C_ 0.164482 0.673271 0.717237 0.44287
C_ C_ 0.0771037 0.684581 0.711808 0.44287
C_ C_ 0.111658 0.665936 0.759943 0.18498
C_ C_ 0.0852128 0.621812 0.764829 -0.08735
C_ C_ 0.0733068 0.609209 0.793206 -0.08735
C_ C_ 0.0922708 0.638396 0.815803 -0.08735
C_ C_ 0.12163 0.682252 0.811457 0.18498
C_ C_ 0.130432 0.698426 0.782844 -0.05681
C_ C_ 0.153964 0.745283 0.778207 -0.08735
C_ C_ 0.171261 0.772083 0.801505 -0.08735
C_ C_ 0.158489 0.756752 0.829926 0.1947
C_ C_ 0.273759 0.80478 0.649649 0.68181
C_ C_ 0.216425 0.806608 0.64775 -0.05681
C_ C_ 0.186361 0.812249 0.672735 -0.08735
C_ C_ 0.13309 0.813982 0.669324 -0.05681
C_ C_ 0.11224 0.817081 0.641026 -0.05681
C_ C_ 0.142641 0.814191 0.616452 -0.08735
C_ C_ 0.195387 0.806503 0.620235 -0.08735
C_ C_ 0.101378 0.81113 0.692948 -0.08735
C_ C_ 0.0497143 0.817481 0.68949 -0.08735
C_ C_ 0.0282038 0.817564 0.662448 -0.05681
C_ C_ 0.0585301 0.817363 0.637718 -0.08735
C_ C_ 0.374812 0.710973 0.658855 0.68181
C_ C_ 0.368583 0.909393 0.646657 0.68181
C_ C_ 0.377696 0.965651 0.646879 -0.05681
C_ C_ 0.380205 0.497324 0.669205 -0.08735
C_ C_ 0.378247 0.550818 0.6675 -0.05681
C_ C_ 0.355268 0.572451 0.643837 -0.05681
C_ C_ 0.348733 0.541788 0.619106 -0.08735
C_ C_ 0.412592 0.988245 0.627084 -0.08735
C_ C_ 0.395878 0.581184 0.690984 -0.08735
C_ C_ 0.387938 0.634001 0.690375 -0.08735
C_ C_ 0.372594 0.655938 0.663799 -0.05681
C_ C_ 0.358063 0.623203 0.641709 -0.08735
C_ C_ 0.468221 0.818606 0.655864 0.68181
C_ C_ 0.386968 0.87807 0.730286 0.1947
C_ C_ 0.389493 0.895846 0.757466 -0.08735
C_ C_ 0.376554 0.865692 0.780705 -0.08735
C_ C_ 0.3613 0.816664 0.776929 -0.05681
C_ C_ 0.355116 0.799481 0.747824 0.18498
C_ C_ 0.330438 0.75289 0.742712 -0.08735
C_ C_ 0.316033 0.721281 0.766473 -0.08735
C_ C_ 0.323802 0.737653 0.794731 -0.08735
C_ C_ 0.347892 0.784632 0.799781 0.18498
C_ C_ 0.316035 0.818402 0.844589 0.44287
C_ C_ 0.403332 0.795297 0.840366 0.44287
C_ C_ 0.412212 0.806536 0.870533 -0.05681
C_ C_ 0.459113 0.796495 0.88282 -0.08735
C_ C_ 0.46596 0.802059 0.912394 -0.08735
C_ C_ 0.423825 0.808238 0.930834 -0.05681
C_ C_ 0.375003 0.819299 0.917649 -0.05681
C_ C_ 0.369316 0.819644 0.887241 -0.05681
C_ C_ 0.321625 0.826154 0.874255 -0.05681
C_ C_ 0.280454 0.833629 0.891624 -0.08735
C_ C_ 0.285623 0.838413 0.922073 -0.08735
C_ C_ 0.334285 0.829895 0.934993 -0.05681
C_ C_ 0.339958 0.834809 0.964968 0.44287
C_ C_ 0.428174 0.814685 0.96161 0.44287
C_ C_ 0.408765 0.827302 0.504473 0.18498
C_ C_ 0.438595 0.870456 0.511195 -0.08735
C_ C_ 0.446272 0.885085 0.538788 -0.08735
C_ C_ 0.432505 0.850923 0.561444 -0.08735
C_ C_ 0.392674 0.820097 0.556987 0.18498
C_ C_ 0.385204 0.801206 0.528204 -0.05681
C_ C_ 0.350404 0.76186 0.524022 -0.08735
C_ C_ 0.325163 0.742246 0.547873 -0.08735
C_ C_ 0.33679 0.758949 0.575449 0.1947
N_ N_ 0.142757 0.670293 0.977616 -0.29468
N_ N_ 0.146089 0.690521 0.57854 -0.17154
N_ N_ 0.118746 0.681897 0.730014 -0.17154
N_ N_ 0.129958 0.714554 0.833428 -0.29468
N_ N_ 0.366978 0.830801 0.725642 -0.29468
N_ N_ 0.356472 0.801002 0.828783 -0.17154
N_ N_ 0.387948 0.830508 0.977707 -0.17154
N_ N_ 0.374302 0.792445 0.57983 -0.29468
O_ O_ 0.212839 0.6812 0.927012 -0.58347
O_ O_ 0.202916 0.702984 0.881297 -0.58347
O_ O_ 0.142053 0.761227 0.931146 -0.58347
O_ O_ 0.118405 0.766781 0.88596 -0.58347
O_ O_ 0.13779 0.606608 0.924246 -0.58347
O_ O_ 0.135322 0.618739 0.879023 -0.58347
O_ O_ 0.067972 0.689468 0.930425 -0.58347
O_ O_ 0.0518216 0.68491 0.884966 -0.58347
O_ O_ 0.0580291 0.699805 0.575176 -0.46727
O_ O_ 0.233372 0.687414 0.583645 -0.46727
O_ O_ 0.0321678 0.69015 0.723286 -0.46727
O_ O_ 0.204677 0.665948 0.73384 -0.46727
O_ O_ 0.291957 0.798609 0.673691 -0.58347
O_ O_ 0.302129 0.810337 0.627767 -0.58347
O_ O_ 0.37743 0.739238 0.68068 -0.58347
O_ O_ 0.367828 0.730901 0.63443 -0.58347
O_ O_ 0.345192 0.888314 0.667712 -0.58347
O_ O_ 0.384331 0.882751 0.625028 -0.58347
O_ O_ 0.436486 0.833943 0.673618 -0.58347
O_ O_ 0.454041 0.795621 0.633132 -0.58347
O_ O_ 0.440788 0.785878 0.823392 -0.46727
O_ O_ 0.27084 0.82085 0.834073 -0.46727
O_ O_ 0.4748 0.812125 0.973147 -0.46727
O_ O_ 0.301636 0.848692 0.980361 -0.46727
Zn Zn 0.62649 0.180063 0.381872 0.90689
Zn Zn 0.639153 0.175221 0.43115 0.90689
Zn Zn 0.873449 0.314603 0.132368 0.90689
Zn Zn 0.865638 0.326514 0.17869 0.90689
H_ H_ 0.803433 0.193208 0.448775 0.11455
H_ H_ 0.876477 0.181284 0.350562 0.11455
H_ H_ 0.784296 0.202176 0.360179 0.11455
H_ H_ 0.890058 0.194681 0.469224 0.11455
H_ H_ 0.981051 0.192585 0.463426 0.11455
H_ H_ 0.964726 0.174878 0.372584 0.11455
H_ H_ 0.632407 0.00410815 0.44337 0.11455
H_ H_ 0.627364 0.429253 0.344621 0.11455
H_ H_ 0.647646 0.018775 0.35252 0.11455
H_ H_ 0.61781 0.427033 0.463287 0.11455
H_ H_ 0.603555 0.339441 0.460417 0.11455
H_ H_ 0.626045 0.343801 0.369685 0.11455
H_ H_ 0.578194 0.102118 0.464581 0.11455
H_ H_ 0.598827 0.0580679 0.00984736 0.11455
H_ H_ 0.618819 0.111812 0.0521627 0.11455
H_ H_ 0.702762 0.224794 0.477647 0.11455
H_ H_ 0.709319 0.305083 0.0113175 0.11455
H_ H_ 0.684133 0.283368 0.0602802 0.11455
H_ H_ 0.509309 0.202688 0.119466 0.11455
H_ H_ 0.501641 0.19512 0.170801 0.11455
H_ H_ 0.764812 0.164634 0.13632 0.11455
H_ H_ 0.750545 0.143229 0.188547 0.11455
H_ H_ 0.561371 0.0954124 0.245911 0.11455
H_ H_ 0.543187 0.0701404 0.293878 0.11455
H_ H_ 0.580032 0.116058 0.335825 0.11455
H_ H_ 0.67027 0.243811 0.257076 0.11455
H_ H_ 0.701542 0.284347 0.301297 0.11455
H_ H_ 0.673056 0.258049 0.34737 0.11455
H_ H_ 0.700446 0.306286 0.198682 0.11455
H_ H_ 0.630049 0.326396 0.101663 0.11455
H_ H_ 0.720421 0.327924 0.10667 0.11455
H_ H_ 0.612689 0.310187 0.218517 0.11455
H_ H_ 0.524597 0.318429 0.212853 0.11455
H_ H_ 0.543809 0.329954 0.121542 0.11455
H_ H_ 0.86521 0.489814 0.192307 0.11455
H_ H_ 0.834741 0.0765555 0.103226 0.11455
H_ H_ 0.857233 0.478922 0.100557 0.11455
H_ H_ 0.897187 0.0773569 0.217707 0.11455
H_ H_ 0.909387 0.168773 0.210482 0.11455
H_ H_ 0.862713 0.15502 0.123505 0.11455
H_ H_ 0.918777 0.39555 0.216525 0.11455
H_ H_ 0.936683 0.420751 0.265942 0.11455
H_ H_ 0.901062 0.373149 0.305817 0.11455
H_ H_ 0.800079 0.261609 0.221878 0.11455
H_ H_ 0.766628 0.204924 0.260716 0.11455
H_ H_ 0.792592 0.223887 0.311061 0.11455
H_ H_ 0.979631 0.301768 0.374422 0.11455
H_ H_ -0.006824000000000052 0.305089 0.427644 0.11455
H_ H_ 0.727354 0.325464 0.391646 0.11455
H_ H_ 0.741442 0.334301 0.442264 0.11455
H_ H_ 0.919719 0.402487 0.500527 0.11455
H_ H_ 0.937946 0.449072 0.0452929 0.11455
H_ H_ 0.909132 0.400777 0.0879238 0.11455
H_ H_ 0.850456 0.250855 0.0106197 0.11455
H_ H_ 0.81144 0.207874 0.0513176 0.11455
H_ H_ 0.820806 0.242423 0.0992138 0.11455
C_ C_ 0.730797 0.178052 0.40681 0.68181
C_ C_ 0.786602 0.182794 0.403336 -0.05681
C_ C_ 0.820096 0.186444 0.426947 -0.08735
C_ C_ 0.872909 0.187458 0.424191 -0.05681
C_ C_ 0.893287 0.184036 0.396037 -0.05681
C_ C_ 0.861896 0.184102 0.372645 -0.08735
C_ C_ 0.809327 0.188865 0.376487 -0.08735
C_ C_ 0.905587 0.189799 0.44824 -0.08735
C_ C_ 0.957038 0.182353 0.445834 -0.08735
C_ C_ 0.97816 0.178269 0.417377 -0.05681
C_ C_ 0.946725 0.178538 0.393211 -0.08735
C_ C_ 0.627102 0.277833 0.411967 0.68181
C_ C_ 0.635848 0.0769089 0.40142 0.68181
C_ C_ 0.630382 0.0191593 0.39905 -0.05681
C_ C_ 0.629609 0.49286 0.420424 -0.08735
C_ C_ 0.619824 0.440417 0.418415 -0.05681
C_ C_ 0.6219 0.415803 0.39098 -0.05681
C_ C_ 0.627027 0.446107 0.365782 -0.08735
C_ C_ 0.637273 0.499338 0.368764 -0.08735
C_ C_ 0.61372 0.411138 0.443496 -0.08735
C_ C_ 0.609254 0.35871 0.440708 -0.08735
C_ C_ 0.615942 0.333131 0.414225 -0.05681
C_ C_ 0.621024 0.363423 0.38988 -0.08735
C_ C_ 0.534541 0.182418 0.407423 0.68181
C_ C_ 0.594384 0.120252 0.482956 0.1947
C_ C_ 0.606741 0.0986471 0.00818764 -0.08735
C_ C_ 0.625429 0.126513 0.0312955 -0.08735
C_ C_ 0.6388 0.178712 0.0271076 -0.05681
C_ C_ 0.647438 0.195625 0.998258 0.18498
C_ C_ 0.686987 0.220838 0.498354 -0.08735
C_ C_ 0.684452 0.275071 0.0153266 -0.08735
C_ C_ 0.676335 0.258973 0.0433296 -0.08735
C_ C_ 0.656803 0.210663 0.0498704 0.18498
C_ C_ 0.688972 0.180346 0.0957571 0.44287
C_ C_ 0.600392 0.196207 0.0905473 0.44287
C_ C_ 0.594369 0.1911 0.120766 -0.05681
C_ C_ 0.54497 0.197397 0.132989 -0.08735
C_ C_ 0.538918 0.195456 0.163193 -0.08735
C_ C_ 0.583048 0.188605 0.180934 -0.05681
C_ C_ 0.629608 0.173606 0.168565 -0.05681
C_ C_ 0.636992 0.182769 0.138811 -0.05681
C_ C_ 0.685609 0.175517 0.125711 -0.05681
C_ C_ 0.727125 0.165721 0.143659 -0.08735
C_ C_ 0.718886 0.154415 0.173862 -0.08735
C_ C_ 0.671245 0.164342 0.186491 -0.05681
C_ C_ 0.661206 0.16279 0.216928 0.44287
C_ C_ 0.576294 0.187159 0.210971 0.44287
C_ C_ 0.604347 0.165295 0.257806 0.18498
C_ C_ 0.57847 0.118998 0.262705 -0.08735
C_ C_ 0.565898 0.104449 0.290603 -0.08735
C_ C_ 0.587261 0.12822 0.313633 -0.08735
C_ C_ 0.619801 0.169016 0.30958 0.18498
C_ C_ 0.62856 0.189447 0.281633 -0.05681
C_ C_ 0.661966 0.231118 0.278702 -0.08735
C_ C_ 0.679778 0.25208 0.302656 -0.08735
C_ C_ 0.664857 0.237789 0.329778 0.1947
C_ C_ 0.772467 0.325213 0.15597 0.68181
C_ C_ 0.716846 0.319599 0.153807 -0.05681
C_ C_ 0.683806 0.311915 0.177532 -0.08735
C_ C_ 0.630988 0.315971 0.174198 -0.05681
C_ C_ 0.61054 0.319696 0.146325 -0.05681
C_ C_ 0.644858 0.323037 0.123287 -0.08735
C_ C_ 0.696679 0.323714 0.126195 -0.08735
C_ C_ 0.597051 0.31429 0.197049 -0.08735
C_ C_ 0.546098 0.317599 0.193014 -0.08735
C_ C_ 0.524171 0.322604 0.16535 -0.05681
C_ C_ 0.557792 0.3235 0.142177 -0.08735
C_ C_ 0.883165 0.226312 0.163186 0.68181
C_ C_ 0.870089 0.421728 0.148189 0.68181
C_ C_ 0.866685 0.478653 0.145569 -0.05681
C_ C_ 0.863222 0.0106752 0.175616 -0.08735
C_ C_ 0.867015 0.0625609 0.173658 -0.05681
C_ C_ 0.858591 0.0871054 0.146981 -0.05681
C_ C_ 0.842266 0.0587613 0.123652 -0.08735
C_ C_ 0.861484 0.502041 0.118736 -0.08735
C_ C_ 0.892409 0.090401 0.196025 -0.08735
C_ C_ 0.895418 0.144395 0.193036 -0.08735
C_ C_ 0.880374 0.169529 0.167175 -0.05681
C_ C_ 0.868918 0.13907 0.144255 -0.08735
C_ C_ 0.969131 0.318146 0.157082 0.68181
C_ C_ 0.89803 0.376589 0.233752 0.1947
C_ C_ 0.907239 0.391323 0.261306 -0.08735
C_ C_ 0.885583 0.365053 0.283857 -0.08735
C_ C_ 0.856637 0.322051 0.279837 -0.05681
C_ C_ 0.846596 0.308674 0.24966 0.18498
C_ C_ 0.81186 0.26618 0.243616 -0.08735
C_ C_ 0.790237 0.238627 0.266172 -0.08735
C_ C_ 0.800572 0.251213 0.294948 -0.08735
C_ C_ 0.834431 0.292228 0.302828 0.18498
C_ C_ 0.802677 0.314888 0.350017 0.44287
C_ C_ 0.893005 0.301583 0.344829 0.44287
C_ C_ 0.901326 0.311346 0.374676 -0.05681
C_ C_ 0.948966 0.307817 0.387094 -0.08735
C_ C_ 0.954768 0.309473 0.416322 -0.08735
C_ C_ 0.912289 0.317081 0.433784 -0.05681
C_ C_ 0.8629 0.322672 0.421706 -0.05681
C_ C_ 0.857418 0.319482 0.39205 -0.05681
C_ C_ 0.808593 0.322016 0.380415 -0.05681
C_ C_ 0.766123 0.326815 0.398853 -0.08735
C_ C_ 0.772711 0.330502 0.428337 -0.08735
C_ C_ 0.821465 0.329307 0.44027 -0.05681
C_ C_ 0.829739 0.328598 0.470154 0.44287
C_ C_ 0.915934 0.315205 0.463676 0.44287
C_ C_ 0.880961 0.350889 0.0115094 0.18498
C_ C_ 0.903135 0.398832 0.0162541 -0.08735
C_ C_ 0.913681 0.416088 0.0431098 -0.08735
C_ C_ 0.906684 0.384481 0.0669473 -0.08735
C_ C_ 0.879723 0.337099 0.063537 0.18498
C_ C_ 0.87049 0.31826 0.0348107 -0.05681
C_ C_ 0.854584 0.26711 0.0320637 -0.08735
C_ C_ 0.835209 0.240196 0.0552409 -0.08735
C_ C_ 0.840878 0.260764 0.0825831 0.1947
N_ N_ 0.6284 0.160016 0.479128 -0.29468
N_ N_ 0.647931 0.193963 0.0792207 -0.17154
N_ N_ 0.615936 0.178034 0.22848 -0.17154
N_ N_ 0.636623 0.195793 0.333181 -0.29468
N_ N_ 0.86846 0.334496 0.227712 -0.29468
N_ N_ 0.844589 0.303028 0.333036 -0.17154
N_ N_ 0.8748 0.321929 0.48172 -0.17154
N_ N_ 0.864099 0.306245 0.0863546 -0.29468
O_ O_ 0.713603 0.174761 0.431553 -0.58347
O_ O_ 0.702372 0.18691 0.38533 -0.58347
O_ O_ 0.631061 0.251876 0.434734 -0.58347
O_ O_ 0.620961 0.255676 0.38826 -0.58347
O_ O_ 0.638242 0.0966131 0.425735 -0.58347
O_ O_ 0.636638 0.105499 0.379589 -0.58347
O_ O_ 0.561453 0.180375 0.429199 -0.58347
O_ O_ 0.552206 0.177328 0.383236 -0.58347
O_ O_ 0.562648 0.202126 0.0734117 -0.46727
O_ O_ 0.731762 0.174929 0.0841804 -0.46727
O_ O_ 0.534601 0.20463 0.221592 -0.46727
O_ O_ 0.697455 0.147569 0.233781 -0.46727
O_ O_ 0.793231 0.336922 0.180184 -0.58347
O_ O_ 0.799815 0.304509 0.136908 -0.58347
O_ O_ 0.861046 0.254633 0.181144 -0.58347
O_ O_ 0.891148 0.242514 0.13784 -0.58347
O_ O_ 0.875794 0.402081 0.171644 -0.58347
O_ O_ 0.856281 0.392122 0.128006 -0.58347
O_ O_ 0.940008 0.313184 0.177845 -0.58347
O_ O_ 0.949902 0.325293 0.13255 -0.58347
O_ O_ 0.931305 0.290793 0.328929 -0.46727
O_ O_ 0.756956 0.313905 0.338717 -0.46727
O_ O_ 0.960578 0.306776 0.474654 -0.46727
O_ O_ 0.788303 0.331945 0.487031 -0.46727
Zn Zn 0.619133 0.193496 0.881747 0.90689
Zn Zn 0.625671 0.181662 0.930658 0.90689
Zn Zn 0.878814 0.303086 0.633337 0.90689
Zn Zn 0.865268 0.310881 0.680961 0.90689
H_ H_ 0.79072 0.18565 0.942286 0.11455
H_ H_ 0.865588 0.167636 0.844901 0.11455
H_ H_ 0.772184 0.18622 0.853541 0.11455
H_ H_ 0.885512 0.19105 0.962856 0.11455
H_ H_ 0.974268 0.193801 0.954938 0.11455
H_ H_ 0.947289 0.164122 0.865873 0.11455
H_ H_ 0.596213 0.0178628 0.939537 0.11455
H_ H_ 0.647411 0.437257 0.851735 0.11455
H_ H_ 0.637447 0.0293344 0.851226 0.11455
H_ H_ 0.583856 0.437995 0.963034 0.11455
H_ H_ 0.589644 0.34778 0.963221 0.11455
H_ H_ 0.634952 0.355531 0.874244 0.11455
H_ H_ 0.584822 0.102399 0.965912 0.11455
H_ H_ 0.539263 0.0830176 0.511956 0.11455
H_ H_ 0.584795 0.115262 0.555132 0.11455
H_ H_ 0.676617 0.258533 0.971911 0.11455
H_ H_ 0.73245 0.280904 0.516218 0.11455
H_ H_ 0.693142 0.268964 0.565326 0.11455
H_ H_ 0.509027 0.204515 0.622134 0.11455
H_ H_ 0.49195 0.191372 0.670964 0.11455
H_ H_ 0.755233 0.153301 0.644034 0.11455
H_ H_ 0.735525 0.13807 0.694945 0.11455
H_ H_ 0.531696 0.0997733 0.753781 0.11455
H_ H_ 0.506138 0.0902263 0.809126 0.11455
H_ H_ 0.555022 0.135484 0.843644 0.11455
H_ H_ 0.652215 0.241878 0.75496 0.11455
H_ H_ 0.689061 0.288889 0.798041 0.11455
H_ H_ 0.68293 0.254827 0.845157 0.11455
H_ H_ 0.70529 0.31166 0.695522 0.11455
H_ H_ 0.632681 0.310957 0.597953 0.11455
H_ H_ 0.723037 0.297335 0.606376 0.11455
H_ H_ 0.609347 0.310111 0.717177 0.11455
H_ H_ 0.52108 0.326874 0.708066 0.11455
H_ H_ 0.544317 0.316479 0.615764 0.11455
H_ H_ 0.886494 0.476607 0.69171 0.11455
H_ H_ 0.874772 0.050799 0.600157 0.11455
H_ H_ 0.833571 0.466659 0.602189 0.11455
H_ H_ 0.870665 0.0626221 0.718367 0.11455
H_ H_ 0.893446 0.150047 0.712667 0.11455
H_ H_ 0.865312 0.135259 0.621035 0.11455
H_ H_ 0.913621 0.388996 0.71352 0.11455
H_ H_ 0.925215 0.423088 0.764562 0.11455
H_ H_ 0.885553 0.382456 0.806283 0.11455
H_ H_ 0.805118 0.242792 0.726658 0.11455
H_ H_ 0.78023 0.193834 0.768931 0.11455
H_ H_ 0.793322 0.228173 0.816628 0.11455
H_ H_ 0.978597 0.319246 0.872557 0.11455
H_ H_ -0.009835999999999956 0.333688 0.923788 0.11455
H_ H_ 0.726558 0.319786 0.889865 0.11455
H_ H_ 0.737947 0.338267 0.940324 0.11455
H_ H_ 0.915631 0.422476 0.998335 0.11455
H_ H_ 0.95828 0.413715 0.548301 0.11455
H_ H_ 0.936967 0.360556 0.586363 0.11455
H_ H_ 0.835068 0.240018 0.510733 0.11455
H_ H_ 0.817358 0.188778 0.552317 0.11455
H_ H_ 0.839246 0.216344 0.600449 0.11455
C_ C_ 0.720568 0.190704 0.902085 0.68181
C_ C_ 0.774536 0.182712 0.898263 -0.05681
C_ C_ 0.809413 0.190265 0.921924 -0.08735
C_ C_ 0.86138 0.190026 0.917383 -0.05681
C_ C_ 0.881686 0.183515 0.889526 -0.05681
C_ C_ 0.84832 0.175641 0.866165 -0.08735
C_ C_ 0.797025 0.17812 0.87108 -0.08735
C_ C_ 0.896542 0.184854 0.941168 -0.08735
C_ C_ 0.948697 0.19206 0.936842 -0.08735
C_ C_ 0.968353 0.185069 0.909558 -0.05681
C_ C_ 0.935122 0.178871 0.885457 -0.08735
C_ C_ 0.618599 0.288272 0.914629 0.68181
C_ C_ 0.620945 0.0897862 0.898172 0.68181
C_ C_ 0.624518 0.0347986 0.896435 -0.05681
C_ C_ 0.616773 0.503637 0.924128 -0.08735
C_ C_ 0.614258 0.450163 0.921397 -0.05681
C_ C_ 0.628765 0.425727 0.894695 -0.05681
C_ C_ 0.646381 0.455848 0.872344 -0.08735
C_ C_ 0.647999 0.508951 0.87377 -0.08735
C_ C_ 0.600236 0.420413 0.944554 -0.08735
C_ C_ 0.603797 0.367929 0.943797 -0.08735
C_ C_ 0.618324 0.342276 0.918097 -0.05681
C_ C_ 0.631023 0.37377 0.894044 -0.08735
C_ C_ 0.524943 0.182748 0.907677 0.68181
C_ C_ 0.604929 0.121311 0.982224 0.1947
C_ C_ 0.574596 0.108915 0.509962 -0.08735
C_ C_ 0.597819 0.131001 0.535231 -0.08735
C_ C_ 0.633763 0.170848 0.531398 -0.05681
C_ C_ 0.649984 0.183381 0.503037 0.18498
C_ C_ 0.669831 0.242763 0.993149 -0.08735
C_ C_ 0.702771 0.253391 0.521558 -0.08735
C_ C_ 0.68658 0.239822 0.549205 -0.08735
C_ C_ 0.654922 0.198141 0.554889 0.18498
C_ C_ 0.685271 0.17359 0.603028 0.44287
C_ C_ 0.600074 0.197679 0.596051 0.44287
C_ C_ 0.587406 0.186915 0.625232 -0.05681
C_ C_ 0.53975 0.196321 0.635855 -0.08735
C_ C_ 0.530343 0.191222 0.66413 -0.08735
C_ C_ 0.569057 0.181876 0.683848 -0.05681
C_ C_ 0.618166 0.176681 0.674085 -0.05681
C_ C_ 0.627924 0.173916 0.643975 -0.05681
C_ C_ 0.677896 0.172249 0.633348 -0.05681
C_ C_ 0.716164 0.159492 0.651947 -0.08735
C_ C_ 0.706626 0.150979 0.681466 -0.08735
C_ C_ 0.656935 0.158613 0.692182 -0.05681
C_ C_ 0.64573 0.153604 0.722162 0.44287
C_ C_ 0.560025 0.176637 0.713892 0.44287
C_ C_ 0.584991 0.158064 0.763578 0.18498
C_ C_ 0.549317 0.12085 0.771943 -0.08735
C_ C_ 0.531846 0.118576 0.8016 -0.08735
C_ C_ 0.561029 0.143601 0.821633 -0.08735
C_ C_ 0.598827 0.179074 0.813484 0.18498
C_ C_ 0.6099 0.187945 0.783581 -0.05681
C_ C_ 0.645515 0.228941 0.777136 -0.08735
C_ C_ 0.670232 0.251853 0.799841 -0.08735
C_ C_ 0.661151 0.23676 0.827712 0.1947
C_ C_ 0.774889 0.297459 0.655201 0.68181
C_ C_ 0.718822 0.296071 0.651971 -0.05681
C_ C_ 0.686128 0.302507 0.675159 -0.08735
C_ C_ 0.631819 0.310821 0.670337 -0.05681
C_ C_ 0.613681 0.315037 0.642619 -0.05681
C_ C_ 0.647243 0.309724 0.619232 -0.08735
C_ C_ 0.699365 0.304463 0.624446 -0.08735
C_ C_ 0.598702 0.315054 0.69427 -0.08735
C_ C_ 0.546297 0.31859 0.689965 -0.08735
C_ C_ 0.526763 0.323088 0.661527 -0.05681
C_ C_ 0.561365 0.321841 0.637999 -0.08735
C_ C_ 0.880686 0.207493 0.664867 0.68181
C_ C_ 0.855694 0.406416 0.649309 0.68181
C_ C_ 0.857107 0.46411 0.647463 -0.05681
C_ C_ 0.871407 -0.007873000000000019 0.675276 -0.08735
C_ C_ 0.869934 0.0459593 0.673484 -0.05681
C_ C_ 0.871237 0.0689263 0.644931 -0.05681
C_ C_ 0.869191 0.0359907 0.620972 -0.08735
C_ C_ 0.848337 0.488878 0.620868 -0.08735
C_ C_ 0.87773 0.0764015 0.697409 -0.08735
C_ C_ 0.884947 0.128132 0.694809 -0.08735
C_ C_ 0.879943 0.152975 0.667139 -0.05681
C_ C_ 0.872979 0.121604 0.642383 -0.08735
C_ C_ 0.968918 0.321505 0.660543 0.68181
C_ C_ 0.895382 0.372142 0.731953 0.1947
C_ C_ 0.899017 0.393666 0.75972 -0.08735
C_ C_ 0.877023 0.368965 0.783655 -0.08735
C_ C_ 0.850989 0.323305 0.780089 -0.05681
C_ C_ 0.839995 0.306737 0.751566 0.18498
C_ C_ 0.811953 0.259199 0.74797 -0.08735
C_ C_ 0.799009 0.230913 0.772701 -0.08735
C_ C_ 0.813038 0.246639 0.79921 -0.08735
C_ C_ 0.837431 0.293211 0.804449 0.18498
C_ C_ 0.801399 0.316094 0.851009 0.44287
C_ C_ 0.891559 0.315675 0.845919 0.44287
C_ C_ 0.897102 0.32198 0.87492 -0.05681
C_ C_ 0.945012 0.324734 0.886744 -0.08735
C_ C_ 0.953553 0.324644 0.916206 -0.08735
C_ C_ 0.911354 0.322292 0.934591 -0.05681
C_ C_ 0.861124 0.318976 0.922996 -0.05681
C_ C_ 0.85498 0.319231 0.893069 -0.05681
C_ C_ 0.806092 0.315134 0.880569 -0.05681
C_ C_ 0.762138 0.316603 0.89828 -0.08735
C_ C_ 0.768562 0.320263 0.928839 -0.08735
C_ C_ 0.817431 0.321274 0.941161 -0.05681
C_ C_ 0.825475 0.335342 0.970106 0.44287
C_ C_ 0.916505 0.328518 0.964355 0.44287
C_ C_ 0.883165 0.331975 0.511893 0.18498
C_ C_ 0.908627 0.377698 0.517713 -0.08735
C_ C_ 0.929686 0.38616 0.544524 -0.08735
C_ C_ 0.914733 0.357515 0.568094 -0.08735
C_ C_ 0.883276 0.315949 0.563832 0.18498
C_ C_ 0.86899 0.299491 0.535095 -0.05681
C_ C_ 0.843153 0.254363 0.532807 -0.08735
C_ C_ 0.839239 0.222425 0.555128 -0.08735
C_ C_ 0.850411 0.239356 0.583476 0.1947
N_ N_ 0.626622 0.167769 0.976278 -0.29468
N_ N_ 0.646804 0.187546 0.585107 -0.17154
N_ N_ 0.597556 0.160948 0.731984 -0.17154
N_ N_ 0.622757 0.203246 0.834281 -0.29468
N_ N_ 0.865995 0.32864 0.72899 -0.29468
N_ N_ 0.844068 0.311644 0.833572 -0.17154
N_ N_ 0.875438 0.333173 0.982173 -0.17154
N_ N_ 0.874379 0.284717 0.587062 -0.29468
O_ O_ 0.703137 0.193008 0.927246 -0.58347
O_ O_ 0.691858 0.186093 0.880683 -0.58347
O_ O_ 0.613232 0.259685 0.937154 -0.58347
O_ O_ 0.622573 0.268887 0.889891 -0.58347
O_ O_ 0.630225 0.109102 0.922894 -0.58347
O_ O_ 0.619534 0.118966 0.876653 -0.58347
O_ O_ 0.552454 0.176034 0.929391 -0.58347
O_ O_ 0.546042 0.190721 0.884047 -0.58347
O_ O_ 0.566889 0.222201 0.581467 -0.46727
O_ O_ 0.726708 0.155849 0.592023 -0.46727
O_ O_ 0.517468 0.196233 0.724454 -0.46727
O_ O_ 0.68312 0.144246 0.739203 -0.46727
O_ O_ 0.793069 0.30785 0.679069 -0.58347
O_ O_ 0.804267 0.291197 0.633564 -0.58347
O_ O_ 0.871555 0.233082 0.687929 -0.58347
O_ O_ 0.891413 0.229715 0.64156 -0.58347
O_ O_ 0.859606 0.38703 0.673699 -0.58347
O_ O_ 0.868785 0.379794 0.628369 -0.58347
O_ O_ 0.940905 0.317309 0.68233 -0.58347
O_ O_ 0.950017 0.314799 0.635534 -0.58347
O_ O_ 0.931431 0.310905 0.829507 -0.46727
O_ O_ 0.756551 0.322748 0.838911 -0.46727
O_ O_ 0.962768 0.322432 0.975346 -0.46727
O_ O_ 0.788515 0.356006 0.985623 -0.46727
Zn Zn 0.630164 0.681105 0.381416 0.90689
Zn Zn 0.643168 0.672796 0.428379 0.90689
Zn Zn 0.875253 0.822948 0.131718 0.90689
Zn Zn 0.859977 0.829537 0.180499 0.90689
H_ H_ 0.809252 0.699654 0.444245 0.11455
H_ H_ 0.878047 0.671977 0.346026 0.11455
H_ H_ 0.789149 0.66871 0.352413 0.11455
H_ H_ 0.895392 0.701932 0.462534 0.11455
H_ H_ 0.984418 0.685514 0.457788 0.11455
H_ H_ 0.963697 0.655268 0.36727 0.11455
H_ H_ 0.636385 0.50823 0.441651 0.11455
H_ H_ 0.643146 0.927432 0.347259 0.11455
H_ H_ 0.652056 0.520584 0.350646 0.11455
H_ H_ 0.616261 0.92009 0.464654 0.11455
H_ H_ 0.625469 0.828827 0.462101 0.11455
H_ H_ 0.629379 0.843151 0.368111 0.11455
H_ H_ 0.601106 0.58816 0.46654 0.11455
H_ H_ 0.567469 0.581942 0.0167996 0.11455
H_ H_ 0.625777 0.612778 0.0545225 0.11455
H_ H_ 0.709978 0.726261 0.475549 0.11455
H_ H_ 0.701761 0.814234 0.0130644 0.11455
H_ H_ 0.687073 0.787304 0.066455 0.11455
H_ H_ 0.515606 0.702922 0.122416 0.11455
H_ H_ 0.507873 0.68268 0.173691 0.11455
H_ H_ 0.76758 0.701545 0.141605 0.11455
H_ H_ 0.757242 0.683134 0.191885 0.11455
H_ H_ 0.591354 0.571108 0.250411 0.11455
H_ H_ 0.553889 0.556795 0.299388 0.11455
H_ H_ 0.571557 0.61792 0.337778 0.11455
H_ H_ 0.65882 0.743833 0.257263 0.11455
H_ H_ 0.671467 0.803667 0.296109 0.11455
H_ H_ 0.680643 0.75787 0.345981 0.11455
H_ H_ 0.695107 0.806207 0.197882 0.11455
H_ H_ 0.629113 0.842136 0.0995224 0.11455
H_ H_ 0.721293 0.831398 0.107985 0.11455
H_ H_ 0.602188 0.813278 0.215185 0.11455
H_ H_ 0.514833 0.820928 0.204708 0.11455
H_ H_ 0.545505 0.82364 0.115227 0.11455
H_ H_ 0.87193 0.991581 0.194929 0.11455
H_ H_ 0.858596 0.568574 0.0951757 0.11455
H_ H_ 0.827867 0.981796 0.109422 0.11455
H_ H_ 0.863165 0.576903 0.213888 0.11455
H_ H_ 0.864295 0.670801 0.207382 0.11455
H_ H_ 0.876994 0.651016 0.116301 0.11455
H_ H_ 0.921198 0.899961 0.218599 0.11455
H_ H_ 0.940906 0.924706 0.266004 0.11455
H_ H_ 0.904781 0.877368 0.308622 0.11455
H_ H_ 0.811851 0.757726 0.223866 0.11455
H_ H_ 0.782656 0.70834 0.262646 0.11455
H_ H_ 0.800376 0.72732 0.314086 0.11455
H_ H_ 0.985763 0.776728 0.375702 0.11455
H_ H_ 0.00305902 0.795558 0.423965 0.11455
H_ H_ 0.742688 0.831546 0.389964 0.11455
H_ H_ 0.756068 0.831048 0.443629 0.11455
H_ H_ 0.951212 0.894086 0.503875 0.11455
H_ H_ 0.918841 0.962236 0.0486815 0.11455
H_ H_ 0.913442 0.894347 0.0843598 0.11455
H_ H_ 0.848959 0.760401 0.00576951 0.11455
H_ H_ 0.818285 0.708766 0.0456539 0.11455
H_ H_ 0.822982 0.745418 0.0954396 0.11455
C_ C_ 0.735408 0.683766 0.403422 0.68181
C_ C_ 0.791472 0.68609 0.398677 -0.05681
C_ C_ 0.823802 0.684666 0.422465 -0.08735
C_ C_ 0.875729 0.681932 0.418427 -0.05681
C_ C_ 0.896062 0.67395 0.390705 -0.05681
C_ C_ 0.863393 0.673008 0.367006 -0.08735
C_ C_ 0.811289 0.674581 0.371354 -0.08735
C_ C_ 0.908125 0.684849 0.442509 -0.08735
C_ C_ 0.960017 0.679789 0.439556 -0.08735
C_ C_ 0.980281 0.672565 0.412206 -0.05681
C_ C_ 0.947391 0.668783 0.387932 -0.08735
C_ C_ 0.629209 0.772211 0.411252 0.68181
C_ C_ 0.649975 0.579863 0.397476 0.68181
C_ C_ 0.6371 0.522838 0.395217 -0.05681
C_ C_ 0.626565 0.989369 0.423131 -0.08735
C_ C_ 0.626684 0.936138 0.420048 -0.05681
C_ C_ 0.626742 0.91293 0.391327 -0.05681
C_ C_ 0.640001 0.945473 0.368186 -0.08735
C_ C_ 0.634971 0.997798 0.370671 -0.08735
C_ C_ 0.620018 0.904341 0.444137 -0.08735
C_ C_ 0.623752 0.851514 0.441973 -0.08735
C_ C_ 0.627191 0.82854 0.414258 -0.05681
C_ C_ 0.628216 0.858816 0.389545 -0.08735
C_ C_ 0.537681 0.672993 0.403552 0.68181
C_ C_ 0.610288 0.615423 0.483272 0.1947
C_ C_ 0.594816 0.611676 0.0126063 -0.08735
C_ C_ 0.621903 0.634044 0.0348735 -0.08735
C_ C_ 0.647037 0.679793 0.0298456 -0.05681
C_ C_ 0.654095 0.697375 1.00150189 0.18498
C_ C_ 0.691044 0.725769 0.494928 -0.08735
C_ C_ 0.686645 0.778549 0.0185006 -0.08735
C_ C_ 0.675756 0.762751 0.0474793 -0.08735
C_ C_ 0.659494 0.713847 0.0525248 0.18498
C_ C_ 0.693494 0.695183 0.101084 0.44287
C_ C_ 0.603335 0.699948 0.0936177 0.44287
C_ C_ 0.595441 0.690858 0.122399 -0.05681
C_ C_ 0.548645 0.697099 0.135678 -0.08735
C_ C_ 0.544068 0.687566 0.165366 -0.08735
C_ C_ 0.584383 0.676573 0.182745 -0.05681
C_ C_ 0.632352 0.678863 0.171829 -0.05681
C_ C_ 0.6385 0.692031 0.142099 -0.05681
C_ C_ 0.68735 0.691519 0.130988 -0.05681
C_ C_ 0.729264 0.690284 0.148915 -0.08735
C_ C_ 0.723881 0.68662 0.177985 -0.08735
C_ C_ 0.675255 0.673804 0.189258 -0.05681
C_ C_ 0.667327 0.66146 0.218705 0.44287
C_ C_ 0.577606 0.667495 0.212278 0.44287
C_ C_ 0.611186 0.65004 0.259954 0.18498
C_ C_ 0.598724 0.599471 0.267677 -0.08735
C_ C_ 0.577733 0.589516 0.294536 -0.08735
C_ C_ 0.587563 0.623591 0.316719 -0.08735
C_ C_ 0.614735 0.669036 0.310834 0.18498
C_ C_ 0.623954 0.684007 0.281623 -0.05681
C_ C_ 0.64916 0.730726 0.277815 -0.08735
C_ C_ 0.664048 0.761931 0.301301 -0.08735
C_ C_ 0.658442 0.740361 0.328858 0.1947
C_ C_ 0.771601 0.82103 0.158268 0.68181
C_ C_ 0.715656 0.824521 0.154342 -0.05681
C_ C_ 0.679838 0.816693 0.176419 -0.08735
C_ C_ 0.627318 0.821251 0.171342 -0.05681
C_ C_ 0.609126 0.826685 0.143326 -0.05681
C_ C_ 0.645029 0.833488 0.120347 -0.08735
C_ C_ 0.696293 0.829817 0.125289 -0.08735
C_ C_ 0.592098 0.817416 0.192676 -0.08735
C_ C_ 0.540681 0.815961 0.187039 -0.08735
C_ C_ 0.522908 0.822171 0.158969 -0.05681
C_ C_ 0.556758 0.823428 0.136872 -0.08735
C_ C_ 0.877249 0.72506 0.16038 0.68181
C_ C_ 0.852276 0.923452 0.15394 0.68181
C_ C_ 0.850663 0.980526 0.151996 -0.05681
C_ C_ 0.860796 0.508256 0.170548 -0.08735
C_ C_ 0.856297 0.561823 0.168023 -0.05681
C_ C_ 0.85874 0.583366 0.140713 -0.05681
C_ C_ 0.862278 0.553352 0.116877 -0.08735
C_ C_ 0.840319 1.0045857 0.12653 -0.08735
C_ C_ 0.860714 0.593329 0.192145 -0.08735
C_ C_ 0.867972 0.645051 0.18996 -0.08735
C_ C_ 0.872943 0.668371 0.162924 -0.05681
C_ C_ 0.868613 0.636612 0.136772 -0.08735
C_ C_ 0.965086 0.841013 0.156278 0.68181
C_ C_ 0.903751 0.880403 0.235488 0.1947
C_ C_ 0.918149 0.890963 0.263574 -0.08735
C_ C_ 0.898516 0.864081 0.287112 -0.08735
C_ C_ 0.864501 0.823902 0.281632 -0.05681
C_ C_ 0.848686 0.814184 0.252143 0.18498
C_ C_ 0.817925 0.771664 0.246125 -0.08735
C_ C_ 0.80295 0.740146 0.268778 -0.08735
C_ C_ 0.815355 0.750591 0.297015 -0.08735
C_ C_ 0.846193 0.792676 0.303821 0.18498
C_ C_ 0.816138 0.819371 0.351197 0.44287
C_ C_ 0.902414 0.798888 0.34527 0.44287
C_ C_ 0.908871 0.799841 0.376062 -0.05681
C_ C_ 0.956122 0.788295 0.387834 -0.08735
C_ C_ 0.96528 0.795329 0.416702 -0.08735
C_ C_ 0.926161 0.808032 0.435843 -0.05681
C_ C_ 0.879367 0.816304 0.423426 -0.05681
C_ C_ 0.869521 0.811643 0.393225 -0.05681
C_ C_ 0.822422 0.822171 0.3813 -0.05681
C_ C_ 0.780979 0.831947 0.399889 -0.08735
C_ C_ 0.789729 0.83231 0.430397 -0.08735
C_ C_ 0.839555 0.830364 0.441628 -0.05681
C_ C_ 0.846527 0.832387 0.471464 0.44287
C_ C_ 0.932871 0.80874 0.466321 0.44287
C_ C_ 0.873592 0.860695 0.00871587 0.18498
C_ C_ 0.893774 0.909294 0.0159381 -0.08735
C_ C_ 0.906555 0.922429 0.0446338 -0.08735
C_ C_ 0.893689 0.890562 0.065604 -0.08735
C_ C_ 0.876356 0.841902 0.0604922 0.18498
C_ C_ 0.862275 0.827864 0.0321639 -0.05681
C_ C_ 0.847656 0.777314 0.0266902 -0.08735
C_ C_ 0.833562 0.747071 0.0492216 -0.08735
C_ C_ 0.839354 0.766365 0.0777466 0.1947
N_ N_ 0.639541 0.657163 0.477208 -0.29468
N_ N_ 0.651554 0.700411 0.0832519 -0.17154
N_ N_ 0.62003 0.661626 0.229916 -0.17154
N_ N_ 0.632866 0.695489 0.333376 -0.29468
N_ N_ 0.869911 0.841796 0.230177 -0.29468
N_ N_ 0.854812 0.805635 0.333438 -0.17154
N_ N_ 0.892722 0.82247 0.483464 -0.17154
N_ N_ 0.859027 0.814108 0.0824698 -0.29468
O_ O_ 0.717731 0.678899 0.428955 -0.58347
O_ O_ 0.704314 0.68679 0.382263 -0.58347
O_ O_ 0.633951 0.745828 0.433853 -0.58347
O_ O_ 0.626026 0.750458 0.387121 -0.58347
O_ O_ 0.653692 0.600179 0.421943 -0.58347
O_ O_ 0.640906 0.609372 0.376511 -0.58347
O_ O_ 0.569356 0.664039 0.423716 -0.58347
O_ O_ 0.555493 0.681271 0.378699 -0.58347
O_ O_ 0.565313 0.710474 0.0761659 -0.46727
O_ O_ 0.739195 0.691902 0.0898596 -0.46727
O_ O_ 0.534188 0.675313 0.223696 -0.46727
O_ O_ 0.705299 0.651306 0.235744 -0.46727
O_ O_ 0.789214 0.824175 0.182745 -0.58347
O_ O_ 0.800645 0.815424 0.136729 -0.58347
O_ O_ 0.871567 0.749945 0.183018 -0.58347
O_ O_ 0.879209 0.74638 0.136191 -0.58347
O_ O_ 0.855202 0.902074 0.178347 -0.58347
O_ O_ 0.85425 0.897616 0.131634 -0.58347
O_ O_ 0.937169 0.836907 0.177824 -0.58347
O_ O_ 0.947489 0.833533 0.132066 -0.58347
O_ O_ 0.939146 0.784971 0.328917 -0.46727
O_ O_ 0.775217 0.841175 0.340678 -0.46727
O_ O_ 0.978068 0.803179 0.478021 -0.46727
O_ O_ 0.811229 0.852147 0.487463 -0.46727
Zn Zn 0.627283 0.689327 0.884069 0.90689
Zn Zn 0.635382 0.686849 0.932023 0.90689
Zn Zn 0.878389 0.801822 0.635318 0.90689
Zn Zn 0.866014 0.809943 0.681475 0.90689
H_ H_ 0.805866 0.696367 0.947837 0.11455
H_ H_ 0.877795 0.669682 0.849936 0.11455
H_ H_ 0.78196 0.670581 0.858762 0.11455
H_ H_ 0.893085 0.715878 0.963649 0.11455
H_ H_ 0.982496 0.728559 0.952986 0.11455
H_ H_ 0.964908 0.661293 0.871551 0.11455
H_ H_ 0.609138 0.521158 0.943987 0.11455
H_ H_ 0.61767 0.940165 0.846917 0.11455
H_ H_ 0.660656 0.530443 0.85438 0.11455
H_ H_ 0.606934 0.939305 0.963637 0.11455
H_ H_ 0.624513 0.845318 0.964023 0.11455
H_ H_ 0.627647 0.853061 0.871943 0.11455
H_ H_ 0.578318 0.616845 0.968937 0.11455
H_ H_ 0.575253 0.571804 0.515767 0.11455
H_ H_ 0.608781 0.615848 0.555386 0.11455
H_ H_ 0.692129 0.755459 0.97553 0.11455
H_ H_ 0.737447 0.78234 0.513723 0.11455
H_ H_ 0.698482 0.770984 0.562963 0.11455
H_ H_ 0.516842 0.703755 0.620828 0.11455
H_ H_ 0.506436 0.711668 0.673304 0.11455
H_ H_ 0.760924 0.63581 0.638939 0.11455
H_ H_ 0.75407 0.653683 0.689084 0.11455
H_ H_ 0.570163 0.600423 0.745284 0.11455
H_ H_ 0.54127 0.576662 0.795333 0.11455
H_ H_ 0.570205 0.624505 0.836229 0.11455
H_ H_ 0.63945 0.759865 0.757563 0.11455
H_ H_ 0.666649 0.810471 0.799477 0.11455
H_ H_ 0.665001 0.77896 0.847804 0.11455
H_ H_ 0.701019 0.827143 0.696271 0.11455
H_ H_ 0.629693 0.804823 0.601079 0.11455
H_ H_ 0.722589 0.803418 0.607263 0.11455
H_ H_ 0.605962 0.845939 0.715691 0.11455
H_ H_ 0.517138 0.830448 0.707327 0.11455
H_ H_ 0.547915 0.813347 0.616977 0.11455
H_ H_ 0.871585 0.972387 0.695871 0.11455
H_ H_ 0.843834 0.561845 0.597562 0.11455
H_ H_ 0.851623 0.960706 0.60442 0.11455
H_ H_ 0.912173 0.560572 0.712344 0.11455
H_ H_ 0.89885 0.652685 0.710787 0.11455
H_ H_ 0.854071 0.64157 0.621213 0.11455
H_ H_ 0.918861 0.87951 0.717015 0.11455
H_ H_ 0.928733 0.910326 0.765929 0.11455
H_ H_ 0.888968 0.872172 0.805382 0.11455
H_ H_ 0.807818 0.734235 0.726463 0.11455
H_ H_ 0.770533 0.692598 0.768155 0.11455
H_ H_ 0.783119 0.721587 0.81757 0.11455
H_ H_ 0.972238 0.799025 0.874632 0.11455
H_ H_ 0.985114 0.827457 0.922943 0.11455
H_ H_ 0.721869 0.819507 0.886138 0.11455
H_ H_ 0.733611 0.837015 0.9378 0.11455
H_ H_ 0.907407 0.933572 0.9988 0.11455
H_ H_ 0.979032 0.909624 0.553614 0.11455
H_ H_ 0.939569 0.863165 0.594676 0.11455
H_ H_ 0.857448 0.741038 0.508247 0.11455
H_ H_ 0.803542 0.703685 0.546412 0.11455
H_ H_ 0.814319 0.729568 0.595532 0.11455
C_ C_ 0.731552 0.691777 0.905588 0.68181
C_ C_ 0.786902 0.686915 0.902475 -0.05681
C_ C_ 0.820254 0.691425 0.92572 -0.08735
C_ C_ 0.872779 0.692816 0.921389 -0.05681
C_ C_ 0.893711 0.681902 0.894042 -0.05681
C_ C_ 0.861514 0.675404 0.871099 -0.08735
C_ C_ 0.807267 0.675194 0.876202 -0.08735
C_ C_ 0.906064 0.711162 0.942449 -0.08735
C_ C_ 0.95824 0.709097 0.939468 -0.08735
C_ C_ 0.978823 0.688856 0.914543 -0.05681
C_ C_ 0.946504 0.676167 0.892046 -0.08735
C_ C_ 0.622322 0.786666 0.916254 0.68181
C_ C_ 0.633862 0.589922 0.900212 0.68181
C_ C_ 0.634974 0.533898 0.899507 -0.05681
C_ C_ 0.620744 0.00508905 0.921214 -0.08735
C_ C_ 0.624536 0.951073 0.919032 -0.05681
C_ C_ 0.628206 0.92684 0.892571 -0.05681
C_ C_ 0.625973 0.956651 0.867377 -0.08735
C_ C_ 0.625958 0.00795678 0.869303 -0.08735
C_ C_ 0.616896 0.920815 0.943725 -0.08735
C_ C_ 0.623176 0.867757 0.944363 -0.08735
C_ C_ 0.624326 0.842131 0.917545 -0.05681
C_ C_ 0.62921 0.872997 0.892874 -0.08735
C_ C_ 0.53126 0.680416 0.909475 0.68181
C_ C_ 0.599321 0.63228 0.985834 0.1947
C_ C_ 0.603482 0.597434 0.511498 -0.08735
C_ C_ 0.620904 0.626321 0.533838 -0.08735
C_ C_ 0.649218 0.670726 0.529245 -0.05681
C_ C_ 0.655837 0.687175 0.499925 0.18498
C_ C_ 0.677858 0.744024 0.996497 -0.08735
C_ C_ 0.708354 0.754225 0.518479 -0.08735
C_ C_ 0.687113 0.746925 0.545763 -0.08735
C_ C_ 0.661389 0.701672 0.551897 0.18498
C_ C_ 0.690964 0.669856 0.598523 0.44287
C_ C_ 0.604863 0.695038 0.593673 0.44287
C_ C_ 0.595377 0.681576 0.622992 -0.05681
C_ C_ 0.548581 0.695525 0.634318 -0.08735
C_ C_ 0.543427 0.702237 0.663733 -0.08735
C_ C_ 0.582841 0.689219 0.681986 -0.05681
C_ C_ 0.629755 0.675615 0.670045 -0.05681
C_ C_ 0.636082 0.674092 0.640193 -0.05681
C_ C_ 0.685311 0.663759 0.628034 -0.05681
C_ C_ 0.724998 0.65049 0.647309 -0.08735
C_ C_ 0.720756 0.661391 0.676357 -0.08735
C_ C_ 0.670896 0.667732 0.68862 -0.05681
C_ C_ 0.664329 0.669224 0.717918 0.44287
C_ C_ 0.577937 0.691507 0.712541 0.44287
C_ C_ 0.61033 0.666121 0.759065 0.18498
C_ C_ 0.58308 0.621057 0.764065 -0.08735
C_ C_ 0.56847 0.606832 0.79145 -0.08735
C_ C_ 0.584985 0.634067 0.815313 -0.08735
C_ C_ 0.612452 0.679389 0.81112 0.18498
C_ C_ 0.622041 0.697446 0.782769 -0.05681
C_ C_ 0.639567 0.745467 0.778966 -0.08735
C_ C_ 0.653892 0.773583 0.802851 -0.08735
C_ C_ 0.651863 0.753836 0.830353 0.1947
C_ C_ 0.772338 0.811459 0.656813 0.68181
C_ C_ 0.716675 0.814842 0.65313 -0.05681
C_ C_ 0.683144 0.821418 0.676796 -0.08735
C_ C_ 0.630277 0.823241 0.67273 -0.05681
C_ C_ 0.611988 0.815135 0.64474 -0.05681
C_ C_ 0.646377 0.811593 0.622334 -0.08735
C_ C_ 0.698408 0.809932 0.625947 -0.08735
C_ C_ 0.595754 0.832075 0.694675 -0.08735
C_ C_ 0.542293 0.829696 0.689257 -0.08735
C_ C_ 0.523605 0.825024 0.660819 -0.05681
C_ C_ 0.559082 0.819078 0.638576 -0.08735
C_ C_ 0.867 0.710022 0.665545 0.68181
C_ C_ 0.870278 0.903583 0.653027 0.68181
C_ C_ 0.86874 0.960133 0.649905 -0.05681
C_ C_ 0.875046 0.493747 0.670528 -0.08735
C_ C_ 0.881117 0.547027 0.668453 -0.05681
C_ C_ 0.872898 0.569625 0.64166 -0.05681
C_ C_ 0.854002 0.541626 0.617304 -0.08735
C_ C_ 0.859998 0.981736 0.6235 -0.08735
C_ C_ 0.890872 0.576373 0.693456 -0.08735
C_ C_ 0.889079 0.628706 0.691656 -0.08735
C_ C_ 0.873793 0.653213 0.666202 -0.05681
C_ C_ 0.869274 0.623853 0.640967 -0.08735
C_ C_ 0.973101 0.809412 0.659782 0.68181
C_ C_ 0.895987 0.860901 0.73409 0.1947
C_ C_ 0.901569 0.881186 0.762147 -0.08735
C_ C_ 0.880896 0.856267 0.784962 -0.08735
C_ C_ 0.852954 0.81113 0.780662 -0.05681
C_ C_ 0.846177 0.793049 0.751588 0.18498
C_ C_ 0.81863 0.747164 0.747299 -0.08735
C_ C_ 0.796121 0.723234 0.771261 -0.08735
C_ C_ 0.808247 0.736506 0.799809 -0.08735
C_ C_ 0.829868 0.783639 0.803157 0.18498
C_ C_ 0.796838 0.813205 0.848735 0.44287
C_ C_ 0.886306 0.7981 0.844582 0.44287
C_ C_ 0.893029 0.808683 0.873552 -0.05681
C_ C_ 0.941256 0.811432 0.88611 -0.08735
C_ C_ 0.94781 0.822973 0.915221 -0.08735
C_ C_ 0.905805 0.82987 0.932675 -0.05681
C_ C_ 0.857552 0.829596 0.919346 -0.05681
C_ C_ 0.850972 0.820555 0.889814 -0.05681
C_ C_ 0.802838 0.818135 0.878369 -0.05681
C_ C_ 0.759591 0.823452 0.895885 -0.08735
C_ C_ 0.765668 0.836857 0.924291 -0.08735
C_ C_ 0.813737 0.833965 0.93719 -0.05681
C_ C_ 0.821053 0.848115 0.966401 0.44287
C_ C_ 0.909013 0.840612 0.961819 0.44287
C_ C_ 0.903935 0.834537 0.513923 0.18498
C_ C_ 0.931509 0.876085 0.521589 -0.08735
C_ C_ 0.943347 0.887286 0.550741 -0.08735
C_ C_ 0.924846 0.85681 0.572815 -0.08735
C_ C_ 0.89062 0.817634 0.565736 0.18498
C_ C_ 0.881454 0.80359 0.536204 -0.05681
C_ C_ 0.855988 0.759075 0.529501 -0.08735
C_ C_ 0.831157 0.731444 0.550597 -0.08735
C_ C_ 0.838166 0.746808 0.579225 0.1947
N_ N_ 0.63378 0.669281 0.979684 -0.29468
N_ N_ 0.651874 0.687285 0.581999 -0.17154
N_ N_ 0.618819 0.681673 0.729577 -0.17154
N_ N_ 0.627392 0.708113 0.834414 -0.29468
N_ N_ 0.867352 0.820051 0.729427 -0.29468
N_ N_ 0.838172 0.80119 0.832421 -0.17154
N_ N_ 0.866462 0.849403 0.978322 -0.17154
N_ N_ 0.871377 0.785215 0.586892 -0.29468
O_ O_ 0.711636 0.683047 0.9298 -0.58347
O_ O_ 0.701472 0.699534 0.884056 -0.58347
O_ O_ 0.631752 0.759405 0.937693 -0.58347
O_ O_ 0.620445 0.765952 0.892278 -0.58347
O_ O_ 0.629885 0.610853 0.925111 -0.58347
O_ O_ 0.63761 0.61694 0.877011 -0.58347
O_ O_ 0.557388 0.681043 0.932185 -0.58347
O_ O_ 0.551868 0.676242 0.884853 -0.58347
O_ O_ 0.567774 0.713448 0.577836 -0.46727
O_ O_ 0.735741 0.667299 0.588659 -0.46727
O_ O_ 0.536238 0.711169 0.724124 -0.46727
O_ O_ 0.706913 0.665613 0.733649 -0.46727
O_ O_ 0.792033 0.802701 0.681248 -0.58347
O_ O_ 0.801936 0.810187 0.634863 -0.58347
O_ O_ 0.87377 0.736605 0.687967 -0.58347
O_ O_ 0.871345 0.731305 0.642059 -0.58347
O_ O_ 0.859235 0.883549 0.67689 -0.58347
O_ O_ 0.884976 0.875266 0.632821 -0.58347
O_ O_ 0.942674 0.815621 0.681145 -0.58347
O_ O_ 0.955241 0.797754 0.635422 -0.58347
O_ O_ 0.924545 0.778853 0.830673 -0.46727
O_ O_ 0.751664 0.818608 0.837947 -0.46727
O_ O_ 0.953905 0.844501 0.973982 -0.46727
O_ O_ 0.780783 0.857241 0.981678 -0.46727
_cell_length_a 26.376
_cell_length_b 26.400000238300095
_cell_length_c 46.67800035477134
_cell_angle_alpha 90.00700052986613
_cell_angle_beta 89.99899961309502
_cell_angle_gamma 90.45000003183146
_symmetry_space_group_name_H-M         'P 1'
_symmetry_Int_Tables_number            1
loop_
_symmetry_equiv_pos_as_xyz
   'x, y, z'
                         
loop_
_atom_site_label
_atom_site_type_symbol
_atom_site_fract_x 
_atom_site_fract_y
_atom_site_fract_z
_atom_site_charge
Zn Zn 0.125823 0.183005 0.384504 0.90689
Zn Zn 0.136427 0.178095 0.431219 0.90689
Zn Zn 0.377631 0.314648 0.133567 0.90689
Zn Zn 0.368044 0.322891 0.182184 0.90689
H_ H_ 0.304043 0.190377 0.445675 0.11455
H_ H_ 0.375479 0.156734 0.347869 0.11455
H_ H_ 0.288297 0.158667 0.354218 0.11455
H_ H_ 0.393591 0.195901 0.465204 0.11455
H_ H_ 0.481787 0.207989 0.453864 0.11455
H_ H_ 0.462383 0.162416 0.36893 0.11455
H_ H_ 0.147753 0.0160253 0.448133 0.11455
H_ H_ 0.143399 0.427936 0.348189 0.11455
H_ H_ 0.146152 0.023825 0.354835 0.11455
H_ H_ 0.128974 0.432527 0.465485 0.11455
H_ H_ 0.118473 0.337822 0.461612 0.11455
H_ H_ 0.12221 0.347764 0.370129 0.11455
H_ H_ 0.0828735 0.101687 0.468156 0.11455
H_ H_ 0.0486065 0.0859907 0.0132892 0.11455
H_ H_ 0.0925233 0.125715 0.0534678 0.11455
H_ H_ 0.188376 0.243362 0.473749 0.11455
H_ H_ 0.2049 0.307541 0.0141825 0.11455
H_ H_ 0.193624 0.274314 0.067006 0.11455
H_ H_ 0.00905751 0.21292 0.125164 0.11455
H_ H_ 0.00041000000000002146 0.205731 0.176078 0.11455
H_ H_ 0.256136 0.156267 0.13877 0.11455
H_ H_ 0.246339 0.158112 0.189196 0.11455
H_ H_ 0.0478134 0.0957573 0.250236 0.11455
H_ H_ 0.0243327 0.0745668 0.300163 0.11455
H_ H_ 0.0624582 0.119028 0.339838 0.11455
H_ H_ 0.150272 0.245468 0.259639 0.11455
H_ H_ 0.193501 0.2833 0.299799 0.11455
H_ H_ 0.186351 0.249045 0.350234 0.11455
H_ H_ 0.198708 0.29715 0.195728 0.11455
H_ H_ 0.129508 0.336768 0.0987201 0.11455
H_ H_ 0.219975 0.336047 0.107174 0.11455
H_ H_ 0.10552 0.289562 0.215054 0.11455
H_ H_ 0.0187939 0.305094 0.207213 0.11455
H_ H_ 0.0478635 0.332731 0.116048 0.11455
H_ H_ 0.359315 0.486568 0.191227 0.11455
H_ H_ 0.355879 0.0764731 0.100137 0.11455
H_ H_ 0.371329 0.467757 0.0999194 0.11455
H_ H_ 0.397314 0.068508 0.21371 0.11455
H_ H_ 0.403965 0.161856 0.211758 0.11455
H_ H_ 0.375265 0.154491 0.119773 0.11455
H_ H_ 0.410032 0.404666 0.220199 0.11455
H_ H_ 0.424056 0.427309 0.271146 0.11455
H_ H_ 0.39238 0.372287 0.307467 0.11455
H_ H_ 0.31504 0.248271 0.223338 0.11455
H_ H_ 0.294385 0.188365 0.262912 0.11455
H_ H_ 0.335242 0.201831 0.308379 0.11455
H_ H_ 0.486914 0.30768 0.375899 0.11455
H_ H_ 0.496367 0.312439 0.425901 0.11455
H_ H_ 0.233713 0.306671 0.383357 0.11455
H_ H_ 0.236567 0.321994 0.433838 0.11455
H_ H_ 0.411296 0.416289 0.499475 0.11455
H_ H_ 0.479396 0.423331 0.0453056 0.11455
H_ H_ 0.451217 0.372111 0.0875735 0.11455
H_ H_ 0.328248 0.268404 0.00908663 0.11455
H_ H_ 0.292417 0.22724 0.0511357 0.11455
H_ H_ 0.316089 0.254699 0.0986902 0.11455
C_ C_ 0.230792 0.183334 0.404288 0.68181
C_ C_ 0.28583 0.177032 0.400225 -0.05681
C_ C_ 0.319379 0.183562 0.424874 -0.08735
C_ C_ 0.371692 0.177447 0.420571 -0.05681
C_ C_ 0.392192 0.17215 0.39222 -0.05681
C_ C_ 0.360086 0.16064 0.369162 -0.08735
C_ C_ 0.30909 0.163463 0.373454 -0.08735
C_ C_ 0.406551 0.19087 0.442762 -0.08735
C_ C_ 0.457395 0.196925 0.436702 -0.08735
C_ C_ 0.477994 0.186176 0.410184 -0.05681
C_ C_ 0.444648 0.174825 0.38847 -0.08735
C_ C_ 0.126711 0.281598 0.412857 0.68181
C_ C_ 0.140813 0.082327 0.402626 0.68181
C_ C_ 0.143444 0.025152 0.401091 -0.05681
C_ C_ 0.126179 0.495036 0.421438 -0.08735
C_ C_ 0.125733 0.44302 0.420362 -0.05681
C_ C_ 0.13276 0.418484 0.393555 -0.05681
C_ C_ 0.14081 0.446409 0.368646 -0.08735
C_ C_ 0.142515 0.498613 0.370124 -0.08735
C_ C_ 0.123518 0.413189 0.44508 -0.08735
C_ C_ 0.121275 0.360179 0.442727 -0.08735
C_ C_ 0.124837 0.336951 0.415968 -0.05681
C_ C_ 0.129539 0.365541 0.391145 -0.08735
C_ C_ 0.0342793 0.17478 0.412264 0.68181
C_ C_ 0.104825 0.119925 0.486198 0.1947
C_ C_ 0.0749134 0.117301 0.0096357 -0.08735
C_ C_ 0.101878 0.138626 0.0316136 -0.08735
C_ C_ 0.135137 0.178954 0.0280554 -0.05681
C_ C_ 0.142613 0.195776 0.9999768836 0.18498
C_ C_ 0.180143 0.232908 0.496472 -0.08735
C_ C_ 0.187531 0.269093 0.0186335 -0.08735
C_ C_ 0.178145 0.253265 0.0469573 -0.08735
C_ C_ 0.151627 0.207715 0.0517983 0.18498
C_ C_ 0.183708 0.176785 0.0984762 0.44287
C_ C_ 0.0969335 0.199474 0.0936725 0.44287
C_ C_ 0.0902654 0.192396 0.124098 -0.05681
C_ C_ 0.0416081 0.197287 0.137031 -0.08735
C_ C_ 0.0371597 0.196236 0.167257 -0.08735
C_ C_ 0.0777412 0.183495 0.183932 -0.05681
C_ C_ 0.125471 0.173413 0.171875 -0.05681
C_ C_ 0.13148 0.178435 0.141076 -0.05681
C_ C_ 0.179171 0.172449 0.128726 -0.05681
C_ C_ 0.219783 0.166136 0.146242 -0.08735
C_ C_ 0.214304 0.164973 0.176435 -0.08735
C_ C_ 0.166076 0.164229 0.189299 -0.05681
C_ C_ 0.158057 0.160935 0.220049 0.44287
C_ C_ 0.0713335 0.181457 0.213978 0.44287
C_ C_ 0.098915 0.155826 0.261188 0.18498
C_ C_ 0.062317 0.117128 0.267619 -0.08735
C_ C_ 0.045646 0.105867 0.295922 -0.08735
C_ C_ 0.070322 0.131389 0.318316 -0.08735
C_ C_ 0.106491 0.169644 0.313073 0.18498
C_ C_ 0.120661 0.183816 0.284093 -0.05681
C_ C_ 0.150098 0.225866 0.280668 -0.08735
C_ C_ 0.17366 0.247629 0.303463 -0.08735
C_ C_ 0.165143 0.230163 0.331538 0.1947
C_ C_ 0.273273 0.319453 0.155431 0.68181
C_ C_ 0.217847 0.312728 0.151758 -0.05681
C_ C_ 0.182732 0.306176 0.174217 -0.08735
C_ C_ 0.129438 0.308836 0.170018 -0.05681
C_ C_ 0.110727 0.319323 0.141784 -0.05681
C_ C_ 0.144672 0.325043 0.119626 -0.08735
C_ C_ 0.196423 0.327971 0.125304 -0.08735
C_ C_ 0.0957094 0.307268 0.193214 -0.08735
C_ C_ 0.0438487 0.314521 0.189292 -0.08735
C_ C_ 0.0252837 0.322307 0.161216 -0.05681
C_ C_ 0.0591628 0.327463 0.13825 -0.08735
C_ C_ 0.383216 0.222075 0.163267 0.68181
C_ C_ 0.367455 0.416709 0.149113 0.68181
C_ C_ 0.368388 0.470915 0.146001 -0.05681
C_ C_ 0.38556 0.0052243 0.168679 -0.08735
C_ C_ 0.393358 0.0579886 0.167761 -0.05681
C_ C_ 0.386988 0.0828668 0.141277 -0.05681
C_ C_ 0.366625 0.0553616 0.118757 -0.08735
C_ C_ 0.373441 0.491716 0.117812 -0.08735
C_ C_ 0.399199 0.0868201 0.192979 -0.08735
C_ C_ 0.402075 0.140527 0.191743 -0.08735
C_ C_ 0.393542 0.16598 0.164968 -0.05681
C_ C_ 0.383786 0.135356 0.140231 -0.08735
C_ C_ 0.470555 0.325658 0.159687 0.68181
C_ C_ 0.394764 0.379226 0.236465 0.1947
C_ C_ 0.407854 0.390463 0.264543 -0.08735
C_ C_ 0.388894 0.360397 0.286036 -0.08735
C_ C_ 0.366476 0.314204 0.278962 -0.05681
C_ C_ 0.355457 0.302905 0.250071 0.18498
C_ C_ 0.328443 0.258386 0.243899 -0.08735
C_ C_ 0.315479 0.223015 0.265445 -0.08735
C_ C_ 0.332811 0.231342 0.293042 -0.08735
C_ C_ 0.353938 0.278502 0.300727 0.18498
C_ C_ 0.312871 0.294464 0.34675 0.44287
C_ C_ 0.404218 0.286183 0.344482 0.44287
C_ C_ 0.405137 0.295646 0.373686 -0.05681
C_ C_ 0.452905 0.302532 0.387674 -0.08735
C_ C_ 0.456433 0.307222 0.417245 -0.08735
C_ C_ 0.411939 0.309968 0.434278 -0.05681
C_ C_ 0.362742 0.308783 0.420439 -0.05681
C_ C_ 0.36062 0.300341 0.390166 -0.05681
C_ C_ 0.314725 0.29874 0.376937 -0.05681
C_ C_ 0.269137 0.305036 0.393034 -0.08735
C_ C_ 0.272417 0.315116 0.422187 -0.08735
C_ C_ 0.319011 0.315452 0.436767 -0.05681
C_ C_ 0.326369 0.32507 0.467005 0.44287
C_ C_ 0.415145 0.316404 0.464034 0.44287
C_ C_ 0.396818 0.348925 0.0106614 0.18498
C_ C_ 0.43148 0.386592 0.0145428 -0.08735
C_ C_ 0.449244 0.397056 0.0424646 -0.08735
C_ C_ 0.435163 0.366387 0.0653441 -0.08735
C_ C_ 0.395726 0.330346 0.0616624 0.18498
C_ C_ 0.378907 0.320239 0.0335722 -0.05681
C_ C_ 0.341616 0.282609 0.0297905 -0.08735
C_ C_ 0.320958 0.256449 0.053685 -0.08735
C_ C_ 0.338293 0.267902 0.0803878 0.1947
N_ N_ 0.134211 0.162959 0.480761 -0.29468
N_ N_ 0.143124 0.192995 0.081546 -0.17154
N_ N_ 0.110032 0.167304 0.231755 -0.17154
N_ N_ 0.130858 0.191664 0.335901 -0.29468
N_ N_ 0.369488 0.334877 0.229517 -0.29468
N_ N_ 0.357033 0.288786 0.330742 -0.17154
N_ N_ 0.374404 0.326929 0.480176 -0.17154
N_ N_ 0.375642 0.300948 0.0849855 -0.29468
O_ O_ 0.21131 0.181221 0.429365 -0.58347
O_ O_ 0.2017 0.185472 0.382315 -0.58347
O_ O_ 0.129853 0.25546 0.435327 -0.58347
O_ O_ 0.122563 0.260814 0.388379 -0.58347
O_ O_ 0.137166 0.103257 0.426567 -0.58347
O_ O_ 0.125007 0.106897 0.380562 -0.58347
O_ O_ 0.0645495 0.176951 0.432672 -0.58347
O_ O_ 0.0531449 0.174682 0.387235 -0.58347
O_ O_ 0.0578951 0.216627 0.0778853 -0.46727
O_ O_ 0.226593 0.169408 0.085822 -0.46727
O_ O_ 0.0257198 0.190053 0.224903 -0.46727
O_ O_ 0.195239 0.148175 0.236365 -0.46727
O_ O_ 0.29427 0.315899 0.179878 -0.58347
O_ O_ 0.300346 0.313554 0.133098 -0.58347
O_ O_ 0.375603 0.247997 0.186617 -0.58347
O_ O_ 0.37956 0.242135 0.138729 -0.58347
O_ O_ 0.358151 0.398489 0.173596 -0.58347
O_ O_ 0.372669 0.388638 0.127607 -0.58347
O_ O_ 0.439674 0.332616 0.181085 -0.58347
O_ O_ 0.452027 0.319078 0.135304 -0.58347
O_ O_ 0.446667 0.285362 0.328302 -0.46727
O_ O_ 0.270391 0.301718 0.333159 -0.46727
O_ O_ 0.459275 0.312673 0.475769 -0.46727
O_ O_ 0.285884 0.324626 0.484177 -0.46727
Zn Zn 0.119176 0.188346 0.882915 0.90689
Zn Zn 0.126313 0.187861 0.928725 0.90689
Zn Zn 0.372481 0.306445 0.631589 0.90689
Zn Zn 0.366078 0.31359 0.679896 0.90689
H_ H_ 0.295125 0.204202 0.944407 0.11455
H_ H_ 0.364641 0.170357 0.846798 0.11455
H_ H_ 0.270456 0.173004 0.853315 0.11455
H_ H_ 0.381176 0.189034 0.96323 0.11455
H_ H_ 0.471977 0.184913 0.957099 0.11455
H_ H_ 0.453316 0.178212 0.864792 0.11455
H_ H_ 0.136564 0.0204415 0.944716 0.11455
H_ H_ 0.117025 0.442247 0.844621 0.11455
H_ H_ 0.14139 0.0383956 0.852969 0.11455
H_ H_ 0.142854 0.429746 0.964511 0.11455
H_ H_ 0.12726 0.340303 0.960088 0.11455
H_ H_ 0.120765 0.353569 0.868325 0.11455
H_ H_ 0.0657036 0.116473 0.965719 0.11455
H_ H_ 0.0824554 0.0642936 0.517918 0.11455
H_ H_ 0.11824 0.113398 0.558074 0.11455
H_ H_ 0.191563 0.246313 0.976467 0.11455
H_ H_ 0.215252 0.298364 0.514045 0.11455
H_ H_ 0.198675 0.277343 0.564827 0.11455
H_ H_ 0.0178494 0.220378 0.622015 0.11455
H_ H_ -0.0007470000000000532 0.196243 0.674432 0.11455
H_ H_ 0.264751 0.184001 0.644438 0.11455
H_ H_ 0.250476 0.1776 0.693347 0.11455
H_ H_ 0.0788403 0.0747506 0.752297 0.11455
H_ H_ 0.044805 0.061526 0.802553 0.11455
H_ H_ 0.0725229 0.115439 0.842874 0.11455
H_ H_ 0.144325 0.248999 0.757801 0.11455
H_ H_ 0.190246 0.287023 0.798533 0.11455
H_ H_ 0.169443 0.263991 0.846177 0.11455
H_ H_ 0.197896 0.286685 0.694183 0.11455
H_ H_ 0.125752 0.363593 0.606414 0.11455
H_ H_ 0.220388 0.356972 0.611432 0.11455
H_ H_ 0.111902 0.298863 0.715933 0.11455
H_ H_ 0.0173147 0.285337 0.705755 0.11455
H_ H_ 0.0406038 0.351098 0.622877 0.11455
H_ H_ 0.384947 0.481241 0.688802 0.11455
H_ H_ 0.457283 0.0571341 0.616922 0.11455
H_ H_ 0.328796 0.468127 0.60453 0.11455
H_ H_ 0.320892 0.0613003 0.707322 0.11455
H_ H_ 0.338023 0.158459 0.707964 0.11455
H_ H_ 0.41963 0.142357 0.628249 0.11455
H_ H_ 0.424048 0.378148 0.715232 0.11455
H_ H_ 0.42784 0.423829 0.760617 0.11455
H_ H_ 0.384778 0.385528 0.803803 0.11455
H_ H_ 0.303048 0.255172 0.72581 0.11455
H_ H_ 0.261381 0.213141 0.767806 0.11455
H_ H_ 0.282766 0.234008 0.815619 0.11455
H_ H_ 0.482989 0.295013 0.87406 0.11455
H_ H_ 0.495519 0.306867 0.92548 0.11455
H_ H_ 0.232828 0.323552 0.89099 0.11455
H_ H_ 0.244306 0.328354 0.943689 0.11455
H_ H_ 0.437571 0.412866 -0.00400900000000004 0.11455
H_ H_ 0.452953 0.428088 0.547697 0.11455
H_ H_ 0.429487 0.368506 0.587409 0.11455
H_ H_ 0.344613 0.240517 0.507048 0.11455
H_ H_ 0.306492 0.200175 0.54938 0.11455
H_ H_ 0.321089 0.233212 0.596588 0.11455
C_ C_ 0.220122 0.187465 0.902551 0.68181
C_ C_ 0.274775 0.184458 0.900114 -0.05681
C_ C_ 0.308843 0.193622 0.923381 -0.08735
C_ C_ 0.361373 0.18828 0.91863 -0.05681
C_ C_ 0.38145 0.181425 0.890584 -0.05681
C_ C_ 0.346806 0.173693 0.868408 -0.08735
C_ C_ 0.294077 0.17783 0.8721 -0.08735
C_ C_ 0.39511 0.18921 0.94111 -0.08735
C_ C_ 0.44671 0.184038 0.937674 -0.08735
C_ C_ 0.469756 0.183408 0.90957 -0.05681
C_ C_ 0.43533 0.181782 0.885766 -0.08735
C_ C_ 0.113769 0.284281 0.912766 0.68181
C_ C_ 0.137829 0.0935101 0.901533 0.68181
C_ C_ 0.132539 0.0362314 0.898651 -0.05681
C_ C_ 0.141613 0.498359 0.921983 -0.08735
C_ C_ 0.13568 0.445613 0.919122 -0.05681
C_ C_ 0.132031 0.422811 0.891086 -0.05681
C_ C_ 0.127539 0.454224 0.867506 -0.08735
C_ C_ 0.127653 0.507029 0.871329 -0.08735
C_ C_ 0.140562 0.414703 0.943975 -0.08735
C_ C_ 0.128921 0.364165 0.94146 -0.08735
C_ C_ 0.122319 0.339114 0.91472 -0.05681
C_ C_ 0.12575 0.36989 0.889384 -0.08735
C_ C_ 0.024369 0.188594 0.905614 0.68181
C_ C_ 0.083658 0.134847 0.982523 0.1947
C_ C_ 0.101555 0.100775 0.5138 -0.08735
C_ C_ 0.120462 0.13036 0.537303 -0.08735
C_ C_ 0.145943 0.176464 0.530899 -0.05681
C_ C_ 0.154791 0.18961 0.502331 0.18498
C_ C_ 0.172466 0.237112 0.995323 -0.08735
C_ C_ 0.197584 0.264372 0.519499 -0.08735
C_ C_ 0.193164 0.249983 0.547621 -0.08735
C_ C_ 0.16442 0.207235 0.554127 0.18498
C_ C_ 0.193788 0.181043 0.602153 0.44287
C_ C_ 0.106806 0.207353 0.595008 0.44287
C_ C_ 0.0969556 0.201642 0.625167 -0.05681
C_ C_ 0.0471867 0.207211 0.636306 -0.08735
C_ C_ 0.0373396 0.194414 0.665965 -0.08735
C_ C_ 0.0801452 0.184364 0.684184 -0.05681
C_ C_ 0.128464 0.18356 0.673192 -0.05681
C_ C_ 0.136587 0.184344 0.643373 -0.05681
C_ C_ 0.186665 0.182936 0.631593 -0.05681
C_ C_ 0.227472 0.180538 0.651406 -0.08735
C_ C_ 0.219682 0.174292 0.680343 -0.08735
C_ C_ 0.170286 0.176356 0.692584 -0.05681
C_ C_ 0.162045 0.164846 0.722164 0.44287
C_ C_ 0.070782 0.173352 0.714504 0.44287
C_ C_ 0.103189 0.152422 0.762675 0.18498
C_ C_ 0.079772 0.105889 0.769607 -0.08735
C_ C_ 0.0680749 0.0926909 0.797237 -0.08735
C_ C_ 0.0824043 0.123812 0.820204 -0.08735
C_ C_ 0.105916 0.172107 0.814075 0.18498
C_ C_ 0.113421 0.187007 0.78454 -0.05681
C_ C_ 0.139499 0.23302 0.779544 -0.08735
C_ C_ 0.16358 0.256694 0.801651 -0.08735
C_ C_ 0.150876 0.243223 0.829913 0.1947
C_ C_ 0.271345 0.315459 0.654346 0.68181
C_ C_ 0.214683 0.319812 0.653294 -0.05681
C_ C_ 0.18112 0.300918 0.673858 -0.08735
C_ C_ 0.130187 0.312439 0.67184 -0.05681
C_ C_ 0.109329 0.331314 0.646128 -0.05681
C_ C_ 0.141342 0.343146 0.623658 -0.08735
C_ C_ 0.194031 0.337431 0.627279 -0.08735
C_ C_ 0.0969779 0.304374 0.69457 -0.08735
C_ C_ 0.0442514 0.301315 0.689789 -0.08735
C_ C_ 0.0248314 0.323361 0.664798 -0.05681
C_ C_ 0.0573042 0.339133 0.643136 -0.08735
C_ C_ 0.373373 0.213971 0.663752 0.68181
C_ C_ 0.364068 0.41138 0.649198 0.68181
C_ C_ 0.363831 0.466647 0.646757 -0.05681
C_ C_ 0.357851 -0.0020409999999999595 0.668666 -0.08735
C_ C_ 0.364255 0.051527 0.667889 -0.05681
C_ C_ 0.393237 0.0734438 0.64655 -0.05681
C_ C_ 0.422795 0.0409085 0.628097 -0.08735
C_ C_ 0.348361 0.489783 0.620884 -0.08735
C_ C_ 0.342594 0.0815584 0.690491 -0.08735
C_ C_ 0.350035 0.134484 0.69075 -0.08735
C_ C_ 0.373414 0.156987 0.66614 -0.05681
C_ C_ 0.399011 0.126653 0.646799 -0.08735
C_ C_ 0.470833 0.318871 0.656691 0.68181
C_ C_ 0.408351 0.359061 0.733246 0.1947
C_ C_ 0.41169 0.383833 0.760215 -0.08735
C_ C_ 0.386774 0.362824 0.784533 -0.08735
C_ C_ 0.356181 0.318482 0.779594 -0.05681
C_ C_ 0.348314 0.301278 0.751514 0.18498
C_ C_ 0.312142 0.265696 0.747073 -0.08735
C_ C_ 0.283861 0.24563 0.770899 -0.08735
C_ C_ 0.300784 0.25517 0.798491 -0.08735
C_ C_ 0.335896 0.293811 0.804389 0.18498
C_ C_ 0.305216 0.320802 0.8512 0.44287
C_ C_ 0.393706 0.308115 0.844217 0.44287
C_ C_ 0.402249 0.30995 0.875169 -0.05681
C_ C_ 0.450143 0.304212 0.887255 -0.08735
C_ C_ 0.458636 0.305456 0.917129 -0.08735
C_ C_ 0.417431 0.318893 0.934474 -0.05681
C_ C_ 0.367263 0.320663 0.923178 -0.05681
C_ C_ 0.361348 0.322373 0.893017 -0.05681
C_ C_ 0.313191 0.326967 0.880552 -0.05681
C_ C_ 0.27164 0.327565 0.899347 -0.08735
C_ C_ 0.277228 0.326409 0.928961 -0.08735
C_ C_ 0.325578 0.330184 0.941143 -0.05681
C_ C_ 0.33575 0.341026 0.970038 0.44287
C_ C_ 0.42324 0.32217 0.964223 0.44287
C_ C_ 0.380355 0.341606 0.510145 0.18498
C_ C_ 0.402291 0.390104 0.516981 -0.08735
C_ C_ 0.426186 0.39684 0.544246 -0.08735
C_ C_ 0.416627 0.361886 0.565772 -0.08735
C_ C_ 0.386233 0.32145 0.560817 0.18498
C_ C_ 0.376685 0.305557 0.532402 -0.05681
C_ C_ 0.348555 0.259658 0.528244 -0.08735
C_ C_ 0.333395 0.232764 0.55183 -0.08735
C_ C_ 0.338146 0.252925 0.579328 0.1947
N_ N_ 0.118795 0.173062 0.977631 -0.29468
N_ N_ 0.155112 0.196587 0.58371 -0.17154
N_ N_ 0.113167 0.166748 0.732642 -0.17154
N_ N_ 0.126312 0.199869 0.836074 -0.29468
N_ N_ 0.374285 0.322094 0.729363 -0.29468
N_ N_ 0.345296 0.310311 0.833933 -0.17154
N_ N_ 0.383296 0.336164 0.981845 -0.17154
N_ N_ 0.364587 0.296475 0.584286 -0.29468
O_ O_ 0.201752 0.181288 0.926727 -0.58347
O_ O_ 0.193861 0.20319 0.882091 -0.58347
O_ O_ 0.127387 0.258097 0.933402 -0.58347
O_ O_ 0.10559 0.262324 0.88843 -0.58347
O_ O_ 0.121911 0.114046 0.924187 -0.58347
O_ O_ 0.139118 0.117951 0.878933 -0.58347
O_ O_ 0.0532006 0.195834 0.928094 -0.58347
O_ O_ 0.0436739 0.173925 0.881955 -0.58347
O_ O_ 0.0725195 0.22561 0.577954 -0.46727
O_ O_ 0.239763 0.174396 0.591588 -0.46727
O_ O_ 0.0239093 0.166559 0.724553 -0.46727
O_ O_ 0.199695 0.159451 0.738675 -0.46727
O_ O_ 0.291459 0.311617 0.678495 -0.58347
O_ O_ 0.297283 0.305702 0.631139 -0.58347
O_ O_ 0.371634 0.242292 0.684932 -0.58347
O_ O_ 0.377281 0.234481 0.63879 -0.58347
O_ O_ 0.363209 0.388583 0.67298 -0.58347
O_ O_ 0.363462 0.383427 0.627048 -0.58347
O_ O_ 0.440778 0.314014 0.678348 -0.58347
O_ O_ 0.452153 0.320081 0.632046 -0.58347
O_ O_ 0.427243 0.290001 0.828064 -0.46727
O_ O_ 0.261587 0.331989 0.841114 -0.46727
O_ O_ 0.466088 0.307344 0.97599 -0.46727
O_ O_ 0.298083 0.363503 0.984508 -0.46727
Zn Zn 0.131335 0.686939 0.381224 0.90689
Zn Zn 0.138284 0.676914 0.429151 0.90689
Zn Zn 0.375963 0.820677 0.128979 0.90689
Zn Zn 0.36413 0.823098 0.176833 0.90689
H_ H_ 0.309583 0.676201 0.443263 0.11455
H_ H_ 0.378533 0.66654 0.345026 0.11455
H_ H_ 0.286137 0.669928 0.351159 0.11455
H_ H_ 0.39476 0.682125 0.46336 0.11455
H_ H_ 0.486846 0.684658 0.455025 0.11455
H_ H_ 0.465447 0.680272 0.364366 0.11455
H_ H_ 0.118929 0.513044 0.441857 0.11455
H_ H_ 0.119113 0.934074 0.351714 0.11455
H_ H_ 0.152028 0.516758 0.350764 0.11455
H_ H_ 0.140351 0.927186 0.468333 0.11455
H_ H_ 0.138535 0.834164 0.463295 0.11455
H_ H_ 0.134768 0.851305 0.373078 0.11455
H_ H_ 0.0921816 0.584718 0.465376 0.11455
H_ H_ 0.0897572 0.573249 0.0159016 0.11455
H_ H_ 0.129685 0.61961 0.0548769 0.11455
H_ H_ 0.203122 0.726154 0.468514 0.11455
H_ H_ 0.230961 0.805961 0.00780918 0.11455
H_ H_ 0.222338 0.77769 0.0591619 0.11455
H_ H_ 0.0234547 0.706286 0.117983 0.11455
H_ H_ 0.0115589 0.697582 0.170107 0.11455
H_ H_ 0.277351 0.693715 0.138468 0.11455
H_ H_ 0.264722 0.693814 0.190515 0.11455
H_ H_ 0.104318 0.593133 0.244083 0.11455
H_ H_ 0.0956142 0.559809 0.293642 0.11455
H_ H_ 0.0915179 0.613292 0.334648 0.11455
H_ H_ 0.167071 0.756895 0.257447 0.11455
H_ H_ 0.196264 0.804699 0.301089 0.11455
H_ H_ 0.186591 0.768166 0.348812 0.11455
H_ H_ 0.201816 0.832396 0.192393 0.11455
H_ H_ 0.128876 0.87216 0.0958247 0.11455
H_ H_ 0.222109 0.848958 0.10211 0.11455
H_ H_ 0.111953 0.827138 0.212017 0.11455
H_ H_ 0.0224682 0.824458 0.206413 0.11455
H_ H_ 0.0396241 0.855506 0.114007 0.11455
H_ H_ 0.387534 0.983949 0.188811 0.11455
H_ H_ 0.376943 0.558093 0.0936424 0.11455
H_ H_ 0.35643 0.985057 0.099286 0.11455
H_ H_ 0.37463 0.570105 0.210537 0.11455
H_ H_ 0.362729 0.662395 0.206934 0.11455
H_ H_ 0.366125 0.648599 0.116017 0.11455
H_ H_ 0.419242 0.897071 0.213733 0.11455
H_ H_ 0.415938 0.935574 0.257593 0.11455
H_ H_ 0.382447 0.891952 0.298616 0.11455
H_ H_ 0.306667 0.757677 0.219436 0.11455
H_ H_ 0.27056 0.710846 0.261494 0.11455
H_ H_ 0.296054 0.727385 0.309827 0.11455
H_ H_ 0.490411 0.79428 0.362971 0.11455
H_ H_ 0.504261 0.788568 0.414192 0.11455
H_ H_ 0.240952 0.846385 0.386571 0.11455
H_ H_ 0.260497 0.845536 0.439116 0.11455
H_ H_ 0.459346 0.890599 0.494503 0.11455
H_ H_ 0.436874 0.955149 0.0432612 0.11455
H_ H_ 0.428473 0.89833 0.0821415 0.11455
H_ H_ 0.352388 0.753062 0.00723012 0.11455
H_ H_ 0.309035 0.716576 0.0478851 0.11455
H_ H_ 0.32445 0.750553 0.0940085 0.11455
C_ C_ 0.234487 0.686247 0.402696 0.68181
C_ C_ 0.289451 0.686202 0.398425 -0.05681
C_ C_ 0.322916 0.681214 0.421437 -0.08735
C_ C_ 0.37708 0.680261 0.417397 -0.05681
C_ C_ 0.395973 0.677427 0.389597 -0.05681
C_ C_ 0.361987 0.670475 0.365586 -0.08735
C_ C_ 0.309769 0.676522 0.369957 -0.08735
C_ C_ 0.409056 0.681355 0.44139 -0.08735
C_ C_ 0.461826 0.680107 0.437435 -0.08735
C_ C_ 0.482832 0.67938 0.409623 -0.05681
C_ C_ 0.449498 0.679944 0.385587 -0.08735
C_ C_ 0.130016 0.780699 0.412412 0.68181
C_ C_ 0.131851 0.580389 0.397875 0.68181
C_ C_ 0.134352 0.524171 0.396044 -0.05681
C_ C_ 0.142451 0.996329 0.426894 -0.08735
C_ C_ 0.136381 0.943791 0.423763 -0.05681
C_ C_ 0.130586 0.920294 0.396456 -0.05681
C_ C_ 0.133158 0.949894 0.371938 -0.08735
C_ C_ 0.137096 1.00144044 0.374247 -0.08735
C_ C_ 0.135398 0.912009 0.447891 -0.08735
C_ C_ 0.130642 0.859694 0.444889 -0.08735
C_ C_ 0.124726 0.837706 0.417019 -0.05681
C_ C_ 0.123573 0.869153 0.39314 -0.08735
C_ C_ 0.0365394 0.671945 0.408679 0.68181
C_ C_ 0.108364 0.607803 0.481559 0.1947
C_ C_ 0.114181 0.607893 0.0120109 -0.08735
C_ C_ 0.132998 0.63641 0.0341579 -0.08735
C_ C_ 0.15943 0.681545 0.027895 -0.05681
C_ C_ 0.165324 0.697606 0.999201 0.18498
C_ C_ 0.186778 0.721239 0.49043 -0.08735
C_ C_ 0.213631 0.770587 0.0142218 -0.08735
C_ C_ 0.201371 0.760324 0.0417318 -0.08735
C_ C_ 0.175397 0.71627 0.04946 0.18498
C_ C_ 0.204309 0.698156 0.0980412 0.44287
C_ C_ 0.116811 0.718164 0.0900282 0.44287
C_ C_ 0.105038 0.710454 0.120276 -0.05681
C_ C_ 0.0566143 0.709089 0.132176 -0.08735
C_ C_ 0.0504161 0.704723 0.16293 -0.08735
C_ C_ 0.0905554 0.69879 0.181726 -0.05681
C_ C_ 0.139183 0.694049 0.169212 -0.05681
C_ C_ 0.146073 0.699969 0.138292 -0.05681
C_ C_ 0.196765 0.701128 0.128354 -0.05681
C_ C_ 0.238244 0.692971 0.146704 -0.08735
C_ C_ 0.230233 0.692092 0.176034 -0.08735
C_ C_ 0.179498 0.688083 0.186987 -0.05681
C_ C_ 0.172437 0.678958 0.216303 0.44287
C_ C_ 0.0845555 0.698205 0.211768 0.44287
C_ C_ 0.119943 0.668228 0.258095 0.18498
C_ C_ 0.104007 0.617727 0.262195 -0.08735
C_ C_ 0.0942435 0.599013 0.289782 -0.08735
C_ C_ 0.0985767 0.630739 0.314371 -0.08735
C_ C_ 0.118275 0.680547 0.311001 0.18498
C_ C_ 0.128226 0.700077 0.281542 -0.05681
C_ C_ 0.157492 0.742943 0.278279 -0.08735
C_ C_ 0.180236 0.765948 0.302767 -0.08735
C_ C_ 0.168561 0.747948 0.329576 0.1947
C_ C_ 0.269236 0.826846 0.150794 0.68181
C_ C_ 0.21512 0.836829 0.147022 -0.05681
C_ C_ 0.185315 0.83915 0.171464 -0.08735
C_ C_ 0.131096 0.843539 0.167377 -0.05681
C_ C_ 0.108691 0.848314 0.139781 -0.05681
C_ C_ 0.143331 0.85996 0.117051 -0.08735
C_ C_ 0.194494 0.846646 0.120509 -0.08735
C_ C_ 0.0988548 0.835936 0.190498 -0.08735
C_ C_ 0.0463526 0.834639 0.187657 -0.08735
C_ C_ 0.0231581 0.841888 0.159943 -0.05681
C_ C_ 0.0544635 0.848435 0.135453 -0.08735
C_ C_ 0.371052 0.723368 0.159944 0.68181
C_ C_ 0.367439 0.920887 0.145043 0.68181
C_ C_ 0.374391 0.977197 0.143698 -0.05681
C_ C_ 0.363155 0.504116 0.16991 -0.08735
C_ C_ 0.370888 0.556108 0.166467 -0.05681
C_ C_ 0.373354 0.577707 0.139181 -0.05681
C_ C_ 0.375406 0.546008 0.115518 -0.08735
C_ C_ 0.365826 0.0038545 0.118425 -0.08735
C_ C_ 0.368191 0.587681 0.190212 -0.08735
C_ C_ 0.36525 0.640123 0.187917 -0.08735
C_ C_ 0.36728 0.66331 0.160346 -0.05681
C_ C_ 0.373627 0.632343 0.136328 -0.08735
C_ C_ 0.466935 0.821484 0.154941 0.68181
C_ C_ 0.395038 0.880378 0.228938 0.1947
C_ C_ 0.398058 0.900148 0.255918 -0.08735
C_ C_ 0.37878 0.873292 0.278876 -0.08735
C_ C_ 0.355149 0.826776 0.27544 -0.05681
C_ C_ 0.343062 0.811666 0.246852 0.18498
C_ C_ 0.315169 0.767111 0.242022 -0.08735
C_ C_ 0.297194 0.740355 0.26442 -0.08735
C_ C_ 0.309591 0.750943 0.292573 -0.08735
C_ C_ 0.338327 0.795507 0.299295 0.18498
C_ C_ 0.313796 0.828071 0.344236 0.44287
C_ C_ 0.39866 0.805896 0.336959 0.44287
C_ C_ 0.410198 0.810535 0.366284 -0.05681
C_ C_ 0.458597 0.798886 0.377196 -0.08735
C_ C_ 0.468842 0.802232 0.406533 -0.08735
C_ C_ 0.427811 0.806966 0.426286 -0.05681
C_ C_ 0.378893 0.820419 0.415426 -0.05681
C_ C_ 0.369523 0.820611 0.385326 -0.05681
C_ C_ 0.320569 0.831113 0.374456 -0.05681
C_ C_ 0.280856 0.843568 0.394337 -0.08735
C_ C_ 0.291475 0.840845 0.423694 -0.08735
C_ C_ 0.339093 0.827259 0.434949 -0.05681
C_ C_ 0.349743 0.82604 0.464228 0.44287
C_ C_ 0.433459 0.803816 0.456588 0.44287
C_ C_ 0.396224 0.848613 0.00566771 0.18498
C_ C_ 0.420085 0.894945 0.0105549 -0.08735
C_ C_ 0.423203 0.916029 0.0384752 -0.08735
C_ C_ 0.413453 0.884102 0.0617337 -0.08735
C_ C_ 0.392929 0.835944 0.0579143 0.18498
C_ C_ 0.380812 0.819315 0.0298491 -0.05681
C_ C_ 0.355742 0.772418 0.0271867 -0.08735
C_ C_ 0.336471 0.746637 0.0505005 -0.08735
C_ C_ 0.344229 0.767145 0.0775622 0.1947
N_ N_ 0.139219 0.648432 0.475476 -0.29468
N_ N_ 0.165636 0.708823 0.0790932 -0.17154
N_ N_ 0.125808 0.683609 0.22844 -0.17154
N_ N_ 0.138819 0.705924 0.333972 -0.29468
N_ N_ 0.366228 0.836954 0.223849 -0.29468
N_ N_ 0.350748 0.810076 0.327345 -0.17154
N_ N_ 0.39647 0.818296 0.474362 -0.17154
N_ N_ 0.376366 0.807624 0.0806355 -0.29468
O_ O_ 0.214932 0.672255 0.426391 -0.58347
O_ O_ 0.204781 0.694079 0.382218 -0.58347
O_ O_ 0.142598 0.752261 0.432658 -0.58347
O_ O_ 0.121757 0.762098 0.387192 -0.58347
O_ O_ 0.130507 0.60013 0.423363 -0.58347
O_ O_ 0.142655 0.609889 0.376657 -0.58347
O_ O_ 0.0650691 0.674685 0.430545 -0.58347
O_ O_ 0.0548612 0.679523 0.383951 -0.58347
O_ O_ 0.0816478 0.735563 0.0722824 -0.46727
O_ O_ 0.246088 0.683308 0.0873053 -0.46727
O_ O_ 0.0389228 0.687427 0.22176 -0.46727
O_ O_ 0.209811 0.667704 0.233071 -0.46727
O_ O_ 0.290737 0.825476 0.175676 -0.58347
O_ O_ 0.297189 0.820642 0.128365 -0.58347
O_ O_ 0.365642 0.748219 0.182552 -0.58347
O_ O_ 0.373424 0.74622 0.13642 -0.58347
O_ O_ 0.362026 0.90021 0.169405 -0.58347
O_ O_ 0.378552 0.895361 0.12449 -0.58347
O_ O_ 0.439736 0.824768 0.177753 -0.58347
O_ O_ 0.447546 0.814121 0.130583 -0.58347
O_ O_ 0.436622 0.792218 0.320131 -0.46727
O_ O_ 0.268935 0.837007 0.333587 -0.46727
O_ O_ 0.480079 0.794777 0.467054 -0.46727
O_ O_ 0.315903 0.845001 0.482255 -0.46727
Zn Zn 0.129642 0.693185 0.880374 0.90689
Zn Zn 0.141386 0.685797 0.929452 0.90689
Zn Zn 0.380094 0.804618 0.627747 0.90689
Zn Zn 0.362019 0.81446 0.675671 0.90689
H_ H_ 0.301714 0.702749 0.939513 0.11455
H_ H_ 0.371597 0.651582 0.845164 0.11455
H_ H_ 0.277539 0.667264 0.851881 0.11455
H_ H_ 0.387963 0.684022 0.961034 0.11455
H_ H_ 0.474413 0.697425 0.955462 0.11455
H_ H_ 0.46077 0.65346 0.864684 0.11455
H_ H_ 0.156395 0.514221 0.942137 0.11455
H_ H_ 0.118844 0.943491 0.845684 0.11455
H_ H_ 0.131423 0.531485 0.85245 0.11455
H_ H_ 0.160978 0.934947 0.961076 0.11455
H_ H_ 0.152527 0.84433 0.955108 0.11455
H_ H_ 0.103627 0.86143 0.869078 0.11455
H_ H_ 0.0892844 0.612128 0.968493 0.11455
H_ H_ 0.0974768 0.550803 0.514848 0.11455
H_ H_ 0.122152 0.605602 0.55514 0.11455
H_ H_ 0.203159 0.75058 0.971715 0.11455
H_ H_ 0.222059 0.787746 0.507207 0.11455
H_ H_ 0.182508 0.776133 0.557508 0.11455
H_ H_ 1.0104482 0.711393 0.622744 0.11455
H_ H_ 1.00204 0.690486 0.673119 0.11455
H_ H_ 0.26255 0.672882 0.637398 0.11455
H_ H_ 0.256382 0.678345 0.687474 0.11455
H_ H_ 0.0731247 0.59715 0.748426 0.11455
H_ H_ 0.0483617 0.580298 0.798746 0.11455
H_ H_ 0.0806197 0.628689 0.837686 0.11455
H_ H_ 0.166807 0.757427 0.757286 0.11455
H_ H_ 0.196445 0.804138 0.799213 0.11455
H_ H_ 0.174879 0.777989 0.849016 0.11455
H_ H_ 0.203348 0.806355 0.695207 0.11455
H_ H_ 0.123723 0.8177 0.595191 0.11455
H_ H_ 0.218166 0.808067 0.600571 0.11455
H_ H_ 0.115846 0.801734 0.713213 0.11455
H_ H_ 0.0255619 0.810143 0.707649 0.11455
H_ H_ 0.039777 0.809138 0.618463 0.11455
H_ H_ 0.334937 0.979544 0.6859 0.11455
H_ H_ 0.34576 0.559243 0.59792 0.11455
H_ H_ 0.428672 0.963506 0.611474 0.11455
H_ H_ 0.412897 0.563259 0.709959 0.11455
H_ H_ 0.404492 0.658978 0.707043 0.11455
H_ H_ 0.35207 0.637022 0.621201 0.11455
H_ H_ 0.392853 0.903852 0.712649 0.11455
H_ H_ 0.40703 0.931991 0.76065 0.11455
H_ H_ 0.382474 0.881322 0.801065 0.11455
H_ H_ 0.317139 0.744181 0.720008 0.11455
H_ H_ 0.298416 0.68658 0.762229 0.11455
H_ H_ 0.312125 0.715457 0.811386 0.11455
H_ H_ 0.493324 0.791453 0.870361 0.11455
H_ H_ 0.505347 0.800959 0.923084 0.11455
H_ H_ 0.241485 0.827428 0.881705 0.11455
H_ H_ 0.25463 0.854048 0.934009 0.11455
H_ H_ 0.431102 0.914544 0.991666 0.11455
H_ H_ 0.47059 0.914837 0.542169 0.11455
H_ H_ 0.446546 0.856463 0.581621 0.11455
H_ H_ 0.345392 0.744229 0.503157 0.11455
H_ H_ 0.293384 0.716454 0.545406 0.11455
H_ H_ 0.311163 0.747197 0.592186 0.11455
C_ C_ 0.228792 0.682866 0.901224 0.68181
C_ C_ 0.283969 0.679677 0.897018 -0.05681
C_ C_ 0.316918 0.688693 0.91987 -0.08735
C_ C_ 0.369432 0.677843 0.916414 -0.05681
C_ C_ 0.389605 0.664806 0.889751 -0.05681
C_ C_ 0.355692 0.658953 0.866405 -0.08735
C_ C_ 0.303923 0.665562 0.870216 -0.08735
C_ C_ 0.402376 0.675719 0.940186 -0.08735
C_ C_ 0.453947 0.685302 0.936752 -0.08735
C_ C_ 0.475388 0.67428 0.910928 -0.05681
C_ C_ 0.444154 0.665213 0.885599 -0.08735
C_ C_ 0.128366 0.788318 0.910238 0.68181
C_ C_ 0.136192 0.588125 0.900499 0.68181
C_ C_ 0.133194 0.529999 0.897751 -0.05681
C_ C_ 0.134397 1.00421539 0.923108 -0.08735
C_ C_ 0.135857 0.95211 0.919119 -0.05681
C_ C_ 0.126681 0.931489 0.891112 -0.05681
C_ C_ 0.122096 0.96304 0.867745 -0.08735
C_ C_ 0.131016 0.0144133 0.87135 -0.08735
C_ C_ 0.147232 0.919875 0.941325 -0.08735
C_ C_ 0.144647 0.868413 0.938075 -0.08735
C_ C_ 0.12704 0.846217 0.91249 -0.05681
C_ C_ 0.115047 0.877867 0.888839 -0.08735
C_ C_ 0.0353645 0.691689 0.909589 0.68181
C_ C_ 0.113269 0.628304 0.984119 0.1947
C_ C_ 0.111379 0.588766 0.50971 -0.08735
C_ C_ 0.129115 0.618099 0.532489 -0.08735
C_ C_ 0.146636 0.66644 0.527677 -0.05681
C_ C_ 0.157345 0.677949 0.497564 0.18498
C_ C_ 0.194315 0.740122 0.992782 -0.08735
C_ C_ 0.197981 0.755024 0.512731 -0.08735
C_ C_ 0.179811 0.747783 0.541595 -0.08735
C_ C_ 0.156713 0.702225 0.549269 0.18498
C_ C_ 0.187891 0.682508 0.595532 0.44287
C_ C_ 0.0984624 0.694657 0.590421 0.44287
C_ C_ 0.0906486 0.688639 0.620479 -0.05681
C_ C_ 0.0437712 0.694732 0.633306 -0.08735
C_ C_ 0.0381871 0.693519 0.663062 -0.08735
C_ C_ 0.0814202 0.689015 0.681523 -0.05681
C_ C_ 0.128791 0.688047 0.669015 -0.05681
C_ C_ 0.132921 0.684068 0.638143 -0.05681
C_ C_ 0.183476 0.679214 0.625938 -0.05681
C_ C_ 0.227129 0.673655 0.644755 -0.08735
C_ C_ 0.220845 0.675399 0.674688 -0.08735
C_ C_ 0.171793 0.680011 0.687167 -0.05681
C_ C_ 0.164482 0.673271 0.717237 0.44287
C_ C_ 0.0771037 0.684581 0.711808 0.44287
C_ C_ 0.111658 0.665936 0.759943 0.18498
C_ C_ 0.0852128 0.621812 0.764829 -0.08735
C_ C_ 0.0733068 0.609209 0.793206 -0.08735
C_ C_ 0.0922708 0.638396 0.815803 -0.08735
C_ C_ 0.12163 0.682252 0.811457 0.18498
C_ C_ 0.130432 0.698426 0.782844 -0.05681
C_ C_ 0.153964 0.745283 0.778207 -0.08735
C_ C_ 0.171261 0.772083 0.801505 -0.08735
C_ C_ 0.158489 0.756752 0.829926 0.1947
C_ C_ 0.273759 0.80478 0.649649 0.68181
C_ C_ 0.216425 0.806608 0.64775 -0.05681
C_ C_ 0.186361 0.812249 0.672735 -0.08735
C_ C_ 0.13309 0.813982 0.669324 -0.05681
C_ C_ 0.11224 0.817081 0.641026 -0.05681
C_ C_ 0.142641 0.814191 0.616452 -0.08735
C_ C_ 0.195387 0.806503 0.620235 -0.08735
C_ C_ 0.101378 0.81113 0.692948 -0.08735
C_ C_ 0.0497143 0.817481 0.68949 -0.08735
C_ C_ 0.0282038 0.817564 0.662448 -0.05681
C_ C_ 0.0585301 0.817363 0.637718 -0.08735
C_ C_ 0.374812 0.710973 0.658855 0.68181
C_ C_ 0.368583 0.909393 0.646657 0.68181
C_ C_ 0.377696 0.965651 0.646879 -0.05681
C_ C_ 0.380205 0.497324 0.669205 -0.08735
C_ C_ 0.378247 0.550818 0.6675 -0.05681
C_ C_ 0.355268 0.572451 0.643837 -0.05681
C_ C_ 0.348733 0.541788 0.619106 -0.08735
C_ C_ 0.412592 0.988245 0.627084 -0.08735
C_ C_ 0.395878 0.581184 0.690984 -0.08735
C_ C_ 0.387938 0.634001 0.690375 -0.08735
C_ C_ 0.372594 0.655938 0.663799 -0.05681
C_ C_ 0.358063 0.623203 0.641709 -0.08735
C_ C_ 0.468221 0.818606 0.655864 0.68181
C_ C_ 0.386968 0.87807 0.730286 0.1947
C_ C_ 0.389493 0.895846 0.757466 -0.08735
C_ C_ 0.376554 0.865692 0.780705 -0.08735
C_ C_ 0.3613 0.816664 0.776929 -0.05681
C_ C_ 0.355116 0.799481 0.747824 0.18498
C_ C_ 0.330438 0.75289 0.742712 -0.08735
C_ C_ 0.316033 0.721281 0.766473 -0.08735
C_ C_ 0.323802 0.737653 0.794731 -0.08735
C_ C_ 0.347892 0.784632 0.799781 0.18498
C_ C_ 0.316035 0.818402 0.844589 0.44287
C_ C_ 0.403332 0.795297 0.840366 0.44287
C_ C_ 0.412212 0.806536 0.870533 -0.05681
C_ C_ 0.459113 0.796495 0.88282 -0.08735
C_ C_ 0.46596 0.802059 0.912394 -0.08735
C_ C_ 0.423825 0.808238 0.930834 -0.05681
C_ C_ 0.375003 0.819299 0.917649 -0.05681
C_ C_ 0.369316 0.819644 0.887241 -0.05681
C_ C_ 0.321625 0.826154 0.874255 -0.05681
C_ C_ 0.280454 0.833629 0.891624 -0.08735
C_ C_ 0.285623 0.838413 0.922073 -0.08735
C_ C_ 0.334285 0.829895 0.934993 -0.05681
C_ C_ 0.339958 0.834809 0.964968 0.44287
C_ C_ 0.428174 0.814685 0.96161 0.44287
C_ C_ 0.408765 0.827302 0.504473 0.18498
C_ C_ 0.438595 0.870456 0.511195 -0.08735
C_ C_ 0.446272 0.885085 0.538788 -0.08735
C_ C_ 0.432505 0.850923 0.561444 -0.08735
C_ C_ 0.392674 0.820097 0.556987 0.18498
C_ C_ 0.385204 0.801206 0.528204 -0.05681
C_ C_ 0.350404 0.76186 0.524022 -0.08735
C_ C_ 0.325163 0.742246 0.547873 -0.08735
C_ C_ 0.33679 0.758949 0.575449 0.1947
N_ N_ 0.142757 0.670293 0.977616 -0.29468
N_ N_ 0.146089 0.690521 0.57854 -0.17154
N_ N_ 0.118746 0.681897 0.730014 -0.17154
N_ N_ 0.129958 0.714554 0.833428 -0.29468
N_ N_ 0.366978 0.830801 0.725642 -0.29468
N_ N_ 0.356472 0.801002 0.828783 -0.17154
N_ N_ 0.387948 0.830508 0.977707 -0.17154
N_ N_ 0.374302 0.792445 0.57983 -0.29468
O_ O_ 0.212839 0.6812 0.927012 -0.58347
O_ O_ 0.202916 0.702984 0.881297 -0.58347
O_ O_ 0.142053 0.761227 0.931146 -0.58347
O_ O_ 0.118405 0.766781 0.88596 -0.58347
O_ O_ 0.13779 0.606608 0.924246 -0.58347
O_ O_ 0.135322 0.618739 0.879023 -0.58347
O_ O_ 0.067972 0.689468 0.930425 -0.58347
O_ O_ 0.0518216 0.68491 0.884966 -0.58347
O_ O_ 0.0580291 0.699805 0.575176 -0.46727
O_ O_ 0.233372 0.687414 0.583645 -0.46727
O_ O_ 0.0321678 0.69015 0.723286 -0.46727
O_ O_ 0.204677 0.665948 0.73384 -0.46727
O_ O_ 0.291957 0.798609 0.673691 -0.58347
O_ O_ 0.302129 0.810337 0.627767 -0.58347
O_ O_ 0.37743 0.739238 0.68068 -0.58347
O_ O_ 0.367828 0.730901 0.63443 -0.58347
O_ O_ 0.345192 0.888314 0.667712 -0.58347
O_ O_ 0.384331 0.882751 0.625028 -0.58347
O_ O_ 0.436486 0.833943 0.673618 -0.58347
O_ O_ 0.454041 0.795621 0.633132 -0.58347
O_ O_ 0.440788 0.785878 0.823392 -0.46727
O_ O_ 0.27084 0.82085 0.834073 -0.46727
O_ O_ 0.4748 0.812125 0.973147 -0.46727
O_ O_ 0.301636 0.848692 0.980361 -0.46727
Zn Zn 0.62649 0.180063 0.381872 0.90689
Zn Zn 0.639153 0.175221 0.43115 0.90689
Zn Zn 0.873449 0.314603 0.132368 0.90689
Zn Zn 0.865638 0.326514 0.17869 0.90689
H_ H_ 0.803433 0.193208 0.448775 0.11455
H_ H_ 0.876477 0.181284 0.350562 0.11455
H_ H_ 0.784296 0.202176 0.360179 0.11455
H_ H_ 0.890058 0.194681 0.469224 0.11455
H_ H_ 0.981051 0.192585 0.463426 0.11455
H_ H_ 0.964726 0.174878 0.372584 0.11455
H_ H_ 0.632407 0.00410815 0.44337 0.11455
H_ H_ 0.627364 0.429253 0.344621 0.11455
H_ H_ 0.647646 0.018775 0.35252 0.11455
H_ H_ 0.61781 0.427033 0.463287 0.11455
H_ H_ 0.603555 0.339441 0.460417 0.11455
H_ H_ 0.626045 0.343801 0.369685 0.11455
H_ H_ 0.578194 0.102118 0.464581 0.11455
H_ H_ 0.598827 0.0580679 0.00984736 0.11455
H_ H_ 0.618819 0.111812 0.0521627 0.11455
H_ H_ 0.702762 0.224794 0.477647 0.11455
H_ H_ 0.709319 0.305083 0.0113175 0.11455
H_ H_ 0.684133 0.283368 0.0602802 0.11455
H_ H_ 0.509309 0.202688 0.119466 0.11455
H_ H_ 0.501641 0.19512 0.170801 0.11455
H_ H_ 0.764812 0.164634 0.13632 0.11455
H_ H_ 0.750545 0.143229 0.188547 0.11455
H_ H_ 0.561371 0.0954124 0.245911 0.11455
H_ H_ 0.543187 0.0701404 0.293878 0.11455
H_ H_ 0.580032 0.116058 0.335825 0.11455
H_ H_ 0.67027 0.243811 0.257076 0.11455
H_ H_ 0.701542 0.284347 0.301297 0.11455
H_ H_ 0.673056 0.258049 0.34737 0.11455
H_ H_ 0.700446 0.306286 0.198682 0.11455
H_ H_ 0.630049 0.326396 0.101663 0.11455
H_ H_ 0.720421 0.327924 0.10667 0.11455
H_ H_ 0.612689 0.310187 0.218517 0.11455
H_ H_ 0.524597 0.318429 0.212853 0.11455
H_ H_ 0.543809 0.329954 0.121542 0.11455
H_ H_ 0.86521 0.489814 0.192307 0.11455
H_ H_ 0.834741 0.0765555 0.103226 0.11455
H_ H_ 0.857233 0.478922 0.100557 0.11455
H_ H_ 0.897187 0.0773569 0.217707 0.11455
H_ H_ 0.909387 0.168773 0.210482 0.11455
H_ H_ 0.862713 0.15502 0.123505 0.11455
H_ H_ 0.918777 0.39555 0.216525 0.11455
H_ H_ 0.936683 0.420751 0.265942 0.11455
H_ H_ 0.901062 0.373149 0.305817 0.11455
H_ H_ 0.800079 0.261609 0.221878 0.11455
H_ H_ 0.766628 0.204924 0.260716 0.11455
H_ H_ 0.792592 0.223887 0.311061 0.11455
H_ H_ 0.979631 0.301768 0.374422 0.11455
H_ H_ -0.006824000000000052 0.305089 0.427644 0.11455
H_ H_ 0.727354 0.325464 0.391646 0.11455
H_ H_ 0.741442 0.334301 0.442264 0.11455
H_ H_ 0.919719 0.402487 0.500527 0.11455
H_ H_ 0.937946 0.449072 0.0452929 0.11455
H_ H_ 0.909132 0.400777 0.0879238 0.11455
H_ H_ 0.850456 0.250855 0.0106197 0.11455
H_ H_ 0.81144 0.207874 0.0513176 0.11455
H_ H_ 0.820806 0.242423 0.0992138 0.11455
C_ C_ 0.730797 0.178052 0.40681 0.68181
C_ C_ 0.786602 0.182794 0.403336 -0.05681
C_ C_ 0.820096 0.186444 0.426947 -0.08735
C_ C_ 0.872909 0.187458 0.424191 -0.05681
C_ C_ 0.893287 0.184036 0.396037 -0.05681
C_ C_ 0.861896 0.184102 0.372645 -0.08735
C_ C_ 0.809327 0.188865 0.376487 -0.08735
C_ C_ 0.905587 0.189799 0.44824 -0.08735
C_ C_ 0.957038 0.182353 0.445834 -0.08735
C_ C_ 0.97816 0.178269 0.417377 -0.05681
C_ C_ 0.946725 0.178538 0.393211 -0.08735
C_ C_ 0.627102 0.277833 0.411967 0.68181
C_ C_ 0.635848 0.0769089 0.40142 0.68181
C_ C_ 0.630382 0.0191593 0.39905 -0.05681
C_ C_ 0.629609 0.49286 0.420424 -0.08735
C_ C_ 0.619824 0.440417 0.418415 -0.05681
C_ C_ 0.6219 0.415803 0.39098 -0.05681
C_ C_ 0.627027 0.446107 0.365782 -0.08735
C_ C_ 0.637273 0.499338 0.368764 -0.08735
C_ C_ 0.61372 0.411138 0.443496 -0.08735
C_ C_ 0.609254 0.35871 0.440708 -0.08735
C_ C_ 0.615942 0.333131 0.414225 -0.05681
C_ C_ 0.621024 0.363423 0.38988 -0.08735
C_ C_ 0.534541 0.182418 0.407423 0.68181
C_ C_ 0.594384 0.120252 0.482956 0.1947
C_ C_ 0.606741 0.0986471 0.00818764 -0.08735
C_ C_ 0.625429 0.126513 0.0312955 -0.08735
C_ C_ 0.6388 0.178712 0.0271076 -0.05681
C_ C_ 0.647438 0.195625 0.998258 0.18498
C_ C_ 0.686987 0.220838 0.498354 -0.08735
C_ C_ 0.684452 0.275071 0.0153266 -0.08735
C_ C_ 0.676335 0.258973 0.0433296 -0.08735
C_ C_ 0.656803 0.210663 0.0498704 0.18498
C_ C_ 0.688972 0.180346 0.0957571 0.44287
C_ C_ 0.600392 0.196207 0.0905473 0.44287
C_ C_ 0.594369 0.1911 0.120766 -0.05681
C_ C_ 0.54497 0.197397 0.132989 -0.08735
C_ C_ 0.538918 0.195456 0.163193 -0.08735
C_ C_ 0.583048 0.188605 0.180934 -0.05681
C_ C_ 0.629608 0.173606 0.168565 -0.05681
C_ C_ 0.636992 0.182769 0.138811 -0.05681
C_ C_ 0.685609 0.175517 0.125711 -0.05681
C_ C_ 0.727125 0.165721 0.143659 -0.08735
C_ C_ 0.718886 0.154415 0.173862 -0.08735
C_ C_ 0.671245 0.164342 0.186491 -0.05681
C_ C_ 0.661206 0.16279 0.216928 0.44287
C_ C_ 0.576294 0.187159 0.210971 0.44287
C_ C_ 0.604347 0.165295 0.257806 0.18498
C_ C_ 0.57847 0.118998 0.262705 -0.08735
C_ C_ 0.565898 0.104449 0.290603 -0.08735
C_ C_ 0.587261 0.12822 0.313633 -0.08735
C_ C_ 0.619801 0.169016 0.30958 0.18498
C_ C_ 0.62856 0.189447 0.281633 -0.05681
C_ C_ 0.661966 0.231118 0.278702 -0.08735
C_ C_ 0.679778 0.25208 0.302656 -0.08735
C_ C_ 0.664857 0.237789 0.329778 0.1947
C_ C_ 0.772467 0.325213 0.15597 0.68181
C_ C_ 0.716846 0.319599 0.153807 -0.05681
C_ C_ 0.683806 0.311915 0.177532 -0.08735
C_ C_ 0.630988 0.315971 0.174198 -0.05681
C_ C_ 0.61054 0.319696 0.146325 -0.05681
C_ C_ 0.644858 0.323037 0.123287 -0.08735
C_ C_ 0.696679 0.323714 0.126195 -0.08735
C_ C_ 0.597051 0.31429 0.197049 -0.08735
C_ C_ 0.546098 0.317599 0.193014 -0.08735
C_ C_ 0.524171 0.322604 0.16535 -0.05681
C_ C_ 0.557792 0.3235 0.142177 -0.08735
C_ C_ 0.883165 0.226312 0.163186 0.68181
C_ C_ 0.870089 0.421728 0.148189 0.68181
C_ C_ 0.866685 0.478653 0.145569 -0.05681
C_ C_ 0.863222 0.0106752 0.175616 -0.08735
C_ C_ 0.867015 0.0625609 0.173658 -0.05681
C_ C_ 0.858591 0.0871054 0.146981 -0.05681
C_ C_ 0.842266 0.0587613 0.123652 -0.08735
C_ C_ 0.861484 0.502041 0.118736 -0.08735
C_ C_ 0.892409 0.090401 0.196025 -0.08735
C_ C_ 0.895418 0.144395 0.193036 -0.08735
C_ C_ 0.880374 0.169529 0.167175 -0.05681
C_ C_ 0.868918 0.13907 0.144255 -0.08735
C_ C_ 0.969131 0.318146 0.157082 0.68181
C_ C_ 0.89803 0.376589 0.233752 0.1947
C_ C_ 0.907239 0.391323 0.261306 -0.08735
C_ C_ 0.885583 0.365053 0.283857 -0.08735
C_ C_ 0.856637 0.322051 0.279837 -0.05681
C_ C_ 0.846596 0.308674 0.24966 0.18498
C_ C_ 0.81186 0.26618 0.243616 -0.08735
C_ C_ 0.790237 0.238627 0.266172 -0.08735
C_ C_ 0.800572 0.251213 0.294948 -0.08735
C_ C_ 0.834431 0.292228 0.302828 0.18498
C_ C_ 0.802677 0.314888 0.350017 0.44287
C_ C_ 0.893005 0.301583 0.344829 0.44287
C_ C_ 0.901326 0.311346 0.374676 -0.05681
C_ C_ 0.948966 0.307817 0.387094 -0.08735
C_ C_ 0.954768 0.309473 0.416322 -0.08735
C_ C_ 0.912289 0.317081 0.433784 -0.05681
C_ C_ 0.8629 0.322672 0.421706 -0.05681
C_ C_ 0.857418 0.319482 0.39205 -0.05681
C_ C_ 0.808593 0.322016 0.380415 -0.05681
C_ C_ 0.766123 0.326815 0.398853 -0.08735
C_ C_ 0.772711 0.330502 0.428337 -0.08735
C_ C_ 0.821465 0.329307 0.44027 -0.05681
C_ C_ 0.829739 0.328598 0.470154 0.44287
C_ C_ 0.915934 0.315205 0.463676 0.44287
C_ C_ 0.880961 0.350889 0.0115094 0.18498
C_ C_ 0.903135 0.398832 0.0162541 -0.08735
C_ C_ 0.913681 0.416088 0.0431098 -0.08735
C_ C_ 0.906684 0.384481 0.0669473 -0.08735
C_ C_ 0.879723 0.337099 0.063537 0.18498
C_ C_ 0.87049 0.31826 0.0348107 -0.05681
C_ C_ 0.854584 0.26711 0.0320637 -0.08735
C_ C_ 0.835209 0.240196 0.0552409 -0.08735
C_ C_ 0.840878 0.260764 0.0825831 0.1947
N_ N_ 0.6284 0.160016 0.479128 -0.29468
N_ N_ 0.647931 0.193963 0.0792207 -0.17154
N_ N_ 0.615936 0.178034 0.22848 -0.17154
N_ N_ 0.636623 0.195793 0.333181 -0.29468
N_ N_ 0.86846 0.334496 0.227712 -0.29468
N_ N_ 0.844589 0.303028 0.333036 -0.17154
N_ N_ 0.8748 0.321929 0.48172 -0.17154
N_ N_ 0.864099 0.306245 0.0863546 -0.29468
O_ O_ 0.713603 0.174761 0.431553 -0.58347
O_ O_ 0.702372 0.18691 0.38533 -0.58347
O_ O_ 0.631061 0.251876 0.434734 -0.58347
O_ O_ 0.620961 0.255676 0.38826 -0.58347
O_ O_ 0.638242 0.0966131 0.425735 -0.58347
O_ O_ 0.636638 0.105499 0.379589 -0.58347
O_ O_ 0.561453 0.180375 0.429199 -0.58347
O_ O_ 0.552206 0.177328 0.383236 -0.58347
O_ O_ 0.562648 0.202126 0.0734117 -0.46727
O_ O_ 0.731762 0.174929 0.0841804 -0.46727
O_ O_ 0.534601 0.20463 0.221592 -0.46727
O_ O_ 0.697455 0.147569 0.233781 -0.46727
O_ O_ 0.793231 0.336922 0.180184 -0.58347
O_ O_ 0.799815 0.304509 0.136908 -0.58347
O_ O_ 0.861046 0.254633 0.181144 -0.58347
O_ O_ 0.891148 0.242514 0.13784 -0.58347
O_ O_ 0.875794 0.402081 0.171644 -0.58347
O_ O_ 0.856281 0.392122 0.128006 -0.58347
O_ O_ 0.940008 0.313184 0.177845 -0.58347
O_ O_ 0.949902 0.325293 0.13255 -0.58347
O_ O_ 0.931305 0.290793 0.328929 -0.46727
O_ O_ 0.756956 0.313905 0.338717 -0.46727
O_ O_ 0.960578 0.306776 0.474654 -0.46727
O_ O_ 0.788303 0.331945 0.487031 -0.46727
Zn Zn 0.619133 0.193496 0.881747 0.90689
Zn Zn 0.625671 0.181662 0.930658 0.90689
Zn Zn 0.878814 0.303086 0.633337 0.90689
Zn Zn 0.865268 0.310881 0.680961 0.90689
H_ H_ 0.79072 0.18565 0.942286 0.11455
H_ H_ 0.865588 0.167636 0.844901 0.11455
H_ H_ 0.772184 0.18622 0.853541 0.11455
H_ H_ 0.885512 0.19105 0.962856 0.11455
H_ H_ 0.974268 0.193801 0.954938 0.11455
H_ H_ 0.947289 0.164122 0.865873 0.11455
H_ H_ 0.596213 0.0178628 0.939537 0.11455
H_ H_ 0.647411 0.437257 0.851735 0.11455
H_ H_ 0.637447 0.0293344 0.851226 0.11455
H_ H_ 0.583856 0.437995 0.963034 0.11455
H_ H_ 0.589644 0.34778 0.963221 0.11455
H_ H_ 0.634952 0.355531 0.874244 0.11455
H_ H_ 0.584822 0.102399 0.965912 0.11455
H_ H_ 0.539263 0.0830176 0.511956 0.11455
H_ H_ 0.584795 0.115262 0.555132 0.11455
H_ H_ 0.676617 0.258533 0.971911 0.11455
H_ H_ 0.73245 0.280904 0.516218 0.11455
H_ H_ 0.693142 0.268964 0.565326 0.11455
H_ H_ 0.509027 0.204515 0.622134 0.11455
H_ H_ 0.49195 0.191372 0.670964 0.11455
H_ H_ 0.755233 0.153301 0.644034 0.11455
H_ H_ 0.735525 0.13807 0.694945 0.11455
H_ H_ 0.531696 0.0997733 0.753781 0.11455
H_ H_ 0.506138 0.0902263 0.809126 0.11455
H_ H_ 0.555022 0.135484 0.843644 0.11455
H_ H_ 0.652215 0.241878 0.75496 0.11455
H_ H_ 0.689061 0.288889 0.798041 0.11455
H_ H_ 0.68293 0.254827 0.845157 0.11455
H_ H_ 0.70529 0.31166 0.695522 0.11455
H_ H_ 0.632681 0.310957 0.597953 0.11455
H_ H_ 0.723037 0.297335 0.606376 0.11455
H_ H_ 0.609347 0.310111 0.717177 0.11455
H_ H_ 0.52108 0.326874 0.708066 0.11455
H_ H_ 0.544317 0.316479 0.615764 0.11455
H_ H_ 0.886494 0.476607 0.69171 0.11455
H_ H_ 0.874772 0.050799 0.600157 0.11455
H_ H_ 0.833571 0.466659 0.602189 0.11455
H_ H_ 0.870665 0.0626221 0.718367 0.11455
H_ H_ 0.893446 0.150047 0.712667 0.11455
H_ H_ 0.865312 0.135259 0.621035 0.11455
H_ H_ 0.913621 0.388996 0.71352 0.11455
H_ H_ 0.925215 0.423088 0.764562 0.11455
H_ H_ 0.885553 0.382456 0.806283 0.11455
H_ H_ 0.805118 0.242792 0.726658 0.11455
H_ H_ 0.78023 0.193834 0.768931 0.11455
H_ H_ 0.793322 0.228173 0.816628 0.11455
H_ H_ 0.978597 0.319246 0.872557 0.11455
H_ H_ -0.009835999999999956 0.333688 0.923788 0.11455
H_ H_ 0.726558 0.319786 0.889865 0.11455
H_ H_ 0.737947 0.338267 0.940324 0.11455
H_ H_ 0.915631 0.422476 0.998335 0.11455
H_ H_ 0.95828 0.413715 0.548301 0.11455
H_ H_ 0.936967 0.360556 0.586363 0.11455
H_ H_ 0.835068 0.240018 0.510733 0.11455
H_ H_ 0.817358 0.188778 0.552317 0.11455
H_ H_ 0.839246 0.216344 0.600449 0.11455
C_ C_ 0.720568 0.190704 0.902085 0.68181
C_ C_ 0.774536 0.182712 0.898263 -0.05681
C_ C_ 0.809413 0.190265 0.921924 -0.08735
C_ C_ 0.86138 0.190026 0.917383 -0.05681
C_ C_ 0.881686 0.183515 0.889526 -0.05681
C_ C_ 0.84832 0.175641 0.866165 -0.08735
C_ C_ 0.797025 0.17812 0.87108 -0.08735
C_ C_ 0.896542 0.184854 0.941168 -0.08735
C_ C_ 0.948697 0.19206 0.936842 -0.08735
C_ C_ 0.968353 0.185069 0.909558 -0.05681
C_ C_ 0.935122 0.178871 0.885457 -0.08735
C_ C_ 0.618599 0.288272 0.914629 0.68181
C_ C_ 0.620945 0.0897862 0.898172 0.68181
C_ C_ 0.624518 0.0347986 0.896435 -0.05681
C_ C_ 0.616773 0.503637 0.924128 -0.08735
C_ C_ 0.614258 0.450163 0.921397 -0.05681
C_ C_ 0.628765 0.425727 0.894695 -0.05681
C_ C_ 0.646381 0.455848 0.872344 -0.08735
C_ C_ 0.647999 0.508951 0.87377 -0.08735
C_ C_ 0.600236 0.420413 0.944554 -0.08735
C_ C_ 0.603797 0.367929 0.943797 -0.08735
C_ C_ 0.618324 0.342276 0.918097 -0.05681
C_ C_ 0.631023 0.37377 0.894044 -0.08735
C_ C_ 0.524943 0.182748 0.907677 0.68181
C_ C_ 0.604929 0.121311 0.982224 0.1947
C_ C_ 0.574596 0.108915 0.509962 -0.08735
C_ C_ 0.597819 0.131001 0.535231 -0.08735
C_ C_ 0.633763 0.170848 0.531398 -0.05681
C_ C_ 0.649984 0.183381 0.503037 0.18498
C_ C_ 0.669831 0.242763 0.993149 -0.08735
C_ C_ 0.702771 0.253391 0.521558 -0.08735
C_ C_ 0.68658 0.239822 0.549205 -0.08735
C_ C_ 0.654922 0.198141 0.554889 0.18498
C_ C_ 0.685271 0.17359 0.603028 0.44287
C_ C_ 0.600074 0.197679 0.596051 0.44287
C_ C_ 0.587406 0.186915 0.625232 -0.05681
C_ C_ 0.53975 0.196321 0.635855 -0.08735
C_ C_ 0.530343 0.191222 0.66413 -0.08735
C_ C_ 0.569057 0.181876 0.683848 -0.05681
C_ C_ 0.618166 0.176681 0.674085 -0.05681
C_ C_ 0.627924 0.173916 0.643975 -0.05681
C_ C_ 0.677896 0.172249 0.633348 -0.05681
C_ C_ 0.716164 0.159492 0.651947 -0.08735
C_ C_ 0.706626 0.150979 0.681466 -0.08735
C_ C_ 0.656935 0.158613 0.692182 -0.05681
C_ C_ 0.64573 0.153604 0.722162 0.44287
C_ C_ 0.560025 0.176637 0.713892 0.44287
C_ C_ 0.584991 0.158064 0.763578 0.18498
C_ C_ 0.549317 0.12085 0.771943 -0.08735
C_ C_ 0.531846 0.118576 0.8016 -0.08735
C_ C_ 0.561029 0.143601 0.821633 -0.08735
C_ C_ 0.598827 0.179074 0.813484 0.18498
C_ C_ 0.6099 0.187945 0.783581 -0.05681
C_ C_ 0.645515 0.228941 0.777136 -0.08735
C_ C_ 0.670232 0.251853 0.799841 -0.08735
C_ C_ 0.661151 0.23676 0.827712 0.1947
C_ C_ 0.774889 0.297459 0.655201 0.68181
C_ C_ 0.718822 0.296071 0.651971 -0.05681
C_ C_ 0.686128 0.302507 0.675159 -0.08735
C_ C_ 0.631819 0.310821 0.670337 -0.05681
C_ C_ 0.613681 0.315037 0.642619 -0.05681
C_ C_ 0.647243 0.309724 0.619232 -0.08735
C_ C_ 0.699365 0.304463 0.624446 -0.08735
C_ C_ 0.598702 0.315054 0.69427 -0.08735
C_ C_ 0.546297 0.31859 0.689965 -0.08735
C_ C_ 0.526763 0.323088 0.661527 -0.05681
C_ C_ 0.561365 0.321841 0.637999 -0.08735
C_ C_ 0.880686 0.207493 0.664867 0.68181
C_ C_ 0.855694 0.406416 0.649309 0.68181
C_ C_ 0.857107 0.46411 0.647463 -0.05681
C_ C_ 0.871407 -0.007873000000000019 0.675276 -0.08735
C_ C_ 0.869934 0.0459593 0.673484 -0.05681
C_ C_ 0.871237 0.0689263 0.644931 -0.05681
C_ C_ 0.869191 0.0359907 0.620972 -0.08735
C_ C_ 0.848337 0.488878 0.620868 -0.08735
C_ C_ 0.87773 0.0764015 0.697409 -0.08735
C_ C_ 0.884947 0.128132 0.694809 -0.08735
C_ C_ 0.879943 0.152975 0.667139 -0.05681
C_ C_ 0.872979 0.121604 0.642383 -0.08735
C_ C_ 0.968918 0.321505 0.660543 0.68181
C_ C_ 0.895382 0.372142 0.731953 0.1947
C_ C_ 0.899017 0.393666 0.75972 -0.08735
C_ C_ 0.877023 0.368965 0.783655 -0.08735
C_ C_ 0.850989 0.323305 0.780089 -0.05681
C_ C_ 0.839995 0.306737 0.751566 0.18498
C_ C_ 0.811953 0.259199 0.74797 -0.08735
C_ C_ 0.799009 0.230913 0.772701 -0.08735
C_ C_ 0.813038 0.246639 0.79921 -0.08735
C_ C_ 0.837431 0.293211 0.804449 0.18498
C_ C_ 0.801399 0.316094 0.851009 0.44287
C_ C_ 0.891559 0.315675 0.845919 0.44287
C_ C_ 0.897102 0.32198 0.87492 -0.05681
C_ C_ 0.945012 0.324734 0.886744 -0.08735
C_ C_ 0.953553 0.324644 0.916206 -0.08735
C_ C_ 0.911354 0.322292 0.934591 -0.05681
C_ C_ 0.861124 0.318976 0.922996 -0.05681
C_ C_ 0.85498 0.319231 0.893069 -0.05681
C_ C_ 0.806092 0.315134 0.880569 -0.05681
C_ C_ 0.762138 0.316603 0.89828 -0.08735
C_ C_ 0.768562 0.320263 0.928839 -0.08735
C_ C_ 0.817431 0.321274 0.941161 -0.05681
C_ C_ 0.825475 0.335342 0.970106 0.44287
C_ C_ 0.916505 0.328518 0.964355 0.44287
C_ C_ 0.883165 0.331975 0.511893 0.18498
C_ C_ 0.908627 0.377698 0.517713 -0.08735
C_ C_ 0.929686 0.38616 0.544524 -0.08735
C_ C_ 0.914733 0.357515 0.568094 -0.08735
C_ C_ 0.883276 0.315949 0.563832 0.18498
C_ C_ 0.86899 0.299491 0.535095 -0.05681
C_ C_ 0.843153 0.254363 0.532807 -0.08735
C_ C_ 0.839239 0.222425 0.555128 -0.08735
C_ C_ 0.850411 0.239356 0.583476 0.1947
N_ N_ 0.626622 0.167769 0.976278 -0.29468
N_ N_ 0.646804 0.187546 0.585107 -0.17154
N_ N_ 0.597556 0.160948 0.731984 -0.17154
N_ N_ 0.622757 0.203246 0.834281 -0.29468
N_ N_ 0.865995 0.32864 0.72899 -0.29468
N_ N_ 0.844068 0.311644 0.833572 -0.17154
N_ N_ 0.875438 0.333173 0.982173 -0.17154
N_ N_ 0.874379 0.284717 0.587062 -0.29468
O_ O_ 0.703137 0.193008 0.927246 -0.58347
O_ O_ 0.691858 0.186093 0.880683 -0.58347
O_ O_ 0.613232 0.259685 0.937154 -0.58347
O_ O_ 0.622573 0.268887 0.889891 -0.58347
O_ O_ 0.630225 0.109102 0.922894 -0.58347
O_ O_ 0.619534 0.118966 0.876653 -0.58347
O_ O_ 0.552454 0.176034 0.929391 -0.58347
O_ O_ 0.546042 0.190721 0.884047 -0.58347
O_ O_ 0.566889 0.222201 0.581467 -0.46727
O_ O_ 0.726708 0.155849 0.592023 -0.46727
O_ O_ 0.517468 0.196233 0.724454 -0.46727
O_ O_ 0.68312 0.144246 0.739203 -0.46727
O_ O_ 0.793069 0.30785 0.679069 -0.58347
O_ O_ 0.804267 0.291197 0.633564 -0.58347
O_ O_ 0.871555 0.233082 0.687929 -0.58347
O_ O_ 0.891413 0.229715 0.64156 -0.58347
O_ O_ 0.859606 0.38703 0.673699 -0.58347
O_ O_ 0.868785 0.379794 0.628369 -0.58347
O_ O_ 0.940905 0.317309 0.68233 -0.58347
O_ O_ 0.950017 0.314799 0.635534 -0.58347
O_ O_ 0.931431 0.310905 0.829507 -0.46727
O_ O_ 0.756551 0.322748 0.838911 -0.46727
O_ O_ 0.962768 0.322432 0.975346 -0.46727
O_ O_ 0.788515 0.356006 0.985623 -0.46727
Zn Zn 0.630164 0.681105 0.381416 0.90689
Zn Zn 0.643168 0.672796 0.428379 0.90689
Zn Zn 0.875253 0.822948 0.131718 0.90689
Zn Zn 0.859977 0.829537 0.180499 0.90689
H_ H_ 0.809252 0.699654 0.444245 0.11455
H_ H_ 0.878047 0.671977 0.346026 0.11455
H_ H_ 0.789149 0.66871 0.352413 0.11455
H_ H_ 0.895392 0.701932 0.462534 0.11455
H_ H_ 0.984418 0.685514 0.457788 0.11455
H_ H_ 0.963697 0.655268 0.36727 0.11455
H_ H_ 0.636385 0.50823 0.441651 0.11455
H_ H_ 0.643146 0.927432 0.347259 0.11455
H_ H_ 0.652056 0.520584 0.350646 0.11455
H_ H_ 0.616261 0.92009 0.464654 0.11455
H_ H_ 0.625469 0.828827 0.462101 0.11455
H_ H_ 0.629379 0.843151 0.368111 0.11455
H_ H_ 0.601106 0.58816 0.46654 0.11455
H_ H_ 0.567469 0.581942 0.0167996 0.11455
H_ H_ 0.625777 0.612778 0.0545225 0.11455
H_ H_ 0.709978 0.726261 0.475549 0.11455
H_ H_ 0.701761 0.814234 0.0130644 0.11455
H_ H_ 0.687073 0.787304 0.066455 0.11455
H_ H_ 0.515606 0.702922 0.122416 0.11455
H_ H_ 0.507873 0.68268 0.173691 0.11455
H_ H_ 0.76758 0.701545 0.141605 0.11455
H_ H_ 0.757242 0.683134 0.191885 0.11455
H_ H_ 0.591354 0.571108 0.250411 0.11455
H_ H_ 0.553889 0.556795 0.299388 0.11455
H_ H_ 0.571557 0.61792 0.337778 0.11455
H_ H_ 0.65882 0.743833 0.257263 0.11455
H_ H_ 0.671467 0.803667 0.296109 0.11455
H_ H_ 0.680643 0.75787 0.345981 0.11455
H_ H_ 0.695107 0.806207 0.197882 0.11455
H_ H_ 0.629113 0.842136 0.0995224 0.11455
H_ H_ 0.721293 0.831398 0.107985 0.11455
H_ H_ 0.602188 0.813278 0.215185 0.11455
H_ H_ 0.514833 0.820928 0.204708 0.11455
H_ H_ 0.545505 0.82364 0.115227 0.11455
H_ H_ 0.87193 0.991581 0.194929 0.11455
H_ H_ 0.858596 0.568574 0.0951757 0.11455
H_ H_ 0.827867 0.981796 0.109422 0.11455
H_ H_ 0.863165 0.576903 0.213888 0.11455
H_ H_ 0.864295 0.670801 0.207382 0.11455
H_ H_ 0.876994 0.651016 0.116301 0.11455
H_ H_ 0.921198 0.899961 0.218599 0.11455
H_ H_ 0.940906 0.924706 0.266004 0.11455
H_ H_ 0.904781 0.877368 0.308622 0.11455
H_ H_ 0.811851 0.757726 0.223866 0.11455
H_ H_ 0.782656 0.70834 0.262646 0.11455
H_ H_ 0.800376 0.72732 0.314086 0.11455
H_ H_ 0.985763 0.776728 0.375702 0.11455
H_ H_ 0.00305902 0.795558 0.423965 0.11455
H_ H_ 0.742688 0.831546 0.389964 0.11455
H_ H_ 0.756068 0.831048 0.443629 0.11455
H_ H_ 0.951212 0.894086 0.503875 0.11455
H_ H_ 0.918841 0.962236 0.0486815 0.11455
H_ H_ 0.913442 0.894347 0.0843598 0.11455
H_ H_ 0.848959 0.760401 0.00576951 0.11455
H_ H_ 0.818285 0.708766 0.0456539 0.11455
H_ H_ 0.822982 0.745418 0.0954396 0.11455
C_ C_ 0.735408 0.683766 0.403422 0.68181
C_ C_ 0.791472 0.68609 0.398677 -0.05681
C_ C_ 0.823802 0.684666 0.422465 -0.08735
C_ C_ 0.875729 0.681932 0.418427 -0.05681
C_ C_ 0.896062 0.67395 0.390705 -0.05681
C_ C_ 0.863393 0.673008 0.367006 -0.08735
C_ C_ 0.811289 0.674581 0.371354 -0.08735
C_ C_ 0.908125 0.684849 0.442509 -0.08735
C_ C_ 0.960017 0.679789 0.439556 -0.08735
C_ C_ 0.980281 0.672565 0.412206 -0.05681
C_ C_ 0.947391 0.668783 0.387932 -0.08735
C_ C_ 0.629209 0.772211 0.411252 0.68181
C_ C_ 0.649975 0.579863 0.397476 0.68181
C_ C_ 0.6371 0.522838 0.395217 -0.05681
C_ C_ 0.626565 0.989369 0.423131 -0.08735
C_ C_ 0.626684 0.936138 0.420048 -0.05681
C_ C_ 0.626742 0.91293 0.391327 -0.05681
C_ C_ 0.640001 0.945473 0.368186 -0.08735
C_ C_ 0.634971 0.997798 0.370671 -0.08735
C_ C_ 0.620018 0.904341 0.444137 -0.08735
C_ C_ 0.623752 0.851514 0.441973 -0.08735
C_ C_ 0.627191 0.82854 0.414258 -0.05681
C_ C_ 0.628216 0.858816 0.389545 -0.08735
C_ C_ 0.537681 0.672993 0.403552 0.68181
C_ C_ 0.610288 0.615423 0.483272 0.1947
C_ C_ 0.594816 0.611676 0.0126063 -0.08735
C_ C_ 0.621903 0.634044 0.0348735 -0.08735
C_ C_ 0.647037 0.679793 0.0298456 -0.05681
C_ C_ 0.654095 0.697375 1.00150189 0.18498
C_ C_ 0.691044 0.725769 0.494928 -0.08735
C_ C_ 0.686645 0.778549 0.0185006 -0.08735
C_ C_ 0.675756 0.762751 0.0474793 -0.08735
C_ C_ 0.659494 0.713847 0.0525248 0.18498
C_ C_ 0.693494 0.695183 0.101084 0.44287
C_ C_ 0.603335 0.699948 0.0936177 0.44287
C_ C_ 0.595441 0.690858 0.122399 -0.05681
C_ C_ 0.548645 0.697099 0.135678 -0.08735
C_ C_ 0.544068 0.687566 0.165366 -0.08735
C_ C_ 0.584383 0.676573 0.182745 -0.05681
C_ C_ 0.632352 0.678863 0.171829 -0.05681
C_ C_ 0.6385 0.692031 0.142099 -0.05681
C_ C_ 0.68735 0.691519 0.130988 -0.05681
C_ C_ 0.729264 0.690284 0.148915 -0.08735
C_ C_ 0.723881 0.68662 0.177985 -0.08735
C_ C_ 0.675255 0.673804 0.189258 -0.05681
C_ C_ 0.667327 0.66146 0.218705 0.44287
C_ C_ 0.577606 0.667495 0.212278 0.44287
C_ C_ 0.611186 0.65004 0.259954 0.18498
C_ C_ 0.598724 0.599471 0.267677 -0.08735
C_ C_ 0.577733 0.589516 0.294536 -0.08735
C_ C_ 0.587563 0.623591 0.316719 -0.08735
C_ C_ 0.614735 0.669036 0.310834 0.18498
C_ C_ 0.623954 0.684007 0.281623 -0.05681
C_ C_ 0.64916 0.730726 0.277815 -0.08735
C_ C_ 0.664048 0.761931 0.301301 -0.08735
C_ C_ 0.658442 0.740361 0.328858 0.1947
C_ C_ 0.771601 0.82103 0.158268 0.68181
C_ C_ 0.715656 0.824521 0.154342 -0.05681
C_ C_ 0.679838 0.816693 0.176419 -0.08735
C_ C_ 0.627318 0.821251 0.171342 -0.05681
C_ C_ 0.609126 0.826685 0.143326 -0.05681
C_ C_ 0.645029 0.833488 0.120347 -0.08735
C_ C_ 0.696293 0.829817 0.125289 -0.08735
C_ C_ 0.592098 0.817416 0.192676 -0.08735
C_ C_ 0.540681 0.815961 0.187039 -0.08735
C_ C_ 0.522908 0.822171 0.158969 -0.05681
C_ C_ 0.556758 0.823428 0.136872 -0.08735
C_ C_ 0.877249 0.72506 0.16038 0.68181
C_ C_ 0.852276 0.923452 0.15394 0.68181
C_ C_ 0.850663 0.980526 0.151996 -0.05681
C_ C_ 0.860796 0.508256 0.170548 -0.08735
C_ C_ 0.856297 0.561823 0.168023 -0.05681
C_ C_ 0.85874 0.583366 0.140713 -0.05681
C_ C_ 0.862278 0.553352 0.116877 -0.08735
C_ C_ 0.840319 1.0045857 0.12653 -0.08735
C_ C_ 0.860714 0.593329 0.192145 -0.08735
C_ C_ 0.867972 0.645051 0.18996 -0.08735
C_ C_ 0.872943 0.668371 0.162924 -0.05681
C_ C_ 0.868613 0.636612 0.136772 -0.08735
C_ C_ 0.965086 0.841013 0.156278 0.68181
C_ C_ 0.903751 0.880403 0.235488 0.1947
C_ C_ 0.918149 0.890963 0.263574 -0.08735
C_ C_ 0.898516 0.864081 0.287112 -0.08735
C_ C_ 0.864501 0.823902 0.281632 -0.05681
C_ C_ 0.848686 0.814184 0.252143 0.18498
C_ C_ 0.817925 0.771664 0.246125 -0.08735
C_ C_ 0.80295 0.740146 0.268778 -0.08735
C_ C_ 0.815355 0.750591 0.297015 -0.08735
C_ C_ 0.846193 0.792676 0.303821 0.18498
C_ C_ 0.816138 0.819371 0.351197 0.44287
C_ C_ 0.902414 0.798888 0.34527 0.44287
C_ C_ 0.908871 0.799841 0.376062 -0.05681
C_ C_ 0.956122 0.788295 0.387834 -0.08735
C_ C_ 0.96528 0.795329 0.416702 -0.08735
C_ C_ 0.926161 0.808032 0.435843 -0.05681
C_ C_ 0.879367 0.816304 0.423426 -0.05681
C_ C_ 0.869521 0.811643 0.393225 -0.05681
C_ C_ 0.822422 0.822171 0.3813 -0.05681
C_ C_ 0.780979 0.831947 0.399889 -0.08735
C_ C_ 0.789729 0.83231 0.430397 -0.08735
C_ C_ 0.839555 0.830364 0.441628 -0.05681
C_ C_ 0.846527 0.832387 0.471464 0.44287
C_ C_ 0.932871 0.80874 0.466321 0.44287
C_ C_ 0.873592 0.860695 0.00871587 0.18498
C_ C_ 0.893774 0.909294 0.0159381 -0.08735
C_ C_ 0.906555 0.922429 0.0446338 -0.08735
C_ C_ 0.893689 0.890562 0.065604 -0.08735
C_ C_ 0.876356 0.841902 0.0604922 0.18498
C_ C_ 0.862275 0.827864 0.0321639 -0.05681
C_ C_ 0.847656 0.777314 0.0266902 -0.08735
C_ C_ 0.833562 0.747071 0.0492216 -0.08735
C_ C_ 0.839354 0.766365 0.0777466 0.1947
N_ N_ 0.639541 0.657163 0.477208 -0.29468
N_ N_ 0.651554 0.700411 0.0832519 -0.17154
N_ N_ 0.62003 0.661626 0.229916 -0.17154
N_ N_ 0.632866 0.695489 0.333376 -0.29468
N_ N_ 0.869911 0.841796 0.230177 -0.29468
N_ N_ 0.854812 0.805635 0.333438 -0.17154
N_ N_ 0.892722 0.82247 0.483464 -0.17154
N_ N_ 0.859027 0.814108 0.0824698 -0.29468
O_ O_ 0.717731 0.678899 0.428955 -0.58347
O_ O_ 0.704314 0.68679 0.382263 -0.58347
O_ O_ 0.633951 0.745828 0.433853 -0.58347
O_ O_ 0.626026 0.750458 0.387121 -0.58347
O_ O_ 0.653692 0.600179 0.421943 -0.58347
O_ O_ 0.640906 0.609372 0.376511 -0.58347
O_ O_ 0.569356 0.664039 0.423716 -0.58347
O_ O_ 0.555493 0.681271 0.378699 -0.58347
O_ O_ 0.565313 0.710474 0.0761659 -0.46727
O_ O_ 0.739195 0.691902 0.0898596 -0.46727
O_ O_ 0.534188 0.675313 0.223696 -0.46727
O_ O_ 0.705299 0.651306 0.235744 -0.46727
O_ O_ 0.789214 0.824175 0.182745 -0.58347
O_ O_ 0.800645 0.815424 0.136729 -0.58347
O_ O_ 0.871567 0.749945 0.183018 -0.58347
O_ O_ 0.879209 0.74638 0.136191 -0.58347
O_ O_ 0.855202 0.902074 0.178347 -0.58347
O_ O_ 0.85425 0.897616 0.131634 -0.58347
O_ O_ 0.937169 0.836907 0.177824 -0.58347
O_ O_ 0.947489 0.833533 0.132066 -0.58347
O_ O_ 0.939146 0.784971 0.328917 -0.46727
O_ O_ 0.775217 0.841175 0.340678 -0.46727
O_ O_ 0.978068 0.803179 0.478021 -0.46727
O_ O_ 0.811229 0.852147 0.487463 -0.46727
Zn Zn 0.627283 0.689327 0.884069 0.90689
Zn Zn 0.635382 0.686849 0.932023 0.90689
Zn Zn 0.878389 0.801822 0.635318 0.90689
Zn Zn 0.866014 0.809943 0.681475 0.90689
H_ H_ 0.805866 0.696367 0.947837 0.11455
H_ H_ 0.877795 0.669682 0.849936 0.11455
H_ H_ 0.78196 0.670581 0.858762 0.11455
H_ H_ 0.893085 0.715878 0.963649 0.11455
H_ H_ 0.982496 0.728559 0.952986 0.11455
H_ H_ 0.964908 0.661293 0.871551 0.11455
H_ H_ 0.609138 0.521158 0.943987 0.11455
H_ H_ 0.61767 0.940165 0.846917 0.11455
H_ H_ 0.660656 0.530443 0.85438 0.11455
H_ H_ 0.606934 0.939305 0.963637 0.11455
H_ H_ 0.624513 0.845318 0.964023 0.11455
H_ H_ 0.627647 0.853061 0.871943 0.11455
H_ H_ 0.578318 0.616845 0.968937 0.11455
H_ H_ 0.575253 0.571804 0.515767 0.11455
H_ H_ 0.608781 0.615848 0.555386 0.11455
H_ H_ 0.692129 0.755459 0.97553 0.11455
H_ H_ 0.737447 0.78234 0.513723 0.11455
H_ H_ 0.698482 0.770984 0.562963 0.11455
H_ H_ 0.516842 0.703755 0.620828 0.11455
H_ H_ 0.506436 0.711668 0.673304 0.11455
H_ H_ 0.760924 0.63581 0.638939 0.11455
H_ H_ 0.75407 0.653683 0.689084 0.11455
H_ H_ 0.570163 0.600423 0.745284 0.11455
H_ H_ 0.54127 0.576662 0.795333 0.11455
H_ H_ 0.570205 0.624505 0.836229 0.11455
H_ H_ 0.63945 0.759865 0.757563 0.11455
H_ H_ 0.666649 0.810471 0.799477 0.11455
H_ H_ 0.665001 0.77896 0.847804 0.11455
H_ H_ 0.701019 0.827143 0.696271 0.11455
H_ H_ 0.629693 0.804823 0.601079 0.11455
H_ H_ 0.722589 0.803418 0.607263 0.11455
H_ H_ 0.605962 0.845939 0.715691 0.11455
H_ H_ 0.517138 0.830448 0.707327 0.11455
H_ H_ 0.547915 0.813347 0.616977 0.11455
H_ H_ 0.871585 0.972387 0.695871 0.11455
H_ H_ 0.843834 0.561845 0.597562 0.11455
H_ H_ 0.851623 0.960706 0.60442 0.11455
H_ H_ 0.912173 0.560572 0.712344 0.11455
H_ H_ 0.89885 0.652685 0.710787 0.11455
H_ H_ 0.854071 0.64157 0.621213 0.11455
H_ H_ 0.918861 0.87951 0.717015 0.11455
H_ H_ 0.928733 0.910326 0.765929 0.11455
H_ H_ 0.888968 0.872172 0.805382 0.11455
H_ H_ 0.807818 0.734235 0.726463 0.11455
H_ H_ 0.770533 0.692598 0.768155 0.11455
H_ H_ 0.783119 0.721587 0.81757 0.11455
H_ H_ 0.972238 0.799025 0.874632 0.11455
H_ H_ 0.985114 0.827457 0.922943 0.11455
H_ H_ 0.721869 0.819507 0.886138 0.11455
H_ H_ 0.733611 0.837015 0.9378 0.11455
H_ H_ 0.907407 0.933572 0.9988 0.11455
H_ H_ 0.979032 0.909624 0.553614 0.11455
H_ H_ 0.939569 0.863165 0.594676 0.11455
H_ H_ 0.857448 0.741038 0.508247 0.11455
H_ H_ 0.803542 0.703685 0.546412 0.11455
H_ H_ 0.814319 0.729568 0.595532 0.11455
C_ C_ 0.731552 0.691777 0.905588 0.68181
C_ C_ 0.786902 0.686915 0.902475 -0.05681
C_ C_ 0.820254 0.691425 0.92572 -0.08735
C_ C_ 0.872779 0.692816 0.921389 -0.05681
C_ C_ 0.893711 0.681902 0.894042 -0.05681
C_ C_ 0.861514 0.675404 0.871099 -0.08735
C_ C_ 0.807267 0.675194 0.876202 -0.08735
C_ C_ 0.906064 0.711162 0.942449 -0.08735
C_ C_ 0.95824 0.709097 0.939468 -0.08735
C_ C_ 0.978823 0.688856 0.914543 -0.05681
C_ C_ 0.946504 0.676167 0.892046 -0.08735
C_ C_ 0.622322 0.786666 0.916254 0.68181
C_ C_ 0.633862 0.589922 0.900212 0.68181
C_ C_ 0.634974 0.533898 0.899507 -0.05681
C_ C_ 0.620744 0.00508905 0.921214 -0.08735
C_ C_ 0.624536 0.951073 0.919032 -0.05681
C_ C_ 0.628206 0.92684 0.892571 -0.05681
C_ C_ 0.625973 0.956651 0.867377 -0.08735
C_ C_ 0.625958 0.00795678 0.869303 -0.08735
C_ C_ 0.616896 0.920815 0.943725 -0.08735
C_ C_ 0.623176 0.867757 0.944363 -0.08735
C_ C_ 0.624326 0.842131 0.917545 -0.05681
C_ C_ 0.62921 0.872997 0.892874 -0.08735
C_ C_ 0.53126 0.680416 0.909475 0.68181
C_ C_ 0.599321 0.63228 0.985834 0.1947
C_ C_ 0.603482 0.597434 0.511498 -0.08735
C_ C_ 0.620904 0.626321 0.533838 -0.08735
C_ C_ 0.649218 0.670726 0.529245 -0.05681
C_ C_ 0.655837 0.687175 0.499925 0.18498
C_ C_ 0.677858 0.744024 0.996497 -0.08735
C_ C_ 0.708354 0.754225 0.518479 -0.08735
C_ C_ 0.687113 0.746925 0.545763 -0.08735
C_ C_ 0.661389 0.701672 0.551897 0.18498
C_ C_ 0.690964 0.669856 0.598523 0.44287
C_ C_ 0.604863 0.695038 0.593673 0.44287
C_ C_ 0.595377 0.681576 0.622992 -0.05681
C_ C_ 0.548581 0.695525 0.634318 -0.08735
C_ C_ 0.543427 0.702237 0.663733 -0.08735
C_ C_ 0.582841 0.689219 0.681986 -0.05681
C_ C_ 0.629755 0.675615 0.670045 -0.05681
C_ C_ 0.636082 0.674092 0.640193 -0.05681
C_ C_ 0.685311 0.663759 0.628034 -0.05681
C_ C_ 0.724998 0.65049 0.647309 -0.08735
C_ C_ 0.720756 0.661391 0.676357 -0.08735
C_ C_ 0.670896 0.667732 0.68862 -0.05681
C_ C_ 0.664329 0.669224 0.717918 0.44287
C_ C_ 0.577937 0.691507 0.712541 0.44287
C_ C_ 0.61033 0.666121 0.759065 0.18498
C_ C_ 0.58308 0.621057 0.764065 -0.08735
C_ C_ 0.56847 0.606832 0.79145 -0.08735
C_ C_ 0.584985 0.634067 0.815313 -0.08735
C_ C_ 0.612452 0.679389 0.81112 0.18498
C_ C_ 0.622041 0.697446 0.782769 -0.05681
C_ C_ 0.639567 0.745467 0.778966 -0.08735
C_ C_ 0.653892 0.773583 0.802851 -0.08735
C_ C_ 0.651863 0.753836 0.830353 0.1947
C_ C_ 0.772338 0.811459 0.656813 0.68181
C_ C_ 0.716675 0.814842 0.65313 -0.05681
C_ C_ 0.683144 0.821418 0.676796 -0.08735
C_ C_ 0.630277 0.823241 0.67273 -0.05681
C_ C_ 0.611988 0.815135 0.64474 -0.05681
C_ C_ 0.646377 0.811593 0.622334 -0.08735
C_ C_ 0.698408 0.809932 0.625947 -0.08735
C_ C_ 0.595754 0.832075 0.694675 -0.08735
C_ C_ 0.542293 0.829696 0.689257 -0.08735
C_ C_ 0.523605 0.825024 0.660819 -0.05681
C_ C_ 0.559082 0.819078 0.638576 -0.08735
C_ C_ 0.867 0.710022 0.665545 0.68181
C_ C_ 0.870278 0.903583 0.653027 0.68181
C_ C_ 0.86874 0.960133 0.649905 -0.05681
C_ C_ 0.875046 0.493747 0.670528 -0.08735
C_ C_ 0.881117 0.547027 0.668453 -0.05681
C_ C_ 0.872898 0.569625 0.64166 -0.05681
C_ C_ 0.854002 0.541626 0.617304 -0.08735
C_ C_ 0.859998 0.981736 0.6235 -0.08735
C_ C_ 0.890872 0.576373 0.693456 -0.08735
C_ C_ 0.889079 0.628706 0.691656 -0.08735
C_ C_ 0.873793 0.653213 0.666202 -0.05681
C_ C_ 0.869274 0.623853 0.640967 -0.08735
C_ C_ 0.973101 0.809412 0.659782 0.68181
C_ C_ 0.895987 0.860901 0.73409 0.1947
C_ C_ 0.901569 0.881186 0.762147 -0.08735
C_ C_ 0.880896 0.856267 0.784962 -0.08735
C_ C_ 0.852954 0.81113 0.780662 -0.05681
C_ C_ 0.846177 0.793049 0.751588 0.18498
C_ C_ 0.81863 0.747164 0.747299 -0.08735
C_ C_ 0.796121 0.723234 0.771261 -0.08735
C_ C_ 0.808247 0.736506 0.799809 -0.08735
C_ C_ 0.829868 0.783639 0.803157 0.18498
C_ C_ 0.796838 0.813205 0.848735 0.44287
C_ C_ 0.886306 0.7981 0.844582 0.44287
C_ C_ 0.893029 0.808683 0.873552 -0.05681
C_ C_ 0.941256 0.811432 0.88611 -0.08735
C_ C_ 0.94781 0.822973 0.915221 -0.08735
C_ C_ 0.905805 0.82987 0.932675 -0.05681
C_ C_ 0.857552 0.829596 0.919346 -0.05681
C_ C_ 0.850972 0.820555 0.889814 -0.05681
C_ C_ 0.802838 0.818135 0.878369 -0.05681
C_ C_ 0.759591 0.823452 0.895885 -0.08735
C_ C_ 0.765668 0.836857 0.924291 -0.08735
C_ C_ 0.813737 0.833965 0.93719 -0.05681
C_ C_ 0.821053 0.848115 0.966401 0.44287
C_ C_ 0.909013 0.840612 0.961819 0.44287
C_ C_ 0.903935 0.834537 0.513923 0.18498
C_ C_ 0.931509 0.876085 0.521589 -0.08735
C_ C_ 0.943347 0.887286 0.550741 -0.08735
C_ C_ 0.924846 0.85681 0.572815 -0.08735
C_ C_ 0.89062 0.817634 0.565736 0.18498
C_ C_ 0.881454 0.80359 0.536204 -0.05681
C_ C_ 0.855988 0.759075 0.529501 -0.08735
C_ C_ 0.831157 0.731444 0.550597 -0.08735
C_ C_ 0.838166 0.746808 0.579225 0.1947
N_ N_ 0.63378 0.669281 0.979684 -0.29468
N_ N_ 0.651874 0.687285 0.581999 -0.17154
N_ N_ 0.618819 0.681673 0.729577 -0.17154
N_ N_ 0.627392 0.708113 0.834414 -0.29468
N_ N_ 0.867352 0.820051 0.729427 -0.29468
N_ N_ 0.838172 0.80119 0.832421 -0.17154
N_ N_ 0.866462 0.849403 0.978322 -0.17154
N_ N_ 0.871377 0.785215 0.586892 -0.29468
O_ O_ 0.711636 0.683047 0.9298 -0.58347
O_ O_ 0.701472 0.699534 0.884056 -0.58347
O_ O_ 0.631752 0.759405 0.937693 -0.58347
O_ O_ 0.620445 0.765952 0.892278 -0.58347
O_ O_ 0.629885 0.610853 0.925111 -0.58347
O_ O_ 0.63761 0.61694 0.877011 -0.58347
O_ O_ 0.557388 0.681043 0.932185 -0.58347
O_ O_ 0.551868 0.676242 0.884853 -0.58347
O_ O_ 0.567774 0.713448 0.577836 -0.46727
O_ O_ 0.735741 0.667299 0.588659 -0.46727
O_ O_ 0.536238 0.711169 0.724124 -0.46727
O_ O_ 0.706913 0.665613 0.733649 -0.46727
O_ O_ 0.792033 0.802701 0.681248 -0.58347
O_ O_ 0.801936 0.810187 0.634863 -0.58347
O_ O_ 0.87377 0.736605 0.687967 -0.58347
O_ O_ 0.871345 0.731305 0.642059 -0.58347
O_ O_ 0.859235 0.883549 0.67689 -0.58347
O_ O_ 0.884976 0.875266 0.632821 -0.58347
O_ O_ 0.942674 0.815621 0.681145 -0.58347
O_ O_ 0.955241 0.797754 0.635422 -0.58347
O_ O_ 0.924545 0.778853 0.830673 -0.46727
O_ O_ 0.751664 0.818608 0.837947 -0.46727
O_ O_ 0.953905 0.844501 0.973982 -0.46727
O_ O_ 0.780783 0.857241 0.981678 -0.46727
