_cell_length_a 26.376
_cell_length_b 26.400000238300095
_cell_length_c 46.67800035477134
_cell_angle_alpha 90.00700052986613
_cell_angle_beta 89.99899961309502
_cell_angle_gamma 90.45000003183146
_symmetry_space_group_name_H-M         'P 1'
_symmetry_Int_Tables_number            1
loop_
_symmetry_equiv_pos_as_xyz
   'x, y, z'
                         
loop_
_atom_site_label
_atom_site_type_symbol
_atom_site_fract_x 
_atom_site_fract_y
_atom_site_fract_z
_atom_site_charge
Zn Zn 0.121925 0.188099 0.384607 0.90689
Zn Zn 0.130303 0.188687 0.432817 0.90689
Zn Zn 0.373575 0.303916 0.138237 0.90689
Zn Zn 0.354135 0.316476 0.185168 0.90689
H_ H_ 0.299764 0.199166 0.447478 0.11455
H_ H_ 0.364764 0.141115 0.35411 0.11455
H_ H_ 0.276374 0.175526 0.355485 0.11455
H_ H_ 0.386571 0.189063 0.467205 0.11455
H_ H_ 0.477333 0.166484 0.457645 0.11455
H_ H_ 0.454033 0.164871 0.36734 0.11455
H_ H_ 0.136623 0.0180984 0.445118 0.11455
H_ H_ 0.132263 0.433435 0.347319 0.11455
H_ H_ 0.128578 0.0349416 0.353484 0.11455
H_ H_ 0.111186 0.438271 0.465357 0.11455
H_ H_ 0.115691 0.345498 0.464984 0.11455
H_ H_ 0.11604 0.351902 0.372433 0.11455
H_ H_ 0.0708402 0.127894 0.470797 0.11455
H_ H_ 0.117448 0.0563917 0.0101402 0.11455
H_ H_ 0.134765 0.112773 0.054828 0.11455
H_ H_ 0.192612 0.259354 0.476661 0.11455
H_ H_ 0.212681 0.306767 0.0153836 0.11455
H_ H_ 0.200628 0.281973 0.0640399 0.11455
H_ H_ 0.0147524 0.193724 0.117756 0.11455
H_ H_ 0.0012099999999999334 0.199058 0.172386 0.11455
H_ H_ 0.263726 0.174776 0.143812 0.11455
H_ H_ 0.249213 0.191091 0.193068 0.11455
H_ H_ 0.0565684 0.106717 0.249155 0.11455
H_ H_ 0.0307213 0.082349 0.299131 0.11455
H_ H_ 0.0592247 0.136168 0.339483 0.11455
H_ H_ 0.159375 0.255511 0.259178 0.11455
H_ H_ 0.199318 0.293048 0.302 0.11455
H_ H_ 0.17635 0.266106 0.351071 0.11455
H_ H_ 0.186697 0.303933 0.200131 0.11455
H_ H_ 0.126869 0.335886 0.102845 0.11455
H_ H_ 0.217494 0.312443 0.109867 0.11455
H_ H_ 0.104378 0.32064 0.218288 0.11455
H_ H_ 0.0114958 0.31174 0.208921 0.11455
H_ H_ 0.0369892 0.331268 0.117666 0.11455
H_ H_ 0.35559 0.481531 0.198892 0.11455
H_ H_ 0.412472 0.0547837 0.10789 0.11455
H_ H_ 0.361246 0.469099 0.105824 0.11455
H_ H_ 0.35399 0.0591991 0.219622 0.11455
H_ H_ 0.351828 0.148617 0.215042 0.11455
H_ H_ 0.386252 0.14226 0.126309 0.11455
H_ H_ 0.417296 0.385059 0.219694 0.11455
H_ H_ 0.437208 0.41274 0.266388 0.11455
H_ H_ 0.384602 0.384463 0.308956 0.11455
H_ H_ 0.301935 0.249796 0.228747 0.11455
H_ H_ 0.277021 0.194692 0.269516 0.11455
H_ H_ 0.329406 0.207532 0.315668 0.11455
H_ H_ 0.503182 0.292696 0.370645 0.11455
H_ H_ 0.517839 0.288713 0.423132 0.11455
H_ H_ 0.254865 0.32808 0.397882 0.11455
H_ H_ 0.268323 0.33172 0.447256 0.11455
H_ H_ 0.464913 0.400044 0.503356 0.11455
H_ H_ 0.455235 0.428695 0.0524644 0.11455
H_ H_ 0.442173 0.364752 0.0906148 0.11455
H_ H_ 0.329136 0.253189 0.0121748 0.11455
H_ H_ 0.298798 0.211168 0.052997 0.11455
H_ H_ 0.324186 0.230376 0.104101 0.11455
C_ C_ 0.224666 0.185791 0.405979 0.68181
C_ C_ 0.281457 0.18103 0.403124 -0.05681
C_ C_ 0.314478 0.187744 0.426753 -0.08735
C_ C_ 0.366039 0.18123 0.421634 -0.05681
C_ C_ 0.384281 0.168155 0.393856 -0.05681
C_ C_ 0.351566 0.160599 0.372056 -0.08735
C_ C_ 0.301517 0.172178 0.374847 -0.08735
C_ C_ 0.399614 0.180665 0.444592 -0.08735
C_ C_ 0.451434 0.177295 0.439163 -0.08735
C_ C_ 0.471105 0.171645 0.41131 -0.05681
C_ C_ 0.437839 0.169728 0.388116 -0.08735
C_ C_ 0.120288 0.285763 0.417146 0.68181
C_ C_ 0.125665 0.0882942 0.402755 0.68181
C_ C_ 0.127073 0.0326871 0.399791 -0.05681
C_ C_ 0.121009 0.501171 0.42101 -0.08735
C_ C_ 0.118165 0.44753 0.420144 -0.05681
C_ C_ 0.12054 0.422381 0.393222 -0.05681
C_ C_ 0.126687 0.452332 0.368063 -0.08735
C_ C_ 0.133857 0.504125 0.36851 -0.08735
C_ C_ 0.112028 0.419126 0.444674 -0.08735
C_ C_ 0.109801 0.36657 0.443943 -0.08735
C_ C_ 0.111457 0.342174 0.417674 -0.05681
C_ C_ 0.115866 0.371779 0.392643 -0.08735
C_ C_ 0.0253327 0.189555 0.409564 0.68181
C_ C_ 0.100078 0.137615 0.485736 0.1947
C_ C_ 0.123088 0.0953678 0.00868865 -0.08735
C_ C_ 0.134515 0.12651 0.0326878 -0.08735
C_ C_ 0.148467 0.176564 0.0286709 -0.05681
C_ C_ 0.150709 0.196371 0.999481 0.18498
C_ C_ 0.178731 0.253388 0.497775 -0.08735
C_ C_ 0.191156 0.274064 0.0178327 -0.08735
C_ C_ 0.18832 0.255377 0.0455942 -0.08735
C_ C_ 0.162699 0.208757 0.0521825 0.18498
C_ C_ 0.194403 0.186195 0.100766 0.44287
C_ C_ 0.104727 0.198991 0.0926212 0.44287
C_ C_ 0.096426 0.194631 0.121977 -0.05681
C_ C_ 0.0468806 0.19475 0.133105 -0.08735
C_ C_ 0.0383485 0.194617 0.16265 -0.08735
C_ C_ 0.0784585 0.190167 0.181907 -0.05681
C_ C_ 0.128824 0.191974 0.171541 -0.05681
C_ C_ 0.137521 0.188455 0.140971 -0.05681
C_ C_ 0.18606 0.182214 0.12986 -0.05681
C_ C_ 0.225662 0.17762 0.150091 -0.08735
C_ C_ 0.217405 0.18277 0.179567 -0.08735
C_ C_ 0.168111 0.186329 0.190007 -0.05681
C_ C_ 0.159033 0.177274 0.21914 0.44287
C_ C_ 0.0701123 0.189416 0.212141 0.44287
C_ C_ 0.100184 0.169516 0.261093 0.18498
C_ C_ 0.0688576 0.128003 0.266619 -0.08735
C_ C_ 0.0519685 0.117851 0.294886 -0.08735
C_ C_ 0.0711179 0.144805 0.31759 -0.08735
C_ C_ 0.107128 0.182095 0.313744 0.18498
C_ C_ 0.118942 0.197084 0.285297 -0.05681
C_ C_ 0.145241 0.242558 0.280663 -0.08735
C_ C_ 0.168786 0.26552 0.304557 -0.08735
C_ C_ 0.160792 0.247002 0.332243 0.1947
C_ C_ 0.266091 0.313039 0.161053 0.68181
C_ C_ 0.209786 0.311102 0.155926 -0.05681
C_ C_ 0.175229 0.312168 0.178696 -0.08735
C_ C_ 0.123583 0.320692 0.17393 -0.05681
C_ C_ 0.103971 0.327592 0.145923 -0.05681
C_ C_ 0.138732 0.322647 0.122742 -0.08735
C_ C_ 0.190569 0.314584 0.127548 -0.08735
C_ C_ 0.0893361 0.324671 0.196291 -0.08735
C_ C_ 0.0379409 0.318452 0.190733 -0.08735
C_ C_ 0.0181966 0.324559 0.162567 -0.05681
C_ C_ 0.0511659 0.329669 0.139242 -0.08735
C_ C_ 0.37284 0.21197 0.167681 0.68181
C_ C_ 0.352334 0.409782 0.154813 0.68181
C_ C_ 0.354926 0.465711 0.152199 -0.05681
C_ C_ 0.36382 -0.005152999999999963 0.177371 -0.08735
C_ C_ 0.362366 0.0480519 0.174295 -0.05681
C_ C_ 0.378122 0.0707684 0.149047 -0.05681
C_ C_ 0.388621 0.0399426 0.125523 -0.08735
C_ C_ 0.361626 0.489932 0.125227 -0.08735
C_ C_ 0.355137 0.0773355 0.198615 -0.08735
C_ C_ 0.359369 0.128961 0.196284 -0.08735
C_ C_ 0.370944 0.155027 0.170839 -0.05681
C_ C_ 0.377354 0.123047 0.146181 -0.08735
C_ C_ 0.462407 0.31065 0.160261 0.68181
C_ C_ 0.394739 0.370123 0.237153 0.1947
C_ C_ 0.403867 0.388203 0.264807 -0.08735
C_ C_ 0.384566 0.363493 0.287756 -0.08735
C_ C_ 0.358725 0.31562 0.283668 -0.05681
C_ C_ 0.346231 0.299671 0.255113 0.18498
C_ C_ 0.315993 0.257629 0.250884 -0.08735
C_ C_ 0.305406 0.224788 0.273452 -0.08735
C_ C_ 0.323916 0.2364 0.300616 -0.08735
C_ C_ 0.346705 0.285495 0.306542 0.18498
C_ C_ 0.322164 0.304208 0.354936 0.44287
C_ C_ 0.409276 0.288722 0.346565 0.44287
C_ C_ 0.422176 0.303253 0.375139 -0.05681
C_ C_ 0.473434 0.299354 0.386067 -0.08735
C_ C_ 0.480692 0.294657 0.415443 -0.08735
C_ C_ 0.441335 0.306127 0.433965 -0.05681
C_ C_ 0.3923 0.31286 0.423652 -0.05681
C_ C_ 0.381956 0.313675 0.394034 -0.05681
C_ C_ 0.332409 0.313602 0.384402 -0.05681
C_ C_ 0.293373 0.326673 0.404351 -0.08735
C_ C_ 0.302388 0.326562 0.434009 -0.08735
C_ C_ 0.351485 0.318744 0.443801 -0.05681
C_ C_ 0.365596 0.329269 0.473267 0.44287
C_ C_ 0.451452 0.311592 0.464377 0.44287
C_ C_ 0.387475 0.34043 0.0131903 0.18498
C_ C_ 0.417501 0.383475 0.0207921 -0.08735
C_ C_ 0.430177 0.39549 0.0489965 -0.08735
C_ C_ 0.422193 0.362067 0.0706447 -0.08735
C_ C_ 0.387304 0.321295 0.0660897 0.18498
C_ C_ 0.375285 0.306148 0.0367274 -0.05681
C_ C_ 0.342265 0.263655 0.0329585 -0.08735
C_ C_ 0.3278 0.23599 0.0558194 -0.08735
C_ C_ 0.338848 0.250484 0.0842948 0.1947
N_ N_ 0.130697 0.177932 0.480772 -0.29468
N_ N_ 0.153722 0.195778 0.0824258 -0.17154
N_ N_ 0.110668 0.181911 0.2307 -0.17154
N_ N_ 0.127272 0.207364 0.335799 -0.29468
N_ N_ 0.364368 0.329065 0.233025 -0.29468
N_ N_ 0.361423 0.296532 0.335885 -0.17154
N_ N_ 0.414649 0.322771 0.48264 -0.17154
N_ N_ 0.366162 0.29363 0.0889688 -0.29468
O_ O_ 0.206424 0.191939 0.430443 -0.58347
O_ O_ 0.196752 0.189579 0.385193 -0.58347
O_ O_ 0.121158 0.260768 0.440391 -0.58347
O_ O_ 0.122147 0.262847 0.392559 -0.58347
O_ O_ 0.136288 0.11284 0.426101 -0.58347
O_ O_ 0.1212 0.113018 0.38071 -0.58347
O_ O_ 0.0530034 0.183985 0.431693 -0.58347
O_ O_ 0.0482032 0.189139 0.384336 -0.58347
O_ O_ 0.0682732 0.214076 0.0752221 -0.46727
O_ O_ 0.240609 0.181172 0.089892 -0.46727
O_ O_ 0.0239926 0.189128 0.222294 -0.46727
O_ O_ 0.195337 0.158925 0.234514 -0.46727
O_ O_ 0.282519 0.312328 0.18687 -0.58347
O_ O_ 0.296052 0.305083 0.139661 -0.58347
O_ O_ 0.367419 0.241357 0.188996 -0.58347
O_ O_ 0.378355 0.230034 0.143014 -0.58347
O_ O_ 0.344942 0.388003 0.179433 -0.58347
O_ O_ 0.37407 0.383537 0.134604 -0.58347
O_ O_ 0.431947 0.31985 0.180856 -0.58347
O_ O_ 0.444553 0.306471 0.135382 -0.58347
O_ O_ 0.445277 0.271678 0.329867 -0.46727
O_ O_ 0.276266 0.305223 0.345456 -0.46727
O_ O_ 0.497603 0.307118 0.474657 -0.46727
O_ O_ 0.332862 0.348047 0.491363 -0.46727
Zn Zn 0.134085 0.185648 0.881235 0.90689
Zn Zn 0.144761 0.177167 0.929754 0.90689
Zn Zn 0.387811 0.312492 0.633969 0.90689
Zn Zn 0.376159 0.31345 0.679824 0.90689
H_ H_ 0.318025 0.18492 0.950034 0.11455
H_ H_ 0.377886 0.190364 0.849163 0.11455
H_ H_ 0.288107 0.189507 0.85833 0.11455
H_ H_ 0.403904 0.152478 0.96432 0.11455
H_ H_ 0.492416 0.152721 0.95561 0.11455
H_ H_ 0.466801 0.175327 0.865664 0.11455
H_ H_ 0.124196 0.0130775 0.936594 0.11455
H_ H_ 0.145342 0.429739 0.845116 0.11455
H_ H_ 0.158067 0.0269996 0.845638 0.11455
H_ H_ 0.155103 0.428746 0.963927 0.11455
H_ H_ 0.143587 0.339613 0.962495 0.11455
H_ H_ 0.139734 0.348038 0.869048 0.11455
H_ H_ 0.100747 0.0957908 0.963756 0.11455
H_ H_ 0.0729299 0.0847981 0.516393 0.11455
H_ H_ 0.125624 0.120585 0.553862 0.11455
H_ H_ 0.191198 0.25428 0.973425 0.11455
H_ H_ 0.226691 0.31339 0.515027 0.11455
H_ H_ 0.218543 0.278897 0.567117 0.11455
H_ H_ 0.0190163 0.192243 0.62305 0.11455
H_ H_ 0.00660606 0.19012 0.672927 0.11455
H_ H_ 0.268605 0.169725 0.639574 0.11455
H_ H_ 0.258508 0.16963 0.690834 0.11455
H_ H_ 0.085891 0.093637 0.750132 0.11455
H_ H_ 0.0603011 0.072616 0.79624 0.11455
H_ H_ 0.0892557 0.124552 0.839076 0.11455
H_ H_ 0.18344 0.251211 0.761345 0.11455
H_ H_ 0.220004 0.288655 0.802604 0.11455
H_ H_ 0.200689 0.260025 0.850577 0.11455
H_ H_ 0.209684 0.293262 0.694851 0.11455
H_ H_ 0.138431 0.317984 0.598781 0.11455
H_ H_ 0.227214 0.327741 0.605384 0.11455
H_ H_ 0.119758 0.303786 0.713418 0.11455
H_ H_ 0.0321518 0.3034 0.707394 0.11455
H_ H_ 0.0528196 0.312266 0.615187 0.11455
H_ H_ 0.361278 0.481874 0.691172 0.11455
H_ H_ 0.338275 0.068752 0.606827 0.11455
H_ H_ 0.364774 0.470277 0.597493 0.11455
H_ H_ 0.429271 0.061194 0.713542 0.11455
H_ H_ 0.419726 0.151262 0.714391 0.11455
H_ H_ 0.364336 0.151698 0.626054 0.11455
H_ H_ 0.417996 0.401435 0.716491 0.11455
H_ H_ 0.438376 0.428367 0.765265 0.11455
H_ H_ 0.400128 0.380157 0.805388 0.11455
H_ H_ 0.321795 0.252414 0.724359 0.11455
H_ H_ 0.303989 0.190985 0.763759 0.11455
H_ H_ 0.313974 0.220237 0.814789 0.11455
H_ H_ 0.491671 0.284661 0.875365 0.11455
H_ H_ 0.496018 0.288031 0.93051 0.11455
H_ H_ 0.256529 0.378834 0.883965 0.11455
H_ H_ 0.262655 0.387788 0.935185 0.11455
H_ H_ 0.436561 0.405867 0.00335747 0.11455
H_ H_ 0.480521 0.424675 0.552117 0.11455
H_ H_ 0.446753 0.378984 0.59183 0.11455
H_ H_ 0.377679 0.245078 0.508827 0.11455
H_ H_ 0.327173 0.204886 0.548936 0.11455
H_ H_ 0.336236 0.235807 0.597141 0.11455
C_ C_ 0.238022 0.191394 0.907675 0.68181
C_ C_ 0.294104 0.185407 0.904547 -0.05681
C_ C_ 0.328683 0.182471 0.927615 -0.08735
C_ C_ 0.381125 0.169559 0.921242 -0.05681
C_ C_ 0.399508 0.17434 0.892569 -0.05681
C_ C_ 0.365975 0.185774 0.870951 -0.08735
C_ C_ 0.313491 0.185703 0.876972 -0.08735
C_ C_ 0.415744 0.157591 0.943045 -0.08735
C_ C_ 0.467105 0.155104 0.937376 -0.08735
C_ C_ 0.487711 0.164301 0.909829 -0.05681
C_ C_ 0.452441 0.173459 0.886958 -0.08735
C_ C_ 0.132132 0.280025 0.912805 0.68181
C_ C_ 0.144841 0.0824793 0.897298 0.68181
C_ C_ 0.144387 0.0264162 0.892709 -0.05681
C_ C_ 0.139386 0.498306 0.919939 -0.08735
C_ C_ 0.14253 0.444892 0.91867 -0.05681
C_ C_ 0.138035 0.420416 0.891463 -0.05681
C_ C_ 0.136984 0.449379 0.865503 -0.08735
C_ C_ 0.129879 0.502003 0.868868 -0.08735
C_ C_ 0.152794 0.413065 0.943784 -0.08735
C_ C_ 0.144106 0.360069 0.94245 -0.08735
C_ C_ 0.133711 0.336706 0.915638 -0.05681
C_ C_ 0.13779 0.366825 0.89039 -0.08735
C_ C_ 0.0422404 0.179773 0.903385 0.68181
C_ C_ 0.114755 0.119652 0.981218 0.1947
C_ C_ 0.0944096 0.119055 0.512918 -0.08735
C_ C_ 0.121229 0.141782 0.534395 -0.08735
C_ C_ 0.147029 0.189123 0.530718 -0.05681
C_ C_ 0.152771 0.205583 0.502761 0.18498
C_ C_ 0.179633 0.241716 0.995452 -0.08735
C_ C_ 0.199904 0.281149 0.520973 -0.08735
C_ C_ 0.201307 0.259481 0.549054 -0.08735
C_ C_ 0.165159 0.217252 0.55399 0.18498
C_ C_ 0.197997 0.18867 0.599637 0.44287
C_ C_ 0.109493 0.202287 0.594378 0.44287
C_ C_ 0.101496 0.19199 0.62383 -0.05681
C_ C_ 0.0536378 0.192775 0.635868 -0.08735
C_ C_ 0.0451793 0.191217 0.665475 -0.08735
C_ C_ 0.0881065 0.185846 0.683342 -0.05681
C_ C_ 0.136368 0.183936 0.671339 -0.05681
C_ C_ 0.142803 0.18399 0.641193 -0.05681
C_ C_ 0.191124 0.179613 0.629727 -0.05681
C_ C_ 0.232191 0.169919 0.647908 -0.08735
C_ C_ 0.226698 0.172507 0.677931 -0.08735
C_ C_ 0.177339 0.179749 0.68945 -0.05681
C_ C_ 0.17152 0.178556 0.719268 0.44287
C_ C_ 0.082747 0.187605 0.713458 0.44287
C_ C_ 0.113443 0.168471 0.760397 0.18498
C_ C_ 0.0932222 0.121819 0.766953 -0.08735
C_ C_ 0.082407 0.106774 0.794949 -0.08735
C_ C_ 0.0927806 0.139306 0.817068 -0.08735
C_ C_ 0.122383 0.182697 0.812982 0.18498
C_ C_ 0.132202 0.198641 0.784483 -0.05681
C_ C_ 0.165397 0.241403 0.780896 -0.08735
C_ C_ 0.189114 0.26281 0.804534 -0.08735
C_ C_ 0.179999 0.243835 0.83226 0.1947
C_ C_ 0.279267 0.310203 0.654049 0.68181
C_ C_ 0.224152 0.314336 0.65115 -0.05681
C_ C_ 0.193916 0.303393 0.67388 -0.08735
C_ C_ 0.139641 0.307319 0.670098 -0.05681
C_ C_ 0.120112 0.308741 0.642284 -0.05681
C_ C_ 0.152476 0.322991 0.619915 -0.08735
C_ C_ 0.203619 0.32567 0.624315 -0.08735
C_ C_ 0.106753 0.312128 0.69324 -0.08735
C_ C_ 0.0557234 0.313531 0.688532 -0.08735
C_ C_ 0.034693 0.317949 0.660898 -0.05681
C_ C_ 0.0674693 0.310155 0.636918 -0.08735
C_ C_ 0.394521 0.216848 0.666405 0.68181
C_ C_ 0.373539 0.413377 0.646896 0.68181
C_ C_ 0.371893 0.470353 0.645545 -0.05681
C_ C_ 0.389328 -0.0007270000000000332 0.671998 -0.08735
C_ C_ 0.393671 0.0522626 0.671511 -0.05681
C_ C_ 0.37668 0.0781411 0.646142 -0.05681
C_ C_ 0.35203 0.0497592 0.625596 -0.08735
C_ C_ 0.37106 0.492783 0.618452 -0.08735
C_ C_ 0.41541 0.081504 0.693154 -0.08735
C_ C_ 0.408598 0.132786 0.693766 -0.08735
C_ C_ 0.395763 0.160396 0.668252 -0.05681
C_ C_ 0.383049 0.131539 0.643688 -0.08735
C_ C_ 0.477403 0.32872 0.660482 0.68181
C_ C_ 0.404428 0.378798 0.733315 0.1947
C_ C_ 0.4186 0.392295 0.760654 -0.08735
C_ C_ 0.394433 0.366747 0.783392 -0.08735
C_ C_ 0.36273 0.323463 0.778813 -0.05681
C_ C_ 0.356468 0.307447 0.750454 0.18498
C_ C_ 0.326799 0.262943 0.745414 -0.08735
C_ C_ 0.317208 0.230099 0.768672 -0.08735
C_ C_ 0.324333 0.245648 0.79741 -0.08735
C_ C_ 0.349536 0.292653 0.803017 0.18498
C_ C_ 0.31762 0.329425 0.848493 0.44287
C_ C_ 0.401395 0.295863 0.847329 0.44287
C_ C_ 0.409645 0.305564 0.876337 -0.05681
C_ C_ 0.456 0.295925 0.889731 -0.08735
C_ C_ 0.46114 0.29906 0.920615 -0.08735
C_ C_ 0.41763 0.312912 0.937208 -0.05681
C_ C_ 0.372468 0.326649 0.92328 -0.05681
C_ C_ 0.368571 0.323051 0.89341 -0.05681
C_ C_ 0.32362 0.338509 0.879066 -0.05681
C_ C_ 0.285941 0.361963 0.894977 -0.08735
C_ C_ 0.291673 0.36714 0.924169 -0.08735
C_ C_ 0.330959 0.341915 0.939415 -0.05681
C_ C_ 0.335437 0.343829 0.97008 0.44287
C_ C_ 0.416512 0.308825 0.967637 0.44287
C_ C_ 0.426911 0.333979 0.512208 0.18498
C_ C_ 0.45185 0.379018 0.519652 -0.08735
C_ C_ 0.458595 0.392949 0.547854 -0.08735
C_ C_ 0.44297 0.363666 0.57022 -0.08735
C_ C_ 0.414364 0.319446 0.56467 0.18498
C_ C_ 0.409175 0.302866 0.535784 -0.05681
C_ C_ 0.383809 0.257957 0.530768 -0.08735
C_ C_ 0.358889 0.230897 0.552974 -0.08735
C_ C_ 0.360961 0.25252 0.580489 0.1947
N_ N_ 0.134004 0.166098 0.976735 -0.29468
N_ N_ 0.156588 0.200592 0.582939 -0.17154
N_ N_ 0.12295 0.183332 0.730937 -0.17154
N_ N_ 0.145645 0.206498 0.835815 -0.29468
N_ N_ 0.376259 0.336597 0.728106 -0.29468
N_ N_ 0.357494 0.309367 0.833345 -0.17154
N_ N_ 0.378538 0.33061 0.982954 -0.17154
N_ N_ 0.387597 0.295661 0.585924 -0.29468
O_ O_ 0.219784 0.184976 0.932308 -0.58347
O_ O_ 0.209688 0.190255 0.884969 -0.58347
O_ O_ 0.135031 0.253196 0.935302 -0.58347
O_ O_ 0.128759 0.259886 0.888437 -0.58347
O_ O_ 0.152647 0.102198 0.921614 -0.58347
O_ O_ 0.144679 0.111806 0.876068 -0.58347
O_ O_ 0.0715562 0.175349 0.925431 -0.58347
O_ O_ 0.0598912 0.181589 0.877996 -0.58347
O_ O_ 0.0706843 0.218077 0.578631 -0.46727
O_ O_ 0.243707 0.194579 0.58937 -0.46727
O_ O_ 0.0373439 0.191705 0.724066 -0.46727
O_ O_ 0.21035 0.168745 0.734806 -0.46727
O_ O_ 0.299587 0.304263 0.678292 -0.58347
O_ O_ 0.309112 0.316125 0.632438 -0.58347
O_ O_ 0.392198 0.241932 0.689253 -0.58347
O_ O_ 0.38395 0.237829 0.64261 -0.58347
O_ O_ 0.362197 0.391877 0.670793 -0.58347
O_ O_ 0.38262 0.384854 0.625215 -0.58347
O_ O_ 0.447715 0.333508 0.681009 -0.58347
O_ O_ 0.460445 0.314444 0.635585 -0.58347
O_ O_ 0.43559 0.272875 0.831555 -0.46727
O_ O_ 0.272026 0.337069 0.836838 -0.46727
O_ O_ 0.452503 0.286122 0.98094 -0.46727
O_ O_ 0.296848 0.35636 0.985488 -0.46727
Zn Zn 0.129817 0.686539 0.381578 0.90689
Zn Zn 0.131132 0.684706 0.428626 0.90689
Zn Zn 0.370635 0.810847 0.135309 0.90689
Zn Zn 0.359534 0.814032 0.182277 0.90689
H_ H_ 0.304258 0.672425 0.440835 0.11455
H_ H_ 0.37338 0.661089 0.342453 0.11455
H_ H_ 0.281865 0.665781 0.350394 0.11455
H_ H_ 0.392582 0.686592 0.461534 0.11455
H_ H_ 0.481051 0.680465 0.451909 0.11455
H_ H_ 0.459832 0.671522 0.362117 0.11455
H_ H_ 0.111681 0.519848 0.441767 0.11455
H_ H_ 0.112251 0.944394 0.348936 0.11455
H_ H_ 0.138153 0.520339 0.348313 0.11455
H_ H_ 0.153183 0.937097 0.464137 0.11455
H_ H_ 0.140092 0.840986 0.460949 0.11455
H_ H_ 0.105568 0.851537 0.372741 0.11455
H_ H_ 0.0778147 0.617032 0.462623 0.11455
H_ H_ 0.0511499 0.585542 0.00960392 0.11455
H_ H_ 0.0923208 0.626391 0.0515376 0.11455
H_ H_ 0.201846 0.748835 0.473246 0.11455
H_ H_ 0.207327 0.804549 0.00616891 0.11455
H_ H_ 0.186355 0.786093 0.0579924 0.11455
H_ H_ 0.00863368 0.714985 0.121352 0.11455
H_ H_ 0.0019599999999999618 0.698271 0.172482 0.11455
H_ H_ 0.255735 0.655606 0.132521 0.11455
H_ H_ 0.248343 0.648583 0.18343 0.11455
H_ H_ 0.0652464 0.590123 0.24877 0.11455
H_ H_ 0.0547887 0.560768 0.299283 0.11455
H_ H_ 0.0848562 0.620936 0.338178 0.11455
H_ H_ 0.151748 0.753876 0.253831 0.11455
H_ H_ 0.181128 0.80452 0.29622 0.11455
H_ H_ 0.177455 0.76601 0.344804 0.11455
H_ H_ 0.190853 0.812393 0.200357 0.11455
H_ H_ 0.121801 0.839518 0.105574 0.11455
H_ H_ 0.213298 0.836501 0.109727 0.11455
H_ H_ 0.101741 0.804203 0.220193 0.11455
H_ H_ 0.0145664 0.801095 0.213902 0.11455
H_ H_ 0.0343199 0.823527 0.122239 0.11455
H_ H_ 0.353926 0.974819 0.1966 0.11455
H_ H_ 0.370721 0.556444 0.103244 0.11455
H_ H_ 0.391714 0.966962 0.107787 0.11455
H_ H_ 0.35543 0.571026 0.220397 0.11455
H_ H_ 0.36005 0.661381 0.213477 0.11455
H_ H_ 0.379279 0.64316 0.123349 0.11455
H_ H_ 0.437078 0.854857 0.219355 0.11455
H_ H_ 0.456323 0.887388 0.265043 0.11455
H_ H_ 0.402304 0.864187 0.305277 0.11455
H_ H_ 0.288424 0.755638 0.223241 0.11455
H_ H_ 0.24974 0.713807 0.264626 0.11455
H_ H_ 0.276686 0.733514 0.313933 0.11455
H_ H_ 0.480381 0.783953 0.37126 0.11455
H_ H_ 0.493133 0.797476 0.424958 0.11455
H_ H_ 0.23265 0.835773 0.391039 0.11455
H_ H_ 0.247658 0.856607 0.440737 0.11455
H_ H_ 0.416103 0.917335 0.499155 0.11455
H_ H_ 0.443618 0.927392 0.0517921 0.11455
H_ H_ 0.413093 0.876557 0.0913656 0.11455
H_ H_ 0.335052 0.738688 0.0125133 0.11455
H_ H_ 0.308802 0.691211 0.0539787 0.11455
H_ H_ 0.31899 0.725539 0.102159 0.11455
C_ C_ 0.228468 0.687401 0.399685 0.68181
C_ C_ 0.284573 0.678345 0.396525 -0.05681
C_ C_ 0.318154 0.677511 0.419692 -0.08735
C_ C_ 0.372465 0.677479 0.415453 -0.05681
C_ C_ 0.392554 0.672841 0.387825 -0.05681
C_ C_ 0.358345 0.665894 0.365075 -0.08735
C_ C_ 0.305573 0.672743 0.368207 -0.08735
C_ C_ 0.404864 0.685876 0.43913 -0.08735
C_ C_ 0.457658 0.681695 0.434521 -0.08735
C_ C_ 0.47849 0.673433 0.406996 -0.05681
C_ C_ 0.445395 0.674377 0.383733 -0.08735
C_ C_ 0.124669 0.785145 0.411572 0.68181
C_ C_ 0.131843 0.587225 0.397495 0.68181
C_ C_ 0.127997 0.531781 0.395517 -0.05681
C_ C_ 0.130157 1.00188727 0.423408 -0.08735
C_ C_ 0.12778 0.948928 0.420691 -0.05681
C_ C_ 0.118502 0.926575 0.39335 -0.05681
C_ C_ 0.116336 0.960612 0.369548 -0.08735
C_ C_ 0.124975 1.0124543 0.372429 -0.08735
C_ C_ 0.137836 0.918637 0.44449 -0.08735
C_ C_ 0.134055 0.864805 0.441815 -0.08735
C_ C_ 0.12812 0.842952 0.4144 -0.05681
C_ C_ 0.118363 0.872912 0.390935 -0.08735
C_ C_ 0.0347779 0.687951 0.407575 0.68181
C_ C_ 0.0941129 0.636996 0.479995 0.1947
C_ C_ 0.073742 0.619682 0.00679189 -0.08735
C_ C_ 0.0979292 0.641854 0.0308395 -0.08735
C_ C_ 0.130254 0.684085 0.0249511 -0.05681
C_ C_ 0.14274 0.696289 0.99528 0.18498
C_ C_ 0.18683 0.738407 0.494352 -0.08735
C_ C_ 0.191334 0.768114 0.0110262 -0.08735
C_ C_ 0.182356 0.757539 0.0408292 -0.08735
C_ C_ 0.151987 0.714365 0.0477806 0.18498
C_ C_ 0.182142 0.680494 0.0931365 0.44287
C_ C_ 0.100132 0.713324 0.0904318 0.44287
C_ C_ 0.089478 0.700363 0.119827 -0.05681
C_ C_ 0.0420835 0.706899 0.132919 -0.08735
C_ C_ 0.0381327 0.698873 0.162391 -0.08735
C_ C_ 0.0799757 0.688471 0.180437 -0.05681
C_ C_ 0.126569 0.68299 0.166812 -0.05681
C_ C_ 0.130391 0.684793 0.137062 -0.05681
C_ C_ 0.177967 0.673571 0.123443 -0.05681
C_ C_ 0.21951 0.662937 0.141647 -0.08735
C_ C_ 0.215035 0.659036 0.171403 -0.08735
C_ C_ 0.168366 0.668504 0.184076 -0.05681
C_ C_ 0.161066 0.66293 0.214748 0.44287
C_ C_ 0.0764051 0.687101 0.210338 0.44287
C_ C_ 0.106252 0.659591 0.257994 0.18498
C_ C_ 0.0805819 0.614701 0.265903 -0.08735
C_ C_ 0.0728553 0.599346 0.294194 -0.08735
C_ C_ 0.0914104 0.630833 0.316712 -0.08735
C_ C_ 0.118306 0.674808 0.310951 0.18498
C_ C_ 0.126492 0.691424 0.280251 -0.05681
C_ C_ 0.147827 0.7397 0.274664 -0.08735
C_ C_ 0.163771 0.768512 0.299087 -0.08735
C_ C_ 0.156341 0.74966 0.327353 0.1947
C_ C_ 0.265798 0.818064 0.15959 0.68181
C_ C_ 0.21057 0.824702 0.156755 -0.05681
C_ C_ 0.176226 0.818366 0.179538 -0.08735
C_ C_ 0.122768 0.821342 0.176606 -0.05681
C_ C_ 0.102693 0.831074 0.149599 -0.05681
C_ C_ 0.13641 0.837499 0.126928 -0.08735
C_ C_ 0.190069 0.833611 0.129569 -0.08735
C_ C_ 0.0889964 0.809855 0.198955 -0.08735
C_ C_ 0.0366609 0.811564 0.195135 -0.08735
C_ C_ 0.0161554 0.815574 0.166852 -0.05681
C_ C_ 0.0503397 0.824907 0.144399 -0.08735
C_ C_ 0.367241 0.714212 0.165079 0.68181
C_ C_ 0.363688 0.910314 0.154704 0.68181
C_ C_ 0.368464 0.965234 0.152185 -0.05681
C_ C_ 0.360134 0.497407 0.177884 -0.08735
C_ C_ 0.359028 0.551664 0.17534 -0.05681
C_ C_ 0.368461 0.574407 0.147226 -0.05681
C_ C_ 0.372609 0.541373 0.123852 -0.08735
C_ C_ 0.381771 -0.011499000000000037 0.12671 -0.08735
C_ C_ 0.359918 0.584396 0.198992 -0.08735
C_ C_ 0.357577 0.636708 0.195836 -0.08735
C_ C_ 0.364014 0.65834 0.168282 -0.05681
C_ C_ 0.371763 0.626409 0.144293 -0.08735
C_ C_ 0.462492 0.813468 0.157992 0.68181
C_ C_ 0.406784 0.850174 0.234393 0.1947
C_ C_ 0.420642 0.864493 0.26148 -0.08735
C_ C_ 0.388867 0.854408 0.284094 -0.08735
C_ C_ 0.348873 0.821539 0.279241 -0.05681
C_ C_ 0.332951 0.807323 0.250433 0.18498
C_ C_ 0.294552 0.770457 0.245331 -0.08735
C_ C_ 0.27672 0.74339 0.268413 -0.08735
C_ C_ 0.292839 0.753731 0.296942 -0.08735
C_ C_ 0.326586 0.794119 0.303044 0.18498
C_ C_ 0.302884 0.822906 0.351313 0.44287
C_ C_ 0.386089 0.792415 0.34455 0.44287
C_ C_ 0.397991 0.801277 0.373764 -0.05681
C_ C_ 0.447725 0.794729 0.385251 -0.08735
C_ C_ 0.457223 0.805379 0.415571 -0.08735
C_ C_ 0.415416 0.810584 0.434385 -0.05681
C_ C_ 0.367157 0.821563 0.422072 -0.05681
C_ C_ 0.359257 0.819835 0.392049 -0.05681
C_ C_ 0.312555 0.830918 0.379829 -0.05681
C_ C_ 0.271284 0.839403 0.398101 -0.08735
C_ C_ 0.279617 0.845418 0.427562 -0.08735
C_ C_ 0.327207 0.836973 0.43925 -0.05681
C_ C_ 0.334949 0.839704 0.46976 0.44287
C_ C_ 0.421376 0.82009 0.46373 0.44287
C_ C_ 0.387198 0.831094 0.0141655 0.18498
C_ C_ 0.408828 0.879155 0.0196124 -0.08735
C_ C_ 0.423249 0.893094 0.0470939 -0.08735
C_ C_ 0.409113 0.863485 0.0705731 -0.08735
C_ C_ 0.379772 0.819617 0.0660933 0.18498
C_ C_ 0.365959 0.802634 0.0371572 -0.05681
C_ C_ 0.339421 0.757586 0.0337057 -0.08735
C_ C_ 0.323512 0.729363 0.0575468 -0.08735
C_ C_ 0.333745 0.748107 0.0844264 0.1947
N_ N_ 0.130572 0.675481 0.475705 -0.29468
N_ N_ 0.144587 0.702061 0.0778159 -0.17154
N_ N_ 0.115162 0.668864 0.226874 -0.17154
N_ N_ 0.128835 0.706882 0.333062 -0.29468
N_ N_ 0.362589 0.825042 0.228245 -0.29468
N_ N_ 0.339605 0.804883 0.333474 -0.17154
N_ N_ 0.381017 0.831373 0.481193 -0.17154
N_ N_ 0.364172 0.790341 0.0888436 -0.29468
O_ O_ 0.206752 0.679155 0.424587 -0.58347
O_ O_ 0.203032 0.697842 0.377077 -0.58347
O_ O_ 0.142179 0.758157 0.431666 -0.58347
O_ O_ 0.117257 0.765888 0.386747 -0.58347
O_ O_ 0.127556 0.609527 0.419918 -0.58347
O_ O_ 0.142316 0.611231 0.3756 -0.58347
O_ O_ 0.0604004 0.696311 0.43006 -0.58347
O_ O_ 0.0552844 0.681441 0.383378 -0.58347
O_ O_ 0.0646433 0.739568 0.0769033 -0.46727
O_ O_ 0.225503 0.67294 0.0819041 -0.46727
O_ O_ 0.0375087 0.706776 0.223708 -0.46727
O_ O_ 0.201103 0.652768 0.229486 -0.46727
O_ O_ 0.287183 0.824307 0.183971 -0.58347
O_ O_ 0.292901 0.806133 0.138077 -0.58347
O_ O_ 0.353285 0.741779 0.185776 -0.58347
O_ O_ 0.38215 0.734275 0.141869 -0.58347
O_ O_ 0.361982 0.888477 0.179201 -0.58347
O_ O_ 0.358548 0.883867 0.132283 -0.58347
O_ O_ 0.432514 0.808554 0.179805 -0.58347
O_ O_ 0.445989 0.823337 0.133464 -0.58347
O_ O_ 0.420115 0.772429 0.328025 -0.46727
O_ O_ 0.256437 0.82197 0.341765 -0.46727
O_ O_ 0.464396 0.806123 0.476732 -0.46727
O_ O_ 0.296209 0.851594 0.487306 -0.46727
Zn Zn 0.117413 0.686242 0.879117 0.90689
Zn Zn 0.131235 0.681075 0.927241 0.90689
Zn Zn 0.372674 0.812969 0.632822 0.90689
Zn Zn 0.362137 0.818379 0.679845 0.90689
H_ H_ 0.298089 0.690831 0.944849 0.11455
H_ H_ 0.362759 0.655335 0.847724 0.11455
H_ H_ 0.273547 0.667506 0.853727 0.11455
H_ H_ 0.381385 0.683026 0.964102 0.11455
H_ H_ 0.473915 0.68551 0.958144 0.11455
H_ H_ 0.44976 0.675566 0.864417 0.11455
H_ H_ 0.150936 0.517396 0.939479 0.11455
H_ H_ 0.129352 0.934664 0.841687 0.11455
H_ H_ 0.128229 0.523562 0.849437 0.11455
H_ H_ 0.108857 0.933623 0.958115 0.11455
H_ H_ 0.0959927 0.843781 0.954667 0.11455
H_ H_ 0.111294 0.851791 0.863393 0.11455
H_ H_ 0.0675302 0.614538 0.961178 0.11455
H_ H_ 0.0614923 0.583372 0.509374 0.11455
H_ H_ 0.101315 0.622676 0.550862 0.11455
H_ H_ 0.178079 0.747693 0.96689 0.11455
H_ H_ 0.227782 0.80159 0.514737 0.11455
H_ H_ 0.20746 0.774208 0.563723 0.11455
H_ H_ 1.0154557 0.70011 0.622078 0.11455
H_ H_ 1.00961142 0.692725 0.676077 0.11455
H_ H_ 0.261582 0.646196 0.633955 0.11455
H_ H_ 0.25799 0.641615 0.686458 0.11455
H_ H_ 0.0708824 0.576683 0.750741 0.11455
H_ H_ 0.0486341 0.560687 0.799264 0.11455
H_ H_ 0.0667881 0.622603 0.83707 0.11455
H_ H_ 0.160128 0.735123 0.753885 0.11455
H_ H_ 0.196511 0.782813 0.793819 0.11455
H_ H_ 0.176517 0.757931 0.843703 0.11455
H_ H_ 0.194493 0.799521 0.698026 0.11455
H_ H_ 0.129135 0.826486 0.598254 0.11455
H_ H_ 0.217973 0.825877 0.604943 0.11455
H_ H_ 0.108427 0.795507 0.712524 0.11455
H_ H_ 0.0111672 0.795572 0.707175 0.11455
H_ H_ 0.0409648 0.825437 0.616185 0.11455
H_ H_ 0.400115 0.980809 0.691357 0.11455
H_ H_ 0.361636 0.566605 0.595995 0.11455
H_ H_ 0.32024 0.97372 0.612164 0.11455
H_ H_ 0.382804 0.568338 0.714336 0.11455
H_ H_ 0.370247 0.656949 0.711565 0.11455
H_ H_ 0.393202 0.64767 0.618576 0.11455
H_ H_ 0.413574 0.895651 0.714687 0.11455
H_ H_ 0.423529 0.928368 0.764342 0.11455
H_ H_ 0.387535 0.880065 0.805538 0.11455
H_ H_ 0.313411 0.754908 0.722004 0.11455
H_ H_ 0.277262 0.697776 0.761784 0.11455
H_ H_ 0.303791 0.713858 0.811964 0.11455
H_ H_ 0.492439 0.805634 0.874664 0.11455
H_ H_ 0.502719 0.815898 0.926119 0.11455
H_ H_ 0.23459 0.81026 0.890111 0.11455
H_ H_ 0.2458 0.822995 0.941445 0.11455
H_ H_ 0.423896 0.902609 1.00379 0.11455
H_ H_ 0.446281 0.94185 0.547186 0.11455
H_ H_ 0.43298 0.878196 0.587477 0.11455
H_ H_ 0.332973 0.758305 0.507326 0.11455
H_ H_ 0.304552 0.70967 0.54988 0.11455
H_ H_ 0.318396 0.738084 0.598536 0.11455
C_ C_ 0.224469 0.686277 0.903422 0.68181
C_ C_ 0.279569 0.684581 0.898598 -0.05681
C_ C_ 0.311241 0.679947 0.923048 -0.08735
C_ C_ 0.364555 0.676332 0.918996 -0.05681
C_ C_ 0.384819 0.675069 0.890473 -0.05681
C_ C_ 0.350515 0.668868 0.868058 -0.08735
C_ C_ 0.299274 0.673481 0.871476 -0.08735
C_ C_ 0.39559 0.682337 0.942766 -0.08735
C_ C_ 0.449373 0.680264 0.93874 -0.08735
C_ C_ 0.471012 0.677053 0.910737 -0.05681
C_ C_ 0.437012 0.671763 0.886415 -0.08735
C_ C_ 0.114513 0.781774 0.90673 0.68181
C_ C_ 0.129279 0.583972 0.897184 0.68181
C_ C_ 0.132372 0.527682 0.895002 -0.05681
C_ C_ 0.131137 0.996269 0.91599 -0.08735
C_ C_ 0.121865 0.944516 0.913309 -0.05681
C_ C_ 0.12127 0.922448 0.88642 -0.05681
C_ C_ 0.136966 0.951667 0.862863 -0.08735
C_ C_ 0.150474 0.00278508 0.865847 -0.08735
C_ C_ 0.113729 0.917082 0.937476 -0.08735
C_ C_ 0.108153 0.862579 0.936049 -0.08735
C_ C_ 0.112364 0.837294 0.909061 -0.05681
C_ C_ 0.113609 0.869077 0.8841 -0.08735
C_ C_ 0.027227 0.678959 0.902056 0.68181
C_ C_ 0.0879076 0.63097 0.978622 0.1947
C_ C_ 0.0823893 0.619986 0.507189 -0.08735
C_ C_ 0.105588 0.64175 0.530733 -0.08735
C_ C_ 0.137378 0.684227 0.527307 -0.05681
C_ C_ 0.148318 0.70003 0.498848 0.18498
C_ C_ 0.17402 0.737003 0.989013 -0.08735
C_ C_ 0.205256 0.766056 0.517558 -0.08735
C_ C_ 0.19454 0.750701 0.545577 -0.08735
C_ C_ 0.160414 0.711072 0.551355 0.18498
C_ C_ 0.191106 0.677726 0.595705 0.44287
C_ C_ 0.10676 0.704763 0.593167 0.44287
C_ C_ 0.0988666 0.693383 0.622954 -0.05681
C_ C_ 0.0496007 0.694936 0.635474 -0.08735
C_ C_ 0.0441519 0.691239 0.665735 -0.08735
C_ C_ 0.0860554 0.677413 0.682269 -0.05681
C_ C_ 0.13439 0.673412 0.670134 -0.05681
C_ C_ 0.139989 0.673704 0.639039 -0.05681
C_ C_ 0.185663 0.667848 0.625749 -0.05681
C_ C_ 0.228272 0.654752 0.643382 -0.08735
C_ C_ 0.224981 0.65549 0.673278 -0.08735
C_ C_ 0.177772 0.658038 0.68649 -0.05681
C_ C_ 0.170903 0.650817 0.716024 0.44287
C_ C_ 0.0804421 0.666015 0.712154 0.44287
C_ C_ 0.113282 0.646445 0.758467 0.18498
C_ C_ 0.0861544 0.601741 0.766494 -0.08735
C_ C_ 0.0673407 0.594201 0.794245 -0.08735
C_ C_ 0.078702 0.629705 0.815491 -0.08735
C_ C_ 0.110293 0.66985 0.809956 0.18498
C_ C_ 0.122678 0.6832 0.78092 -0.05681
C_ C_ 0.154881 0.721123 0.77556 -0.08735
C_ C_ 0.171869 0.751171 0.797915 -0.08735
C_ C_ 0.161704 0.734135 0.826536 0.1947
C_ C_ 0.268465 0.811022 0.656032 0.68181
C_ C_ 0.213778 0.812335 0.652003 -0.05681
C_ C_ 0.181103 0.807377 0.675617 -0.08735
C_ C_ 0.126257 0.810098 0.669473 -0.05681
C_ C_ 0.107223 0.818583 0.642451 -0.05681
C_ C_ 0.142375 0.822082 0.619754 -0.08735
C_ C_ 0.193877 0.822836 0.624076 -0.08735
C_ C_ 0.0930186 0.803563 0.692249 -0.08735
C_ C_ 0.0390465 0.806351 0.688992 -0.08735
C_ C_ 0.021143 0.817751 0.660826 -0.05681
C_ C_ 0.0559131 0.817351 0.637504 -0.08735
C_ C_ 0.375633 0.717654 0.661531 0.68181
C_ C_ 0.361334 0.915589 0.651824 0.68181
C_ C_ 0.36372 0.970473 0.650299 -0.05681
C_ C_ 0.369263 0.500642 0.669867 -0.08735
C_ C_ 0.368933 0.555132 0.668295 -0.05681
C_ C_ 0.371435 0.577998 0.641411 -0.05681
C_ C_ 0.367338 0.547015 0.616274 -0.08735
C_ C_ 0.34641 0.995841 0.626773 -0.08735
C_ C_ 0.375852 0.585549 0.69293 -0.08735
C_ C_ 0.372939 0.638106 0.690681 -0.08735
C_ C_ 0.373961 0.662545 0.663019 -0.05681
C_ C_ 0.37611 0.633014 0.638183 -0.08735
C_ C_ 0.465243 0.820996 0.65194 0.68181
C_ C_ 0.396611 0.874872 0.73323 0.1947
C_ C_ 0.411173 0.887569 0.760943 -0.08735
C_ C_ 0.389667 0.86191 0.78457 -0.08735
C_ C_ 0.36268 0.814683 0.779882 -0.05681
C_ C_ 0.35342 0.800874 0.7497 0.18498
C_ C_ 0.319481 0.762838 0.743656 -0.08735
C_ C_ 0.296022 0.735268 0.766003 -0.08735
C_ C_ 0.313108 0.741858 0.795152 -0.08735
C_ C_ 0.346238 0.78287 0.802702 0.18498
C_ C_ 0.312216 0.804731 0.850322 0.44287
C_ C_ 0.400956 0.789613 0.846304 0.44287
C_ C_ 0.408907 0.797334 0.87604 -0.05681
C_ C_ 0.458386 0.805547 0.886828 -0.08735
C_ C_ 0.463413 0.810734 0.917523 -0.08735
C_ C_ 0.419651 0.811837 0.936007 -0.05681
C_ C_ 0.371184 0.810079 0.92353 -0.05681
C_ C_ 0.365765 0.804442 0.893657 -0.05681
C_ C_ 0.318088 0.811692 0.879909 -0.05681
C_ C_ 0.273734 0.815748 0.897659 -0.08735
C_ C_ 0.280743 0.818456 0.928304 -0.08735
C_ C_ 0.328378 0.816566 0.940576 -0.05681
C_ C_ 0.335331 0.825426 0.970844 0.44287
C_ C_ 0.423534 0.814961 0.965792 0.44287
C_ C_ 0.389952 0.84387 0.510588 0.18498
C_ C_ 0.41398 0.889242 0.515914 -0.08735
C_ C_ 0.427761 0.903186 0.543676 -0.08735
C_ C_ 0.413283 0.871743 0.566658 -0.08735
C_ C_ 0.381863 0.82966 0.561603 0.18498
C_ C_ 0.373186 0.813783 0.53293 -0.05681
C_ C_ 0.345683 0.768362 0.528832 -0.08735
C_ C_ 0.328054 0.741556 0.552822 -0.08735
C_ C_ 0.334102 0.760324 0.579932 0.1947
N_ N_ 0.118775 0.670828 0.973723 -0.29468
N_ N_ 0.152237 0.698507 0.580947 -0.17154
N_ N_ 0.1229 0.658444 0.728843 -0.17154
N_ N_ 0.127272 0.700106 0.832337 -0.29468
N_ N_ 0.367782 0.831449 0.728343 -0.29468
N_ N_ 0.354421 0.794222 0.833039 -0.17154
N_ N_ 0.381306 0.81584 0.983769 -0.17154
N_ N_ 0.363672 0.802653 0.584808 -0.29468
O_ O_ 0.205688 0.688588 0.928813 -0.58347
O_ O_ 0.194929 0.686043 0.880576 -0.58347
O_ O_ 0.114695 0.755002 0.928632 -0.58347
O_ O_ 0.112676 0.759911 0.883173 -0.58347
O_ O_ 0.13223 0.605215 0.922013 -0.58347
O_ O_ 0.127059 0.610185 0.87451 -0.58347
O_ O_ 0.0567348 0.674598 0.922943 -0.58347
O_ O_ 0.0452745 0.679379 0.877915 -0.58347
O_ O_ 0.0708552 0.729909 0.578868 -0.46727
O_ O_ 0.235485 0.67342 0.583601 -0.46727
O_ O_ 0.0345669 0.663095 0.723037 -0.46727
O_ O_ 0.210147 0.644129 0.732397 -0.46727
O_ O_ 0.288091 0.806604 0.680118 -0.58347
O_ O_ 0.29666 0.8101 0.633743 -0.58347
O_ O_ 0.374656 0.743663 0.683982 -0.58347
O_ O_ 0.375786 0.739479 0.637706 -0.58347
O_ O_ 0.344722 0.893578 0.674525 -0.58347
O_ O_ 0.369677 0.888626 0.62958 -0.58347
O_ O_ 0.436673 0.830272 0.673893 -0.58347
O_ O_ 0.44567 0.814244 0.628833 -0.58347
O_ O_ 0.438245 0.768807 0.831434 -0.46727
O_ O_ 0.269734 0.813305 0.838182 -0.46727
O_ O_ 0.469426 0.813279 0.977815 -0.46727
O_ O_ 0.294829 0.833792 0.986073 -0.46727
Zn Zn 0.623579 0.185271 0.381924 0.90689
Zn Zn 0.628111 0.177132 0.431041 0.90689
Zn Zn 0.869931 0.305669 0.133947 0.90689
Zn Zn 0.859083 0.312948 0.179956 0.90689
H_ H_ 0.79843 0.209405 0.444699 0.11455
H_ H_ 0.869084 0.185593 0.349132 0.11455
H_ H_ 0.781917 0.164669 0.356903 0.11455
H_ H_ 0.879966 0.208613 0.466913 0.11455
H_ H_ 0.976707 0.211938 0.458672 0.11455
H_ H_ 0.951047 0.196041 0.367374 0.11455
H_ H_ 0.627418 0.010317 0.440261 0.11455
H_ H_ 0.635771 0.43081 0.346668 0.11455
H_ H_ 0.622682 0.0247399 0.346932 0.11455
H_ H_ 0.620498 0.432123 0.465641 0.11455
H_ H_ 0.618064 0.340521 0.462884 0.11455
H_ H_ 0.625448 0.348248 0.371531 0.11455
H_ H_ 0.583802 0.099019 0.467094 0.11455
H_ H_ 0.570499 0.0766712 0.0123493 0.11455
H_ H_ 0.607716 0.117769 0.0557005 0.11455
H_ H_ 0.69581 0.23959 0.47402 0.11455
H_ H_ 0.715382 0.303737 0.0148673 0.11455
H_ H_ 0.690307 0.280779 0.0651431 0.11455
H_ H_ 0.516587 0.206042 0.123654 0.11455
H_ H_ 0.499998 0.182587 0.173286 0.11455
H_ H_ 0.765683 0.148015 0.137335 0.11455
H_ H_ 0.756314 0.148035 0.188442 0.11455
H_ H_ 0.568825 0.0773905 0.255295 0.11455
H_ H_ 0.541038 0.0640682 0.303466 0.11455
H_ H_ 0.561369 0.125749 0.34064 0.11455
H_ H_ 0.657766 0.236691 0.256302 0.11455
H_ H_ 0.682803 0.293652 0.295435 0.11455
H_ H_ 0.673848 0.263275 0.345474 0.11455
H_ H_ 0.690443 0.309157 0.199026 0.11455
H_ H_ 0.623976 0.32328 0.101665 0.11455
H_ H_ 0.719539 0.322037 0.109193 0.11455
H_ H_ 0.60555 0.31729 0.217692 0.11455
H_ H_ 0.519048 0.289183 0.208355 0.11455
H_ H_ 0.53603 0.332088 0.121354 0.11455
H_ H_ 0.840514 0.481413 0.196162 0.11455
H_ H_ 0.898206 0.0513762 0.103416 0.11455
H_ H_ 0.87961 0.462477 0.107508 0.11455
H_ H_ 0.867328 0.0651375 0.216394 0.11455
H_ H_ 0.860391 0.156243 0.212583 0.11455
H_ H_ 0.882339 0.139147 0.120755 0.11455
H_ H_ 0.903076 0.394015 0.213227 0.11455
H_ H_ 0.918549 0.425239 0.261136 0.11455
H_ H_ 0.882039 0.378405 0.303676 0.11455
H_ H_ 0.816468 0.242162 0.222156 0.11455
H_ H_ 0.786594 0.189912 0.26268 0.11455
H_ H_ 0.799377 0.212253 0.312263 0.11455
H_ H_ 0.985973 0.301663 0.36596 0.11455
H_ H_ 0.00125124 0.322672 0.417309 0.11455
H_ H_ 0.733981 0.331549 0.387261 0.11455
H_ H_ 0.748963 0.343245 0.437182 0.11455
H_ H_ 0.942231 0.415001 0.496943 0.11455
H_ H_ 0.952631 0.427945 0.0523862 0.11455
H_ H_ 0.924326 0.37039 0.090644 0.11455
H_ H_ 0.86243 0.236101 0.00811149 0.11455
H_ H_ 0.837243 0.18511 0.0523035 0.11455
H_ H_ 0.822035 0.227443 0.0968648 0.11455
C_ C_ 0.72391 0.184487 0.405161 0.68181
C_ C_ 0.779276 0.183337 0.401515 -0.05681
C_ C_ 0.812759 0.196486 0.42428 -0.08735
C_ C_ 0.865521 0.201288 0.420649 -0.05681
C_ C_ 0.885314 0.190719 0.394294 -0.05681
C_ C_ 0.853681 0.185619 0.370408 -0.08735
C_ C_ 0.801864 0.180562 0.37439 -0.08735
C_ C_ 0.898037 0.206059 0.444349 -0.08735
C_ C_ 0.949783 0.206321 0.44049 -0.08735
C_ C_ 0.9702 0.191962 0.41289 -0.05681
C_ C_ 0.936771 0.188161 0.389109 -0.08735
C_ C_ 0.622732 0.280439 0.414447 0.68181
C_ C_ 0.625527 0.0832818 0.397707 0.68181
C_ C_ 0.629675 0.0262514 0.394599 -0.05681
C_ C_ 0.636374 0.497206 0.420613 -0.08735
C_ C_ 0.633633 0.442517 0.420199 -0.05681
C_ C_ 0.637226 0.418998 0.393052 -0.05681
C_ C_ 0.637055 0.448573 0.367641 -0.08735
C_ C_ 0.640718 0.501178 0.369848 -0.08735
C_ C_ 0.622608 0.415361 0.444446 -0.08735
C_ C_ 0.624963 0.363076 0.443316 -0.08735
C_ C_ 0.624976 0.336589 0.415886 -0.05681
C_ C_ 0.630284 0.366542 0.391006 -0.08735
C_ C_ 0.52761 0.175276 0.408078 0.68181
C_ C_ 0.598559 0.124109 0.484213 0.1947
C_ C_ 0.589911 0.112676 0.0108129 -0.08735
C_ C_ 0.611546 0.135025 0.034575 -0.08735
C_ C_ 0.640126 0.180888 0.0298694 -0.05681
C_ C_ 0.654018 0.194363 1.00148208 0.18498
C_ C_ 0.682811 0.232949 0.495132 -0.08735
C_ C_ 0.699133 0.266847 0.0191889 -0.08735
C_ C_ 0.686936 0.253735 0.0480409 -0.08735
C_ C_ 0.66286 0.207237 0.0529482 0.18498
C_ C_ 0.69105 0.176276 0.0997278 0.44287
C_ C_ 0.605564 0.204145 0.0945857 0.44287
C_ C_ 0.597 0.189564 0.123816 -0.05681
C_ C_ 0.546667 0.190668 0.135585 -0.08735
C_ C_ 0.54005 0.184108 0.165087 -0.08735
C_ C_ 0.579465 0.17268 0.182827 -0.05681
C_ C_ 0.628865 0.169962 0.171443 -0.05681
C_ C_ 0.637247 0.175645 0.140752 -0.05681
C_ C_ 0.685899 0.170074 0.129086 -0.05681
C_ C_ 0.725684 0.151761 0.146367 -0.08735
C_ C_ 0.719013 0.148943 0.176691 -0.08735
C_ C_ 0.671048 0.161389 0.189618 -0.05681
C_ C_ 0.6623 0.157808 0.220022 0.44287
C_ C_ 0.574273 0.172835 0.212939 0.44287
C_ C_ 0.603932 0.149494 0.261436 0.18498
C_ C_ 0.57633 0.107133 0.270069 -0.08735
C_ C_ 0.56175 0.0984579 0.298699 -0.08735
C_ C_ 0.571949 0.134258 0.318759 -0.08735
C_ C_ 0.602439 0.177297 0.31252 0.18498
C_ C_ 0.61954 0.183466 0.283691 -0.05681
C_ C_ 0.646156 0.229071 0.277504 -0.08735
C_ C_ 0.666931 0.259271 0.299726 -0.08735
C_ C_ 0.654308 0.244689 0.328521 0.1947
C_ C_ 0.768805 0.304576 0.158027 0.68181
C_ C_ 0.712291 0.312147 0.153955 -0.05681
C_ C_ 0.677839 0.311309 0.177362 -0.08735
C_ C_ 0.62543 0.314907 0.172872 -0.05681
C_ C_ 0.605615 0.316838 0.145747 -0.05681
C_ C_ 0.638754 0.319822 0.121967 -0.08735
C_ C_ 0.692185 0.319183 0.12683 -0.08735
C_ C_ 0.591984 0.311568 0.195954 -0.08735
C_ C_ 0.538822 0.308605 0.191891 -0.08735
C_ C_ 0.518427 0.312121 0.164408 -0.05681
C_ C_ 0.552424 0.317815 0.141589 -0.08735
C_ C_ 0.874599 0.210643 0.163979 0.68181
C_ C_ 0.855855 0.410188 0.153579 0.68181
C_ C_ 0.856876 0.46531 0.150739 -0.05681
C_ C_ 0.84551 -0.0017329999999999846 0.174941 -0.08735
C_ C_ 0.858176 0.0503654 0.171651 -0.05681
C_ C_ 0.866988 0.0698429 0.144016 -0.05681
C_ C_ 0.877479 0.0369052 0.121223 -0.08735
C_ C_ 0.866714 0.486157 0.124065 -0.08735
C_ C_ 0.860357 0.0815521 0.195602 -0.08735
C_ C_ 0.862874 0.133102 0.192592 -0.08735
C_ C_ 0.874936 0.155334 0.166546 -0.05681
C_ C_ 0.875666 0.123109 0.142706 -0.08735
C_ C_ 0.962605 0.323463 0.157239 0.68181
C_ C_ 0.890771 0.371648 0.231474 0.1947
C_ C_ 0.896245 0.39118 0.259424 -0.08735
C_ C_ 0.879761 0.361682 0.282886 -0.08735
C_ C_ 0.852919 0.316426 0.278561 -0.05681
C_ C_ 0.844545 0.301164 0.248918 0.18498
C_ C_ 0.818697 0.256282 0.24416 -0.08735
C_ C_ 0.806881 0.224845 0.26693 -0.08735
C_ C_ 0.812168 0.23967 0.295024 -0.08735
C_ C_ 0.836067 0.285622 0.300625 0.18498
C_ C_ 0.806796 0.316113 0.346452 0.44287
C_ C_ 0.893861 0.302154 0.339003 0.44287
C_ C_ 0.905324 0.316381 0.366881 -0.05681
C_ C_ 0.954695 0.315573 0.378467 -0.08735
C_ C_ 0.96254 0.322596 0.407783 -0.08735
C_ C_ 0.920897 0.326838 0.426606 -0.05681
C_ C_ 0.871901 0.329514 0.41534 -0.05681
C_ C_ 0.864181 0.324921 0.385486 -0.05681
C_ C_ 0.814665 0.327786 0.375185 -0.05681
C_ C_ 0.773715 0.336779 0.394072 -0.08735
C_ C_ 0.781669 0.339539 0.423768 -0.08735
C_ C_ 0.830573 0.336541 0.434729 -0.05681
C_ C_ 0.839875 0.339343 0.464553 0.44287
C_ C_ 0.928383 0.333556 0.457007 0.44287
C_ C_ 0.900185 0.332311 0.0116091 0.18498
C_ C_ 0.930854 0.373904 0.0191292 -0.08735
C_ C_ 0.933421 0.391662 0.0470688 -0.08735
C_ C_ 0.910463 0.364159 0.0688728 -0.08735
C_ C_ 0.88161 0.322462 0.0630916 0.18498
C_ C_ 0.881367 0.301825 0.0343754 -0.05681
C_ C_ 0.86513 0.252147 0.0292825 -0.08735
C_ C_ 0.849433 0.224576 0.0535108 -0.08735
C_ C_ 0.839937 0.249384 0.0793079 0.1947
N_ N_ 0.629045 0.163225 0.478926 -0.29468
N_ N_ 0.651311 0.192793 0.0831224 -0.17154
N_ N_ 0.614043 0.16066 0.231385 -0.17154
N_ N_ 0.624466 0.204526 0.333523 -0.29468
N_ N_ 0.861896 0.330127 0.226596 -0.29468
N_ N_ 0.845481 0.29877 0.329838 -0.17154
N_ N_ 0.888147 0.336162 0.47466 -0.17154
N_ N_ 0.862138 0.294711 0.0856421 -0.29468
O_ O_ 0.701551 0.17554 0.428371 -0.58347
O_ O_ 0.69705 0.192578 0.383414 -0.58347
O_ O_ 0.633821 0.254144 0.435593 -0.58347
O_ O_ 0.618069 0.259967 0.389772 -0.58347
O_ O_ 0.621621 0.104057 0.422292 -0.58347
O_ O_ 0.630896 0.111594 0.376196 -0.58347
O_ O_ 0.554444 0.18197 0.429414 -0.58347
O_ O_ 0.547674 0.178463 0.383027 -0.58347
O_ O_ 0.56732 0.219885 0.0779544 -0.46727
O_ O_ 0.736778 0.167751 0.0883563 -0.46727
O_ O_ 0.532317 0.186326 0.225388 -0.46727
O_ O_ 0.701755 0.153158 0.237793 -0.46727
O_ O_ 0.785567 0.301601 0.183048 -0.58347
O_ O_ 0.798323 0.302989 0.135992 -0.58347
O_ O_ 0.878223 0.24025 0.185442 -0.58347
O_ O_ 0.871088 0.230485 0.139573 -0.58347
O_ O_ 0.847299 0.389159 0.176915 -0.58347
O_ O_ 0.86783 0.383198 0.131835 -0.58347
O_ O_ 0.934092 0.321884 0.179073 -0.58347
O_ O_ 0.944931 0.306491 0.133327 -0.58347
O_ O_ 0.930814 0.282914 0.323237 -0.46727
O_ O_ 0.759192 0.316026 0.33635 -0.46727
O_ O_ 0.9748 0.333462 0.467535 -0.46727
O_ O_ 0.803068 0.348987 0.482091 -0.46727
Zn Zn 0.633435 0.190887 0.882379 0.90689
Zn Zn 0.644243 0.184709 0.929876 0.90689
Zn Zn 0.88278 0.317577 0.631594 0.90689
Zn Zn 0.877606 0.327664 0.680952 0.90689
H_ H_ 0.817478 0.181017 0.945408 0.11455
H_ H_ 0.876021 0.173365 0.843421 0.11455
H_ H_ 0.787496 0.182694 0.854156 0.11455
H_ H_ 0.901447 0.161041 0.960539 0.11455
H_ H_ 0.99421 0.180159 0.953083 0.11455
H_ H_ 0.97011 0.178139 0.862917 0.11455
H_ H_ 0.621808 0.0168612 0.93855 0.11455
H_ H_ 0.614157 0.437767 0.847144 0.11455
H_ H_ 0.65462 0.0351215 0.850122 0.11455
H_ H_ 0.6546 0.436959 0.961645 0.11455
H_ H_ 0.637455 0.346735 0.960919 0.11455
H_ H_ 0.60218 0.356452 0.870454 0.11455
H_ H_ 0.587733 0.10579 0.965973 0.11455
H_ H_ 0.563792 0.0820909 0.518536 0.11455
H_ H_ 0.596415 0.131661 0.557693 0.11455
H_ H_ 0.700709 0.243433 0.975163 0.11455
H_ H_ 0.730287 0.292282 0.514818 0.11455
H_ H_ 0.689098 0.284169 0.562084 0.11455
H_ H_ 0.51114 0.216751 0.624295 0.11455
H_ H_ 0.505224 0.215927 0.677606 0.11455
H_ H_ 0.760265 0.151357 0.63712 0.11455
H_ H_ 0.753787 0.145088 0.688121 0.11455
H_ H_ 0.580226 0.104504 0.745607 0.11455
H_ H_ 0.584144 0.062176 0.795116 0.11455
H_ H_ 0.604502 0.11442 0.835485 0.11455
H_ H_ 0.656153 0.267499 0.759255 0.11455
H_ H_ 0.690263 0.309212 0.803573 0.11455
H_ H_ 0.684105 0.266642 0.850201 0.11455
H_ H_ 0.706955 0.334526 0.697818 0.11455
H_ H_ 0.628554 0.320446 0.60111 0.11455
H_ H_ 0.726907 0.331096 0.60572 0.11455
H_ H_ 0.62586 0.337339 0.717876 0.11455
H_ H_ 0.530983 0.347837 0.710613 0.11455
H_ H_ 0.551574 0.329976 0.619569 0.11455
H_ H_ 0.900949 0.492035 0.690507 0.11455
H_ H_ 0.888514 0.0706898 0.598292 0.11455
H_ H_ 0.88793 0.472981 0.598414 0.11455
H_ H_ 0.828463 0.0830311 0.711221 0.11455
H_ H_ 0.854868 0.169047 0.710802 0.11455
H_ H_ 0.896046 0.153477 0.620813 0.11455
H_ H_ 0.938563 0.396771 0.71908 0.11455
H_ H_ 0.95256 0.425082 0.771457 0.11455
H_ H_ 0.900113 0.385201 0.808235 0.11455
H_ H_ 0.811727 0.266708 0.72265 0.11455
H_ H_ 0.768448 0.224794 0.761955 0.11455
H_ H_ 0.789427 0.239173 0.811659 0.11455
H_ H_ 0.990798 0.28607 0.872882 0.11455
H_ H_ 0.00292705 0.296075 0.924163 0.11455
H_ H_ 0.740728 0.324037 0.889435 0.11455
H_ H_ 0.753176 0.318209 0.942809 0.11455
H_ H_ 0.953618 0.391731 1.00258 0.11455
H_ H_ 0.971888 0.422406 0.543785 0.11455
H_ H_ 0.942518 0.373015 0.584489 0.11455
H_ H_ 0.84343 0.25692 0.505311 0.11455
H_ H_ 0.807567 0.215323 0.545589 0.11455
H_ H_ 0.826268 0.246131 0.594906 0.11455
C_ C_ 0.736856 0.18385 0.906239 0.68181
C_ C_ 0.792716 0.184087 0.899836 -0.05681
C_ C_ 0.827157 0.181353 0.922849 -0.08735
C_ C_ 0.880924 0.17957 0.916668 -0.05681
C_ C_ 0.899084 0.17764 0.888676 -0.05681
C_ C_ 0.864813 0.178881 0.865961 -0.08735
C_ C_ 0.81095 0.183278 0.871569 -0.08735
C_ C_ 0.915978 0.169759 0.939338 -0.08735
C_ C_ 0.967981 0.169858 0.934436 -0.08735
C_ C_ 0.986753 0.170364 0.906964 -0.05681
C_ C_ 0.953254 0.173931 0.8833 -0.08735
C_ C_ 0.629768 0.287441 0.913238 0.68181
C_ C_ 0.642652 0.0882735 0.898777 0.68181
C_ C_ 0.63457 0.0339308 0.894357 -0.05681
C_ C_ 0.632756 0.504838 0.920119 -0.08735
C_ C_ 0.632304 0.450156 0.918572 -0.05681
C_ C_ 0.621045 0.426284 0.892189 -0.05681
C_ C_ 0.619502 0.455779 0.86767 -0.08735
C_ C_ 0.624103 0.509531 0.868445 -0.08735
C_ C_ 0.637953 0.420979 0.943162 -0.08735
C_ C_ 0.630596 0.368327 0.941858 -0.08735
C_ C_ 0.618644 0.341965 0.9169 -0.05681
C_ C_ 0.613084 0.373916 0.891299 -0.08735
C_ C_ 0.542167 0.172899 0.906511 0.68181
C_ C_ 0.598714 0.131822 0.982945 0.1947
C_ C_ 0.590112 0.109426 0.512681 -0.08735
C_ C_ 0.604705 0.140549 0.535897 -0.08735
C_ C_ 0.638204 0.180626 0.530513 -0.05681
C_ C_ 0.648231 0.193804 0.501032 0.18498
C_ C_ 0.687033 0.233999 0.996899 -0.08735
C_ C_ 0.701038 0.262852 0.518734 -0.08735
C_ C_ 0.682459 0.257324 0.545498 -0.08735
C_ C_ 0.655913 0.213461 0.553027 0.18498
C_ C_ 0.684019 0.175582 0.599335 0.44287
C_ C_ 0.602853 0.212168 0.59617 0.44287
C_ C_ 0.595143 0.206719 0.626029 -0.05681
C_ C_ 0.545119 0.210068 0.637367 -0.08735
C_ C_ 0.542162 0.210009 0.667924 -0.08735
C_ C_ 0.585538 0.198502 0.684822 -0.05681
C_ C_ 0.63269 0.189033 0.672345 -0.05681
C_ C_ 0.635524 0.190569 0.642872 -0.05681
C_ C_ 0.681317 0.174384 0.629495 -0.05681
C_ C_ 0.723242 0.158788 0.64665 -0.08735
C_ C_ 0.719812 0.158635 0.676142 -0.08735
C_ C_ 0.673978 0.172347 0.690432 -0.05681
C_ C_ 0.668024 0.168936 0.720183 0.44287
C_ C_ 0.58108 0.197344 0.714962 0.44287
C_ C_ 0.614103 0.172711 0.760688 0.18498
C_ C_ 0.595241 0.124525 0.764386 -0.08735
C_ C_ 0.591637 0.103854 0.79132 -0.08735
C_ C_ 0.603632 0.134076 0.815385 -0.08735
C_ C_ 0.620228 0.185095 0.81258 0.18498
C_ C_ 0.626634 0.204745 0.784396 -0.05681
C_ C_ 0.649634 0.252244 0.780525 -0.08735
C_ C_ 0.670911 0.275776 0.804673 -0.08735
C_ C_ 0.662692 0.254745 0.832373 0.1947
C_ C_ 0.780858 0.329453 0.655837 0.68181
C_ C_ 0.723943 0.33032 0.652651 -0.05681
C_ C_ 0.691716 0.335685 0.676648 -0.08735
C_ C_ 0.638558 0.335613 0.673445 -0.05681
C_ C_ 0.618819 0.335523 0.645487 -0.05681
C_ C_ 0.648205 0.327407 0.6213 -0.08735
C_ C_ 0.701816 0.324536 0.624517 -0.08735
C_ C_ 0.607251 0.34094 0.696413 -0.08735
C_ C_ 0.553846 0.341655 0.692117 -0.08735
C_ C_ 0.533021 0.337909 0.664488 -0.05681
C_ C_ 0.566421 0.331341 0.641516 -0.08735
C_ C_ 0.879801 0.223093 0.662756 0.68181
C_ C_ 0.88504 0.42033 0.650062 0.68181
C_ C_ 0.888031 0.476167 0.646063 -0.05681
C_ C_ 0.84722 0.00987948 0.669879 -0.08735
C_ C_ 0.859671 0.0623173 0.669812 -0.05681
C_ C_ 0.878828 0.084094 0.64376 -0.05681
C_ C_ 0.882442 0.0539485 0.619711 -0.08735
C_ C_ 0.886497 0.497287 0.617843 -0.08735
C_ C_ 0.851525 0.09453 0.69275 -0.08735
C_ C_ 0.8569 0.147476 0.691232 -0.08735
C_ C_ 0.876623 0.167775 0.66559 -0.05681
C_ C_ 0.884658 0.136487 0.640855 -0.08735
C_ C_ 0.978345 0.32031 0.656364 0.68181
C_ C_ 0.918017 0.377467 0.736917 0.1947
C_ C_ 0.924815 0.395013 0.765763 -0.08735
C_ C_ 0.895363 0.370232 0.786797 -0.08735
C_ C_ 0.867754 0.326943 0.779592 -0.05681
C_ C_ 0.859521 0.314666 0.750499 0.18498
C_ C_ 0.821759 0.278005 0.744238 -0.08735
C_ C_ 0.796327 0.254507 0.766383 -0.08735
C_ C_ 0.81137 0.258517 0.794248 -0.08735
C_ C_ 0.844931 0.298612 0.8016 0.18498
C_ C_ 0.813874 0.314997 0.849654 0.44287
C_ C_ 0.899808 0.293058 0.842088 0.44287
C_ C_ 0.909447 0.297782 0.872779 -0.05681
C_ C_ 0.95859 0.292455 0.885536 -0.08735
C_ C_ 0.964197 0.294918 0.915277 -0.08735
C_ C_ 0.925566 0.310686 0.934163 -0.05681
C_ C_ 0.876926 0.308759 0.922302 -0.05681
C_ C_ 0.868754 0.303976 0.892046 -0.05681
C_ C_ 0.819151 0.311353 0.879488 -0.05681
C_ C_ 0.779494 0.320479 0.897708 -0.08735
C_ C_ 0.786683 0.322406 0.928069 -0.08735
C_ C_ 0.835712 0.31627 0.939859 -0.05681
C_ C_ 0.844301 0.321379 0.969728 0.44287
C_ C_ 0.932453 0.309016 0.96378 0.44287
C_ C_ 0.896841 0.346839 0.505138 0.18498
C_ C_ 0.925822 0.390892 0.512602 -0.08735
C_ C_ 0.942847 0.396629 0.54059 -0.08735
C_ C_ 0.926395 0.367068 0.563722 -0.08735
C_ C_ 0.893858 0.327582 0.558627 0.18498
C_ C_ 0.8803 0.315393 0.528982 -0.05681
C_ C_ 0.850864 0.271041 0.525261 -0.08735
C_ C_ 0.834707 0.244836 0.549164 -0.08735
C_ C_ 0.848911 0.259895 0.576654 0.1947
N_ N_ 0.630398 0.171168 0.978155 -0.29468
N_ N_ 0.648323 0.200161 0.583763 -0.17154
N_ N_ 0.622558 0.185832 0.732069 -0.17154
N_ N_ 0.635399 0.211145 0.835224 -0.29468
N_ N_ 0.881985 0.341903 0.72881 -0.29468
N_ N_ 0.85512 0.309269 0.831618 -0.17154
N_ N_ 0.8931 0.31905 0.981787 -0.17154
N_ N_ 0.872239 0.30445 0.581564 -0.29468
O_ O_ 0.720086 0.178911 0.931061 -0.58347
O_ O_ 0.708563 0.204204 0.888159 -0.58347
O_ O_ 0.641571 0.26258 0.934772 -0.58347
O_ O_ 0.624492 0.264814 0.890008 -0.58347
O_ O_ 0.635144 0.10886 0.923219 -0.58347
O_ O_ 0.64967 0.117865 0.877751 -0.58347
O_ O_ 0.568958 0.181842 0.927295 -0.58347
O_ O_ 0.56009 0.176301 0.881269 -0.58347
O_ O_ 0.567576 0.235438 0.580605 -0.46727
O_ O_ 0.725848 0.160726 0.585735 -0.46727
O_ O_ 0.540055 0.213345 0.726581 -0.46727
O_ O_ 0.703425 0.151232 0.737387 -0.46727
O_ O_ 0.799852 0.330959 0.679708 -0.58347
O_ O_ 0.808396 0.318174 0.633886 -0.58347
O_ O_ 0.873852 0.250737 0.685039 -0.58347
O_ O_ 0.882234 0.244329 0.638291 -0.58347
O_ O_ 0.88828 0.400472 0.674949 -0.58347
O_ O_ 0.883147 0.390464 0.628115 -0.58347
O_ O_ 0.949318 0.32493 0.677972 -0.58347
O_ O_ 0.958308 0.31908 0.631483 -0.58347
O_ O_ 0.935624 0.27361 0.825459 -0.46727
O_ O_ 0.768174 0.324322 0.838718 -0.46727
O_ O_ 0.97846 0.305852 0.974332 -0.46727
O_ O_ 0.807588 0.340021 0.985851 -0.46727
Zn Zn 0.629015 0.683628 0.378488 0.90689
Zn Zn 0.638467 0.675076 0.426279 0.90689
Zn Zn 0.866566 0.808462 0.134379 0.90689
Zn Zn 0.859159 0.814009 0.183529 0.90689
H_ H_ 0.800136 0.71083 0.439123 0.11455
H_ H_ 0.881395 0.648428 0.349317 0.11455
H_ H_ 0.783695 0.645751 0.354243 0.11455
H_ H_ 0.888696 0.709547 0.463642 0.11455
H_ H_ 0.977247 0.701654 0.456532 0.11455
H_ H_ 0.963228 0.667535 0.369284 0.11455
H_ H_ 0.629978 0.514286 0.441376 0.11455
H_ H_ 0.635291 0.935221 0.342293 0.11455
H_ H_ 0.656006 0.520551 0.352015 0.11455
H_ H_ 0.634291 0.92386 0.461489 0.11455
H_ H_ 0.614395 0.832426 0.456124 0.11455
H_ H_ 0.621879 0.846088 0.365351 0.11455
H_ H_ 0.585415 0.602817 0.46109 0.11455
H_ H_ 0.567114 0.577142 0.00948092 0.11455
H_ H_ 0.600505 0.621567 0.0508107 0.11455
H_ H_ 0.690003 0.74889 0.468677 0.11455
H_ H_ 0.698486 0.808808 0.0124653 0.11455
H_ H_ 0.68934 0.779086 0.0587069 0.11455
H_ H_ 0.504383 0.682294 0.121424 0.11455
H_ H_ 0.496607 0.679945 0.176455 0.11455
H_ H_ 0.759073 0.656003 0.132639 0.11455
H_ H_ 0.743818 0.632291 0.180364 0.11455
H_ H_ 0.573033 0.572272 0.248463 0.11455
H_ H_ 0.550574 0.556265 0.300439 0.11455
H_ H_ 0.571698 0.617472 0.338222 0.11455
H_ H_ 0.653813 0.738586 0.253195 0.11455
H_ H_ 0.697785 0.784848 0.29148 0.11455
H_ H_ 0.683723 0.758209 0.342305 0.11455
H_ H_ 0.695902 0.820706 0.198805 0.11455
H_ H_ 0.624735 0.802059 0.0983918 0.11455
H_ H_ 0.713614 0.798548 0.108677 0.11455
H_ H_ 0.60167 0.822763 0.218324 0.11455
H_ H_ 0.514752 0.830552 0.20933 0.11455
H_ H_ 0.538765 0.804324 0.118657 0.11455
H_ H_ 0.84069 0.984368 0.196996 0.11455
H_ H_ 0.882282 0.55545 0.101221 0.11455
H_ H_ 0.876833 0.964678 0.10579 0.11455
H_ H_ 0.823869 0.566273 0.213693 0.11455
H_ H_ 0.840277 0.65532 0.21112 0.11455
H_ H_ 0.882121 0.645796 0.124247 0.11455
H_ H_ 0.912265 0.889064 0.219305 0.11455
H_ H_ 0.925209 0.917485 0.267655 0.11455
H_ H_ 0.874329 0.882096 0.308039 0.11455
H_ H_ 0.800737 0.746241 0.226556 0.11455
H_ H_ 0.757821 0.705859 0.267689 0.11455
H_ H_ 0.783981 0.724589 0.31544 0.11455
H_ H_ 0.973134 0.780584 0.372556 0.11455
H_ H_ -0.003774000000000055 0.824959 0.418759 0.11455
H_ H_ 0.730464 0.852937 0.391878 0.11455
H_ H_ 0.752319 0.875636 0.441169 0.11455
H_ H_ 0.959302 0.915003 0.499784 0.11455
H_ H_ 0.918049 0.946536 0.0459746 0.11455
H_ H_ 0.906944 0.88511 0.0867164 0.11455
H_ H_ 0.828816 0.749086 0.0105682 0.11455
H_ H_ 0.803963 0.699163 0.0520682 0.11455
H_ H_ 0.818843 0.735619 0.101343 0.11455
C_ C_ 0.731074 0.682954 0.402191 0.68181
C_ C_ 0.784961 0.683106 0.397275 -0.05681
C_ C_ 0.815622 0.692056 0.421013 -0.08735
C_ C_ 0.869856 0.687206 0.418013 -0.05681
C_ C_ 0.89296 0.67514 0.39107 -0.05681
C_ C_ 0.861936 0.662814 0.369295 -0.08735
C_ C_ 0.808836 0.662147 0.371749 -0.08735
C_ C_ 0.902589 0.696324 0.442415 -0.08735
C_ C_ 0.954469 0.700643 0.437817 -0.08735
C_ C_ 0.977805 0.690398 0.410968 -0.05681
C_ C_ 0.94578 0.678367 0.387863 -0.08735
C_ C_ 0.627921 0.778996 0.407777 0.68181
C_ C_ 0.643104 0.581375 0.397711 0.68181
C_ C_ 0.640288 0.525962 0.396012 -0.05681
C_ C_ 0.629808 0.993648 0.418559 -0.08735
C_ C_ 0.628854 0.940405 0.416304 -0.05681
C_ C_ 0.632834 0.919047 0.388221 -0.05681
C_ C_ 0.628119 0.94946 0.363464 -0.08735
C_ C_ 0.625935 1.00260199 0.366135 -0.08735
C_ C_ 0.628849 0.907998 0.441041 -0.08735
C_ C_ 0.627657 0.85572 0.437574 -0.08735
C_ C_ 0.626461 0.83411 0.410274 -0.05681
C_ C_ 0.627257 0.864692 0.385741 -0.08735
C_ C_ 0.534079 0.673649 0.402065 0.68181
C_ C_ 0.604499 0.620692 0.479121 0.1947
C_ C_ 0.589084 0.609602 0.00674688 -0.08735
C_ C_ 0.609036 0.636183 0.030366 -0.08735
C_ C_ 0.636855 0.678717 0.026175 -0.05681
C_ C_ 0.645959 0.696419 0.997423 0.18498
C_ C_ 0.684723 0.735301 0.49017 -0.08735
C_ C_ 0.678733 0.774871 0.0154055 -0.08735
C_ C_ 0.665973 0.759606 0.043604 -0.08735
C_ C_ 0.644379 0.711931 0.0498545 0.18498
C_ C_ 0.682338 0.68395 0.0941867 0.44287
C_ C_ 0.595013 0.696813 0.0927635 0.44287
C_ C_ 0.589265 0.68464 0.121998 -0.05681
C_ C_ 0.539795 0.682086 0.135311 -0.08735
C_ C_ 0.535192 0.682478 0.165693 -0.08735
C_ C_ 0.580684 0.674724 0.182536 -0.05681
C_ C_ 0.628026 0.675608 0.169402 -0.05681
C_ C_ 0.633025 0.679501 0.139078 -0.05681
C_ C_ 0.679453 0.676986 0.124469 -0.05681
C_ C_ 0.722143 0.664869 0.141467 -0.08735
C_ C_ 0.717063 0.657062 0.171355 -0.08735
C_ C_ 0.670611 0.66112 0.185172 -0.05681
C_ C_ 0.664829 0.649942 0.215484 0.44287
C_ C_ 0.577551 0.668427 0.212198 0.44287
C_ C_ 0.611681 0.642045 0.257912 0.18498
C_ C_ 0.586554 0.596596 0.26612 -0.08735
C_ C_ 0.573164 0.588165 0.294859 -0.08735
C_ C_ 0.582734 0.624638 0.315973 -0.08735
C_ C_ 0.614229 0.664663 0.30927 0.18498
C_ C_ 0.621308 0.678735 0.279774 -0.05681
C_ C_ 0.648481 0.723749 0.27478 -0.08735
C_ C_ 0.669321 0.752218 0.297034 -0.08735
C_ C_ 0.664712 0.734733 0.325394 0.1947
C_ C_ 0.766828 0.814254 0.157101 0.68181
C_ C_ 0.710997 0.812045 0.152988 -0.05681
C_ C_ 0.679386 0.822612 0.176369 -0.08735
C_ C_ 0.626049 0.822254 0.172139 -0.05681
C_ C_ 0.604827 0.815042 0.144688 -0.05681
C_ C_ 0.636804 0.805751 0.121227 -0.08735
C_ C_ 0.688888 0.805243 0.125856 -0.08735
C_ C_ 0.591294 0.821432 0.195692 -0.08735
C_ C_ 0.539172 0.819711 0.190807 -0.08735
C_ C_ 0.51949 0.816305 0.162906 -0.05681
C_ C_ 0.553211 0.812213 0.139988 -0.08735
C_ C_ 0.865823 0.711183 0.16561 0.68181
C_ C_ 0.852638 0.90984 0.155078 0.68181
C_ C_ 0.850406 0.965356 0.150919 -0.05681
C_ C_ 0.848626 0.497562 0.174792 -0.08735
C_ C_ 0.851657 0.550678 0.17186 -0.05681
C_ C_ 0.866669 0.572551 0.145521 -0.05681
C_ C_ 0.872401 0.540348 0.121454 -0.08735
C_ C_ 0.864009 0.987135 0.124124 -0.08735
C_ C_ 0.844913 0.581488 0.196139 -0.08735
C_ C_ 0.847605 0.633163 0.192654 -0.08735
C_ C_ 0.864956 0.65502 0.167417 -0.05681
C_ C_ 0.86974 0.626126 0.143563 -0.08735
C_ C_ 0.959899 0.814715 0.163158 0.68181
C_ C_ 0.893439 0.865678 0.23579 0.1947
C_ C_ 0.898191 0.88728 0.262862 -0.08735
C_ C_ 0.871209 0.864945 0.285773 -0.08735
C_ C_ 0.841311 0.822467 0.281476 -0.05681
C_ C_ 0.838097 0.801455 0.253392 0.18498
C_ C_ 0.803282 0.762962 0.247316 -0.08735
C_ C_ 0.778349 0.73938 0.270101 -0.08735
C_ C_ 0.793813 0.750019 0.297876 -0.08735
C_ C_ 0.824774 0.791847 0.303722 0.18498
C_ C_ 0.797404 0.821539 0.350625 0.44287
C_ C_ 0.883396 0.795429 0.344551 0.44287
C_ C_ 0.894783 0.807197 0.372974 -0.05681
C_ C_ 0.945787 0.804633 0.383777 -0.08735
C_ C_ 0.957983 0.821637 0.411615 -0.08735
C_ C_ 0.918503 0.837263 0.430219 -0.05681
C_ C_ 0.867832 0.836234 0.420135 -0.05681
C_ C_ 0.85772 0.828832 0.390798 -0.05681
C_ C_ 0.806335 0.830462 0.38141 -0.05681
C_ C_ 0.769773 0.849626 0.399888 -0.08735
C_ C_ 0.779483 0.853244 0.429226 -0.08735
C_ C_ 0.829618 0.851873 0.43845 -0.05681
C_ C_ 0.84138 0.858407 0.468144 0.44287
C_ C_ 0.929439 0.842329 0.460146 0.44287
C_ C_ 0.87256 0.840349 0.0096185 0.18498
C_ C_ 0.89262 0.889599 0.0143013 -0.08735
C_ C_ 0.902321 0.908545 0.0416472 -0.08735
C_ C_ 0.891936 0.875551 0.0655696 -0.08735
C_ C_ 0.872763 0.827391 0.0618878 0.18498
C_ C_ 0.860545 0.809646 0.0331556 -0.05681
C_ C_ 0.838154 0.763243 0.0304487 -0.08735
C_ C_ 0.825722 0.734682 0.0552772 -0.08735
C_ C_ 0.833671 0.756257 0.0822954 0.1947
N_ N_ 0.632786 0.663235 0.473617 -0.29468
N_ N_ 0.64007 0.695994 0.0794407 -0.17154
N_ N_ 0.619612 0.652512 0.227791 -0.17154
N_ N_ 0.634892 0.693088 0.330617 -0.29468
N_ N_ 0.861899 0.825579 0.231197 -0.29468
N_ N_ 0.834253 0.802386 0.334022 -0.17154
N_ N_ 0.889308 0.846648 0.478743 -0.17154
N_ N_ 0.86391 0.798529 0.0854052 -0.29468
O_ O_ 0.711168 0.676148 0.426532 -0.58347
O_ O_ 0.702996 0.688287 0.380561 -0.58347
O_ O_ 0.637066 0.752299 0.43029 -0.58347
O_ O_ 0.615955 0.758247 0.384323 -0.58347
O_ O_ 0.646498 0.602365 0.421042 -0.58347
O_ O_ 0.642687 0.60945 0.375041 -0.58347
O_ O_ 0.562812 0.673568 0.423891 -0.58347
O_ O_ 0.551319 0.67537 0.377217 -0.58347
O_ O_ 0.553796 0.701078 0.0769715 -0.46727
O_ O_ 0.726432 0.684928 0.0816008 -0.46727
O_ O_ 0.532275 0.675235 0.22516 -0.46727
O_ O_ 0.704812 0.639933 0.231507 -0.46727
O_ O_ 0.784411 0.806075 0.182029 -0.58347
O_ O_ 0.794976 0.814632 0.134244 -0.58347
O_ O_ 0.864687 0.735782 0.188575 -0.58347
O_ O_ 0.864805 0.732779 0.142162 -0.58347
O_ O_ 0.8528 0.890985 0.180128 -0.58347
O_ O_ 0.865683 0.880724 0.134108 -0.58347
O_ O_ 0.933837 0.825603 0.184931 -0.58347
O_ O_ 0.940752 0.802191 0.1394 -0.58347
O_ O_ 0.919847 0.784301 0.326425 -0.46727
O_ O_ 0.756389 0.835246 0.338333 -0.46727
O_ O_ 0.975111 0.831739 0.469444 -0.46727
O_ O_ 0.808444 0.878962 0.485083 -0.46727
Zn Zn 0.622622 0.691223 0.877272 0.90689
Zn Zn 0.628464 0.688674 0.925284 0.90689
Zn Zn 0.871025 0.821561 0.631034 0.90689
Zn Zn 0.859718 0.826904 0.676835 0.90689
H_ H_ 0.799474 0.70008 0.939657 0.11455
H_ H_ 0.861655 0.667248 0.842398 0.11455
H_ H_ 0.770635 0.671944 0.852328 0.11455
H_ H_ 0.883899 0.699742 0.959192 0.11455
H_ H_ 0.978865 0.688546 0.952485 0.11455
H_ H_ 0.950552 0.675947 0.860891 0.11455
H_ H_ 0.63544 0.521048 0.941604 0.11455
H_ H_ 0.643292 0.944352 0.840874 0.11455
H_ H_ 0.626527 0.531325 0.848499 0.11455
H_ H_ 0.591701 0.932771 0.956038 0.11455
H_ H_ 0.583637 0.843502 0.950146 0.11455
H_ H_ 0.63647 0.86141 0.861971 0.11455
H_ H_ 0.58048 0.605693 0.961617 0.11455
H_ H_ 0.559937 0.584096 0.511644 0.11455
H_ H_ 0.601644 0.627138 0.551089 0.11455
H_ H_ 0.682371 0.75603 0.9725 0.11455
H_ H_ 0.716633 0.802613 0.508417 0.11455
H_ H_ 0.714515 0.77323 0.557992 0.11455
H_ H_ 0.516866 0.709664 0.617237 0.11455
H_ H_ 0.503395 0.699924 0.667812 0.11455
H_ H_ 0.767 0.661192 0.637535 0.11455
H_ H_ 0.755955 0.663448 0.690135 0.11455
H_ H_ 0.575916 0.58488 0.743776 0.11455
H_ H_ 0.561757 0.559245 0.794622 0.11455
H_ H_ 0.572349 0.618054 0.834697 0.11455
H_ H_ 0.646212 0.7543 0.751499 0.11455
H_ H_ 0.680023 0.801409 0.794082 0.11455
H_ H_ 0.6815 0.759059 0.840717 0.11455
H_ H_ 0.69324 0.821648 0.6932 0.11455
H_ H_ 0.623945 0.849801 0.595312 0.11455
H_ H_ 0.715833 0.840117 0.599698 0.11455
H_ H_ 0.608538 0.797172 0.708663 0.11455
H_ H_ 0.516483 0.79858 0.699771 0.11455
H_ H_ 0.53929 0.83755 0.613024 0.11455
H_ H_ 0.832971 0.9935 0.690723 0.11455
H_ H_ 0.886711 0.568998 0.594399 0.11455
H_ H_ 0.869635 0.982026 0.599003 0.11455
H_ H_ 0.895243 0.571466 0.712343 0.11455
H_ H_ 0.879475 0.667225 0.706694 0.11455
H_ H_ 0.89724 0.653517 0.615872 0.11455
H_ H_ 0.915016 0.89353 0.71385 0.11455
H_ H_ 0.940961 0.911036 0.764165 0.11455
H_ H_ 0.895729 0.867854 0.80501 0.11455
H_ H_ 0.800084 0.75396 0.721764 0.11455
H_ H_ 0.778719 0.696912 0.759768 0.11455
H_ H_ 0.791223 0.720616 0.808638 0.11455
H_ H_ 0.972733 0.805129 0.872169 0.11455
H_ H_ 0.982902 0.798465 0.924531 0.11455
H_ H_ 0.724571 0.844377 0.885671 0.11455
H_ H_ 0.734106 0.843547 0.938632 0.11455
H_ H_ 0.902083 0.911788 0.995127 0.11455
H_ H_ 0.981097 0.928814 0.550993 0.11455
H_ H_ 0.933129 0.887781 0.588957 0.11455
H_ H_ 0.84287 0.771166 0.503841 0.11455
H_ H_ 0.815479 0.716966 0.544906 0.11455
H_ H_ 0.815642 0.75493 0.594436 0.11455
C_ C_ 0.724209 0.689278 0.900176 0.68181
C_ C_ 0.781466 0.681145 0.896482 -0.05681
C_ C_ 0.815972 0.687478 0.918954 -0.08735
C_ C_ 0.867389 0.688597 0.91366 -0.05681
C_ C_ 0.885176 0.680996 0.886063 -0.05681
C_ C_ 0.850012 0.672985 0.863415 -0.08735
C_ C_ 0.799712 0.672926 0.869273 -0.08735
C_ C_ 0.900768 0.693088 0.937556 -0.08735
C_ C_ 0.952474 0.68617 0.934327 -0.08735
C_ C_ 0.970661 0.675403 0.906447 -0.05681
C_ C_ 0.936884 0.674645 0.881968 -0.08735
C_ C_ 0.616512 0.78899 0.904147 0.68181
C_ C_ 0.632534 0.590579 0.896335 0.68181
C_ C_ 0.627132 0.534476 0.896096 -0.05681
C_ C_ 0.624321 0.000847855 0.918636 -0.08735
C_ C_ 0.618187 0.947852 0.91364 -0.05681
C_ C_ 0.626003 0.927711 0.885792 -0.05681
C_ C_ 0.635076 0.959515 0.86191 -0.08735
C_ C_ 0.643956 0.0119065 0.868082 -0.08735
C_ C_ 0.606444 0.916203 0.936095 -0.08735
C_ C_ 0.596072 0.865492 0.93193 -0.08735
C_ C_ 0.612089 0.844555 0.905925 -0.05681
C_ C_ 0.622695 0.875499 0.881699 -0.08735
C_ C_ 0.525074 0.681718 0.905714 0.68181
C_ C_ 0.600355 0.625567 0.978834 0.1947
C_ C_ 0.592732 0.607636 0.507115 -0.08735
C_ C_ 0.615334 0.633892 0.530469 -0.08735
C_ C_ 0.645087 0.677442 0.525419 -0.05681
C_ C_ 0.65441 0.691493 0.495712 0.18498
C_ C_ 0.670504 0.741977 0.992481 -0.08735
C_ C_ 0.70069 0.765791 0.513039 -0.08735
C_ C_ 0.695087 0.75157 0.541629 -0.08735
C_ C_ 0.666484 0.706567 0.548556 0.18498
C_ C_ 0.697295 0.685972 0.596379 0.44287
C_ C_ 0.60889 0.697696 0.590154 0.44287
C_ C_ 0.599816 0.692286 0.619947 -0.05681
C_ C_ 0.550564 0.695291 0.631051 -0.08735
C_ C_ 0.542539 0.696243 0.660219 -0.08735
C_ C_ 0.583766 0.689761 0.680045 -0.05681
C_ C_ 0.632677 0.683186 0.668536 -0.05681
C_ C_ 0.640478 0.687171 0.638117 -0.05681
C_ C_ 0.689687 0.683297 0.627226 -0.05681
C_ C_ 0.729807 0.66461 0.646096 -0.08735
C_ C_ 0.723422 0.666848 0.675878 -0.08735
C_ C_ 0.673853 0.674001 0.68708 -0.05681
C_ C_ 0.662518 0.665602 0.716101 0.44287
C_ C_ 0.577085 0.685488 0.710216 0.44287
C_ C_ 0.607477 0.656741 0.755612 0.18498
C_ C_ 0.584129 0.610452 0.761584 -0.08735
C_ C_ 0.577442 0.594444 0.789797 -0.08735
C_ C_ 0.586516 0.628462 0.813074 -0.08735
C_ C_ 0.607784 0.674816 0.807162 0.18498
C_ C_ 0.618069 0.691155 0.778209 -0.05681
C_ C_ 0.642911 0.737547 0.773892 -0.08735
C_ C_ 0.660653 0.765106 0.796814 -0.08735
C_ C_ 0.65811 0.745155 0.824513 0.1947
C_ C_ 0.769939 0.830604 0.651634 0.68181
C_ C_ 0.713678 0.833656 0.647713 -0.05681
C_ C_ 0.680067 0.827001 0.671446 -0.08735
C_ C_ 0.626658 0.823132 0.665944 -0.05681
C_ C_ 0.608946 0.830266 0.638407 -0.05681
C_ C_ 0.640865 0.837833 0.615749 -0.08735
C_ C_ 0.693065 0.837553 0.619379 -0.08735
C_ C_ 0.59236 0.81345 0.688752 -0.08735
C_ C_ 0.539508 0.814856 0.684446 -0.08735
C_ C_ 0.520875 0.821422 0.65617 -0.05681
C_ C_ 0.554839 0.831202 0.634241 -0.08735
C_ C_ 0.87635 0.723411 0.65943 0.68181
C_ C_ 0.856178 0.921129 0.648035 0.68181
C_ C_ 0.857207 0.978191 0.645535 -0.05681
C_ C_ 0.891079 0.507466 0.670032 -0.08735
C_ C_ 0.891288 0.561572 0.667496 -0.05681
C_ C_ 0.893874 0.582922 0.639937 -0.05681
C_ C_ 0.891101 0.550291 0.615913 -0.08735
C_ C_ 0.873336 1.00241627 0.620565 -0.08735
C_ C_ 0.891669 0.590502 0.691899 -0.08735
C_ C_ 0.880044 0.642611 0.688507 -0.08735
C_ C_ 0.881201 0.666891 0.661662 -0.05681
C_ C_ 0.887559 0.636544 0.635958 -0.08735
C_ C_ 0.966118 0.824503 0.654987 0.68181
C_ C_ 0.896151 0.87162 0.731828 0.1947
C_ C_ 0.911205 0.883864 0.761133 -0.08735
C_ C_ 0.886386 0.857649 0.783297 -0.08735
C_ C_ 0.849489 0.822496 0.777947 -0.05681
C_ C_ 0.839699 0.807031 0.747934 0.18498
C_ C_ 0.809047 0.764995 0.742285 -0.08735
C_ C_ 0.788972 0.737484 0.764094 -0.08735
C_ C_ 0.800449 0.749053 0.793003 -0.08735
C_ C_ 0.829284 0.792802 0.800688 0.18498
C_ C_ 0.796134 0.816306 0.847115 0.44287
C_ C_ 0.884243 0.796014 0.843709 0.44287
C_ C_ 0.892107 0.805874 0.872912 -0.05681
C_ C_ 0.940456 0.811892 0.885415 -0.08735
C_ C_ 0.946355 0.810342 0.915727 -0.08735
C_ C_ 0.902292 0.812259 0.933322 -0.05681
C_ C_ 0.852818 0.81631 0.920544 -0.05681
C_ C_ 0.847943 0.810535 0.890576 -0.05681
C_ C_ 0.799682 0.8173 0.877488 -0.05681
C_ C_ 0.758289 0.830401 0.895165 -0.08735
C_ C_ 0.763976 0.828044 0.926003 -0.08735
C_ C_ 0.810592 0.820668 0.93881 -0.05681
C_ C_ 0.818278 0.825015 0.968788 0.44287
C_ C_ 0.907453 0.817538 0.963671 0.44287
C_ C_ 0.900788 0.857673 0.509141 0.18498
C_ C_ 0.938015 0.894869 0.516442 -0.08735
C_ C_ 0.949437 0.903295 0.545614 -0.08735
C_ C_ 0.922387 0.878736 0.567633 -0.08735
C_ C_ 0.887118 0.840149 0.56097 0.18498
C_ C_ 0.877419 0.827622 0.531168 -0.05681
C_ C_ 0.849767 0.783591 0.52619 -0.08735
C_ C_ 0.83292 0.752391 0.549229 -0.08735
C_ C_ 0.832969 0.773143 0.576476 0.1947
N_ N_ 0.626097 0.6697 0.974746 -0.29468
N_ N_ 0.657279 0.694031 0.5782 -0.17154
N_ N_ 0.616677 0.669855 0.726839 -0.17154
N_ N_ 0.6305 0.701424 0.82938 -0.29468
N_ N_ 0.862294 0.834506 0.726257 -0.29468
N_ N_ 0.837253 0.803535 0.831219 -0.17154
N_ N_ 0.865748 0.825782 0.981079 -0.17154
N_ N_ 0.865564 0.812519 0.582055 -0.29468
O_ O_ 0.704747 0.684933 0.924212 -0.58347
O_ O_ 0.695971 0.695107 0.87764 -0.58347
O_ O_ 0.624603 0.763749 0.927187 -0.58347
O_ O_ 0.610114 0.766181 0.880409 -0.58347
O_ O_ 0.635142 0.613996 0.920005 -0.58347
O_ O_ 0.637313 0.615859 0.873029 -0.58347
O_ O_ 0.55306 0.681838 0.927132 -0.58347
O_ O_ 0.545456 0.683513 0.880618 -0.58347
O_ O_ 0.569957 0.704091 0.573649 -0.46727
O_ O_ 0.740761 0.671256 0.584741 -0.46727
O_ O_ 0.533805 0.69799 0.722093 -0.46727
O_ O_ 0.699995 0.661051 0.734999 -0.46727
O_ O_ 0.787282 0.830496 0.676696 -0.58347
O_ O_ 0.79925 0.823223 0.63049 -0.58347
O_ O_ 0.864185 0.748307 0.681314 -0.58347
O_ O_ 0.880976 0.746189 0.635511 -0.58347
O_ O_ 0.865967 0.903184 0.672628 -0.58347
O_ O_ 0.859875 0.89414 0.626115 -0.58347
O_ O_ 0.936366 0.826941 0.675842 -0.58347
O_ O_ 0.947899 0.821017 0.630086 -0.58347
O_ O_ 0.922191 0.777872 0.827351 -0.46727
O_ O_ 0.758495 0.834568 0.834195 -0.46727
O_ O_ 0.953338 0.820589 0.976196 -0.46727
O_ O_ 0.778035 0.830049 0.985986 -0.46727
_cell_length_a 26.376
_cell_length_b 26.400000238300095
_cell_length_c 46.67800035477134
_cell_angle_alpha 90.00700052986613
_cell_angle_beta 89.99899961309502
_cell_angle_gamma 90.45000003183146
_symmetry_space_group_name_H-M         'P 1'
_symmetry_Int_Tables_number            1
loop_
_symmetry_equiv_pos_as_xyz
   'x, y, z'
                         
loop_
_atom_site_label
_atom_site_type_symbol
_atom_site_fract_x 
_atom_site_fract_y
_atom_site_fract_z
_atom_site_charge
Zn Zn 0.121925 0.188099 0.384607 0.90689
Zn Zn 0.130303 0.188687 0.432817 0.90689
Zn Zn 0.373575 0.303916 0.138237 0.90689
Zn Zn 0.354135 0.316476 0.185168 0.90689
H_ H_ 0.299764 0.199166 0.447478 0.11455
H_ H_ 0.364764 0.141115 0.35411 0.11455
H_ H_ 0.276374 0.175526 0.355485 0.11455
H_ H_ 0.386571 0.189063 0.467205 0.11455
H_ H_ 0.477333 0.166484 0.457645 0.11455
H_ H_ 0.454033 0.164871 0.36734 0.11455
H_ H_ 0.136623 0.0180984 0.445118 0.11455
H_ H_ 0.132263 0.433435 0.347319 0.11455
H_ H_ 0.128578 0.0349416 0.353484 0.11455
H_ H_ 0.111186 0.438271 0.465357 0.11455
H_ H_ 0.115691 0.345498 0.464984 0.11455
H_ H_ 0.11604 0.351902 0.372433 0.11455
H_ H_ 0.0708402 0.127894 0.470797 0.11455
H_ H_ 0.117448 0.0563917 0.0101402 0.11455
H_ H_ 0.134765 0.112773 0.054828 0.11455
H_ H_ 0.192612 0.259354 0.476661 0.11455
H_ H_ 0.212681 0.306767 0.0153836 0.11455
H_ H_ 0.200628 0.281973 0.0640399 0.11455
H_ H_ 0.0147524 0.193724 0.117756 0.11455
H_ H_ 0.0012099999999999334 0.199058 0.172386 0.11455
H_ H_ 0.263726 0.174776 0.143812 0.11455
H_ H_ 0.249213 0.191091 0.193068 0.11455
H_ H_ 0.0565684 0.106717 0.249155 0.11455
H_ H_ 0.0307213 0.082349 0.299131 0.11455
H_ H_ 0.0592247 0.136168 0.339483 0.11455
H_ H_ 0.159375 0.255511 0.259178 0.11455
H_ H_ 0.199318 0.293048 0.302 0.11455
H_ H_ 0.17635 0.266106 0.351071 0.11455
H_ H_ 0.186697 0.303933 0.200131 0.11455
H_ H_ 0.126869 0.335886 0.102845 0.11455
H_ H_ 0.217494 0.312443 0.109867 0.11455
H_ H_ 0.104378 0.32064 0.218288 0.11455
H_ H_ 0.0114958 0.31174 0.208921 0.11455
H_ H_ 0.0369892 0.331268 0.117666 0.11455
H_ H_ 0.35559 0.481531 0.198892 0.11455
H_ H_ 0.412472 0.0547837 0.10789 0.11455
H_ H_ 0.361246 0.469099 0.105824 0.11455
H_ H_ 0.35399 0.0591991 0.219622 0.11455
H_ H_ 0.351828 0.148617 0.215042 0.11455
H_ H_ 0.386252 0.14226 0.126309 0.11455
H_ H_ 0.417296 0.385059 0.219694 0.11455
H_ H_ 0.437208 0.41274 0.266388 0.11455
H_ H_ 0.384602 0.384463 0.308956 0.11455
H_ H_ 0.301935 0.249796 0.228747 0.11455
H_ H_ 0.277021 0.194692 0.269516 0.11455
H_ H_ 0.329406 0.207532 0.315668 0.11455
H_ H_ 0.503182 0.292696 0.370645 0.11455
H_ H_ 0.517839 0.288713 0.423132 0.11455
H_ H_ 0.254865 0.32808 0.397882 0.11455
H_ H_ 0.268323 0.33172 0.447256 0.11455
H_ H_ 0.464913 0.400044 0.503356 0.11455
H_ H_ 0.455235 0.428695 0.0524644 0.11455
H_ H_ 0.442173 0.364752 0.0906148 0.11455
H_ H_ 0.329136 0.253189 0.0121748 0.11455
H_ H_ 0.298798 0.211168 0.052997 0.11455
H_ H_ 0.324186 0.230376 0.104101 0.11455
C_ C_ 0.224666 0.185791 0.405979 0.68181
C_ C_ 0.281457 0.18103 0.403124 -0.05681
C_ C_ 0.314478 0.187744 0.426753 -0.08735
C_ C_ 0.366039 0.18123 0.421634 -0.05681
C_ C_ 0.384281 0.168155 0.393856 -0.05681
C_ C_ 0.351566 0.160599 0.372056 -0.08735
C_ C_ 0.301517 0.172178 0.374847 -0.08735
C_ C_ 0.399614 0.180665 0.444592 -0.08735
C_ C_ 0.451434 0.177295 0.439163 -0.08735
C_ C_ 0.471105 0.171645 0.41131 -0.05681
C_ C_ 0.437839 0.169728 0.388116 -0.08735
C_ C_ 0.120288 0.285763 0.417146 0.68181
C_ C_ 0.125665 0.0882942 0.402755 0.68181
C_ C_ 0.127073 0.0326871 0.399791 -0.05681
C_ C_ 0.121009 0.501171 0.42101 -0.08735
C_ C_ 0.118165 0.44753 0.420144 -0.05681
C_ C_ 0.12054 0.422381 0.393222 -0.05681
C_ C_ 0.126687 0.452332 0.368063 -0.08735
C_ C_ 0.133857 0.504125 0.36851 -0.08735
C_ C_ 0.112028 0.419126 0.444674 -0.08735
C_ C_ 0.109801 0.36657 0.443943 -0.08735
C_ C_ 0.111457 0.342174 0.417674 -0.05681
C_ C_ 0.115866 0.371779 0.392643 -0.08735
C_ C_ 0.0253327 0.189555 0.409564 0.68181
C_ C_ 0.100078 0.137615 0.485736 0.1947
C_ C_ 0.123088 0.0953678 0.00868865 -0.08735
C_ C_ 0.134515 0.12651 0.0326878 -0.08735
C_ C_ 0.148467 0.176564 0.0286709 -0.05681
C_ C_ 0.150709 0.196371 0.999481 0.18498
C_ C_ 0.178731 0.253388 0.497775 -0.08735
C_ C_ 0.191156 0.274064 0.0178327 -0.08735
C_ C_ 0.18832 0.255377 0.0455942 -0.08735
C_ C_ 0.162699 0.208757 0.0521825 0.18498
C_ C_ 0.194403 0.186195 0.100766 0.44287
C_ C_ 0.104727 0.198991 0.0926212 0.44287
C_ C_ 0.096426 0.194631 0.121977 -0.05681
C_ C_ 0.0468806 0.19475 0.133105 -0.08735
C_ C_ 0.0383485 0.194617 0.16265 -0.08735
C_ C_ 0.0784585 0.190167 0.181907 -0.05681
C_ C_ 0.128824 0.191974 0.171541 -0.05681
C_ C_ 0.137521 0.188455 0.140971 -0.05681
C_ C_ 0.18606 0.182214 0.12986 -0.05681
C_ C_ 0.225662 0.17762 0.150091 -0.08735
C_ C_ 0.217405 0.18277 0.179567 -0.08735
C_ C_ 0.168111 0.186329 0.190007 -0.05681
C_ C_ 0.159033 0.177274 0.21914 0.44287
C_ C_ 0.0701123 0.189416 0.212141 0.44287
C_ C_ 0.100184 0.169516 0.261093 0.18498
C_ C_ 0.0688576 0.128003 0.266619 -0.08735
C_ C_ 0.0519685 0.117851 0.294886 -0.08735
C_ C_ 0.0711179 0.144805 0.31759 -0.08735
C_ C_ 0.107128 0.182095 0.313744 0.18498
C_ C_ 0.118942 0.197084 0.285297 -0.05681
C_ C_ 0.145241 0.242558 0.280663 -0.08735
C_ C_ 0.168786 0.26552 0.304557 -0.08735
C_ C_ 0.160792 0.247002 0.332243 0.1947
C_ C_ 0.266091 0.313039 0.161053 0.68181
C_ C_ 0.209786 0.311102 0.155926 -0.05681
C_ C_ 0.175229 0.312168 0.178696 -0.08735
C_ C_ 0.123583 0.320692 0.17393 -0.05681
C_ C_ 0.103971 0.327592 0.145923 -0.05681
C_ C_ 0.138732 0.322647 0.122742 -0.08735
C_ C_ 0.190569 0.314584 0.127548 -0.08735
C_ C_ 0.0893361 0.324671 0.196291 -0.08735
C_ C_ 0.0379409 0.318452 0.190733 -0.08735
C_ C_ 0.0181966 0.324559 0.162567 -0.05681
C_ C_ 0.0511659 0.329669 0.139242 -0.08735
C_ C_ 0.37284 0.21197 0.167681 0.68181
C_ C_ 0.352334 0.409782 0.154813 0.68181
C_ C_ 0.354926 0.465711 0.152199 -0.05681
C_ C_ 0.36382 -0.005152999999999963 0.177371 -0.08735
C_ C_ 0.362366 0.0480519 0.174295 -0.05681
C_ C_ 0.378122 0.0707684 0.149047 -0.05681
C_ C_ 0.388621 0.0399426 0.125523 -0.08735
C_ C_ 0.361626 0.489932 0.125227 -0.08735
C_ C_ 0.355137 0.0773355 0.198615 -0.08735
C_ C_ 0.359369 0.128961 0.196284 -0.08735
C_ C_ 0.370944 0.155027 0.170839 -0.05681
C_ C_ 0.377354 0.123047 0.146181 -0.08735
C_ C_ 0.462407 0.31065 0.160261 0.68181
C_ C_ 0.394739 0.370123 0.237153 0.1947
C_ C_ 0.403867 0.388203 0.264807 -0.08735
C_ C_ 0.384566 0.363493 0.287756 -0.08735
C_ C_ 0.358725 0.31562 0.283668 -0.05681
C_ C_ 0.346231 0.299671 0.255113 0.18498
C_ C_ 0.315993 0.257629 0.250884 -0.08735
C_ C_ 0.305406 0.224788 0.273452 -0.08735
C_ C_ 0.323916 0.2364 0.300616 -0.08735
C_ C_ 0.346705 0.285495 0.306542 0.18498
C_ C_ 0.322164 0.304208 0.354936 0.44287
C_ C_ 0.409276 0.288722 0.346565 0.44287
C_ C_ 0.422176 0.303253 0.375139 -0.05681
C_ C_ 0.473434 0.299354 0.386067 -0.08735
C_ C_ 0.480692 0.294657 0.415443 -0.08735
C_ C_ 0.441335 0.306127 0.433965 -0.05681
C_ C_ 0.3923 0.31286 0.423652 -0.05681
C_ C_ 0.381956 0.313675 0.394034 -0.05681
C_ C_ 0.332409 0.313602 0.384402 -0.05681
C_ C_ 0.293373 0.326673 0.404351 -0.08735
C_ C_ 0.302388 0.326562 0.434009 -0.08735
C_ C_ 0.351485 0.318744 0.443801 -0.05681
C_ C_ 0.365596 0.329269 0.473267 0.44287
C_ C_ 0.451452 0.311592 0.464377 0.44287
C_ C_ 0.387475 0.34043 0.0131903 0.18498
C_ C_ 0.417501 0.383475 0.0207921 -0.08735
C_ C_ 0.430177 0.39549 0.0489965 -0.08735
C_ C_ 0.422193 0.362067 0.0706447 -0.08735
C_ C_ 0.387304 0.321295 0.0660897 0.18498
C_ C_ 0.375285 0.306148 0.0367274 -0.05681
C_ C_ 0.342265 0.263655 0.0329585 -0.08735
C_ C_ 0.3278 0.23599 0.0558194 -0.08735
C_ C_ 0.338848 0.250484 0.0842948 0.1947
N_ N_ 0.130697 0.177932 0.480772 -0.29468
N_ N_ 0.153722 0.195778 0.0824258 -0.17154
N_ N_ 0.110668 0.181911 0.2307 -0.17154
N_ N_ 0.127272 0.207364 0.335799 -0.29468
N_ N_ 0.364368 0.329065 0.233025 -0.29468
N_ N_ 0.361423 0.296532 0.335885 -0.17154
N_ N_ 0.414649 0.322771 0.48264 -0.17154
N_ N_ 0.366162 0.29363 0.0889688 -0.29468
O_ O_ 0.206424 0.191939 0.430443 -0.58347
O_ O_ 0.196752 0.189579 0.385193 -0.58347
O_ O_ 0.121158 0.260768 0.440391 -0.58347
O_ O_ 0.122147 0.262847 0.392559 -0.58347
O_ O_ 0.136288 0.11284 0.426101 -0.58347
O_ O_ 0.1212 0.113018 0.38071 -0.58347
O_ O_ 0.0530034 0.183985 0.431693 -0.58347
O_ O_ 0.0482032 0.189139 0.384336 -0.58347
O_ O_ 0.0682732 0.214076 0.0752221 -0.46727
O_ O_ 0.240609 0.181172 0.089892 -0.46727
O_ O_ 0.0239926 0.189128 0.222294 -0.46727
O_ O_ 0.195337 0.158925 0.234514 -0.46727
O_ O_ 0.282519 0.312328 0.18687 -0.58347
O_ O_ 0.296052 0.305083 0.139661 -0.58347
O_ O_ 0.367419 0.241357 0.188996 -0.58347
O_ O_ 0.378355 0.230034 0.143014 -0.58347
O_ O_ 0.344942 0.388003 0.179433 -0.58347
O_ O_ 0.37407 0.383537 0.134604 -0.58347
O_ O_ 0.431947 0.31985 0.180856 -0.58347
O_ O_ 0.444553 0.306471 0.135382 -0.58347
O_ O_ 0.445277 0.271678 0.329867 -0.46727
O_ O_ 0.276266 0.305223 0.345456 -0.46727
O_ O_ 0.497603 0.307118 0.474657 -0.46727
O_ O_ 0.332862 0.348047 0.491363 -0.46727
Zn Zn 0.134085 0.185648 0.881235 0.90689
Zn Zn 0.144761 0.177167 0.929754 0.90689
Zn Zn 0.387811 0.312492 0.633969 0.90689
Zn Zn 0.376159 0.31345 0.679824 0.90689
H_ H_ 0.318025 0.18492 0.950034 0.11455
H_ H_ 0.377886 0.190364 0.849163 0.11455
H_ H_ 0.288107 0.189507 0.85833 0.11455
H_ H_ 0.403904 0.152478 0.96432 0.11455
H_ H_ 0.492416 0.152721 0.95561 0.11455
H_ H_ 0.466801 0.175327 0.865664 0.11455
H_ H_ 0.124196 0.0130775 0.936594 0.11455
H_ H_ 0.145342 0.429739 0.845116 0.11455
H_ H_ 0.158067 0.0269996 0.845638 0.11455
H_ H_ 0.155103 0.428746 0.963927 0.11455
H_ H_ 0.143587 0.339613 0.962495 0.11455
H_ H_ 0.139734 0.348038 0.869048 0.11455
H_ H_ 0.100747 0.0957908 0.963756 0.11455
H_ H_ 0.0729299 0.0847981 0.516393 0.11455
H_ H_ 0.125624 0.120585 0.553862 0.11455
H_ H_ 0.191198 0.25428 0.973425 0.11455
H_ H_ 0.226691 0.31339 0.515027 0.11455
H_ H_ 0.218543 0.278897 0.567117 0.11455
H_ H_ 0.0190163 0.192243 0.62305 0.11455
H_ H_ 0.00660606 0.19012 0.672927 0.11455
H_ H_ 0.268605 0.169725 0.639574 0.11455
H_ H_ 0.258508 0.16963 0.690834 0.11455
H_ H_ 0.085891 0.093637 0.750132 0.11455
H_ H_ 0.0603011 0.072616 0.79624 0.11455
H_ H_ 0.0892557 0.124552 0.839076 0.11455
H_ H_ 0.18344 0.251211 0.761345 0.11455
H_ H_ 0.220004 0.288655 0.802604 0.11455
H_ H_ 0.200689 0.260025 0.850577 0.11455
H_ H_ 0.209684 0.293262 0.694851 0.11455
H_ H_ 0.138431 0.317984 0.598781 0.11455
H_ H_ 0.227214 0.327741 0.605384 0.11455
H_ H_ 0.119758 0.303786 0.713418 0.11455
H_ H_ 0.0321518 0.3034 0.707394 0.11455
H_ H_ 0.0528196 0.312266 0.615187 0.11455
H_ H_ 0.361278 0.481874 0.691172 0.11455
H_ H_ 0.338275 0.068752 0.606827 0.11455
H_ H_ 0.364774 0.470277 0.597493 0.11455
H_ H_ 0.429271 0.061194 0.713542 0.11455
H_ H_ 0.419726 0.151262 0.714391 0.11455
H_ H_ 0.364336 0.151698 0.626054 0.11455
H_ H_ 0.417996 0.401435 0.716491 0.11455
H_ H_ 0.438376 0.428367 0.765265 0.11455
H_ H_ 0.400128 0.380157 0.805388 0.11455
H_ H_ 0.321795 0.252414 0.724359 0.11455
H_ H_ 0.303989 0.190985 0.763759 0.11455
H_ H_ 0.313974 0.220237 0.814789 0.11455
H_ H_ 0.491671 0.284661 0.875365 0.11455
H_ H_ 0.496018 0.288031 0.93051 0.11455
H_ H_ 0.256529 0.378834 0.883965 0.11455
H_ H_ 0.262655 0.387788 0.935185 0.11455
H_ H_ 0.436561 0.405867 0.00335747 0.11455
H_ H_ 0.480521 0.424675 0.552117 0.11455
H_ H_ 0.446753 0.378984 0.59183 0.11455
H_ H_ 0.377679 0.245078 0.508827 0.11455
H_ H_ 0.327173 0.204886 0.548936 0.11455
H_ H_ 0.336236 0.235807 0.597141 0.11455
C_ C_ 0.238022 0.191394 0.907675 0.68181
C_ C_ 0.294104 0.185407 0.904547 -0.05681
C_ C_ 0.328683 0.182471 0.927615 -0.08735
C_ C_ 0.381125 0.169559 0.921242 -0.05681
C_ C_ 0.399508 0.17434 0.892569 -0.05681
C_ C_ 0.365975 0.185774 0.870951 -0.08735
C_ C_ 0.313491 0.185703 0.876972 -0.08735
C_ C_ 0.415744 0.157591 0.943045 -0.08735
C_ C_ 0.467105 0.155104 0.937376 -0.08735
C_ C_ 0.487711 0.164301 0.909829 -0.05681
C_ C_ 0.452441 0.173459 0.886958 -0.08735
C_ C_ 0.132132 0.280025 0.912805 0.68181
C_ C_ 0.144841 0.0824793 0.897298 0.68181
C_ C_ 0.144387 0.0264162 0.892709 -0.05681
C_ C_ 0.139386 0.498306 0.919939 -0.08735
C_ C_ 0.14253 0.444892 0.91867 -0.05681
C_ C_ 0.138035 0.420416 0.891463 -0.05681
C_ C_ 0.136984 0.449379 0.865503 -0.08735
C_ C_ 0.129879 0.502003 0.868868 -0.08735
C_ C_ 0.152794 0.413065 0.943784 -0.08735
C_ C_ 0.144106 0.360069 0.94245 -0.08735
C_ C_ 0.133711 0.336706 0.915638 -0.05681
C_ C_ 0.13779 0.366825 0.89039 -0.08735
C_ C_ 0.0422404 0.179773 0.903385 0.68181
C_ C_ 0.114755 0.119652 0.981218 0.1947
C_ C_ 0.0944096 0.119055 0.512918 -0.08735
C_ C_ 0.121229 0.141782 0.534395 -0.08735
C_ C_ 0.147029 0.189123 0.530718 -0.05681
C_ C_ 0.152771 0.205583 0.502761 0.18498
C_ C_ 0.179633 0.241716 0.995452 -0.08735
C_ C_ 0.199904 0.281149 0.520973 -0.08735
C_ C_ 0.201307 0.259481 0.549054 -0.08735
C_ C_ 0.165159 0.217252 0.55399 0.18498
C_ C_ 0.197997 0.18867 0.599637 0.44287
C_ C_ 0.109493 0.202287 0.594378 0.44287
C_ C_ 0.101496 0.19199 0.62383 -0.05681
C_ C_ 0.0536378 0.192775 0.635868 -0.08735
C_ C_ 0.0451793 0.191217 0.665475 -0.08735
C_ C_ 0.0881065 0.185846 0.683342 -0.05681
C_ C_ 0.136368 0.183936 0.671339 -0.05681
C_ C_ 0.142803 0.18399 0.641193 -0.05681
C_ C_ 0.191124 0.179613 0.629727 -0.05681
C_ C_ 0.232191 0.169919 0.647908 -0.08735
C_ C_ 0.226698 0.172507 0.677931 -0.08735
C_ C_ 0.177339 0.179749 0.68945 -0.05681
C_ C_ 0.17152 0.178556 0.719268 0.44287
C_ C_ 0.082747 0.187605 0.713458 0.44287
C_ C_ 0.113443 0.168471 0.760397 0.18498
C_ C_ 0.0932222 0.121819 0.766953 -0.08735
C_ C_ 0.082407 0.106774 0.794949 -0.08735
C_ C_ 0.0927806 0.139306 0.817068 -0.08735
C_ C_ 0.122383 0.182697 0.812982 0.18498
C_ C_ 0.132202 0.198641 0.784483 -0.05681
C_ C_ 0.165397 0.241403 0.780896 -0.08735
C_ C_ 0.189114 0.26281 0.804534 -0.08735
C_ C_ 0.179999 0.243835 0.83226 0.1947
C_ C_ 0.279267 0.310203 0.654049 0.68181
C_ C_ 0.224152 0.314336 0.65115 -0.05681
C_ C_ 0.193916 0.303393 0.67388 -0.08735
C_ C_ 0.139641 0.307319 0.670098 -0.05681
C_ C_ 0.120112 0.308741 0.642284 -0.05681
C_ C_ 0.152476 0.322991 0.619915 -0.08735
C_ C_ 0.203619 0.32567 0.624315 -0.08735
C_ C_ 0.106753 0.312128 0.69324 -0.08735
C_ C_ 0.0557234 0.313531 0.688532 -0.08735
C_ C_ 0.034693 0.317949 0.660898 -0.05681
C_ C_ 0.0674693 0.310155 0.636918 -0.08735
C_ C_ 0.394521 0.216848 0.666405 0.68181
C_ C_ 0.373539 0.413377 0.646896 0.68181
C_ C_ 0.371893 0.470353 0.645545 -0.05681
C_ C_ 0.389328 -0.0007270000000000332 0.671998 -0.08735
C_ C_ 0.393671 0.0522626 0.671511 -0.05681
C_ C_ 0.37668 0.0781411 0.646142 -0.05681
C_ C_ 0.35203 0.0497592 0.625596 -0.08735
C_ C_ 0.37106 0.492783 0.618452 -0.08735
C_ C_ 0.41541 0.081504 0.693154 -0.08735
C_ C_ 0.408598 0.132786 0.693766 -0.08735
C_ C_ 0.395763 0.160396 0.668252 -0.05681
C_ C_ 0.383049 0.131539 0.643688 -0.08735
C_ C_ 0.477403 0.32872 0.660482 0.68181
C_ C_ 0.404428 0.378798 0.733315 0.1947
C_ C_ 0.4186 0.392295 0.760654 -0.08735
C_ C_ 0.394433 0.366747 0.783392 -0.08735
C_ C_ 0.36273 0.323463 0.778813 -0.05681
C_ C_ 0.356468 0.307447 0.750454 0.18498
C_ C_ 0.326799 0.262943 0.745414 -0.08735
C_ C_ 0.317208 0.230099 0.768672 -0.08735
C_ C_ 0.324333 0.245648 0.79741 -0.08735
C_ C_ 0.349536 0.292653 0.803017 0.18498
C_ C_ 0.31762 0.329425 0.848493 0.44287
C_ C_ 0.401395 0.295863 0.847329 0.44287
C_ C_ 0.409645 0.305564 0.876337 -0.05681
C_ C_ 0.456 0.295925 0.889731 -0.08735
C_ C_ 0.46114 0.29906 0.920615 -0.08735
C_ C_ 0.41763 0.312912 0.937208 -0.05681
C_ C_ 0.372468 0.326649 0.92328 -0.05681
C_ C_ 0.368571 0.323051 0.89341 -0.05681
C_ C_ 0.32362 0.338509 0.879066 -0.05681
C_ C_ 0.285941 0.361963 0.894977 -0.08735
C_ C_ 0.291673 0.36714 0.924169 -0.08735
C_ C_ 0.330959 0.341915 0.939415 -0.05681
C_ C_ 0.335437 0.343829 0.97008 0.44287
C_ C_ 0.416512 0.308825 0.967637 0.44287
C_ C_ 0.426911 0.333979 0.512208 0.18498
C_ C_ 0.45185 0.379018 0.519652 -0.08735
C_ C_ 0.458595 0.392949 0.547854 -0.08735
C_ C_ 0.44297 0.363666 0.57022 -0.08735
C_ C_ 0.414364 0.319446 0.56467 0.18498
C_ C_ 0.409175 0.302866 0.535784 -0.05681
C_ C_ 0.383809 0.257957 0.530768 -0.08735
C_ C_ 0.358889 0.230897 0.552974 -0.08735
C_ C_ 0.360961 0.25252 0.580489 0.1947
N_ N_ 0.134004 0.166098 0.976735 -0.29468
N_ N_ 0.156588 0.200592 0.582939 -0.17154
N_ N_ 0.12295 0.183332 0.730937 -0.17154
N_ N_ 0.145645 0.206498 0.835815 -0.29468
N_ N_ 0.376259 0.336597 0.728106 -0.29468
N_ N_ 0.357494 0.309367 0.833345 -0.17154
N_ N_ 0.378538 0.33061 0.982954 -0.17154
N_ N_ 0.387597 0.295661 0.585924 -0.29468
O_ O_ 0.219784 0.184976 0.932308 -0.58347
O_ O_ 0.209688 0.190255 0.884969 -0.58347
O_ O_ 0.135031 0.253196 0.935302 -0.58347
O_ O_ 0.128759 0.259886 0.888437 -0.58347
O_ O_ 0.152647 0.102198 0.921614 -0.58347
O_ O_ 0.144679 0.111806 0.876068 -0.58347
O_ O_ 0.0715562 0.175349 0.925431 -0.58347
O_ O_ 0.0598912 0.181589 0.877996 -0.58347
O_ O_ 0.0706843 0.218077 0.578631 -0.46727
O_ O_ 0.243707 0.194579 0.58937 -0.46727
O_ O_ 0.0373439 0.191705 0.724066 -0.46727
O_ O_ 0.21035 0.168745 0.734806 -0.46727
O_ O_ 0.299587 0.304263 0.678292 -0.58347
O_ O_ 0.309112 0.316125 0.632438 -0.58347
O_ O_ 0.392198 0.241932 0.689253 -0.58347
O_ O_ 0.38395 0.237829 0.64261 -0.58347
O_ O_ 0.362197 0.391877 0.670793 -0.58347
O_ O_ 0.38262 0.384854 0.625215 -0.58347
O_ O_ 0.447715 0.333508 0.681009 -0.58347
O_ O_ 0.460445 0.314444 0.635585 -0.58347
O_ O_ 0.43559 0.272875 0.831555 -0.46727
O_ O_ 0.272026 0.337069 0.836838 -0.46727
O_ O_ 0.452503 0.286122 0.98094 -0.46727
O_ O_ 0.296848 0.35636 0.985488 -0.46727
Zn Zn 0.129817 0.686539 0.381578 0.90689
Zn Zn 0.131132 0.684706 0.428626 0.90689
Zn Zn 0.370635 0.810847 0.135309 0.90689
Zn Zn 0.359534 0.814032 0.182277 0.90689
H_ H_ 0.304258 0.672425 0.440835 0.11455
H_ H_ 0.37338 0.661089 0.342453 0.11455
H_ H_ 0.281865 0.665781 0.350394 0.11455
H_ H_ 0.392582 0.686592 0.461534 0.11455
H_ H_ 0.481051 0.680465 0.451909 0.11455
H_ H_ 0.459832 0.671522 0.362117 0.11455
H_ H_ 0.111681 0.519848 0.441767 0.11455
H_ H_ 0.112251 0.944394 0.348936 0.11455
H_ H_ 0.138153 0.520339 0.348313 0.11455
H_ H_ 0.153183 0.937097 0.464137 0.11455
H_ H_ 0.140092 0.840986 0.460949 0.11455
H_ H_ 0.105568 0.851537 0.372741 0.11455
H_ H_ 0.0778147 0.617032 0.462623 0.11455
H_ H_ 0.0511499 0.585542 0.00960392 0.11455
H_ H_ 0.0923208 0.626391 0.0515376 0.11455
H_ H_ 0.201846 0.748835 0.473246 0.11455
H_ H_ 0.207327 0.804549 0.00616891 0.11455
H_ H_ 0.186355 0.786093 0.0579924 0.11455
H_ H_ 0.00863368 0.714985 0.121352 0.11455
H_ H_ 0.0019599999999999618 0.698271 0.172482 0.11455
H_ H_ 0.255735 0.655606 0.132521 0.11455
H_ H_ 0.248343 0.648583 0.18343 0.11455
H_ H_ 0.0652464 0.590123 0.24877 0.11455
H_ H_ 0.0547887 0.560768 0.299283 0.11455
H_ H_ 0.0848562 0.620936 0.338178 0.11455
H_ H_ 0.151748 0.753876 0.253831 0.11455
H_ H_ 0.181128 0.80452 0.29622 0.11455
H_ H_ 0.177455 0.76601 0.344804 0.11455
H_ H_ 0.190853 0.812393 0.200357 0.11455
H_ H_ 0.121801 0.839518 0.105574 0.11455
H_ H_ 0.213298 0.836501 0.109727 0.11455
H_ H_ 0.101741 0.804203 0.220193 0.11455
H_ H_ 0.0145664 0.801095 0.213902 0.11455
H_ H_ 0.0343199 0.823527 0.122239 0.11455
H_ H_ 0.353926 0.974819 0.1966 0.11455
H_ H_ 0.370721 0.556444 0.103244 0.11455
H_ H_ 0.391714 0.966962 0.107787 0.11455
H_ H_ 0.35543 0.571026 0.220397 0.11455
H_ H_ 0.36005 0.661381 0.213477 0.11455
H_ H_ 0.379279 0.64316 0.123349 0.11455
H_ H_ 0.437078 0.854857 0.219355 0.11455
H_ H_ 0.456323 0.887388 0.265043 0.11455
H_ H_ 0.402304 0.864187 0.305277 0.11455
H_ H_ 0.288424 0.755638 0.223241 0.11455
H_ H_ 0.24974 0.713807 0.264626 0.11455
H_ H_ 0.276686 0.733514 0.313933 0.11455
H_ H_ 0.480381 0.783953 0.37126 0.11455
H_ H_ 0.493133 0.797476 0.424958 0.11455
H_ H_ 0.23265 0.835773 0.391039 0.11455
H_ H_ 0.247658 0.856607 0.440737 0.11455
H_ H_ 0.416103 0.917335 0.499155 0.11455
H_ H_ 0.443618 0.927392 0.0517921 0.11455
H_ H_ 0.413093 0.876557 0.0913656 0.11455
H_ H_ 0.335052 0.738688 0.0125133 0.11455
H_ H_ 0.308802 0.691211 0.0539787 0.11455
H_ H_ 0.31899 0.725539 0.102159 0.11455
C_ C_ 0.228468 0.687401 0.399685 0.68181
C_ C_ 0.284573 0.678345 0.396525 -0.05681
C_ C_ 0.318154 0.677511 0.419692 -0.08735
C_ C_ 0.372465 0.677479 0.415453 -0.05681
C_ C_ 0.392554 0.672841 0.387825 -0.05681
C_ C_ 0.358345 0.665894 0.365075 -0.08735
C_ C_ 0.305573 0.672743 0.368207 -0.08735
C_ C_ 0.404864 0.685876 0.43913 -0.08735
C_ C_ 0.457658 0.681695 0.434521 -0.08735
C_ C_ 0.47849 0.673433 0.406996 -0.05681
C_ C_ 0.445395 0.674377 0.383733 -0.08735
C_ C_ 0.124669 0.785145 0.411572 0.68181
C_ C_ 0.131843 0.587225 0.397495 0.68181
C_ C_ 0.127997 0.531781 0.395517 -0.05681
C_ C_ 0.130157 1.00188727 0.423408 -0.08735
C_ C_ 0.12778 0.948928 0.420691 -0.05681
C_ C_ 0.118502 0.926575 0.39335 -0.05681
C_ C_ 0.116336 0.960612 0.369548 -0.08735
C_ C_ 0.124975 1.0124543 0.372429 -0.08735
C_ C_ 0.137836 0.918637 0.44449 -0.08735
C_ C_ 0.134055 0.864805 0.441815 -0.08735
C_ C_ 0.12812 0.842952 0.4144 -0.05681
C_ C_ 0.118363 0.872912 0.390935 -0.08735
C_ C_ 0.0347779 0.687951 0.407575 0.68181
C_ C_ 0.0941129 0.636996 0.479995 0.1947
C_ C_ 0.073742 0.619682 0.00679189 -0.08735
C_ C_ 0.0979292 0.641854 0.0308395 -0.08735
C_ C_ 0.130254 0.684085 0.0249511 -0.05681
C_ C_ 0.14274 0.696289 0.99528 0.18498
C_ C_ 0.18683 0.738407 0.494352 -0.08735
C_ C_ 0.191334 0.768114 0.0110262 -0.08735
C_ C_ 0.182356 0.757539 0.0408292 -0.08735
C_ C_ 0.151987 0.714365 0.0477806 0.18498
C_ C_ 0.182142 0.680494 0.0931365 0.44287
C_ C_ 0.100132 0.713324 0.0904318 0.44287
C_ C_ 0.089478 0.700363 0.119827 -0.05681
C_ C_ 0.0420835 0.706899 0.132919 -0.08735
C_ C_ 0.0381327 0.698873 0.162391 -0.08735
C_ C_ 0.0799757 0.688471 0.180437 -0.05681
C_ C_ 0.126569 0.68299 0.166812 -0.05681
C_ C_ 0.130391 0.684793 0.137062 -0.05681
C_ C_ 0.177967 0.673571 0.123443 -0.05681
C_ C_ 0.21951 0.662937 0.141647 -0.08735
C_ C_ 0.215035 0.659036 0.171403 -0.08735
C_ C_ 0.168366 0.668504 0.184076 -0.05681
C_ C_ 0.161066 0.66293 0.214748 0.44287
C_ C_ 0.0764051 0.687101 0.210338 0.44287
C_ C_ 0.106252 0.659591 0.257994 0.18498
C_ C_ 0.0805819 0.614701 0.265903 -0.08735
C_ C_ 0.0728553 0.599346 0.294194 -0.08735
C_ C_ 0.0914104 0.630833 0.316712 -0.08735
C_ C_ 0.118306 0.674808 0.310951 0.18498
C_ C_ 0.126492 0.691424 0.280251 -0.05681
C_ C_ 0.147827 0.7397 0.274664 -0.08735
C_ C_ 0.163771 0.768512 0.299087 -0.08735
C_ C_ 0.156341 0.74966 0.327353 0.1947
C_ C_ 0.265798 0.818064 0.15959 0.68181
C_ C_ 0.21057 0.824702 0.156755 -0.05681
C_ C_ 0.176226 0.818366 0.179538 -0.08735
C_ C_ 0.122768 0.821342 0.176606 -0.05681
C_ C_ 0.102693 0.831074 0.149599 -0.05681
C_ C_ 0.13641 0.837499 0.126928 -0.08735
C_ C_ 0.190069 0.833611 0.129569 -0.08735
C_ C_ 0.0889964 0.809855 0.198955 -0.08735
C_ C_ 0.0366609 0.811564 0.195135 -0.08735
C_ C_ 0.0161554 0.815574 0.166852 -0.05681
C_ C_ 0.0503397 0.824907 0.144399 -0.08735
C_ C_ 0.367241 0.714212 0.165079 0.68181
C_ C_ 0.363688 0.910314 0.154704 0.68181
C_ C_ 0.368464 0.965234 0.152185 -0.05681
C_ C_ 0.360134 0.497407 0.177884 -0.08735
C_ C_ 0.359028 0.551664 0.17534 -0.05681
C_ C_ 0.368461 0.574407 0.147226 -0.05681
C_ C_ 0.372609 0.541373 0.123852 -0.08735
C_ C_ 0.381771 -0.011499000000000037 0.12671 -0.08735
C_ C_ 0.359918 0.584396 0.198992 -0.08735
C_ C_ 0.357577 0.636708 0.195836 -0.08735
C_ C_ 0.364014 0.65834 0.168282 -0.05681
C_ C_ 0.371763 0.626409 0.144293 -0.08735
C_ C_ 0.462492 0.813468 0.157992 0.68181
C_ C_ 0.406784 0.850174 0.234393 0.1947
C_ C_ 0.420642 0.864493 0.26148 -0.08735
C_ C_ 0.388867 0.854408 0.284094 -0.08735
C_ C_ 0.348873 0.821539 0.279241 -0.05681
C_ C_ 0.332951 0.807323 0.250433 0.18498
C_ C_ 0.294552 0.770457 0.245331 -0.08735
C_ C_ 0.27672 0.74339 0.268413 -0.08735
C_ C_ 0.292839 0.753731 0.296942 -0.08735
C_ C_ 0.326586 0.794119 0.303044 0.18498
C_ C_ 0.302884 0.822906 0.351313 0.44287
C_ C_ 0.386089 0.792415 0.34455 0.44287
C_ C_ 0.397991 0.801277 0.373764 -0.05681
C_ C_ 0.447725 0.794729 0.385251 -0.08735
C_ C_ 0.457223 0.805379 0.415571 -0.08735
C_ C_ 0.415416 0.810584 0.434385 -0.05681
C_ C_ 0.367157 0.821563 0.422072 -0.05681
C_ C_ 0.359257 0.819835 0.392049 -0.05681
C_ C_ 0.312555 0.830918 0.379829 -0.05681
C_ C_ 0.271284 0.839403 0.398101 -0.08735
C_ C_ 0.279617 0.845418 0.427562 -0.08735
C_ C_ 0.327207 0.836973 0.43925 -0.05681
C_ C_ 0.334949 0.839704 0.46976 0.44287
C_ C_ 0.421376 0.82009 0.46373 0.44287
C_ C_ 0.387198 0.831094 0.0141655 0.18498
C_ C_ 0.408828 0.879155 0.0196124 -0.08735
C_ C_ 0.423249 0.893094 0.0470939 -0.08735
C_ C_ 0.409113 0.863485 0.0705731 -0.08735
C_ C_ 0.379772 0.819617 0.0660933 0.18498
C_ C_ 0.365959 0.802634 0.0371572 -0.05681
C_ C_ 0.339421 0.757586 0.0337057 -0.08735
C_ C_ 0.323512 0.729363 0.0575468 -0.08735
C_ C_ 0.333745 0.748107 0.0844264 0.1947
N_ N_ 0.130572 0.675481 0.475705 -0.29468
N_ N_ 0.144587 0.702061 0.0778159 -0.17154
N_ N_ 0.115162 0.668864 0.226874 -0.17154
N_ N_ 0.128835 0.706882 0.333062 -0.29468
N_ N_ 0.362589 0.825042 0.228245 -0.29468
N_ N_ 0.339605 0.804883 0.333474 -0.17154
N_ N_ 0.381017 0.831373 0.481193 -0.17154
N_ N_ 0.364172 0.790341 0.0888436 -0.29468
O_ O_ 0.206752 0.679155 0.424587 -0.58347
O_ O_ 0.203032 0.697842 0.377077 -0.58347
O_ O_ 0.142179 0.758157 0.431666 -0.58347
O_ O_ 0.117257 0.765888 0.386747 -0.58347
O_ O_ 0.127556 0.609527 0.419918 -0.58347
O_ O_ 0.142316 0.611231 0.3756 -0.58347
O_ O_ 0.0604004 0.696311 0.43006 -0.58347
O_ O_ 0.0552844 0.681441 0.383378 -0.58347
O_ O_ 0.0646433 0.739568 0.0769033 -0.46727
O_ O_ 0.225503 0.67294 0.0819041 -0.46727
O_ O_ 0.0375087 0.706776 0.223708 -0.46727
O_ O_ 0.201103 0.652768 0.229486 -0.46727
O_ O_ 0.287183 0.824307 0.183971 -0.58347
O_ O_ 0.292901 0.806133 0.138077 -0.58347
O_ O_ 0.353285 0.741779 0.185776 -0.58347
O_ O_ 0.38215 0.734275 0.141869 -0.58347
O_ O_ 0.361982 0.888477 0.179201 -0.58347
O_ O_ 0.358548 0.883867 0.132283 -0.58347
O_ O_ 0.432514 0.808554 0.179805 -0.58347
O_ O_ 0.445989 0.823337 0.133464 -0.58347
O_ O_ 0.420115 0.772429 0.328025 -0.46727
O_ O_ 0.256437 0.82197 0.341765 -0.46727
O_ O_ 0.464396 0.806123 0.476732 -0.46727
O_ O_ 0.296209 0.851594 0.487306 -0.46727
Zn Zn 0.117413 0.686242 0.879117 0.90689
Zn Zn 0.131235 0.681075 0.927241 0.90689
Zn Zn 0.372674 0.812969 0.632822 0.90689
Zn Zn 0.362137 0.818379 0.679845 0.90689
H_ H_ 0.298089 0.690831 0.944849 0.11455
H_ H_ 0.362759 0.655335 0.847724 0.11455
H_ H_ 0.273547 0.667506 0.853727 0.11455
H_ H_ 0.381385 0.683026 0.964102 0.11455
H_ H_ 0.473915 0.68551 0.958144 0.11455
H_ H_ 0.44976 0.675566 0.864417 0.11455
H_ H_ 0.150936 0.517396 0.939479 0.11455
H_ H_ 0.129352 0.934664 0.841687 0.11455
H_ H_ 0.128229 0.523562 0.849437 0.11455
H_ H_ 0.108857 0.933623 0.958115 0.11455
H_ H_ 0.0959927 0.843781 0.954667 0.11455
H_ H_ 0.111294 0.851791 0.863393 0.11455
H_ H_ 0.0675302 0.614538 0.961178 0.11455
H_ H_ 0.0614923 0.583372 0.509374 0.11455
H_ H_ 0.101315 0.622676 0.550862 0.11455
H_ H_ 0.178079 0.747693 0.96689 0.11455
H_ H_ 0.227782 0.80159 0.514737 0.11455
H_ H_ 0.20746 0.774208 0.563723 0.11455
H_ H_ 1.0154557 0.70011 0.622078 0.11455
H_ H_ 1.00961142 0.692725 0.676077 0.11455
H_ H_ 0.261582 0.646196 0.633955 0.11455
H_ H_ 0.25799 0.641615 0.686458 0.11455
H_ H_ 0.0708824 0.576683 0.750741 0.11455
H_ H_ 0.0486341 0.560687 0.799264 0.11455
H_ H_ 0.0667881 0.622603 0.83707 0.11455
H_ H_ 0.160128 0.735123 0.753885 0.11455
H_ H_ 0.196511 0.782813 0.793819 0.11455
H_ H_ 0.176517 0.757931 0.843703 0.11455
H_ H_ 0.194493 0.799521 0.698026 0.11455
H_ H_ 0.129135 0.826486 0.598254 0.11455
H_ H_ 0.217973 0.825877 0.604943 0.11455
H_ H_ 0.108427 0.795507 0.712524 0.11455
H_ H_ 0.0111672 0.795572 0.707175 0.11455
H_ H_ 0.0409648 0.825437 0.616185 0.11455
H_ H_ 0.400115 0.980809 0.691357 0.11455
H_ H_ 0.361636 0.566605 0.595995 0.11455
H_ H_ 0.32024 0.97372 0.612164 0.11455
H_ H_ 0.382804 0.568338 0.714336 0.11455
H_ H_ 0.370247 0.656949 0.711565 0.11455
H_ H_ 0.393202 0.64767 0.618576 0.11455
H_ H_ 0.413574 0.895651 0.714687 0.11455
H_ H_ 0.423529 0.928368 0.764342 0.11455
H_ H_ 0.387535 0.880065 0.805538 0.11455
H_ H_ 0.313411 0.754908 0.722004 0.11455
H_ H_ 0.277262 0.697776 0.761784 0.11455
H_ H_ 0.303791 0.713858 0.811964 0.11455
H_ H_ 0.492439 0.805634 0.874664 0.11455
H_ H_ 0.502719 0.815898 0.926119 0.11455
H_ H_ 0.23459 0.81026 0.890111 0.11455
H_ H_ 0.2458 0.822995 0.941445 0.11455
H_ H_ 0.423896 0.902609 1.00379 0.11455
H_ H_ 0.446281 0.94185 0.547186 0.11455
H_ H_ 0.43298 0.878196 0.587477 0.11455
H_ H_ 0.332973 0.758305 0.507326 0.11455
H_ H_ 0.304552 0.70967 0.54988 0.11455
H_ H_ 0.318396 0.738084 0.598536 0.11455
C_ C_ 0.224469 0.686277 0.903422 0.68181
C_ C_ 0.279569 0.684581 0.898598 -0.05681
C_ C_ 0.311241 0.679947 0.923048 -0.08735
C_ C_ 0.364555 0.676332 0.918996 -0.05681
C_ C_ 0.384819 0.675069 0.890473 -0.05681
C_ C_ 0.350515 0.668868 0.868058 -0.08735
C_ C_ 0.299274 0.673481 0.871476 -0.08735
C_ C_ 0.39559 0.682337 0.942766 -0.08735
C_ C_ 0.449373 0.680264 0.93874 -0.08735
C_ C_ 0.471012 0.677053 0.910737 -0.05681
C_ C_ 0.437012 0.671763 0.886415 -0.08735
C_ C_ 0.114513 0.781774 0.90673 0.68181
C_ C_ 0.129279 0.583972 0.897184 0.68181
C_ C_ 0.132372 0.527682 0.895002 -0.05681
C_ C_ 0.131137 0.996269 0.91599 -0.08735
C_ C_ 0.121865 0.944516 0.913309 -0.05681
C_ C_ 0.12127 0.922448 0.88642 -0.05681
C_ C_ 0.136966 0.951667 0.862863 -0.08735
C_ C_ 0.150474 0.00278508 0.865847 -0.08735
C_ C_ 0.113729 0.917082 0.937476 -0.08735
C_ C_ 0.108153 0.862579 0.936049 -0.08735
C_ C_ 0.112364 0.837294 0.909061 -0.05681
C_ C_ 0.113609 0.869077 0.8841 -0.08735
C_ C_ 0.027227 0.678959 0.902056 0.68181
C_ C_ 0.0879076 0.63097 0.978622 0.1947
C_ C_ 0.0823893 0.619986 0.507189 -0.08735
C_ C_ 0.105588 0.64175 0.530733 -0.08735
C_ C_ 0.137378 0.684227 0.527307 -0.05681
C_ C_ 0.148318 0.70003 0.498848 0.18498
C_ C_ 0.17402 0.737003 0.989013 -0.08735
C_ C_ 0.205256 0.766056 0.517558 -0.08735
C_ C_ 0.19454 0.750701 0.545577 -0.08735
C_ C_ 0.160414 0.711072 0.551355 0.18498
C_ C_ 0.191106 0.677726 0.595705 0.44287
C_ C_ 0.10676 0.704763 0.593167 0.44287
C_ C_ 0.0988666 0.693383 0.622954 -0.05681
C_ C_ 0.0496007 0.694936 0.635474 -0.08735
C_ C_ 0.0441519 0.691239 0.665735 -0.08735
C_ C_ 0.0860554 0.677413 0.682269 -0.05681
C_ C_ 0.13439 0.673412 0.670134 -0.05681
C_ C_ 0.139989 0.673704 0.639039 -0.05681
C_ C_ 0.185663 0.667848 0.625749 -0.05681
C_ C_ 0.228272 0.654752 0.643382 -0.08735
C_ C_ 0.224981 0.65549 0.673278 -0.08735
C_ C_ 0.177772 0.658038 0.68649 -0.05681
C_ C_ 0.170903 0.650817 0.716024 0.44287
C_ C_ 0.0804421 0.666015 0.712154 0.44287
C_ C_ 0.113282 0.646445 0.758467 0.18498
C_ C_ 0.0861544 0.601741 0.766494 -0.08735
C_ C_ 0.0673407 0.594201 0.794245 -0.08735
C_ C_ 0.078702 0.629705 0.815491 -0.08735
C_ C_ 0.110293 0.66985 0.809956 0.18498
C_ C_ 0.122678 0.6832 0.78092 -0.05681
C_ C_ 0.154881 0.721123 0.77556 -0.08735
C_ C_ 0.171869 0.751171 0.797915 -0.08735
C_ C_ 0.161704 0.734135 0.826536 0.1947
C_ C_ 0.268465 0.811022 0.656032 0.68181
C_ C_ 0.213778 0.812335 0.652003 -0.05681
C_ C_ 0.181103 0.807377 0.675617 -0.08735
C_ C_ 0.126257 0.810098 0.669473 -0.05681
C_ C_ 0.107223 0.818583 0.642451 -0.05681
C_ C_ 0.142375 0.822082 0.619754 -0.08735
C_ C_ 0.193877 0.822836 0.624076 -0.08735
C_ C_ 0.0930186 0.803563 0.692249 -0.08735
C_ C_ 0.0390465 0.806351 0.688992 -0.08735
C_ C_ 0.021143 0.817751 0.660826 -0.05681
C_ C_ 0.0559131 0.817351 0.637504 -0.08735
C_ C_ 0.375633 0.717654 0.661531 0.68181
C_ C_ 0.361334 0.915589 0.651824 0.68181
C_ C_ 0.36372 0.970473 0.650299 -0.05681
C_ C_ 0.369263 0.500642 0.669867 -0.08735
C_ C_ 0.368933 0.555132 0.668295 -0.05681
C_ C_ 0.371435 0.577998 0.641411 -0.05681
C_ C_ 0.367338 0.547015 0.616274 -0.08735
C_ C_ 0.34641 0.995841 0.626773 -0.08735
C_ C_ 0.375852 0.585549 0.69293 -0.08735
C_ C_ 0.372939 0.638106 0.690681 -0.08735
C_ C_ 0.373961 0.662545 0.663019 -0.05681
C_ C_ 0.37611 0.633014 0.638183 -0.08735
C_ C_ 0.465243 0.820996 0.65194 0.68181
C_ C_ 0.396611 0.874872 0.73323 0.1947
C_ C_ 0.411173 0.887569 0.760943 -0.08735
C_ C_ 0.389667 0.86191 0.78457 -0.08735
C_ C_ 0.36268 0.814683 0.779882 -0.05681
C_ C_ 0.35342 0.800874 0.7497 0.18498
C_ C_ 0.319481 0.762838 0.743656 -0.08735
C_ C_ 0.296022 0.735268 0.766003 -0.08735
C_ C_ 0.313108 0.741858 0.795152 -0.08735
C_ C_ 0.346238 0.78287 0.802702 0.18498
C_ C_ 0.312216 0.804731 0.850322 0.44287
C_ C_ 0.400956 0.789613 0.846304 0.44287
C_ C_ 0.408907 0.797334 0.87604 -0.05681
C_ C_ 0.458386 0.805547 0.886828 -0.08735
C_ C_ 0.463413 0.810734 0.917523 -0.08735
C_ C_ 0.419651 0.811837 0.936007 -0.05681
C_ C_ 0.371184 0.810079 0.92353 -0.05681
C_ C_ 0.365765 0.804442 0.893657 -0.05681
C_ C_ 0.318088 0.811692 0.879909 -0.05681
C_ C_ 0.273734 0.815748 0.897659 -0.08735
C_ C_ 0.280743 0.818456 0.928304 -0.08735
C_ C_ 0.328378 0.816566 0.940576 -0.05681
C_ C_ 0.335331 0.825426 0.970844 0.44287
C_ C_ 0.423534 0.814961 0.965792 0.44287
C_ C_ 0.389952 0.84387 0.510588 0.18498
C_ C_ 0.41398 0.889242 0.515914 -0.08735
C_ C_ 0.427761 0.903186 0.543676 -0.08735
C_ C_ 0.413283 0.871743 0.566658 -0.08735
C_ C_ 0.381863 0.82966 0.561603 0.18498
C_ C_ 0.373186 0.813783 0.53293 -0.05681
C_ C_ 0.345683 0.768362 0.528832 -0.08735
C_ C_ 0.328054 0.741556 0.552822 -0.08735
C_ C_ 0.334102 0.760324 0.579932 0.1947
N_ N_ 0.118775 0.670828 0.973723 -0.29468
N_ N_ 0.152237 0.698507 0.580947 -0.17154
N_ N_ 0.1229 0.658444 0.728843 -0.17154
N_ N_ 0.127272 0.700106 0.832337 -0.29468
N_ N_ 0.367782 0.831449 0.728343 -0.29468
N_ N_ 0.354421 0.794222 0.833039 -0.17154
N_ N_ 0.381306 0.81584 0.983769 -0.17154
N_ N_ 0.363672 0.802653 0.584808 -0.29468
O_ O_ 0.205688 0.688588 0.928813 -0.58347
O_ O_ 0.194929 0.686043 0.880576 -0.58347
O_ O_ 0.114695 0.755002 0.928632 -0.58347
O_ O_ 0.112676 0.759911 0.883173 -0.58347
O_ O_ 0.13223 0.605215 0.922013 -0.58347
O_ O_ 0.127059 0.610185 0.87451 -0.58347
O_ O_ 0.0567348 0.674598 0.922943 -0.58347
O_ O_ 0.0452745 0.679379 0.877915 -0.58347
O_ O_ 0.0708552 0.729909 0.578868 -0.46727
O_ O_ 0.235485 0.67342 0.583601 -0.46727
O_ O_ 0.0345669 0.663095 0.723037 -0.46727
O_ O_ 0.210147 0.644129 0.732397 -0.46727
O_ O_ 0.288091 0.806604 0.680118 -0.58347
O_ O_ 0.29666 0.8101 0.633743 -0.58347
O_ O_ 0.374656 0.743663 0.683982 -0.58347
O_ O_ 0.375786 0.739479 0.637706 -0.58347
O_ O_ 0.344722 0.893578 0.674525 -0.58347
O_ O_ 0.369677 0.888626 0.62958 -0.58347
O_ O_ 0.436673 0.830272 0.673893 -0.58347
O_ O_ 0.44567 0.814244 0.628833 -0.58347
O_ O_ 0.438245 0.768807 0.831434 -0.46727
O_ O_ 0.269734 0.813305 0.838182 -0.46727
O_ O_ 0.469426 0.813279 0.977815 -0.46727
O_ O_ 0.294829 0.833792 0.986073 -0.46727
Zn Zn 0.623579 0.185271 0.381924 0.90689
Zn Zn 0.628111 0.177132 0.431041 0.90689
Zn Zn 0.869931 0.305669 0.133947 0.90689
Zn Zn 0.859083 0.312948 0.179956 0.90689
H_ H_ 0.79843 0.209405 0.444699 0.11455
H_ H_ 0.869084 0.185593 0.349132 0.11455
H_ H_ 0.781917 0.164669 0.356903 0.11455
H_ H_ 0.879966 0.208613 0.466913 0.11455
H_ H_ 0.976707 0.211938 0.458672 0.11455
H_ H_ 0.951047 0.196041 0.367374 0.11455
H_ H_ 0.627418 0.010317 0.440261 0.11455
H_ H_ 0.635771 0.43081 0.346668 0.11455
H_ H_ 0.622682 0.0247399 0.346932 0.11455
H_ H_ 0.620498 0.432123 0.465641 0.11455
H_ H_ 0.618064 0.340521 0.462884 0.11455
H_ H_ 0.625448 0.348248 0.371531 0.11455
H_ H_ 0.583802 0.099019 0.467094 0.11455
H_ H_ 0.570499 0.0766712 0.0123493 0.11455
H_ H_ 0.607716 0.117769 0.0557005 0.11455
H_ H_ 0.69581 0.23959 0.47402 0.11455
H_ H_ 0.715382 0.303737 0.0148673 0.11455
H_ H_ 0.690307 0.280779 0.0651431 0.11455
H_ H_ 0.516587 0.206042 0.123654 0.11455
H_ H_ 0.499998 0.182587 0.173286 0.11455
H_ H_ 0.765683 0.148015 0.137335 0.11455
H_ H_ 0.756314 0.148035 0.188442 0.11455
H_ H_ 0.568825 0.0773905 0.255295 0.11455
H_ H_ 0.541038 0.0640682 0.303466 0.11455
H_ H_ 0.561369 0.125749 0.34064 0.11455
H_ H_ 0.657766 0.236691 0.256302 0.11455
H_ H_ 0.682803 0.293652 0.295435 0.11455
H_ H_ 0.673848 0.263275 0.345474 0.11455
H_ H_ 0.690443 0.309157 0.199026 0.11455
H_ H_ 0.623976 0.32328 0.101665 0.11455
H_ H_ 0.719539 0.322037 0.109193 0.11455
H_ H_ 0.60555 0.31729 0.217692 0.11455
H_ H_ 0.519048 0.289183 0.208355 0.11455
H_ H_ 0.53603 0.332088 0.121354 0.11455
H_ H_ 0.840514 0.481413 0.196162 0.11455
H_ H_ 0.898206 0.0513762 0.103416 0.11455
H_ H_ 0.87961 0.462477 0.107508 0.11455
H_ H_ 0.867328 0.0651375 0.216394 0.11455
H_ H_ 0.860391 0.156243 0.212583 0.11455
H_ H_ 0.882339 0.139147 0.120755 0.11455
H_ H_ 0.903076 0.394015 0.213227 0.11455
H_ H_ 0.918549 0.425239 0.261136 0.11455
H_ H_ 0.882039 0.378405 0.303676 0.11455
H_ H_ 0.816468 0.242162 0.222156 0.11455
H_ H_ 0.786594 0.189912 0.26268 0.11455
H_ H_ 0.799377 0.212253 0.312263 0.11455
H_ H_ 0.985973 0.301663 0.36596 0.11455
H_ H_ 0.00125124 0.322672 0.417309 0.11455
H_ H_ 0.733981 0.331549 0.387261 0.11455
H_ H_ 0.748963 0.343245 0.437182 0.11455
H_ H_ 0.942231 0.415001 0.496943 0.11455
H_ H_ 0.952631 0.427945 0.0523862 0.11455
H_ H_ 0.924326 0.37039 0.090644 0.11455
H_ H_ 0.86243 0.236101 0.00811149 0.11455
H_ H_ 0.837243 0.18511 0.0523035 0.11455
H_ H_ 0.822035 0.227443 0.0968648 0.11455
C_ C_ 0.72391 0.184487 0.405161 0.68181
C_ C_ 0.779276 0.183337 0.401515 -0.05681
C_ C_ 0.812759 0.196486 0.42428 -0.08735
C_ C_ 0.865521 0.201288 0.420649 -0.05681
C_ C_ 0.885314 0.190719 0.394294 -0.05681
C_ C_ 0.853681 0.185619 0.370408 -0.08735
C_ C_ 0.801864 0.180562 0.37439 -0.08735
C_ C_ 0.898037 0.206059 0.444349 -0.08735
C_ C_ 0.949783 0.206321 0.44049 -0.08735
C_ C_ 0.9702 0.191962 0.41289 -0.05681
C_ C_ 0.936771 0.188161 0.389109 -0.08735
C_ C_ 0.622732 0.280439 0.414447 0.68181
C_ C_ 0.625527 0.0832818 0.397707 0.68181
C_ C_ 0.629675 0.0262514 0.394599 -0.05681
C_ C_ 0.636374 0.497206 0.420613 -0.08735
C_ C_ 0.633633 0.442517 0.420199 -0.05681
C_ C_ 0.637226 0.418998 0.393052 -0.05681
C_ C_ 0.637055 0.448573 0.367641 -0.08735
C_ C_ 0.640718 0.501178 0.369848 -0.08735
C_ C_ 0.622608 0.415361 0.444446 -0.08735
C_ C_ 0.624963 0.363076 0.443316 -0.08735
C_ C_ 0.624976 0.336589 0.415886 -0.05681
C_ C_ 0.630284 0.366542 0.391006 -0.08735
C_ C_ 0.52761 0.175276 0.408078 0.68181
C_ C_ 0.598559 0.124109 0.484213 0.1947
C_ C_ 0.589911 0.112676 0.0108129 -0.08735
C_ C_ 0.611546 0.135025 0.034575 -0.08735
C_ C_ 0.640126 0.180888 0.0298694 -0.05681
C_ C_ 0.654018 0.194363 1.00148208 0.18498
C_ C_ 0.682811 0.232949 0.495132 -0.08735
C_ C_ 0.699133 0.266847 0.0191889 -0.08735
C_ C_ 0.686936 0.253735 0.0480409 -0.08735
C_ C_ 0.66286 0.207237 0.0529482 0.18498
C_ C_ 0.69105 0.176276 0.0997278 0.44287
C_ C_ 0.605564 0.204145 0.0945857 0.44287
C_ C_ 0.597 0.189564 0.123816 -0.05681
C_ C_ 0.546667 0.190668 0.135585 -0.08735
C_ C_ 0.54005 0.184108 0.165087 -0.08735
C_ C_ 0.579465 0.17268 0.182827 -0.05681
C_ C_ 0.628865 0.169962 0.171443 -0.05681
C_ C_ 0.637247 0.175645 0.140752 -0.05681
C_ C_ 0.685899 0.170074 0.129086 -0.05681
C_ C_ 0.725684 0.151761 0.146367 -0.08735
C_ C_ 0.719013 0.148943 0.176691 -0.08735
C_ C_ 0.671048 0.161389 0.189618 -0.05681
C_ C_ 0.6623 0.157808 0.220022 0.44287
C_ C_ 0.574273 0.172835 0.212939 0.44287
C_ C_ 0.603932 0.149494 0.261436 0.18498
C_ C_ 0.57633 0.107133 0.270069 -0.08735
C_ C_ 0.56175 0.0984579 0.298699 -0.08735
C_ C_ 0.571949 0.134258 0.318759 -0.08735
C_ C_ 0.602439 0.177297 0.31252 0.18498
C_ C_ 0.61954 0.183466 0.283691 -0.05681
C_ C_ 0.646156 0.229071 0.277504 -0.08735
C_ C_ 0.666931 0.259271 0.299726 -0.08735
C_ C_ 0.654308 0.244689 0.328521 0.1947
C_ C_ 0.768805 0.304576 0.158027 0.68181
C_ C_ 0.712291 0.312147 0.153955 -0.05681
C_ C_ 0.677839 0.311309 0.177362 -0.08735
C_ C_ 0.62543 0.314907 0.172872 -0.05681
C_ C_ 0.605615 0.316838 0.145747 -0.05681
C_ C_ 0.638754 0.319822 0.121967 -0.08735
C_ C_ 0.692185 0.319183 0.12683 -0.08735
C_ C_ 0.591984 0.311568 0.195954 -0.08735
C_ C_ 0.538822 0.308605 0.191891 -0.08735
C_ C_ 0.518427 0.312121 0.164408 -0.05681
C_ C_ 0.552424 0.317815 0.141589 -0.08735
C_ C_ 0.874599 0.210643 0.163979 0.68181
C_ C_ 0.855855 0.410188 0.153579 0.68181
C_ C_ 0.856876 0.46531 0.150739 -0.05681
C_ C_ 0.84551 -0.0017329999999999846 0.174941 -0.08735
C_ C_ 0.858176 0.0503654 0.171651 -0.05681
C_ C_ 0.866988 0.0698429 0.144016 -0.05681
C_ C_ 0.877479 0.0369052 0.121223 -0.08735
C_ C_ 0.866714 0.486157 0.124065 -0.08735
C_ C_ 0.860357 0.0815521 0.195602 -0.08735
C_ C_ 0.862874 0.133102 0.192592 -0.08735
C_ C_ 0.874936 0.155334 0.166546 -0.05681
C_ C_ 0.875666 0.123109 0.142706 -0.08735
C_ C_ 0.962605 0.323463 0.157239 0.68181
C_ C_ 0.890771 0.371648 0.231474 0.1947
C_ C_ 0.896245 0.39118 0.259424 -0.08735
C_ C_ 0.879761 0.361682 0.282886 -0.08735
C_ C_ 0.852919 0.316426 0.278561 -0.05681
C_ C_ 0.844545 0.301164 0.248918 0.18498
C_ C_ 0.818697 0.256282 0.24416 -0.08735
C_ C_ 0.806881 0.224845 0.26693 -0.08735
C_ C_ 0.812168 0.23967 0.295024 -0.08735
C_ C_ 0.836067 0.285622 0.300625 0.18498
C_ C_ 0.806796 0.316113 0.346452 0.44287
C_ C_ 0.893861 0.302154 0.339003 0.44287
C_ C_ 0.905324 0.316381 0.366881 -0.05681
C_ C_ 0.954695 0.315573 0.378467 -0.08735
C_ C_ 0.96254 0.322596 0.407783 -0.08735
C_ C_ 0.920897 0.326838 0.426606 -0.05681
C_ C_ 0.871901 0.329514 0.41534 -0.05681
C_ C_ 0.864181 0.324921 0.385486 -0.05681
C_ C_ 0.814665 0.327786 0.375185 -0.05681
C_ C_ 0.773715 0.336779 0.394072 -0.08735
C_ C_ 0.781669 0.339539 0.423768 -0.08735
C_ C_ 0.830573 0.336541 0.434729 -0.05681
C_ C_ 0.839875 0.339343 0.464553 0.44287
C_ C_ 0.928383 0.333556 0.457007 0.44287
C_ C_ 0.900185 0.332311 0.0116091 0.18498
C_ C_ 0.930854 0.373904 0.0191292 -0.08735
C_ C_ 0.933421 0.391662 0.0470688 -0.08735
C_ C_ 0.910463 0.364159 0.0688728 -0.08735
C_ C_ 0.88161 0.322462 0.0630916 0.18498
C_ C_ 0.881367 0.301825 0.0343754 -0.05681
C_ C_ 0.86513 0.252147 0.0292825 -0.08735
C_ C_ 0.849433 0.224576 0.0535108 -0.08735
C_ C_ 0.839937 0.249384 0.0793079 0.1947
N_ N_ 0.629045 0.163225 0.478926 -0.29468
N_ N_ 0.651311 0.192793 0.0831224 -0.17154
N_ N_ 0.614043 0.16066 0.231385 -0.17154
N_ N_ 0.624466 0.204526 0.333523 -0.29468
N_ N_ 0.861896 0.330127 0.226596 -0.29468
N_ N_ 0.845481 0.29877 0.329838 -0.17154
N_ N_ 0.888147 0.336162 0.47466 -0.17154
N_ N_ 0.862138 0.294711 0.0856421 -0.29468
O_ O_ 0.701551 0.17554 0.428371 -0.58347
O_ O_ 0.69705 0.192578 0.383414 -0.58347
O_ O_ 0.633821 0.254144 0.435593 -0.58347
O_ O_ 0.618069 0.259967 0.389772 -0.58347
O_ O_ 0.621621 0.104057 0.422292 -0.58347
O_ O_ 0.630896 0.111594 0.376196 -0.58347
O_ O_ 0.554444 0.18197 0.429414 -0.58347
O_ O_ 0.547674 0.178463 0.383027 -0.58347
O_ O_ 0.56732 0.219885 0.0779544 -0.46727
O_ O_ 0.736778 0.167751 0.0883563 -0.46727
O_ O_ 0.532317 0.186326 0.225388 -0.46727
O_ O_ 0.701755 0.153158 0.237793 -0.46727
O_ O_ 0.785567 0.301601 0.183048 -0.58347
O_ O_ 0.798323 0.302989 0.135992 -0.58347
O_ O_ 0.878223 0.24025 0.185442 -0.58347
O_ O_ 0.871088 0.230485 0.139573 -0.58347
O_ O_ 0.847299 0.389159 0.176915 -0.58347
O_ O_ 0.86783 0.383198 0.131835 -0.58347
O_ O_ 0.934092 0.321884 0.179073 -0.58347
O_ O_ 0.944931 0.306491 0.133327 -0.58347
O_ O_ 0.930814 0.282914 0.323237 -0.46727
O_ O_ 0.759192 0.316026 0.33635 -0.46727
O_ O_ 0.9748 0.333462 0.467535 -0.46727
O_ O_ 0.803068 0.348987 0.482091 -0.46727
Zn Zn 0.633435 0.190887 0.882379 0.90689
Zn Zn 0.644243 0.184709 0.929876 0.90689
Zn Zn 0.88278 0.317577 0.631594 0.90689
Zn Zn 0.877606 0.327664 0.680952 0.90689
H_ H_ 0.817478 0.181017 0.945408 0.11455
H_ H_ 0.876021 0.173365 0.843421 0.11455
H_ H_ 0.787496 0.182694 0.854156 0.11455
H_ H_ 0.901447 0.161041 0.960539 0.11455
H_ H_ 0.99421 0.180159 0.953083 0.11455
H_ H_ 0.97011 0.178139 0.862917 0.11455
H_ H_ 0.621808 0.0168612 0.93855 0.11455
H_ H_ 0.614157 0.437767 0.847144 0.11455
H_ H_ 0.65462 0.0351215 0.850122 0.11455
H_ H_ 0.6546 0.436959 0.961645 0.11455
H_ H_ 0.637455 0.346735 0.960919 0.11455
H_ H_ 0.60218 0.356452 0.870454 0.11455
H_ H_ 0.587733 0.10579 0.965973 0.11455
H_ H_ 0.563792 0.0820909 0.518536 0.11455
H_ H_ 0.596415 0.131661 0.557693 0.11455
H_ H_ 0.700709 0.243433 0.975163 0.11455
H_ H_ 0.730287 0.292282 0.514818 0.11455
H_ H_ 0.689098 0.284169 0.562084 0.11455
H_ H_ 0.51114 0.216751 0.624295 0.11455
H_ H_ 0.505224 0.215927 0.677606 0.11455
H_ H_ 0.760265 0.151357 0.63712 0.11455
H_ H_ 0.753787 0.145088 0.688121 0.11455
H_ H_ 0.580226 0.104504 0.745607 0.11455
H_ H_ 0.584144 0.062176 0.795116 0.11455
H_ H_ 0.604502 0.11442 0.835485 0.11455
H_ H_ 0.656153 0.267499 0.759255 0.11455
H_ H_ 0.690263 0.309212 0.803573 0.11455
H_ H_ 0.684105 0.266642 0.850201 0.11455
H_ H_ 0.706955 0.334526 0.697818 0.11455
H_ H_ 0.628554 0.320446 0.60111 0.11455
H_ H_ 0.726907 0.331096 0.60572 0.11455
H_ H_ 0.62586 0.337339 0.717876 0.11455
H_ H_ 0.530983 0.347837 0.710613 0.11455
H_ H_ 0.551574 0.329976 0.619569 0.11455
H_ H_ 0.900949 0.492035 0.690507 0.11455
H_ H_ 0.888514 0.0706898 0.598292 0.11455
H_ H_ 0.88793 0.472981 0.598414 0.11455
H_ H_ 0.828463 0.0830311 0.711221 0.11455
H_ H_ 0.854868 0.169047 0.710802 0.11455
H_ H_ 0.896046 0.153477 0.620813 0.11455
H_ H_ 0.938563 0.396771 0.71908 0.11455
H_ H_ 0.95256 0.425082 0.771457 0.11455
H_ H_ 0.900113 0.385201 0.808235 0.11455
H_ H_ 0.811727 0.266708 0.72265 0.11455
H_ H_ 0.768448 0.224794 0.761955 0.11455
H_ H_ 0.789427 0.239173 0.811659 0.11455
H_ H_ 0.990798 0.28607 0.872882 0.11455
H_ H_ 0.00292705 0.296075 0.924163 0.11455
H_ H_ 0.740728 0.324037 0.889435 0.11455
H_ H_ 0.753176 0.318209 0.942809 0.11455
H_ H_ 0.953618 0.391731 1.00258 0.11455
H_ H_ 0.971888 0.422406 0.543785 0.11455
H_ H_ 0.942518 0.373015 0.584489 0.11455
H_ H_ 0.84343 0.25692 0.505311 0.11455
H_ H_ 0.807567 0.215323 0.545589 0.11455
H_ H_ 0.826268 0.246131 0.594906 0.11455
C_ C_ 0.736856 0.18385 0.906239 0.68181
C_ C_ 0.792716 0.184087 0.899836 -0.05681
C_ C_ 0.827157 0.181353 0.922849 -0.08735
C_ C_ 0.880924 0.17957 0.916668 -0.05681
C_ C_ 0.899084 0.17764 0.888676 -0.05681
C_ C_ 0.864813 0.178881 0.865961 -0.08735
C_ C_ 0.81095 0.183278 0.871569 -0.08735
C_ C_ 0.915978 0.169759 0.939338 -0.08735
C_ C_ 0.967981 0.169858 0.934436 -0.08735
C_ C_ 0.986753 0.170364 0.906964 -0.05681
C_ C_ 0.953254 0.173931 0.8833 -0.08735
C_ C_ 0.629768 0.287441 0.913238 0.68181
C_ C_ 0.642652 0.0882735 0.898777 0.68181
C_ C_ 0.63457 0.0339308 0.894357 -0.05681
C_ C_ 0.632756 0.504838 0.920119 -0.08735
C_ C_ 0.632304 0.450156 0.918572 -0.05681
C_ C_ 0.621045 0.426284 0.892189 -0.05681
C_ C_ 0.619502 0.455779 0.86767 -0.08735
C_ C_ 0.624103 0.509531 0.868445 -0.08735
C_ C_ 0.637953 0.420979 0.943162 -0.08735
C_ C_ 0.630596 0.368327 0.941858 -0.08735
C_ C_ 0.618644 0.341965 0.9169 -0.05681
C_ C_ 0.613084 0.373916 0.891299 -0.08735
C_ C_ 0.542167 0.172899 0.906511 0.68181
C_ C_ 0.598714 0.131822 0.982945 0.1947
C_ C_ 0.590112 0.109426 0.512681 -0.08735
C_ C_ 0.604705 0.140549 0.535897 -0.08735
C_ C_ 0.638204 0.180626 0.530513 -0.05681
C_ C_ 0.648231 0.193804 0.501032 0.18498
C_ C_ 0.687033 0.233999 0.996899 -0.08735
C_ C_ 0.701038 0.262852 0.518734 -0.08735
C_ C_ 0.682459 0.257324 0.545498 -0.08735
C_ C_ 0.655913 0.213461 0.553027 0.18498
C_ C_ 0.684019 0.175582 0.599335 0.44287
C_ C_ 0.602853 0.212168 0.59617 0.44287
C_ C_ 0.595143 0.206719 0.626029 -0.05681
C_ C_ 0.545119 0.210068 0.637367 -0.08735
C_ C_ 0.542162 0.210009 0.667924 -0.08735
C_ C_ 0.585538 0.198502 0.684822 -0.05681
C_ C_ 0.63269 0.189033 0.672345 -0.05681
C_ C_ 0.635524 0.190569 0.642872 -0.05681
C_ C_ 0.681317 0.174384 0.629495 -0.05681
C_ C_ 0.723242 0.158788 0.64665 -0.08735
C_ C_ 0.719812 0.158635 0.676142 -0.08735
C_ C_ 0.673978 0.172347 0.690432 -0.05681
C_ C_ 0.668024 0.168936 0.720183 0.44287
C_ C_ 0.58108 0.197344 0.714962 0.44287
C_ C_ 0.614103 0.172711 0.760688 0.18498
C_ C_ 0.595241 0.124525 0.764386 -0.08735
C_ C_ 0.591637 0.103854 0.79132 -0.08735
C_ C_ 0.603632 0.134076 0.815385 -0.08735
C_ C_ 0.620228 0.185095 0.81258 0.18498
C_ C_ 0.626634 0.204745 0.784396 -0.05681
C_ C_ 0.649634 0.252244 0.780525 -0.08735
C_ C_ 0.670911 0.275776 0.804673 -0.08735
C_ C_ 0.662692 0.254745 0.832373 0.1947
C_ C_ 0.780858 0.329453 0.655837 0.68181
C_ C_ 0.723943 0.33032 0.652651 -0.05681
C_ C_ 0.691716 0.335685 0.676648 -0.08735
C_ C_ 0.638558 0.335613 0.673445 -0.05681
C_ C_ 0.618819 0.335523 0.645487 -0.05681
C_ C_ 0.648205 0.327407 0.6213 -0.08735
C_ C_ 0.701816 0.324536 0.624517 -0.08735
C_ C_ 0.607251 0.34094 0.696413 -0.08735
C_ C_ 0.553846 0.341655 0.692117 -0.08735
C_ C_ 0.533021 0.337909 0.664488 -0.05681
C_ C_ 0.566421 0.331341 0.641516 -0.08735
C_ C_ 0.879801 0.223093 0.662756 0.68181
C_ C_ 0.88504 0.42033 0.650062 0.68181
C_ C_ 0.888031 0.476167 0.646063 -0.05681
C_ C_ 0.84722 0.00987948 0.669879 -0.08735
C_ C_ 0.859671 0.0623173 0.669812 -0.05681
C_ C_ 0.878828 0.084094 0.64376 -0.05681
C_ C_ 0.882442 0.0539485 0.619711 -0.08735
C_ C_ 0.886497 0.497287 0.617843 -0.08735
C_ C_ 0.851525 0.09453 0.69275 -0.08735
C_ C_ 0.8569 0.147476 0.691232 -0.08735
C_ C_ 0.876623 0.167775 0.66559 -0.05681
C_ C_ 0.884658 0.136487 0.640855 -0.08735
C_ C_ 0.978345 0.32031 0.656364 0.68181
C_ C_ 0.918017 0.377467 0.736917 0.1947
C_ C_ 0.924815 0.395013 0.765763 -0.08735
C_ C_ 0.895363 0.370232 0.786797 -0.08735
C_ C_ 0.867754 0.326943 0.779592 -0.05681
C_ C_ 0.859521 0.314666 0.750499 0.18498
C_ C_ 0.821759 0.278005 0.744238 -0.08735
C_ C_ 0.796327 0.254507 0.766383 -0.08735
C_ C_ 0.81137 0.258517 0.794248 -0.08735
C_ C_ 0.844931 0.298612 0.8016 0.18498
C_ C_ 0.813874 0.314997 0.849654 0.44287
C_ C_ 0.899808 0.293058 0.842088 0.44287
C_ C_ 0.909447 0.297782 0.872779 -0.05681
C_ C_ 0.95859 0.292455 0.885536 -0.08735
C_ C_ 0.964197 0.294918 0.915277 -0.08735
C_ C_ 0.925566 0.310686 0.934163 -0.05681
C_ C_ 0.876926 0.308759 0.922302 -0.05681
C_ C_ 0.868754 0.303976 0.892046 -0.05681
C_ C_ 0.819151 0.311353 0.879488 -0.05681
C_ C_ 0.779494 0.320479 0.897708 -0.08735
C_ C_ 0.786683 0.322406 0.928069 -0.08735
C_ C_ 0.835712 0.31627 0.939859 -0.05681
C_ C_ 0.844301 0.321379 0.969728 0.44287
C_ C_ 0.932453 0.309016 0.96378 0.44287
C_ C_ 0.896841 0.346839 0.505138 0.18498
C_ C_ 0.925822 0.390892 0.512602 -0.08735
C_ C_ 0.942847 0.396629 0.54059 -0.08735
C_ C_ 0.926395 0.367068 0.563722 -0.08735
C_ C_ 0.893858 0.327582 0.558627 0.18498
C_ C_ 0.8803 0.315393 0.528982 -0.05681
C_ C_ 0.850864 0.271041 0.525261 -0.08735
C_ C_ 0.834707 0.244836 0.549164 -0.08735
C_ C_ 0.848911 0.259895 0.576654 0.1947
N_ N_ 0.630398 0.171168 0.978155 -0.29468
N_ N_ 0.648323 0.200161 0.583763 -0.17154
N_ N_ 0.622558 0.185832 0.732069 -0.17154
N_ N_ 0.635399 0.211145 0.835224 -0.29468
N_ N_ 0.881985 0.341903 0.72881 -0.29468
N_ N_ 0.85512 0.309269 0.831618 -0.17154
N_ N_ 0.8931 0.31905 0.981787 -0.17154
N_ N_ 0.872239 0.30445 0.581564 -0.29468
O_ O_ 0.720086 0.178911 0.931061 -0.58347
O_ O_ 0.708563 0.204204 0.888159 -0.58347
O_ O_ 0.641571 0.26258 0.934772 -0.58347
O_ O_ 0.624492 0.264814 0.890008 -0.58347
O_ O_ 0.635144 0.10886 0.923219 -0.58347
O_ O_ 0.64967 0.117865 0.877751 -0.58347
O_ O_ 0.568958 0.181842 0.927295 -0.58347
O_ O_ 0.56009 0.176301 0.881269 -0.58347
O_ O_ 0.567576 0.235438 0.580605 -0.46727
O_ O_ 0.725848 0.160726 0.585735 -0.46727
O_ O_ 0.540055 0.213345 0.726581 -0.46727
O_ O_ 0.703425 0.151232 0.737387 -0.46727
O_ O_ 0.799852 0.330959 0.679708 -0.58347
O_ O_ 0.808396 0.318174 0.633886 -0.58347
O_ O_ 0.873852 0.250737 0.685039 -0.58347
O_ O_ 0.882234 0.244329 0.638291 -0.58347
O_ O_ 0.88828 0.400472 0.674949 -0.58347
O_ O_ 0.883147 0.390464 0.628115 -0.58347
O_ O_ 0.949318 0.32493 0.677972 -0.58347
O_ O_ 0.958308 0.31908 0.631483 -0.58347
O_ O_ 0.935624 0.27361 0.825459 -0.46727
O_ O_ 0.768174 0.324322 0.838718 -0.46727
O_ O_ 0.97846 0.305852 0.974332 -0.46727
O_ O_ 0.807588 0.340021 0.985851 -0.46727
Zn Zn 0.629015 0.683628 0.378488 0.90689
Zn Zn 0.638467 0.675076 0.426279 0.90689
Zn Zn 0.866566 0.808462 0.134379 0.90689
Zn Zn 0.859159 0.814009 0.183529 0.90689
H_ H_ 0.800136 0.71083 0.439123 0.11455
H_ H_ 0.881395 0.648428 0.349317 0.11455
H_ H_ 0.783695 0.645751 0.354243 0.11455
H_ H_ 0.888696 0.709547 0.463642 0.11455
H_ H_ 0.977247 0.701654 0.456532 0.11455
H_ H_ 0.963228 0.667535 0.369284 0.11455
H_ H_ 0.629978 0.514286 0.441376 0.11455
H_ H_ 0.635291 0.935221 0.342293 0.11455
H_ H_ 0.656006 0.520551 0.352015 0.11455
H_ H_ 0.634291 0.92386 0.461489 0.11455
H_ H_ 0.614395 0.832426 0.456124 0.11455
H_ H_ 0.621879 0.846088 0.365351 0.11455
H_ H_ 0.585415 0.602817 0.46109 0.11455
H_ H_ 0.567114 0.577142 0.00948092 0.11455
H_ H_ 0.600505 0.621567 0.0508107 0.11455
H_ H_ 0.690003 0.74889 0.468677 0.11455
H_ H_ 0.698486 0.808808 0.0124653 0.11455
H_ H_ 0.68934 0.779086 0.0587069 0.11455
H_ H_ 0.504383 0.682294 0.121424 0.11455
H_ H_ 0.496607 0.679945 0.176455 0.11455
H_ H_ 0.759073 0.656003 0.132639 0.11455
H_ H_ 0.743818 0.632291 0.180364 0.11455
H_ H_ 0.573033 0.572272 0.248463 0.11455
H_ H_ 0.550574 0.556265 0.300439 0.11455
H_ H_ 0.571698 0.617472 0.338222 0.11455
H_ H_ 0.653813 0.738586 0.253195 0.11455
H_ H_ 0.697785 0.784848 0.29148 0.11455
H_ H_ 0.683723 0.758209 0.342305 0.11455
H_ H_ 0.695902 0.820706 0.198805 0.11455
H_ H_ 0.624735 0.802059 0.0983918 0.11455
H_ H_ 0.713614 0.798548 0.108677 0.11455
H_ H_ 0.60167 0.822763 0.218324 0.11455
H_ H_ 0.514752 0.830552 0.20933 0.11455
H_ H_ 0.538765 0.804324 0.118657 0.11455
H_ H_ 0.84069 0.984368 0.196996 0.11455
H_ H_ 0.882282 0.55545 0.101221 0.11455
H_ H_ 0.876833 0.964678 0.10579 0.11455
H_ H_ 0.823869 0.566273 0.213693 0.11455
H_ H_ 0.840277 0.65532 0.21112 0.11455
H_ H_ 0.882121 0.645796 0.124247 0.11455
H_ H_ 0.912265 0.889064 0.219305 0.11455
H_ H_ 0.925209 0.917485 0.267655 0.11455
H_ H_ 0.874329 0.882096 0.308039 0.11455
H_ H_ 0.800737 0.746241 0.226556 0.11455
H_ H_ 0.757821 0.705859 0.267689 0.11455
H_ H_ 0.783981 0.724589 0.31544 0.11455
H_ H_ 0.973134 0.780584 0.372556 0.11455
H_ H_ -0.003774000000000055 0.824959 0.418759 0.11455
H_ H_ 0.730464 0.852937 0.391878 0.11455
H_ H_ 0.752319 0.875636 0.441169 0.11455
H_ H_ 0.959302 0.915003 0.499784 0.11455
H_ H_ 0.918049 0.946536 0.0459746 0.11455
H_ H_ 0.906944 0.88511 0.0867164 0.11455
H_ H_ 0.828816 0.749086 0.0105682 0.11455
H_ H_ 0.803963 0.699163 0.0520682 0.11455
H_ H_ 0.818843 0.735619 0.101343 0.11455
C_ C_ 0.731074 0.682954 0.402191 0.68181
C_ C_ 0.784961 0.683106 0.397275 -0.05681
C_ C_ 0.815622 0.692056 0.421013 -0.08735
C_ C_ 0.869856 0.687206 0.418013 -0.05681
C_ C_ 0.89296 0.67514 0.39107 -0.05681
C_ C_ 0.861936 0.662814 0.369295 -0.08735
C_ C_ 0.808836 0.662147 0.371749 -0.08735
C_ C_ 0.902589 0.696324 0.442415 -0.08735
C_ C_ 0.954469 0.700643 0.437817 -0.08735
C_ C_ 0.977805 0.690398 0.410968 -0.05681
C_ C_ 0.94578 0.678367 0.387863 -0.08735
C_ C_ 0.627921 0.778996 0.407777 0.68181
C_ C_ 0.643104 0.581375 0.397711 0.68181
C_ C_ 0.640288 0.525962 0.396012 -0.05681
C_ C_ 0.629808 0.993648 0.418559 -0.08735
C_ C_ 0.628854 0.940405 0.416304 -0.05681
C_ C_ 0.632834 0.919047 0.388221 -0.05681
C_ C_ 0.628119 0.94946 0.363464 -0.08735
C_ C_ 0.625935 1.00260199 0.366135 -0.08735
C_ C_ 0.628849 0.907998 0.441041 -0.08735
C_ C_ 0.627657 0.85572 0.437574 -0.08735
C_ C_ 0.626461 0.83411 0.410274 -0.05681
C_ C_ 0.627257 0.864692 0.385741 -0.08735
C_ C_ 0.534079 0.673649 0.402065 0.68181
C_ C_ 0.604499 0.620692 0.479121 0.1947
C_ C_ 0.589084 0.609602 0.00674688 -0.08735
C_ C_ 0.609036 0.636183 0.030366 -0.08735
C_ C_ 0.636855 0.678717 0.026175 -0.05681
C_ C_ 0.645959 0.696419 0.997423 0.18498
C_ C_ 0.684723 0.735301 0.49017 -0.08735
C_ C_ 0.678733 0.774871 0.0154055 -0.08735
C_ C_ 0.665973 0.759606 0.043604 -0.08735
C_ C_ 0.644379 0.711931 0.0498545 0.18498
C_ C_ 0.682338 0.68395 0.0941867 0.44287
C_ C_ 0.595013 0.696813 0.0927635 0.44287
C_ C_ 0.589265 0.68464 0.121998 -0.05681
C_ C_ 0.539795 0.682086 0.135311 -0.08735
C_ C_ 0.535192 0.682478 0.165693 -0.08735
C_ C_ 0.580684 0.674724 0.182536 -0.05681
C_ C_ 0.628026 0.675608 0.169402 -0.05681
C_ C_ 0.633025 0.679501 0.139078 -0.05681
C_ C_ 0.679453 0.676986 0.124469 -0.05681
C_ C_ 0.722143 0.664869 0.141467 -0.08735
C_ C_ 0.717063 0.657062 0.171355 -0.08735
C_ C_ 0.670611 0.66112 0.185172 -0.05681
C_ C_ 0.664829 0.649942 0.215484 0.44287
C_ C_ 0.577551 0.668427 0.212198 0.44287
C_ C_ 0.611681 0.642045 0.257912 0.18498
C_ C_ 0.586554 0.596596 0.26612 -0.08735
C_ C_ 0.573164 0.588165 0.294859 -0.08735
C_ C_ 0.582734 0.624638 0.315973 -0.08735
C_ C_ 0.614229 0.664663 0.30927 0.18498
C_ C_ 0.621308 0.678735 0.279774 -0.05681
C_ C_ 0.648481 0.723749 0.27478 -0.08735
C_ C_ 0.669321 0.752218 0.297034 -0.08735
C_ C_ 0.664712 0.734733 0.325394 0.1947
C_ C_ 0.766828 0.814254 0.157101 0.68181
C_ C_ 0.710997 0.812045 0.152988 -0.05681
C_ C_ 0.679386 0.822612 0.176369 -0.08735
C_ C_ 0.626049 0.822254 0.172139 -0.05681
C_ C_ 0.604827 0.815042 0.144688 -0.05681
C_ C_ 0.636804 0.805751 0.121227 -0.08735
C_ C_ 0.688888 0.805243 0.125856 -0.08735
C_ C_ 0.591294 0.821432 0.195692 -0.08735
C_ C_ 0.539172 0.819711 0.190807 -0.08735
C_ C_ 0.51949 0.816305 0.162906 -0.05681
C_ C_ 0.553211 0.812213 0.139988 -0.08735
C_ C_ 0.865823 0.711183 0.16561 0.68181
C_ C_ 0.852638 0.90984 0.155078 0.68181
C_ C_ 0.850406 0.965356 0.150919 -0.05681
C_ C_ 0.848626 0.497562 0.174792 -0.08735
C_ C_ 0.851657 0.550678 0.17186 -0.05681
C_ C_ 0.866669 0.572551 0.145521 -0.05681
C_ C_ 0.872401 0.540348 0.121454 -0.08735
C_ C_ 0.864009 0.987135 0.124124 -0.08735
C_ C_ 0.844913 0.581488 0.196139 -0.08735
C_ C_ 0.847605 0.633163 0.192654 -0.08735
C_ C_ 0.864956 0.65502 0.167417 -0.05681
C_ C_ 0.86974 0.626126 0.143563 -0.08735
C_ C_ 0.959899 0.814715 0.163158 0.68181
C_ C_ 0.893439 0.865678 0.23579 0.1947
C_ C_ 0.898191 0.88728 0.262862 -0.08735
C_ C_ 0.871209 0.864945 0.285773 -0.08735
C_ C_ 0.841311 0.822467 0.281476 -0.05681
C_ C_ 0.838097 0.801455 0.253392 0.18498
C_ C_ 0.803282 0.762962 0.247316 -0.08735
C_ C_ 0.778349 0.73938 0.270101 -0.08735
C_ C_ 0.793813 0.750019 0.297876 -0.08735
C_ C_ 0.824774 0.791847 0.303722 0.18498
C_ C_ 0.797404 0.821539 0.350625 0.44287
C_ C_ 0.883396 0.795429 0.344551 0.44287
C_ C_ 0.894783 0.807197 0.372974 -0.05681
C_ C_ 0.945787 0.804633 0.383777 -0.08735
C_ C_ 0.957983 0.821637 0.411615 -0.08735
C_ C_ 0.918503 0.837263 0.430219 -0.05681
C_ C_ 0.867832 0.836234 0.420135 -0.05681
C_ C_ 0.85772 0.828832 0.390798 -0.05681
C_ C_ 0.806335 0.830462 0.38141 -0.05681
C_ C_ 0.769773 0.849626 0.399888 -0.08735
C_ C_ 0.779483 0.853244 0.429226 -0.08735
C_ C_ 0.829618 0.851873 0.43845 -0.05681
C_ C_ 0.84138 0.858407 0.468144 0.44287
C_ C_ 0.929439 0.842329 0.460146 0.44287
C_ C_ 0.87256 0.840349 0.0096185 0.18498
C_ C_ 0.89262 0.889599 0.0143013 -0.08735
C_ C_ 0.902321 0.908545 0.0416472 -0.08735
C_ C_ 0.891936 0.875551 0.0655696 -0.08735
C_ C_ 0.872763 0.827391 0.0618878 0.18498
C_ C_ 0.860545 0.809646 0.0331556 -0.05681
C_ C_ 0.838154 0.763243 0.0304487 -0.08735
C_ C_ 0.825722 0.734682 0.0552772 -0.08735
C_ C_ 0.833671 0.756257 0.0822954 0.1947
N_ N_ 0.632786 0.663235 0.473617 -0.29468
N_ N_ 0.64007 0.695994 0.0794407 -0.17154
N_ N_ 0.619612 0.652512 0.227791 -0.17154
N_ N_ 0.634892 0.693088 0.330617 -0.29468
N_ N_ 0.861899 0.825579 0.231197 -0.29468
N_ N_ 0.834253 0.802386 0.334022 -0.17154
N_ N_ 0.889308 0.846648 0.478743 -0.17154
N_ N_ 0.86391 0.798529 0.0854052 -0.29468
O_ O_ 0.711168 0.676148 0.426532 -0.58347
O_ O_ 0.702996 0.688287 0.380561 -0.58347
O_ O_ 0.637066 0.752299 0.43029 -0.58347
O_ O_ 0.615955 0.758247 0.384323 -0.58347
O_ O_ 0.646498 0.602365 0.421042 -0.58347
O_ O_ 0.642687 0.60945 0.375041 -0.58347
O_ O_ 0.562812 0.673568 0.423891 -0.58347
O_ O_ 0.551319 0.67537 0.377217 -0.58347
O_ O_ 0.553796 0.701078 0.0769715 -0.46727
O_ O_ 0.726432 0.684928 0.0816008 -0.46727
O_ O_ 0.532275 0.675235 0.22516 -0.46727
O_ O_ 0.704812 0.639933 0.231507 -0.46727
O_ O_ 0.784411 0.806075 0.182029 -0.58347
O_ O_ 0.794976 0.814632 0.134244 -0.58347
O_ O_ 0.864687 0.735782 0.188575 -0.58347
O_ O_ 0.864805 0.732779 0.142162 -0.58347
O_ O_ 0.8528 0.890985 0.180128 -0.58347
O_ O_ 0.865683 0.880724 0.134108 -0.58347
O_ O_ 0.933837 0.825603 0.184931 -0.58347
O_ O_ 0.940752 0.802191 0.1394 -0.58347
O_ O_ 0.919847 0.784301 0.326425 -0.46727
O_ O_ 0.756389 0.835246 0.338333 -0.46727
O_ O_ 0.975111 0.831739 0.469444 -0.46727
O_ O_ 0.808444 0.878962 0.485083 -0.46727
Zn Zn 0.622622 0.691223 0.877272 0.90689
Zn Zn 0.628464 0.688674 0.925284 0.90689
Zn Zn 0.871025 0.821561 0.631034 0.90689
Zn Zn 0.859718 0.826904 0.676835 0.90689
H_ H_ 0.799474 0.70008 0.939657 0.11455
H_ H_ 0.861655 0.667248 0.842398 0.11455
H_ H_ 0.770635 0.671944 0.852328 0.11455
H_ H_ 0.883899 0.699742 0.959192 0.11455
H_ H_ 0.978865 0.688546 0.952485 0.11455
H_ H_ 0.950552 0.675947 0.860891 0.11455
H_ H_ 0.63544 0.521048 0.941604 0.11455
H_ H_ 0.643292 0.944352 0.840874 0.11455
H_ H_ 0.626527 0.531325 0.848499 0.11455
H_ H_ 0.591701 0.932771 0.956038 0.11455
H_ H_ 0.583637 0.843502 0.950146 0.11455
H_ H_ 0.63647 0.86141 0.861971 0.11455
H_ H_ 0.58048 0.605693 0.961617 0.11455
H_ H_ 0.559937 0.584096 0.511644 0.11455
H_ H_ 0.601644 0.627138 0.551089 0.11455
H_ H_ 0.682371 0.75603 0.9725 0.11455
H_ H_ 0.716633 0.802613 0.508417 0.11455
H_ H_ 0.714515 0.77323 0.557992 0.11455
H_ H_ 0.516866 0.709664 0.617237 0.11455
H_ H_ 0.503395 0.699924 0.667812 0.11455
H_ H_ 0.767 0.661192 0.637535 0.11455
H_ H_ 0.755955 0.663448 0.690135 0.11455
H_ H_ 0.575916 0.58488 0.743776 0.11455
H_ H_ 0.561757 0.559245 0.794622 0.11455
H_ H_ 0.572349 0.618054 0.834697 0.11455
H_ H_ 0.646212 0.7543 0.751499 0.11455
H_ H_ 0.680023 0.801409 0.794082 0.11455
H_ H_ 0.6815 0.759059 0.840717 0.11455
H_ H_ 0.69324 0.821648 0.6932 0.11455
H_ H_ 0.623945 0.849801 0.595312 0.11455
H_ H_ 0.715833 0.840117 0.599698 0.11455
H_ H_ 0.608538 0.797172 0.708663 0.11455
H_ H_ 0.516483 0.79858 0.699771 0.11455
H_ H_ 0.53929 0.83755 0.613024 0.11455
H_ H_ 0.832971 0.9935 0.690723 0.11455
H_ H_ 0.886711 0.568998 0.594399 0.11455
H_ H_ 0.869635 0.982026 0.599003 0.11455
H_ H_ 0.895243 0.571466 0.712343 0.11455
H_ H_ 0.879475 0.667225 0.706694 0.11455
H_ H_ 0.89724 0.653517 0.615872 0.11455
H_ H_ 0.915016 0.89353 0.71385 0.11455
H_ H_ 0.940961 0.911036 0.764165 0.11455
H_ H_ 0.895729 0.867854 0.80501 0.11455
H_ H_ 0.800084 0.75396 0.721764 0.11455
H_ H_ 0.778719 0.696912 0.759768 0.11455
H_ H_ 0.791223 0.720616 0.808638 0.11455
H_ H_ 0.972733 0.805129 0.872169 0.11455
H_ H_ 0.982902 0.798465 0.924531 0.11455
H_ H_ 0.724571 0.844377 0.885671 0.11455
H_ H_ 0.734106 0.843547 0.938632 0.11455
H_ H_ 0.902083 0.911788 0.995127 0.11455
H_ H_ 0.981097 0.928814 0.550993 0.11455
H_ H_ 0.933129 0.887781 0.588957 0.11455
H_ H_ 0.84287 0.771166 0.503841 0.11455
H_ H_ 0.815479 0.716966 0.544906 0.11455
H_ H_ 0.815642 0.75493 0.594436 0.11455
C_ C_ 0.724209 0.689278 0.900176 0.68181
C_ C_ 0.781466 0.681145 0.896482 -0.05681
C_ C_ 0.815972 0.687478 0.918954 -0.08735
C_ C_ 0.867389 0.688597 0.91366 -0.05681
C_ C_ 0.885176 0.680996 0.886063 -0.05681
C_ C_ 0.850012 0.672985 0.863415 -0.08735
C_ C_ 0.799712 0.672926 0.869273 -0.08735
C_ C_ 0.900768 0.693088 0.937556 -0.08735
C_ C_ 0.952474 0.68617 0.934327 -0.08735
C_ C_ 0.970661 0.675403 0.906447 -0.05681
C_ C_ 0.936884 0.674645 0.881968 -0.08735
C_ C_ 0.616512 0.78899 0.904147 0.68181
C_ C_ 0.632534 0.590579 0.896335 0.68181
C_ C_ 0.627132 0.534476 0.896096 -0.05681
C_ C_ 0.624321 0.000847855 0.918636 -0.08735
C_ C_ 0.618187 0.947852 0.91364 -0.05681
C_ C_ 0.626003 0.927711 0.885792 -0.05681
C_ C_ 0.635076 0.959515 0.86191 -0.08735
C_ C_ 0.643956 0.0119065 0.868082 -0.08735
C_ C_ 0.606444 0.916203 0.936095 -0.08735
C_ C_ 0.596072 0.865492 0.93193 -0.08735
C_ C_ 0.612089 0.844555 0.905925 -0.05681
C_ C_ 0.622695 0.875499 0.881699 -0.08735
C_ C_ 0.525074 0.681718 0.905714 0.68181
C_ C_ 0.600355 0.625567 0.978834 0.1947
C_ C_ 0.592732 0.607636 0.507115 -0.08735
C_ C_ 0.615334 0.633892 0.530469 -0.08735
C_ C_ 0.645087 0.677442 0.525419 -0.05681
C_ C_ 0.65441 0.691493 0.495712 0.18498
C_ C_ 0.670504 0.741977 0.992481 -0.08735
C_ C_ 0.70069 0.765791 0.513039 -0.08735
C_ C_ 0.695087 0.75157 0.541629 -0.08735
C_ C_ 0.666484 0.706567 0.548556 0.18498
C_ C_ 0.697295 0.685972 0.596379 0.44287
C_ C_ 0.60889 0.697696 0.590154 0.44287
C_ C_ 0.599816 0.692286 0.619947 -0.05681
C_ C_ 0.550564 0.695291 0.631051 -0.08735
C_ C_ 0.542539 0.696243 0.660219 -0.08735
C_ C_ 0.583766 0.689761 0.680045 -0.05681
C_ C_ 0.632677 0.683186 0.668536 -0.05681
C_ C_ 0.640478 0.687171 0.638117 -0.05681
C_ C_ 0.689687 0.683297 0.627226 -0.05681
C_ C_ 0.729807 0.66461 0.646096 -0.08735
C_ C_ 0.723422 0.666848 0.675878 -0.08735
C_ C_ 0.673853 0.674001 0.68708 -0.05681
C_ C_ 0.662518 0.665602 0.716101 0.44287
C_ C_ 0.577085 0.685488 0.710216 0.44287
C_ C_ 0.607477 0.656741 0.755612 0.18498
C_ C_ 0.584129 0.610452 0.761584 -0.08735
C_ C_ 0.577442 0.594444 0.789797 -0.08735
C_ C_ 0.586516 0.628462 0.813074 -0.08735
C_ C_ 0.607784 0.674816 0.807162 0.18498
C_ C_ 0.618069 0.691155 0.778209 -0.05681
C_ C_ 0.642911 0.737547 0.773892 -0.08735
C_ C_ 0.660653 0.765106 0.796814 -0.08735
C_ C_ 0.65811 0.745155 0.824513 0.1947
C_ C_ 0.769939 0.830604 0.651634 0.68181
C_ C_ 0.713678 0.833656 0.647713 -0.05681
C_ C_ 0.680067 0.827001 0.671446 -0.08735
C_ C_ 0.626658 0.823132 0.665944 -0.05681
C_ C_ 0.608946 0.830266 0.638407 -0.05681
C_ C_ 0.640865 0.837833 0.615749 -0.08735
C_ C_ 0.693065 0.837553 0.619379 -0.08735
C_ C_ 0.59236 0.81345 0.688752 -0.08735
C_ C_ 0.539508 0.814856 0.684446 -0.08735
C_ C_ 0.520875 0.821422 0.65617 -0.05681
C_ C_ 0.554839 0.831202 0.634241 -0.08735
C_ C_ 0.87635 0.723411 0.65943 0.68181
C_ C_ 0.856178 0.921129 0.648035 0.68181
C_ C_ 0.857207 0.978191 0.645535 -0.05681
C_ C_ 0.891079 0.507466 0.670032 -0.08735
C_ C_ 0.891288 0.561572 0.667496 -0.05681
C_ C_ 0.893874 0.582922 0.639937 -0.05681
C_ C_ 0.891101 0.550291 0.615913 -0.08735
C_ C_ 0.873336 1.00241627 0.620565 -0.08735
C_ C_ 0.891669 0.590502 0.691899 -0.08735
C_ C_ 0.880044 0.642611 0.688507 -0.08735
C_ C_ 0.881201 0.666891 0.661662 -0.05681
C_ C_ 0.887559 0.636544 0.635958 -0.08735
C_ C_ 0.966118 0.824503 0.654987 0.68181
C_ C_ 0.896151 0.87162 0.731828 0.1947
C_ C_ 0.911205 0.883864 0.761133 -0.08735
C_ C_ 0.886386 0.857649 0.783297 -0.08735
C_ C_ 0.849489 0.822496 0.777947 -0.05681
C_ C_ 0.839699 0.807031 0.747934 0.18498
C_ C_ 0.809047 0.764995 0.742285 -0.08735
C_ C_ 0.788972 0.737484 0.764094 -0.08735
C_ C_ 0.800449 0.749053 0.793003 -0.08735
C_ C_ 0.829284 0.792802 0.800688 0.18498
C_ C_ 0.796134 0.816306 0.847115 0.44287
C_ C_ 0.884243 0.796014 0.843709 0.44287
C_ C_ 0.892107 0.805874 0.872912 -0.05681
C_ C_ 0.940456 0.811892 0.885415 -0.08735
C_ C_ 0.946355 0.810342 0.915727 -0.08735
C_ C_ 0.902292 0.812259 0.933322 -0.05681
C_ C_ 0.852818 0.81631 0.920544 -0.05681
C_ C_ 0.847943 0.810535 0.890576 -0.05681
C_ C_ 0.799682 0.8173 0.877488 -0.05681
C_ C_ 0.758289 0.830401 0.895165 -0.08735
C_ C_ 0.763976 0.828044 0.926003 -0.08735
C_ C_ 0.810592 0.820668 0.93881 -0.05681
C_ C_ 0.818278 0.825015 0.968788 0.44287
C_ C_ 0.907453 0.817538 0.963671 0.44287
C_ C_ 0.900788 0.857673 0.509141 0.18498
C_ C_ 0.938015 0.894869 0.516442 -0.08735
C_ C_ 0.949437 0.903295 0.545614 -0.08735
C_ C_ 0.922387 0.878736 0.567633 -0.08735
C_ C_ 0.887118 0.840149 0.56097 0.18498
C_ C_ 0.877419 0.827622 0.531168 -0.05681
C_ C_ 0.849767 0.783591 0.52619 -0.08735
C_ C_ 0.83292 0.752391 0.549229 -0.08735
C_ C_ 0.832969 0.773143 0.576476 0.1947
N_ N_ 0.626097 0.6697 0.974746 -0.29468
N_ N_ 0.657279 0.694031 0.5782 -0.17154
N_ N_ 0.616677 0.669855 0.726839 -0.17154
N_ N_ 0.6305 0.701424 0.82938 -0.29468
N_ N_ 0.862294 0.834506 0.726257 -0.29468
N_ N_ 0.837253 0.803535 0.831219 -0.17154
N_ N_ 0.865748 0.825782 0.981079 -0.17154
N_ N_ 0.865564 0.812519 0.582055 -0.29468
O_ O_ 0.704747 0.684933 0.924212 -0.58347
O_ O_ 0.695971 0.695107 0.87764 -0.58347
O_ O_ 0.624603 0.763749 0.927187 -0.58347
O_ O_ 0.610114 0.766181 0.880409 -0.58347
O_ O_ 0.635142 0.613996 0.920005 -0.58347
O_ O_ 0.637313 0.615859 0.873029 -0.58347
O_ O_ 0.55306 0.681838 0.927132 -0.58347
O_ O_ 0.545456 0.683513 0.880618 -0.58347
O_ O_ 0.569957 0.704091 0.573649 -0.46727
O_ O_ 0.740761 0.671256 0.584741 -0.46727
O_ O_ 0.533805 0.69799 0.722093 -0.46727
O_ O_ 0.699995 0.661051 0.734999 -0.46727
O_ O_ 0.787282 0.830496 0.676696 -0.58347
O_ O_ 0.79925 0.823223 0.63049 -0.58347
O_ O_ 0.864185 0.748307 0.681314 -0.58347
O_ O_ 0.880976 0.746189 0.635511 -0.58347
O_ O_ 0.865967 0.903184 0.672628 -0.58347
O_ O_ 0.859875 0.89414 0.626115 -0.58347
O_ O_ 0.936366 0.826941 0.675842 -0.58347
O_ O_ 0.947899 0.821017 0.630086 -0.58347
O_ O_ 0.922191 0.777872 0.827351 -0.46727
O_ O_ 0.758495 0.834568 0.834195 -0.46727
O_ O_ 0.953338 0.820589 0.976196 -0.46727
O_ O_ 0.778035 0.830049 0.985986 -0.46727
