_cell_length_a 26.376
_cell_length_b 26.400000238300095
_cell_length_c 46.67800035477134
_cell_angle_alpha 90.00700052986613
_cell_angle_beta 89.99899961309502
_cell_angle_gamma 90.45000003183146
_symmetry_space_group_name_H-M         'P 1'
_symmetry_Int_Tables_number            1
loop_
_symmetry_equiv_pos_as_xyz
   'x, y, z'
                         
loop_
_atom_site_label
_atom_site_type_symbol
_atom_site_fract_x 
_atom_site_fract_y
_atom_site_fract_z
_atom_site_charge
Zn Zn 0.123958 0.18462 0.381792 0.90689
Zn Zn 0.131932 0.172488 0.430086 0.90689
Zn Zn 0.370738 0.320592 0.132572 0.90689
Zn Zn 0.363764 0.320499 0.179437 0.90689
H_ H_ 0.299024 0.211034 0.441029 0.11455
H_ H_ 0.367607 0.146963 0.347767 0.11455
H_ H_ 0.278603 0.15017 0.357038 0.11455
H_ H_ 0.383151 0.2032 0.460554 0.11455
H_ H_ 0.478507 0.194825 0.455283 0.11455
H_ H_ 0.454615 0.152887 0.366104 0.11455
H_ H_ 0.0889077 0.0115852 0.440565 0.11455
H_ H_ 0.0849446 0.433435 0.351541 0.11455
H_ H_ 0.152934 0.0215833 0.357874 0.11455
H_ H_ 0.147494 0.426333 0.464148 0.11455
H_ H_ 0.137895 0.334061 0.461273 0.11455
H_ H_ 0.0845917 0.349116 0.374203 0.11455
H_ H_ 0.0794778 0.102955 0.467821 0.11455
H_ H_ 0.096364 0.0627706 0.0102667 0.11455
H_ H_ 0.135547 0.108176 0.0537275 0.11455
H_ H_ 0.191636 0.245271 0.47211 0.11455
H_ H_ 0.214998 0.299394 0.01049 0.11455
H_ H_ 0.191701 0.28285 0.0585898 0.11455
H_ H_ 0.0103833 0.2116 0.121132 0.11455
H_ H_ -0.0044239999999999835 0.190363 0.171671 0.11455
H_ H_ 0.259528 0.170577 0.137363 0.11455
H_ H_ 0.247808 0.167672 0.1888 0.11455
H_ H_ 0.0610462 0.089722 0.249669 0.11455
H_ H_ 0.0490459 0.0651419 0.300844 0.11455
H_ H_ 0.0708974 0.125721 0.337754 0.11455
H_ H_ 0.152838 0.247563 0.256555 0.11455
H_ H_ 0.190638 0.29306 0.298164 0.11455
H_ H_ 0.187233 0.25666 0.345527 0.11455
H_ H_ 0.191904 0.292643 0.193696 0.11455
H_ H_ 0.12272 0.355125 0.10157 0.11455
H_ H_ 0.213945 0.358419 0.108266 0.11455
H_ H_ 0.110323 0.303403 0.216273 0.11455
H_ H_ 0.0191945 0.30221 0.209001 0.11455
H_ H_ 0.0386829 0.336294 0.118973 0.11455
H_ H_ 0.380146 0.48659 0.190861 0.11455
H_ H_ 0.348622 0.0672505 0.0987849 0.11455
H_ H_ 0.338925 0.482057 0.103014 0.11455
H_ H_ 0.400927 0.0748886 0.21323 0.11455
H_ H_ 0.382621 0.164043 0.211119 0.11455
H_ H_ 0.360807 0.153226 0.120507 0.11455
H_ H_ 0.410628 0.394036 0.214599 0.11455
H_ H_ 0.42531 0.422693 0.263078 0.11455
H_ H_ 0.391047 0.376167 0.305477 0.11455
H_ H_ 0.304519 0.249937 0.22139 0.11455
H_ H_ 0.276023 0.196825 0.261543 0.11455
H_ H_ 0.283331 0.230899 0.310989 0.11455
H_ H_ 0.483274 0.326935 0.368725 0.11455
H_ H_ 0.491796 0.328599 0.42267 0.11455
H_ H_ 0.227278 0.322144 0.387821 0.11455
H_ H_ 0.240449 0.331892 0.439796 0.11455
H_ H_ 0.41227 0.421691 0.498763 0.11455
H_ H_ 0.446595 0.434066 0.0497996 0.11455
H_ H_ 0.430126 0.377044 0.0859703 0.11455
H_ H_ 0.324995 0.25548 0.00875139 0.11455
H_ H_ 0.297936 0.208374 0.0523669 0.11455
H_ H_ 0.314938 0.239871 0.0999603 0.11455
C_ C_ 0.227163 0.176876 0.404922 0.68181
C_ C_ 0.281837 0.180174 0.400483 -0.05681
C_ C_ 0.314942 0.193597 0.422179 -0.08735
C_ C_ 0.367103 0.190704 0.417512 -0.05681
C_ C_ 0.38626 0.174294 0.391174 -0.05681
C_ C_ 0.353696 0.160775 0.368501 -0.08735
C_ C_ 0.303378 0.162986 0.373661 -0.08735
C_ C_ 0.399604 0.194227 0.440279 -0.08735
C_ C_ 0.451632 0.189628 0.437487 -0.08735
C_ C_ 0.472964 0.181294 0.41 -0.05681
C_ C_ 0.440847 0.168431 0.386518 -0.08735
C_ C_ 0.119921 0.278424 0.411019 0.68181
C_ C_ 0.1224 0.0791523 0.400551 0.68181
C_ C_ 0.116849 0.0236443 0.398074 -0.05681
C_ C_ 0.133334 0.493111 0.421869 -0.08735
C_ C_ 0.128026 0.440531 0.420482 -0.05681
C_ C_ 0.110429 0.41781 0.394129 -0.05681
C_ C_ 0.0994918 0.449456 0.371253 -0.08735
C_ C_ 0.111227 0.501495 0.372447 -0.08735
C_ C_ 0.135876 0.408853 0.444981 -0.08735
C_ C_ 0.128459 0.357329 0.442934 -0.08735
C_ C_ 0.115388 0.335346 0.416217 -0.05681
C_ C_ 0.100764 0.366543 0.393555 -0.08735
C_ C_ 0.0286642 0.178437 0.401778 0.68181
C_ C_ 0.0923327 0.129291 0.484773 0.1947
C_ C_ 0.117875 0.0970212 0.00813989 -0.08735
C_ C_ 0.13721 0.121392 0.0318114 -0.08735
C_ C_ 0.156013 0.17078 0.0276993 -0.05681
C_ C_ 0.170227 0.184926 0.998659 0.18498
C_ C_ 0.180718 0.235237 0.493651 -0.08735
C_ C_ 0.201572 0.264524 0.0147662 -0.08735
C_ C_ 0.178679 0.257133 0.0419187 -0.08735
C_ C_ 0.157842 0.209103 0.0494133 0.18498
C_ C_ 0.185601 0.183813 0.0964114 0.44287
C_ C_ 0.0978289 0.199128 0.0893384 0.44287
C_ C_ 0.0900613 0.195913 0.12049 -0.05681
C_ C_ 0.0414479 0.1993 0.133709 -0.08735
C_ C_ 0.0354974 0.192737 0.163189 -0.08735
C_ C_ 0.0765112 0.18339 0.180678 -0.05681
C_ C_ 0.125194 0.183561 0.168519 -0.05681
C_ C_ 0.13029 0.187361 0.138744 -0.05681
C_ C_ 0.178506 0.182666 0.127083 -0.05681
C_ C_ 0.219531 0.169246 0.145164 -0.08735
C_ C_ 0.213942 0.170407 0.174663 -0.08735
C_ C_ 0.165755 0.177704 0.186151 -0.05681
C_ C_ 0.159061 0.172501 0.216538 0.44287
C_ C_ 0.0701247 0.181491 0.210992 0.44287
C_ C_ 0.101725 0.161625 0.258901 0.18498
C_ C_ 0.0746774 0.117174 0.266209 -0.08735
C_ C_ 0.0692704 0.102618 0.295095 -0.08735
C_ C_ 0.0759381 0.138363 0.316535 -0.08735
C_ C_ 0.108293 0.176341 0.311303 0.18498
C_ C_ 0.120449 0.189555 0.282272 -0.05681
C_ C_ 0.14516 0.235619 0.277812 -0.08735
C_ C_ 0.1711 0.259644 0.300259 -0.08735
C_ C_ 0.162898 0.241695 0.328671 0.1947
C_ C_ 0.267285 0.314943 0.153807 0.68181
C_ C_ 0.211843 0.317503 0.149869 -0.05681
C_ C_ 0.177024 0.305108 0.172914 -0.08735
C_ C_ 0.124209 0.31228 0.170148 -0.05681
C_ C_ 0.105178 0.327173 0.143261 -0.05681
C_ C_ 0.137326 0.337018 0.120986 -0.08735
C_ C_ 0.190681 0.338618 0.125696 -0.08735
C_ C_ 0.0933917 0.308864 0.19537 -0.08735
C_ C_ 0.0415482 0.312145 0.190374 -0.08735
C_ C_ 0.0201126 0.317417 0.16231 -0.05681
C_ C_ 0.0534193 0.327131 0.139841 -0.08735
C_ C_ 0.371186 0.222788 0.163047 0.68181
C_ C_ 0.363818 0.42236 0.148866 0.68181
C_ C_ 0.361521 0.478209 0.148046 -0.05681
C_ C_ 0.38046 0.00697538 0.173647 -0.08735
C_ C_ 0.372922 0.0583755 0.171339 -0.05681
C_ C_ 0.361113 0.0820607 0.144348 -0.05681
C_ C_ 0.356131 0.0498067 0.119887 -0.08735
C_ C_ 0.351569 0.503976 0.122242 -0.08735
C_ C_ 0.385896 0.0906256 0.193036 -0.08735
C_ C_ 0.377388 0.142835 0.191703 -0.08735
C_ C_ 0.368831 0.166418 0.165517 -0.05681
C_ C_ 0.3631 0.136144 0.141792 -0.08735
C_ C_ 0.464696 0.327746 0.155859 0.68181
C_ C_ 0.392375 0.373091 0.231865 0.1947
C_ C_ 0.397783 0.392789 0.260425 -0.08735
C_ C_ 0.382412 0.362901 0.283405 -0.08735
C_ C_ 0.355522 0.317425 0.278838 -0.05681
C_ C_ 0.346778 0.302163 0.249057 0.18498
C_ C_ 0.315842 0.259846 0.243896 -0.08735
C_ C_ 0.295389 0.232753 0.266204 -0.08735
C_ C_ 0.304288 0.246901 0.294333 -0.08735
C_ C_ 0.338111 0.287803 0.302123 0.18498
C_ C_ 0.3035 0.316606 0.347659 0.44287
C_ C_ 0.39114 0.30276 0.343275 0.44287
C_ C_ 0.400994 0.318386 0.371724 -0.05681
C_ C_ 0.449634 0.322579 0.38309 -0.08735
C_ C_ 0.456723 0.323659 0.413256 -0.08735
C_ C_ 0.413822 0.324496 0.431736 -0.05681
C_ C_ 0.364669 0.324042 0.419516 -0.05681
C_ C_ 0.357765 0.323299 0.389935 -0.05681
C_ C_ 0.308413 0.322662 0.377775 -0.05681
C_ C_ 0.266031 0.324665 0.396006 -0.08735
C_ C_ 0.273408 0.328704 0.426016 -0.08735
C_ C_ 0.321638 0.329928 0.437941 -0.05681
C_ C_ 0.330713 0.332461 0.468563 0.44287
C_ C_ 0.420328 0.326707 0.461591 0.44287
C_ C_ 0.385273 0.345016 0.00958397 0.18498
C_ C_ 0.404021 0.393978 0.0169372 -0.08735
C_ C_ 0.426337 0.399151 0.0443276 -0.08735
C_ C_ 0.415668 0.365175 0.0663745 -0.08735
C_ C_ 0.386232 0.322206 0.0610823 0.18498
C_ C_ 0.370336 0.311423 0.03299 -0.05681
C_ C_ 0.337435 0.270496 0.0297785 -0.08735
C_ C_ 0.314613 0.246514 0.0549993 -0.08735
C_ C_ 0.328484 0.262292 0.0819336 0.1947
N_ N_ 0.120188 0.169782 0.477312 -0.29468
N_ N_ 0.146519 0.197928 0.078866 -0.17154
N_ N_ 0.11184 0.173072 0.228366 -0.17154
N_ N_ 0.134107 0.200035 0.333517 -0.29468
N_ N_ 0.365408 0.330022 0.226335 -0.29468
N_ N_ 0.343357 0.303137 0.331765 -0.17154
N_ N_ 0.379057 0.332342 0.479031 -0.17154
N_ N_ 0.365784 0.298255 0.0836565 -0.29468
O_ O_ 0.208881 0.174753 0.430274 -0.58347
O_ O_ 0.198129 0.184839 0.383546 -0.58347
O_ O_ 0.122798 0.250817 0.432297 -0.58347
O_ O_ 0.129447 0.261837 0.386691 -0.58347
O_ O_ 0.127894 0.0989894 0.425606 -0.58347
O_ O_ 0.124394 0.106655 0.378703 -0.58347
O_ O_ 0.0564615 0.169538 0.423531 -0.58347
O_ O_ 0.0481444 0.188506 0.378289 -0.58347
O_ O_ 0.0593243 0.209534 0.0723594 -0.46727
O_ O_ 0.232739 0.182307 0.0859191 -0.46727
O_ O_ 0.0256626 0.188307 0.222575 -0.46727
O_ O_ 0.19761 0.164097 0.233927 -0.46727
O_ O_ 0.287698 0.30319 0.177883 -0.58347
O_ O_ 0.295224 0.325753 0.131834 -0.58347
O_ O_ 0.379756 0.247944 0.184804 -0.58347
O_ O_ 0.366001 0.245848 0.139206 -0.58347
O_ O_ 0.349135 0.398367 0.170999 -0.58347
O_ O_ 0.374488 0.396463 0.126739 -0.58347
O_ O_ 0.434795 0.341203 0.175798 -0.58347
O_ O_ 0.444407 0.316587 0.132067 -0.58347
O_ O_ 0.431335 0.298163 0.3258 -0.46727
O_ O_ 0.258803 0.31816 0.336225 -0.46727
O_ O_ 0.460912 0.308528 0.4716 -0.46727
O_ O_ 0.292296 0.337999 0.486298 -0.46727
Zn Zn 0.139296 0.180782 0.88262 0.90689
Zn Zn 0.152122 0.175349 0.928398 0.90689
Zn Zn 0.38232 0.308153 0.631553 0.90689
Zn Zn 0.369861 0.307681 0.679707 0.90689
H_ H_ 0.31638 0.189994 0.944097 0.11455
H_ H_ 0.385255 0.151813 0.847129 0.11455
H_ H_ 0.295126 0.166699 0.854031 0.11455
H_ H_ 0.403935 0.186775 0.964871 0.11455
H_ H_ 0.494066 0.177482 0.956539 0.11455
H_ H_ 0.472464 0.168457 0.865522 0.11455
H_ H_ 0.153917 0.00821323 0.94211 0.11455
H_ H_ 0.138151 0.431028 0.844379 0.11455
H_ H_ 0.123775 0.0178298 0.850865 0.11455
H_ H_ 0.0917246 0.423141 0.958979 0.11455
H_ H_ 0.0908393 0.326217 0.953555 0.11455
H_ H_ 0.139341 0.344973 0.865668 0.11455
H_ H_ 0.110368 0.0976536 0.962844 0.11455
H_ H_ 0.0602507 0.0825903 0.518332 0.11455
H_ H_ 0.0913697 0.133025 0.557814 0.11455
H_ H_ 0.200557 0.244399 0.971554 0.11455
H_ H_ 0.208072 0.305066 0.507478 0.11455
H_ H_ 0.181181 0.293763 0.557758 0.11455
H_ H_ 0.00648143 0.194429 0.628757 0.11455
H_ H_ -0.0005990000000000162 0.188696 0.679976 0.11455
H_ H_ 0.25701 0.178434 0.635159 0.11455
H_ H_ 0.25593 0.178633 0.687933 0.11455
H_ H_ 0.0824098 0.0797608 0.750771 0.11455
H_ H_ 0.0601705 0.0565754 0.799673 0.11455
H_ H_ 0.0788155 0.115283 0.838349 0.11455
H_ H_ 0.16876 0.240845 0.758954 0.11455
H_ H_ 0.196415 0.290631 0.798373 0.11455
H_ H_ 0.195013 0.251646 0.84673 0.11455
H_ H_ 0.201951 0.304435 0.693323 0.11455
H_ H_ 0.135902 0.335284 0.596306 0.11455
H_ H_ 0.228998 0.330032 0.605366 0.11455
H_ H_ 0.116605 0.327703 0.712929 0.11455
H_ H_ 0.0245833 0.317544 0.703869 0.11455
H_ H_ 0.0533769 0.312528 0.613923 0.11455
H_ H_ 0.361002 0.476888 0.6925 0.11455
H_ H_ 0.366494 0.0601295 0.596664 0.11455
H_ H_ 0.389496 0.467679 0.602399 0.11455
H_ H_ 0.378346 0.0639479 0.71571 0.11455
H_ H_ 0.38789 0.158548 0.711225 0.11455
H_ H_ 0.369921 0.137895 0.61835 0.11455
H_ H_ 0.426871 0.380677 0.716687 0.11455
H_ H_ 0.423498 0.422553 0.761751 0.11455
H_ H_ 0.387748 0.376627 0.80353 0.11455
H_ H_ 0.319576 0.239191 0.723495 0.11455
H_ H_ 0.273813 0.1969 0.761572 0.11455
H_ H_ 0.290189 0.2202 0.812916 0.11455
H_ H_ 0.481086 0.287029 0.872431 0.11455
H_ H_ 0.494122 0.304374 0.923937 0.11455
H_ H_ 0.237031 0.352694 0.886631 0.11455
H_ H_ 0.243706 0.344468 0.937831 0.11455
H_ H_ 0.410735 0.420417 0.0011099999999999444 0.11455
H_ H_ 0.452472 0.434272 0.546935 0.11455
H_ H_ 0.445843 0.374062 0.584099 0.11455
H_ H_ 0.335919 0.257947 0.507027 0.11455
H_ H_ 0.298424 0.217826 0.54995 0.11455
H_ H_ 0.321188 0.243385 0.59842 0.11455
C_ C_ 0.243643 0.178536 0.905393 0.68181
C_ C_ 0.29791 0.179477 0.899781 -0.05681
C_ C_ 0.332941 0.186396 0.921794 -0.08735
C_ C_ 0.385357 0.180513 0.918334 -0.05681
C_ C_ 0.406456 0.169112 0.891244 -0.05681
C_ C_ 0.37149 0.16367 0.86751 -0.08735
C_ C_ 0.318131 0.17053 0.872709 -0.08735
C_ C_ 0.417053 0.17826 0.94274 -0.08735
C_ C_ 0.470016 0.171863 0.938841 -0.08735
C_ C_ 0.492883 0.168059 0.912004 -0.05681
C_ C_ 0.458273 0.166779 0.888099 -0.08735
C_ C_ 0.139357 0.277725 0.910221 0.68181
C_ C_ 0.14738 0.0788694 0.89926 0.68181
C_ C_ 0.138582 0.0225067 0.897517 -0.05681
C_ C_ 0.130468 0.488904 0.920503 -0.08735
C_ C_ 0.118238 0.437843 0.916328 -0.05681
C_ C_ 0.127391 0.414415 0.888489 -0.05681
C_ C_ 0.131511 0.44605 0.864098 -0.08735
C_ C_ 0.135028 0.499446 0.868242 -0.08735
C_ C_ 0.0996233 0.404554 0.938583 -0.08735
C_ C_ 0.104497 0.352773 0.936227 -0.08735
C_ C_ 0.123643 0.331297 0.910936 -0.05681
C_ C_ 0.128126 0.360378 0.886406 -0.08735
C_ C_ 0.0477901 0.186431 0.910458 0.68181
C_ C_ 0.126992 0.114916 0.980436 0.1947
C_ C_ 0.0816305 0.115784 0.513442 -0.08735
C_ C_ 0.0997933 0.145804 0.535407 -0.08735
C_ C_ 0.130202 0.186516 0.529442 -0.05681
C_ C_ 0.142919 0.196724 0.499821 0.18498
C_ C_ 0.192496 0.232516 0.9927 -0.08735
C_ C_ 0.194904 0.268011 0.515504 -0.08735
C_ C_ 0.17546 0.262497 0.543562 -0.08735
C_ C_ 0.147474 0.219182 0.552506 0.18498
C_ C_ 0.18147 0.195796 0.599415 0.44287
C_ C_ 0.0922228 0.206597 0.59571 0.44287
C_ C_ 0.0876906 0.200263 0.625308 -0.05681
C_ C_ 0.0416772 0.191711 0.640411 -0.08735
C_ C_ 0.0384611 0.192465 0.670172 -0.08735
C_ C_ 0.0814169 0.194194 0.686587 -0.05681
C_ C_ 0.128664 0.192534 0.672698 -0.05681
C_ C_ 0.131899 0.19495 0.642298 -0.05681
C_ C_ 0.177846 0.191874 0.628815 -0.05681
C_ C_ 0.221285 0.186075 0.645631 -0.08735
C_ C_ 0.218911 0.183282 0.675411 -0.08735
C_ C_ 0.172478 0.185549 0.689221 -0.05681
C_ C_ 0.166372 0.16819 0.718015 0.44287
C_ C_ 0.0789116 0.184109 0.716156 0.44287
C_ C_ 0.113932 0.153482 0.760847 0.18498
C_ C_ 0.0939041 0.105 0.766315 -0.08735
C_ C_ 0.0798513 0.0929375 0.795021 -0.08735
C_ C_ 0.0939378 0.123129 0.817765 -0.08735
C_ C_ 0.119871 0.168881 0.812702 0.18498
C_ C_ 0.13027 0.182791 0.784547 -0.05681
C_ C_ 0.158299 0.228381 0.77995 -0.08735
C_ C_ 0.177048 0.254205 0.803231 -0.08735
C_ C_ 0.172086 0.234274 0.830454 0.1947
C_ C_ 0.277052 0.310965 0.655797 0.68181
C_ C_ 0.223463 0.320765 0.650305 -0.05681
C_ C_ 0.188762 0.317153 0.673831 -0.08735
C_ C_ 0.136704 0.324543 0.668474 -0.05681
C_ C_ 0.117666 0.330056 0.640353 -0.05681
C_ C_ 0.15147 0.33332 0.617879 -0.08735
C_ C_ 0.204506 0.331104 0.622595 -0.08735
C_ C_ 0.102698 0.324783 0.691688 -0.08735
C_ C_ 0.0505207 0.318433 0.686282 -0.08735
C_ C_ 0.0312404 0.32488 0.658157 -0.05681
C_ C_ 0.066458 0.321673 0.635248 -0.08735
C_ C_ 0.376381 0.211572 0.661667 0.68181
C_ C_ 0.377774 0.409159 0.650364 0.68181
C_ C_ 0.377438 0.465676 0.647726 -0.05681
C_ C_ 0.366586 -0.0020320000000000338 0.671607 -0.08735
C_ C_ 0.375365 0.0496042 0.669425 -0.05681
C_ C_ 0.374632 0.0712561 0.642061 -0.05681
C_ C_ 0.370092 0.042096 0.616649 -0.08735
C_ C_ 0.385242 0.490519 0.621882 -0.08735
C_ C_ 0.379922 0.0797657 0.694864 -0.08735
C_ C_ 0.383788 0.13356 0.692011 -0.08735
C_ C_ 0.377905 0.157455 0.664782 -0.05681
C_ C_ 0.377109 0.1257 0.640315 -0.08735
C_ C_ 0.475739 0.306717 0.654796 0.68181
C_ C_ 0.402185 0.365987 0.732179 0.1947
C_ C_ 0.40582 0.387704 0.759065 -0.08735
C_ C_ 0.384825 0.360246 0.782009 -0.08735
C_ C_ 0.356701 0.315824 0.77819 -0.05681
C_ C_ 0.351744 0.297573 0.74961 0.18498
C_ C_ 0.322522 0.254136 0.744318 -0.08735
C_ C_ 0.29732 0.229979 0.766748 -0.08735
C_ C_ 0.30744 0.241133 0.795222 -0.08735
C_ C_ 0.335285 0.28625 0.801288 0.18498
C_ C_ 0.308503 0.323443 0.847307 0.44287
C_ C_ 0.392652 0.292872 0.843484 0.44287
C_ C_ 0.402507 0.30766 0.871819 -0.05681
C_ C_ 0.449101 0.298581 0.884535 -0.08735
C_ C_ 0.453806 0.300488 0.914619 -0.08735
C_ C_ 0.411779 0.308582 0.933487 -0.05681
C_ C_ 0.367047 0.321923 0.921218 -0.05681
C_ C_ 0.360406 0.318964 0.890831 -0.05681
C_ C_ 0.312514 0.330219 0.877156 -0.05681
C_ C_ 0.273561 0.341714 0.895146 -0.08735
C_ C_ 0.276694 0.339731 0.925324 -0.08735
C_ C_ 0.324075 0.331051 0.937588 -0.05681
C_ C_ 0.330223 0.341649 0.966581 0.44287
C_ C_ 0.417896 0.315079 0.962975 0.44287
C_ C_ 0.38959 0.344936 0.508821 0.18498
C_ C_ 0.408245 0.393905 0.51536 -0.08735
C_ C_ 0.425097 0.404335 0.543466 -0.08735
C_ C_ 0.419079 0.369572 0.565678 -0.08735
C_ C_ 0.390993 0.325707 0.562343 0.18498
C_ C_ 0.37935 0.311673 0.532798 -0.05681
C_ C_ 0.350136 0.268453 0.528577 -0.08735
C_ C_ 0.327651 0.244215 0.55293 -0.08735
C_ C_ 0.337154 0.262209 0.580539 0.1947
N_ N_ 0.155434 0.154157 0.975325 -0.29468
N_ N_ 0.138883 0.20787 0.582531 -0.17154
N_ N_ 0.119272 0.168969 0.730563 -0.17154
N_ N_ 0.139002 0.194382 0.835352 -0.29468
N_ N_ 0.372441 0.324325 0.727411 -0.29468
N_ N_ 0.34697 0.302947 0.831332 -0.17154
N_ N_ 0.376213 0.330509 0.979689 -0.17154
N_ N_ 0.374852 0.29746 0.584434 -0.29468
O_ O_ 0.228488 0.186561 0.9305 -0.58347
O_ O_ 0.21433 0.173471 0.884806 -0.58347
O_ O_ 0.14111 0.251725 0.933882 -0.58347
O_ O_ 0.146953 0.255326 0.887964 -0.58347
O_ O_ 0.163481 0.0985941 0.921793 -0.58347
O_ O_ 0.136528 0.107033 0.87858 -0.58347
O_ O_ 0.0746004 0.164271 0.927923 -0.58347
O_ O_ 0.0652045 0.192741 0.885189 -0.58347
O_ O_ 0.0512957 0.204649 0.580541 -0.46727
O_ O_ 0.226981 0.186181 0.586503 -0.46727
O_ O_ 0.0343096 0.184602 0.728925 -0.46727
O_ O_ 0.206137 0.153143 0.733443 -0.46727
O_ O_ 0.290604 0.299022 0.680562 -0.58347
O_ O_ 0.305476 0.307419 0.634236 -0.58347
O_ O_ 0.381949 0.239008 0.683748 -0.58347
O_ O_ 0.382805 0.229789 0.636849 -0.58347
O_ O_ 0.362791 0.386996 0.673377 -0.58347
O_ O_ 0.387118 0.381973 0.628538 -0.58347
O_ O_ 0.445331 0.309671 0.675997 -0.58347
O_ O_ 0.458297 0.306361 0.630138 -0.58347
O_ O_ 0.430247 0.273287 0.829445 -0.46727
O_ O_ 0.266595 0.337836 0.835357 -0.46727
O_ O_ 0.459119 0.297478 0.975951 -0.46727
O_ O_ 0.293602 0.35719 0.983018 -0.46727
Zn Zn 0.118753 0.68463 0.382647 0.90689
Zn Zn 0.129317 0.676726 0.431755 0.90689
Zn Zn 0.368616 0.822272 0.135493 0.90689
Zn Zn 0.361308 0.818555 0.184644 0.90689
H_ H_ 0.294998 0.690285 0.44649 0.11455
H_ H_ 0.365884 0.66805 0.346705 0.11455
H_ H_ 0.274938 0.66776 0.352752 0.11455
H_ H_ 0.379583 0.701066 0.464537 0.11455
H_ H_ 0.470687 0.700457 0.457693 0.11455
H_ H_ 0.448477 0.677238 0.368226 0.11455
H_ H_ 0.147777 0.511055 0.441406 0.11455
H_ H_ 0.155532 0.930686 0.354061 0.11455
H_ H_ 0.0991407 0.524343 0.353855 0.11455
H_ H_ 0.0603068 0.926852 0.461643 0.11455
H_ H_ 0.0692238 0.833615 0.458687 0.11455
H_ H_ 0.125326 0.848211 0.371249 0.11455
H_ H_ 0.0884634 0.593104 0.468992 0.11455
H_ H_ 0.0672167 0.575699 0.018819 0.11455
H_ H_ 0.107361 0.618862 0.0591188 0.11455
H_ H_ 0.187875 0.737769 0.470311 0.11455
H_ H_ 0.243364 0.782463 0.0142652 0.11455
H_ H_ 0.227918 0.75839 0.0627451 0.11455
H_ H_ 0.0217008 0.717663 0.120709 0.11455
H_ H_ 0.0090545 0.706718 0.174638 0.11455
H_ H_ 0.26773 0.667595 0.142581 0.11455
H_ H_ 0.245283 0.647742 0.193406 0.11455
H_ H_ 0.0860639 0.587508 0.248065 0.11455
H_ H_ 0.0504515 0.561822 0.297387 0.11455
H_ H_ 0.0682933 0.616615 0.339065 0.11455
H_ H_ 0.148118 0.753292 0.256975 0.11455
H_ H_ 0.194582 0.792077 0.299391 0.11455
H_ H_ 0.179509 0.754421 0.347259 0.11455
H_ H_ 0.19697 0.815487 0.200651 0.11455
H_ H_ 0.124192 0.848068 0.100712 0.11455
H_ H_ 0.214293 0.836198 0.109642 0.11455
H_ H_ 0.0999964 0.804456 0.218599 0.11455
H_ H_ 0.0151158 0.816292 0.208784 0.11455
H_ H_ 0.0406285 0.836925 0.11828 0.11455
H_ H_ 0.393491 0.989489 0.193945 0.11455
H_ H_ 0.342061 0.576138 0.100718 0.11455
H_ H_ 0.36724 0.977066 0.103275 0.11455
H_ H_ 0.394915 0.568596 0.216773 0.11455
H_ H_ 0.388994 0.66381 0.215699 0.11455
H_ H_ 0.37723 0.658204 0.125019 0.11455
H_ H_ 0.416033 0.888686 0.217592 0.11455
H_ H_ 0.440089 0.913343 0.267748 0.11455
H_ H_ 0.398814 0.872755 0.310144 0.11455
H_ H_ 0.289654 0.757868 0.228961 0.11455
H_ H_ 0.266141 0.707827 0.269191 0.11455
H_ H_ 0.287701 0.730038 0.318696 0.11455
H_ H_ 0.48111 0.788804 0.374065 0.11455
H_ H_ 0.498709 0.800298 0.425763 0.11455
H_ H_ 0.234795 0.848653 0.394862 0.11455
H_ H_ 0.252993 0.850229 0.446946 0.11455
H_ H_ 0.437552 0.901068 0.50268 0.11455
H_ H_ 0.453891 0.939178 0.0529415 0.11455
H_ H_ 0.434269 0.883761 0.0921831 0.11455
H_ H_ 0.351211 0.753182 0.0116946 0.11455
H_ H_ 0.310249 0.706788 0.0543032 0.11455
H_ H_ 0.324181 0.738561 0.101288 0.11455
C_ C_ 0.221263 0.681685 0.4031 0.68181
C_ C_ 0.275655 0.680312 0.400171 -0.05681
C_ C_ 0.307631 0.683818 0.424846 -0.08735
C_ C_ 0.359364 0.681653 0.42087 -0.05681
C_ C_ 0.380911 0.675777 0.393139 -0.05681
C_ C_ 0.351259 0.673222 0.369201 -0.08735
C_ C_ 0.297596 0.673084 0.37265 -0.08735
C_ C_ 0.394261 0.691006 0.443813 -0.08735
C_ C_ 0.446004 0.688678 0.439751 -0.08735
C_ C_ 0.466276 0.68083 0.412723 -0.05681
C_ C_ 0.432735 0.674569 0.389645 -0.08735
C_ C_ 0.117195 0.778738 0.414409 0.68181
C_ C_ 0.129366 0.582707 0.400395 0.68181
C_ C_ 0.121198 0.526365 0.398607 -0.05681
C_ C_ 0.101854 0.994738 0.422319 -0.08735
C_ C_ 0.10216 0.940725 0.420502 -0.05681
C_ C_ 0.115952 0.918716 0.39419 -0.05681
C_ C_ 0.140074 0.947807 0.373421 -0.08735
C_ C_ 0.1396 0.999631 0.375845 -0.08735
C_ C_ 0.076431 0.909864 0.441139 -0.08735
C_ C_ 0.0828699 0.856344 0.440915 -0.08735
C_ C_ 0.104983 0.834101 0.415705 -0.05681
C_ C_ 0.116092 0.864163 0.391689 -0.08735
C_ C_ 0.0249008 0.67781 0.410682 0.68181
C_ C_ 0.0944263 0.619442 0.485271 0.1947
C_ C_ 0.094857 0.602841 0.0137907 -0.08735
C_ C_ 0.11638 0.630691 0.036266 -0.08735
C_ C_ 0.149807 0.671951 0.0304014 -0.05681
C_ C_ 0.162263 0.684834 1.00152315 0.18498
C_ C_ 0.174555 0.731813 0.493097 -0.08735
C_ C_ 0.21462 0.754417 0.0178784 -0.08735
C_ C_ 0.204256 0.742224 0.0463628 -0.08735
C_ C_ 0.171606 0.702777 0.0534332 0.18498
C_ C_ 0.195541 0.682083 0.10177 0.44287
C_ C_ 0.1078 0.700868 0.0943543 0.44287
C_ C_ 0.0979147 0.694959 0.123378 -0.05681
C_ C_ 0.0500297 0.701594 0.134879 -0.08735
C_ C_ 0.0446342 0.700071 0.164325 -0.08735
C_ C_ 0.0849125 0.698919 0.183173 -0.05681
C_ C_ 0.132367 0.686905 0.17138 -0.05681
C_ C_ 0.139848 0.687214 0.142217 -0.05681
C_ C_ 0.190745 0.682063 0.131509 -0.05681
C_ C_ 0.22922 0.668587 0.150875 -0.08735
C_ C_ 0.21907 0.663259 0.17922 -0.08735
C_ C_ 0.171051 0.672447 0.189917 -0.05681
C_ C_ 0.160159 0.666448 0.219645 0.44287
C_ C_ 0.0767158 0.694294 0.213138 0.44287
C_ C_ 0.100557 0.663545 0.260144 0.18498
C_ C_ 0.0858128 0.614323 0.26637 -0.08735
C_ C_ 0.0678599 0.599471 0.293957 -0.08735
C_ C_ 0.0754946 0.631552 0.317376 -0.08735
C_ C_ 0.100833 0.678608 0.312038 0.18498
C_ C_ 0.111317 0.69579 0.283331 -0.05681
C_ C_ 0.14012 0.739893 0.278856 -0.08735
C_ C_ 0.163929 0.763828 0.302775 -0.08735
C_ C_ 0.153282 0.74472 0.329951 0.1947
C_ C_ 0.265559 0.819842 0.159194 0.68181
C_ C_ 0.211929 0.830767 0.155604 -0.05681
C_ C_ 0.179435 0.82297 0.178418 -0.08735
C_ C_ 0.125751 0.827328 0.175409 -0.05681
C_ C_ 0.106681 0.836849 0.147532 -0.05681
C_ C_ 0.138635 0.84165 0.123293 -0.08735
C_ C_ 0.190878 0.840883 0.127863 -0.08735
C_ C_ 0.0918819 0.821067 0.197114 -0.08735
C_ C_ 0.0400467 0.825481 0.192653 -0.08735
C_ C_ 0.0190525 0.832339 0.164331 -0.05681
C_ C_ 0.0533924 0.838578 0.141309 -0.08735
C_ C_ 0.37166 0.725886 0.170338 0.68181
C_ C_ 0.364654 0.918628 0.15114 0.68181
C_ C_ 0.370008 0.975531 0.149915 -0.05681
C_ C_ 0.375432 0.507506 0.171881 -0.08735
C_ C_ 0.37442 0.560789 0.170755 -0.05681
C_ C_ 0.366465 0.58557 0.145039 -0.05681
C_ C_ 0.350826 0.557252 0.121096 -0.08735
C_ C_ 0.364875 -0.0006509999999999572 0.123099 -0.08735
C_ C_ 0.386 0.588928 0.196659 -0.08735
C_ C_ 0.381096 0.641662 0.196184 -0.08735
C_ C_ 0.379257 0.668248 0.17097 -0.05681
C_ C_ 0.374404 0.63904 0.1447 -0.08735
C_ C_ 0.46451 0.825335 0.162272 0.68181
C_ C_ 0.399672 0.868756 0.235448 0.1947
C_ C_ 0.412516 0.882967 0.263114 -0.08735
C_ C_ 0.393284 0.856977 0.287718 -0.08735
C_ C_ 0.357257 0.818424 0.283155 -0.05681
C_ C_ 0.342243 0.807976 0.253629 0.18498
C_ C_ 0.309329 0.765626 0.24864 -0.08735
C_ C_ 0.29107 0.737634 0.271822 -0.08735
C_ C_ 0.300779 0.753135 0.300173 -0.08735
C_ C_ 0.336294 0.791737 0.306368 0.18498
C_ C_ 0.306289 0.823626 0.353965 0.44287
C_ C_ 0.38985 0.79495 0.348291 0.44287
C_ C_ 0.401439 0.806341 0.376946 -0.05681
C_ C_ 0.45015 0.799023 0.388185 -0.08735
C_ C_ 0.461539 0.811219 0.416665 -0.08735
C_ C_ 0.421507 0.82032 0.435572 -0.05681
C_ C_ 0.372438 0.828965 0.424709 -0.05681
C_ C_ 0.362277 0.81924 0.395256 -0.05681
C_ C_ 0.313369 0.82689 0.384302 -0.05681
C_ C_ 0.273428 0.841748 0.402542 -0.08735
C_ C_ 0.284024 0.84644 0.432809 -0.08735
C_ C_ 0.33246 0.835548 0.443707 -0.05681
C_ C_ 0.342988 0.831921 0.473 0.44287
C_ C_ 0.429186 0.816417 0.465562 0.44287
C_ C_ 0.394869 0.844873 0.0147599 0.18498
C_ C_ 0.421135 0.890965 0.0210844 -0.08735
C_ C_ 0.433564 0.90499 0.0487864 -0.08735
C_ C_ 0.419814 0.873886 0.0709244 -0.08735
C_ C_ 0.386179 0.83248 0.0662451 0.18498
C_ C_ 0.377031 0.814912 0.0380284 -0.05681
C_ C_ 0.34938 0.769917 0.0335794 -0.08735
C_ C_ 0.330308 0.742771 0.057746 -0.08735
C_ C_ 0.339513 0.761172 0.0849288 0.1947
N_ N_ 0.126285 0.659074 0.478681 -0.29468
N_ N_ 0.157323 0.696797 0.0842309 -0.17154
N_ N_ 0.113579 0.676268 0.230304 -0.17154
N_ N_ 0.123995 0.705061 0.334361 -0.29468
N_ N_ 0.365128 0.833114 0.23137 -0.29468
N_ N_ 0.344732 0.808563 0.336475 -0.17154
N_ N_ 0.389722 0.8224 0.483805 -0.17154
N_ N_ 0.367262 0.803499 0.0893325 -0.29468
O_ O_ 0.201151 0.690201 0.427753 -0.58347
O_ O_ 0.193366 0.677447 0.380143 -0.58347
O_ O_ 0.114488 0.75401 0.437846 -0.58347
O_ O_ 0.122479 0.758782 0.389809 -0.58347
O_ O_ 0.136868 0.603222 0.424903 -0.58347
O_ O_ 0.120081 0.611695 0.379245 -0.58347
O_ O_ 0.0537405 0.665097 0.431796 -0.58347
O_ O_ 0.0436434 0.687903 0.386354 -0.58347
O_ O_ 0.0700448 0.707189 0.0750267 -0.46727
O_ O_ 0.239656 0.669236 0.0914103 -0.46727
O_ O_ 0.033883 0.708841 0.22453 -0.46727
O_ O_ 0.194916 0.644685 0.236088 -0.46727
O_ O_ 0.287824 0.824215 0.183272 -0.58347
O_ O_ 0.292943 0.817572 0.136463 -0.58347
O_ O_ 0.355744 0.747379 0.192813 -0.58347
O_ O_ 0.376921 0.750855 0.147069 -0.58347
O_ O_ 0.367195 0.896015 0.174653 -0.58347
O_ O_ 0.36545 0.894376 0.128148 -0.58347
O_ O_ 0.43772 0.820055 0.183992 -0.58347
O_ O_ 0.444102 0.82967 0.137758 -0.58347
O_ O_ 0.422325 0.769735 0.332144 -0.46727
O_ O_ 0.262695 0.83437 0.34106 -0.46727
O_ O_ 0.471933 0.802996 0.476946 -0.46727
O_ O_ 0.305548 0.831701 0.490272 -0.46727
Zn Zn 0.131827 0.681071 0.884482 0.90689
Zn Zn 0.142172 0.673084 0.93241 0.90689
Zn Zn 0.372051 0.809006 0.632869 0.90689
Zn Zn 0.363941 0.814159 0.680462 0.90689
H_ H_ 0.308212 0.690859 0.948644 0.11455
H_ H_ 0.36925 0.655101 0.850199 0.11455
H_ H_ 0.282799 0.64817 0.861069 0.11455
H_ H_ 0.400157 0.702961 0.965052 0.11455
H_ H_ 0.488883 0.70058 0.956069 0.11455
H_ H_ 0.461893 0.657707 0.86748 0.11455
H_ H_ 0.129162 0.503867 0.941754 0.11455
H_ H_ 0.11315 0.931828 0.848902 0.11455
H_ H_ 0.139033 0.520578 0.848477 0.11455
H_ H_ 0.128062 0.92539 0.966965 0.11455
H_ H_ 0.139129 0.833633 0.962779 0.11455
H_ H_ 0.125402 0.844853 0.870434 0.11455
H_ H_ 0.0806694 0.604288 0.970964 0.11455
H_ H_ 0.0692541 0.568278 0.517771 0.11455
H_ H_ 0.103785 0.622633 0.555928 0.11455
H_ H_ 0.208097 0.728732 0.974393 0.11455
H_ H_ 0.216723 0.796751 0.508839 0.11455
H_ H_ 0.189309 0.783576 0.55909 0.11455
H_ H_ 1.0123346 0.712625 0.624559 0.11455
H_ H_ 1.00224922 0.698388 0.677713 0.11455
H_ H_ 0.257647 0.659307 0.633128 0.11455
H_ H_ 0.252008 0.657856 0.686847 0.11455
H_ H_ 0.0620266 0.599911 0.74777 0.11455
H_ H_ 0.0428509 0.571925 0.798226 0.11455
H_ H_ 0.0798727 0.622585 0.839068 0.11455
H_ H_ 0.161256 0.75013 0.759676 0.11455
H_ H_ 0.197894 0.796409 0.801711 0.11455
H_ H_ 0.188212 0.762818 0.850172 0.11455
H_ H_ 0.198291 0.831157 0.695573 0.11455
H_ H_ 0.132908 0.830718 0.596404 0.11455
H_ H_ 0.220493 0.807132 0.606779 0.11455
H_ H_ 0.111077 0.844332 0.718333 0.11455
H_ H_ 0.0158483 0.839719 0.707775 0.11455
H_ H_ 0.0395944 0.824626 0.61565 0.11455
H_ H_ 0.357845 0.980525 0.690972 0.11455
H_ H_ 0.392653 0.562556 0.599303 0.11455
H_ H_ 0.367735 0.964239 0.601375 0.11455
H_ H_ 0.333001 0.563998 0.709416 0.11455
H_ H_ 0.33495 0.653423 0.709074 0.11455
H_ H_ 0.377834 0.645453 0.620659 0.11455
H_ H_ 0.428447 0.879537 0.715411 0.11455
H_ H_ 0.452462 0.908378 0.764006 0.11455
H_ H_ 0.408333 0.870183 0.807009 0.11455
H_ H_ 0.297901 0.757894 0.727905 0.11455
H_ H_ 0.267763 0.70879 0.76996 0.11455
H_ H_ 0.301306 0.724701 0.818151 0.11455
H_ H_ 0.493443 0.812114 0.879252 0.11455
H_ H_ 0.498459 0.810953 0.931236 0.11455
H_ H_ 0.239283 0.837776 0.892183 0.11455
H_ H_ 0.251185 0.839409 0.942699 0.11455
H_ H_ 0.437332 0.912212 1.00324924 0.11455
H_ H_ 0.457634 0.929566 0.551172 0.11455
H_ H_ 0.413147 0.880637 0.591784 0.11455
H_ H_ 0.352589 0.738806 0.512284 0.11455
H_ H_ 0.303051 0.702635 0.550827 0.11455
H_ H_ 0.320716 0.733464 0.601855 0.11455
C_ C_ 0.234129 0.681119 0.909173 0.68181
C_ C_ 0.289839 0.673446 0.905048 -0.05681
C_ C_ 0.324288 0.68257 0.92715 -0.08735
C_ C_ 0.377804 0.681945 0.92184 -0.05681
C_ C_ 0.396377 0.665492 0.894341 -0.05681
C_ C_ 0.360385 0.660876 0.871892 -0.08735
C_ C_ 0.308181 0.658726 0.877968 -0.08735
C_ C_ 0.412181 0.689075 0.944369 -0.08735
C_ C_ 0.463089 0.691248 0.938845 -0.08735
C_ C_ 0.483027 0.676396 0.910697 -0.05681
C_ C_ 0.449502 0.661838 0.889419 -0.08735
C_ C_ 0.132302 0.775931 0.914264 0.68181
C_ C_ 0.137078 0.578982 0.901053 0.68181
C_ C_ 0.13513 0.52083 0.896445 -0.05681
C_ C_ 0.142357 0.991898 0.92208 -0.08735
C_ C_ 0.127725 0.939063 0.92054 -0.05681
C_ C_ 0.119403 0.915127 0.893836 -0.05681
C_ C_ 0.118187 0.947645 0.86869 -0.08735
C_ C_ 0.127122 -0.00144944 0.871096 -0.08735
C_ C_ 0.130192 0.908685 0.945471 -0.08735
C_ C_ 0.131051 0.856501 0.942913 -0.08735
C_ C_ 0.127981 0.832514 0.915362 -0.05681
C_ C_ 0.12207 0.864028 0.891246 -0.08735
C_ C_ 0.0380841 0.675764 0.909777 0.68181
C_ C_ 0.104114 0.617631 0.9865 0.1947
C_ C_ 0.0877602 0.603244 0.512914 -0.08735
C_ C_ 0.106434 0.63434 0.534888 -0.08735
C_ C_ 0.135727 0.678473 0.528812 -0.05681
C_ C_ 0.144913 0.690666 0.499615 0.18498
C_ C_ 0.194049 0.724907 0.99588 -0.08735
C_ C_ 0.193734 0.763258 0.514518 -0.08735
C_ C_ 0.181085 0.753883 0.543682 -0.08735
C_ C_ 0.150574 0.71224 0.551688 0.18498
C_ C_ 0.184951 0.687683 0.598285 0.44287
C_ C_ 0.0971148 0.704858 0.593537 0.44287
C_ C_ 0.0915134 0.702881 0.623745 -0.05681
C_ C_ 0.043573 0.700552 0.63705 -0.08735
C_ C_ 0.039635 0.696743 0.667379 -0.08735
C_ C_ 0.0822043 0.687875 0.684389 -0.05681
C_ C_ 0.131201 0.686604 0.671585 -0.05681
C_ C_ 0.134667 0.692759 0.641436 -0.05681
C_ C_ 0.18138 0.684637 0.628523 -0.05681
C_ C_ 0.224208 0.666892 0.643638 -0.08735
C_ C_ 0.22044 0.665133 0.675034 -0.08735
C_ C_ 0.172895 0.675177 0.688724 -0.05681
C_ C_ 0.165255 0.66699 0.718769 0.44287
C_ C_ 0.0788085 0.689452 0.714446 0.44287
C_ C_ 0.113342 0.660006 0.760723 0.18498
C_ C_ 0.0844622 0.617305 0.765236 -0.08735
C_ C_ 0.0698027 0.605187 0.793726 -0.08735
C_ C_ 0.0894706 0.631971 0.81703 -0.08735
C_ C_ 0.119024 0.672379 0.812928 0.18498
C_ C_ 0.129428 0.688565 0.78416 -0.05681
C_ C_ 0.155077 0.735024 0.781051 -0.08735
C_ C_ 0.173296 0.763444 0.805449 -0.08735
C_ C_ 0.168532 0.743328 0.831891 0.1947
C_ C_ 0.270059 0.817335 0.656049 0.68181
C_ C_ 0.2144 0.818861 0.651781 -0.05681
C_ C_ 0.183106 0.828 0.674839 -0.08735
C_ C_ 0.129336 0.83033 0.671332 -0.05681
C_ C_ 0.110539 0.829187 0.641812 -0.05681
C_ C_ 0.144503 0.821468 0.618153 -0.08735
C_ C_ 0.194399 0.814171 0.624179 -0.08735
C_ C_ 0.0980309 0.84144 0.695053 -0.08735
C_ C_ 0.0452472 0.837622 0.690608 -0.08735
C_ C_ 0.0247888 0.834321 0.662125 -0.05681
C_ C_ 0.057885 0.828721 0.637851 -0.08735
C_ C_ 0.366019 0.712815 0.664618 0.68181
C_ C_ 0.358585 0.910879 0.652341 0.68181
C_ C_ 0.366615 0.966747 0.647568 -0.05681
C_ C_ 0.36978 0.49464 0.671807 -0.08735
C_ C_ 0.369442 0.54884 0.670732 -0.05681
C_ C_ 0.37748 0.571936 0.643324 -0.05681
C_ C_ 0.380607 0.543275 0.61845 -0.08735
C_ C_ 0.366329 0.988884 0.620066 -0.08735
C_ C_ 0.356993 0.579709 0.694002 -0.08735
C_ C_ 0.353979 0.633337 0.691615 -0.08735
C_ C_ 0.368516 0.656975 0.666704 -0.05681
C_ C_ 0.37397 0.626808 0.641696 -0.08735
C_ C_ 0.468316 0.822054 0.656525 0.68181
C_ C_ 0.408823 0.862205 0.732873 0.1947
C_ C_ 0.421488 0.880694 0.761 -0.08735
C_ C_ 0.399016 0.858559 0.785052 -0.08735
C_ C_ 0.36822 0.815067 0.781637 -0.05681
C_ C_ 0.352088 0.80133 0.752496 0.18498
C_ C_ 0.313646 0.765277 0.749324 -0.08735
C_ C_ 0.29704 0.73694 0.77292 -0.08735
C_ C_ 0.315508 0.746224 0.79991 -0.08735
C_ C_ 0.347414 0.787846 0.80602 0.18498
C_ C_ 0.316413 0.815723 0.8526 0.44287
C_ C_ 0.403472 0.799856 0.848708 0.44287
C_ C_ 0.409545 0.807001 0.878373 -0.05681
C_ C_ 0.459026 0.804789 0.891116 -0.08735
C_ C_ 0.464516 0.806404 0.920643 -0.08735
C_ C_ 0.421673 0.813882 0.937865 -0.05681
C_ C_ 0.374365 0.822445 0.925222 -0.05681
C_ C_ 0.369059 0.817288 0.895063 -0.05681
C_ C_ 0.320402 0.82093 0.883182 -0.05681
C_ C_ 0.277985 0.831776 0.901037 -0.08735
C_ C_ 0.283636 0.830133 0.930176 -0.08735
C_ C_ 0.332134 0.833957 0.942378 -0.05681
C_ C_ 0.33777 0.840007 0.972587 0.44287
C_ C_ 0.423969 0.81184 0.968007 0.44287
C_ C_ 0.399378 0.831703 0.513632 0.18498
C_ C_ 0.423154 0.877374 0.519755 -0.08735
C_ C_ 0.437647 0.89101 0.547746 -0.08735
C_ C_ 0.416488 0.862208 0.570867 -0.08735
C_ C_ 0.387395 0.819877 0.564858 0.18498
C_ C_ 0.378945 0.802179 0.536571 -0.05681
C_ C_ 0.350218 0.758384 0.53221 -0.08735
C_ C_ 0.326507 0.735245 0.555532 -0.08735
C_ C_ 0.338668 0.752023 0.584245 0.1947
N_ N_ 0.137733 0.65771 0.980571 -0.29468
N_ N_ 0.14345 0.699001 0.581971 -0.17154
N_ N_ 0.12015 0.675254 0.7314 -0.17154
N_ N_ 0.135617 0.702058 0.835818 -0.29468
N_ N_ 0.371294 0.827028 0.728573 -0.29468
N_ N_ 0.356785 0.803176 0.836247 -0.17154
N_ N_ 0.385056 0.828622 0.985309 -0.17154
N_ N_ 0.369182 0.793441 0.58754 -0.29468
O_ O_ 0.215601 0.669005 0.933412 -0.58347
O_ O_ 0.205293 0.684721 0.887834 -0.58347
O_ O_ 0.14325 0.74943 0.936179 -0.58347
O_ O_ 0.126577 0.75351 0.89005 -0.58347
O_ O_ 0.134555 0.597344 0.926686 -0.58347
O_ O_ 0.146238 0.606962 0.878946 -0.58347
O_ O_ 0.0667893 0.681878 0.931324 -0.58347
O_ O_ 0.0570887 0.675139 0.884484 -0.58347
O_ O_ 0.0607975 0.720261 0.577447 -0.46727
O_ O_ 0.228373 0.679387 0.585494 -0.46727
O_ O_ 0.0366244 0.700148 0.72707 -0.46727
O_ O_ 0.202974 0.652236 0.734813 -0.46727
O_ O_ 0.288827 0.824294 0.680562 -0.58347
O_ O_ 0.297721 0.796842 0.637015 -0.58347
O_ O_ 0.354668 0.741296 0.685568 -0.58347
O_ O_ 0.386666 0.733238 0.643067 -0.58347
O_ O_ 0.375039 0.891173 0.6753 -0.58347
O_ O_ 0.355403 0.882453 0.631069 -0.58347
O_ O_ 0.439406 0.807317 0.677536 -0.58347
O_ O_ 0.447683 0.823719 0.632128 -0.58347
O_ O_ 0.443055 0.783989 0.834248 -0.46727
O_ O_ 0.272795 0.82714 0.840366 -0.46727
O_ O_ 0.468351 0.810993 0.980422 -0.46727
O_ O_ 0.299751 0.85893 0.988971 -0.46727
Zn Zn 0.621929 0.192455 0.382355 0.90689
Zn Zn 0.632659 0.179717 0.428887 0.90689
Zn Zn 0.868613 0.314402 0.131346 0.90689
Zn Zn 0.863256 0.314578 0.178603 0.90689
H_ H_ 0.799691 0.198889 0.44361 0.11455
H_ H_ 0.856344 0.172817 0.346863 0.11455
H_ H_ 0.770635 0.188251 0.353984 0.11455
H_ H_ 0.886524 0.183068 0.461817 0.11455
H_ H_ 0.978523 0.175413 0.45219 0.11455
H_ H_ 0.947539 0.171205 0.36118 0.11455
H_ H_ 0.645935 0.0157816 0.440883 0.11455
H_ H_ 0.658391 0.438389 0.346774 0.11455
H_ H_ 0.588419 0.0320806 0.355943 0.11455
H_ H_ 0.594144 0.430528 0.460716 0.11455
H_ H_ 0.604671 0.339478 0.456776 0.11455
H_ H_ 0.636675 0.353454 0.366164 0.11455
H_ H_ 0.574961 0.104585 0.465942 0.11455
H_ H_ 0.578831 0.0697175 0.0121637 0.11455
H_ H_ 0.609896 0.116398 0.0536727 0.11455
H_ H_ 0.692114 0.243235 0.472101 0.11455
H_ H_ 0.744636 0.285943 0.0142689 0.11455
H_ H_ 0.718526 0.26354 0.0647695 0.11455
H_ H_ 0.52168 0.221108 0.119804 0.11455
H_ H_ 0.507425 0.215779 0.170499 0.11455
H_ H_ 0.760175 0.138054 0.140642 0.11455
H_ H_ 0.751464 0.149883 0.190616 0.11455
H_ H_ 0.559793 0.0987762 0.250018 0.11455
H_ H_ 0.526658 0.0847123 0.300013 0.11455
H_ H_ 0.565229 0.130879 0.33913 0.11455
H_ H_ 0.668278 0.24795 0.258511 0.11455
H_ H_ 0.69853 0.298203 0.298439 0.11455
H_ H_ 0.681435 0.264923 0.348958 0.11455
H_ H_ 0.694048 0.298858 0.189034 0.11455
H_ H_ 0.624009 0.328291 0.0949991 0.11455
H_ H_ 0.716023 0.322821 0.102543 0.11455
H_ H_ 0.610716 0.312802 0.210087 0.11455
H_ H_ 0.519973 0.309771 0.206395 0.11455
H_ H_ 0.53984 0.339082 0.114712 0.11455
H_ H_ 0.898264 0.486621 0.186692 0.11455
H_ H_ 0.885682 0.0677344 0.095158 0.11455
H_ H_ 0.826511 0.474642 0.105222 0.11455
H_ H_ 0.839602 0.0694178 0.209984 0.11455
H_ H_ 0.864286 0.160075 0.20897 0.11455
H_ H_ 0.891869 0.145555 0.117569 0.11455
H_ H_ 0.917007 0.380614 0.215382 0.11455
H_ H_ 0.935561 0.41205 0.26415 0.11455
H_ H_ 0.895941 0.374751 0.303898 0.11455
H_ H_ 0.797552 0.254917 0.224045 0.11455
H_ H_ 0.768234 0.198059 0.266904 0.11455
H_ H_ 0.785052 0.229804 0.314063 0.11455
H_ H_ 0.972202 0.279683 0.370442 0.11455
H_ H_ -0.008525000000000005 0.307356 0.418603 0.11455
H_ H_ 0.726992 0.34975 0.389499 0.11455
H_ H_ 0.747408 0.367161 0.440928 0.11455
H_ H_ 0.947196 0.402414 0.494299 0.11455
H_ H_ 0.94056 0.43997 0.0464444 0.11455
H_ H_ 0.926929 0.380636 0.0852031 0.11455
H_ H_ 0.851754 0.244137 0.00740162 0.11455
H_ H_ 0.822256 0.197328 0.0492218 0.11455
H_ H_ 0.827458 0.234287 0.0961472 0.11455
C_ C_ 0.72246 0.197219 0.405152 0.68181
C_ C_ 0.778555 0.198288 0.40033 -0.05681
C_ C_ 0.813857 0.192675 0.422892 -0.08735
C_ C_ 0.866432 0.18491 0.416813 -0.05681
C_ C_ 0.883828 0.185149 0.388723 -0.05681
C_ C_ 0.847426 0.182367 0.367425 -0.08735
C_ C_ 0.796763 0.194064 0.37175 -0.08735
C_ C_ 0.901357 0.184327 0.439732 -0.08735
C_ C_ 0.953157 0.179342 0.433563 -0.08735
C_ C_ 0.971812 0.175642 0.40549 -0.05681
C_ C_ 0.935247 0.179017 0.382745 -0.08735
C_ C_ 0.620942 0.285753 0.408671 0.68181
C_ C_ 0.632883 0.0858525 0.400403 0.68181
C_ C_ 0.627272 0.030438 0.396012 -0.05681
C_ C_ 0.622313 0.500279 0.421431 -0.08735
C_ C_ 0.622062 0.447 0.417772 -0.05681
C_ C_ 0.633186 0.423727 0.390916 -0.05681
C_ C_ 0.646637 0.455653 0.367639 -0.08735
C_ C_ 0.649994 0.507655 0.371842 -0.08735
C_ C_ 0.608044 0.414472 0.439849 -0.08735
C_ C_ 0.608983 0.363189 0.437686 -0.08735
C_ C_ 0.614404 0.340264 0.410106 -0.05681
C_ C_ 0.627804 0.371488 0.386219 -0.08735
C_ C_ 0.528285 0.177507 0.40539 0.68181
C_ C_ 0.593913 0.122099 0.483498 0.1947
C_ C_ 0.60015 0.104572 0.00836761 -0.08735
C_ C_ 0.615531 0.133715 0.0320498 -0.08735
C_ C_ 0.648524 0.175175 0.0276417 -0.05681
C_ C_ 0.663262 0.189185 0.99936914 0.18498
C_ C_ 0.68163 0.231688 0.493845 -0.08735
C_ C_ 0.719899 0.253839 0.0182664 -0.08735
C_ C_ 0.703406 0.242592 0.0467204 -0.08735
C_ C_ 0.66748 0.203106 0.0516651 0.18498
C_ C_ 0.694992 0.17392 0.0992109 0.44287
C_ C_ 0.6112 0.200684 0.0914979 0.44287
C_ C_ 0.603463 0.203301 0.121561 -0.05681
C_ C_ 0.552342 0.209596 0.132689 -0.08735
C_ C_ 0.543473 0.20005 0.161732 -0.08735
C_ C_ 0.580764 0.183783 0.181185 -0.05681
C_ C_ 0.630536 0.177811 0.170748 -0.05681
C_ C_ 0.640981 0.18403 0.140355 -0.05681
C_ C_ 0.687169 0.167983 0.129491 -0.05681
C_ C_ 0.725203 0.151802 0.147623 -0.08735
C_ C_ 0.718964 0.154569 0.177281 -0.08735
C_ C_ 0.669401 0.166976 0.188834 -0.05681
C_ C_ 0.658322 0.158471 0.219018 0.44287
C_ C_ 0.574979 0.187349 0.212016 0.44287
C_ C_ 0.602532 0.163647 0.26057 0.18498
C_ C_ 0.569959 0.124346 0.267096 -0.08735
C_ C_ 0.552063 0.115312 0.295265 -0.08735
C_ C_ 0.572852 0.144184 0.318132 -0.08735
C_ C_ 0.608833 0.183179 0.313007 0.18498
C_ C_ 0.621461 0.195183 0.283296 -0.05681
C_ C_ 0.655106 0.238911 0.279781 -0.08735
C_ C_ 0.671655 0.267831 0.302528 -0.08735
C_ C_ 0.66142 0.251292 0.330975 0.1947
C_ C_ 0.768995 0.308885 0.151284 0.68181
C_ C_ 0.713254 0.312133 0.1458 -0.05681
C_ C_ 0.679843 0.310928 0.16867 -0.08735
C_ C_ 0.626664 0.315617 0.166069 -0.05681
C_ C_ 0.605393 0.321971 0.139007 -0.05681
C_ C_ 0.639432 0.323747 0.116443 -0.08735
C_ C_ 0.691846 0.317697 0.119496 -0.08735
C_ C_ 0.593698 0.313213 0.189888 -0.08735
C_ C_ 0.542177 0.31566 0.187022 -0.08735
C_ C_ 0.521026 0.328827 0.161099 -0.05681
C_ C_ 0.553163 0.329642 0.136506 -0.08735
C_ C_ 0.872694 0.218728 0.162465 0.68181
C_ C_ 0.86374 0.416728 0.148516 0.68181
C_ C_ 0.866597 0.474147 0.146074 -0.05681
C_ C_ 0.86763 0.00205479 0.16998 -0.08735
C_ C_ 0.873281 0.0553291 0.16804 -0.05681
C_ C_ 0.883526 0.0797288 0.141523 -0.05681
C_ C_ 0.884354 0.0493723 0.115595 -0.08735
C_ C_ 0.843455 0.497283 0.122448 -0.08735
C_ C_ 0.862258 0.0845588 0.191942 -0.08735
C_ C_ 0.864754 0.138103 0.190058 -0.08735
C_ C_ 0.874518 0.161926 0.163819 -0.05681
C_ C_ 0.885064 0.131842 0.139325 -0.08735
C_ C_ 0.965087 0.320353 0.158495 0.68181
C_ C_ 0.891909 0.370898 0.232767 0.1947
C_ C_ 0.905851 0.38618 0.260572 -0.08735
C_ C_ 0.883488 0.363773 0.283412 -0.08735
C_ C_ 0.845782 0.324557 0.27906 -0.05681
C_ C_ 0.837044 0.306433 0.251065 0.18498
C_ C_ 0.806845 0.26193 0.246564 -0.08735
C_ C_ 0.789694 0.233158 0.269575 -0.08735
C_ C_ 0.799215 0.251281 0.296703 -0.08735
C_ C_ 0.824517 0.297402 0.302148 0.18498
C_ C_ 0.797704 0.323267 0.348677 0.44287
C_ C_ 0.885763 0.303056 0.341519 0.44287
C_ C_ 0.894811 0.307393 0.37107 -0.05681
C_ C_ 0.942336 0.301849 0.38304 -0.08735
C_ C_ 0.95266 0.310887 0.412082 -0.08735
C_ C_ 0.912505 0.313922 0.430944 -0.05681
C_ C_ 0.86299 0.322929 0.419433 -0.05681
C_ C_ 0.855228 0.320554 0.388994 -0.05681
C_ C_ 0.805357 0.332693 0.378247 -0.05681
C_ C_ 0.764831 0.344096 0.396383 -0.08735
C_ C_ 0.774646 0.347885 0.427181 -0.08735
C_ C_ 0.824236 0.341044 0.437899 -0.05681
C_ C_ 0.836163 0.345762 0.467808 0.44287
C_ C_ 0.92063 0.314622 0.461281 0.44287
C_ C_ 0.892898 0.337678 0.00859046 0.18498
C_ C_ 0.906002 0.38886 0.0131855 -0.08735
C_ C_ 0.919528 0.405587 0.0413819 -0.08735
C_ C_ 0.910268 0.372291 0.0641876 -0.08735
C_ C_ 0.884623 0.326761 0.0598744 0.18498
C_ C_ 0.879419 0.307657 0.0323426 -0.05681
C_ C_ 0.857341 0.26019 0.0282775 -0.08735
C_ C_ 0.839359 0.235994 0.0515722 -0.08735
C_ C_ 0.843632 0.255304 0.0792686 0.1947
N_ N_ 0.624285 0.163498 0.477952 -0.29468
N_ N_ 0.658578 0.191198 0.0813688 -0.17154
N_ N_ 0.615086 0.175954 0.230384 -0.17154
N_ N_ 0.632568 0.207446 0.335319 -0.29468
N_ N_ 0.86172 0.329073 0.228954 -0.29468
N_ N_ 0.837429 0.309892 0.331193 -0.17154
N_ N_ 0.883416 0.331298 0.47942 -0.17154
N_ N_ 0.865935 0.30119 0.0825471 -0.29468
O_ O_ 0.706092 0.18501 0.430065 -0.58347
O_ O_ 0.69281 0.201186 0.384359 -0.58347
O_ O_ 0.628537 0.257385 0.430794 -0.58347
O_ O_ 0.616881 0.263812 0.384942 -0.58347
O_ O_ 0.638327 0.105656 0.425021 -0.58347
O_ O_ 0.629938 0.11521 0.378635 -0.58347
O_ O_ 0.554908 0.173783 0.427156 -0.58347
O_ O_ 0.546852 0.186675 0.381494 -0.58347
O_ O_ 0.575063 0.218564 0.0735056 -0.46727
O_ O_ 0.741185 0.164042 0.0887915 -0.46727
O_ O_ 0.531426 0.203874 0.223189 -0.46727
O_ O_ 0.692778 0.142358 0.237269 -0.46727
O_ O_ 0.787725 0.319748 0.17598 -0.58347
O_ O_ 0.798306 0.299874 0.130273 -0.58347
O_ O_ 0.855161 0.242188 0.183201 -0.58347
O_ O_ 0.881966 0.241222 0.139381 -0.58347
O_ O_ 0.86659 0.393308 0.172532 -0.58347
O_ O_ 0.857182 0.389166 0.126478 -0.58347
O_ O_ 0.936892 0.306812 0.179289 -0.58347
O_ O_ 0.944599 0.330675 0.134276 -0.58347
O_ O_ 0.9231 0.282447 0.325094 -0.46727
O_ O_ 0.751255 0.330602 0.33761 -0.46727
O_ O_ 0.959878 0.291601 0.472266 -0.46727
O_ O_ 0.800245 0.355786 0.485154 -0.46727
Zn Zn 0.640803 0.179661 0.8827 0.90689
Zn Zn 0.649688 0.173452 0.930465 0.90689
Zn Zn 0.879709 0.31876 0.630694 0.90689
Zn Zn 0.874019 0.326587 0.678142 0.90689
H_ H_ 0.820086 0.192579 0.945073 0.11455
H_ H_ 0.890331 0.176725 0.846989 0.11455
H_ H_ 0.795515 0.189275 0.854226 0.11455
H_ H_ 0.902873 0.185715 0.967571 0.11455
H_ H_ 0.993959 0.194393 0.960245 0.11455
H_ H_ 0.974568 0.188191 0.868 0.11455
H_ H_ 0.641201 0.00912742 0.94415 0.11455
H_ H_ 0.628519 0.428335 0.845185 0.11455
H_ H_ 0.66366 0.0209044 0.852357 0.11455
H_ H_ 0.636481 0.420481 0.96386 0.11455
H_ H_ 0.641046 0.330946 0.958993 0.11455
H_ H_ 0.621986 0.342643 0.867392 0.11455
H_ H_ 0.594988 0.103054 0.961635 0.11455
H_ H_ 0.573378 0.0688223 0.51633 0.11455
H_ H_ 0.60851 0.115792 0.556903 0.11455
H_ H_ 0.714386 0.235204 0.974428 0.11455
H_ H_ 0.724248 0.290169 0.513348 0.11455
H_ H_ 0.711833 0.263917 0.561793 0.11455
H_ H_ 0.51478 0.19801 0.621559 0.11455
H_ H_ 0.504455 0.189592 0.675046 0.11455
H_ H_ 0.76753 0.169405 0.637242 0.11455
H_ H_ 0.756718 0.154818 0.690685 0.11455
H_ H_ 0.56092 0.0826134 0.751728 0.11455
H_ H_ 0.549726 0.0567603 0.7993 0.11455
H_ H_ 0.581869 0.110785 0.841041 0.11455
H_ H_ 0.6565 0.239646 0.757186 0.11455
H_ H_ 0.683793 0.28932 0.796144 0.11455
H_ H_ 0.684379 0.254616 0.84679 0.11455
H_ H_ 0.70675 0.307786 0.69186 0.11455
H_ H_ 0.634504 0.324249 0.593565 0.11455
H_ H_ 0.726133 0.337494 0.601716 0.11455
H_ H_ 0.620899 0.300808 0.711935 0.11455
H_ H_ 0.527737 0.295241 0.705359 0.11455
H_ H_ 0.547027 0.327873 0.616737 0.11455
H_ H_ 0.87967 0.491586 0.689821 0.11455
H_ H_ 0.839576 0.0698808 0.599512 0.11455
H_ H_ 0.848756 0.471009 0.599101 0.11455
H_ H_ 0.865424 0.0782954 0.713888 0.11455
H_ H_ 0.885151 0.170795 0.70982 0.11455
H_ H_ 0.874649 0.153325 0.617208 0.11455
H_ H_ 0.937625 0.394361 0.71438 0.11455
H_ H_ 0.951569 0.426749 0.761357 0.11455
H_ H_ 0.903503 0.388095 0.802339 0.11455
H_ H_ 0.814253 0.268412 0.720852 0.11455
H_ H_ 0.801317 0.202106 0.756919 0.11455
H_ H_ 0.826551 0.220775 0.808377 0.11455
H_ H_ 0.989948 0.320506 0.871366 0.11455
H_ H_ 0.00201271 0.325565 0.924253 0.11455
H_ H_ 0.738201 0.306564 0.885092 0.11455
H_ H_ 0.748851 0.308162 0.937886 0.11455
H_ H_ 0.912826 0.413499 0.995208 0.11455
H_ H_ 0.973626 0.424686 0.545139 0.11455
H_ H_ 0.932767 0.380648 0.585086 0.11455
H_ H_ 0.827821 0.267547 0.504939 0.11455
H_ H_ 0.801323 0.211876 0.546328 0.11455
H_ H_ 0.834385 0.233033 0.594258 0.11455
C_ C_ 0.746986 0.178979 0.903589 0.68181
C_ C_ 0.802045 0.181409 0.900155 -0.05681
C_ C_ 0.835244 0.184632 0.924146 -0.08735
C_ C_ 0.888323 0.184013 0.920316 -0.05681
C_ C_ 0.90856 0.181223 0.89176 -0.05681
C_ C_ 0.876274 0.182962 0.867525 -0.08735
C_ C_ 0.823274 0.184947 0.871526 -0.08735
C_ C_ 0.919077 0.183011 0.945369 -0.08735
C_ C_ 0.970807 0.179681 0.942093 -0.08735
C_ C_ 0.990362 0.185593 0.914277 -0.05681
C_ C_ 0.960461 0.190383 0.890069 -0.08735
C_ C_ 0.629402 0.273547 0.912083 0.68181
C_ C_ 0.656038 0.0778429 0.900739 0.68181
C_ C_ 0.659467 0.0225704 0.899254 -0.05681
C_ C_ 0.626491 0.490579 0.919937 -0.08735
C_ C_ 0.623436 0.437369 0.918334 -0.05681
C_ C_ 0.621673 0.413382 0.890525 -0.05681
C_ C_ 0.62266 0.44447 0.865542 -0.08735
C_ C_ 0.630936 0.495868 0.869258 -0.08735
C_ C_ 0.627386 0.405923 0.942662 -0.08735
C_ C_ 0.631912 0.353912 0.939999 -0.08735
C_ C_ 0.628458 0.329687 0.913174 -0.05681
C_ C_ 0.621415 0.360006 0.888305 -0.08735
C_ C_ 0.548778 0.163237 0.907644 0.68181
C_ C_ 0.608477 0.123501 0.979986 0.1947
C_ C_ 0.591796 0.101882 0.511794 -0.08735
C_ C_ 0.614446 0.130868 0.534998 -0.08735
C_ C_ 0.638704 0.177003 0.52851 -0.05681
C_ C_ 0.647914 0.189634 0.499407 0.18498
C_ C_ 0.699997 0.226977 0.995284 -0.08735
C_ C_ 0.704188 0.25738 0.516228 -0.08735
C_ C_ 0.691143 0.248399 0.543954 -0.08735
C_ C_ 0.659713 0.207234 0.551395 0.18498
C_ C_ 0.692269 0.184919 0.598481 0.44287
C_ C_ 0.604025 0.19721 0.594365 0.44287
C_ C_ 0.596321 0.191304 0.624001 -0.05681
C_ C_ 0.547692 0.19084 0.635726 -0.08735
C_ C_ 0.54309 0.184583 0.665743 -0.08735
C_ C_ 0.584998 0.171643 0.68271 -0.05681
C_ C_ 0.632228 0.174676 0.671564 -0.05681
C_ C_ 0.639841 0.185647 0.641953 -0.05681
C_ C_ 0.687696 0.177734 0.62816 -0.05681
C_ C_ 0.729385 0.16848 0.646602 -0.08735
C_ C_ 0.722292 0.159524 0.676512 -0.08735
C_ C_ 0.675285 0.167535 0.689366 -0.05681
C_ C_ 0.668083 0.160877 0.719558 0.44287
C_ C_ 0.579928 0.168243 0.713663 0.44287
C_ C_ 0.612473 0.146157 0.761091 0.18498
C_ C_ 0.58164 0.103778 0.767785 -0.08735
C_ C_ 0.572877 0.0918198 0.796188 -0.08735
C_ C_ 0.592545 0.119416 0.818653 -0.08735
C_ C_ 0.619259 0.163249 0.812912 0.18498
C_ C_ 0.628797 0.177891 0.783729 -0.05681
C_ C_ 0.653897 0.223514 0.779064 -0.08735
C_ C_ 0.668877 0.252358 0.801753 -0.08735
C_ C_ 0.663141 0.235806 0.829409 0.1947
C_ C_ 0.778621 0.323052 0.651788 0.68181
C_ C_ 0.722807 0.326758 0.646906 -0.05681
C_ C_ 0.6889 0.314678 0.670958 -0.08735
C_ C_ 0.636277 0.317872 0.667797 -0.05681
C_ C_ 0.615716 0.322991 0.639832 -0.05681
C_ C_ 0.647743 0.327096 0.615828 -0.08735
C_ C_ 0.700892 0.333188 0.620172 -0.08735
C_ C_ 0.60509 0.307689 0.690587 -0.08735
C_ C_ 0.550931 0.310056 0.687871 -0.08735
C_ C_ 0.529813 0.31498 0.660373 -0.05681
C_ C_ 0.562944 0.316902 0.635921 -0.08735
C_ C_ 0.883254 0.223776 0.659839 0.68181
C_ C_ 0.866846 0.420867 0.646462 0.68181
C_ C_ 0.863022 0.476859 0.644589 -0.05681
C_ C_ 0.864029 0.0088311 0.673737 -0.08735
C_ C_ 0.868045 0.0609443 0.670327 -0.05681
C_ C_ 0.864914 0.08368 0.642491 -0.05681
C_ C_ 0.84972 0.0532215 0.619126 -0.08735
C_ C_ 0.862146 0.497493 0.616431 -0.08735
C_ C_ 0.87306 0.0934769 0.693995 -0.08735
C_ C_ 0.883655 0.145768 0.690386 -0.08735
C_ C_ 0.88217 0.16812 0.662844 -0.05681
C_ C_ 0.875215 0.136649 0.638838 -0.08735
C_ C_ 0.974742 0.330188 0.652861 0.68181
C_ C_ 0.911421 0.381229 0.731836 0.1947
C_ C_ 0.92136 0.398118 0.759103 -0.08735
C_ C_ 0.897057 0.374492 0.781594 -0.08735
C_ C_ 0.866747 0.330305 0.776906 -0.05681
C_ C_ 0.857139 0.316818 0.748375 0.18498
C_ C_ 0.830477 0.271764 0.742163 -0.08735
C_ C_ 0.818516 0.238143 0.76364 -0.08735
C_ C_ 0.837351 0.247 0.791719 -0.08735
C_ C_ 0.852501 0.297168 0.799416 0.18498
C_ C_ 0.816338 0.313722 0.847518 0.44287
C_ C_ 0.904528 0.309246 0.841296 0.44287
C_ C_ 0.91073 0.313986 0.871685 -0.05681
C_ C_ 0.958265 0.316874 0.884994 -0.08735
C_ C_ 0.964951 0.315572 0.914569 -0.08735
C_ C_ 0.922316 0.319978 0.932427 -0.05681
C_ C_ 0.873829 0.31817 0.919904 -0.05681
C_ C_ 0.868156 0.313792 0.889554 -0.05681
C_ C_ 0.819918 0.312161 0.876972 -0.05681
C_ C_ 0.776405 0.310223 0.894574 -0.08735
C_ C_ 0.782008 0.312105 0.92429 -0.08735
C_ C_ 0.83141 0.320846 0.937301 -0.05681
C_ C_ 0.838712 0.331088 0.96608 0.44287
C_ C_ 0.92825 0.318081 0.962497 0.44287
C_ C_ 0.896243 0.344814 0.50836 0.18498
C_ C_ 0.933609 0.379998 0.512973 -0.08735
C_ C_ 0.943588 0.395366 0.540621 -0.08735
C_ C_ 0.918967 0.372407 0.564399 -0.08735
C_ C_ 0.882958 0.334166 0.560311 0.18498
C_ C_ 0.870489 0.321626 0.531256 -0.05681
C_ C_ 0.837197 0.277903 0.527021 -0.08735
C_ C_ 0.82618 0.24565 0.54998 -0.08735
C_ C_ 0.842688 0.258515 0.57794 0.1947
N_ N_ 0.638899 0.165467 0.976489 -0.29468
N_ N_ 0.652302 0.193478 0.582316 -0.17154
N_ N_ 0.620683 0.157732 0.730521 -0.17154
N_ N_ 0.640341 0.190576 0.835187 -0.29468
N_ N_ 0.877116 0.34377 0.725969 -0.29468
N_ N_ 0.856913 0.31003 0.829306 -0.17154
N_ N_ 0.884515 0.323777 0.979027 -0.17154
N_ N_ 0.867923 0.304013 0.582877 -0.29468
O_ O_ 0.729232 0.171023 0.928167 -0.58347
O_ O_ 0.717704 0.193408 0.882807 -0.58347
O_ O_ 0.647696 0.248037 0.932764 -0.58347
O_ O_ 0.624153 0.251552 0.888081 -0.58347
O_ O_ 0.650917 0.0977822 0.925708 -0.58347
O_ O_ 0.657864 0.105853 0.878513 -0.58347
O_ O_ 0.575734 0.173797 0.929044 -0.58347
O_ O_ 0.567975 0.164742 0.882438 -0.58347
O_ O_ 0.567815 0.214785 0.579794 -0.46727
O_ O_ 0.736075 0.173411 0.586012 -0.46727
O_ O_ 0.536906 0.181641 0.726006 -0.46727
O_ O_ 0.705533 0.142235 0.734676 -0.46727
O_ O_ 0.798313 0.330563 0.675892 -0.58347
O_ O_ 0.805442 0.307901 0.631147 -0.58347
O_ O_ 0.872212 0.255388 0.680255 -0.58347
O_ O_ 0.894106 0.245049 0.636276 -0.58347
O_ O_ 0.8715 0.399913 0.670874 -0.58347
O_ O_ 0.866041 0.392795 0.624036 -0.58347
O_ O_ 0.946913 0.329569 0.675239 -0.58347
O_ O_ 0.955834 0.334571 0.628232 -0.58347
O_ O_ 0.942928 0.294148 0.82502 -0.46727
O_ O_ 0.769681 0.314485 0.835933 -0.46727
O_ O_ 0.971663 0.312214 0.974901 -0.46727
O_ O_ 0.797891 0.338509 0.982688 -0.46727
Zn Zn 0.619654 0.690501 0.382963 0.90689
Zn Zn 0.624459 0.680022 0.429323 0.90689
Zn Zn 0.872621 0.817021 0.130275 0.90689
Zn Zn 0.861298 0.820516 0.179181 0.90689
H_ H_ 0.79386 0.699148 0.446021 0.11455
H_ H_ 0.867844 0.687281 0.34884 0.11455
H_ H_ 0.773356 0.684875 0.354238 0.11455
H_ H_ 0.878193 0.691737 0.466262 0.11455
H_ H_ 0.973538 0.691472 0.460562 0.11455
H_ H_ 0.951492 0.677695 0.370015 0.11455
H_ H_ 0.610211 0.513951 0.442806 0.11455
H_ H_ 0.59745 0.938466 0.346246 0.11455
H_ H_ 0.659986 0.531915 0.353793 0.11455
H_ H_ 0.652013 0.932872 0.461011 0.11455
H_ H_ 0.644029 0.840171 0.45651 0.11455
H_ H_ 0.597599 0.854585 0.368877 0.11455
H_ H_ 0.567651 0.613762 0.466616 0.11455
H_ H_ 0.564067 0.567483 0.0120902 0.11455
H_ H_ 0.600289 0.609663 0.0561945 0.11455
H_ H_ 0.698868 0.733855 0.468963 0.11455
H_ H_ 0.729387 0.782327 0.018124 0.11455
H_ H_ 0.690787 0.771599 0.0649939 0.11455
H_ H_ 0.497478 0.720495 0.121523 0.11455
H_ H_ 0.483075 0.69994 0.172414 0.11455
H_ H_ 0.750415 0.67664 0.142345 0.11455
H_ H_ 0.736873 0.671654 0.194295 0.11455
H_ H_ 0.558146 0.590774 0.250629 0.11455
H_ H_ 0.540179 0.564234 0.298433 0.11455
H_ H_ 0.570301 0.619442 0.339031 0.11455
H_ H_ 0.627822 0.761755 0.259415 0.11455
H_ H_ 0.665709 0.806263 0.304379 0.11455
H_ H_ 0.670808 0.763402 0.347277 0.11455
H_ H_ 0.69708 0.822852 0.193095 0.11455
H_ H_ 0.619406 0.842645 0.0980903 0.11455
H_ H_ 0.714375 0.83678 0.104301 0.11455
H_ H_ 0.611705 0.815682 0.21431 0.11455
H_ H_ 0.522009 0.830173 0.209687 0.11455
H_ H_ 0.532063 0.826438 0.118516 0.11455
H_ H_ 0.853126 0.9857 0.190488 0.11455
H_ H_ 0.812222 0.561938 0.104242 0.11455
H_ H_ 0.876255 0.973197 0.0970297 0.11455
H_ H_ 0.902237 0.571069 0.210299 0.11455
H_ H_ 0.905067 0.662604 0.203991 0.11455
H_ H_ 0.825446 0.653328 0.124347 0.11455
H_ H_ 0.908791 0.902629 0.216738 0.11455
H_ H_ 0.931416 0.927341 0.267132 0.11455
H_ H_ 0.877673 0.888187 0.305194 0.11455
H_ H_ 0.801143 0.762662 0.222878 0.11455
H_ H_ 0.767347 0.71105 0.262337 0.11455
H_ H_ 0.791046 0.730038 0.311349 0.11455
H_ H_ 0.980038 0.808076 0.368611 0.11455
H_ H_ -0.007040999999999964 0.823818 0.420192 0.11455
H_ H_ 0.727082 0.825895 0.390461 0.11455
H_ H_ 0.74383 0.822548 0.441641 0.11455
H_ H_ 0.922369 0.932813 0.49877 0.11455
H_ H_ 0.950805 0.932915 0.0447328 0.11455
H_ H_ 0.9218 0.882321 0.0877582 0.11455
H_ H_ 0.82412 0.752782 0.0079508 0.11455
H_ H_ 0.796796 0.705138 0.0529066 0.11455
H_ H_ 0.814304 0.742145 0.0975712 0.11455
C_ C_ 0.720002 0.693404 0.404081 0.68181
C_ C_ 0.775545 0.68935 0.401463 -0.05681
C_ C_ 0.807985 0.69498 0.425326 -0.08735
C_ C_ 0.861749 0.691672 0.422396 -0.05681
C_ C_ 0.882558 0.689535 0.39408 -0.05681
C_ C_ 0.850613 0.688026 0.369944 -0.08735
C_ C_ 0.797275 0.686171 0.373763 -0.08735
C_ C_ 0.895131 0.693539 0.445875 -0.08735
C_ C_ 0.947747 0.687087 0.442603 -0.08735
C_ C_ 0.968709 0.68488 0.41534 -0.05681
C_ C_ 0.936121 0.684667 0.391166 -0.08735
C_ C_ 0.615012 0.784004 0.412913 0.68181
C_ C_ 0.625643 0.587081 0.39948 0.68181
C_ C_ 0.632003 0.532098 0.397528 -0.05681
C_ C_ 0.640139 0.999009 0.419561 -0.08735
C_ C_ 0.631319 0.947156 0.417003 -0.05681
C_ C_ 0.618749 0.925728 0.389857 -0.05681
C_ C_ 0.605068 0.955407 0.366674 -0.08735
C_ C_ 0.609305 1.00635158 0.370165 -0.08735
C_ C_ 0.641258 0.916144 0.440784 -0.08735
C_ C_ 0.634826 0.863657 0.438771 -0.08735
C_ C_ 0.621883 0.839289 0.41333 -0.05681
C_ C_ 0.61116 0.871788 0.388983 -0.08735
C_ C_ 0.523856 0.680002 0.40833 0.68181
C_ C_ 0.596156 0.626393 0.482555 0.1947
C_ C_ 0.588188 0.600368 0.00963327 -0.08735
C_ C_ 0.606999 0.626564 0.0347295 -0.08735
C_ C_ 0.63162 0.673345 0.0296401 -0.05681
C_ C_ 0.648041 0.685839 1.00138174 0.18498
C_ C_ 0.689903 0.727281 0.491185 -0.08735
C_ C_ 0.701079 0.752935 0.0209568 -0.08735
C_ C_ 0.678701 0.747845 0.0479465 -0.08735
C_ C_ 0.648919 0.704305 0.053322 0.18498
C_ C_ 0.676874 0.685539 0.100738 0.44287
C_ C_ 0.588209 0.705032 0.093074 0.44287
C_ C_ 0.579042 0.704209 0.123773 -0.05681
C_ C_ 0.530214 0.71229 0.135481 -0.08735
C_ C_ 0.523424 0.703203 0.165561 -0.08735
C_ C_ 0.564253 0.693999 0.183606 -0.05681
C_ C_ 0.614115 0.691373 0.172591 -0.05681
C_ C_ 0.620758 0.689751 0.14272 -0.05681
C_ C_ 0.6714 0.685784 0.131541 -0.05681
C_ C_ 0.712002 0.681432 0.15058 -0.08735
C_ C_ 0.703971 0.67633 0.180572 -0.08735
C_ C_ 0.655514 0.685781 0.192574 -0.05681
C_ C_ 0.646451 0.681348 0.221359 0.44287
C_ C_ 0.556853 0.6832 0.213406 0.44287
C_ C_ 0.588812 0.663083 0.261315 0.18498
C_ C_ 0.567678 0.615659 0.267237 -0.08735
C_ C_ 0.558351 0.600965 0.294808 -0.08735
C_ C_ 0.572096 0.633431 0.317903 -0.08735
C_ C_ 0.602053 0.677206 0.312089 0.18498
C_ C_ 0.604549 0.696302 0.284505 -0.05681
C_ C_ 0.62898 0.743049 0.280276 -0.08735
C_ C_ 0.652475 0.768317 0.303798 -0.08735
C_ C_ 0.649104 0.744894 0.330341 0.1947
C_ C_ 0.766753 0.811548 0.152434 0.68181
C_ C_ 0.711329 0.817462 0.148379 -0.05681
C_ C_ 0.679242 0.821672 0.172507 -0.08735
C_ C_ 0.626425 0.822186 0.17011 -0.05681
C_ C_ 0.604625 0.828805 0.142588 -0.05681
C_ C_ 0.635875 0.825602 0.11754 -0.08735
C_ C_ 0.688302 0.824983 0.122221 -0.08735
C_ C_ 0.59619 0.820063 0.193875 -0.08735
C_ C_ 0.544312 0.825416 0.19085 -0.08735
C_ C_ 0.521158 0.828523 0.164798 -0.05681
C_ C_ 0.551923 0.827553 0.140368 -0.08735
C_ C_ 0.871029 0.720929 0.1635 0.68181
C_ C_ 0.86006 0.916381 0.146657 0.68181
C_ C_ 0.87306 0.971688 0.144617 -0.05681
C_ C_ 0.888271 0.505186 0.167197 -0.08735
C_ C_ 0.880493 0.558546 0.166441 -0.05681
C_ C_ 0.856445 0.58168 0.14209 -0.05681
C_ C_ 0.833911 0.548262 0.121492 -0.08735
C_ C_ 0.877648 0.995205 0.117042 -0.08735
C_ C_ 0.888147 0.58801 0.190737 -0.08735
C_ C_ 0.88856 0.640078 0.187815 -0.08735
C_ C_ 0.869974 0.665126 0.162946 -0.05681
C_ C_ 0.84931 0.634579 0.141109 -0.08735
C_ C_ 0.9643 0.829034 0.159245 0.68181
C_ C_ 0.892735 0.882587 0.233889 0.1947
C_ C_ 0.901484 0.89929 0.261886 -0.08735
C_ C_ 0.873331 0.87579 0.283109 -0.08735
C_ C_ 0.847723 0.830423 0.278289 -0.05681
C_ C_ 0.837519 0.817498 0.249817 0.18498
C_ C_ 0.809455 0.772449 0.244038 -0.08735
C_ C_ 0.791829 0.741079 0.266217 -0.08735
C_ C_ 0.804726 0.755689 0.294436 -0.08735
C_ C_ 0.828505 0.799873 0.300907 0.18498
C_ C_ 0.797 0.818054 0.348615 0.44287
C_ C_ 0.884281 0.809391 0.34165 0.44287
C_ C_ 0.893985 0.812365 0.371536 -0.05681
C_ C_ 0.94369 0.814092 0.382568 -0.08735
C_ C_ 0.954646 0.822122 0.411129 -0.08735
C_ C_ 0.914863 0.834562 0.429651 -0.05681
C_ C_ 0.86394 0.83214 0.419095 -0.05681
C_ C_ 0.854162 0.823118 0.389252 -0.05681
C_ C_ 0.80491 0.827309 0.378338 -0.05681
C_ C_ 0.765567 0.832196 0.397662 -0.08735
C_ C_ 0.774696 0.825357 0.427153 -0.08735
C_ C_ 0.823274 0.834976 0.437817 -0.05681
C_ C_ 0.831469 0.840359 0.468195 0.44287
C_ C_ 0.920264 0.841476 0.459503 0.44287
C_ C_ 0.884694 0.839143 0.00871173 0.18498
C_ C_ 0.914262 0.885238 0.0137996 -0.08735
C_ C_ 0.926618 0.9004 0.0416795 -0.08735
C_ C_ 0.911908 0.869305 0.0654398 -0.08735
C_ C_ 0.88 0.826238 0.0613873 0.18498
C_ C_ 0.867751 0.809413 0.0326199 -0.05681
C_ C_ 0.838327 0.765423 0.0286833 -0.08735
C_ C_ 0.82194 0.738742 0.0534169 -0.08735
C_ C_ 0.831187 0.761894 0.0802564 0.1947
N_ N_ 0.627062 0.666393 0.47707 -0.29468
N_ N_ 0.635797 0.691753 0.0828119 -0.17154
N_ N_ 0.597926 0.678067 0.231443 -0.17154
N_ N_ 0.617289 0.705897 0.334228 -0.29468
N_ N_ 0.86437 0.839612 0.227955 -0.29468
N_ N_ 0.837206 0.812054 0.330801 -0.17154
N_ N_ 0.880261 0.847096 0.477863 -0.17154
N_ N_ 0.865994 0.797251 0.0837852 -0.29468
O_ O_ 0.698731 0.676004 0.426424 -0.58347
O_ O_ 0.693186 0.702309 0.382447 -0.58347
O_ O_ 0.626165 0.755942 0.43411 -0.58347
O_ O_ 0.608342 0.762933 0.388462 -0.58347
O_ O_ 0.618649 0.605235 0.424919 -0.58347
O_ O_ 0.630243 0.616085 0.377951 -0.58347
O_ O_ 0.551475 0.686746 0.429837 -0.58347
O_ O_ 0.543146 0.679367 0.383671 -0.58347
O_ O_ 0.549905 0.712237 0.0748234 -0.46727
O_ O_ 0.720953 0.672222 0.0909061 -0.46727
O_ O_ 0.510813 0.688834 0.224672 -0.46727
O_ O_ 0.686187 0.675085 0.238008 -0.46727
O_ O_ 0.785565 0.81251 0.177216 -0.58347
O_ O_ 0.795528 0.814534 0.131365 -0.58347
O_ O_ 0.875489 0.746629 0.186048 -0.58347
O_ O_ 0.868029 0.741952 0.139178 -0.58347
O_ O_ 0.854111 0.897306 0.170817 -0.58347
O_ O_ 0.871022 0.888555 0.125985 -0.58347
O_ O_ 0.936132 0.828872 0.181234 -0.58347
O_ O_ 0.947808 0.817439 0.133971 -0.58347
O_ O_ 0.923434 0.795245 0.324454 -0.46727
O_ O_ 0.751448 0.808694 0.33835 -0.46727
O_ O_ 0.965988 0.830722 0.471331 -0.46727
O_ O_ 0.794304 0.841715 0.485971 -0.46727
Zn Zn 0.634543 0.683413 0.879685 0.90689
Zn Zn 0.637207 0.672206 0.930208 0.90689
Zn Zn 0.873057 0.821448 0.631361 0.90689
Zn Zn 0.867241 0.824385 0.677672 0.90689
H_ H_ 0.809633 0.68369 0.949585 0.11455
H_ H_ 0.874086 0.660409 0.850993 0.11455
H_ H_ 0.783243 0.670198 0.857197 0.11455
H_ H_ 0.892174 0.679107 0.968214 0.11455
H_ H_ 0.987656 0.667114 0.961858 0.11455
H_ H_ 0.963799 0.674964 0.870153 0.11455
H_ H_ 0.622719 0.507171 0.940625 0.11455
H_ H_ 0.671593 0.930032 0.848613 0.11455
H_ H_ 0.641232 0.519462 0.850335 0.11455
H_ H_ 0.652528 0.923475 0.965812 0.11455
H_ H_ 0.630222 0.830872 0.961443 0.11455
H_ H_ 0.658724 0.843711 0.871385 0.11455
H_ H_ 0.581546 0.597327 0.96498 0.11455
H_ H_ 0.557272 0.587579 0.518009 0.11455
H_ H_ 0.610896 0.619673 0.554777 0.11455
H_ H_ 0.692784 0.738194 0.977031 0.11455
H_ H_ 0.746019 0.779653 0.507237 0.11455
H_ H_ 0.72022 0.771174 0.557759 0.11455
H_ H_ 0.524707 0.71116 0.617644 0.11455
H_ H_ 0.508778 0.69328 0.669365 0.11455
H_ H_ 0.772719 0.653553 0.636435 0.11455
H_ H_ 0.758711 0.653713 0.689094 0.11455
H_ H_ 0.566198 0.600204 0.745224 0.11455
H_ H_ 0.538018 0.58143 0.793284 0.11455
H_ H_ 0.570534 0.630069 0.835145 0.11455
H_ H_ 0.669306 0.750159 0.757707 0.11455
H_ H_ 0.720626 0.782447 0.797682 0.11455
H_ H_ 0.699951 0.752049 0.845637 0.11455
H_ H_ 0.699674 0.811637 0.692506 0.11455
H_ H_ 0.630414 0.831499 0.594163 0.11455
H_ H_ 0.7228 0.834735 0.601727 0.11455
H_ H_ 0.614786 0.809343 0.71279 0.11455
H_ H_ 0.522846 0.821907 0.707035 0.11455
H_ H_ 0.543405 0.829459 0.614606 0.11455
H_ H_ 0.87196 0.990924 0.693081 0.11455
H_ H_ 0.850528 0.568775 0.592617 0.11455
H_ H_ 0.828077 0.976746 0.606076 0.11455
H_ H_ 0.87365 0.572021 0.710673 0.11455
H_ H_ 0.887767 0.66605 0.705563 0.11455
H_ H_ 0.866968 0.652703 0.613992 0.11455
H_ H_ 0.916305 0.900162 0.715245 0.11455
H_ H_ 0.946646 0.919232 0.761049 0.11455
H_ H_ 0.915335 0.869687 0.803991 0.11455
H_ H_ 0.812772 0.754357 0.722532 0.11455
H_ H_ 0.791399 0.693333 0.762503 0.11455
H_ H_ 0.81579 0.714867 0.811728 0.11455
H_ H_ 1.00444 0.77829 0.87669 0.11455
H_ H_ 1.00630052 0.802344 0.927457 0.11455
H_ H_ 0.743503 0.812584 0.878831 0.11455
H_ H_ 0.750935 0.822886 0.932063 0.11455
H_ H_ 0.929334 0.906167 0.995593 0.11455
H_ H_ 0.912624 0.963706 0.547115 0.11455
H_ H_ 0.903885 0.903123 0.58689 0.11455
H_ H_ 0.85177 0.7622 0.504658 0.11455
H_ H_ 0.828558 0.707471 0.543992 0.11455
H_ H_ 0.825322 0.745225 0.59382 0.11455
C_ C_ 0.733469 0.678275 0.907589 0.68181
C_ C_ 0.78744 0.673316 0.904042 -0.05681
C_ C_ 0.821606 0.670608 0.927818 -0.08735
C_ C_ 0.875403 0.666566 0.922912 -0.05681
C_ C_ 0.896237 0.663236 0.89553 -0.05681
C_ C_ 0.860938 0.662507 0.87255 -0.08735
C_ C_ 0.807983 0.665689 0.876405 -0.08735
C_ C_ 0.909479 0.670684 0.946929 -0.08735
C_ C_ 0.961671 0.67245 0.943001 -0.08735
C_ C_ 0.982526 0.667835 0.915044 -0.05681
C_ C_ 0.948244 0.66535 0.890974 -0.08735
C_ C_ 0.634566 0.776739 0.912666 0.68181
C_ C_ 0.630479 0.579118 0.898829 0.68181
C_ C_ 0.631496 0.521541 0.896224 -0.05681
C_ C_ 0.643629 -0.005882000000000054 0.922673 -0.08735
C_ C_ 0.643655 0.940502 0.92073 -0.05681
C_ C_ 0.648515 0.915859 0.892831 -0.05681
C_ C_ 0.659846 0.945941 0.86965 -0.08735
C_ C_ 0.661199 -0.002422999999999953 0.871472 -0.08735
C_ C_ 0.642042 0.906881 0.945609 -0.08735
C_ C_ 0.637531 0.854987 0.942879 -0.08735
C_ C_ 0.639852 0.83208 0.91604 -0.05681
C_ C_ 0.649509 0.862986 0.891209 -0.08735
C_ C_ 0.539465 0.675303 0.906431 0.68181
C_ C_ 0.598175 0.616307 0.982407 0.1947
C_ C_ 0.58882 0.614548 0.510962 -0.08735
C_ C_ 0.616885 0.63494 0.533632 -0.08735
C_ C_ 0.646283 0.677031 0.5275 -0.05681
C_ C_ 0.653853 0.691236 0.498238 0.18498
C_ C_ 0.679484 0.72838 0.997647 -0.08735
C_ C_ 0.712447 0.757429 0.512817 -0.08735
C_ C_ 0.701632 0.747939 0.542201 -0.08735
C_ C_ 0.671281 0.706724 0.549908 0.18498
C_ C_ 0.701887 0.686847 0.597265 0.44287
C_ C_ 0.61485 0.705218 0.591931 0.44287
C_ C_ 0.604809 0.697108 0.621029 -0.05681
C_ C_ 0.556492 0.7036 0.632268 -0.08735
C_ C_ 0.546368 0.692473 0.661313 -0.08735
C_ C_ 0.587954 0.689596 0.680488 -0.05681
C_ C_ 0.637227 0.680441 0.668442 -0.05681
C_ C_ 0.644439 0.682336 0.639354 -0.05681
C_ C_ 0.694333 0.678468 0.626877 -0.05681
C_ C_ 0.734611 0.665587 0.64462 -0.08735
C_ C_ 0.726137 0.66319 0.674744 -0.08735
C_ C_ 0.678036 0.672679 0.685962 -0.05681
C_ C_ 0.670513 0.666149 0.715903 0.44287
C_ C_ 0.581709 0.686314 0.710652 0.44287
C_ C_ 0.613751 0.66204 0.756884 0.18498
C_ C_ 0.585187 0.618961 0.762783 -0.08735
C_ C_ 0.56743 0.609435 0.789929 -0.08735
C_ C_ 0.589127 0.633205 0.813487 -0.08735
C_ C_ 0.629074 0.668744 0.809583 0.18498
C_ C_ 0.639702 0.683723 0.780393 -0.05681
C_ C_ 0.665991 0.730391 0.777861 -0.08735
C_ C_ 0.6941 0.74934 0.800032 -0.08735
C_ C_ 0.683199 0.73178 0.827857 0.1947
C_ C_ 0.772083 0.820395 0.650906 0.68181
C_ C_ 0.717196 0.824368 0.647348 -0.05681
C_ C_ 0.684881 0.817478 0.670826 -0.08735
C_ C_ 0.632212 0.820268 0.6681 -0.05681
C_ C_ 0.610482 0.82015 0.640129 -0.05681
C_ C_ 0.644086 0.825751 0.616184 -0.08735
C_ C_ 0.697637 0.828688 0.619644 -0.08735
C_ C_ 0.599224 0.817241 0.691471 -0.08735
C_ C_ 0.546372 0.821411 0.687702 -0.08735
C_ C_ 0.526195 0.828375 0.659791 -0.05681
C_ C_ 0.558196 0.824698 0.635896 -0.08735
C_ C_ 0.874278 0.724679 0.658258 0.68181
C_ C_ 0.849397 0.921453 0.653165 0.68181
C_ C_ 0.850417 0.977684 0.649357 -0.05681
C_ C_ 0.863258 0.507772 0.66946 -0.08735
C_ C_ 0.86329 0.561059 0.665761 -0.05681
C_ C_ 0.864491 0.58291 0.638108 -0.05681
C_ C_ 0.860007 0.550344 0.613835 -0.08735
C_ C_ 0.840215 0.999589968 0.623609 -0.08735
C_ C_ 0.87059 0.591961 0.68971 -0.08735
C_ C_ 0.878064 0.644424 0.687032 -0.08735
C_ C_ 0.876989 0.668772 0.659971 -0.05681
C_ C_ 0.868425 0.636296 0.635453 -0.08735
C_ C_ 0.97093 0.828648 0.658162 0.68181
C_ C_ 0.90341 0.873329 0.732489 0.1947
C_ C_ 0.918046 0.888529 0.758793 -0.08735
C_ C_ 0.908243 0.855627 0.782099 -0.08735
C_ C_ 0.876815 0.81304 0.778324 -0.05681
C_ C_ 0.860252 0.801419 0.749758 0.18498
C_ C_ 0.830015 0.759879 0.743648 -0.08735
C_ C_ 0.81882 0.724527 0.765382 -0.08735
C_ C_ 0.833903 0.736938 0.793701 -0.08735
C_ C_ 0.867445 0.77849 0.799906 0.18498
C_ C_ 0.829442 0.808766 0.844008 0.44287
C_ C_ 0.914584 0.789153 0.843187 0.44287
C_ C_ 0.920958 0.796899 0.872759 -0.05681
C_ C_ 0.968333 0.791848 0.887461 -0.08735
C_ C_ 0.96865 0.802258 0.917143 -0.08735
C_ C_ 0.925304 0.811456 0.933374 -0.05681
C_ C_ 0.878754 0.814914 0.918455 -0.05681
C_ C_ 0.875831 0.809253 0.888659 -0.05681
C_ C_ 0.829408 0.814113 0.874299 -0.05681
C_ C_ 0.782807 0.819508 0.889615 -0.08735
C_ C_ 0.786625 0.820931 0.919418 -0.08735
C_ C_ 0.835154 0.819985 0.934504 -0.05681
C_ C_ 0.837856 0.827464 0.96522 0.44287
C_ C_ 0.925306 0.811402 0.963497 0.44287
C_ C_ 0.887558 0.858147 0.508265 0.18498
C_ C_ 0.90496 0.907865 0.514711 -0.08735
C_ C_ 0.911426 0.924391 0.543648 -0.08735
C_ C_ 0.897423 0.890489 0.565845 -0.08735
C_ C_ 0.88451 0.840631 0.559505 0.18498
C_ C_ 0.876898 0.824778 0.530532 -0.05681
C_ C_ 0.853084 0.778777 0.525595 -0.08735
C_ C_ 0.838901 0.748064 0.548648 -0.08735
C_ C_ 0.843198 0.765519 0.576632 0.1947
N_ N_ 0.62804 0.658442 0.978712 -0.29468
N_ N_ 0.661724 0.698588 0.580461 -0.17154
N_ N_ 0.623447 0.677053 0.728508 -0.17154
N_ N_ 0.649317 0.694063 0.83257 -0.29468
N_ N_ 0.874931 0.830799 0.727638 -0.29468
N_ N_ 0.870921 0.792985 0.829706 -0.17154
N_ N_ 0.882842 0.821763 0.978911 -0.17154
N_ N_ 0.867838 0.80906 0.581925 -0.29468
O_ O_ 0.712163 0.677738 0.931847 -0.58347
O_ O_ 0.707593 0.681148 0.884046 -0.58347
O_ O_ 0.633747 0.748344 0.93399 -0.58347
O_ O_ 0.638761 0.757949 0.887188 -0.58347
O_ O_ 0.638662 0.598012 0.923312 -0.58347
O_ O_ 0.633335 0.607511 0.876891 -0.58347
O_ O_ 0.564174 0.669612 0.92833 -0.58347
O_ O_ 0.56006 0.677826 0.882158 -0.58347
O_ O_ 0.577732 0.71639 0.57472 -0.46727
O_ O_ 0.745826 0.673836 0.584335 -0.46727
O_ O_ 0.536832 0.687524 0.720968 -0.46727
O_ O_ 0.707785 0.647305 0.732006 -0.46727
O_ O_ 0.79205 0.820205 0.67646 -0.58347
O_ O_ 0.800882 0.814442 0.630086 -0.58347
O_ O_ 0.874706 0.751268 0.680782 -0.58347
O_ O_ 0.877583 0.746463 0.633669 -0.58347
O_ O_ 0.856889 0.901594 0.677396 -0.58347
O_ O_ 0.858129 0.894581 0.631152 -0.58347
O_ O_ 0.941648 0.824927 0.679798 -0.58347
O_ O_ 0.950613 0.831259 0.633541 -0.58347
O_ O_ 0.951174 0.765484 0.828506 -0.46727
O_ O_ 0.786224 0.818052 0.83048 -0.46727
O_ O_ 0.966206 0.798999 0.978112 -0.46727
O_ O_ 0.797166 0.836848 0.980005 -0.46727
_cell_length_a 26.376
_cell_length_b 26.400000238300095
_cell_length_c 46.67800035477134
_cell_angle_alpha 90.00700052986613
_cell_angle_beta 89.99899961309502
_cell_angle_gamma 90.45000003183146
_symmetry_space_group_name_H-M         'P 1'
_symmetry_Int_Tables_number            1
loop_
_symmetry_equiv_pos_as_xyz
   'x, y, z'
                         
loop_
_atom_site_label
_atom_site_type_symbol
_atom_site_fract_x 
_atom_site_fract_y
_atom_site_fract_z
_atom_site_charge
Zn Zn 0.123958 0.18462 0.381792 0.90689
Zn Zn 0.131932 0.172488 0.430086 0.90689
Zn Zn 0.370738 0.320592 0.132572 0.90689
Zn Zn 0.363764 0.320499 0.179437 0.90689
H_ H_ 0.299024 0.211034 0.441029 0.11455
H_ H_ 0.367607 0.146963 0.347767 0.11455
H_ H_ 0.278603 0.15017 0.357038 0.11455
H_ H_ 0.383151 0.2032 0.460554 0.11455
H_ H_ 0.478507 0.194825 0.455283 0.11455
H_ H_ 0.454615 0.152887 0.366104 0.11455
H_ H_ 0.0889077 0.0115852 0.440565 0.11455
H_ H_ 0.0849446 0.433435 0.351541 0.11455
H_ H_ 0.152934 0.0215833 0.357874 0.11455
H_ H_ 0.147494 0.426333 0.464148 0.11455
H_ H_ 0.137895 0.334061 0.461273 0.11455
H_ H_ 0.0845917 0.349116 0.374203 0.11455
H_ H_ 0.0794778 0.102955 0.467821 0.11455
H_ H_ 0.096364 0.0627706 0.0102667 0.11455
H_ H_ 0.135547 0.108176 0.0537275 0.11455
H_ H_ 0.191636 0.245271 0.47211 0.11455
H_ H_ 0.214998 0.299394 0.01049 0.11455
H_ H_ 0.191701 0.28285 0.0585898 0.11455
H_ H_ 0.0103833 0.2116 0.121132 0.11455
H_ H_ -0.0044239999999999835 0.190363 0.171671 0.11455
H_ H_ 0.259528 0.170577 0.137363 0.11455
H_ H_ 0.247808 0.167672 0.1888 0.11455
H_ H_ 0.0610462 0.089722 0.249669 0.11455
H_ H_ 0.0490459 0.0651419 0.300844 0.11455
H_ H_ 0.0708974 0.125721 0.337754 0.11455
H_ H_ 0.152838 0.247563 0.256555 0.11455
H_ H_ 0.190638 0.29306 0.298164 0.11455
H_ H_ 0.187233 0.25666 0.345527 0.11455
H_ H_ 0.191904 0.292643 0.193696 0.11455
H_ H_ 0.12272 0.355125 0.10157 0.11455
H_ H_ 0.213945 0.358419 0.108266 0.11455
H_ H_ 0.110323 0.303403 0.216273 0.11455
H_ H_ 0.0191945 0.30221 0.209001 0.11455
H_ H_ 0.0386829 0.336294 0.118973 0.11455
H_ H_ 0.380146 0.48659 0.190861 0.11455
H_ H_ 0.348622 0.0672505 0.0987849 0.11455
H_ H_ 0.338925 0.482057 0.103014 0.11455
H_ H_ 0.400927 0.0748886 0.21323 0.11455
H_ H_ 0.382621 0.164043 0.211119 0.11455
H_ H_ 0.360807 0.153226 0.120507 0.11455
H_ H_ 0.410628 0.394036 0.214599 0.11455
H_ H_ 0.42531 0.422693 0.263078 0.11455
H_ H_ 0.391047 0.376167 0.305477 0.11455
H_ H_ 0.304519 0.249937 0.22139 0.11455
H_ H_ 0.276023 0.196825 0.261543 0.11455
H_ H_ 0.283331 0.230899 0.310989 0.11455
H_ H_ 0.483274 0.326935 0.368725 0.11455
H_ H_ 0.491796 0.328599 0.42267 0.11455
H_ H_ 0.227278 0.322144 0.387821 0.11455
H_ H_ 0.240449 0.331892 0.439796 0.11455
H_ H_ 0.41227 0.421691 0.498763 0.11455
H_ H_ 0.446595 0.434066 0.0497996 0.11455
H_ H_ 0.430126 0.377044 0.0859703 0.11455
H_ H_ 0.324995 0.25548 0.00875139 0.11455
H_ H_ 0.297936 0.208374 0.0523669 0.11455
H_ H_ 0.314938 0.239871 0.0999603 0.11455
C_ C_ 0.227163 0.176876 0.404922 0.68181
C_ C_ 0.281837 0.180174 0.400483 -0.05681
C_ C_ 0.314942 0.193597 0.422179 -0.08735
C_ C_ 0.367103 0.190704 0.417512 -0.05681
C_ C_ 0.38626 0.174294 0.391174 -0.05681
C_ C_ 0.353696 0.160775 0.368501 -0.08735
C_ C_ 0.303378 0.162986 0.373661 -0.08735
C_ C_ 0.399604 0.194227 0.440279 -0.08735
C_ C_ 0.451632 0.189628 0.437487 -0.08735
C_ C_ 0.472964 0.181294 0.41 -0.05681
C_ C_ 0.440847 0.168431 0.386518 -0.08735
C_ C_ 0.119921 0.278424 0.411019 0.68181
C_ C_ 0.1224 0.0791523 0.400551 0.68181
C_ C_ 0.116849 0.0236443 0.398074 -0.05681
C_ C_ 0.133334 0.493111 0.421869 -0.08735
C_ C_ 0.128026 0.440531 0.420482 -0.05681
C_ C_ 0.110429 0.41781 0.394129 -0.05681
C_ C_ 0.0994918 0.449456 0.371253 -0.08735
C_ C_ 0.111227 0.501495 0.372447 -0.08735
C_ C_ 0.135876 0.408853 0.444981 -0.08735
C_ C_ 0.128459 0.357329 0.442934 -0.08735
C_ C_ 0.115388 0.335346 0.416217 -0.05681
C_ C_ 0.100764 0.366543 0.393555 -0.08735
C_ C_ 0.0286642 0.178437 0.401778 0.68181
C_ C_ 0.0923327 0.129291 0.484773 0.1947
C_ C_ 0.117875 0.0970212 0.00813989 -0.08735
C_ C_ 0.13721 0.121392 0.0318114 -0.08735
C_ C_ 0.156013 0.17078 0.0276993 -0.05681
C_ C_ 0.170227 0.184926 0.998659 0.18498
C_ C_ 0.180718 0.235237 0.493651 -0.08735
C_ C_ 0.201572 0.264524 0.0147662 -0.08735
C_ C_ 0.178679 0.257133 0.0419187 -0.08735
C_ C_ 0.157842 0.209103 0.0494133 0.18498
C_ C_ 0.185601 0.183813 0.0964114 0.44287
C_ C_ 0.0978289 0.199128 0.0893384 0.44287
C_ C_ 0.0900613 0.195913 0.12049 -0.05681
C_ C_ 0.0414479 0.1993 0.133709 -0.08735
C_ C_ 0.0354974 0.192737 0.163189 -0.08735
C_ C_ 0.0765112 0.18339 0.180678 -0.05681
C_ C_ 0.125194 0.183561 0.168519 -0.05681
C_ C_ 0.13029 0.187361 0.138744 -0.05681
C_ C_ 0.178506 0.182666 0.127083 -0.05681
C_ C_ 0.219531 0.169246 0.145164 -0.08735
C_ C_ 0.213942 0.170407 0.174663 -0.08735
C_ C_ 0.165755 0.177704 0.186151 -0.05681
C_ C_ 0.159061 0.172501 0.216538 0.44287
C_ C_ 0.0701247 0.181491 0.210992 0.44287
C_ C_ 0.101725 0.161625 0.258901 0.18498
C_ C_ 0.0746774 0.117174 0.266209 -0.08735
C_ C_ 0.0692704 0.102618 0.295095 -0.08735
C_ C_ 0.0759381 0.138363 0.316535 -0.08735
C_ C_ 0.108293 0.176341 0.311303 0.18498
C_ C_ 0.120449 0.189555 0.282272 -0.05681
C_ C_ 0.14516 0.235619 0.277812 -0.08735
C_ C_ 0.1711 0.259644 0.300259 -0.08735
C_ C_ 0.162898 0.241695 0.328671 0.1947
C_ C_ 0.267285 0.314943 0.153807 0.68181
C_ C_ 0.211843 0.317503 0.149869 -0.05681
C_ C_ 0.177024 0.305108 0.172914 -0.08735
C_ C_ 0.124209 0.31228 0.170148 -0.05681
C_ C_ 0.105178 0.327173 0.143261 -0.05681
C_ C_ 0.137326 0.337018 0.120986 -0.08735
C_ C_ 0.190681 0.338618 0.125696 -0.08735
C_ C_ 0.0933917 0.308864 0.19537 -0.08735
C_ C_ 0.0415482 0.312145 0.190374 -0.08735
C_ C_ 0.0201126 0.317417 0.16231 -0.05681
C_ C_ 0.0534193 0.327131 0.139841 -0.08735
C_ C_ 0.371186 0.222788 0.163047 0.68181
C_ C_ 0.363818 0.42236 0.148866 0.68181
C_ C_ 0.361521 0.478209 0.148046 -0.05681
C_ C_ 0.38046 0.00697538 0.173647 -0.08735
C_ C_ 0.372922 0.0583755 0.171339 -0.05681
C_ C_ 0.361113 0.0820607 0.144348 -0.05681
C_ C_ 0.356131 0.0498067 0.119887 -0.08735
C_ C_ 0.351569 0.503976 0.122242 -0.08735
C_ C_ 0.385896 0.0906256 0.193036 -0.08735
C_ C_ 0.377388 0.142835 0.191703 -0.08735
C_ C_ 0.368831 0.166418 0.165517 -0.05681
C_ C_ 0.3631 0.136144 0.141792 -0.08735
C_ C_ 0.464696 0.327746 0.155859 0.68181
C_ C_ 0.392375 0.373091 0.231865 0.1947
C_ C_ 0.397783 0.392789 0.260425 -0.08735
C_ C_ 0.382412 0.362901 0.283405 -0.08735
C_ C_ 0.355522 0.317425 0.278838 -0.05681
C_ C_ 0.346778 0.302163 0.249057 0.18498
C_ C_ 0.315842 0.259846 0.243896 -0.08735
C_ C_ 0.295389 0.232753 0.266204 -0.08735
C_ C_ 0.304288 0.246901 0.294333 -0.08735
C_ C_ 0.338111 0.287803 0.302123 0.18498
C_ C_ 0.3035 0.316606 0.347659 0.44287
C_ C_ 0.39114 0.30276 0.343275 0.44287
C_ C_ 0.400994 0.318386 0.371724 -0.05681
C_ C_ 0.449634 0.322579 0.38309 -0.08735
C_ C_ 0.456723 0.323659 0.413256 -0.08735
C_ C_ 0.413822 0.324496 0.431736 -0.05681
C_ C_ 0.364669 0.324042 0.419516 -0.05681
C_ C_ 0.357765 0.323299 0.389935 -0.05681
C_ C_ 0.308413 0.322662 0.377775 -0.05681
C_ C_ 0.266031 0.324665 0.396006 -0.08735
C_ C_ 0.273408 0.328704 0.426016 -0.08735
C_ C_ 0.321638 0.329928 0.437941 -0.05681
C_ C_ 0.330713 0.332461 0.468563 0.44287
C_ C_ 0.420328 0.326707 0.461591 0.44287
C_ C_ 0.385273 0.345016 0.00958397 0.18498
C_ C_ 0.404021 0.393978 0.0169372 -0.08735
C_ C_ 0.426337 0.399151 0.0443276 -0.08735
C_ C_ 0.415668 0.365175 0.0663745 -0.08735
C_ C_ 0.386232 0.322206 0.0610823 0.18498
C_ C_ 0.370336 0.311423 0.03299 -0.05681
C_ C_ 0.337435 0.270496 0.0297785 -0.08735
C_ C_ 0.314613 0.246514 0.0549993 -0.08735
C_ C_ 0.328484 0.262292 0.0819336 0.1947
N_ N_ 0.120188 0.169782 0.477312 -0.29468
N_ N_ 0.146519 0.197928 0.078866 -0.17154
N_ N_ 0.11184 0.173072 0.228366 -0.17154
N_ N_ 0.134107 0.200035 0.333517 -0.29468
N_ N_ 0.365408 0.330022 0.226335 -0.29468
N_ N_ 0.343357 0.303137 0.331765 -0.17154
N_ N_ 0.379057 0.332342 0.479031 -0.17154
N_ N_ 0.365784 0.298255 0.0836565 -0.29468
O_ O_ 0.208881 0.174753 0.430274 -0.58347
O_ O_ 0.198129 0.184839 0.383546 -0.58347
O_ O_ 0.122798 0.250817 0.432297 -0.58347
O_ O_ 0.129447 0.261837 0.386691 -0.58347
O_ O_ 0.127894 0.0989894 0.425606 -0.58347
O_ O_ 0.124394 0.106655 0.378703 -0.58347
O_ O_ 0.0564615 0.169538 0.423531 -0.58347
O_ O_ 0.0481444 0.188506 0.378289 -0.58347
O_ O_ 0.0593243 0.209534 0.0723594 -0.46727
O_ O_ 0.232739 0.182307 0.0859191 -0.46727
O_ O_ 0.0256626 0.188307 0.222575 -0.46727
O_ O_ 0.19761 0.164097 0.233927 -0.46727
O_ O_ 0.287698 0.30319 0.177883 -0.58347
O_ O_ 0.295224 0.325753 0.131834 -0.58347
O_ O_ 0.379756 0.247944 0.184804 -0.58347
O_ O_ 0.366001 0.245848 0.139206 -0.58347
O_ O_ 0.349135 0.398367 0.170999 -0.58347
O_ O_ 0.374488 0.396463 0.126739 -0.58347
O_ O_ 0.434795 0.341203 0.175798 -0.58347
O_ O_ 0.444407 0.316587 0.132067 -0.58347
O_ O_ 0.431335 0.298163 0.3258 -0.46727
O_ O_ 0.258803 0.31816 0.336225 -0.46727
O_ O_ 0.460912 0.308528 0.4716 -0.46727
O_ O_ 0.292296 0.337999 0.486298 -0.46727
Zn Zn 0.139296 0.180782 0.88262 0.90689
Zn Zn 0.152122 0.175349 0.928398 0.90689
Zn Zn 0.38232 0.308153 0.631553 0.90689
Zn Zn 0.369861 0.307681 0.679707 0.90689
H_ H_ 0.31638 0.189994 0.944097 0.11455
H_ H_ 0.385255 0.151813 0.847129 0.11455
H_ H_ 0.295126 0.166699 0.854031 0.11455
H_ H_ 0.403935 0.186775 0.964871 0.11455
H_ H_ 0.494066 0.177482 0.956539 0.11455
H_ H_ 0.472464 0.168457 0.865522 0.11455
H_ H_ 0.153917 0.00821323 0.94211 0.11455
H_ H_ 0.138151 0.431028 0.844379 0.11455
H_ H_ 0.123775 0.0178298 0.850865 0.11455
H_ H_ 0.0917246 0.423141 0.958979 0.11455
H_ H_ 0.0908393 0.326217 0.953555 0.11455
H_ H_ 0.139341 0.344973 0.865668 0.11455
H_ H_ 0.110368 0.0976536 0.962844 0.11455
H_ H_ 0.0602507 0.0825903 0.518332 0.11455
H_ H_ 0.0913697 0.133025 0.557814 0.11455
H_ H_ 0.200557 0.244399 0.971554 0.11455
H_ H_ 0.208072 0.305066 0.507478 0.11455
H_ H_ 0.181181 0.293763 0.557758 0.11455
H_ H_ 0.00648143 0.194429 0.628757 0.11455
H_ H_ -0.0005990000000000162 0.188696 0.679976 0.11455
H_ H_ 0.25701 0.178434 0.635159 0.11455
H_ H_ 0.25593 0.178633 0.687933 0.11455
H_ H_ 0.0824098 0.0797608 0.750771 0.11455
H_ H_ 0.0601705 0.0565754 0.799673 0.11455
H_ H_ 0.0788155 0.115283 0.838349 0.11455
H_ H_ 0.16876 0.240845 0.758954 0.11455
H_ H_ 0.196415 0.290631 0.798373 0.11455
H_ H_ 0.195013 0.251646 0.84673 0.11455
H_ H_ 0.201951 0.304435 0.693323 0.11455
H_ H_ 0.135902 0.335284 0.596306 0.11455
H_ H_ 0.228998 0.330032 0.605366 0.11455
H_ H_ 0.116605 0.327703 0.712929 0.11455
H_ H_ 0.0245833 0.317544 0.703869 0.11455
H_ H_ 0.0533769 0.312528 0.613923 0.11455
H_ H_ 0.361002 0.476888 0.6925 0.11455
H_ H_ 0.366494 0.0601295 0.596664 0.11455
H_ H_ 0.389496 0.467679 0.602399 0.11455
H_ H_ 0.378346 0.0639479 0.71571 0.11455
H_ H_ 0.38789 0.158548 0.711225 0.11455
H_ H_ 0.369921 0.137895 0.61835 0.11455
H_ H_ 0.426871 0.380677 0.716687 0.11455
H_ H_ 0.423498 0.422553 0.761751 0.11455
H_ H_ 0.387748 0.376627 0.80353 0.11455
H_ H_ 0.319576 0.239191 0.723495 0.11455
H_ H_ 0.273813 0.1969 0.761572 0.11455
H_ H_ 0.290189 0.2202 0.812916 0.11455
H_ H_ 0.481086 0.287029 0.872431 0.11455
H_ H_ 0.494122 0.304374 0.923937 0.11455
H_ H_ 0.237031 0.352694 0.886631 0.11455
H_ H_ 0.243706 0.344468 0.937831 0.11455
H_ H_ 0.410735 0.420417 0.0011099999999999444 0.11455
H_ H_ 0.452472 0.434272 0.546935 0.11455
H_ H_ 0.445843 0.374062 0.584099 0.11455
H_ H_ 0.335919 0.257947 0.507027 0.11455
H_ H_ 0.298424 0.217826 0.54995 0.11455
H_ H_ 0.321188 0.243385 0.59842 0.11455
C_ C_ 0.243643 0.178536 0.905393 0.68181
C_ C_ 0.29791 0.179477 0.899781 -0.05681
C_ C_ 0.332941 0.186396 0.921794 -0.08735
C_ C_ 0.385357 0.180513 0.918334 -0.05681
C_ C_ 0.406456 0.169112 0.891244 -0.05681
C_ C_ 0.37149 0.16367 0.86751 -0.08735
C_ C_ 0.318131 0.17053 0.872709 -0.08735
C_ C_ 0.417053 0.17826 0.94274 -0.08735
C_ C_ 0.470016 0.171863 0.938841 -0.08735
C_ C_ 0.492883 0.168059 0.912004 -0.05681
C_ C_ 0.458273 0.166779 0.888099 -0.08735
C_ C_ 0.139357 0.277725 0.910221 0.68181
C_ C_ 0.14738 0.0788694 0.89926 0.68181
C_ C_ 0.138582 0.0225067 0.897517 -0.05681
C_ C_ 0.130468 0.488904 0.920503 -0.08735
C_ C_ 0.118238 0.437843 0.916328 -0.05681
C_ C_ 0.127391 0.414415 0.888489 -0.05681
C_ C_ 0.131511 0.44605 0.864098 -0.08735
C_ C_ 0.135028 0.499446 0.868242 -0.08735
C_ C_ 0.0996233 0.404554 0.938583 -0.08735
C_ C_ 0.104497 0.352773 0.936227 -0.08735
C_ C_ 0.123643 0.331297 0.910936 -0.05681
C_ C_ 0.128126 0.360378 0.886406 -0.08735
C_ C_ 0.0477901 0.186431 0.910458 0.68181
C_ C_ 0.126992 0.114916 0.980436 0.1947
C_ C_ 0.0816305 0.115784 0.513442 -0.08735
C_ C_ 0.0997933 0.145804 0.535407 -0.08735
C_ C_ 0.130202 0.186516 0.529442 -0.05681
C_ C_ 0.142919 0.196724 0.499821 0.18498
C_ C_ 0.192496 0.232516 0.9927 -0.08735
C_ C_ 0.194904 0.268011 0.515504 -0.08735
C_ C_ 0.17546 0.262497 0.543562 -0.08735
C_ C_ 0.147474 0.219182 0.552506 0.18498
C_ C_ 0.18147 0.195796 0.599415 0.44287
C_ C_ 0.0922228 0.206597 0.59571 0.44287
C_ C_ 0.0876906 0.200263 0.625308 -0.05681
C_ C_ 0.0416772 0.191711 0.640411 -0.08735
C_ C_ 0.0384611 0.192465 0.670172 -0.08735
C_ C_ 0.0814169 0.194194 0.686587 -0.05681
C_ C_ 0.128664 0.192534 0.672698 -0.05681
C_ C_ 0.131899 0.19495 0.642298 -0.05681
C_ C_ 0.177846 0.191874 0.628815 -0.05681
C_ C_ 0.221285 0.186075 0.645631 -0.08735
C_ C_ 0.218911 0.183282 0.675411 -0.08735
C_ C_ 0.172478 0.185549 0.689221 -0.05681
C_ C_ 0.166372 0.16819 0.718015 0.44287
C_ C_ 0.0789116 0.184109 0.716156 0.44287
C_ C_ 0.113932 0.153482 0.760847 0.18498
C_ C_ 0.0939041 0.105 0.766315 -0.08735
C_ C_ 0.0798513 0.0929375 0.795021 -0.08735
C_ C_ 0.0939378 0.123129 0.817765 -0.08735
C_ C_ 0.119871 0.168881 0.812702 0.18498
C_ C_ 0.13027 0.182791 0.784547 -0.05681
C_ C_ 0.158299 0.228381 0.77995 -0.08735
C_ C_ 0.177048 0.254205 0.803231 -0.08735
C_ C_ 0.172086 0.234274 0.830454 0.1947
C_ C_ 0.277052 0.310965 0.655797 0.68181
C_ C_ 0.223463 0.320765 0.650305 -0.05681
C_ C_ 0.188762 0.317153 0.673831 -0.08735
C_ C_ 0.136704 0.324543 0.668474 -0.05681
C_ C_ 0.117666 0.330056 0.640353 -0.05681
C_ C_ 0.15147 0.33332 0.617879 -0.08735
C_ C_ 0.204506 0.331104 0.622595 -0.08735
C_ C_ 0.102698 0.324783 0.691688 -0.08735
C_ C_ 0.0505207 0.318433 0.686282 -0.08735
C_ C_ 0.0312404 0.32488 0.658157 -0.05681
C_ C_ 0.066458 0.321673 0.635248 -0.08735
C_ C_ 0.376381 0.211572 0.661667 0.68181
C_ C_ 0.377774 0.409159 0.650364 0.68181
C_ C_ 0.377438 0.465676 0.647726 -0.05681
C_ C_ 0.366586 -0.0020320000000000338 0.671607 -0.08735
C_ C_ 0.375365 0.0496042 0.669425 -0.05681
C_ C_ 0.374632 0.0712561 0.642061 -0.05681
C_ C_ 0.370092 0.042096 0.616649 -0.08735
C_ C_ 0.385242 0.490519 0.621882 -0.08735
C_ C_ 0.379922 0.0797657 0.694864 -0.08735
C_ C_ 0.383788 0.13356 0.692011 -0.08735
C_ C_ 0.377905 0.157455 0.664782 -0.05681
C_ C_ 0.377109 0.1257 0.640315 -0.08735
C_ C_ 0.475739 0.306717 0.654796 0.68181
C_ C_ 0.402185 0.365987 0.732179 0.1947
C_ C_ 0.40582 0.387704 0.759065 -0.08735
C_ C_ 0.384825 0.360246 0.782009 -0.08735
C_ C_ 0.356701 0.315824 0.77819 -0.05681
C_ C_ 0.351744 0.297573 0.74961 0.18498
C_ C_ 0.322522 0.254136 0.744318 -0.08735
C_ C_ 0.29732 0.229979 0.766748 -0.08735
C_ C_ 0.30744 0.241133 0.795222 -0.08735
C_ C_ 0.335285 0.28625 0.801288 0.18498
C_ C_ 0.308503 0.323443 0.847307 0.44287
C_ C_ 0.392652 0.292872 0.843484 0.44287
C_ C_ 0.402507 0.30766 0.871819 -0.05681
C_ C_ 0.449101 0.298581 0.884535 -0.08735
C_ C_ 0.453806 0.300488 0.914619 -0.08735
C_ C_ 0.411779 0.308582 0.933487 -0.05681
C_ C_ 0.367047 0.321923 0.921218 -0.05681
C_ C_ 0.360406 0.318964 0.890831 -0.05681
C_ C_ 0.312514 0.330219 0.877156 -0.05681
C_ C_ 0.273561 0.341714 0.895146 -0.08735
C_ C_ 0.276694 0.339731 0.925324 -0.08735
C_ C_ 0.324075 0.331051 0.937588 -0.05681
C_ C_ 0.330223 0.341649 0.966581 0.44287
C_ C_ 0.417896 0.315079 0.962975 0.44287
C_ C_ 0.38959 0.344936 0.508821 0.18498
C_ C_ 0.408245 0.393905 0.51536 -0.08735
C_ C_ 0.425097 0.404335 0.543466 -0.08735
C_ C_ 0.419079 0.369572 0.565678 -0.08735
C_ C_ 0.390993 0.325707 0.562343 0.18498
C_ C_ 0.37935 0.311673 0.532798 -0.05681
C_ C_ 0.350136 0.268453 0.528577 -0.08735
C_ C_ 0.327651 0.244215 0.55293 -0.08735
C_ C_ 0.337154 0.262209 0.580539 0.1947
N_ N_ 0.155434 0.154157 0.975325 -0.29468
N_ N_ 0.138883 0.20787 0.582531 -0.17154
N_ N_ 0.119272 0.168969 0.730563 -0.17154
N_ N_ 0.139002 0.194382 0.835352 -0.29468
N_ N_ 0.372441 0.324325 0.727411 -0.29468
N_ N_ 0.34697 0.302947 0.831332 -0.17154
N_ N_ 0.376213 0.330509 0.979689 -0.17154
N_ N_ 0.374852 0.29746 0.584434 -0.29468
O_ O_ 0.228488 0.186561 0.9305 -0.58347
O_ O_ 0.21433 0.173471 0.884806 -0.58347
O_ O_ 0.14111 0.251725 0.933882 -0.58347
O_ O_ 0.146953 0.255326 0.887964 -0.58347
O_ O_ 0.163481 0.0985941 0.921793 -0.58347
O_ O_ 0.136528 0.107033 0.87858 -0.58347
O_ O_ 0.0746004 0.164271 0.927923 -0.58347
O_ O_ 0.0652045 0.192741 0.885189 -0.58347
O_ O_ 0.0512957 0.204649 0.580541 -0.46727
O_ O_ 0.226981 0.186181 0.586503 -0.46727
O_ O_ 0.0343096 0.184602 0.728925 -0.46727
O_ O_ 0.206137 0.153143 0.733443 -0.46727
O_ O_ 0.290604 0.299022 0.680562 -0.58347
O_ O_ 0.305476 0.307419 0.634236 -0.58347
O_ O_ 0.381949 0.239008 0.683748 -0.58347
O_ O_ 0.382805 0.229789 0.636849 -0.58347
O_ O_ 0.362791 0.386996 0.673377 -0.58347
O_ O_ 0.387118 0.381973 0.628538 -0.58347
O_ O_ 0.445331 0.309671 0.675997 -0.58347
O_ O_ 0.458297 0.306361 0.630138 -0.58347
O_ O_ 0.430247 0.273287 0.829445 -0.46727
O_ O_ 0.266595 0.337836 0.835357 -0.46727
O_ O_ 0.459119 0.297478 0.975951 -0.46727
O_ O_ 0.293602 0.35719 0.983018 -0.46727
Zn Zn 0.118753 0.68463 0.382647 0.90689
Zn Zn 0.129317 0.676726 0.431755 0.90689
Zn Zn 0.368616 0.822272 0.135493 0.90689
Zn Zn 0.361308 0.818555 0.184644 0.90689
H_ H_ 0.294998 0.690285 0.44649 0.11455
H_ H_ 0.365884 0.66805 0.346705 0.11455
H_ H_ 0.274938 0.66776 0.352752 0.11455
H_ H_ 0.379583 0.701066 0.464537 0.11455
H_ H_ 0.470687 0.700457 0.457693 0.11455
H_ H_ 0.448477 0.677238 0.368226 0.11455
H_ H_ 0.147777 0.511055 0.441406 0.11455
H_ H_ 0.155532 0.930686 0.354061 0.11455
H_ H_ 0.0991407 0.524343 0.353855 0.11455
H_ H_ 0.0603068 0.926852 0.461643 0.11455
H_ H_ 0.0692238 0.833615 0.458687 0.11455
H_ H_ 0.125326 0.848211 0.371249 0.11455
H_ H_ 0.0884634 0.593104 0.468992 0.11455
H_ H_ 0.0672167 0.575699 0.018819 0.11455
H_ H_ 0.107361 0.618862 0.0591188 0.11455
H_ H_ 0.187875 0.737769 0.470311 0.11455
H_ H_ 0.243364 0.782463 0.0142652 0.11455
H_ H_ 0.227918 0.75839 0.0627451 0.11455
H_ H_ 0.0217008 0.717663 0.120709 0.11455
H_ H_ 0.0090545 0.706718 0.174638 0.11455
H_ H_ 0.26773 0.667595 0.142581 0.11455
H_ H_ 0.245283 0.647742 0.193406 0.11455
H_ H_ 0.0860639 0.587508 0.248065 0.11455
H_ H_ 0.0504515 0.561822 0.297387 0.11455
H_ H_ 0.0682933 0.616615 0.339065 0.11455
H_ H_ 0.148118 0.753292 0.256975 0.11455
H_ H_ 0.194582 0.792077 0.299391 0.11455
H_ H_ 0.179509 0.754421 0.347259 0.11455
H_ H_ 0.19697 0.815487 0.200651 0.11455
H_ H_ 0.124192 0.848068 0.100712 0.11455
H_ H_ 0.214293 0.836198 0.109642 0.11455
H_ H_ 0.0999964 0.804456 0.218599 0.11455
H_ H_ 0.0151158 0.816292 0.208784 0.11455
H_ H_ 0.0406285 0.836925 0.11828 0.11455
H_ H_ 0.393491 0.989489 0.193945 0.11455
H_ H_ 0.342061 0.576138 0.100718 0.11455
H_ H_ 0.36724 0.977066 0.103275 0.11455
H_ H_ 0.394915 0.568596 0.216773 0.11455
H_ H_ 0.388994 0.66381 0.215699 0.11455
H_ H_ 0.37723 0.658204 0.125019 0.11455
H_ H_ 0.416033 0.888686 0.217592 0.11455
H_ H_ 0.440089 0.913343 0.267748 0.11455
H_ H_ 0.398814 0.872755 0.310144 0.11455
H_ H_ 0.289654 0.757868 0.228961 0.11455
H_ H_ 0.266141 0.707827 0.269191 0.11455
H_ H_ 0.287701 0.730038 0.318696 0.11455
H_ H_ 0.48111 0.788804 0.374065 0.11455
H_ H_ 0.498709 0.800298 0.425763 0.11455
H_ H_ 0.234795 0.848653 0.394862 0.11455
H_ H_ 0.252993 0.850229 0.446946 0.11455
H_ H_ 0.437552 0.901068 0.50268 0.11455
H_ H_ 0.453891 0.939178 0.0529415 0.11455
H_ H_ 0.434269 0.883761 0.0921831 0.11455
H_ H_ 0.351211 0.753182 0.0116946 0.11455
H_ H_ 0.310249 0.706788 0.0543032 0.11455
H_ H_ 0.324181 0.738561 0.101288 0.11455
C_ C_ 0.221263 0.681685 0.4031 0.68181
C_ C_ 0.275655 0.680312 0.400171 -0.05681
C_ C_ 0.307631 0.683818 0.424846 -0.08735
C_ C_ 0.359364 0.681653 0.42087 -0.05681
C_ C_ 0.380911 0.675777 0.393139 -0.05681
C_ C_ 0.351259 0.673222 0.369201 -0.08735
C_ C_ 0.297596 0.673084 0.37265 -0.08735
C_ C_ 0.394261 0.691006 0.443813 -0.08735
C_ C_ 0.446004 0.688678 0.439751 -0.08735
C_ C_ 0.466276 0.68083 0.412723 -0.05681
C_ C_ 0.432735 0.674569 0.389645 -0.08735
C_ C_ 0.117195 0.778738 0.414409 0.68181
C_ C_ 0.129366 0.582707 0.400395 0.68181
C_ C_ 0.121198 0.526365 0.398607 -0.05681
C_ C_ 0.101854 0.994738 0.422319 -0.08735
C_ C_ 0.10216 0.940725 0.420502 -0.05681
C_ C_ 0.115952 0.918716 0.39419 -0.05681
C_ C_ 0.140074 0.947807 0.373421 -0.08735
C_ C_ 0.1396 0.999631 0.375845 -0.08735
C_ C_ 0.076431 0.909864 0.441139 -0.08735
C_ C_ 0.0828699 0.856344 0.440915 -0.08735
C_ C_ 0.104983 0.834101 0.415705 -0.05681
C_ C_ 0.116092 0.864163 0.391689 -0.08735
C_ C_ 0.0249008 0.67781 0.410682 0.68181
C_ C_ 0.0944263 0.619442 0.485271 0.1947
C_ C_ 0.094857 0.602841 0.0137907 -0.08735
C_ C_ 0.11638 0.630691 0.036266 -0.08735
C_ C_ 0.149807 0.671951 0.0304014 -0.05681
C_ C_ 0.162263 0.684834 1.00152315 0.18498
C_ C_ 0.174555 0.731813 0.493097 -0.08735
C_ C_ 0.21462 0.754417 0.0178784 -0.08735
C_ C_ 0.204256 0.742224 0.0463628 -0.08735
C_ C_ 0.171606 0.702777 0.0534332 0.18498
C_ C_ 0.195541 0.682083 0.10177 0.44287
C_ C_ 0.1078 0.700868 0.0943543 0.44287
C_ C_ 0.0979147 0.694959 0.123378 -0.05681
C_ C_ 0.0500297 0.701594 0.134879 -0.08735
C_ C_ 0.0446342 0.700071 0.164325 -0.08735
C_ C_ 0.0849125 0.698919 0.183173 -0.05681
C_ C_ 0.132367 0.686905 0.17138 -0.05681
C_ C_ 0.139848 0.687214 0.142217 -0.05681
C_ C_ 0.190745 0.682063 0.131509 -0.05681
C_ C_ 0.22922 0.668587 0.150875 -0.08735
C_ C_ 0.21907 0.663259 0.17922 -0.08735
C_ C_ 0.171051 0.672447 0.189917 -0.05681
C_ C_ 0.160159 0.666448 0.219645 0.44287
C_ C_ 0.0767158 0.694294 0.213138 0.44287
C_ C_ 0.100557 0.663545 0.260144 0.18498
C_ C_ 0.0858128 0.614323 0.26637 -0.08735
C_ C_ 0.0678599 0.599471 0.293957 -0.08735
C_ C_ 0.0754946 0.631552 0.317376 -0.08735
C_ C_ 0.100833 0.678608 0.312038 0.18498
C_ C_ 0.111317 0.69579 0.283331 -0.05681
C_ C_ 0.14012 0.739893 0.278856 -0.08735
C_ C_ 0.163929 0.763828 0.302775 -0.08735
C_ C_ 0.153282 0.74472 0.329951 0.1947
C_ C_ 0.265559 0.819842 0.159194 0.68181
C_ C_ 0.211929 0.830767 0.155604 -0.05681
C_ C_ 0.179435 0.82297 0.178418 -0.08735
C_ C_ 0.125751 0.827328 0.175409 -0.05681
C_ C_ 0.106681 0.836849 0.147532 -0.05681
C_ C_ 0.138635 0.84165 0.123293 -0.08735
C_ C_ 0.190878 0.840883 0.127863 -0.08735
C_ C_ 0.0918819 0.821067 0.197114 -0.08735
C_ C_ 0.0400467 0.825481 0.192653 -0.08735
C_ C_ 0.0190525 0.832339 0.164331 -0.05681
C_ C_ 0.0533924 0.838578 0.141309 -0.08735
C_ C_ 0.37166 0.725886 0.170338 0.68181
C_ C_ 0.364654 0.918628 0.15114 0.68181
C_ C_ 0.370008 0.975531 0.149915 -0.05681
C_ C_ 0.375432 0.507506 0.171881 -0.08735
C_ C_ 0.37442 0.560789 0.170755 -0.05681
C_ C_ 0.366465 0.58557 0.145039 -0.05681
C_ C_ 0.350826 0.557252 0.121096 -0.08735
C_ C_ 0.364875 -0.0006509999999999572 0.123099 -0.08735
C_ C_ 0.386 0.588928 0.196659 -0.08735
C_ C_ 0.381096 0.641662 0.196184 -0.08735
C_ C_ 0.379257 0.668248 0.17097 -0.05681
C_ C_ 0.374404 0.63904 0.1447 -0.08735
C_ C_ 0.46451 0.825335 0.162272 0.68181
C_ C_ 0.399672 0.868756 0.235448 0.1947
C_ C_ 0.412516 0.882967 0.263114 -0.08735
C_ C_ 0.393284 0.856977 0.287718 -0.08735
C_ C_ 0.357257 0.818424 0.283155 -0.05681
C_ C_ 0.342243 0.807976 0.253629 0.18498
C_ C_ 0.309329 0.765626 0.24864 -0.08735
C_ C_ 0.29107 0.737634 0.271822 -0.08735
C_ C_ 0.300779 0.753135 0.300173 -0.08735
C_ C_ 0.336294 0.791737 0.306368 0.18498
C_ C_ 0.306289 0.823626 0.353965 0.44287
C_ C_ 0.38985 0.79495 0.348291 0.44287
C_ C_ 0.401439 0.806341 0.376946 -0.05681
C_ C_ 0.45015 0.799023 0.388185 -0.08735
C_ C_ 0.461539 0.811219 0.416665 -0.08735
C_ C_ 0.421507 0.82032 0.435572 -0.05681
C_ C_ 0.372438 0.828965 0.424709 -0.05681
C_ C_ 0.362277 0.81924 0.395256 -0.05681
C_ C_ 0.313369 0.82689 0.384302 -0.05681
C_ C_ 0.273428 0.841748 0.402542 -0.08735
C_ C_ 0.284024 0.84644 0.432809 -0.08735
C_ C_ 0.33246 0.835548 0.443707 -0.05681
C_ C_ 0.342988 0.831921 0.473 0.44287
C_ C_ 0.429186 0.816417 0.465562 0.44287
C_ C_ 0.394869 0.844873 0.0147599 0.18498
C_ C_ 0.421135 0.890965 0.0210844 -0.08735
C_ C_ 0.433564 0.90499 0.0487864 -0.08735
C_ C_ 0.419814 0.873886 0.0709244 -0.08735
C_ C_ 0.386179 0.83248 0.0662451 0.18498
C_ C_ 0.377031 0.814912 0.0380284 -0.05681
C_ C_ 0.34938 0.769917 0.0335794 -0.08735
C_ C_ 0.330308 0.742771 0.057746 -0.08735
C_ C_ 0.339513 0.761172 0.0849288 0.1947
N_ N_ 0.126285 0.659074 0.478681 -0.29468
N_ N_ 0.157323 0.696797 0.0842309 -0.17154
N_ N_ 0.113579 0.676268 0.230304 -0.17154
N_ N_ 0.123995 0.705061 0.334361 -0.29468
N_ N_ 0.365128 0.833114 0.23137 -0.29468
N_ N_ 0.344732 0.808563 0.336475 -0.17154
N_ N_ 0.389722 0.8224 0.483805 -0.17154
N_ N_ 0.367262 0.803499 0.0893325 -0.29468
O_ O_ 0.201151 0.690201 0.427753 -0.58347
O_ O_ 0.193366 0.677447 0.380143 -0.58347
O_ O_ 0.114488 0.75401 0.437846 -0.58347
O_ O_ 0.122479 0.758782 0.389809 -0.58347
O_ O_ 0.136868 0.603222 0.424903 -0.58347
O_ O_ 0.120081 0.611695 0.379245 -0.58347
O_ O_ 0.0537405 0.665097 0.431796 -0.58347
O_ O_ 0.0436434 0.687903 0.386354 -0.58347
O_ O_ 0.0700448 0.707189 0.0750267 -0.46727
O_ O_ 0.239656 0.669236 0.0914103 -0.46727
O_ O_ 0.033883 0.708841 0.22453 -0.46727
O_ O_ 0.194916 0.644685 0.236088 -0.46727
O_ O_ 0.287824 0.824215 0.183272 -0.58347
O_ O_ 0.292943 0.817572 0.136463 -0.58347
O_ O_ 0.355744 0.747379 0.192813 -0.58347
O_ O_ 0.376921 0.750855 0.147069 -0.58347
O_ O_ 0.367195 0.896015 0.174653 -0.58347
O_ O_ 0.36545 0.894376 0.128148 -0.58347
O_ O_ 0.43772 0.820055 0.183992 -0.58347
O_ O_ 0.444102 0.82967 0.137758 -0.58347
O_ O_ 0.422325 0.769735 0.332144 -0.46727
O_ O_ 0.262695 0.83437 0.34106 -0.46727
O_ O_ 0.471933 0.802996 0.476946 -0.46727
O_ O_ 0.305548 0.831701 0.490272 -0.46727
Zn Zn 0.131827 0.681071 0.884482 0.90689
Zn Zn 0.142172 0.673084 0.93241 0.90689
Zn Zn 0.372051 0.809006 0.632869 0.90689
Zn Zn 0.363941 0.814159 0.680462 0.90689
H_ H_ 0.308212 0.690859 0.948644 0.11455
H_ H_ 0.36925 0.655101 0.850199 0.11455
H_ H_ 0.282799 0.64817 0.861069 0.11455
H_ H_ 0.400157 0.702961 0.965052 0.11455
H_ H_ 0.488883 0.70058 0.956069 0.11455
H_ H_ 0.461893 0.657707 0.86748 0.11455
H_ H_ 0.129162 0.503867 0.941754 0.11455
H_ H_ 0.11315 0.931828 0.848902 0.11455
H_ H_ 0.139033 0.520578 0.848477 0.11455
H_ H_ 0.128062 0.92539 0.966965 0.11455
H_ H_ 0.139129 0.833633 0.962779 0.11455
H_ H_ 0.125402 0.844853 0.870434 0.11455
H_ H_ 0.0806694 0.604288 0.970964 0.11455
H_ H_ 0.0692541 0.568278 0.517771 0.11455
H_ H_ 0.103785 0.622633 0.555928 0.11455
H_ H_ 0.208097 0.728732 0.974393 0.11455
H_ H_ 0.216723 0.796751 0.508839 0.11455
H_ H_ 0.189309 0.783576 0.55909 0.11455
H_ H_ 1.0123346 0.712625 0.624559 0.11455
H_ H_ 1.00224922 0.698388 0.677713 0.11455
H_ H_ 0.257647 0.659307 0.633128 0.11455
H_ H_ 0.252008 0.657856 0.686847 0.11455
H_ H_ 0.0620266 0.599911 0.74777 0.11455
H_ H_ 0.0428509 0.571925 0.798226 0.11455
H_ H_ 0.0798727 0.622585 0.839068 0.11455
H_ H_ 0.161256 0.75013 0.759676 0.11455
H_ H_ 0.197894 0.796409 0.801711 0.11455
H_ H_ 0.188212 0.762818 0.850172 0.11455
H_ H_ 0.198291 0.831157 0.695573 0.11455
H_ H_ 0.132908 0.830718 0.596404 0.11455
H_ H_ 0.220493 0.807132 0.606779 0.11455
H_ H_ 0.111077 0.844332 0.718333 0.11455
H_ H_ 0.0158483 0.839719 0.707775 0.11455
H_ H_ 0.0395944 0.824626 0.61565 0.11455
H_ H_ 0.357845 0.980525 0.690972 0.11455
H_ H_ 0.392653 0.562556 0.599303 0.11455
H_ H_ 0.367735 0.964239 0.601375 0.11455
H_ H_ 0.333001 0.563998 0.709416 0.11455
H_ H_ 0.33495 0.653423 0.709074 0.11455
H_ H_ 0.377834 0.645453 0.620659 0.11455
H_ H_ 0.428447 0.879537 0.715411 0.11455
H_ H_ 0.452462 0.908378 0.764006 0.11455
H_ H_ 0.408333 0.870183 0.807009 0.11455
H_ H_ 0.297901 0.757894 0.727905 0.11455
H_ H_ 0.267763 0.70879 0.76996 0.11455
H_ H_ 0.301306 0.724701 0.818151 0.11455
H_ H_ 0.493443 0.812114 0.879252 0.11455
H_ H_ 0.498459 0.810953 0.931236 0.11455
H_ H_ 0.239283 0.837776 0.892183 0.11455
H_ H_ 0.251185 0.839409 0.942699 0.11455
H_ H_ 0.437332 0.912212 1.00324924 0.11455
H_ H_ 0.457634 0.929566 0.551172 0.11455
H_ H_ 0.413147 0.880637 0.591784 0.11455
H_ H_ 0.352589 0.738806 0.512284 0.11455
H_ H_ 0.303051 0.702635 0.550827 0.11455
H_ H_ 0.320716 0.733464 0.601855 0.11455
C_ C_ 0.234129 0.681119 0.909173 0.68181
C_ C_ 0.289839 0.673446 0.905048 -0.05681
C_ C_ 0.324288 0.68257 0.92715 -0.08735
C_ C_ 0.377804 0.681945 0.92184 -0.05681
C_ C_ 0.396377 0.665492 0.894341 -0.05681
C_ C_ 0.360385 0.660876 0.871892 -0.08735
C_ C_ 0.308181 0.658726 0.877968 -0.08735
C_ C_ 0.412181 0.689075 0.944369 -0.08735
C_ C_ 0.463089 0.691248 0.938845 -0.08735
C_ C_ 0.483027 0.676396 0.910697 -0.05681
C_ C_ 0.449502 0.661838 0.889419 -0.08735
C_ C_ 0.132302 0.775931 0.914264 0.68181
C_ C_ 0.137078 0.578982 0.901053 0.68181
C_ C_ 0.13513 0.52083 0.896445 -0.05681
C_ C_ 0.142357 0.991898 0.92208 -0.08735
C_ C_ 0.127725 0.939063 0.92054 -0.05681
C_ C_ 0.119403 0.915127 0.893836 -0.05681
C_ C_ 0.118187 0.947645 0.86869 -0.08735
C_ C_ 0.127122 -0.00144944 0.871096 -0.08735
C_ C_ 0.130192 0.908685 0.945471 -0.08735
C_ C_ 0.131051 0.856501 0.942913 -0.08735
C_ C_ 0.127981 0.832514 0.915362 -0.05681
C_ C_ 0.12207 0.864028 0.891246 -0.08735
C_ C_ 0.0380841 0.675764 0.909777 0.68181
C_ C_ 0.104114 0.617631 0.9865 0.1947
C_ C_ 0.0877602 0.603244 0.512914 -0.08735
C_ C_ 0.106434 0.63434 0.534888 -0.08735
C_ C_ 0.135727 0.678473 0.528812 -0.05681
C_ C_ 0.144913 0.690666 0.499615 0.18498
C_ C_ 0.194049 0.724907 0.99588 -0.08735
C_ C_ 0.193734 0.763258 0.514518 -0.08735
C_ C_ 0.181085 0.753883 0.543682 -0.08735
C_ C_ 0.150574 0.71224 0.551688 0.18498
C_ C_ 0.184951 0.687683 0.598285 0.44287
C_ C_ 0.0971148 0.704858 0.593537 0.44287
C_ C_ 0.0915134 0.702881 0.623745 -0.05681
C_ C_ 0.043573 0.700552 0.63705 -0.08735
C_ C_ 0.039635 0.696743 0.667379 -0.08735
C_ C_ 0.0822043 0.687875 0.684389 -0.05681
C_ C_ 0.131201 0.686604 0.671585 -0.05681
C_ C_ 0.134667 0.692759 0.641436 -0.05681
C_ C_ 0.18138 0.684637 0.628523 -0.05681
C_ C_ 0.224208 0.666892 0.643638 -0.08735
C_ C_ 0.22044 0.665133 0.675034 -0.08735
C_ C_ 0.172895 0.675177 0.688724 -0.05681
C_ C_ 0.165255 0.66699 0.718769 0.44287
C_ C_ 0.0788085 0.689452 0.714446 0.44287
C_ C_ 0.113342 0.660006 0.760723 0.18498
C_ C_ 0.0844622 0.617305 0.765236 -0.08735
C_ C_ 0.0698027 0.605187 0.793726 -0.08735
C_ C_ 0.0894706 0.631971 0.81703 -0.08735
C_ C_ 0.119024 0.672379 0.812928 0.18498
C_ C_ 0.129428 0.688565 0.78416 -0.05681
C_ C_ 0.155077 0.735024 0.781051 -0.08735
C_ C_ 0.173296 0.763444 0.805449 -0.08735
C_ C_ 0.168532 0.743328 0.831891 0.1947
C_ C_ 0.270059 0.817335 0.656049 0.68181
C_ C_ 0.2144 0.818861 0.651781 -0.05681
C_ C_ 0.183106 0.828 0.674839 -0.08735
C_ C_ 0.129336 0.83033 0.671332 -0.05681
C_ C_ 0.110539 0.829187 0.641812 -0.05681
C_ C_ 0.144503 0.821468 0.618153 -0.08735
C_ C_ 0.194399 0.814171 0.624179 -0.08735
C_ C_ 0.0980309 0.84144 0.695053 -0.08735
C_ C_ 0.0452472 0.837622 0.690608 -0.08735
C_ C_ 0.0247888 0.834321 0.662125 -0.05681
C_ C_ 0.057885 0.828721 0.637851 -0.08735
C_ C_ 0.366019 0.712815 0.664618 0.68181
C_ C_ 0.358585 0.910879 0.652341 0.68181
C_ C_ 0.366615 0.966747 0.647568 -0.05681
C_ C_ 0.36978 0.49464 0.671807 -0.08735
C_ C_ 0.369442 0.54884 0.670732 -0.05681
C_ C_ 0.37748 0.571936 0.643324 -0.05681
C_ C_ 0.380607 0.543275 0.61845 -0.08735
C_ C_ 0.366329 0.988884 0.620066 -0.08735
C_ C_ 0.356993 0.579709 0.694002 -0.08735
C_ C_ 0.353979 0.633337 0.691615 -0.08735
C_ C_ 0.368516 0.656975 0.666704 -0.05681
C_ C_ 0.37397 0.626808 0.641696 -0.08735
C_ C_ 0.468316 0.822054 0.656525 0.68181
C_ C_ 0.408823 0.862205 0.732873 0.1947
C_ C_ 0.421488 0.880694 0.761 -0.08735
C_ C_ 0.399016 0.858559 0.785052 -0.08735
C_ C_ 0.36822 0.815067 0.781637 -0.05681
C_ C_ 0.352088 0.80133 0.752496 0.18498
C_ C_ 0.313646 0.765277 0.749324 -0.08735
C_ C_ 0.29704 0.73694 0.77292 -0.08735
C_ C_ 0.315508 0.746224 0.79991 -0.08735
C_ C_ 0.347414 0.787846 0.80602 0.18498
C_ C_ 0.316413 0.815723 0.8526 0.44287
C_ C_ 0.403472 0.799856 0.848708 0.44287
C_ C_ 0.409545 0.807001 0.878373 -0.05681
C_ C_ 0.459026 0.804789 0.891116 -0.08735
C_ C_ 0.464516 0.806404 0.920643 -0.08735
C_ C_ 0.421673 0.813882 0.937865 -0.05681
C_ C_ 0.374365 0.822445 0.925222 -0.05681
C_ C_ 0.369059 0.817288 0.895063 -0.05681
C_ C_ 0.320402 0.82093 0.883182 -0.05681
C_ C_ 0.277985 0.831776 0.901037 -0.08735
C_ C_ 0.283636 0.830133 0.930176 -0.08735
C_ C_ 0.332134 0.833957 0.942378 -0.05681
C_ C_ 0.33777 0.840007 0.972587 0.44287
C_ C_ 0.423969 0.81184 0.968007 0.44287
C_ C_ 0.399378 0.831703 0.513632 0.18498
C_ C_ 0.423154 0.877374 0.519755 -0.08735
C_ C_ 0.437647 0.89101 0.547746 -0.08735
C_ C_ 0.416488 0.862208 0.570867 -0.08735
C_ C_ 0.387395 0.819877 0.564858 0.18498
C_ C_ 0.378945 0.802179 0.536571 -0.05681
C_ C_ 0.350218 0.758384 0.53221 -0.08735
C_ C_ 0.326507 0.735245 0.555532 -0.08735
C_ C_ 0.338668 0.752023 0.584245 0.1947
N_ N_ 0.137733 0.65771 0.980571 -0.29468
N_ N_ 0.14345 0.699001 0.581971 -0.17154
N_ N_ 0.12015 0.675254 0.7314 -0.17154
N_ N_ 0.135617 0.702058 0.835818 -0.29468
N_ N_ 0.371294 0.827028 0.728573 -0.29468
N_ N_ 0.356785 0.803176 0.836247 -0.17154
N_ N_ 0.385056 0.828622 0.985309 -0.17154
N_ N_ 0.369182 0.793441 0.58754 -0.29468
O_ O_ 0.215601 0.669005 0.933412 -0.58347
O_ O_ 0.205293 0.684721 0.887834 -0.58347
O_ O_ 0.14325 0.74943 0.936179 -0.58347
O_ O_ 0.126577 0.75351 0.89005 -0.58347
O_ O_ 0.134555 0.597344 0.926686 -0.58347
O_ O_ 0.146238 0.606962 0.878946 -0.58347
O_ O_ 0.0667893 0.681878 0.931324 -0.58347
O_ O_ 0.0570887 0.675139 0.884484 -0.58347
O_ O_ 0.0607975 0.720261 0.577447 -0.46727
O_ O_ 0.228373 0.679387 0.585494 -0.46727
O_ O_ 0.0366244 0.700148 0.72707 -0.46727
O_ O_ 0.202974 0.652236 0.734813 -0.46727
O_ O_ 0.288827 0.824294 0.680562 -0.58347
O_ O_ 0.297721 0.796842 0.637015 -0.58347
O_ O_ 0.354668 0.741296 0.685568 -0.58347
O_ O_ 0.386666 0.733238 0.643067 -0.58347
O_ O_ 0.375039 0.891173 0.6753 -0.58347
O_ O_ 0.355403 0.882453 0.631069 -0.58347
O_ O_ 0.439406 0.807317 0.677536 -0.58347
O_ O_ 0.447683 0.823719 0.632128 -0.58347
O_ O_ 0.443055 0.783989 0.834248 -0.46727
O_ O_ 0.272795 0.82714 0.840366 -0.46727
O_ O_ 0.468351 0.810993 0.980422 -0.46727
O_ O_ 0.299751 0.85893 0.988971 -0.46727
Zn Zn 0.621929 0.192455 0.382355 0.90689
Zn Zn 0.632659 0.179717 0.428887 0.90689
Zn Zn 0.868613 0.314402 0.131346 0.90689
Zn Zn 0.863256 0.314578 0.178603 0.90689
H_ H_ 0.799691 0.198889 0.44361 0.11455
H_ H_ 0.856344 0.172817 0.346863 0.11455
H_ H_ 0.770635 0.188251 0.353984 0.11455
H_ H_ 0.886524 0.183068 0.461817 0.11455
H_ H_ 0.978523 0.175413 0.45219 0.11455
H_ H_ 0.947539 0.171205 0.36118 0.11455
H_ H_ 0.645935 0.0157816 0.440883 0.11455
H_ H_ 0.658391 0.438389 0.346774 0.11455
H_ H_ 0.588419 0.0320806 0.355943 0.11455
H_ H_ 0.594144 0.430528 0.460716 0.11455
H_ H_ 0.604671 0.339478 0.456776 0.11455
H_ H_ 0.636675 0.353454 0.366164 0.11455
H_ H_ 0.574961 0.104585 0.465942 0.11455
H_ H_ 0.578831 0.0697175 0.0121637 0.11455
H_ H_ 0.609896 0.116398 0.0536727 0.11455
H_ H_ 0.692114 0.243235 0.472101 0.11455
H_ H_ 0.744636 0.285943 0.0142689 0.11455
H_ H_ 0.718526 0.26354 0.0647695 0.11455
H_ H_ 0.52168 0.221108 0.119804 0.11455
H_ H_ 0.507425 0.215779 0.170499 0.11455
H_ H_ 0.760175 0.138054 0.140642 0.11455
H_ H_ 0.751464 0.149883 0.190616 0.11455
H_ H_ 0.559793 0.0987762 0.250018 0.11455
H_ H_ 0.526658 0.0847123 0.300013 0.11455
H_ H_ 0.565229 0.130879 0.33913 0.11455
H_ H_ 0.668278 0.24795 0.258511 0.11455
H_ H_ 0.69853 0.298203 0.298439 0.11455
H_ H_ 0.681435 0.264923 0.348958 0.11455
H_ H_ 0.694048 0.298858 0.189034 0.11455
H_ H_ 0.624009 0.328291 0.0949991 0.11455
H_ H_ 0.716023 0.322821 0.102543 0.11455
H_ H_ 0.610716 0.312802 0.210087 0.11455
H_ H_ 0.519973 0.309771 0.206395 0.11455
H_ H_ 0.53984 0.339082 0.114712 0.11455
H_ H_ 0.898264 0.486621 0.186692 0.11455
H_ H_ 0.885682 0.0677344 0.095158 0.11455
H_ H_ 0.826511 0.474642 0.105222 0.11455
H_ H_ 0.839602 0.0694178 0.209984 0.11455
H_ H_ 0.864286 0.160075 0.20897 0.11455
H_ H_ 0.891869 0.145555 0.117569 0.11455
H_ H_ 0.917007 0.380614 0.215382 0.11455
H_ H_ 0.935561 0.41205 0.26415 0.11455
H_ H_ 0.895941 0.374751 0.303898 0.11455
H_ H_ 0.797552 0.254917 0.224045 0.11455
H_ H_ 0.768234 0.198059 0.266904 0.11455
H_ H_ 0.785052 0.229804 0.314063 0.11455
H_ H_ 0.972202 0.279683 0.370442 0.11455
H_ H_ -0.008525000000000005 0.307356 0.418603 0.11455
H_ H_ 0.726992 0.34975 0.389499 0.11455
H_ H_ 0.747408 0.367161 0.440928 0.11455
H_ H_ 0.947196 0.402414 0.494299 0.11455
H_ H_ 0.94056 0.43997 0.0464444 0.11455
H_ H_ 0.926929 0.380636 0.0852031 0.11455
H_ H_ 0.851754 0.244137 0.00740162 0.11455
H_ H_ 0.822256 0.197328 0.0492218 0.11455
H_ H_ 0.827458 0.234287 0.0961472 0.11455
C_ C_ 0.72246 0.197219 0.405152 0.68181
C_ C_ 0.778555 0.198288 0.40033 -0.05681
C_ C_ 0.813857 0.192675 0.422892 -0.08735
C_ C_ 0.866432 0.18491 0.416813 -0.05681
C_ C_ 0.883828 0.185149 0.388723 -0.05681
C_ C_ 0.847426 0.182367 0.367425 -0.08735
C_ C_ 0.796763 0.194064 0.37175 -0.08735
C_ C_ 0.901357 0.184327 0.439732 -0.08735
C_ C_ 0.953157 0.179342 0.433563 -0.08735
C_ C_ 0.971812 0.175642 0.40549 -0.05681
C_ C_ 0.935247 0.179017 0.382745 -0.08735
C_ C_ 0.620942 0.285753 0.408671 0.68181
C_ C_ 0.632883 0.0858525 0.400403 0.68181
C_ C_ 0.627272 0.030438 0.396012 -0.05681
C_ C_ 0.622313 0.500279 0.421431 -0.08735
C_ C_ 0.622062 0.447 0.417772 -0.05681
C_ C_ 0.633186 0.423727 0.390916 -0.05681
C_ C_ 0.646637 0.455653 0.367639 -0.08735
C_ C_ 0.649994 0.507655 0.371842 -0.08735
C_ C_ 0.608044 0.414472 0.439849 -0.08735
C_ C_ 0.608983 0.363189 0.437686 -0.08735
C_ C_ 0.614404 0.340264 0.410106 -0.05681
C_ C_ 0.627804 0.371488 0.386219 -0.08735
C_ C_ 0.528285 0.177507 0.40539 0.68181
C_ C_ 0.593913 0.122099 0.483498 0.1947
C_ C_ 0.60015 0.104572 0.00836761 -0.08735
C_ C_ 0.615531 0.133715 0.0320498 -0.08735
C_ C_ 0.648524 0.175175 0.0276417 -0.05681
C_ C_ 0.663262 0.189185 0.99936914 0.18498
C_ C_ 0.68163 0.231688 0.493845 -0.08735
C_ C_ 0.719899 0.253839 0.0182664 -0.08735
C_ C_ 0.703406 0.242592 0.0467204 -0.08735
C_ C_ 0.66748 0.203106 0.0516651 0.18498
C_ C_ 0.694992 0.17392 0.0992109 0.44287
C_ C_ 0.6112 0.200684 0.0914979 0.44287
C_ C_ 0.603463 0.203301 0.121561 -0.05681
C_ C_ 0.552342 0.209596 0.132689 -0.08735
C_ C_ 0.543473 0.20005 0.161732 -0.08735
C_ C_ 0.580764 0.183783 0.181185 -0.05681
C_ C_ 0.630536 0.177811 0.170748 -0.05681
C_ C_ 0.640981 0.18403 0.140355 -0.05681
C_ C_ 0.687169 0.167983 0.129491 -0.05681
C_ C_ 0.725203 0.151802 0.147623 -0.08735
C_ C_ 0.718964 0.154569 0.177281 -0.08735
C_ C_ 0.669401 0.166976 0.188834 -0.05681
C_ C_ 0.658322 0.158471 0.219018 0.44287
C_ C_ 0.574979 0.187349 0.212016 0.44287
C_ C_ 0.602532 0.163647 0.26057 0.18498
C_ C_ 0.569959 0.124346 0.267096 -0.08735
C_ C_ 0.552063 0.115312 0.295265 -0.08735
C_ C_ 0.572852 0.144184 0.318132 -0.08735
C_ C_ 0.608833 0.183179 0.313007 0.18498
C_ C_ 0.621461 0.195183 0.283296 -0.05681
C_ C_ 0.655106 0.238911 0.279781 -0.08735
C_ C_ 0.671655 0.267831 0.302528 -0.08735
C_ C_ 0.66142 0.251292 0.330975 0.1947
C_ C_ 0.768995 0.308885 0.151284 0.68181
C_ C_ 0.713254 0.312133 0.1458 -0.05681
C_ C_ 0.679843 0.310928 0.16867 -0.08735
C_ C_ 0.626664 0.315617 0.166069 -0.05681
C_ C_ 0.605393 0.321971 0.139007 -0.05681
C_ C_ 0.639432 0.323747 0.116443 -0.08735
C_ C_ 0.691846 0.317697 0.119496 -0.08735
C_ C_ 0.593698 0.313213 0.189888 -0.08735
C_ C_ 0.542177 0.31566 0.187022 -0.08735
C_ C_ 0.521026 0.328827 0.161099 -0.05681
C_ C_ 0.553163 0.329642 0.136506 -0.08735
C_ C_ 0.872694 0.218728 0.162465 0.68181
C_ C_ 0.86374 0.416728 0.148516 0.68181
C_ C_ 0.866597 0.474147 0.146074 -0.05681
C_ C_ 0.86763 0.00205479 0.16998 -0.08735
C_ C_ 0.873281 0.0553291 0.16804 -0.05681
C_ C_ 0.883526 0.0797288 0.141523 -0.05681
C_ C_ 0.884354 0.0493723 0.115595 -0.08735
C_ C_ 0.843455 0.497283 0.122448 -0.08735
C_ C_ 0.862258 0.0845588 0.191942 -0.08735
C_ C_ 0.864754 0.138103 0.190058 -0.08735
C_ C_ 0.874518 0.161926 0.163819 -0.05681
C_ C_ 0.885064 0.131842 0.139325 -0.08735
C_ C_ 0.965087 0.320353 0.158495 0.68181
C_ C_ 0.891909 0.370898 0.232767 0.1947
C_ C_ 0.905851 0.38618 0.260572 -0.08735
C_ C_ 0.883488 0.363773 0.283412 -0.08735
C_ C_ 0.845782 0.324557 0.27906 -0.05681
C_ C_ 0.837044 0.306433 0.251065 0.18498
C_ C_ 0.806845 0.26193 0.246564 -0.08735
C_ C_ 0.789694 0.233158 0.269575 -0.08735
C_ C_ 0.799215 0.251281 0.296703 -0.08735
C_ C_ 0.824517 0.297402 0.302148 0.18498
C_ C_ 0.797704 0.323267 0.348677 0.44287
C_ C_ 0.885763 0.303056 0.341519 0.44287
C_ C_ 0.894811 0.307393 0.37107 -0.05681
C_ C_ 0.942336 0.301849 0.38304 -0.08735
C_ C_ 0.95266 0.310887 0.412082 -0.08735
C_ C_ 0.912505 0.313922 0.430944 -0.05681
C_ C_ 0.86299 0.322929 0.419433 -0.05681
C_ C_ 0.855228 0.320554 0.388994 -0.05681
C_ C_ 0.805357 0.332693 0.378247 -0.05681
C_ C_ 0.764831 0.344096 0.396383 -0.08735
C_ C_ 0.774646 0.347885 0.427181 -0.08735
C_ C_ 0.824236 0.341044 0.437899 -0.05681
C_ C_ 0.836163 0.345762 0.467808 0.44287
C_ C_ 0.92063 0.314622 0.461281 0.44287
C_ C_ 0.892898 0.337678 0.00859046 0.18498
C_ C_ 0.906002 0.38886 0.0131855 -0.08735
C_ C_ 0.919528 0.405587 0.0413819 -0.08735
C_ C_ 0.910268 0.372291 0.0641876 -0.08735
C_ C_ 0.884623 0.326761 0.0598744 0.18498
C_ C_ 0.879419 0.307657 0.0323426 -0.05681
C_ C_ 0.857341 0.26019 0.0282775 -0.08735
C_ C_ 0.839359 0.235994 0.0515722 -0.08735
C_ C_ 0.843632 0.255304 0.0792686 0.1947
N_ N_ 0.624285 0.163498 0.477952 -0.29468
N_ N_ 0.658578 0.191198 0.0813688 -0.17154
N_ N_ 0.615086 0.175954 0.230384 -0.17154
N_ N_ 0.632568 0.207446 0.335319 -0.29468
N_ N_ 0.86172 0.329073 0.228954 -0.29468
N_ N_ 0.837429 0.309892 0.331193 -0.17154
N_ N_ 0.883416 0.331298 0.47942 -0.17154
N_ N_ 0.865935 0.30119 0.0825471 -0.29468
O_ O_ 0.706092 0.18501 0.430065 -0.58347
O_ O_ 0.69281 0.201186 0.384359 -0.58347
O_ O_ 0.628537 0.257385 0.430794 -0.58347
O_ O_ 0.616881 0.263812 0.384942 -0.58347
O_ O_ 0.638327 0.105656 0.425021 -0.58347
O_ O_ 0.629938 0.11521 0.378635 -0.58347
O_ O_ 0.554908 0.173783 0.427156 -0.58347
O_ O_ 0.546852 0.186675 0.381494 -0.58347
O_ O_ 0.575063 0.218564 0.0735056 -0.46727
O_ O_ 0.741185 0.164042 0.0887915 -0.46727
O_ O_ 0.531426 0.203874 0.223189 -0.46727
O_ O_ 0.692778 0.142358 0.237269 -0.46727
O_ O_ 0.787725 0.319748 0.17598 -0.58347
O_ O_ 0.798306 0.299874 0.130273 -0.58347
O_ O_ 0.855161 0.242188 0.183201 -0.58347
O_ O_ 0.881966 0.241222 0.139381 -0.58347
O_ O_ 0.86659 0.393308 0.172532 -0.58347
O_ O_ 0.857182 0.389166 0.126478 -0.58347
O_ O_ 0.936892 0.306812 0.179289 -0.58347
O_ O_ 0.944599 0.330675 0.134276 -0.58347
O_ O_ 0.9231 0.282447 0.325094 -0.46727
O_ O_ 0.751255 0.330602 0.33761 -0.46727
O_ O_ 0.959878 0.291601 0.472266 -0.46727
O_ O_ 0.800245 0.355786 0.485154 -0.46727
Zn Zn 0.640803 0.179661 0.8827 0.90689
Zn Zn 0.649688 0.173452 0.930465 0.90689
Zn Zn 0.879709 0.31876 0.630694 0.90689
Zn Zn 0.874019 0.326587 0.678142 0.90689
H_ H_ 0.820086 0.192579 0.945073 0.11455
H_ H_ 0.890331 0.176725 0.846989 0.11455
H_ H_ 0.795515 0.189275 0.854226 0.11455
H_ H_ 0.902873 0.185715 0.967571 0.11455
H_ H_ 0.993959 0.194393 0.960245 0.11455
H_ H_ 0.974568 0.188191 0.868 0.11455
H_ H_ 0.641201 0.00912742 0.94415 0.11455
H_ H_ 0.628519 0.428335 0.845185 0.11455
H_ H_ 0.66366 0.0209044 0.852357 0.11455
H_ H_ 0.636481 0.420481 0.96386 0.11455
H_ H_ 0.641046 0.330946 0.958993 0.11455
H_ H_ 0.621986 0.342643 0.867392 0.11455
H_ H_ 0.594988 0.103054 0.961635 0.11455
H_ H_ 0.573378 0.0688223 0.51633 0.11455
H_ H_ 0.60851 0.115792 0.556903 0.11455
H_ H_ 0.714386 0.235204 0.974428 0.11455
H_ H_ 0.724248 0.290169 0.513348 0.11455
H_ H_ 0.711833 0.263917 0.561793 0.11455
H_ H_ 0.51478 0.19801 0.621559 0.11455
H_ H_ 0.504455 0.189592 0.675046 0.11455
H_ H_ 0.76753 0.169405 0.637242 0.11455
H_ H_ 0.756718 0.154818 0.690685 0.11455
H_ H_ 0.56092 0.0826134 0.751728 0.11455
H_ H_ 0.549726 0.0567603 0.7993 0.11455
H_ H_ 0.581869 0.110785 0.841041 0.11455
H_ H_ 0.6565 0.239646 0.757186 0.11455
H_ H_ 0.683793 0.28932 0.796144 0.11455
H_ H_ 0.684379 0.254616 0.84679 0.11455
H_ H_ 0.70675 0.307786 0.69186 0.11455
H_ H_ 0.634504 0.324249 0.593565 0.11455
H_ H_ 0.726133 0.337494 0.601716 0.11455
H_ H_ 0.620899 0.300808 0.711935 0.11455
H_ H_ 0.527737 0.295241 0.705359 0.11455
H_ H_ 0.547027 0.327873 0.616737 0.11455
H_ H_ 0.87967 0.491586 0.689821 0.11455
H_ H_ 0.839576 0.0698808 0.599512 0.11455
H_ H_ 0.848756 0.471009 0.599101 0.11455
H_ H_ 0.865424 0.0782954 0.713888 0.11455
H_ H_ 0.885151 0.170795 0.70982 0.11455
H_ H_ 0.874649 0.153325 0.617208 0.11455
H_ H_ 0.937625 0.394361 0.71438 0.11455
H_ H_ 0.951569 0.426749 0.761357 0.11455
H_ H_ 0.903503 0.388095 0.802339 0.11455
H_ H_ 0.814253 0.268412 0.720852 0.11455
H_ H_ 0.801317 0.202106 0.756919 0.11455
H_ H_ 0.826551 0.220775 0.808377 0.11455
H_ H_ 0.989948 0.320506 0.871366 0.11455
H_ H_ 0.00201271 0.325565 0.924253 0.11455
H_ H_ 0.738201 0.306564 0.885092 0.11455
H_ H_ 0.748851 0.308162 0.937886 0.11455
H_ H_ 0.912826 0.413499 0.995208 0.11455
H_ H_ 0.973626 0.424686 0.545139 0.11455
H_ H_ 0.932767 0.380648 0.585086 0.11455
H_ H_ 0.827821 0.267547 0.504939 0.11455
H_ H_ 0.801323 0.211876 0.546328 0.11455
H_ H_ 0.834385 0.233033 0.594258 0.11455
C_ C_ 0.746986 0.178979 0.903589 0.68181
C_ C_ 0.802045 0.181409 0.900155 -0.05681
C_ C_ 0.835244 0.184632 0.924146 -0.08735
C_ C_ 0.888323 0.184013 0.920316 -0.05681
C_ C_ 0.90856 0.181223 0.89176 -0.05681
C_ C_ 0.876274 0.182962 0.867525 -0.08735
C_ C_ 0.823274 0.184947 0.871526 -0.08735
C_ C_ 0.919077 0.183011 0.945369 -0.08735
C_ C_ 0.970807 0.179681 0.942093 -0.08735
C_ C_ 0.990362 0.185593 0.914277 -0.05681
C_ C_ 0.960461 0.190383 0.890069 -0.08735
C_ C_ 0.629402 0.273547 0.912083 0.68181
C_ C_ 0.656038 0.0778429 0.900739 0.68181
C_ C_ 0.659467 0.0225704 0.899254 -0.05681
C_ C_ 0.626491 0.490579 0.919937 -0.08735
C_ C_ 0.623436 0.437369 0.918334 -0.05681
C_ C_ 0.621673 0.413382 0.890525 -0.05681
C_ C_ 0.62266 0.44447 0.865542 -0.08735
C_ C_ 0.630936 0.495868 0.869258 -0.08735
C_ C_ 0.627386 0.405923 0.942662 -0.08735
C_ C_ 0.631912 0.353912 0.939999 -0.08735
C_ C_ 0.628458 0.329687 0.913174 -0.05681
C_ C_ 0.621415 0.360006 0.888305 -0.08735
C_ C_ 0.548778 0.163237 0.907644 0.68181
C_ C_ 0.608477 0.123501 0.979986 0.1947
C_ C_ 0.591796 0.101882 0.511794 -0.08735
C_ C_ 0.614446 0.130868 0.534998 -0.08735
C_ C_ 0.638704 0.177003 0.52851 -0.05681
C_ C_ 0.647914 0.189634 0.499407 0.18498
C_ C_ 0.699997 0.226977 0.995284 -0.08735
C_ C_ 0.704188 0.25738 0.516228 -0.08735
C_ C_ 0.691143 0.248399 0.543954 -0.08735
C_ C_ 0.659713 0.207234 0.551395 0.18498
C_ C_ 0.692269 0.184919 0.598481 0.44287
C_ C_ 0.604025 0.19721 0.594365 0.44287
C_ C_ 0.596321 0.191304 0.624001 -0.05681
C_ C_ 0.547692 0.19084 0.635726 -0.08735
C_ C_ 0.54309 0.184583 0.665743 -0.08735
C_ C_ 0.584998 0.171643 0.68271 -0.05681
C_ C_ 0.632228 0.174676 0.671564 -0.05681
C_ C_ 0.639841 0.185647 0.641953 -0.05681
C_ C_ 0.687696 0.177734 0.62816 -0.05681
C_ C_ 0.729385 0.16848 0.646602 -0.08735
C_ C_ 0.722292 0.159524 0.676512 -0.08735
C_ C_ 0.675285 0.167535 0.689366 -0.05681
C_ C_ 0.668083 0.160877 0.719558 0.44287
C_ C_ 0.579928 0.168243 0.713663 0.44287
C_ C_ 0.612473 0.146157 0.761091 0.18498
C_ C_ 0.58164 0.103778 0.767785 -0.08735
C_ C_ 0.572877 0.0918198 0.796188 -0.08735
C_ C_ 0.592545 0.119416 0.818653 -0.08735
C_ C_ 0.619259 0.163249 0.812912 0.18498
C_ C_ 0.628797 0.177891 0.783729 -0.05681
C_ C_ 0.653897 0.223514 0.779064 -0.08735
C_ C_ 0.668877 0.252358 0.801753 -0.08735
C_ C_ 0.663141 0.235806 0.829409 0.1947
C_ C_ 0.778621 0.323052 0.651788 0.68181
C_ C_ 0.722807 0.326758 0.646906 -0.05681
C_ C_ 0.6889 0.314678 0.670958 -0.08735
C_ C_ 0.636277 0.317872 0.667797 -0.05681
C_ C_ 0.615716 0.322991 0.639832 -0.05681
C_ C_ 0.647743 0.327096 0.615828 -0.08735
C_ C_ 0.700892 0.333188 0.620172 -0.08735
C_ C_ 0.60509 0.307689 0.690587 -0.08735
C_ C_ 0.550931 0.310056 0.687871 -0.08735
C_ C_ 0.529813 0.31498 0.660373 -0.05681
C_ C_ 0.562944 0.316902 0.635921 -0.08735
C_ C_ 0.883254 0.223776 0.659839 0.68181
C_ C_ 0.866846 0.420867 0.646462 0.68181
C_ C_ 0.863022 0.476859 0.644589 -0.05681
C_ C_ 0.864029 0.0088311 0.673737 -0.08735
C_ C_ 0.868045 0.0609443 0.670327 -0.05681
C_ C_ 0.864914 0.08368 0.642491 -0.05681
C_ C_ 0.84972 0.0532215 0.619126 -0.08735
C_ C_ 0.862146 0.497493 0.616431 -0.08735
C_ C_ 0.87306 0.0934769 0.693995 -0.08735
C_ C_ 0.883655 0.145768 0.690386 -0.08735
C_ C_ 0.88217 0.16812 0.662844 -0.05681
C_ C_ 0.875215 0.136649 0.638838 -0.08735
C_ C_ 0.974742 0.330188 0.652861 0.68181
C_ C_ 0.911421 0.381229 0.731836 0.1947
C_ C_ 0.92136 0.398118 0.759103 -0.08735
C_ C_ 0.897057 0.374492 0.781594 -0.08735
C_ C_ 0.866747 0.330305 0.776906 -0.05681
C_ C_ 0.857139 0.316818 0.748375 0.18498
C_ C_ 0.830477 0.271764 0.742163 -0.08735
C_ C_ 0.818516 0.238143 0.76364 -0.08735
C_ C_ 0.837351 0.247 0.791719 -0.08735
C_ C_ 0.852501 0.297168 0.799416 0.18498
C_ C_ 0.816338 0.313722 0.847518 0.44287
C_ C_ 0.904528 0.309246 0.841296 0.44287
C_ C_ 0.91073 0.313986 0.871685 -0.05681
C_ C_ 0.958265 0.316874 0.884994 -0.08735
C_ C_ 0.964951 0.315572 0.914569 -0.08735
C_ C_ 0.922316 0.319978 0.932427 -0.05681
C_ C_ 0.873829 0.31817 0.919904 -0.05681
C_ C_ 0.868156 0.313792 0.889554 -0.05681
C_ C_ 0.819918 0.312161 0.876972 -0.05681
C_ C_ 0.776405 0.310223 0.894574 -0.08735
C_ C_ 0.782008 0.312105 0.92429 -0.08735
C_ C_ 0.83141 0.320846 0.937301 -0.05681
C_ C_ 0.838712 0.331088 0.96608 0.44287
C_ C_ 0.92825 0.318081 0.962497 0.44287
C_ C_ 0.896243 0.344814 0.50836 0.18498
C_ C_ 0.933609 0.379998 0.512973 -0.08735
C_ C_ 0.943588 0.395366 0.540621 -0.08735
C_ C_ 0.918967 0.372407 0.564399 -0.08735
C_ C_ 0.882958 0.334166 0.560311 0.18498
C_ C_ 0.870489 0.321626 0.531256 -0.05681
C_ C_ 0.837197 0.277903 0.527021 -0.08735
C_ C_ 0.82618 0.24565 0.54998 -0.08735
C_ C_ 0.842688 0.258515 0.57794 0.1947
N_ N_ 0.638899 0.165467 0.976489 -0.29468
N_ N_ 0.652302 0.193478 0.582316 -0.17154
N_ N_ 0.620683 0.157732 0.730521 -0.17154
N_ N_ 0.640341 0.190576 0.835187 -0.29468
N_ N_ 0.877116 0.34377 0.725969 -0.29468
N_ N_ 0.856913 0.31003 0.829306 -0.17154
N_ N_ 0.884515 0.323777 0.979027 -0.17154
N_ N_ 0.867923 0.304013 0.582877 -0.29468
O_ O_ 0.729232 0.171023 0.928167 -0.58347
O_ O_ 0.717704 0.193408 0.882807 -0.58347
O_ O_ 0.647696 0.248037 0.932764 -0.58347
O_ O_ 0.624153 0.251552 0.888081 -0.58347
O_ O_ 0.650917 0.0977822 0.925708 -0.58347
O_ O_ 0.657864 0.105853 0.878513 -0.58347
O_ O_ 0.575734 0.173797 0.929044 -0.58347
O_ O_ 0.567975 0.164742 0.882438 -0.58347
O_ O_ 0.567815 0.214785 0.579794 -0.46727
O_ O_ 0.736075 0.173411 0.586012 -0.46727
O_ O_ 0.536906 0.181641 0.726006 -0.46727
O_ O_ 0.705533 0.142235 0.734676 -0.46727
O_ O_ 0.798313 0.330563 0.675892 -0.58347
O_ O_ 0.805442 0.307901 0.631147 -0.58347
O_ O_ 0.872212 0.255388 0.680255 -0.58347
O_ O_ 0.894106 0.245049 0.636276 -0.58347
O_ O_ 0.8715 0.399913 0.670874 -0.58347
O_ O_ 0.866041 0.392795 0.624036 -0.58347
O_ O_ 0.946913 0.329569 0.675239 -0.58347
O_ O_ 0.955834 0.334571 0.628232 -0.58347
O_ O_ 0.942928 0.294148 0.82502 -0.46727
O_ O_ 0.769681 0.314485 0.835933 -0.46727
O_ O_ 0.971663 0.312214 0.974901 -0.46727
O_ O_ 0.797891 0.338509 0.982688 -0.46727
Zn Zn 0.619654 0.690501 0.382963 0.90689
Zn Zn 0.624459 0.680022 0.429323 0.90689
Zn Zn 0.872621 0.817021 0.130275 0.90689
Zn Zn 0.861298 0.820516 0.179181 0.90689
H_ H_ 0.79386 0.699148 0.446021 0.11455
H_ H_ 0.867844 0.687281 0.34884 0.11455
H_ H_ 0.773356 0.684875 0.354238 0.11455
H_ H_ 0.878193 0.691737 0.466262 0.11455
H_ H_ 0.973538 0.691472 0.460562 0.11455
H_ H_ 0.951492 0.677695 0.370015 0.11455
H_ H_ 0.610211 0.513951 0.442806 0.11455
H_ H_ 0.59745 0.938466 0.346246 0.11455
H_ H_ 0.659986 0.531915 0.353793 0.11455
H_ H_ 0.652013 0.932872 0.461011 0.11455
H_ H_ 0.644029 0.840171 0.45651 0.11455
H_ H_ 0.597599 0.854585 0.368877 0.11455
H_ H_ 0.567651 0.613762 0.466616 0.11455
H_ H_ 0.564067 0.567483 0.0120902 0.11455
H_ H_ 0.600289 0.609663 0.0561945 0.11455
H_ H_ 0.698868 0.733855 0.468963 0.11455
H_ H_ 0.729387 0.782327 0.018124 0.11455
H_ H_ 0.690787 0.771599 0.0649939 0.11455
H_ H_ 0.497478 0.720495 0.121523 0.11455
H_ H_ 0.483075 0.69994 0.172414 0.11455
H_ H_ 0.750415 0.67664 0.142345 0.11455
H_ H_ 0.736873 0.671654 0.194295 0.11455
H_ H_ 0.558146 0.590774 0.250629 0.11455
H_ H_ 0.540179 0.564234 0.298433 0.11455
H_ H_ 0.570301 0.619442 0.339031 0.11455
H_ H_ 0.627822 0.761755 0.259415 0.11455
H_ H_ 0.665709 0.806263 0.304379 0.11455
H_ H_ 0.670808 0.763402 0.347277 0.11455
H_ H_ 0.69708 0.822852 0.193095 0.11455
H_ H_ 0.619406 0.842645 0.0980903 0.11455
H_ H_ 0.714375 0.83678 0.104301 0.11455
H_ H_ 0.611705 0.815682 0.21431 0.11455
H_ H_ 0.522009 0.830173 0.209687 0.11455
H_ H_ 0.532063 0.826438 0.118516 0.11455
H_ H_ 0.853126 0.9857 0.190488 0.11455
H_ H_ 0.812222 0.561938 0.104242 0.11455
H_ H_ 0.876255 0.973197 0.0970297 0.11455
H_ H_ 0.902237 0.571069 0.210299 0.11455
H_ H_ 0.905067 0.662604 0.203991 0.11455
H_ H_ 0.825446 0.653328 0.124347 0.11455
H_ H_ 0.908791 0.902629 0.216738 0.11455
H_ H_ 0.931416 0.927341 0.267132 0.11455
H_ H_ 0.877673 0.888187 0.305194 0.11455
H_ H_ 0.801143 0.762662 0.222878 0.11455
H_ H_ 0.767347 0.71105 0.262337 0.11455
H_ H_ 0.791046 0.730038 0.311349 0.11455
H_ H_ 0.980038 0.808076 0.368611 0.11455
H_ H_ -0.007040999999999964 0.823818 0.420192 0.11455
H_ H_ 0.727082 0.825895 0.390461 0.11455
H_ H_ 0.74383 0.822548 0.441641 0.11455
H_ H_ 0.922369 0.932813 0.49877 0.11455
H_ H_ 0.950805 0.932915 0.0447328 0.11455
H_ H_ 0.9218 0.882321 0.0877582 0.11455
H_ H_ 0.82412 0.752782 0.0079508 0.11455
H_ H_ 0.796796 0.705138 0.0529066 0.11455
H_ H_ 0.814304 0.742145 0.0975712 0.11455
C_ C_ 0.720002 0.693404 0.404081 0.68181
C_ C_ 0.775545 0.68935 0.401463 -0.05681
C_ C_ 0.807985 0.69498 0.425326 -0.08735
C_ C_ 0.861749 0.691672 0.422396 -0.05681
C_ C_ 0.882558 0.689535 0.39408 -0.05681
C_ C_ 0.850613 0.688026 0.369944 -0.08735
C_ C_ 0.797275 0.686171 0.373763 -0.08735
C_ C_ 0.895131 0.693539 0.445875 -0.08735
C_ C_ 0.947747 0.687087 0.442603 -0.08735
C_ C_ 0.968709 0.68488 0.41534 -0.05681
C_ C_ 0.936121 0.684667 0.391166 -0.08735
C_ C_ 0.615012 0.784004 0.412913 0.68181
C_ C_ 0.625643 0.587081 0.39948 0.68181
C_ C_ 0.632003 0.532098 0.397528 -0.05681
C_ C_ 0.640139 0.999009 0.419561 -0.08735
C_ C_ 0.631319 0.947156 0.417003 -0.05681
C_ C_ 0.618749 0.925728 0.389857 -0.05681
C_ C_ 0.605068 0.955407 0.366674 -0.08735
C_ C_ 0.609305 1.00635158 0.370165 -0.08735
C_ C_ 0.641258 0.916144 0.440784 -0.08735
C_ C_ 0.634826 0.863657 0.438771 -0.08735
C_ C_ 0.621883 0.839289 0.41333 -0.05681
C_ C_ 0.61116 0.871788 0.388983 -0.08735
C_ C_ 0.523856 0.680002 0.40833 0.68181
C_ C_ 0.596156 0.626393 0.482555 0.1947
C_ C_ 0.588188 0.600368 0.00963327 -0.08735
C_ C_ 0.606999 0.626564 0.0347295 -0.08735
C_ C_ 0.63162 0.673345 0.0296401 -0.05681
C_ C_ 0.648041 0.685839 1.00138174 0.18498
C_ C_ 0.689903 0.727281 0.491185 -0.08735
C_ C_ 0.701079 0.752935 0.0209568 -0.08735
C_ C_ 0.678701 0.747845 0.0479465 -0.08735
C_ C_ 0.648919 0.704305 0.053322 0.18498
C_ C_ 0.676874 0.685539 0.100738 0.44287
C_ C_ 0.588209 0.705032 0.093074 0.44287
C_ C_ 0.579042 0.704209 0.123773 -0.05681
C_ C_ 0.530214 0.71229 0.135481 -0.08735
C_ C_ 0.523424 0.703203 0.165561 -0.08735
C_ C_ 0.564253 0.693999 0.183606 -0.05681
C_ C_ 0.614115 0.691373 0.172591 -0.05681
C_ C_ 0.620758 0.689751 0.14272 -0.05681
C_ C_ 0.6714 0.685784 0.131541 -0.05681
C_ C_ 0.712002 0.681432 0.15058 -0.08735
C_ C_ 0.703971 0.67633 0.180572 -0.08735
C_ C_ 0.655514 0.685781 0.192574 -0.05681
C_ C_ 0.646451 0.681348 0.221359 0.44287
C_ C_ 0.556853 0.6832 0.213406 0.44287
C_ C_ 0.588812 0.663083 0.261315 0.18498
C_ C_ 0.567678 0.615659 0.267237 -0.08735
C_ C_ 0.558351 0.600965 0.294808 -0.08735
C_ C_ 0.572096 0.633431 0.317903 -0.08735
C_ C_ 0.602053 0.677206 0.312089 0.18498
C_ C_ 0.604549 0.696302 0.284505 -0.05681
C_ C_ 0.62898 0.743049 0.280276 -0.08735
C_ C_ 0.652475 0.768317 0.303798 -0.08735
C_ C_ 0.649104 0.744894 0.330341 0.1947
C_ C_ 0.766753 0.811548 0.152434 0.68181
C_ C_ 0.711329 0.817462 0.148379 -0.05681
C_ C_ 0.679242 0.821672 0.172507 -0.08735
C_ C_ 0.626425 0.822186 0.17011 -0.05681
C_ C_ 0.604625 0.828805 0.142588 -0.05681
C_ C_ 0.635875 0.825602 0.11754 -0.08735
C_ C_ 0.688302 0.824983 0.122221 -0.08735
C_ C_ 0.59619 0.820063 0.193875 -0.08735
C_ C_ 0.544312 0.825416 0.19085 -0.08735
C_ C_ 0.521158 0.828523 0.164798 -0.05681
C_ C_ 0.551923 0.827553 0.140368 -0.08735
C_ C_ 0.871029 0.720929 0.1635 0.68181
C_ C_ 0.86006 0.916381 0.146657 0.68181
C_ C_ 0.87306 0.971688 0.144617 -0.05681
C_ C_ 0.888271 0.505186 0.167197 -0.08735
C_ C_ 0.880493 0.558546 0.166441 -0.05681
C_ C_ 0.856445 0.58168 0.14209 -0.05681
C_ C_ 0.833911 0.548262 0.121492 -0.08735
C_ C_ 0.877648 0.995205 0.117042 -0.08735
C_ C_ 0.888147 0.58801 0.190737 -0.08735
C_ C_ 0.88856 0.640078 0.187815 -0.08735
C_ C_ 0.869974 0.665126 0.162946 -0.05681
C_ C_ 0.84931 0.634579 0.141109 -0.08735
C_ C_ 0.9643 0.829034 0.159245 0.68181
C_ C_ 0.892735 0.882587 0.233889 0.1947
C_ C_ 0.901484 0.89929 0.261886 -0.08735
C_ C_ 0.873331 0.87579 0.283109 -0.08735
C_ C_ 0.847723 0.830423 0.278289 -0.05681
C_ C_ 0.837519 0.817498 0.249817 0.18498
C_ C_ 0.809455 0.772449 0.244038 -0.08735
C_ C_ 0.791829 0.741079 0.266217 -0.08735
C_ C_ 0.804726 0.755689 0.294436 -0.08735
C_ C_ 0.828505 0.799873 0.300907 0.18498
C_ C_ 0.797 0.818054 0.348615 0.44287
C_ C_ 0.884281 0.809391 0.34165 0.44287
C_ C_ 0.893985 0.812365 0.371536 -0.05681
C_ C_ 0.94369 0.814092 0.382568 -0.08735
C_ C_ 0.954646 0.822122 0.411129 -0.08735
C_ C_ 0.914863 0.834562 0.429651 -0.05681
C_ C_ 0.86394 0.83214 0.419095 -0.05681
C_ C_ 0.854162 0.823118 0.389252 -0.05681
C_ C_ 0.80491 0.827309 0.378338 -0.05681
C_ C_ 0.765567 0.832196 0.397662 -0.08735
C_ C_ 0.774696 0.825357 0.427153 -0.08735
C_ C_ 0.823274 0.834976 0.437817 -0.05681
C_ C_ 0.831469 0.840359 0.468195 0.44287
C_ C_ 0.920264 0.841476 0.459503 0.44287
C_ C_ 0.884694 0.839143 0.00871173 0.18498
C_ C_ 0.914262 0.885238 0.0137996 -0.08735
C_ C_ 0.926618 0.9004 0.0416795 -0.08735
C_ C_ 0.911908 0.869305 0.0654398 -0.08735
C_ C_ 0.88 0.826238 0.0613873 0.18498
C_ C_ 0.867751 0.809413 0.0326199 -0.05681
C_ C_ 0.838327 0.765423 0.0286833 -0.08735
C_ C_ 0.82194 0.738742 0.0534169 -0.08735
C_ C_ 0.831187 0.761894 0.0802564 0.1947
N_ N_ 0.627062 0.666393 0.47707 -0.29468
N_ N_ 0.635797 0.691753 0.0828119 -0.17154
N_ N_ 0.597926 0.678067 0.231443 -0.17154
N_ N_ 0.617289 0.705897 0.334228 -0.29468
N_ N_ 0.86437 0.839612 0.227955 -0.29468
N_ N_ 0.837206 0.812054 0.330801 -0.17154
N_ N_ 0.880261 0.847096 0.477863 -0.17154
N_ N_ 0.865994 0.797251 0.0837852 -0.29468
O_ O_ 0.698731 0.676004 0.426424 -0.58347
O_ O_ 0.693186 0.702309 0.382447 -0.58347
O_ O_ 0.626165 0.755942 0.43411 -0.58347
O_ O_ 0.608342 0.762933 0.388462 -0.58347
O_ O_ 0.618649 0.605235 0.424919 -0.58347
O_ O_ 0.630243 0.616085 0.377951 -0.58347
O_ O_ 0.551475 0.686746 0.429837 -0.58347
O_ O_ 0.543146 0.679367 0.383671 -0.58347
O_ O_ 0.549905 0.712237 0.0748234 -0.46727
O_ O_ 0.720953 0.672222 0.0909061 -0.46727
O_ O_ 0.510813 0.688834 0.224672 -0.46727
O_ O_ 0.686187 0.675085 0.238008 -0.46727
O_ O_ 0.785565 0.81251 0.177216 -0.58347
O_ O_ 0.795528 0.814534 0.131365 -0.58347
O_ O_ 0.875489 0.746629 0.186048 -0.58347
O_ O_ 0.868029 0.741952 0.139178 -0.58347
O_ O_ 0.854111 0.897306 0.170817 -0.58347
O_ O_ 0.871022 0.888555 0.125985 -0.58347
O_ O_ 0.936132 0.828872 0.181234 -0.58347
O_ O_ 0.947808 0.817439 0.133971 -0.58347
O_ O_ 0.923434 0.795245 0.324454 -0.46727
O_ O_ 0.751448 0.808694 0.33835 -0.46727
O_ O_ 0.965988 0.830722 0.471331 -0.46727
O_ O_ 0.794304 0.841715 0.485971 -0.46727
Zn Zn 0.634543 0.683413 0.879685 0.90689
Zn Zn 0.637207 0.672206 0.930208 0.90689
Zn Zn 0.873057 0.821448 0.631361 0.90689
Zn Zn 0.867241 0.824385 0.677672 0.90689
H_ H_ 0.809633 0.68369 0.949585 0.11455
H_ H_ 0.874086 0.660409 0.850993 0.11455
H_ H_ 0.783243 0.670198 0.857197 0.11455
H_ H_ 0.892174 0.679107 0.968214 0.11455
H_ H_ 0.987656 0.667114 0.961858 0.11455
H_ H_ 0.963799 0.674964 0.870153 0.11455
H_ H_ 0.622719 0.507171 0.940625 0.11455
H_ H_ 0.671593 0.930032 0.848613 0.11455
H_ H_ 0.641232 0.519462 0.850335 0.11455
H_ H_ 0.652528 0.923475 0.965812 0.11455
H_ H_ 0.630222 0.830872 0.961443 0.11455
H_ H_ 0.658724 0.843711 0.871385 0.11455
H_ H_ 0.581546 0.597327 0.96498 0.11455
H_ H_ 0.557272 0.587579 0.518009 0.11455
H_ H_ 0.610896 0.619673 0.554777 0.11455
H_ H_ 0.692784 0.738194 0.977031 0.11455
H_ H_ 0.746019 0.779653 0.507237 0.11455
H_ H_ 0.72022 0.771174 0.557759 0.11455
H_ H_ 0.524707 0.71116 0.617644 0.11455
H_ H_ 0.508778 0.69328 0.669365 0.11455
H_ H_ 0.772719 0.653553 0.636435 0.11455
H_ H_ 0.758711 0.653713 0.689094 0.11455
H_ H_ 0.566198 0.600204 0.745224 0.11455
H_ H_ 0.538018 0.58143 0.793284 0.11455
H_ H_ 0.570534 0.630069 0.835145 0.11455
H_ H_ 0.669306 0.750159 0.757707 0.11455
H_ H_ 0.720626 0.782447 0.797682 0.11455
H_ H_ 0.699951 0.752049 0.845637 0.11455
H_ H_ 0.699674 0.811637 0.692506 0.11455
H_ H_ 0.630414 0.831499 0.594163 0.11455
H_ H_ 0.7228 0.834735 0.601727 0.11455
H_ H_ 0.614786 0.809343 0.71279 0.11455
H_ H_ 0.522846 0.821907 0.707035 0.11455
H_ H_ 0.543405 0.829459 0.614606 0.11455
H_ H_ 0.87196 0.990924 0.693081 0.11455
H_ H_ 0.850528 0.568775 0.592617 0.11455
H_ H_ 0.828077 0.976746 0.606076 0.11455
H_ H_ 0.87365 0.572021 0.710673 0.11455
H_ H_ 0.887767 0.66605 0.705563 0.11455
H_ H_ 0.866968 0.652703 0.613992 0.11455
H_ H_ 0.916305 0.900162 0.715245 0.11455
H_ H_ 0.946646 0.919232 0.761049 0.11455
H_ H_ 0.915335 0.869687 0.803991 0.11455
H_ H_ 0.812772 0.754357 0.722532 0.11455
H_ H_ 0.791399 0.693333 0.762503 0.11455
H_ H_ 0.81579 0.714867 0.811728 0.11455
H_ H_ 1.00444 0.77829 0.87669 0.11455
H_ H_ 1.00630052 0.802344 0.927457 0.11455
H_ H_ 0.743503 0.812584 0.878831 0.11455
H_ H_ 0.750935 0.822886 0.932063 0.11455
H_ H_ 0.929334 0.906167 0.995593 0.11455
H_ H_ 0.912624 0.963706 0.547115 0.11455
H_ H_ 0.903885 0.903123 0.58689 0.11455
H_ H_ 0.85177 0.7622 0.504658 0.11455
H_ H_ 0.828558 0.707471 0.543992 0.11455
H_ H_ 0.825322 0.745225 0.59382 0.11455
C_ C_ 0.733469 0.678275 0.907589 0.68181
C_ C_ 0.78744 0.673316 0.904042 -0.05681
C_ C_ 0.821606 0.670608 0.927818 -0.08735
C_ C_ 0.875403 0.666566 0.922912 -0.05681
C_ C_ 0.896237 0.663236 0.89553 -0.05681
C_ C_ 0.860938 0.662507 0.87255 -0.08735
C_ C_ 0.807983 0.665689 0.876405 -0.08735
C_ C_ 0.909479 0.670684 0.946929 -0.08735
C_ C_ 0.961671 0.67245 0.943001 -0.08735
C_ C_ 0.982526 0.667835 0.915044 -0.05681
C_ C_ 0.948244 0.66535 0.890974 -0.08735
C_ C_ 0.634566 0.776739 0.912666 0.68181
C_ C_ 0.630479 0.579118 0.898829 0.68181
C_ C_ 0.631496 0.521541 0.896224 -0.05681
C_ C_ 0.643629 -0.005882000000000054 0.922673 -0.08735
C_ C_ 0.643655 0.940502 0.92073 -0.05681
C_ C_ 0.648515 0.915859 0.892831 -0.05681
C_ C_ 0.659846 0.945941 0.86965 -0.08735
C_ C_ 0.661199 -0.002422999999999953 0.871472 -0.08735
C_ C_ 0.642042 0.906881 0.945609 -0.08735
C_ C_ 0.637531 0.854987 0.942879 -0.08735
C_ C_ 0.639852 0.83208 0.91604 -0.05681
C_ C_ 0.649509 0.862986 0.891209 -0.08735
C_ C_ 0.539465 0.675303 0.906431 0.68181
C_ C_ 0.598175 0.616307 0.982407 0.1947
C_ C_ 0.58882 0.614548 0.510962 -0.08735
C_ C_ 0.616885 0.63494 0.533632 -0.08735
C_ C_ 0.646283 0.677031 0.5275 -0.05681
C_ C_ 0.653853 0.691236 0.498238 0.18498
C_ C_ 0.679484 0.72838 0.997647 -0.08735
C_ C_ 0.712447 0.757429 0.512817 -0.08735
C_ C_ 0.701632 0.747939 0.542201 -0.08735
C_ C_ 0.671281 0.706724 0.549908 0.18498
C_ C_ 0.701887 0.686847 0.597265 0.44287
C_ C_ 0.61485 0.705218 0.591931 0.44287
C_ C_ 0.604809 0.697108 0.621029 -0.05681
C_ C_ 0.556492 0.7036 0.632268 -0.08735
C_ C_ 0.546368 0.692473 0.661313 -0.08735
C_ C_ 0.587954 0.689596 0.680488 -0.05681
C_ C_ 0.637227 0.680441 0.668442 -0.05681
C_ C_ 0.644439 0.682336 0.639354 -0.05681
C_ C_ 0.694333 0.678468 0.626877 -0.05681
C_ C_ 0.734611 0.665587 0.64462 -0.08735
C_ C_ 0.726137 0.66319 0.674744 -0.08735
C_ C_ 0.678036 0.672679 0.685962 -0.05681
C_ C_ 0.670513 0.666149 0.715903 0.44287
C_ C_ 0.581709 0.686314 0.710652 0.44287
C_ C_ 0.613751 0.66204 0.756884 0.18498
C_ C_ 0.585187 0.618961 0.762783 -0.08735
C_ C_ 0.56743 0.609435 0.789929 -0.08735
C_ C_ 0.589127 0.633205 0.813487 -0.08735
C_ C_ 0.629074 0.668744 0.809583 0.18498
C_ C_ 0.639702 0.683723 0.780393 -0.05681
C_ C_ 0.665991 0.730391 0.777861 -0.08735
C_ C_ 0.6941 0.74934 0.800032 -0.08735
C_ C_ 0.683199 0.73178 0.827857 0.1947
C_ C_ 0.772083 0.820395 0.650906 0.68181
C_ C_ 0.717196 0.824368 0.647348 -0.05681
C_ C_ 0.684881 0.817478 0.670826 -0.08735
C_ C_ 0.632212 0.820268 0.6681 -0.05681
C_ C_ 0.610482 0.82015 0.640129 -0.05681
C_ C_ 0.644086 0.825751 0.616184 -0.08735
C_ C_ 0.697637 0.828688 0.619644 -0.08735
C_ C_ 0.599224 0.817241 0.691471 -0.08735
C_ C_ 0.546372 0.821411 0.687702 -0.08735
C_ C_ 0.526195 0.828375 0.659791 -0.05681
C_ C_ 0.558196 0.824698 0.635896 -0.08735
C_ C_ 0.874278 0.724679 0.658258 0.68181
C_ C_ 0.849397 0.921453 0.653165 0.68181
C_ C_ 0.850417 0.977684 0.649357 -0.05681
C_ C_ 0.863258 0.507772 0.66946 -0.08735
C_ C_ 0.86329 0.561059 0.665761 -0.05681
C_ C_ 0.864491 0.58291 0.638108 -0.05681
C_ C_ 0.860007 0.550344 0.613835 -0.08735
C_ C_ 0.840215 0.999589968 0.623609 -0.08735
C_ C_ 0.87059 0.591961 0.68971 -0.08735
C_ C_ 0.878064 0.644424 0.687032 -0.08735
C_ C_ 0.876989 0.668772 0.659971 -0.05681
C_ C_ 0.868425 0.636296 0.635453 -0.08735
C_ C_ 0.97093 0.828648 0.658162 0.68181
C_ C_ 0.90341 0.873329 0.732489 0.1947
C_ C_ 0.918046 0.888529 0.758793 -0.08735
C_ C_ 0.908243 0.855627 0.782099 -0.08735
C_ C_ 0.876815 0.81304 0.778324 -0.05681
C_ C_ 0.860252 0.801419 0.749758 0.18498
C_ C_ 0.830015 0.759879 0.743648 -0.08735
C_ C_ 0.81882 0.724527 0.765382 -0.08735
C_ C_ 0.833903 0.736938 0.793701 -0.08735
C_ C_ 0.867445 0.77849 0.799906 0.18498
C_ C_ 0.829442 0.808766 0.844008 0.44287
C_ C_ 0.914584 0.789153 0.843187 0.44287
C_ C_ 0.920958 0.796899 0.872759 -0.05681
C_ C_ 0.968333 0.791848 0.887461 -0.08735
C_ C_ 0.96865 0.802258 0.917143 -0.08735
C_ C_ 0.925304 0.811456 0.933374 -0.05681
C_ C_ 0.878754 0.814914 0.918455 -0.05681
C_ C_ 0.875831 0.809253 0.888659 -0.05681
C_ C_ 0.829408 0.814113 0.874299 -0.05681
C_ C_ 0.782807 0.819508 0.889615 -0.08735
C_ C_ 0.786625 0.820931 0.919418 -0.08735
C_ C_ 0.835154 0.819985 0.934504 -0.05681
C_ C_ 0.837856 0.827464 0.96522 0.44287
C_ C_ 0.925306 0.811402 0.963497 0.44287
C_ C_ 0.887558 0.858147 0.508265 0.18498
C_ C_ 0.90496 0.907865 0.514711 -0.08735
C_ C_ 0.911426 0.924391 0.543648 -0.08735
C_ C_ 0.897423 0.890489 0.565845 -0.08735
C_ C_ 0.88451 0.840631 0.559505 0.18498
C_ C_ 0.876898 0.824778 0.530532 -0.05681
C_ C_ 0.853084 0.778777 0.525595 -0.08735
C_ C_ 0.838901 0.748064 0.548648 -0.08735
C_ C_ 0.843198 0.765519 0.576632 0.1947
N_ N_ 0.62804 0.658442 0.978712 -0.29468
N_ N_ 0.661724 0.698588 0.580461 -0.17154
N_ N_ 0.623447 0.677053 0.728508 -0.17154
N_ N_ 0.649317 0.694063 0.83257 -0.29468
N_ N_ 0.874931 0.830799 0.727638 -0.29468
N_ N_ 0.870921 0.792985 0.829706 -0.17154
N_ N_ 0.882842 0.821763 0.978911 -0.17154
N_ N_ 0.867838 0.80906 0.581925 -0.29468
O_ O_ 0.712163 0.677738 0.931847 -0.58347
O_ O_ 0.707593 0.681148 0.884046 -0.58347
O_ O_ 0.633747 0.748344 0.93399 -0.58347
O_ O_ 0.638761 0.757949 0.887188 -0.58347
O_ O_ 0.638662 0.598012 0.923312 -0.58347
O_ O_ 0.633335 0.607511 0.876891 -0.58347
O_ O_ 0.564174 0.669612 0.92833 -0.58347
O_ O_ 0.56006 0.677826 0.882158 -0.58347
O_ O_ 0.577732 0.71639 0.57472 -0.46727
O_ O_ 0.745826 0.673836 0.584335 -0.46727
O_ O_ 0.536832 0.687524 0.720968 -0.46727
O_ O_ 0.707785 0.647305 0.732006 -0.46727
O_ O_ 0.79205 0.820205 0.67646 -0.58347
O_ O_ 0.800882 0.814442 0.630086 -0.58347
O_ O_ 0.874706 0.751268 0.680782 -0.58347
O_ O_ 0.877583 0.746463 0.633669 -0.58347
O_ O_ 0.856889 0.901594 0.677396 -0.58347
O_ O_ 0.858129 0.894581 0.631152 -0.58347
O_ O_ 0.941648 0.824927 0.679798 -0.58347
O_ O_ 0.950613 0.831259 0.633541 -0.58347
O_ O_ 0.951174 0.765484 0.828506 -0.46727
O_ O_ 0.786224 0.818052 0.83048 -0.46727
O_ O_ 0.966206 0.798999 0.978112 -0.46727
O_ O_ 0.797166 0.836848 0.980005 -0.46727
