_cell_length_a 26.376
_cell_length_b 26.400000238300095
_cell_length_c 46.67800035477134
_cell_angle_alpha 90.00700052986613
_cell_angle_beta 89.99899961309502
_cell_angle_gamma 90.45000003183146
_symmetry_space_group_name_H-M         'P 1'
_symmetry_Int_Tables_number            1
loop_
_symmetry_equiv_pos_as_xyz
   'x, y, z'
                         
loop_
_atom_site_label
_atom_site_type_symbol
_atom_site_fract_x 
_atom_site_fract_y
_atom_site_fract_z
_atom_site_charge
Zn Zn 0.135141 0.185321 0.379163 0.90689
Zn Zn 0.139557 0.179388 0.429435 0.90689
Zn Zn 0.380427 0.304745 0.131384 0.90689
Zn Zn 0.367919 0.311239 0.180428 0.90689
H_ H_ 0.301653 0.190681 0.44244 0.11455
H_ H_ 0.387078 0.155996 0.349031 0.11455
H_ H_ 0.287592 0.15707 0.353576 0.11455
H_ H_ 0.387011 0.208203 0.463705 0.11455
H_ H_ 0.477118 0.200388 0.461351 0.11455
H_ H_ 0.467701 0.167563 0.371352 0.11455
H_ H_ 0.134216 0.0129811 0.443098 0.11455
H_ H_ 0.132349 0.43145 0.349166 0.11455
H_ H_ 0.157523 0.0216932 0.351798 0.11455
H_ H_ 0.159232 0.424799 0.466979 0.11455
H_ H_ 0.154445 0.333916 0.461153 0.11455
H_ H_ 0.134103 0.3515 0.37027 0.11455
H_ H_ 0.0801883 0.106173 0.466524 0.11455
H_ H_ 0.0934972 0.0692861 0.018281 0.11455
H_ H_ 0.131704 0.122867 0.0591941 0.11455
H_ H_ 0.18839 0.247252 0.473177 0.11455
H_ H_ 0.21916 0.304462 0.0104804 0.11455
H_ H_ 0.206352 0.284684 0.0606352 0.11455
H_ H_ 0.0269084 0.230192 0.120716 0.11455
H_ H_ 0.010623 0.19999 0.168849 0.11455
H_ H_ 0.273925 0.19213 0.138537 0.11455
H_ H_ 0.257659 0.179711 0.191111 0.11455
H_ H_ 0.0767537 0.0876142 0.248423 0.11455
H_ H_ 0.0462303 0.0698176 0.298624 0.11455
H_ H_ 0.0699955 0.126502 0.336354 0.11455
H_ H_ 0.155725 0.249628 0.254506 0.11455
H_ H_ 0.199026 0.290801 0.295252 0.11455
H_ H_ 0.188314 0.258766 0.344533 0.11455
H_ H_ 0.200236 0.307759 0.194999 0.11455
H_ H_ 0.135571 0.337879 0.100102 0.11455
H_ H_ 0.223126 0.32773 0.106178 0.11455
H_ H_ 0.117028 0.298128 0.214299 0.11455
H_ H_ 0.0243985 0.304269 0.206349 0.11455
H_ H_ 0.0525789 0.340211 0.118658 0.11455
H_ H_ 0.401387 0.478528 0.18901 0.11455
H_ H_ 0.400485 0.0591491 0.0972399 0.11455
H_ H_ 0.327416 0.460181 0.10613 0.11455
H_ H_ 0.344667 0.061453 0.211251 0.11455
H_ H_ 0.354971 0.154226 0.20832 0.11455
H_ H_ 0.398922 0.139592 0.120774 0.11455
H_ H_ 0.420279 0.390085 0.214819 0.11455
H_ H_ 0.43454 0.419325 0.263289 0.11455
H_ H_ 0.389753 0.381217 0.303318 0.11455
H_ H_ 0.30934 0.248764 0.222748 0.11455
H_ H_ 0.262915 0.209888 0.262151 0.11455
H_ H_ 0.284737 0.231799 0.314742 0.11455
H_ H_ 0.489731 0.299241 0.371354 0.11455
H_ H_ 0.506122 0.315692 0.422858 0.11455
H_ H_ 0.242529 0.369922 0.388195 0.11455
H_ H_ 0.2574 0.379944 0.44043 0.11455
H_ H_ 0.420095 0.430048 0.50176 0.11455
H_ H_ 0.450938 0.430607 0.0460347 0.11455
H_ H_ 0.433831 0.367969 0.0880085 0.11455
H_ H_ 0.341279 0.248201 0.00622577 0.11455
H_ H_ 0.310804 0.197775 0.0473964 0.11455
H_ H_ 0.32687 0.224934 0.0950149 0.11455
C_ C_ 0.234394 0.184068 0.401095 0.68181
C_ C_ 0.291188 0.179472 0.397271 -0.05681
C_ C_ 0.321279 0.181815 0.422329 -0.08735
C_ C_ 0.37418 0.180955 0.420322 -0.05681
C_ C_ 0.397734 0.173202 0.392936 -0.05681
C_ C_ 0.367632 0.165509 0.368333 -0.08735
C_ C_ 0.314046 0.167719 0.37031 -0.08735
C_ C_ 0.403383 0.193398 0.444245 -0.08735
C_ C_ 0.455223 0.189064 0.442893 -0.08735
C_ C_ 0.479038 0.18 0.416495 -0.05681
C_ C_ 0.450239 0.172987 0.392118 -0.08735
C_ C_ 0.139501 0.280076 0.411753 0.68181
C_ C_ 0.137654 0.0806051 0.398235 0.68181
C_ C_ 0.143276 0.0261006 0.396788 -0.05681
C_ C_ 0.141718 0.495982 0.423784 -0.08735
C_ C_ 0.139093 0.441896 0.421834 -0.05681
C_ C_ 0.13925 0.41985 0.394396 -0.05681
C_ C_ 0.137476 0.449683 0.369504 -0.08735
C_ C_ 0.136044 0.50211 0.371751 -0.08735
C_ C_ 0.144394 0.409036 0.446466 -0.08735
C_ C_ 0.142657 0.356859 0.443274 -0.08735
C_ C_ 0.134186 0.335872 0.415591 -0.05681
C_ C_ 0.135791 0.367821 0.391085 -0.08735
C_ C_ 0.0380324 0.180693 0.40237 0.68181
C_ C_ 0.106263 0.12335 0.483474 0.1947
C_ C_ 0.10684 0.108111 0.0153677 -0.08735
C_ C_ 0.132101 0.135082 0.0366724 -0.08735
C_ C_ 0.155188 0.180168 0.0296062 -0.05681
C_ C_ 0.156111 0.197043 1.00052 0.18498
C_ C_ 0.178397 0.236181 0.493825 -0.08735
C_ C_ 0.199783 0.272208 0.015303 -0.08735
C_ C_ 0.1959 0.257369 0.0433852 -0.08735
C_ C_ 0.172166 0.213459 0.0512626 0.18498
C_ C_ 0.201939 0.192483 0.0978554 0.44287
C_ C_ 0.116325 0.21759 0.0929007 0.44287
C_ C_ 0.104534 0.203065 0.120206 -0.05681
C_ C_ 0.0546586 0.204138 0.131095 -0.08735
C_ C_ 0.0452857 0.190942 0.160062 -0.08735
C_ C_ 0.0850433 0.179874 0.178971 -0.05681
C_ C_ 0.135504 0.180029 0.1685 -0.05681
C_ C_ 0.144149 0.188341 0.138179 -0.05681
C_ C_ 0.194203 0.190932 0.126975 -0.05681
C_ C_ 0.234593 0.187481 0.146551 -0.08735
C_ C_ 0.226144 0.179141 0.175643 -0.08735
C_ C_ 0.176083 0.174942 0.187473 -0.05681
C_ C_ 0.16507 0.169525 0.216165 0.44287
C_ C_ 0.0774797 0.174967 0.208285 0.44287
C_ C_ 0.107651 0.156784 0.256563 0.18498
C_ C_ 0.0811554 0.114127 0.264264 -0.08735
C_ C_ 0.0658403 0.102153 0.293127 -0.08735
C_ C_ 0.0847705 0.133002 0.314464 -0.08735
C_ C_ 0.114394 0.174138 0.309155 0.18498
C_ C_ 0.123149 0.190749 0.280236 -0.05681
C_ C_ 0.151145 0.234907 0.275981 -0.08735
C_ C_ 0.175436 0.254913 0.299023 -0.08735
C_ C_ 0.163595 0.242014 0.327249 0.1947
C_ C_ 0.276467 0.310162 0.156027 0.68181
C_ C_ 0.222046 0.316313 0.152066 -0.05681
C_ C_ 0.186924 0.308207 0.174303 -0.08735
C_ C_ 0.136097 0.315663 0.171768 -0.05681
C_ C_ 0.117443 0.326551 0.14438 -0.05681
C_ C_ 0.148444 0.323511 0.119968 -0.08735
C_ C_ 0.201233 0.319393 0.12349 -0.08735
C_ C_ 0.102965 0.310338 0.194959 -0.08735
C_ C_ 0.0512928 0.319738 0.191538 -0.08735
C_ C_ 0.0329304 0.327729 0.163613 -0.05681
C_ C_ 0.0666662 0.334416 0.140105 -0.08735
C_ C_ 0.376615 0.21127 0.162271 0.68181
C_ C_ 0.373778 0.404675 0.149409 0.68181
C_ C_ 0.37018 0.460883 0.145768 -0.05681
C_ C_ 0.363517 -0.006476000000000037 0.170292 -0.08735
C_ C_ 0.377179 0.0466423 0.169362 -0.05681
C_ C_ 0.389549 0.0711037 0.142892 -0.05681
C_ C_ 0.391157 0.0424299 0.118174 -0.08735
C_ C_ 0.344077 0.483425 0.12243 -0.08735
C_ C_ 0.36266 0.079291 0.192929 -0.08735
C_ C_ 0.364962 0.131131 0.18962 -0.08735
C_ C_ 0.382259 0.155082 0.164831 -0.05681
C_ C_ 0.394986 0.124543 0.141812 -0.08735
C_ C_ 0.47415 0.31508 0.157106 0.68181
C_ C_ 0.404837 0.368097 0.232153 0.1947
C_ C_ 0.411688 0.385423 0.25964 -0.08735
C_ C_ 0.386833 0.362953 0.283111 -0.08735
C_ C_ 0.357774 0.318563 0.279199 -0.05681
C_ C_ 0.351153 0.302244 0.250439 0.18498
C_ C_ 0.315354 0.262085 0.245481 -0.08735
C_ C_ 0.292392 0.238198 0.268558 -0.08735
C_ C_ 0.303142 0.251842 0.29734 -0.08735
C_ C_ 0.336006 0.291392 0.302759 0.18498
C_ C_ 0.310116 0.322641 0.350156 0.44287
C_ C_ 0.39593 0.299298 0.343797 0.44287
C_ C_ 0.40798 0.309483 0.374091 -0.05681
C_ C_ 0.457984 0.307511 0.384807 -0.08735
C_ C_ 0.464969 0.319147 0.414459 -0.08735
C_ C_ 0.424267 0.329801 0.433476 -0.05681
C_ C_ 0.374543 0.334181 0.421388 -0.05681
C_ C_ 0.367668 0.325134 0.391777 -0.05681
C_ C_ 0.317888 0.336316 0.379517 -0.05681
C_ C_ 0.279407 0.35814 0.397626 -0.08735
C_ C_ 0.286305 0.362695 0.427448 -0.08735
C_ C_ 0.333361 0.348683 0.439364 -0.05681
C_ C_ 0.341759 0.356918 0.468348 0.44287
C_ C_ 0.427725 0.335607 0.464309 0.44287
C_ C_ 0.393415 0.337294 0.00944228 0.18498
C_ C_ 0.414659 0.385508 0.0147568 -0.08735
C_ C_ 0.425957 0.398422 0.0436054 -0.08735
C_ C_ 0.41702 0.36256 0.0655347 -0.08735
C_ C_ 0.387893 0.319453 0.0603967 0.18498
C_ C_ 0.378856 0.303847 0.0321813 -0.05681
C_ C_ 0.347216 0.262783 0.0277549 -0.08735
C_ C_ 0.330427 0.233745 0.0507031 -0.08735
C_ C_ 0.341736 0.25014 0.0786551 0.1947
N_ N_ 0.135545 0.163486 0.477177 -0.29468
N_ N_ 0.161608 0.20513 0.0809959 -0.17154
N_ N_ 0.11725 0.168109 0.225725 -0.17154
N_ N_ 0.13362 0.201866 0.332081 -0.29468
N_ N_ 0.374382 0.326983 0.227319 -0.29468
N_ N_ 0.346868 0.302941 0.333332 -0.17154
N_ N_ 0.386512 0.34283 0.481032 -0.17154
N_ N_ 0.370456 0.292237 0.0842549 -0.29468
O_ O_ 0.211607 0.18262 0.425675 -0.58347
O_ O_ 0.207535 0.182474 0.378353 -0.58347
O_ O_ 0.127791 0.252487 0.432786 -0.58347
O_ O_ 0.138831 0.2614 0.386947 -0.58347
O_ O_ 0.140688 0.101398 0.421951 -0.58347
O_ O_ 0.132904 0.107839 0.376065 -0.58347
O_ O_ 0.066058 0.172825 0.423755 -0.58347
O_ O_ 0.0583769 0.191837 0.37859 -0.58347
O_ O_ 0.0821203 0.239036 0.0767424 -0.46727
O_ O_ 0.244596 0.174824 0.0875778 -0.46727
O_ O_ 0.0349587 0.185654 0.219284 -0.46727
O_ O_ 0.203226 0.15791 0.232936 -0.46727
O_ O_ 0.295458 0.314958 0.180653 -0.58347
O_ O_ 0.302578 0.298233 0.134353 -0.58347
O_ O_ 0.361327 0.238257 0.182081 -0.58347
O_ O_ 0.389575 0.231272 0.138537 -0.58347
O_ O_ 0.364241 0.38555 0.173373 -0.58347
O_ O_ 0.375481 0.376027 0.127676 -0.58347
O_ O_ 0.445174 0.30496 0.178384 -0.58347
O_ O_ 0.455888 0.315104 0.132076 -0.58347
O_ O_ 0.431163 0.281152 0.326829 -0.46727
O_ O_ 0.267786 0.336242 0.338305 -0.46727
O_ O_ 0.474004 0.338566 0.475997 -0.46727
O_ O_ 0.304133 0.376301 0.483103 -0.46727
Zn Zn 0.123405 0.176133 0.883818 0.90689
Zn Zn 0.134808 0.174606 0.931299 0.90689
Zn Zn 0.368999 0.325005 0.633566 0.90689
Zn Zn 0.35991 0.328829 0.682693 0.90689
H_ H_ 0.304045 0.206704 0.942035 0.11455
H_ H_ 0.376771 0.163846 0.848865 0.11455
H_ H_ 0.280915 0.15911 0.855545 0.11455
H_ H_ 0.383227 0.169178 0.966624 0.11455
H_ H_ 0.475029 0.179318 0.962696 0.11455
H_ H_ 0.457089 0.161867 0.87103 0.11455
H_ H_ 0.16083 0.00830607 0.946045 0.11455
H_ H_ 0.120811 0.424014 0.8424 0.11455
H_ H_ 0.143399 0.0198031 0.854046 0.11455
H_ H_ 0.14344 0.426955 0.95786 0.11455
H_ H_ 0.141779 0.333241 0.957418 0.11455
H_ H_ 0.101721 0.333002 0.870403 0.11455
H_ H_ 0.086405 0.10314 0.971475 0.11455
H_ H_ 0.0869756 0.0668687 0.514901 0.11455
H_ H_ 0.111907 0.121057 0.554104 0.11455
H_ H_ 0.193932 0.247371 0.97298 0.11455
H_ H_ 0.20872 0.305622 0.510246 0.11455
H_ H_ 0.194043 0.283043 0.56075 0.11455
H_ H_ 0.0100559 0.180182 0.622858 0.11455
H_ H_ 0.00337125 0.173885 0.672345 0.11455
H_ H_ 0.265521 0.202029 0.641703 0.11455
H_ H_ 0.2565 0.186291 0.69268 0.11455
H_ H_ 0.0604148 0.0936875 0.745536 0.11455
H_ H_ 0.0418705 0.0640446 0.797148 0.11455
H_ H_ 0.0624877 0.119069 0.835844 0.11455
H_ H_ 0.153694 0.253908 0.761669 0.11455
H_ H_ 0.18907 0.289948 0.806084 0.11455
H_ H_ 0.18068 0.248394 0.85055 0.11455
H_ H_ 0.189606 0.33058 0.700168 0.11455
H_ H_ 0.126695 0.316318 0.600439 0.11455
H_ H_ 0.22035 0.317824 0.608958 0.11455
H_ H_ 0.104264 0.297365 0.717954 0.11455
H_ H_ 0.0140925 0.298124 0.708323 0.11455
H_ H_ 0.0427918 0.308287 0.619944 0.11455
H_ H_ 0.353932 0.497901 0.694961 0.11455
H_ H_ 0.373828 0.069691 0.591916 0.11455
H_ H_ 0.377875 0.48412 0.603369 0.11455
H_ H_ 0.377066 0.0745743 0.709592 0.11455
H_ H_ 0.38011 0.164738 0.709531 0.11455
H_ H_ 0.366675 0.159383 0.616404 0.11455
H_ H_ 0.417253 0.400483 0.718116 0.11455
H_ H_ 0.440515 0.424107 0.767418 0.11455
H_ H_ 0.401403 0.374547 0.807645 0.11455
H_ H_ 0.305517 0.261712 0.72565 0.11455
H_ H_ 0.274094 0.206781 0.764432 0.11455
H_ H_ 0.304125 0.217879 0.811841 0.11455
H_ H_ 0.491451 0.298735 0.873769 0.11455
H_ H_ 0.497893 0.305673 0.924307 0.11455
H_ H_ 0.240111 0.336865 0.889621 0.11455
H_ H_ 0.249116 0.342879 0.939003 0.11455
H_ H_ 0.42495 0.409277 -0.004909000000000052 0.11455
H_ H_ 0.442601 0.451682 0.551705 0.11455
H_ H_ 0.4148 0.390156 0.590499 0.11455
H_ H_ 0.337312 0.26571 0.508159 0.11455
H_ H_ 0.30185 0.217055 0.548979 0.11455
H_ H_ 0.315244 0.248488 0.597209 0.11455
C_ C_ 0.226776 0.175402 0.904466 0.68181
C_ C_ 0.282237 0.168762 0.901305 -0.05681
C_ C_ 0.313963 0.181127 0.925258 -0.08735
C_ C_ 0.367733 0.179965 0.921652 -0.05681
C_ C_ 0.389922 0.170618 0.895285 -0.05681
C_ C_ 0.358483 0.165112 0.870794 -0.08735
C_ C_ 0.305121 0.166606 0.873615 -0.08735
C_ C_ 0.399486 0.175625 0.945718 -0.08735
C_ C_ 0.451224 0.176717 0.943899 -0.08735
C_ C_ 0.474138 0.171545 0.916484 -0.05681
C_ C_ 0.443498 0.163328 0.892946 -0.08735
C_ C_ 0.126263 0.27265 0.913796 0.68181
C_ C_ 0.138038 0.0778222 0.902671 0.68181
C_ C_ 0.144252 0.0220504 0.900878 -0.05681
C_ C_ 0.126668 0.487799 0.91686 -0.08735
C_ C_ 0.127931 0.433694 0.914105 -0.05681
C_ C_ 0.119589 0.409541 0.88842 -0.05681
C_ C_ 0.11822 0.441154 0.86391 -0.08735
C_ C_ 0.11818 0.495577 0.865645 -0.08735
C_ C_ 0.137897 0.405379 0.938722 -0.08735
C_ C_ 0.140175 0.35337 0.938408 -0.08735
C_ C_ 0.127904 0.328052 0.913739 -0.05681
C_ C_ 0.117877 0.354862 0.887797 -0.08735
C_ C_ 0.0309023 0.161881 0.910719 0.68181
C_ C_ 0.104488 0.126373 0.987446 0.1947
C_ C_ 0.104184 0.104245 0.510779 -0.08735
C_ C_ 0.124776 0.13219 0.533257 -0.08735
C_ C_ 0.141869 0.180303 0.528699 -0.05681
C_ C_ 0.154525 0.19085 0.499373 0.18498
C_ C_ 0.181537 0.240678 0.994091 -0.08735
C_ C_ 0.189318 0.270761 0.516325 -0.08735
C_ C_ 0.18103 0.257902 0.545202 -0.08735
C_ C_ 0.160007 0.20962 0.552144 0.18498
C_ C_ 0.191723 0.192282 0.599724 0.44287
C_ C_ 0.105711 0.203005 0.594139 0.44287
C_ C_ 0.0949959 0.194469 0.622548 -0.05681
C_ C_ 0.0451749 0.18615 0.634593 -0.08735
C_ C_ 0.0394368 0.183174 0.66433 -0.08735
C_ C_ 0.0816508 0.18529 0.682653 -0.05681
C_ C_ 0.13008 0.186654 0.671438 -0.05681
C_ C_ 0.138059 0.188994 0.641409 -0.05681
C_ C_ 0.187532 0.185789 0.629719 -0.05681
C_ C_ 0.228684 0.186054 0.649209 -0.08735
C_ C_ 0.220377 0.18487 0.678826 -0.08735
C_ C_ 0.1725 0.176838 0.690079 -0.05681
C_ C_ 0.164183 0.172926 0.720372 0.44287
C_ C_ 0.076623 0.179984 0.713277 0.44287
C_ C_ 0.107186 0.157035 0.760795 0.18498
C_ C_ 0.073455 0.116864 0.764951 -0.08735
C_ C_ 0.0645118 0.0967281 0.792662 -0.08735
C_ C_ 0.0787593 0.126606 0.816002 -0.08735
C_ C_ 0.10592 0.170474 0.812496 0.18498
C_ C_ 0.120741 0.188477 0.784461 -0.05681
C_ C_ 0.147105 0.23504 0.781907 -0.08735
C_ C_ 0.16311 0.259393 0.806643 -0.08735
C_ C_ 0.155231 0.237236 0.833436 0.1947
C_ C_ 0.26612 0.318505 0.660945 0.68181
C_ C_ 0.213516 0.315887 0.655473 -0.05681
C_ C_ 0.17787 0.317366 0.678633 -0.08735
C_ C_ 0.12648 0.312683 0.673621 -0.05681
C_ C_ 0.108078 0.308976 0.645942 -0.05681
C_ C_ 0.142303 0.313177 0.62214 -0.08735
C_ C_ 0.194207 0.315014 0.627198 -0.08735
C_ C_ 0.0921749 0.310763 0.697627 -0.08735
C_ C_ 0.0406689 0.310177 0.691282 -0.08735
C_ C_ 0.020414 0.315826 0.663134 -0.05681
C_ C_ 0.055028 0.309502 0.641488 -0.08735
C_ C_ 0.3782 0.22749 0.660788 0.68181
C_ C_ 0.3577 0.427949 0.65262 0.68181
C_ C_ 0.366253 0.482975 0.649782 -0.05681
C_ C_ 0.364503 0.01248 0.666263 -0.08735
C_ C_ 0.370616 0.0646126 0.66479 -0.05681
C_ C_ 0.368811 0.0874997 0.637382 -0.05681
C_ C_ 0.369435 0.0557468 0.612816 -0.08735
C_ C_ 0.368397 0.505944 0.621952 -0.08735
C_ C_ 0.377998 0.0921667 0.688861 -0.08735
C_ C_ 0.380547 0.147305 0.688326 -0.08735
C_ C_ 0.377323 0.172044 0.661695 -0.05681
C_ C_ 0.371751 0.141558 0.636087 -0.08735
C_ C_ 0.462834 0.335778 0.655926 0.68181
C_ C_ 0.402067 0.377151 0.734753 0.1947
C_ C_ 0.414096 0.390717 0.763281 -0.08735
C_ C_ 0.396137 0.361715 0.786254 -0.08735
C_ C_ 0.365059 0.319231 0.780319 -0.05681
C_ C_ 0.352773 0.308974 0.751131 0.18498
C_ C_ 0.324523 0.265939 0.745792 -0.08735
C_ C_ 0.305641 0.234878 0.76796 -0.08735
C_ C_ 0.315906 0.247504 0.796121 -0.08735
C_ C_ 0.344082 0.292394 0.803117 0.18498
C_ C_ 0.313213 0.323399 0.850076 0.44287
C_ C_ 0.396644 0.290397 0.845522 0.44287
C_ C_ 0.406459 0.301308 0.875004 -0.05681
C_ C_ 0.456405 0.303048 0.886833 -0.08735
C_ C_ 0.462791 0.308712 0.916273 -0.08735
C_ C_ 0.421599 0.313008 0.933768 -0.05681
C_ C_ 0.371837 0.312582 0.921657 -0.05681
C_ C_ 0.365688 0.315023 0.892256 -0.05681
C_ C_ 0.317441 0.322736 0.880082 -0.05681
C_ C_ 0.274524 0.321435 0.897778 -0.08735
C_ C_ 0.281691 0.327367 0.926977 -0.08735
C_ C_ 0.330805 0.322842 0.939483 -0.05681
C_ C_ 0.338943 0.331894 0.968573 0.44287
C_ C_ 0.424387 0.307462 0.9634 0.44287
C_ C_ 0.392827 0.353944 0.512234 0.18498
C_ C_ 0.410338 0.402964 0.518807 -0.08735
C_ C_ 0.421671 0.415701 0.54775 -0.08735
C_ C_ 0.408148 0.382598 0.569086 -0.08735
C_ C_ 0.385935 0.33428 0.563188 0.18498
C_ C_ 0.381106 0.318912 0.534328 -0.05681
C_ C_ 0.347403 0.277136 0.529146 -0.08735
C_ C_ 0.329782 0.248197 0.552229 -0.08735
C_ C_ 0.333262 0.267514 0.58016 0.1947
N_ N_ 0.134979 0.16727 0.980384 -0.29468
N_ N_ 0.151386 0.196062 0.581895 -0.17154
N_ N_ 0.116765 0.17473 0.73091 -0.17154
N_ N_ 0.124834 0.195308 0.835944 -0.29468
N_ N_ 0.370895 0.338474 0.73009 -0.29468
N_ N_ 0.351874 0.304349 0.833297 -0.17154
N_ N_ 0.385667 0.323475 0.980142 -0.17154
N_ N_ 0.361038 0.309697 0.585466 -0.29468
O_ O_ 0.20883 0.186483 0.928656 -0.58347
O_ O_ 0.199016 0.170246 0.882325 -0.58347
O_ O_ 0.122974 0.248233 0.936992 -0.58347
O_ O_ 0.126512 0.248415 0.8901 -0.58347
O_ O_ 0.148122 0.10157 0.926401 -0.58347
O_ O_ 0.123739 0.103036 0.880017 -0.58347
O_ O_ 0.0605451 0.15841 0.932363 -0.58347
O_ O_ 0.0472599 0.172038 0.887453 -0.58347
O_ O_ 0.0671843 0.217492 0.578715 -0.46727
O_ O_ 0.236938 0.18331 0.586958 -0.46727
O_ O_ 0.030522 0.175418 0.723707 -0.46727
O_ O_ 0.203456 0.163475 0.737959 -0.46727
O_ O_ 0.281392 0.325015 0.686117 -0.58347
O_ O_ 0.295604 0.311359 0.640433 -0.58347
O_ O_ 0.367183 0.249921 0.683758 -0.58347
O_ O_ 0.38202 0.250994 0.636973 -0.58347
O_ O_ 0.356267 0.406392 0.67764 -0.58347
O_ O_ 0.356489 0.400538 0.630397 -0.58347
O_ O_ 0.433845 0.334606 0.678009 -0.58347
O_ O_ 0.443854 0.336 0.631366 -0.58347
O_ O_ 0.433109 0.274357 0.829529 -0.46727
O_ O_ 0.271081 0.336921 0.838123 -0.46727
O_ O_ 0.471546 0.304098 0.975339 -0.46727
O_ O_ 0.301726 0.350261 0.984559 -0.46727
Zn Zn 0.120382 0.684594 0.381913 0.90689
Zn Zn 0.13482 0.676091 0.428508 0.90689
Zn Zn 0.377252 0.805316 0.127771 0.90689
Zn Zn 0.363831 0.80808 0.176619 0.90689
H_ H_ 0.299026 0.715475 0.44012 0.11455
H_ H_ 0.370344 0.664729 0.346772 0.11455
H_ H_ 0.279057 0.677347 0.352513 0.11455
H_ H_ 0.382993 0.705916 0.462179 0.11455
H_ H_ 0.476211 0.692226 0.458338 0.11455
H_ H_ 0.459677 0.673934 0.367836 0.11455
H_ H_ 0.143977 0.513039 0.445087 0.11455
H_ H_ 0.161497 0.931176 0.34896 0.11455
H_ H_ 0.137465 0.524266 0.352725 0.11455
H_ H_ 0.114349 0.926777 0.463733 0.11455
H_ H_ 0.101604 0.835468 0.456003 0.11455
H_ H_ 0.149242 0.849466 0.368934 0.11455
H_ H_ 0.0815039 0.608388 0.470232 0.11455
H_ H_ 0.0537241 0.575005 0.0115331 0.11455
H_ H_ 0.0927648 0.615668 0.0540179 0.11455
H_ H_ 0.193157 0.750976 0.47208 0.11455
H_ H_ 0.211373 0.795067 0.013193 0.11455
H_ H_ 0.184117 0.772372 0.064228 0.11455
H_ H_ 0.0048556 0.702885 0.125692 0.11455
H_ H_ -0.00607599999999997 0.698786 0.177548 0.11455
H_ H_ 0.24707 0.635901 0.132255 0.11455
H_ H_ 0.238878 0.625335 0.184736 0.11455
H_ H_ 0.0459354 0.591256 0.250432 0.11455
H_ H_ 0.0311827 0.566104 0.29727 0.11455
H_ H_ 0.065615 0.618089 0.337404 0.11455
H_ H_ 0.155544 0.737921 0.254699 0.11455
H_ H_ 0.18591 0.78796 0.298472 0.11455
H_ H_ 0.189164 0.748655 0.346426 0.11455
H_ H_ 0.197023 0.808057 0.193803 0.11455
H_ H_ 0.125653 0.823717 0.0974094 0.11455
H_ H_ 0.212214 0.821899 0.103284 0.11455
H_ H_ 0.110352 0.806421 0.21598 0.11455
H_ H_ 0.0179585 0.807705 0.210388 0.11455
H_ H_ 0.0393013 0.838311 0.119514 0.11455
H_ H_ 0.353321 0.976731 0.189859 0.11455
H_ H_ 0.30828 0.551382 0.106555 0.11455
H_ H_ 0.37446 0.972142 0.0987444 0.11455
H_ H_ 0.422 0.563365 0.205993 0.11455
H_ H_ 0.4129 0.653447 0.202345 0.11455
H_ H_ 0.344191 0.63535 0.119428 0.11455
H_ H_ 0.407364 0.885951 0.210485 0.11455
H_ H_ 0.419169 0.917794 0.258362 0.11455
H_ H_ 0.369307 0.878305 0.29734 0.11455
H_ H_ 0.317557 0.735084 0.22229 0.11455
H_ H_ 0.275725 0.691641 0.257522 0.11455
H_ H_ 0.300337 0.710684 0.307402 0.11455
H_ H_ 0.478551 0.795171 0.369956 0.11455
H_ H_ 0.485299 0.802688 0.420591 0.11455
H_ H_ 0.225747 0.821457 0.38349 0.11455
H_ H_ 0.237337 0.848888 0.433838 0.11455
H_ H_ 0.398029 0.931491 0.493926 0.11455
H_ H_ 0.461566 0.930645 0.0436094 0.11455
H_ H_ 0.435671 0.873602 0.0838839 0.11455
H_ H_ 0.359256 0.744719 0.00323753 0.11455
H_ H_ 0.302211 0.711042 0.0435196 0.11455
H_ H_ 0.314426 0.74292 0.0906462 0.11455
C_ C_ 0.227061 0.690258 0.402123 0.68181
C_ C_ 0.281985 0.691392 0.397249 -0.05681
C_ C_ 0.314395 0.699574 0.420523 -0.08735
C_ C_ 0.368266 0.694488 0.417782 -0.05681
C_ C_ 0.390728 0.684981 0.390625 -0.05681
C_ C_ 0.356987 0.680664 0.366799 -0.08735
C_ C_ 0.303787 0.686543 0.369825 -0.08735
C_ C_ 0.399326 0.698456 0.441456 -0.08735
C_ C_ 0.452776 0.693016 0.439043 -0.08735
C_ C_ 0.474485 0.688135 0.411666 -0.05681
C_ C_ 0.443688 0.680316 0.388617 -0.08735
C_ C_ 0.121833 0.778523 0.409755 0.68181
C_ C_ 0.136941 0.583187 0.401108 0.68181
C_ C_ 0.136328 0.52663 0.39924 -0.05681
C_ C_ 0.138403 0.9956 0.421544 -0.08735
C_ C_ 0.131983 0.941527 0.419451 -0.05681
C_ C_ 0.13723 0.919512 0.392092 -0.05681
C_ C_ 0.147338 0.949919 0.368092 -0.08735
C_ C_ 0.15515 1.00116518 0.370943 -0.08735
C_ C_ 0.118949 0.910906 0.442875 -0.08735
C_ C_ 0.113054 0.859336 0.438114 -0.08735
C_ C_ 0.123081 0.836248 0.412303 -0.05681
C_ C_ 0.133656 0.86598 0.388164 -0.08735
C_ C_ 0.0292615 0.669361 0.407695 0.68181
C_ C_ 0.0974951 0.630225 0.486401 0.1947
C_ C_ 0.0799654 0.607949 0.00950953 -0.08735
C_ C_ 0.101102 0.630956 0.0334518 -0.08735
C_ C_ 0.132259 0.672248 0.0294434 -0.05681
C_ C_ 0.142809 0.686576 1.0009 0.18498
C_ C_ 0.188983 0.737289 0.493694 -0.08735
C_ C_ 0.186655 0.763156 0.0177276 -0.08735
C_ C_ 0.172538 0.74952 0.0467389 -0.08735
C_ C_ 0.14771 0.703044 0.0522063 0.18498
C_ C_ 0.175383 0.668879 0.096708 0.44287
C_ C_ 0.0930449 0.702073 0.0951689 0.44287
C_ C_ 0.0872225 0.694327 0.125069 -0.05681
C_ C_ 0.0379085 0.69468 0.138508 -0.08735
C_ C_ 0.0309925 0.69097 0.167829 -0.08735
C_ C_ 0.0729946 0.679427 0.185702 -0.05681
C_ C_ 0.121329 0.670026 0.172513 -0.05681
C_ C_ 0.127525 0.677768 0.141442 -0.05681
C_ C_ 0.171235 0.661904 0.126107 -0.05681
C_ C_ 0.211745 0.645998 0.143592 -0.08735
C_ C_ 0.206066 0.636918 0.173673 -0.08735
C_ C_ 0.162038 0.652765 0.188803 -0.05681
C_ C_ 0.155632 0.650828 0.219154 0.44287
C_ C_ 0.0719259 0.681942 0.215103 0.44287
C_ C_ 0.0995649 0.652411 0.260214 0.18498
C_ C_ 0.0664154 0.611267 0.266152 -0.08735
C_ C_ 0.0559467 0.599237 0.293834 -0.08735
C_ C_ 0.0776139 0.627754 0.316123 -0.08735
C_ C_ 0.106887 0.670818 0.312402 0.18498
C_ C_ 0.115687 0.685993 0.283717 -0.05681
C_ C_ 0.143821 0.728883 0.278288 -0.08735
C_ C_ 0.170104 0.751536 0.300831 -0.08735
C_ C_ 0.165383 0.731409 0.328431 0.1947
C_ C_ 0.268338 0.804411 0.152009 0.68181
C_ C_ 0.212432 0.807872 0.149098 -0.05681
C_ C_ 0.179569 0.804295 0.173837 -0.08735
C_ C_ 0.125328 0.812226 0.171305 -0.05681
C_ C_ 0.105597 0.818997 0.142491 -0.05681
C_ C_ 0.13712 0.819266 0.118663 -0.08735
C_ C_ 0.190489 0.814641 0.122701 -0.08735
C_ C_ 0.0948838 0.809201 0.193999 -0.08735
C_ C_ 0.0418316 0.809909 0.189849 -0.08735
C_ C_ 0.0191956 0.82019 0.162344 -0.05681
C_ C_ 0.0529159 0.822387 0.139389 -0.08735
C_ C_ 0.371388 0.706991 0.15881 0.68181
C_ C_ 0.36473 0.908795 0.144933 0.68181
C_ C_ 0.370255 0.966204 0.144863 -0.05681
C_ C_ 0.385501 0.493478 0.169354 -0.08735
C_ C_ 0.384775 0.546158 0.165942 -0.05681
C_ C_ 0.355901 0.566718 0.143263 -0.05681
C_ C_ 0.331689 0.535168 0.122378 -0.08735
C_ C_ 0.377054 -0.007677999999999963 0.118558 -0.08735
C_ C_ 0.403338 0.578361 0.187545 -0.08735
C_ C_ 0.398711 0.630282 0.185396 -0.08735
C_ C_ 0.379333 0.651557 0.160229 -0.05681
C_ C_ 0.357088 0.619904 0.140238 -0.08735
C_ C_ 0.468207 0.81179 0.153969 0.68181
C_ C_ 0.396361 0.862369 0.228328 0.1947
C_ C_ 0.40345 0.881918 0.254856 -0.08735
C_ C_ 0.379752 0.858667 0.278613 -0.08735
C_ C_ 0.356412 0.810061 0.275084 -0.05681
C_ C_ 0.346682 0.79532 0.246666 0.18498
C_ C_ 0.318761 0.750763 0.241305 -0.08735
C_ C_ 0.295084 0.727093 0.262871 -0.08735
C_ C_ 0.310947 0.737217 0.292147 -0.08735
C_ C_ 0.335767 0.782207 0.299102 0.18498
C_ C_ 0.300279 0.81601 0.344795 0.44287
C_ C_ 0.389528 0.798259 0.339962 0.44287
C_ C_ 0.396272 0.808827 0.369744 -0.05681
C_ C_ 0.444255 0.803358 0.382102 -0.08735
C_ C_ 0.449909 0.814068 0.411312 -0.08735
C_ C_ 0.409776 0.82413 0.429636 -0.05681
C_ C_ 0.361366 0.828511 0.416718 -0.05681
C_ C_ 0.354636 0.823444 0.3864 -0.05681
C_ C_ 0.306212 0.824471 0.373982 -0.05681
C_ C_ 0.263297 0.828369 0.39146 -0.08735
C_ C_ 0.270545 0.839676 0.420632 -0.08735
C_ C_ 0.319027 0.836241 0.433817 -0.05681
C_ C_ 0.3249 0.84466 0.463443 0.44287
C_ C_ 0.414628 0.829387 0.459578 0.44287
C_ C_ 0.40208 0.836222 0.00573395 0.18498
C_ C_ 0.42902 0.882039 0.0111347 -0.08735
C_ C_ 0.439975 0.895119 0.0392093 -0.08735
C_ C_ 0.424414 0.864194 0.0627038 -0.08735
C_ C_ 0.396767 0.820678 0.0583886 0.18498
C_ C_ 0.388838 0.803481 0.0296196 -0.05681
C_ C_ 0.359412 0.759843 0.024451 -0.08735
C_ C_ 0.330768 0.740509 0.0462955 -0.08735
C_ C_ 0.33667 0.758606 0.0747267 0.1947
N_ N_ 0.131116 0.668026 0.478779 -0.29468
N_ N_ 0.137338 0.689881 0.0818887 -0.17154
N_ N_ 0.110427 0.665432 0.231527 -0.17154
N_ N_ 0.128974 0.695942 0.334689 -0.29468
N_ N_ 0.36814 0.820736 0.223727 -0.29468
N_ N_ 0.340755 0.796361 0.329255 -0.17154
N_ N_ 0.373422 0.841025 0.475487 -0.17154
N_ N_ 0.371573 0.794606 0.0796789 -0.29468
O_ O_ 0.210569 0.681448 0.42705 -0.58347
O_ O_ 0.196768 0.685619 0.381598 -0.58347
O_ O_ 0.125771 0.750329 0.431192 -0.58347
O_ O_ 0.123289 0.760494 0.385681 -0.58347
O_ O_ 0.143348 0.604572 0.425086 -0.58347
O_ O_ 0.124045 0.610795 0.379959 -0.58347
O_ O_ 0.0606186 0.667351 0.427938 -0.58347
O_ O_ 0.0433272 0.681505 0.382859 -0.58347
O_ O_ 0.0546112 0.716924 0.0789081 -0.46727
O_ O_ 0.220602 0.665579 0.0853046 -0.46727
O_ O_ 0.0315515 0.698969 0.226616 -0.46727
O_ O_ 0.191994 0.629026 0.235423 -0.46727
O_ O_ 0.287749 0.801217 0.1767 -0.58347
O_ O_ 0.297214 0.805095 0.129744 -0.58347
O_ O_ 0.375858 0.733796 0.181442 -0.58347
O_ O_ 0.36868 0.729121 0.134831 -0.58347
O_ O_ 0.352415 0.884849 0.16733 -0.58347
O_ O_ 0.37728 0.882298 0.122986 -0.58347
O_ O_ 0.436767 0.820917 0.173945 -0.58347
O_ O_ 0.453464 0.802858 0.128271 -0.58347
O_ O_ 0.422296 0.770173 0.327122 -0.46727
O_ O_ 0.256637 0.822032 0.332817 -0.46727
O_ O_ 0.455975 0.814327 0.472377 -0.46727
O_ O_ 0.288222 0.862506 0.477852 -0.46727
Zn Zn 0.121109 0.678795 0.880397 0.90689
Zn Zn 0.131023 0.669586 0.928333 0.90689
Zn Zn 0.366419 0.822939 0.629244 0.90689
Zn Zn 0.356401 0.83007 0.677497 0.90689
H_ H_ 0.297317 0.681745 0.946212 0.11455
H_ H_ 0.371266 0.664342 0.848639 0.11455
H_ H_ 0.279697 0.66143 0.854424 0.11455
H_ H_ 0.383376 0.679118 0.96672 0.11455
H_ H_ 0.474472 0.679972 0.960233 0.11455
H_ H_ 0.454612 0.670898 0.869419 0.11455
H_ H_ 0.135122 0.504744 0.937983 0.11455
H_ H_ 0.145588 0.928239 0.85052 0.11455
H_ H_ 0.113534 0.51689 0.845764 0.11455
H_ H_ 0.150261 0.916627 0.968985 0.11455
H_ H_ 0.139128 0.830016 0.961213 0.11455
H_ H_ 0.136536 0.845722 0.871314 0.11455
H_ H_ 0.0813151 0.600596 0.964239 0.11455
H_ H_ 0.0593825 0.589023 0.519824 0.11455
H_ H_ 0.100991 0.635274 0.558659 0.11455
H_ H_ 0.189924 0.734097 0.975413 0.11455
H_ H_ 0.228957 0.802524 0.509424 0.11455
H_ H_ 0.212986 0.784986 0.56005 0.11455
H_ H_ 1.022366 0.725806 0.618081 0.11455
H_ H_ 1.00618801 0.702013 0.66804 0.11455
H_ H_ 0.266798 0.664641 0.635484 0.11455
H_ H_ 0.255014 0.648591 0.686453 0.11455
H_ H_ 0.0731737 0.590554 0.741224 0.11455
H_ H_ 0.0451938 0.558459 0.788866 0.11455
H_ H_ 0.0673919 0.608696 0.831999 0.11455
H_ H_ 0.163314 0.746202 0.75731 0.11455
H_ H_ 0.211145 0.774656 0.801148 0.11455
H_ H_ 0.190956 0.739717 0.848104 0.11455
H_ H_ 0.191632 0.817062 0.697566 0.11455
H_ H_ 0.118008 0.83034 0.600091 0.11455
H_ H_ 0.207188 0.829012 0.60452 0.11455
H_ H_ 0.102082 0.840643 0.716294 0.11455
H_ H_ 0.0127146 0.843241 0.710266 0.11455
H_ H_ 0.0296377 0.829536 0.620417 0.11455
H_ H_ 0.364471 0.993371 0.687039 0.11455
H_ H_ 0.382314 0.574616 0.599109 0.11455
H_ H_ 0.366678 0.979583 0.595146 0.11455
H_ H_ 0.349406 0.583206 0.716399 0.11455
H_ H_ 0.353932 0.675349 0.711301 0.11455
H_ H_ 0.388079 0.659981 0.619427 0.11455
H_ H_ 0.4015 0.906459 0.713369 0.11455
H_ H_ 0.415505 0.936178 0.762528 0.11455
H_ H_ 0.388886 0.882231 0.803334 0.11455
H_ H_ 0.294082 0.766437 0.721106 0.11455
H_ H_ 0.277197 0.701892 0.760323 0.11455
H_ H_ 0.313548 0.716471 0.806497 0.11455
H_ H_ 0.490756 0.783868 0.867344 0.11455
H_ H_ 0.507799 0.805295 0.919513 0.11455
H_ H_ 0.240539 0.819507 0.883434 0.11455
H_ H_ 0.252383 0.807885 0.937762 0.11455
H_ H_ 0.44617 0.902204 0.993541 0.11455
H_ H_ 0.419542 0.957273 0.542944 0.11455
H_ H_ 0.415317 0.899843 0.583612 0.11455
H_ H_ 0.345202 0.756173 0.506036 0.11455
H_ H_ 0.305219 0.711898 0.548181 0.11455
H_ H_ 0.32756 0.744878 0.594707 0.11455
C_ C_ 0.22631 0.671943 0.903962 0.68181
C_ C_ 0.281839 0.671759 0.900463 -0.05681
C_ C_ 0.313159 0.671024 0.925463 -0.08735
C_ C_ 0.366947 0.668443 0.922565 -0.05681
C_ C_ 0.387366 0.662472 0.895068 -0.05681
C_ C_ 0.355734 0.664782 0.870268 -0.08735
C_ C_ 0.304075 0.669556 0.874052 -0.08735
C_ C_ 0.398807 0.675532 0.944707 -0.08735
C_ C_ 0.451866 0.680603 0.941039 -0.08735
C_ C_ 0.473938 0.677895 0.914114 -0.05681
C_ C_ 0.440121 0.669303 0.890714 -0.08735
C_ C_ 0.126703 0.775245 0.912685 0.68181
C_ C_ 0.125959 0.574233 0.897095 0.68181
C_ C_ 0.121234 0.518961 0.892488 -0.05681
C_ C_ 0.153964 0.991536 0.925291 -0.08735
C_ C_ 0.151682 0.938424 0.923371 -0.05681
C_ C_ 0.148653 0.915349 0.895464 -0.05681
C_ C_ 0.146226 0.946267 0.871683 -0.08735
C_ C_ 0.142251 -0.0006939999999999724 0.874173 -0.08735
C_ C_ 0.149141 0.905534 0.947088 -0.08735
C_ C_ 0.141444 0.853432 0.943139 -0.08735
C_ C_ 0.139479 0.829744 0.917192 -0.05681
C_ C_ 0.146581 0.862297 0.892205 -0.08735
C_ C_ 0.0281892 0.675773 0.905103 0.68181
C_ C_ 0.0920323 0.622116 0.981369 0.1947
C_ C_ 0.0862365 0.620005 0.514647 -0.08735
C_ C_ 0.107866 0.647482 0.53606 -0.08735
C_ C_ 0.140794 0.687459 0.529547 -0.05681
C_ C_ 0.151638 0.699754 0.49973 0.18498
C_ C_ 0.175526 0.728888 0.996399 -0.08735
C_ C_ 0.209044 0.769566 0.515081 -0.08735
C_ C_ 0.196456 0.760009 0.543906 -0.08735
C_ C_ 0.165428 0.717454 0.551266 0.18498
C_ C_ 0.199047 0.696618 0.598548 0.44287
C_ C_ 0.111074 0.715923 0.592531 0.44287
C_ C_ 0.102003 0.7028 0.62079 -0.05681
C_ C_ 0.0519813 0.709595 0.632404 -0.08735
C_ C_ 0.0455973 0.703689 0.661978 -0.08735
C_ C_ 0.0884118 0.695903 0.680116 -0.05681
C_ C_ 0.13503 0.681185 0.668351 -0.05681
C_ C_ 0.141477 0.687136 0.638479 -0.05681
C_ C_ 0.19131 0.685167 0.627359 -0.05681
C_ C_ 0.231452 0.675312 0.644673 -0.08735
C_ C_ 0.226268 0.669886 0.673508 -0.08735
C_ C_ 0.177144 0.675386 0.686213 -0.05681
C_ C_ 0.16909 0.669814 0.716727 0.44287
C_ C_ 0.0821501 0.687801 0.71087 0.44287
C_ C_ 0.110076 0.656069 0.756475 0.18498
C_ C_ 0.0868399 0.606598 0.760092 -0.08735
C_ C_ 0.0691415 0.59119 0.787336 -0.08735
C_ C_ 0.0811409 0.619784 0.811493 -0.08735
C_ C_ 0.112266 0.6653 0.809129 0.18498
C_ C_ 0.126992 0.682595 0.781361 -0.05681
C_ C_ 0.152357 0.730652 0.778355 -0.08735
C_ C_ 0.180621 0.74745 0.802246 -0.08735
C_ C_ 0.166433 0.729557 0.829402 0.1947
C_ C_ 0.262759 0.822448 0.655798 0.68181
C_ C_ 0.20637 0.827872 0.651368 -0.05681
C_ C_ 0.174418 0.821687 0.675787 -0.08735
C_ C_ 0.120147 0.819853 0.672781 -0.05681
C_ C_ 0.0989859 0.823637 0.645048 -0.05681
C_ C_ 0.132068 0.829494 0.621883 -0.08735
C_ C_ 0.185226 0.828751 0.624374 -0.08735
C_ C_ 0.0871969 0.827603 0.696635 -0.08735
C_ C_ 0.0350779 0.835479 0.692414 -0.08735
C_ C_ 0.0120557 0.827391 0.664315 -0.05681
C_ C_ 0.0461689 0.827563 0.640642 -0.08735
C_ C_ 0.378961 0.72987 0.662068 0.68181
C_ C_ 0.350423 0.924188 0.645501 0.68181
C_ C_ 0.35986 0.980603 0.641812 -0.05681
C_ C_ 0.362784 0.515408 0.673981 -0.08735
C_ C_ 0.360876 0.569738 0.671225 -0.05681
C_ C_ 0.373207 0.590973 0.643667 -0.05681
C_ C_ 0.37563 0.557557 0.619661 -0.08735
C_ C_ 0.365787 1.00241436 0.614536 -0.08735
C_ C_ 0.361277 0.59876 0.695232 -0.08735
C_ C_ 0.362443 0.652381 0.692859 -0.08735
C_ C_ 0.374139 0.67409 0.665417 -0.05681
C_ C_ 0.381246 0.643224 0.640836 -0.08735
C_ C_ 0.459345 0.838625 0.654706 0.68181
C_ C_ 0.386322 0.885079 0.730651 0.1947
C_ C_ 0.395313 0.901638 0.758707 -0.08735
C_ C_ 0.382514 0.870832 0.781181 -0.08735
C_ C_ 0.359338 0.823906 0.775322 -0.05681
C_ C_ 0.341794 0.813853 0.746845 0.18498
C_ C_ 0.308665 0.773699 0.741859 -0.08735
C_ C_ 0.297047 0.738887 0.763753 -0.08735
C_ C_ 0.317867 0.747179 0.791176 -0.08735
C_ C_ 0.345829 0.790714 0.798183 0.18498
C_ C_ 0.316573 0.816659 0.84568 0.44287
C_ C_ 0.402258 0.792034 0.839854 0.44287
C_ C_ 0.411238 0.800589 0.868967 -0.05681
C_ C_ 0.459558 0.795539 0.881112 -0.08735
C_ C_ 0.467338 0.801516 0.910824 -0.08735
C_ C_ 0.423626 0.804937 0.929599 -0.05681
C_ C_ 0.374706 0.811433 0.917819 -0.05681
C_ C_ 0.369566 0.811237 0.886913 -0.05681
C_ C_ 0.321288 0.813877 0.875704 -0.05681
C_ C_ 0.278467 0.815166 0.893902 -0.08735
C_ C_ 0.284291 0.818714 0.924005 -0.08735
C_ C_ 0.333255 0.820569 0.936164 -0.05681
C_ C_ 0.344047 0.829439 0.964894 0.44287
C_ C_ 0.430434 0.808135 0.958149 0.44287
C_ C_ 0.378506 0.856019 0.505687 0.18498
C_ C_ 0.393826 0.905754 0.511789 -0.08735
C_ C_ 0.409062 0.920344 0.538636 -0.08735
C_ C_ 0.40486 0.886435 0.561325 -0.08735
C_ C_ 0.379674 0.839183 0.557516 0.18498
C_ C_ 0.369696 0.821991 0.528991 -0.05681
C_ C_ 0.341167 0.776193 0.525917 -0.08735
C_ C_ 0.32634 0.748073 0.549542 -0.08735
C_ C_ 0.33807 0.767233 0.576648 0.1947
N_ N_ 0.125478 0.659118 0.977191 -0.29468
N_ N_ 0.158426 0.708073 0.581204 -0.17154
N_ N_ 0.121101 0.674326 0.728345 -0.17154
N_ N_ 0.131347 0.691111 0.832818 -0.29468
N_ N_ 0.360989 0.841692 0.725032 -0.29468
N_ N_ 0.356441 0.802878 0.828116 -0.17154
N_ N_ 0.391252 0.823338 0.97635 -0.17154
N_ N_ 0.361128 0.812272 0.58016 -0.29468
O_ O_ 0.204976 0.675845 0.928337 -0.58347
O_ O_ 0.200783 0.676031 0.881174 -0.58347
O_ O_ 0.129172 0.745386 0.934043 -0.58347
O_ O_ 0.122208 0.758462 0.887084 -0.58347
O_ O_ 0.13163 0.592973 0.921777 -0.58347
O_ O_ 0.120302 0.603072 0.876263 -0.58347
O_ O_ 0.0553797 0.667051 0.926847 -0.58347
O_ O_ 0.0468767 0.681788 0.880789 -0.58347
O_ O_ 0.0758309 0.7388 0.57617 -0.46727
O_ O_ 0.244691 0.696676 0.58883 -0.46727
O_ O_ 0.03604 0.693113 0.722369 -0.46727
O_ O_ 0.205534 0.655203 0.732389 -0.46727
O_ O_ 0.28216 0.821077 0.6806 -0.58347
O_ O_ 0.290358 0.820487 0.633039 -0.58347
O_ O_ 0.368702 0.757293 0.682986 -0.58347
O_ O_ 0.377278 0.750446 0.637534 -0.58347
O_ O_ 0.347664 0.904377 0.669403 -0.58347
O_ O_ 0.354554 0.897545 0.624473 -0.58347
O_ O_ 0.429766 0.837638 0.675959 -0.58347
O_ O_ 0.441053 0.828502 0.630517 -0.58347
O_ O_ 0.439549 0.777074 0.82297 -0.46727
O_ O_ 0.272655 0.825482 0.833938 -0.46727
O_ O_ 0.476216 0.80614 0.96833 -0.46727
O_ O_ 0.304301 0.835365 0.983395 -0.46727
Zn Zn 0.632881 0.190592 0.38571 0.90689
Zn Zn 0.640195 0.178162 0.43385 0.90689
Zn Zn 0.884459 0.314538 0.134904 0.90689
Zn Zn 0.869824 0.317067 0.180351 0.90689
H_ H_ 0.812306 0.189796 0.440535 0.11455
H_ H_ 0.876828 0.149862 0.344296 0.11455
H_ H_ 0.783105 0.145102 0.354525 0.11455
H_ H_ 0.897279 0.19064 0.459876 0.11455
H_ H_ 0.988081 0.201355 0.450423 0.11455
H_ H_ 0.961903 0.183474 0.362003 0.11455
H_ H_ 0.615582 0.0162874 0.443937 0.11455
H_ H_ 0.666432 0.432539 0.352786 0.11455
H_ H_ 0.666931 0.029364 0.357132 0.11455
H_ H_ 0.621613 0.435048 0.469614 0.11455
H_ H_ 0.610795 0.342417 0.463127 0.11455
H_ H_ 0.640674 0.352631 0.373704 0.11455
H_ H_ 0.592966 0.105776 0.471118 0.11455
H_ H_ 0.571581 0.0855079 0.023167 0.11455
H_ H_ 0.618977 0.128464 0.0606078 0.11455
H_ H_ 0.708149 0.237268 0.47865 0.11455
H_ H_ 0.712914 0.310478 0.00878673 0.11455
H_ H_ 0.697526 0.292165 0.0599276 0.11455
H_ H_ 0.518674 0.208965 0.122635 0.11455
H_ H_ 0.506125 0.195026 0.176109 0.11455
H_ H_ 0.762827 0.161007 0.138461 0.11455
H_ H_ 0.757193 0.154597 0.192376 0.11455
H_ H_ 0.562773 0.0923836 0.252694 0.11455
H_ H_ 0.55532 0.064693 0.304262 0.11455
H_ H_ 0.579473 0.123438 0.341675 0.11455
H_ H_ 0.673415 0.240014 0.260543 0.11455
H_ H_ 0.700923 0.294428 0.29667 0.11455
H_ H_ 0.688468 0.265617 0.34614 0.11455
H_ H_ 0.705408 0.323635 0.197084 0.11455
H_ H_ 0.637123 0.320818 0.0979007 0.11455
H_ H_ 0.730963 0.3079 0.105692 0.11455
H_ H_ 0.618237 0.325988 0.215981 0.11455
H_ H_ 0.529922 0.30746 0.207146 0.11455
H_ H_ 0.550123 0.328959 0.116768 0.11455
H_ H_ 0.879254 0.479834 0.191994 0.11455
H_ H_ 0.896471 0.0642307 0.0996413 0.11455
H_ H_ 0.892073 0.467932 0.100431 0.11455
H_ H_ 0.854482 0.0688648 0.213986 0.11455
H_ H_ 0.8792 0.15938 0.214698 0.11455
H_ H_ 0.890862 0.149159 0.119864 0.11455
H_ H_ 0.934655 0.374393 0.214701 0.11455
H_ H_ 0.960347 0.403635 0.26279 0.11455
H_ H_ 0.914451 0.366219 0.304749 0.11455
H_ H_ 0.80946 0.252361 0.222524 0.11455
H_ H_ 0.77334 0.202851 0.263156 0.11455
H_ H_ 0.795572 0.222066 0.312833 0.11455
H_ H_ 0.989322 0.302499 0.374643 0.11455
H_ H_ 0.000649993 0.297581 0.424054 0.11455
H_ H_ 0.741261 0.326043 0.389992 0.11455
H_ H_ 0.749996 0.341892 0.440149 0.11455
H_ H_ 0.95705 0.393904 0.502231 0.11455
H_ H_ 0.973443 0.427637 0.0493913 0.11455
H_ H_ 0.943441 0.377562 0.0879512 0.11455
H_ H_ 0.852557 0.257327 0.007711 0.11455
H_ H_ 0.809322 0.218337 0.0527364 0.11455
H_ H_ 0.833989 0.23956 0.0985231 0.11455
C_ C_ 0.736472 0.182679 0.403225 0.68181
C_ C_ 0.790017 0.170595 0.397939 -0.05681
C_ C_ 0.825057 0.177339 0.419761 -0.08735
C_ C_ 0.875542 0.178908 0.415648 -0.05681
C_ C_ 0.894386 0.17554 0.387839 -0.05681
C_ C_ 0.861217 0.16288 0.365264 -0.08735
C_ C_ 0.809309 0.156811 0.370666 -0.08735
C_ C_ 0.90896 0.193148 0.438886 -0.08735
C_ C_ 0.962551 0.19218 0.433761 -0.08735
C_ C_ 0.982406 0.184707 0.406226 -0.05681
C_ C_ 0.948129 0.177157 0.382991 -0.08735
C_ C_ 0.627365 0.283094 0.4157 0.68181
C_ C_ 0.637149 0.0841903 0.403777 0.68181
C_ C_ 0.635611 0.0299644 0.400112 -0.05681
C_ C_ 0.628073 0.501119 0.423683 -0.08735
C_ C_ 0.632012 0.447218 0.423358 -0.05681
C_ C_ 0.639721 0.42264 0.396599 -0.05681
C_ C_ 0.651567 0.451492 0.372083 -0.08735
C_ C_ 0.64274 0.505471 0.373446 -0.08735
C_ C_ 0.62381 0.417638 0.447924 -0.08735
C_ C_ 0.621798 0.36441 0.444783 -0.08735
C_ C_ 0.63262 0.339199 0.41924 -0.05681
C_ C_ 0.638943 0.371298 0.394659 -0.08735
C_ C_ 0.536649 0.177102 0.414183 0.68181
C_ C_ 0.619115 0.117512 0.487531 0.1947
C_ C_ 0.59637 0.116483 0.0172521 -0.08735
C_ C_ 0.622677 0.141782 0.0393372 -0.08735
C_ C_ 0.649892 0.184281 0.0325368 -0.05681
C_ C_ 0.656493 0.197534 1.00245717 0.18498
C_ C_ 0.688306 0.23572 0.498707 -0.08735
C_ C_ 0.698487 0.273162 0.0154117 -0.08735
C_ C_ 0.687569 0.263704 0.0448751 -0.08735
C_ C_ 0.666839 0.218221 0.0552845 0.18498
C_ C_ 0.700338 0.19739 0.103183 0.44287
C_ C_ 0.612617 0.212216 0.0969924 0.44287
C_ C_ 0.602693 0.198508 0.125579 -0.05681
C_ C_ 0.552517 0.203247 0.137206 -0.08735
C_ C_ 0.543269 0.195396 0.167267 -0.08735
C_ C_ 0.587365 0.190519 0.185928 -0.05681
C_ C_ 0.634739 0.181375 0.174251 -0.05681
C_ C_ 0.64306 0.188146 0.144181 -0.05681
C_ C_ 0.691252 0.186748 0.1321 -0.05681
C_ C_ 0.730309 0.169562 0.149885 -0.08735
C_ C_ 0.722908 0.158613 0.178908 -0.08735
C_ C_ 0.676158 0.167648 0.192057 -0.05681
C_ C_ 0.666388 0.157848 0.221761 0.44287
C_ C_ 0.583622 0.187324 0.216398 0.44287
C_ C_ 0.612281 0.157962 0.262663 0.18498
C_ C_ 0.580864 0.114664 0.269508 -0.08735
C_ C_ 0.567243 0.102528 0.297073 -0.08735
C_ C_ 0.586106 0.134756 0.320309 -0.08735
C_ C_ 0.621847 0.172861 0.314301 0.18498
C_ C_ 0.632465 0.186988 0.285351 -0.05681
C_ C_ 0.655219 0.233533 0.280733 -0.08735
C_ C_ 0.675847 0.261701 0.302245 -0.08735
C_ C_ 0.673483 0.24368 0.329308 0.1947
C_ C_ 0.782517 0.314397 0.156053 0.68181
C_ C_ 0.724567 0.314152 0.151967 -0.05681
C_ C_ 0.690758 0.322972 0.175405 -0.08735
C_ C_ 0.636933 0.321742 0.171243 -0.05681
C_ C_ 0.618624 0.326123 0.143145 -0.05681
C_ C_ 0.652184 0.320148 0.118807 -0.08735
C_ C_ 0.703334 0.316035 0.123829 -0.08735
C_ C_ 0.603304 0.323097 0.193612 -0.08735
C_ C_ 0.552115 0.319423 0.188854 -0.08735
C_ C_ 0.532398 0.323311 0.161609 -0.05681
C_ C_ 0.564388 0.32787 0.138585 -0.08735
C_ C_ 0.885176 0.217796 0.165267 0.68181
C_ C_ 0.879293 0.412255 0.149682 0.68181
C_ C_ 0.879166 0.466911 0.145805 -0.05681
C_ C_ 0.858376 0.00207355 0.171732 -0.08735
C_ C_ 0.858756 0.0561563 0.169286 -0.05681
C_ C_ 0.86732 0.0793693 0.143039 -0.05681
C_ C_ 0.878622 0.047279 0.119167 -0.08735
C_ C_ 0.890464 0.488908 0.120202 -0.08735
C_ C_ 0.857665 0.0875305 0.193928 -0.08735
C_ C_ 0.87429 0.13801 0.193676 -0.08735
C_ C_ 0.880741 0.162182 0.166514 -0.05681
C_ C_ 0.876764 0.132726 0.14058 -0.08735
C_ C_ 0.977278 0.327766 0.158842 0.68181
C_ C_ 0.912488 0.361883 0.232556 0.1947
C_ C_ 0.929237 0.374655 0.259886 -0.08735
C_ C_ 0.902175 0.35474 0.283135 -0.08735
C_ C_ 0.86445 0.31702 0.279012 -0.05681
C_ C_ 0.849678 0.30425 0.249577 0.18498
C_ C_ 0.818504 0.261516 0.244893 -0.08735
C_ C_ 0.799322 0.232683 0.267797 -0.08735
C_ C_ 0.811042 0.245436 0.29648 -0.08735
C_ C_ 0.843561 0.288838 0.302559 0.18498
C_ C_ 0.812504 0.314601 0.349163 0.44287
C_ C_ 0.901936 0.300599 0.34517 0.44287
C_ C_ 0.908468 0.305391 0.374861 -0.05681
C_ C_ 0.957318 0.305895 0.386822 -0.08735
C_ C_ 0.963421 0.30693 0.416345 -0.08735
C_ C_ 0.92083 0.314603 0.434516 -0.05681
C_ C_ 0.874323 0.322032 0.422379 -0.05681
C_ C_ 0.866726 0.311636 0.392528 -0.05681
C_ C_ 0.819697 0.31918 0.378976 -0.05681
C_ C_ 0.778186 0.332047 0.39741 -0.08735
C_ C_ 0.784725 0.336643 0.426925 -0.08735
C_ C_ 0.833748 0.333308 0.439818 -0.05681
C_ C_ 0.840636 0.340293 0.469254 0.44287
C_ C_ 0.925843 0.315805 0.464579 0.44287
C_ C_ 0.899129 0.343967 0.0107524 0.18498
C_ C_ 0.926906 0.387756 0.0159342 -0.08735
C_ C_ 0.94571 0.397531 0.0443309 -0.08735
C_ C_ 0.929942 0.369919 0.0670322 -0.08735
C_ C_ 0.896723 0.330637 0.0642025 0.18498
C_ C_ 0.885778 0.31434 0.0345492 -0.05681
C_ C_ 0.863783 0.266239 0.0299811 -0.08735
C_ C_ 0.839335 0.243381 0.0539542 -0.08735
C_ C_ 0.854473 0.256963 0.0814164 0.1947
N_ N_ 0.642624 0.163029 0.482813 -0.29468
N_ N_ 0.659828 0.209117 0.0852596 -0.17154
N_ N_ 0.621681 0.167193 0.232779 -0.17154
N_ N_ 0.642567 0.20176 0.336192 -0.29468
N_ N_ 0.875022 0.325559 0.22734 -0.29468
N_ N_ 0.853598 0.304087 0.332743 -0.17154
N_ N_ 0.885668 0.328821 0.481242 -0.17154
N_ N_ 0.881414 0.300287 0.086636 -0.29468
O_ O_ 0.717505 0.176898 0.428689 -0.58347
O_ O_ 0.707808 0.196244 0.382879 -0.58347
O_ O_ 0.640411 0.25381 0.436184 -0.58347
O_ O_ 0.621376 0.264536 0.389866 -0.58347
O_ O_ 0.641244 0.102001 0.428851 -0.58347
O_ O_ 0.641998 0.113191 0.383053 -0.58347
O_ O_ 0.562571 0.171303 0.437009 -0.58347
O_ O_ 0.556181 0.181127 0.389968 -0.58347
O_ O_ 0.574671 0.230754 0.0809723 -0.46727
O_ O_ 0.745834 0.196031 0.0937395 -0.46727
O_ O_ 0.537269 0.19404 0.227981 -0.46727
O_ O_ 0.700948 0.134612 0.236727 -0.46727
O_ O_ 0.798624 0.322297 0.180548 -0.58347
O_ O_ 0.811561 0.301411 0.13546 -0.58347
O_ O_ 0.868873 0.243666 0.185118 -0.58347
O_ O_ 0.896353 0.238233 0.141562 -0.58347
O_ O_ 0.878612 0.392133 0.173916 -0.58347
O_ O_ 0.873117 0.385028 0.127459 -0.58347
O_ O_ 0.945771 0.316745 0.178038 -0.58347
O_ O_ 0.959287 0.326913 0.134343 -0.58347
O_ O_ 0.942423 0.294282 0.329098 -0.46727
O_ O_ 0.768809 0.316116 0.336814 -0.46727
O_ O_ 0.964848 0.292359 0.476483 -0.46727
O_ O_ 0.805036 0.364996 0.483693 -0.46727
Zn Zn 0.623552 0.189914 0.887544 0.90689
Zn Zn 0.633613 0.181775 0.933261 0.90689
Zn Zn 0.872887 0.311807 0.633979 0.90689
Zn Zn 0.861519 0.320186 0.681494 0.90689
H_ H_ 0.797966 0.205032 0.95026 0.11455
H_ H_ 0.86679 0.161669 0.85268 0.11455
H_ H_ 0.777498 0.185005 0.85977 0.11455
H_ H_ 0.894083 0.192807 0.969634 0.11455
H_ H_ 0.983348 0.205458 0.957166 0.11455
H_ H_ 0.951206 0.167317 0.870335 0.11455
H_ H_ 0.64449 0.0145107 0.94898 0.11455
H_ H_ 0.640814 0.43563 0.843794 0.11455
H_ H_ 0.649191 0.0316233 0.855481 0.11455
H_ H_ 0.611892 0.435731 0.962922 0.11455
H_ H_ 0.604888 0.345966 0.959131 0.11455
H_ H_ 0.646504 0.350176 0.871413 0.11455
H_ H_ 0.571615 0.122774 0.973479 0.11455
H_ H_ 0.588059 0.0641872 0.519585 0.11455
H_ H_ 0.610124 0.121447 0.560692 0.11455
H_ H_ 0.701087 0.242362 0.974053 0.11455
H_ H_ 0.723149 0.301272 0.51733 0.11455
H_ H_ 0.69938 0.284851 0.566046 0.11455
H_ H_ 0.509652 0.206758 0.624889 0.11455
H_ H_ 0.496795 0.179707 0.674358 0.11455
H_ H_ 0.761998 0.187628 0.645254 0.11455
H_ H_ 0.745012 0.155282 0.691713 0.11455
H_ H_ 0.568779 0.0947387 0.750882 0.11455
H_ H_ 0.538882 0.0703068 0.799026 0.11455
H_ H_ 0.571345 0.119907 0.840782 0.11455
H_ H_ 0.630381 0.265114 0.766073 0.11455
H_ H_ 0.665862 0.312619 0.807469 0.11455
H_ H_ 0.678078 0.263077 0.853568 0.11455
H_ H_ 0.694298 0.32064 0.696984 0.11455
H_ H_ 0.631804 0.357714 0.602797 0.11455
H_ H_ 0.722301 0.337201 0.607847 0.11455
H_ H_ 0.597723 0.304057 0.714258 0.11455
H_ H_ 0.51254 0.322199 0.706047 0.11455
H_ H_ 0.545886 0.34714 0.615627 0.11455
H_ H_ 0.888522 0.48692 0.693338 0.11455
H_ H_ 0.858257 0.0690137 0.59739 0.11455
H_ H_ 0.852182 0.475457 0.604136 0.11455
H_ H_ 0.863205 0.0671767 0.715665 0.11455
H_ H_ 0.865071 0.160635 0.71052 0.11455
H_ H_ 0.854755 0.147882 0.619762 0.11455
H_ H_ 0.92195 0.391791 0.717772 0.11455
H_ H_ 0.938068 0.415468 0.768089 0.11455
H_ H_ 0.89998 0.372498 0.809576 0.11455
H_ H_ 0.81459 0.248046 0.726644 0.11455
H_ H_ 0.79552 0.191612 0.762823 0.11455
H_ H_ 0.810964 0.212156 0.814177 0.11455
H_ H_ 0.988301 0.272374 0.874109 0.11455
H_ H_ 0.000927683 0.293711 0.924442 0.11455
H_ H_ 0.742015 0.3305 0.889991 0.11455
H_ H_ 0.758003 0.339707 0.94166 0.11455
H_ H_ 0.941822 0.409836 0.998663 0.11455
H_ H_ 0.976514 0.411883 0.551249 0.11455
H_ H_ 0.940935 0.365385 0.591096 0.11455
H_ H_ 0.830148 0.26801 0.507249 0.11455
H_ H_ 0.786765 0.223651 0.548773 0.11455
H_ H_ 0.81619 0.240674 0.596971 0.11455
C_ C_ 0.726541 0.191975 0.910062 0.68181
C_ C_ 0.782061 0.19056 0.906246 -0.05681
C_ C_ 0.816114 0.193878 0.929635 -0.08735
C_ C_ 0.869026 0.18247 0.925819 -0.05681
C_ C_ 0.886402 0.173777 0.897398 -0.05681
C_ C_ 0.853781 0.172824 0.873861 -0.08735
C_ C_ 0.801806 0.182582 0.878314 -0.08735
C_ C_ 0.905079 0.18909 0.948296 -0.08735
C_ C_ 0.958695 0.189036 0.941872 -0.08735
C_ C_ 0.975075 0.173741 0.915419 -0.05681
C_ C_ 0.938802 0.166043 0.892528 -0.08735
C_ C_ 0.622692 0.284598 0.913344 0.68181
C_ C_ 0.638524 0.086917 0.906101 0.68181
C_ C_ 0.646232 0.0312002 0.903024 -0.05681
C_ C_ 0.618415 0.500298 0.918796 -0.08735
C_ C_ 0.627771 0.446652 0.917547 -0.05681
C_ C_ 0.632107 0.422847 0.891616 -0.05681
C_ C_ 0.63058 0.451844 0.865649 -0.08735
C_ C_ 0.621154 0.503996 0.866638 -0.08735
C_ C_ 0.623788 0.418514 0.942386 -0.08735
C_ C_ 0.615677 0.365852 0.94057 -0.08735
C_ C_ 0.622314 0.341078 0.915 -0.05681
C_ C_ 0.631354 0.369451 0.890345 -0.08735
C_ C_ 0.529925 0.17871 0.912085 0.68181
C_ C_ 0.599205 0.133742 0.989553 0.1947
C_ C_ 0.608067 0.102875 0.516202 -0.08735
C_ C_ 0.622202 0.133099 0.53944 -0.08735
C_ C_ 0.645766 0.179763 0.533976 -0.05681
C_ C_ 0.663392 0.189537 0.504996 0.18498
C_ C_ 0.68692 0.239187 0.995215 -0.08735
C_ C_ 0.698588 0.271136 0.520173 -0.08735
C_ C_ 0.682088 0.261149 0.549028 -0.08735
C_ C_ 0.65706 0.21454 0.556447 0.18498
C_ C_ 0.691159 0.196707 0.6035 0.44287
C_ C_ 0.601758 0.209673 0.59635 0.44287
C_ C_ 0.59128 0.199755 0.625607 -0.05681
C_ C_ 0.540981 0.200134 0.638587 -0.08735
C_ C_ 0.533188 0.190354 0.667459 -0.08735
C_ C_ 0.576269 0.189865 0.686261 -0.05681
C_ C_ 0.625832 0.190981 0.674933 -0.05681
C_ C_ 0.63344 0.194303 0.645147 -0.05681
C_ C_ 0.682792 0.193682 0.633011 -0.05681
C_ C_ 0.72423 0.18398 0.651993 -0.08735
C_ C_ 0.716 0.179041 0.681408 -0.08735
C_ C_ 0.66636 0.182736 0.693236 -0.05681
C_ C_ 0.657792 0.18047 0.722792 0.44287
C_ C_ 0.569346 0.184735 0.716411 0.44287
C_ C_ 0.601862 0.164568 0.764115 0.18498
C_ C_ 0.57545 0.118819 0.769431 -0.08735
C_ C_ 0.563573 0.101822 0.796329 -0.08735
C_ C_ 0.582912 0.131388 0.819948 -0.08735
C_ C_ 0.613623 0.17528 0.816149 0.18498
C_ C_ 0.615364 0.196564 0.788538 -0.05681
C_ C_ 0.629765 0.246557 0.785795 -0.08735
C_ C_ 0.651226 0.273643 0.809134 -0.08735
C_ C_ 0.655444 0.247928 0.835986 0.1947
C_ C_ 0.769562 0.325711 0.657985 0.68181
C_ C_ 0.713702 0.324749 0.65453 -0.05681
C_ C_ 0.678669 0.318378 0.676378 -0.08735
C_ C_ 0.626571 0.322103 0.671335 -0.05681
C_ C_ 0.608858 0.328035 0.643269 -0.05681
C_ C_ 0.643811 0.334923 0.620808 -0.08735
C_ C_ 0.695576 0.331997 0.625579 -0.08735
C_ C_ 0.590503 0.317007 0.693259 -0.08735
C_ C_ 0.537116 0.322409 0.687551 -0.08735
C_ C_ 0.519197 0.331657 0.659327 -0.05681
C_ C_ 0.556224 0.337573 0.637743 -0.08735
C_ C_ 0.863916 0.217971 0.661937 0.68181
C_ C_ 0.869778 0.417275 0.651931 0.68181
C_ C_ 0.871364 0.473601 0.649114 -0.05681
C_ C_ 0.855346 0.00195211 0.670929 -0.08735
C_ C_ 0.853545 0.0560314 0.669527 -0.05681
C_ C_ 0.851552 0.0789755 0.642539 -0.05681
C_ C_ 0.850089 0.0486028 0.617303 -0.08735
C_ C_ 0.854129 0.495812 0.623204 -0.08735
C_ C_ 0.858025 0.085963 0.69432 -0.08735
C_ C_ 0.85877 0.139194 0.691494 -0.08735
C_ C_ 0.861388 0.162798 0.664342 -0.05681
C_ C_ 0.854004 0.131977 0.640321 -0.08735
C_ C_ 0.965828 0.313633 0.658345 0.68181
C_ C_ 0.903483 0.369944 0.735887 0.1947
C_ C_ 0.91304 0.385277 0.763123 -0.08735
C_ C_ 0.89115 0.360275 0.787211 -0.08735
C_ C_ 0.863053 0.316805 0.782097 -0.05681
C_ C_ 0.853841 0.302308 0.752315 0.18498
C_ C_ 0.830616 0.255796 0.74754 -0.08735
C_ C_ 0.811749 0.226618 0.769427 -0.08735
C_ C_ 0.824951 0.237659 0.797489 -0.08735
C_ C_ 0.84909 0.28377 0.804343 0.18498
C_ C_ 0.816074 0.314306 0.849932 0.44287
C_ C_ 0.900898 0.286769 0.845289 0.44287
C_ C_ 0.910867 0.30198 0.873925 -0.05681
C_ C_ 0.959184 0.294111 0.886048 -0.08735
C_ C_ 0.967547 0.309112 0.915134 -0.08735
C_ C_ 0.927142 0.318001 0.933404 -0.05681
C_ C_ 0.880132 0.322069 0.921582 -0.05681
C_ C_ 0.872337 0.317942 0.891813 -0.05681
C_ C_ 0.824386 0.326622 0.879 -0.05681
C_ C_ 0.783267 0.330228 0.898547 -0.08735
C_ C_ 0.790343 0.33512 0.92731 -0.08735
C_ C_ 0.837634 0.331322 0.939852 -0.05681
C_ C_ 0.84377 0.333278 0.969527 0.44287
C_ C_ 0.930773 0.317751 0.964518 0.44287
C_ C_ 0.896673 0.339576 0.511219 0.18498
C_ C_ 0.93585 0.376287 0.518558 -0.08735
C_ C_ 0.946352 0.38807 0.545992 -0.08735
C_ C_ 0.926346 0.359147 0.568579 -0.08735
C_ C_ 0.888013 0.322138 0.563543 0.18498
C_ C_ 0.87317 0.314325 0.53488 -0.05681
C_ C_ 0.839671 0.274245 0.528618 -0.08735
C_ C_ 0.817187 0.24904 0.55174 -0.08735
C_ C_ 0.830997 0.260299 0.580086 0.1947
N_ N_ 0.633375 0.169493 0.981903 -0.29468
N_ N_ 0.649614 0.205027 0.585234 -0.17154
N_ N_ 0.609134 0.180452 0.73436 -0.17154
N_ N_ 0.631473 0.201234 0.839817 -0.29468
N_ N_ 0.877013 0.327428 0.729943 -0.29468
N_ N_ 0.856237 0.297512 0.833367 -0.17154
N_ N_ 0.890703 0.32787 0.981458 -0.17154
N_ N_ 0.860953 0.300167 0.585408 -0.29468
O_ O_ 0.707463 0.177998 0.933321 -0.58347
O_ O_ 0.69686 0.205876 0.890802 -0.58347
O_ O_ 0.632964 0.258881 0.935449 -0.58347
O_ O_ 0.61257 0.262662 0.888907 -0.58347
O_ O_ 0.630827 0.105656 0.92989 -0.58347
O_ O_ 0.639033 0.114803 0.885293 -0.58347
O_ O_ 0.560706 0.181171 0.932357 -0.58347
O_ O_ 0.547077 0.173901 0.887591 -0.58347
O_ O_ 0.564154 0.21712 0.578195 -0.46727
O_ O_ 0.734285 0.181112 0.592519 -0.46727
O_ O_ 0.523704 0.191229 0.727053 -0.46727
O_ O_ 0.696997 0.185291 0.739593 -0.46727
O_ O_ 0.788731 0.325421 0.682558 -0.58347
O_ O_ 0.797611 0.317242 0.635651 -0.58347
O_ O_ 0.860661 0.245815 0.683441 -0.58347
O_ O_ 0.876393 0.239196 0.638223 -0.58347
O_ O_ 0.862962 0.396096 0.676025 -0.58347
O_ O_ 0.874473 0.391885 0.62992 -0.58347
O_ O_ 0.937548 0.329156 0.67826 -0.58347
O_ O_ 0.947309 0.30944 0.633995 -0.58347
O_ O_ 0.938829 0.268261 0.829296 -0.46727
O_ O_ 0.772401 0.325036 0.837292 -0.46727
O_ O_ 0.977206 0.313083 0.9758 -0.46727
O_ O_ 0.803788 0.346419 0.984861 -0.46727
Zn Zn 0.623554 0.686419 0.379942 0.90689
Zn Zn 0.633472 0.683476 0.428292 0.90689
Zn Zn 0.870051 0.813384 0.134878 0.90689
Zn Zn 0.864205 0.815245 0.183972 0.90689
H_ H_ 0.798691 0.684626 0.446059 0.11455
H_ H_ 0.872058 0.64374 0.350797 0.11455
H_ H_ 0.776889 0.655785 0.356369 0.11455
H_ H_ 0.88421 0.69465 0.465238 0.11455
H_ H_ 0.976679 0.687243 0.46035 0.11455
H_ H_ 0.954068 0.640857 0.373219 0.11455
H_ H_ 0.618202 0.521092 0.442627 0.11455
H_ H_ 0.663563 0.939404 0.349779 0.11455
H_ H_ 0.650229 0.525574 0.353529 0.11455
H_ H_ 0.62023 0.925878 0.464675 0.11455
H_ H_ 0.616083 0.836457 0.45952 0.11455
H_ H_ 0.641233 0.851626 0.369115 0.11455
H_ H_ 0.574461 0.612647 0.465127 0.11455
H_ H_ 0.563309 0.564959 0.00865951 0.11455
H_ H_ 0.60704 0.607819 0.0496439 0.11455
H_ H_ 0.692956 0.74038 0.467927 0.11455
H_ H_ 0.709915 0.794246 0.00727924 0.11455
H_ H_ 0.688016 0.767841 0.0591775 0.11455
H_ H_ 0.512347 0.707584 0.11876 0.11455
H_ H_ 0.498314 0.69006 0.168238 0.11455
H_ H_ 0.766158 0.669805 0.138475 0.11455
H_ H_ 0.751737 0.666727 0.187291 0.11455
H_ H_ 0.573477 0.577978 0.245991 0.11455
H_ H_ 0.547363 0.561079 0.295328 0.11455
H_ H_ 0.568389 0.613931 0.335335 0.11455
H_ H_ 0.650955 0.746421 0.255435 0.11455
H_ H_ 0.67251 0.799919 0.296572 0.11455
H_ H_ 0.67091 0.761114 0.343764 0.11455
H_ H_ 0.698121 0.810645 0.195294 0.11455
H_ H_ 0.625143 0.815015 0.0968445 0.11455
H_ H_ 0.718106 0.813097 0.104812 0.11455
H_ H_ 0.60839 0.816076 0.215353 0.11455
H_ H_ 0.519111 0.802498 0.209396 0.11455
H_ H_ 0.541424 0.819667 0.116938 0.11455
H_ H_ 0.859409 0.987735 0.193605 0.11455
H_ H_ 0.901951 0.559914 0.0959201 0.11455
H_ H_ 0.878802 0.96974 0.10296 0.11455
H_ H_ 0.886635 0.564179 0.213506 0.11455
H_ H_ 0.884706 0.655332 0.211014 0.11455
H_ H_ 0.885697 0.644496 0.119372 0.11455
H_ H_ 0.918765 0.880166 0.220318 0.11455
H_ H_ 0.933409 0.906778 0.271085 0.11455
H_ H_ 0.895956 0.859676 0.30979 0.11455
H_ H_ 0.811844 0.738037 0.225014 0.11455
H_ H_ 0.793772 0.679685 0.262473 0.11455
H_ H_ 0.799864 0.7008 0.313033 0.11455
H_ H_ 0.982607 0.763693 0.374768 0.11455
H_ H_ 0.00415715 0.794426 0.422927 0.11455
H_ H_ 0.73747 0.809954 0.392184 0.11455
H_ H_ 0.751694 0.831921 0.442695 0.11455
H_ H_ 0.953593 0.899236 0.499346 0.11455
H_ H_ 0.949792 0.941843 0.0531258 0.11455
H_ H_ 0.925058 0.882296 0.0910902 0.11455
H_ H_ 0.835835 0.764559 0.0076863 0.11455
H_ H_ 0.807721 0.717133 0.0465291 0.11455
H_ H_ 0.818732 0.739093 0.0959028 0.11455
C_ C_ 0.725537 0.680458 0.404485 0.68181
C_ C_ 0.780461 0.671359 0.401632 -0.05681
C_ C_ 0.812523 0.677272 0.425449 -0.08735
C_ C_ 0.866153 0.672673 0.422025 -0.05681
C_ C_ 0.886866 0.659168 0.395642 -0.05681
C_ C_ 0.854857 0.655821 0.371605 -0.08735
C_ C_ 0.802563 0.660633 0.374824 -0.08735
C_ C_ 0.899127 0.681068 0.445143 -0.08735
C_ C_ 0.952035 0.677858 0.441767 -0.08735
C_ C_ 0.972658 0.661677 0.415092 -0.05681
C_ C_ 0.939933 0.649573 0.392954 -0.08735
C_ C_ 0.622425 0.780477 0.409481 0.68181
C_ C_ 0.636113 0.586553 0.400339 0.68181
C_ C_ 0.632417 0.529395 0.399018 -0.05681
C_ C_ 0.623534 0.997249 0.422923 -0.08735
C_ C_ 0.626003 0.943506 0.418993 -0.05681
C_ C_ 0.638283 0.92305 0.393092 -0.05681
C_ C_ 0.651885 0.955174 0.370382 -0.08735
C_ C_ 0.647285 1.00776464 0.37299 -0.08735
C_ C_ 0.620009 0.912287 0.442324 -0.08735
C_ C_ 0.622172 0.859793 0.440221 -0.08735
C_ C_ 0.628817 0.836482 0.413226 -0.05681
C_ C_ 0.637445 0.868781 0.38978 -0.08735
C_ C_ 0.531737 0.6794 0.408102 0.68181
C_ C_ 0.597116 0.628963 0.48194 0.1947
C_ C_ 0.589513 0.597184 0.00624408 -0.08735
C_ C_ 0.614177 0.622197 0.0286993 -0.08735
C_ C_ 0.64013 0.667494 0.0237945 -0.05681
C_ C_ 0.649972 0.682293 0.995194 0.18498
C_ C_ 0.685067 0.732347 0.490568 -0.08735
C_ C_ 0.690453 0.756741 0.0125618 -0.08735
C_ C_ 0.682299 0.741612 0.0413111 -0.08735
C_ C_ 0.653309 0.697763 0.0480035 0.18498
C_ C_ 0.689272 0.679477 0.0961531 0.44287
C_ C_ 0.599012 0.684 0.0897647 0.44287
C_ C_ 0.589583 0.676712 0.118502 -0.05681
C_ C_ 0.541967 0.689782 0.131501 -0.08735
C_ C_ 0.535406 0.688263 0.160749 -0.08735
C_ C_ 0.577805 0.677246 0.179137 -0.05681
C_ C_ 0.626526 0.672753 0.167228 -0.05681
C_ C_ 0.631912 0.672025 0.137088 -0.05681
C_ C_ 0.683129 0.673619 0.126354 -0.05681
C_ C_ 0.724991 0.670232 0.144865 -0.08735
C_ C_ 0.718026 0.671836 0.173786 -0.08735
C_ C_ 0.669194 0.669892 0.185396 -0.05681
C_ C_ 0.661773 0.667986 0.214943 0.44287
C_ C_ 0.573197 0.673726 0.209491 0.44287
C_ C_ 0.606935 0.653583 0.256504 0.18498
C_ C_ 0.58542 0.60454 0.26327 -0.08735
C_ C_ 0.572716 0.592109 0.291229 -0.08735
C_ C_ 0.584147 0.624548 0.314195 -0.08735
C_ C_ 0.608311 0.669203 0.309039 0.18498
C_ C_ 0.619568 0.685217 0.280367 -0.05681
C_ C_ 0.642517 0.73302 0.276301 -0.08735
C_ C_ 0.65435 0.761673 0.299672 -0.08735
C_ C_ 0.651789 0.739445 0.327096 0.1947
C_ C_ 0.76896 0.806133 0.154771 0.68181
C_ C_ 0.714058 0.806597 0.150458 -0.05681
C_ C_ 0.680946 0.810157 0.174023 -0.08735
C_ C_ 0.626823 0.811846 0.169332 -0.05681
C_ C_ 0.607627 0.816811 0.141237 -0.05681
C_ C_ 0.638601 0.812097 0.118275 -0.08735
C_ C_ 0.692957 0.813029 0.122539 -0.08735
C_ C_ 0.593595 0.811917 0.19323 -0.08735
C_ C_ 0.542658 0.8099 0.189408 -0.08735
C_ C_ 0.522576 0.811013 0.160302 -0.05681
C_ C_ 0.555844 0.815899 0.137577 -0.08735
C_ C_ 0.876168 0.714512 0.164447 0.68181
C_ C_ 0.864386 0.914807 0.152911 0.68181
C_ C_ 0.867117 0.970421 0.149016 -0.05681
C_ C_ 0.875889 0.496827 0.170984 -0.08735
C_ C_ 0.877002 0.548769 0.169325 -0.05681
C_ C_ 0.885409 0.57158 0.141989 -0.05681
C_ C_ 0.894644 0.542188 0.117383 -0.08735
C_ C_ 0.87466 0.99324 0.121806 -0.08735
C_ C_ 0.886088 0.580525 0.193616 -0.08735
C_ C_ 0.886966 0.632837 0.190995 -0.08735
C_ C_ 0.882978 0.656282 0.164239 -0.05681
C_ C_ 0.886048 0.626456 0.139998 -0.08735
C_ C_ 0.962975 0.817567 0.158548 0.68181
C_ C_ 0.900193 0.862522 0.236755 0.1947
C_ C_ 0.908683 0.876195 0.265449 -0.08735
C_ C_ 0.88777 0.848887 0.28793 -0.08735
C_ C_ 0.856062 0.807331 0.282175 -0.05681
C_ C_ 0.842893 0.79742 0.25228 0.18498
C_ C_ 0.819887 0.750825 0.246162 -0.08735
C_ C_ 0.812335 0.715113 0.268564 -0.08735
C_ C_ 0.816738 0.727334 0.296334 -0.08735
C_ C_ 0.842844 0.771765 0.30397 0.18498
C_ C_ 0.811347 0.79281 0.351691 0.44287
C_ C_ 0.897373 0.772397 0.345948 0.44287
C_ C_ 0.905951 0.782352 0.374726 -0.05681
C_ C_ 0.955581 0.780696 0.386227 -0.08735
C_ C_ 0.964839 0.796231 0.415403 -0.08735
C_ C_ 0.923761 0.805206 0.434016 -0.05681
C_ C_ 0.873404 0.806675 0.422293 -0.05681
C_ C_ 0.865844 0.795896 0.393158 -0.05681
C_ C_ 0.817126 0.795611 0.382428 -0.05681
C_ C_ 0.775791 0.809274 0.400223 -0.08735
C_ C_ 0.784325 0.825138 0.427903 -0.08735
C_ C_ 0.832619 0.824104 0.439439 -0.05681
C_ C_ 0.842681 0.835656 0.46952 0.44287
C_ C_ 0.93006 0.811075 0.46294 0.44287
C_ C_ 0.895753 0.852253 0.0112291 0.18498
C_ C_ 0.924123 0.894002 0.0185789 -0.08735
C_ C_ 0.934242 0.905551 0.047399 -0.08735
C_ C_ 0.918852 0.871345 0.068733 -0.08735
C_ C_ 0.884789 0.833715 0.0629615 0.18498
C_ C_ 0.875406 0.821459 0.0340718 -0.05681
C_ C_ 0.841599 0.781315 0.0284202 -0.08735
C_ C_ 0.826773 0.751074 0.0518445 -0.08735
C_ C_ 0.837705 0.762726 0.0798507 0.1947
N_ N_ 0.629723 0.666173 0.475706 -0.29468
N_ N_ 0.647011 0.68641 0.078948 -0.17154
N_ N_ 0.614743 0.665201 0.226765 -0.17154
N_ N_ 0.623255 0.698977 0.331706 -0.29468
N_ N_ 0.866733 0.824681 0.230348 -0.29468
N_ N_ 0.851119 0.781947 0.333912 -0.17154
N_ N_ 0.889218 0.826762 0.480098 -0.17154
N_ N_ 0.869007 0.803471 0.0847769 -0.29468
O_ O_ 0.706055 0.686283 0.428705 -0.58347
O_ O_ 0.699199 0.685058 0.381889 -0.58347
O_ O_ 0.624431 0.753847 0.431544 -0.58347
O_ O_ 0.615856 0.759361 0.385231 -0.58347
O_ O_ 0.637892 0.609123 0.423778 -0.58347
O_ O_ 0.634836 0.611282 0.376641 -0.58347
O_ O_ 0.558235 0.6826 0.430055 -0.58347
O_ O_ 0.550053 0.678643 0.383858 -0.58347
O_ O_ 0.559333 0.685707 0.0721026 -0.46727
O_ O_ 0.7333 0.669602 0.0845999 -0.46727
O_ O_ 0.526614 0.678655 0.220287 -0.46727
O_ O_ 0.699901 0.655315 0.230699 -0.46727
O_ O_ 0.788631 0.816963 0.178938 -0.58347
O_ O_ 0.799393 0.80456 0.133449 -0.58347
O_ O_ 0.862367 0.740109 0.18618 -0.58347
O_ O_ 0.881934 0.736753 0.141413 -0.58347
O_ O_ 0.868202 0.895233 0.176804 -0.58347
O_ O_ 0.860696 0.886729 0.13043 -0.58347
O_ O_ 0.936692 0.817122 0.180696 -0.58347
O_ O_ 0.943071 0.825111 0.134717 -0.58347
O_ O_ 0.9334 0.752894 0.331092 -0.46727
O_ O_ 0.765582 0.793418 0.340987 -0.46727
O_ O_ 0.976289 0.810388 0.474185 -0.46727
O_ O_ 0.809672 0.864438 0.484542 -0.46727
Zn Zn 0.617195 0.692978 0.87861 0.90689
Zn Zn 0.633216 0.678759 0.928188 0.90689
Zn Zn 0.863965 0.816163 0.632868 0.90689
Zn Zn 0.852383 0.821784 0.680323 0.90689
H_ H_ 0.796578 0.703897 0.939688 0.11455
H_ H_ 0.869627 0.664398 0.845185 0.11455
H_ H_ 0.776405 0.663975 0.850672 0.11455
H_ H_ 0.884315 0.69876 0.963303 0.11455
H_ H_ 0.977616 0.684791 0.955361 0.11455
H_ H_ 0.954825 0.677924 0.86461 0.11455
H_ H_ 0.618504 0.520113 0.940051 0.11455
H_ H_ 0.638074 0.944328 0.850699 0.11455
H_ H_ 0.616403 0.524279 0.848303 0.11455
H_ H_ 0.646892 0.926587 0.968258 0.11455
H_ H_ 0.625195 0.837212 0.962084 0.11455
H_ H_ 0.632486 0.854739 0.871081 0.11455
H_ H_ 0.573841 0.602042 0.961093 0.11455
H_ H_ 0.555491 0.589985 0.514054 0.11455
H_ H_ 0.602212 0.627146 0.553767 0.11455
H_ H_ 0.685379 0.738678 0.968361 0.11455
H_ H_ 0.730044 0.793319 0.504711 0.11455
H_ H_ 0.701989 0.782748 0.555475 0.11455
H_ H_ 0.514004 0.741505 0.616798 0.11455
H_ H_ 0.494798 0.735307 0.665642 0.11455
H_ H_ 0.750424 0.650657 0.63592 0.11455
H_ H_ 0.726172 0.62417 0.685577 0.11455
H_ H_ 0.543054 0.604192 0.74488 0.11455
H_ H_ 0.518723 0.582624 0.796266 0.11455
H_ H_ 0.553899 0.637436 0.835611 0.11455
H_ H_ 0.644463 0.757682 0.753842 0.11455
H_ H_ 0.68379 0.798842 0.794101 0.11455
H_ H_ 0.670405 0.767239 0.843504 0.11455
H_ H_ 0.687086 0.806659 0.692572 0.11455
H_ H_ 0.621512 0.842816 0.5951 0.11455
H_ H_ 0.715392 0.83677 0.602187 0.11455
H_ H_ 0.601624 0.819914 0.712931 0.11455
H_ H_ 0.510331 0.829559 0.705206 0.11455
H_ H_ 0.53399 0.866146 0.616071 0.11455
H_ H_ 0.857307 0.983098 0.692214 0.11455
H_ H_ 0.829499 0.566187 0.60511 0.11455
H_ H_ 0.847959 0.972358 0.599651 0.11455
H_ H_ 0.906179 0.574028 0.714002 0.11455
H_ H_ 0.903326 0.669061 0.708533 0.11455
H_ H_ 0.852988 0.649684 0.620669 0.11455
H_ H_ 0.907768 0.900832 0.711106 0.11455
H_ H_ 0.935439 0.925674 0.761256 0.11455
H_ H_ 0.891018 0.887547 0.802889 0.11455
H_ H_ 0.798558 0.759383 0.724492 0.11455
H_ H_ 0.759503 0.719142 0.767629 0.11455
H_ H_ 0.794105 0.739676 0.816583 0.11455
H_ H_ 0.986223 0.789376 0.876229 0.11455
H_ H_ 0.997225 0.808394 0.924433 0.11455
H_ H_ 0.752666 0.884896 0.886264 0.11455
H_ H_ 0.75925 0.887701 0.939377 0.11455
H_ H_ 0.939498 0.916578 1.00114514 0.11455
H_ H_ 0.969332 0.924693 0.549463 0.11455
H_ H_ 0.922861 0.88104 0.58934 0.11455
H_ H_ 0.830454 0.756539 0.507961 0.11455
H_ H_ 0.799343 0.711065 0.548612 0.11455
H_ H_ 0.817913 0.737589 0.597875 0.11455
C_ C_ 0.724967 0.682585 0.899863 0.68181
C_ C_ 0.779498 0.685788 0.89573 -0.05681
C_ C_ 0.812763 0.691247 0.920053 -0.08735
C_ C_ 0.866135 0.688324 0.917805 -0.05681
C_ C_ 0.887237 0.678531 0.890726 -0.05681
C_ C_ 0.853424 0.671161 0.866851 -0.08735
C_ C_ 0.801524 0.67543 0.868711 -0.08735
C_ C_ 0.898431 0.687907 0.942227 -0.08735
C_ C_ 0.951827 0.683608 0.937404 -0.08735
C_ C_ 0.972627 0.677941 0.909375 -0.05681
C_ C_ 0.939415 0.678473 0.885873 -0.08735
C_ C_ 0.626058 0.784265 0.911572 0.68181
C_ C_ 0.624223 0.58807 0.895712 0.68181
C_ C_ 0.619538 0.529757 0.893165 -0.05681
C_ C_ 0.645479 -0.00230265 0.927798 -0.08735
C_ C_ 0.639921 0.94553 0.924828 -0.05681
C_ C_ 0.639286 0.923593 0.896194 -0.05681
C_ C_ 0.640451 0.957924 0.872115 -0.08735
C_ C_ 0.646533 0.0107075 0.875827 -0.08735
C_ C_ 0.633861 0.911952 0.948315 -0.08735
C_ C_ 0.633283 0.859909 0.942901 -0.08735
C_ C_ 0.631537 0.83966 0.915954 -0.05681
C_ C_ 0.633094 0.870499 0.892006 -0.08735
C_ C_ 0.530029 0.685623 0.90995 0.68181
C_ C_ 0.596135 0.616789 0.978385 0.1947
C_ C_ 0.586136 0.61304 0.510258 -0.08735
C_ C_ 0.61226 0.639633 0.532151 -0.08735
C_ C_ 0.6428 0.680506 0.526914 -0.05681
C_ C_ 0.653718 0.691474 0.497675 0.18498
C_ C_ 0.675365 0.726707 0.989809 -0.08735
C_ C_ 0.704773 0.763124 0.511439 -0.08735
C_ C_ 0.693389 0.753022 0.540961 -0.08735
C_ C_ 0.661932 0.712778 0.549319 0.18498
C_ C_ 0.688973 0.692301 0.597113 0.44287
C_ C_ 0.605501 0.722782 0.589614 0.44287
C_ C_ 0.591752 0.714455 0.618717 -0.05681
C_ C_ 0.543218 0.727053 0.630334 -0.08735
C_ C_ 0.531375 0.717169 0.659539 -0.08735
C_ C_ 0.568878 0.698221 0.678925 -0.05681
C_ C_ 0.616825 0.685156 0.666331 -0.05681
C_ C_ 0.627885 0.694796 0.636888 -0.05681
C_ C_ 0.677218 0.680904 0.625593 -0.05681
C_ C_ 0.71308 0.658795 0.644304 -0.08735
C_ C_ 0.69886 0.644202 0.672066 -0.08735
C_ C_ 0.652829 0.662833 0.684861 -0.05681
C_ C_ 0.643019 0.664936 0.714955 0.44287
C_ C_ 0.559616 0.695583 0.708947 0.44287
C_ C_ 0.589398 0.668308 0.756639 0.18498
C_ C_ 0.559889 0.624307 0.76322 -0.08735
C_ C_ 0.544317 0.614309 0.791874 -0.08735
C_ C_ 0.560009 0.64629 0.81431 -0.08735
C_ C_ 0.595046 0.687276 0.808828 0.18498
C_ C_ 0.607816 0.699625 0.779689 -0.05681
C_ C_ 0.637399 0.742139 0.7752 -0.08735
C_ C_ 0.656257 0.77066 0.798517 -0.08735
C_ C_ 0.645953 0.754765 0.826233 0.1947
C_ C_ 0.760791 0.816059 0.651843 0.68181
C_ C_ 0.706234 0.82128 0.647218 -0.05681
C_ C_ 0.673305 0.814195 0.670383 -0.08735
C_ C_ 0.621137 0.829644 0.668215 -0.05681
C_ C_ 0.601909 0.842364 0.641105 -0.05681
C_ C_ 0.634435 0.84134 0.617011 -0.08735
C_ C_ 0.689212 0.836687 0.620831 -0.08735
C_ C_ 0.587689 0.828788 0.691921 -0.08735
C_ C_ 0.536709 0.836357 0.687581 -0.08735
C_ C_ 0.517444 0.843262 0.660237 -0.05681
C_ C_ 0.550547 0.848617 0.636644 -0.08735
C_ C_ 0.867363 0.720158 0.662499 0.68181
C_ C_ 0.849674 0.915583 0.648481 0.68181
C_ C_ 0.851481 0.972379 0.646853 -0.05681
C_ C_ 0.883326 0.505197 0.672624 -0.08735
C_ C_ 0.880175 0.557851 0.671341 -0.05681
C_ C_ 0.867878 0.580014 0.644597 -0.05681
C_ C_ 0.851145 0.549115 0.622133 -0.08735
C_ C_ 0.851928 0.996456 0.619226 -0.08735
C_ C_ 0.895167 0.590052 0.69339 -0.08735
C_ C_ 0.895611 0.644307 0.69032 -0.08735
C_ C_ 0.875576 0.664898 0.664449 -0.05681
C_ C_ 0.868074 0.631793 0.640619 -0.08735
C_ C_ 0.956865 0.830118 0.660694 0.68181
C_ C_ 0.889676 0.884403 0.730932 0.1947
C_ C_ 0.907054 0.897525 0.758618 -0.08735
C_ C_ 0.890406 0.870871 0.782797 -0.08735
C_ C_ 0.856813 0.82798 0.779469 -0.05681
C_ C_ 0.841695 0.815524 0.751121 0.18498
C_ C_ 0.811121 0.769622 0.746812 -0.08735
C_ C_ 0.792055 0.744963 0.771129 -0.08735
C_ C_ 0.810464 0.756169 0.798548 -0.08735
C_ C_ 0.841511 0.797774 0.803503 0.18498
C_ C_ 0.813833 0.834491 0.849645 0.44287
C_ C_ 0.897551 0.799367 0.846101 0.44287
C_ C_ 0.90444 0.809122 0.87497 -0.05681
C_ C_ 0.953046 0.799945 0.888131 -0.08735
C_ C_ 0.959321 0.804234 0.917619 -0.08735
C_ C_ 0.918973 0.81821 0.935756 -0.05681
C_ C_ 0.871452 0.830389 0.922577 -0.05681
C_ C_ 0.866377 0.829926 0.8921 -0.05681
C_ C_ 0.820028 0.840414 0.879836 -0.05681
C_ C_ 0.783667 0.86386 0.896845 -0.08735
C_ C_ 0.789603 0.874167 0.926223 -0.08735
C_ C_ 0.832157 0.85421 0.940121 -0.05681
C_ C_ 0.840315 0.855967 0.969782 0.44287
C_ C_ 0.924778 0.823833 0.964821 0.44287
C_ C_ 0.900181 0.839437 0.509361 0.18498
C_ C_ 0.934862 0.878287 0.516429 -0.08735
C_ C_ 0.941466 0.892302 0.544499 -0.08735
C_ C_ 0.916956 0.865965 0.567054 -0.08735
C_ C_ 0.885646 0.825902 0.562326 0.18498
C_ C_ 0.874384 0.811351 0.53339 -0.05681
C_ C_ 0.840751 0.770174 0.528294 -0.08735
C_ C_ 0.823404 0.742659 0.552756 -0.08735
C_ C_ 0.834754 0.756924 0.580244 0.1947
N_ N_ 0.629303 0.655148 0.973134 -0.29468
N_ N_ 0.650419 0.704543 0.578987 -0.17154
N_ N_ 0.598128 0.681489 0.726754 -0.17154
N_ N_ 0.615165 0.713777 0.831219 -0.29468
N_ N_ 0.857674 0.843368 0.727539 -0.29468
N_ N_ 0.852006 0.814961 0.833149 -0.17154
N_ N_ 0.885362 0.840566 0.981589 -0.17154
N_ N_ 0.860927 0.801308 0.584622 -0.29468
O_ O_ 0.708392 0.673519 0.924593 -0.58347
O_ O_ 0.696457 0.692044 0.879674 -0.58347
O_ O_ 0.627247 0.754815 0.932483 -0.58347
O_ O_ 0.624731 0.768081 0.88636 -0.58347
O_ O_ 0.63794 0.607928 0.918834 -0.58347
O_ O_ 0.609542 0.618101 0.875536 -0.58347
O_ O_ 0.558135 0.677663 0.930348 -0.58347
O_ O_ 0.545333 0.692076 0.884908 -0.58347
O_ O_ 0.570263 0.736431 0.57218 -0.46727
O_ O_ 0.735817 0.694719 0.588651 -0.46727
O_ O_ 0.517956 0.715744 0.72053 -0.46727
O_ O_ 0.678264 0.647238 0.732945 -0.46727
O_ O_ 0.778494 0.815521 0.676567 -0.58347
O_ O_ 0.789566 0.812019 0.630139 -0.58347
O_ O_ 0.862148 0.747023 0.68529 -0.58347
O_ O_ 0.875636 0.743187 0.638706 -0.58347
O_ O_ 0.843165 0.895368 0.672269 -0.58347
O_ O_ 0.853821 0.888727 0.625328 -0.58347
O_ O_ 0.929978 0.829687 0.682563 -0.58347
O_ O_ 0.938081 0.825564 0.63536 -0.58347
O_ O_ 0.932952 0.777171 0.829869 -0.46727
O_ O_ 0.772374 0.84725 0.836232 -0.46727
O_ O_ 0.966883 0.809878 0.976813 -0.46727
O_ O_ 0.802394 0.873299 0.985424 -0.46727
_cell_length_a 26.376
_cell_length_b 26.400000238300095
_cell_length_c 46.67800035477134
_cell_angle_alpha 90.00700052986613
_cell_angle_beta 89.99899961309502
_cell_angle_gamma 90.45000003183146
_symmetry_space_group_name_H-M         'P 1'
_symmetry_Int_Tables_number            1
loop_
_symmetry_equiv_pos_as_xyz
   'x, y, z'
                         
loop_
_atom_site_label
_atom_site_type_symbol
_atom_site_fract_x 
_atom_site_fract_y
_atom_site_fract_z
_atom_site_charge
Zn Zn 0.135141 0.185321 0.379163 0.90689
Zn Zn 0.139557 0.179388 0.429435 0.90689
Zn Zn 0.380427 0.304745 0.131384 0.90689
Zn Zn 0.367919 0.311239 0.180428 0.90689
H_ H_ 0.301653 0.190681 0.44244 0.11455
H_ H_ 0.387078 0.155996 0.349031 0.11455
H_ H_ 0.287592 0.15707 0.353576 0.11455
H_ H_ 0.387011 0.208203 0.463705 0.11455
H_ H_ 0.477118 0.200388 0.461351 0.11455
H_ H_ 0.467701 0.167563 0.371352 0.11455
H_ H_ 0.134216 0.0129811 0.443098 0.11455
H_ H_ 0.132349 0.43145 0.349166 0.11455
H_ H_ 0.157523 0.0216932 0.351798 0.11455
H_ H_ 0.159232 0.424799 0.466979 0.11455
H_ H_ 0.154445 0.333916 0.461153 0.11455
H_ H_ 0.134103 0.3515 0.37027 0.11455
H_ H_ 0.0801883 0.106173 0.466524 0.11455
H_ H_ 0.0934972 0.0692861 0.018281 0.11455
H_ H_ 0.131704 0.122867 0.0591941 0.11455
H_ H_ 0.18839 0.247252 0.473177 0.11455
H_ H_ 0.21916 0.304462 0.0104804 0.11455
H_ H_ 0.206352 0.284684 0.0606352 0.11455
H_ H_ 0.0269084 0.230192 0.120716 0.11455
H_ H_ 0.010623 0.19999 0.168849 0.11455
H_ H_ 0.273925 0.19213 0.138537 0.11455
H_ H_ 0.257659 0.179711 0.191111 0.11455
H_ H_ 0.0767537 0.0876142 0.248423 0.11455
H_ H_ 0.0462303 0.0698176 0.298624 0.11455
H_ H_ 0.0699955 0.126502 0.336354 0.11455
H_ H_ 0.155725 0.249628 0.254506 0.11455
H_ H_ 0.199026 0.290801 0.295252 0.11455
H_ H_ 0.188314 0.258766 0.344533 0.11455
H_ H_ 0.200236 0.307759 0.194999 0.11455
H_ H_ 0.135571 0.337879 0.100102 0.11455
H_ H_ 0.223126 0.32773 0.106178 0.11455
H_ H_ 0.117028 0.298128 0.214299 0.11455
H_ H_ 0.0243985 0.304269 0.206349 0.11455
H_ H_ 0.0525789 0.340211 0.118658 0.11455
H_ H_ 0.401387 0.478528 0.18901 0.11455
H_ H_ 0.400485 0.0591491 0.0972399 0.11455
H_ H_ 0.327416 0.460181 0.10613 0.11455
H_ H_ 0.344667 0.061453 0.211251 0.11455
H_ H_ 0.354971 0.154226 0.20832 0.11455
H_ H_ 0.398922 0.139592 0.120774 0.11455
H_ H_ 0.420279 0.390085 0.214819 0.11455
H_ H_ 0.43454 0.419325 0.263289 0.11455
H_ H_ 0.389753 0.381217 0.303318 0.11455
H_ H_ 0.30934 0.248764 0.222748 0.11455
H_ H_ 0.262915 0.209888 0.262151 0.11455
H_ H_ 0.284737 0.231799 0.314742 0.11455
H_ H_ 0.489731 0.299241 0.371354 0.11455
H_ H_ 0.506122 0.315692 0.422858 0.11455
H_ H_ 0.242529 0.369922 0.388195 0.11455
H_ H_ 0.2574 0.379944 0.44043 0.11455
H_ H_ 0.420095 0.430048 0.50176 0.11455
H_ H_ 0.450938 0.430607 0.0460347 0.11455
H_ H_ 0.433831 0.367969 0.0880085 0.11455
H_ H_ 0.341279 0.248201 0.00622577 0.11455
H_ H_ 0.310804 0.197775 0.0473964 0.11455
H_ H_ 0.32687 0.224934 0.0950149 0.11455
C_ C_ 0.234394 0.184068 0.401095 0.68181
C_ C_ 0.291188 0.179472 0.397271 -0.05681
C_ C_ 0.321279 0.181815 0.422329 -0.08735
C_ C_ 0.37418 0.180955 0.420322 -0.05681
C_ C_ 0.397734 0.173202 0.392936 -0.05681
C_ C_ 0.367632 0.165509 0.368333 -0.08735
C_ C_ 0.314046 0.167719 0.37031 -0.08735
C_ C_ 0.403383 0.193398 0.444245 -0.08735
C_ C_ 0.455223 0.189064 0.442893 -0.08735
C_ C_ 0.479038 0.18 0.416495 -0.05681
C_ C_ 0.450239 0.172987 0.392118 -0.08735
C_ C_ 0.139501 0.280076 0.411753 0.68181
C_ C_ 0.137654 0.0806051 0.398235 0.68181
C_ C_ 0.143276 0.0261006 0.396788 -0.05681
C_ C_ 0.141718 0.495982 0.423784 -0.08735
C_ C_ 0.139093 0.441896 0.421834 -0.05681
C_ C_ 0.13925 0.41985 0.394396 -0.05681
C_ C_ 0.137476 0.449683 0.369504 -0.08735
C_ C_ 0.136044 0.50211 0.371751 -0.08735
C_ C_ 0.144394 0.409036 0.446466 -0.08735
C_ C_ 0.142657 0.356859 0.443274 -0.08735
C_ C_ 0.134186 0.335872 0.415591 -0.05681
C_ C_ 0.135791 0.367821 0.391085 -0.08735
C_ C_ 0.0380324 0.180693 0.40237 0.68181
C_ C_ 0.106263 0.12335 0.483474 0.1947
C_ C_ 0.10684 0.108111 0.0153677 -0.08735
C_ C_ 0.132101 0.135082 0.0366724 -0.08735
C_ C_ 0.155188 0.180168 0.0296062 -0.05681
C_ C_ 0.156111 0.197043 1.00052 0.18498
C_ C_ 0.178397 0.236181 0.493825 -0.08735
C_ C_ 0.199783 0.272208 0.015303 -0.08735
C_ C_ 0.1959 0.257369 0.0433852 -0.08735
C_ C_ 0.172166 0.213459 0.0512626 0.18498
C_ C_ 0.201939 0.192483 0.0978554 0.44287
C_ C_ 0.116325 0.21759 0.0929007 0.44287
C_ C_ 0.104534 0.203065 0.120206 -0.05681
C_ C_ 0.0546586 0.204138 0.131095 -0.08735
C_ C_ 0.0452857 0.190942 0.160062 -0.08735
C_ C_ 0.0850433 0.179874 0.178971 -0.05681
C_ C_ 0.135504 0.180029 0.1685 -0.05681
C_ C_ 0.144149 0.188341 0.138179 -0.05681
C_ C_ 0.194203 0.190932 0.126975 -0.05681
C_ C_ 0.234593 0.187481 0.146551 -0.08735
C_ C_ 0.226144 0.179141 0.175643 -0.08735
C_ C_ 0.176083 0.174942 0.187473 -0.05681
C_ C_ 0.16507 0.169525 0.216165 0.44287
C_ C_ 0.0774797 0.174967 0.208285 0.44287
C_ C_ 0.107651 0.156784 0.256563 0.18498
C_ C_ 0.0811554 0.114127 0.264264 -0.08735
C_ C_ 0.0658403 0.102153 0.293127 -0.08735
C_ C_ 0.0847705 0.133002 0.314464 -0.08735
C_ C_ 0.114394 0.174138 0.309155 0.18498
C_ C_ 0.123149 0.190749 0.280236 -0.05681
C_ C_ 0.151145 0.234907 0.275981 -0.08735
C_ C_ 0.175436 0.254913 0.299023 -0.08735
C_ C_ 0.163595 0.242014 0.327249 0.1947
C_ C_ 0.276467 0.310162 0.156027 0.68181
C_ C_ 0.222046 0.316313 0.152066 -0.05681
C_ C_ 0.186924 0.308207 0.174303 -0.08735
C_ C_ 0.136097 0.315663 0.171768 -0.05681
C_ C_ 0.117443 0.326551 0.14438 -0.05681
C_ C_ 0.148444 0.323511 0.119968 -0.08735
C_ C_ 0.201233 0.319393 0.12349 -0.08735
C_ C_ 0.102965 0.310338 0.194959 -0.08735
C_ C_ 0.0512928 0.319738 0.191538 -0.08735
C_ C_ 0.0329304 0.327729 0.163613 -0.05681
C_ C_ 0.0666662 0.334416 0.140105 -0.08735
C_ C_ 0.376615 0.21127 0.162271 0.68181
C_ C_ 0.373778 0.404675 0.149409 0.68181
C_ C_ 0.37018 0.460883 0.145768 -0.05681
C_ C_ 0.363517 -0.006476000000000037 0.170292 -0.08735
C_ C_ 0.377179 0.0466423 0.169362 -0.05681
C_ C_ 0.389549 0.0711037 0.142892 -0.05681
C_ C_ 0.391157 0.0424299 0.118174 -0.08735
C_ C_ 0.344077 0.483425 0.12243 -0.08735
C_ C_ 0.36266 0.079291 0.192929 -0.08735
C_ C_ 0.364962 0.131131 0.18962 -0.08735
C_ C_ 0.382259 0.155082 0.164831 -0.05681
C_ C_ 0.394986 0.124543 0.141812 -0.08735
C_ C_ 0.47415 0.31508 0.157106 0.68181
C_ C_ 0.404837 0.368097 0.232153 0.1947
C_ C_ 0.411688 0.385423 0.25964 -0.08735
C_ C_ 0.386833 0.362953 0.283111 -0.08735
C_ C_ 0.357774 0.318563 0.279199 -0.05681
C_ C_ 0.351153 0.302244 0.250439 0.18498
C_ C_ 0.315354 0.262085 0.245481 -0.08735
C_ C_ 0.292392 0.238198 0.268558 -0.08735
C_ C_ 0.303142 0.251842 0.29734 -0.08735
C_ C_ 0.336006 0.291392 0.302759 0.18498
C_ C_ 0.310116 0.322641 0.350156 0.44287
C_ C_ 0.39593 0.299298 0.343797 0.44287
C_ C_ 0.40798 0.309483 0.374091 -0.05681
C_ C_ 0.457984 0.307511 0.384807 -0.08735
C_ C_ 0.464969 0.319147 0.414459 -0.08735
C_ C_ 0.424267 0.329801 0.433476 -0.05681
C_ C_ 0.374543 0.334181 0.421388 -0.05681
C_ C_ 0.367668 0.325134 0.391777 -0.05681
C_ C_ 0.317888 0.336316 0.379517 -0.05681
C_ C_ 0.279407 0.35814 0.397626 -0.08735
C_ C_ 0.286305 0.362695 0.427448 -0.08735
C_ C_ 0.333361 0.348683 0.439364 -0.05681
C_ C_ 0.341759 0.356918 0.468348 0.44287
C_ C_ 0.427725 0.335607 0.464309 0.44287
C_ C_ 0.393415 0.337294 0.00944228 0.18498
C_ C_ 0.414659 0.385508 0.0147568 -0.08735
C_ C_ 0.425957 0.398422 0.0436054 -0.08735
C_ C_ 0.41702 0.36256 0.0655347 -0.08735
C_ C_ 0.387893 0.319453 0.0603967 0.18498
C_ C_ 0.378856 0.303847 0.0321813 -0.05681
C_ C_ 0.347216 0.262783 0.0277549 -0.08735
C_ C_ 0.330427 0.233745 0.0507031 -0.08735
C_ C_ 0.341736 0.25014 0.0786551 0.1947
N_ N_ 0.135545 0.163486 0.477177 -0.29468
N_ N_ 0.161608 0.20513 0.0809959 -0.17154
N_ N_ 0.11725 0.168109 0.225725 -0.17154
N_ N_ 0.13362 0.201866 0.332081 -0.29468
N_ N_ 0.374382 0.326983 0.227319 -0.29468
N_ N_ 0.346868 0.302941 0.333332 -0.17154
N_ N_ 0.386512 0.34283 0.481032 -0.17154
N_ N_ 0.370456 0.292237 0.0842549 -0.29468
O_ O_ 0.211607 0.18262 0.425675 -0.58347
O_ O_ 0.207535 0.182474 0.378353 -0.58347
O_ O_ 0.127791 0.252487 0.432786 -0.58347
O_ O_ 0.138831 0.2614 0.386947 -0.58347
O_ O_ 0.140688 0.101398 0.421951 -0.58347
O_ O_ 0.132904 0.107839 0.376065 -0.58347
O_ O_ 0.066058 0.172825 0.423755 -0.58347
O_ O_ 0.0583769 0.191837 0.37859 -0.58347
O_ O_ 0.0821203 0.239036 0.0767424 -0.46727
O_ O_ 0.244596 0.174824 0.0875778 -0.46727
O_ O_ 0.0349587 0.185654 0.219284 -0.46727
O_ O_ 0.203226 0.15791 0.232936 -0.46727
O_ O_ 0.295458 0.314958 0.180653 -0.58347
O_ O_ 0.302578 0.298233 0.134353 -0.58347
O_ O_ 0.361327 0.238257 0.182081 -0.58347
O_ O_ 0.389575 0.231272 0.138537 -0.58347
O_ O_ 0.364241 0.38555 0.173373 -0.58347
O_ O_ 0.375481 0.376027 0.127676 -0.58347
O_ O_ 0.445174 0.30496 0.178384 -0.58347
O_ O_ 0.455888 0.315104 0.132076 -0.58347
O_ O_ 0.431163 0.281152 0.326829 -0.46727
O_ O_ 0.267786 0.336242 0.338305 -0.46727
O_ O_ 0.474004 0.338566 0.475997 -0.46727
O_ O_ 0.304133 0.376301 0.483103 -0.46727
Zn Zn 0.123405 0.176133 0.883818 0.90689
Zn Zn 0.134808 0.174606 0.931299 0.90689
Zn Zn 0.368999 0.325005 0.633566 0.90689
Zn Zn 0.35991 0.328829 0.682693 0.90689
H_ H_ 0.304045 0.206704 0.942035 0.11455
H_ H_ 0.376771 0.163846 0.848865 0.11455
H_ H_ 0.280915 0.15911 0.855545 0.11455
H_ H_ 0.383227 0.169178 0.966624 0.11455
H_ H_ 0.475029 0.179318 0.962696 0.11455
H_ H_ 0.457089 0.161867 0.87103 0.11455
H_ H_ 0.16083 0.00830607 0.946045 0.11455
H_ H_ 0.120811 0.424014 0.8424 0.11455
H_ H_ 0.143399 0.0198031 0.854046 0.11455
H_ H_ 0.14344 0.426955 0.95786 0.11455
H_ H_ 0.141779 0.333241 0.957418 0.11455
H_ H_ 0.101721 0.333002 0.870403 0.11455
H_ H_ 0.086405 0.10314 0.971475 0.11455
H_ H_ 0.0869756 0.0668687 0.514901 0.11455
H_ H_ 0.111907 0.121057 0.554104 0.11455
H_ H_ 0.193932 0.247371 0.97298 0.11455
H_ H_ 0.20872 0.305622 0.510246 0.11455
H_ H_ 0.194043 0.283043 0.56075 0.11455
H_ H_ 0.0100559 0.180182 0.622858 0.11455
H_ H_ 0.00337125 0.173885 0.672345 0.11455
H_ H_ 0.265521 0.202029 0.641703 0.11455
H_ H_ 0.2565 0.186291 0.69268 0.11455
H_ H_ 0.0604148 0.0936875 0.745536 0.11455
H_ H_ 0.0418705 0.0640446 0.797148 0.11455
H_ H_ 0.0624877 0.119069 0.835844 0.11455
H_ H_ 0.153694 0.253908 0.761669 0.11455
H_ H_ 0.18907 0.289948 0.806084 0.11455
H_ H_ 0.18068 0.248394 0.85055 0.11455
H_ H_ 0.189606 0.33058 0.700168 0.11455
H_ H_ 0.126695 0.316318 0.600439 0.11455
H_ H_ 0.22035 0.317824 0.608958 0.11455
H_ H_ 0.104264 0.297365 0.717954 0.11455
H_ H_ 0.0140925 0.298124 0.708323 0.11455
H_ H_ 0.0427918 0.308287 0.619944 0.11455
H_ H_ 0.353932 0.497901 0.694961 0.11455
H_ H_ 0.373828 0.069691 0.591916 0.11455
H_ H_ 0.377875 0.48412 0.603369 0.11455
H_ H_ 0.377066 0.0745743 0.709592 0.11455
H_ H_ 0.38011 0.164738 0.709531 0.11455
H_ H_ 0.366675 0.159383 0.616404 0.11455
H_ H_ 0.417253 0.400483 0.718116 0.11455
H_ H_ 0.440515 0.424107 0.767418 0.11455
H_ H_ 0.401403 0.374547 0.807645 0.11455
H_ H_ 0.305517 0.261712 0.72565 0.11455
H_ H_ 0.274094 0.206781 0.764432 0.11455
H_ H_ 0.304125 0.217879 0.811841 0.11455
H_ H_ 0.491451 0.298735 0.873769 0.11455
H_ H_ 0.497893 0.305673 0.924307 0.11455
H_ H_ 0.240111 0.336865 0.889621 0.11455
H_ H_ 0.249116 0.342879 0.939003 0.11455
H_ H_ 0.42495 0.409277 -0.004909000000000052 0.11455
H_ H_ 0.442601 0.451682 0.551705 0.11455
H_ H_ 0.4148 0.390156 0.590499 0.11455
H_ H_ 0.337312 0.26571 0.508159 0.11455
H_ H_ 0.30185 0.217055 0.548979 0.11455
H_ H_ 0.315244 0.248488 0.597209 0.11455
C_ C_ 0.226776 0.175402 0.904466 0.68181
C_ C_ 0.282237 0.168762 0.901305 -0.05681
C_ C_ 0.313963 0.181127 0.925258 -0.08735
C_ C_ 0.367733 0.179965 0.921652 -0.05681
C_ C_ 0.389922 0.170618 0.895285 -0.05681
C_ C_ 0.358483 0.165112 0.870794 -0.08735
C_ C_ 0.305121 0.166606 0.873615 -0.08735
C_ C_ 0.399486 0.175625 0.945718 -0.08735
C_ C_ 0.451224 0.176717 0.943899 -0.08735
C_ C_ 0.474138 0.171545 0.916484 -0.05681
C_ C_ 0.443498 0.163328 0.892946 -0.08735
C_ C_ 0.126263 0.27265 0.913796 0.68181
C_ C_ 0.138038 0.0778222 0.902671 0.68181
C_ C_ 0.144252 0.0220504 0.900878 -0.05681
C_ C_ 0.126668 0.487799 0.91686 -0.08735
C_ C_ 0.127931 0.433694 0.914105 -0.05681
C_ C_ 0.119589 0.409541 0.88842 -0.05681
C_ C_ 0.11822 0.441154 0.86391 -0.08735
C_ C_ 0.11818 0.495577 0.865645 -0.08735
C_ C_ 0.137897 0.405379 0.938722 -0.08735
C_ C_ 0.140175 0.35337 0.938408 -0.08735
C_ C_ 0.127904 0.328052 0.913739 -0.05681
C_ C_ 0.117877 0.354862 0.887797 -0.08735
C_ C_ 0.0309023 0.161881 0.910719 0.68181
C_ C_ 0.104488 0.126373 0.987446 0.1947
C_ C_ 0.104184 0.104245 0.510779 -0.08735
C_ C_ 0.124776 0.13219 0.533257 -0.08735
C_ C_ 0.141869 0.180303 0.528699 -0.05681
C_ C_ 0.154525 0.19085 0.499373 0.18498
C_ C_ 0.181537 0.240678 0.994091 -0.08735
C_ C_ 0.189318 0.270761 0.516325 -0.08735
C_ C_ 0.18103 0.257902 0.545202 -0.08735
C_ C_ 0.160007 0.20962 0.552144 0.18498
C_ C_ 0.191723 0.192282 0.599724 0.44287
C_ C_ 0.105711 0.203005 0.594139 0.44287
C_ C_ 0.0949959 0.194469 0.622548 -0.05681
C_ C_ 0.0451749 0.18615 0.634593 -0.08735
C_ C_ 0.0394368 0.183174 0.66433 -0.08735
C_ C_ 0.0816508 0.18529 0.682653 -0.05681
C_ C_ 0.13008 0.186654 0.671438 -0.05681
C_ C_ 0.138059 0.188994 0.641409 -0.05681
C_ C_ 0.187532 0.185789 0.629719 -0.05681
C_ C_ 0.228684 0.186054 0.649209 -0.08735
C_ C_ 0.220377 0.18487 0.678826 -0.08735
C_ C_ 0.1725 0.176838 0.690079 -0.05681
C_ C_ 0.164183 0.172926 0.720372 0.44287
C_ C_ 0.076623 0.179984 0.713277 0.44287
C_ C_ 0.107186 0.157035 0.760795 0.18498
C_ C_ 0.073455 0.116864 0.764951 -0.08735
C_ C_ 0.0645118 0.0967281 0.792662 -0.08735
C_ C_ 0.0787593 0.126606 0.816002 -0.08735
C_ C_ 0.10592 0.170474 0.812496 0.18498
C_ C_ 0.120741 0.188477 0.784461 -0.05681
C_ C_ 0.147105 0.23504 0.781907 -0.08735
C_ C_ 0.16311 0.259393 0.806643 -0.08735
C_ C_ 0.155231 0.237236 0.833436 0.1947
C_ C_ 0.26612 0.318505 0.660945 0.68181
C_ C_ 0.213516 0.315887 0.655473 -0.05681
C_ C_ 0.17787 0.317366 0.678633 -0.08735
C_ C_ 0.12648 0.312683 0.673621 -0.05681
C_ C_ 0.108078 0.308976 0.645942 -0.05681
C_ C_ 0.142303 0.313177 0.62214 -0.08735
C_ C_ 0.194207 0.315014 0.627198 -0.08735
C_ C_ 0.0921749 0.310763 0.697627 -0.08735
C_ C_ 0.0406689 0.310177 0.691282 -0.08735
C_ C_ 0.020414 0.315826 0.663134 -0.05681
C_ C_ 0.055028 0.309502 0.641488 -0.08735
C_ C_ 0.3782 0.22749 0.660788 0.68181
C_ C_ 0.3577 0.427949 0.65262 0.68181
C_ C_ 0.366253 0.482975 0.649782 -0.05681
C_ C_ 0.364503 0.01248 0.666263 -0.08735
C_ C_ 0.370616 0.0646126 0.66479 -0.05681
C_ C_ 0.368811 0.0874997 0.637382 -0.05681
C_ C_ 0.369435 0.0557468 0.612816 -0.08735
C_ C_ 0.368397 0.505944 0.621952 -0.08735
C_ C_ 0.377998 0.0921667 0.688861 -0.08735
C_ C_ 0.380547 0.147305 0.688326 -0.08735
C_ C_ 0.377323 0.172044 0.661695 -0.05681
C_ C_ 0.371751 0.141558 0.636087 -0.08735
C_ C_ 0.462834 0.335778 0.655926 0.68181
C_ C_ 0.402067 0.377151 0.734753 0.1947
C_ C_ 0.414096 0.390717 0.763281 -0.08735
C_ C_ 0.396137 0.361715 0.786254 -0.08735
C_ C_ 0.365059 0.319231 0.780319 -0.05681
C_ C_ 0.352773 0.308974 0.751131 0.18498
C_ C_ 0.324523 0.265939 0.745792 -0.08735
C_ C_ 0.305641 0.234878 0.76796 -0.08735
C_ C_ 0.315906 0.247504 0.796121 -0.08735
C_ C_ 0.344082 0.292394 0.803117 0.18498
C_ C_ 0.313213 0.323399 0.850076 0.44287
C_ C_ 0.396644 0.290397 0.845522 0.44287
C_ C_ 0.406459 0.301308 0.875004 -0.05681
C_ C_ 0.456405 0.303048 0.886833 -0.08735
C_ C_ 0.462791 0.308712 0.916273 -0.08735
C_ C_ 0.421599 0.313008 0.933768 -0.05681
C_ C_ 0.371837 0.312582 0.921657 -0.05681
C_ C_ 0.365688 0.315023 0.892256 -0.05681
C_ C_ 0.317441 0.322736 0.880082 -0.05681
C_ C_ 0.274524 0.321435 0.897778 -0.08735
C_ C_ 0.281691 0.327367 0.926977 -0.08735
C_ C_ 0.330805 0.322842 0.939483 -0.05681
C_ C_ 0.338943 0.331894 0.968573 0.44287
C_ C_ 0.424387 0.307462 0.9634 0.44287
C_ C_ 0.392827 0.353944 0.512234 0.18498
C_ C_ 0.410338 0.402964 0.518807 -0.08735
C_ C_ 0.421671 0.415701 0.54775 -0.08735
C_ C_ 0.408148 0.382598 0.569086 -0.08735
C_ C_ 0.385935 0.33428 0.563188 0.18498
C_ C_ 0.381106 0.318912 0.534328 -0.05681
C_ C_ 0.347403 0.277136 0.529146 -0.08735
C_ C_ 0.329782 0.248197 0.552229 -0.08735
C_ C_ 0.333262 0.267514 0.58016 0.1947
N_ N_ 0.134979 0.16727 0.980384 -0.29468
N_ N_ 0.151386 0.196062 0.581895 -0.17154
N_ N_ 0.116765 0.17473 0.73091 -0.17154
N_ N_ 0.124834 0.195308 0.835944 -0.29468
N_ N_ 0.370895 0.338474 0.73009 -0.29468
N_ N_ 0.351874 0.304349 0.833297 -0.17154
N_ N_ 0.385667 0.323475 0.980142 -0.17154
N_ N_ 0.361038 0.309697 0.585466 -0.29468
O_ O_ 0.20883 0.186483 0.928656 -0.58347
O_ O_ 0.199016 0.170246 0.882325 -0.58347
O_ O_ 0.122974 0.248233 0.936992 -0.58347
O_ O_ 0.126512 0.248415 0.8901 -0.58347
O_ O_ 0.148122 0.10157 0.926401 -0.58347
O_ O_ 0.123739 0.103036 0.880017 -0.58347
O_ O_ 0.0605451 0.15841 0.932363 -0.58347
O_ O_ 0.0472599 0.172038 0.887453 -0.58347
O_ O_ 0.0671843 0.217492 0.578715 -0.46727
O_ O_ 0.236938 0.18331 0.586958 -0.46727
O_ O_ 0.030522 0.175418 0.723707 -0.46727
O_ O_ 0.203456 0.163475 0.737959 -0.46727
O_ O_ 0.281392 0.325015 0.686117 -0.58347
O_ O_ 0.295604 0.311359 0.640433 -0.58347
O_ O_ 0.367183 0.249921 0.683758 -0.58347
O_ O_ 0.38202 0.250994 0.636973 -0.58347
O_ O_ 0.356267 0.406392 0.67764 -0.58347
O_ O_ 0.356489 0.400538 0.630397 -0.58347
O_ O_ 0.433845 0.334606 0.678009 -0.58347
O_ O_ 0.443854 0.336 0.631366 -0.58347
O_ O_ 0.433109 0.274357 0.829529 -0.46727
O_ O_ 0.271081 0.336921 0.838123 -0.46727
O_ O_ 0.471546 0.304098 0.975339 -0.46727
O_ O_ 0.301726 0.350261 0.984559 -0.46727
Zn Zn 0.120382 0.684594 0.381913 0.90689
Zn Zn 0.13482 0.676091 0.428508 0.90689
Zn Zn 0.377252 0.805316 0.127771 0.90689
Zn Zn 0.363831 0.80808 0.176619 0.90689
H_ H_ 0.299026 0.715475 0.44012 0.11455
H_ H_ 0.370344 0.664729 0.346772 0.11455
H_ H_ 0.279057 0.677347 0.352513 0.11455
H_ H_ 0.382993 0.705916 0.462179 0.11455
H_ H_ 0.476211 0.692226 0.458338 0.11455
H_ H_ 0.459677 0.673934 0.367836 0.11455
H_ H_ 0.143977 0.513039 0.445087 0.11455
H_ H_ 0.161497 0.931176 0.34896 0.11455
H_ H_ 0.137465 0.524266 0.352725 0.11455
H_ H_ 0.114349 0.926777 0.463733 0.11455
H_ H_ 0.101604 0.835468 0.456003 0.11455
H_ H_ 0.149242 0.849466 0.368934 0.11455
H_ H_ 0.0815039 0.608388 0.470232 0.11455
H_ H_ 0.0537241 0.575005 0.0115331 0.11455
H_ H_ 0.0927648 0.615668 0.0540179 0.11455
H_ H_ 0.193157 0.750976 0.47208 0.11455
H_ H_ 0.211373 0.795067 0.013193 0.11455
H_ H_ 0.184117 0.772372 0.064228 0.11455
H_ H_ 0.0048556 0.702885 0.125692 0.11455
H_ H_ -0.00607599999999997 0.698786 0.177548 0.11455
H_ H_ 0.24707 0.635901 0.132255 0.11455
H_ H_ 0.238878 0.625335 0.184736 0.11455
H_ H_ 0.0459354 0.591256 0.250432 0.11455
H_ H_ 0.0311827 0.566104 0.29727 0.11455
H_ H_ 0.065615 0.618089 0.337404 0.11455
H_ H_ 0.155544 0.737921 0.254699 0.11455
H_ H_ 0.18591 0.78796 0.298472 0.11455
H_ H_ 0.189164 0.748655 0.346426 0.11455
H_ H_ 0.197023 0.808057 0.193803 0.11455
H_ H_ 0.125653 0.823717 0.0974094 0.11455
H_ H_ 0.212214 0.821899 0.103284 0.11455
H_ H_ 0.110352 0.806421 0.21598 0.11455
H_ H_ 0.0179585 0.807705 0.210388 0.11455
H_ H_ 0.0393013 0.838311 0.119514 0.11455
H_ H_ 0.353321 0.976731 0.189859 0.11455
H_ H_ 0.30828 0.551382 0.106555 0.11455
H_ H_ 0.37446 0.972142 0.0987444 0.11455
H_ H_ 0.422 0.563365 0.205993 0.11455
H_ H_ 0.4129 0.653447 0.202345 0.11455
H_ H_ 0.344191 0.63535 0.119428 0.11455
H_ H_ 0.407364 0.885951 0.210485 0.11455
H_ H_ 0.419169 0.917794 0.258362 0.11455
H_ H_ 0.369307 0.878305 0.29734 0.11455
H_ H_ 0.317557 0.735084 0.22229 0.11455
H_ H_ 0.275725 0.691641 0.257522 0.11455
H_ H_ 0.300337 0.710684 0.307402 0.11455
H_ H_ 0.478551 0.795171 0.369956 0.11455
H_ H_ 0.485299 0.802688 0.420591 0.11455
H_ H_ 0.225747 0.821457 0.38349 0.11455
H_ H_ 0.237337 0.848888 0.433838 0.11455
H_ H_ 0.398029 0.931491 0.493926 0.11455
H_ H_ 0.461566 0.930645 0.0436094 0.11455
H_ H_ 0.435671 0.873602 0.0838839 0.11455
H_ H_ 0.359256 0.744719 0.00323753 0.11455
H_ H_ 0.302211 0.711042 0.0435196 0.11455
H_ H_ 0.314426 0.74292 0.0906462 0.11455
C_ C_ 0.227061 0.690258 0.402123 0.68181
C_ C_ 0.281985 0.691392 0.397249 -0.05681
C_ C_ 0.314395 0.699574 0.420523 -0.08735
C_ C_ 0.368266 0.694488 0.417782 -0.05681
C_ C_ 0.390728 0.684981 0.390625 -0.05681
C_ C_ 0.356987 0.680664 0.366799 -0.08735
C_ C_ 0.303787 0.686543 0.369825 -0.08735
C_ C_ 0.399326 0.698456 0.441456 -0.08735
C_ C_ 0.452776 0.693016 0.439043 -0.08735
C_ C_ 0.474485 0.688135 0.411666 -0.05681
C_ C_ 0.443688 0.680316 0.388617 -0.08735
C_ C_ 0.121833 0.778523 0.409755 0.68181
C_ C_ 0.136941 0.583187 0.401108 0.68181
C_ C_ 0.136328 0.52663 0.39924 -0.05681
C_ C_ 0.138403 0.9956 0.421544 -0.08735
C_ C_ 0.131983 0.941527 0.419451 -0.05681
C_ C_ 0.13723 0.919512 0.392092 -0.05681
C_ C_ 0.147338 0.949919 0.368092 -0.08735
C_ C_ 0.15515 1.00116518 0.370943 -0.08735
C_ C_ 0.118949 0.910906 0.442875 -0.08735
C_ C_ 0.113054 0.859336 0.438114 -0.08735
C_ C_ 0.123081 0.836248 0.412303 -0.05681
C_ C_ 0.133656 0.86598 0.388164 -0.08735
C_ C_ 0.0292615 0.669361 0.407695 0.68181
C_ C_ 0.0974951 0.630225 0.486401 0.1947
C_ C_ 0.0799654 0.607949 0.00950953 -0.08735
C_ C_ 0.101102 0.630956 0.0334518 -0.08735
C_ C_ 0.132259 0.672248 0.0294434 -0.05681
C_ C_ 0.142809 0.686576 1.0009 0.18498
C_ C_ 0.188983 0.737289 0.493694 -0.08735
C_ C_ 0.186655 0.763156 0.0177276 -0.08735
C_ C_ 0.172538 0.74952 0.0467389 -0.08735
C_ C_ 0.14771 0.703044 0.0522063 0.18498
C_ C_ 0.175383 0.668879 0.096708 0.44287
C_ C_ 0.0930449 0.702073 0.0951689 0.44287
C_ C_ 0.0872225 0.694327 0.125069 -0.05681
C_ C_ 0.0379085 0.69468 0.138508 -0.08735
C_ C_ 0.0309925 0.69097 0.167829 -0.08735
C_ C_ 0.0729946 0.679427 0.185702 -0.05681
C_ C_ 0.121329 0.670026 0.172513 -0.05681
C_ C_ 0.127525 0.677768 0.141442 -0.05681
C_ C_ 0.171235 0.661904 0.126107 -0.05681
C_ C_ 0.211745 0.645998 0.143592 -0.08735
C_ C_ 0.206066 0.636918 0.173673 -0.08735
C_ C_ 0.162038 0.652765 0.188803 -0.05681
C_ C_ 0.155632 0.650828 0.219154 0.44287
C_ C_ 0.0719259 0.681942 0.215103 0.44287
C_ C_ 0.0995649 0.652411 0.260214 0.18498
C_ C_ 0.0664154 0.611267 0.266152 -0.08735
C_ C_ 0.0559467 0.599237 0.293834 -0.08735
C_ C_ 0.0776139 0.627754 0.316123 -0.08735
C_ C_ 0.106887 0.670818 0.312402 0.18498
C_ C_ 0.115687 0.685993 0.283717 -0.05681
C_ C_ 0.143821 0.728883 0.278288 -0.08735
C_ C_ 0.170104 0.751536 0.300831 -0.08735
C_ C_ 0.165383 0.731409 0.328431 0.1947
C_ C_ 0.268338 0.804411 0.152009 0.68181
C_ C_ 0.212432 0.807872 0.149098 -0.05681
C_ C_ 0.179569 0.804295 0.173837 -0.08735
C_ C_ 0.125328 0.812226 0.171305 -0.05681
C_ C_ 0.105597 0.818997 0.142491 -0.05681
C_ C_ 0.13712 0.819266 0.118663 -0.08735
C_ C_ 0.190489 0.814641 0.122701 -0.08735
C_ C_ 0.0948838 0.809201 0.193999 -0.08735
C_ C_ 0.0418316 0.809909 0.189849 -0.08735
C_ C_ 0.0191956 0.82019 0.162344 -0.05681
C_ C_ 0.0529159 0.822387 0.139389 -0.08735
C_ C_ 0.371388 0.706991 0.15881 0.68181
C_ C_ 0.36473 0.908795 0.144933 0.68181
C_ C_ 0.370255 0.966204 0.144863 -0.05681
C_ C_ 0.385501 0.493478 0.169354 -0.08735
C_ C_ 0.384775 0.546158 0.165942 -0.05681
C_ C_ 0.355901 0.566718 0.143263 -0.05681
C_ C_ 0.331689 0.535168 0.122378 -0.08735
C_ C_ 0.377054 -0.007677999999999963 0.118558 -0.08735
C_ C_ 0.403338 0.578361 0.187545 -0.08735
C_ C_ 0.398711 0.630282 0.185396 -0.08735
C_ C_ 0.379333 0.651557 0.160229 -0.05681
C_ C_ 0.357088 0.619904 0.140238 -0.08735
C_ C_ 0.468207 0.81179 0.153969 0.68181
C_ C_ 0.396361 0.862369 0.228328 0.1947
C_ C_ 0.40345 0.881918 0.254856 -0.08735
C_ C_ 0.379752 0.858667 0.278613 -0.08735
C_ C_ 0.356412 0.810061 0.275084 -0.05681
C_ C_ 0.346682 0.79532 0.246666 0.18498
C_ C_ 0.318761 0.750763 0.241305 -0.08735
C_ C_ 0.295084 0.727093 0.262871 -0.08735
C_ C_ 0.310947 0.737217 0.292147 -0.08735
C_ C_ 0.335767 0.782207 0.299102 0.18498
C_ C_ 0.300279 0.81601 0.344795 0.44287
C_ C_ 0.389528 0.798259 0.339962 0.44287
C_ C_ 0.396272 0.808827 0.369744 -0.05681
C_ C_ 0.444255 0.803358 0.382102 -0.08735
C_ C_ 0.449909 0.814068 0.411312 -0.08735
C_ C_ 0.409776 0.82413 0.429636 -0.05681
C_ C_ 0.361366 0.828511 0.416718 -0.05681
C_ C_ 0.354636 0.823444 0.3864 -0.05681
C_ C_ 0.306212 0.824471 0.373982 -0.05681
C_ C_ 0.263297 0.828369 0.39146 -0.08735
C_ C_ 0.270545 0.839676 0.420632 -0.08735
C_ C_ 0.319027 0.836241 0.433817 -0.05681
C_ C_ 0.3249 0.84466 0.463443 0.44287
C_ C_ 0.414628 0.829387 0.459578 0.44287
C_ C_ 0.40208 0.836222 0.00573395 0.18498
C_ C_ 0.42902 0.882039 0.0111347 -0.08735
C_ C_ 0.439975 0.895119 0.0392093 -0.08735
C_ C_ 0.424414 0.864194 0.0627038 -0.08735
C_ C_ 0.396767 0.820678 0.0583886 0.18498
C_ C_ 0.388838 0.803481 0.0296196 -0.05681
C_ C_ 0.359412 0.759843 0.024451 -0.08735
C_ C_ 0.330768 0.740509 0.0462955 -0.08735
C_ C_ 0.33667 0.758606 0.0747267 0.1947
N_ N_ 0.131116 0.668026 0.478779 -0.29468
N_ N_ 0.137338 0.689881 0.0818887 -0.17154
N_ N_ 0.110427 0.665432 0.231527 -0.17154
N_ N_ 0.128974 0.695942 0.334689 -0.29468
N_ N_ 0.36814 0.820736 0.223727 -0.29468
N_ N_ 0.340755 0.796361 0.329255 -0.17154
N_ N_ 0.373422 0.841025 0.475487 -0.17154
N_ N_ 0.371573 0.794606 0.0796789 -0.29468
O_ O_ 0.210569 0.681448 0.42705 -0.58347
O_ O_ 0.196768 0.685619 0.381598 -0.58347
O_ O_ 0.125771 0.750329 0.431192 -0.58347
O_ O_ 0.123289 0.760494 0.385681 -0.58347
O_ O_ 0.143348 0.604572 0.425086 -0.58347
O_ O_ 0.124045 0.610795 0.379959 -0.58347
O_ O_ 0.0606186 0.667351 0.427938 -0.58347
O_ O_ 0.0433272 0.681505 0.382859 -0.58347
O_ O_ 0.0546112 0.716924 0.0789081 -0.46727
O_ O_ 0.220602 0.665579 0.0853046 -0.46727
O_ O_ 0.0315515 0.698969 0.226616 -0.46727
O_ O_ 0.191994 0.629026 0.235423 -0.46727
O_ O_ 0.287749 0.801217 0.1767 -0.58347
O_ O_ 0.297214 0.805095 0.129744 -0.58347
O_ O_ 0.375858 0.733796 0.181442 -0.58347
O_ O_ 0.36868 0.729121 0.134831 -0.58347
O_ O_ 0.352415 0.884849 0.16733 -0.58347
O_ O_ 0.37728 0.882298 0.122986 -0.58347
O_ O_ 0.436767 0.820917 0.173945 -0.58347
O_ O_ 0.453464 0.802858 0.128271 -0.58347
O_ O_ 0.422296 0.770173 0.327122 -0.46727
O_ O_ 0.256637 0.822032 0.332817 -0.46727
O_ O_ 0.455975 0.814327 0.472377 -0.46727
O_ O_ 0.288222 0.862506 0.477852 -0.46727
Zn Zn 0.121109 0.678795 0.880397 0.90689
Zn Zn 0.131023 0.669586 0.928333 0.90689
Zn Zn 0.366419 0.822939 0.629244 0.90689
Zn Zn 0.356401 0.83007 0.677497 0.90689
H_ H_ 0.297317 0.681745 0.946212 0.11455
H_ H_ 0.371266 0.664342 0.848639 0.11455
H_ H_ 0.279697 0.66143 0.854424 0.11455
H_ H_ 0.383376 0.679118 0.96672 0.11455
H_ H_ 0.474472 0.679972 0.960233 0.11455
H_ H_ 0.454612 0.670898 0.869419 0.11455
H_ H_ 0.135122 0.504744 0.937983 0.11455
H_ H_ 0.145588 0.928239 0.85052 0.11455
H_ H_ 0.113534 0.51689 0.845764 0.11455
H_ H_ 0.150261 0.916627 0.968985 0.11455
H_ H_ 0.139128 0.830016 0.961213 0.11455
H_ H_ 0.136536 0.845722 0.871314 0.11455
H_ H_ 0.0813151 0.600596 0.964239 0.11455
H_ H_ 0.0593825 0.589023 0.519824 0.11455
H_ H_ 0.100991 0.635274 0.558659 0.11455
H_ H_ 0.189924 0.734097 0.975413 0.11455
H_ H_ 0.228957 0.802524 0.509424 0.11455
H_ H_ 0.212986 0.784986 0.56005 0.11455
H_ H_ 1.022366 0.725806 0.618081 0.11455
H_ H_ 1.00618801 0.702013 0.66804 0.11455
H_ H_ 0.266798 0.664641 0.635484 0.11455
H_ H_ 0.255014 0.648591 0.686453 0.11455
H_ H_ 0.0731737 0.590554 0.741224 0.11455
H_ H_ 0.0451938 0.558459 0.788866 0.11455
H_ H_ 0.0673919 0.608696 0.831999 0.11455
H_ H_ 0.163314 0.746202 0.75731 0.11455
H_ H_ 0.211145 0.774656 0.801148 0.11455
H_ H_ 0.190956 0.739717 0.848104 0.11455
H_ H_ 0.191632 0.817062 0.697566 0.11455
H_ H_ 0.118008 0.83034 0.600091 0.11455
H_ H_ 0.207188 0.829012 0.60452 0.11455
H_ H_ 0.102082 0.840643 0.716294 0.11455
H_ H_ 0.0127146 0.843241 0.710266 0.11455
H_ H_ 0.0296377 0.829536 0.620417 0.11455
H_ H_ 0.364471 0.993371 0.687039 0.11455
H_ H_ 0.382314 0.574616 0.599109 0.11455
H_ H_ 0.366678 0.979583 0.595146 0.11455
H_ H_ 0.349406 0.583206 0.716399 0.11455
H_ H_ 0.353932 0.675349 0.711301 0.11455
H_ H_ 0.388079 0.659981 0.619427 0.11455
H_ H_ 0.4015 0.906459 0.713369 0.11455
H_ H_ 0.415505 0.936178 0.762528 0.11455
H_ H_ 0.388886 0.882231 0.803334 0.11455
H_ H_ 0.294082 0.766437 0.721106 0.11455
H_ H_ 0.277197 0.701892 0.760323 0.11455
H_ H_ 0.313548 0.716471 0.806497 0.11455
H_ H_ 0.490756 0.783868 0.867344 0.11455
H_ H_ 0.507799 0.805295 0.919513 0.11455
H_ H_ 0.240539 0.819507 0.883434 0.11455
H_ H_ 0.252383 0.807885 0.937762 0.11455
H_ H_ 0.44617 0.902204 0.993541 0.11455
H_ H_ 0.419542 0.957273 0.542944 0.11455
H_ H_ 0.415317 0.899843 0.583612 0.11455
H_ H_ 0.345202 0.756173 0.506036 0.11455
H_ H_ 0.305219 0.711898 0.548181 0.11455
H_ H_ 0.32756 0.744878 0.594707 0.11455
C_ C_ 0.22631 0.671943 0.903962 0.68181
C_ C_ 0.281839 0.671759 0.900463 -0.05681
C_ C_ 0.313159 0.671024 0.925463 -0.08735
C_ C_ 0.366947 0.668443 0.922565 -0.05681
C_ C_ 0.387366 0.662472 0.895068 -0.05681
C_ C_ 0.355734 0.664782 0.870268 -0.08735
C_ C_ 0.304075 0.669556 0.874052 -0.08735
C_ C_ 0.398807 0.675532 0.944707 -0.08735
C_ C_ 0.451866 0.680603 0.941039 -0.08735
C_ C_ 0.473938 0.677895 0.914114 -0.05681
C_ C_ 0.440121 0.669303 0.890714 -0.08735
C_ C_ 0.126703 0.775245 0.912685 0.68181
C_ C_ 0.125959 0.574233 0.897095 0.68181
C_ C_ 0.121234 0.518961 0.892488 -0.05681
C_ C_ 0.153964 0.991536 0.925291 -0.08735
C_ C_ 0.151682 0.938424 0.923371 -0.05681
C_ C_ 0.148653 0.915349 0.895464 -0.05681
C_ C_ 0.146226 0.946267 0.871683 -0.08735
C_ C_ 0.142251 -0.0006939999999999724 0.874173 -0.08735
C_ C_ 0.149141 0.905534 0.947088 -0.08735
C_ C_ 0.141444 0.853432 0.943139 -0.08735
C_ C_ 0.139479 0.829744 0.917192 -0.05681
C_ C_ 0.146581 0.862297 0.892205 -0.08735
C_ C_ 0.0281892 0.675773 0.905103 0.68181
C_ C_ 0.0920323 0.622116 0.981369 0.1947
C_ C_ 0.0862365 0.620005 0.514647 -0.08735
C_ C_ 0.107866 0.647482 0.53606 -0.08735
C_ C_ 0.140794 0.687459 0.529547 -0.05681
C_ C_ 0.151638 0.699754 0.49973 0.18498
C_ C_ 0.175526 0.728888 0.996399 -0.08735
C_ C_ 0.209044 0.769566 0.515081 -0.08735
C_ C_ 0.196456 0.760009 0.543906 -0.08735
C_ C_ 0.165428 0.717454 0.551266 0.18498
C_ C_ 0.199047 0.696618 0.598548 0.44287
C_ C_ 0.111074 0.715923 0.592531 0.44287
C_ C_ 0.102003 0.7028 0.62079 -0.05681
C_ C_ 0.0519813 0.709595 0.632404 -0.08735
C_ C_ 0.0455973 0.703689 0.661978 -0.08735
C_ C_ 0.0884118 0.695903 0.680116 -0.05681
C_ C_ 0.13503 0.681185 0.668351 -0.05681
C_ C_ 0.141477 0.687136 0.638479 -0.05681
C_ C_ 0.19131 0.685167 0.627359 -0.05681
C_ C_ 0.231452 0.675312 0.644673 -0.08735
C_ C_ 0.226268 0.669886 0.673508 -0.08735
C_ C_ 0.177144 0.675386 0.686213 -0.05681
C_ C_ 0.16909 0.669814 0.716727 0.44287
C_ C_ 0.0821501 0.687801 0.71087 0.44287
C_ C_ 0.110076 0.656069 0.756475 0.18498
C_ C_ 0.0868399 0.606598 0.760092 -0.08735
C_ C_ 0.0691415 0.59119 0.787336 -0.08735
C_ C_ 0.0811409 0.619784 0.811493 -0.08735
C_ C_ 0.112266 0.6653 0.809129 0.18498
C_ C_ 0.126992 0.682595 0.781361 -0.05681
C_ C_ 0.152357 0.730652 0.778355 -0.08735
C_ C_ 0.180621 0.74745 0.802246 -0.08735
C_ C_ 0.166433 0.729557 0.829402 0.1947
C_ C_ 0.262759 0.822448 0.655798 0.68181
C_ C_ 0.20637 0.827872 0.651368 -0.05681
C_ C_ 0.174418 0.821687 0.675787 -0.08735
C_ C_ 0.120147 0.819853 0.672781 -0.05681
C_ C_ 0.0989859 0.823637 0.645048 -0.05681
C_ C_ 0.132068 0.829494 0.621883 -0.08735
C_ C_ 0.185226 0.828751 0.624374 -0.08735
C_ C_ 0.0871969 0.827603 0.696635 -0.08735
C_ C_ 0.0350779 0.835479 0.692414 -0.08735
C_ C_ 0.0120557 0.827391 0.664315 -0.05681
C_ C_ 0.0461689 0.827563 0.640642 -0.08735
C_ C_ 0.378961 0.72987 0.662068 0.68181
C_ C_ 0.350423 0.924188 0.645501 0.68181
C_ C_ 0.35986 0.980603 0.641812 -0.05681
C_ C_ 0.362784 0.515408 0.673981 -0.08735
C_ C_ 0.360876 0.569738 0.671225 -0.05681
C_ C_ 0.373207 0.590973 0.643667 -0.05681
C_ C_ 0.37563 0.557557 0.619661 -0.08735
C_ C_ 0.365787 1.00241436 0.614536 -0.08735
C_ C_ 0.361277 0.59876 0.695232 -0.08735
C_ C_ 0.362443 0.652381 0.692859 -0.08735
C_ C_ 0.374139 0.67409 0.665417 -0.05681
C_ C_ 0.381246 0.643224 0.640836 -0.08735
C_ C_ 0.459345 0.838625 0.654706 0.68181
C_ C_ 0.386322 0.885079 0.730651 0.1947
C_ C_ 0.395313 0.901638 0.758707 -0.08735
C_ C_ 0.382514 0.870832 0.781181 -0.08735
C_ C_ 0.359338 0.823906 0.775322 -0.05681
C_ C_ 0.341794 0.813853 0.746845 0.18498
C_ C_ 0.308665 0.773699 0.741859 -0.08735
C_ C_ 0.297047 0.738887 0.763753 -0.08735
C_ C_ 0.317867 0.747179 0.791176 -0.08735
C_ C_ 0.345829 0.790714 0.798183 0.18498
C_ C_ 0.316573 0.816659 0.84568 0.44287
C_ C_ 0.402258 0.792034 0.839854 0.44287
C_ C_ 0.411238 0.800589 0.868967 -0.05681
C_ C_ 0.459558 0.795539 0.881112 -0.08735
C_ C_ 0.467338 0.801516 0.910824 -0.08735
C_ C_ 0.423626 0.804937 0.929599 -0.05681
C_ C_ 0.374706 0.811433 0.917819 -0.05681
C_ C_ 0.369566 0.811237 0.886913 -0.05681
C_ C_ 0.321288 0.813877 0.875704 -0.05681
C_ C_ 0.278467 0.815166 0.893902 -0.08735
C_ C_ 0.284291 0.818714 0.924005 -0.08735
C_ C_ 0.333255 0.820569 0.936164 -0.05681
C_ C_ 0.344047 0.829439 0.964894 0.44287
C_ C_ 0.430434 0.808135 0.958149 0.44287
C_ C_ 0.378506 0.856019 0.505687 0.18498
C_ C_ 0.393826 0.905754 0.511789 -0.08735
C_ C_ 0.409062 0.920344 0.538636 -0.08735
C_ C_ 0.40486 0.886435 0.561325 -0.08735
C_ C_ 0.379674 0.839183 0.557516 0.18498
C_ C_ 0.369696 0.821991 0.528991 -0.05681
C_ C_ 0.341167 0.776193 0.525917 -0.08735
C_ C_ 0.32634 0.748073 0.549542 -0.08735
C_ C_ 0.33807 0.767233 0.576648 0.1947
N_ N_ 0.125478 0.659118 0.977191 -0.29468
N_ N_ 0.158426 0.708073 0.581204 -0.17154
N_ N_ 0.121101 0.674326 0.728345 -0.17154
N_ N_ 0.131347 0.691111 0.832818 -0.29468
N_ N_ 0.360989 0.841692 0.725032 -0.29468
N_ N_ 0.356441 0.802878 0.828116 -0.17154
N_ N_ 0.391252 0.823338 0.97635 -0.17154
N_ N_ 0.361128 0.812272 0.58016 -0.29468
O_ O_ 0.204976 0.675845 0.928337 -0.58347
O_ O_ 0.200783 0.676031 0.881174 -0.58347
O_ O_ 0.129172 0.745386 0.934043 -0.58347
O_ O_ 0.122208 0.758462 0.887084 -0.58347
O_ O_ 0.13163 0.592973 0.921777 -0.58347
O_ O_ 0.120302 0.603072 0.876263 -0.58347
O_ O_ 0.0553797 0.667051 0.926847 -0.58347
O_ O_ 0.0468767 0.681788 0.880789 -0.58347
O_ O_ 0.0758309 0.7388 0.57617 -0.46727
O_ O_ 0.244691 0.696676 0.58883 -0.46727
O_ O_ 0.03604 0.693113 0.722369 -0.46727
O_ O_ 0.205534 0.655203 0.732389 -0.46727
O_ O_ 0.28216 0.821077 0.6806 -0.58347
O_ O_ 0.290358 0.820487 0.633039 -0.58347
O_ O_ 0.368702 0.757293 0.682986 -0.58347
O_ O_ 0.377278 0.750446 0.637534 -0.58347
O_ O_ 0.347664 0.904377 0.669403 -0.58347
O_ O_ 0.354554 0.897545 0.624473 -0.58347
O_ O_ 0.429766 0.837638 0.675959 -0.58347
O_ O_ 0.441053 0.828502 0.630517 -0.58347
O_ O_ 0.439549 0.777074 0.82297 -0.46727
O_ O_ 0.272655 0.825482 0.833938 -0.46727
O_ O_ 0.476216 0.80614 0.96833 -0.46727
O_ O_ 0.304301 0.835365 0.983395 -0.46727
Zn Zn 0.632881 0.190592 0.38571 0.90689
Zn Zn 0.640195 0.178162 0.43385 0.90689
Zn Zn 0.884459 0.314538 0.134904 0.90689
Zn Zn 0.869824 0.317067 0.180351 0.90689
H_ H_ 0.812306 0.189796 0.440535 0.11455
H_ H_ 0.876828 0.149862 0.344296 0.11455
H_ H_ 0.783105 0.145102 0.354525 0.11455
H_ H_ 0.897279 0.19064 0.459876 0.11455
H_ H_ 0.988081 0.201355 0.450423 0.11455
H_ H_ 0.961903 0.183474 0.362003 0.11455
H_ H_ 0.615582 0.0162874 0.443937 0.11455
H_ H_ 0.666432 0.432539 0.352786 0.11455
H_ H_ 0.666931 0.029364 0.357132 0.11455
H_ H_ 0.621613 0.435048 0.469614 0.11455
H_ H_ 0.610795 0.342417 0.463127 0.11455
H_ H_ 0.640674 0.352631 0.373704 0.11455
H_ H_ 0.592966 0.105776 0.471118 0.11455
H_ H_ 0.571581 0.0855079 0.023167 0.11455
H_ H_ 0.618977 0.128464 0.0606078 0.11455
H_ H_ 0.708149 0.237268 0.47865 0.11455
H_ H_ 0.712914 0.310478 0.00878673 0.11455
H_ H_ 0.697526 0.292165 0.0599276 0.11455
H_ H_ 0.518674 0.208965 0.122635 0.11455
H_ H_ 0.506125 0.195026 0.176109 0.11455
H_ H_ 0.762827 0.161007 0.138461 0.11455
H_ H_ 0.757193 0.154597 0.192376 0.11455
H_ H_ 0.562773 0.0923836 0.252694 0.11455
H_ H_ 0.55532 0.064693 0.304262 0.11455
H_ H_ 0.579473 0.123438 0.341675 0.11455
H_ H_ 0.673415 0.240014 0.260543 0.11455
H_ H_ 0.700923 0.294428 0.29667 0.11455
H_ H_ 0.688468 0.265617 0.34614 0.11455
H_ H_ 0.705408 0.323635 0.197084 0.11455
H_ H_ 0.637123 0.320818 0.0979007 0.11455
H_ H_ 0.730963 0.3079 0.105692 0.11455
H_ H_ 0.618237 0.325988 0.215981 0.11455
H_ H_ 0.529922 0.30746 0.207146 0.11455
H_ H_ 0.550123 0.328959 0.116768 0.11455
H_ H_ 0.879254 0.479834 0.191994 0.11455
H_ H_ 0.896471 0.0642307 0.0996413 0.11455
H_ H_ 0.892073 0.467932 0.100431 0.11455
H_ H_ 0.854482 0.0688648 0.213986 0.11455
H_ H_ 0.8792 0.15938 0.214698 0.11455
H_ H_ 0.890862 0.149159 0.119864 0.11455
H_ H_ 0.934655 0.374393 0.214701 0.11455
H_ H_ 0.960347 0.403635 0.26279 0.11455
H_ H_ 0.914451 0.366219 0.304749 0.11455
H_ H_ 0.80946 0.252361 0.222524 0.11455
H_ H_ 0.77334 0.202851 0.263156 0.11455
H_ H_ 0.795572 0.222066 0.312833 0.11455
H_ H_ 0.989322 0.302499 0.374643 0.11455
H_ H_ 0.000649993 0.297581 0.424054 0.11455
H_ H_ 0.741261 0.326043 0.389992 0.11455
H_ H_ 0.749996 0.341892 0.440149 0.11455
H_ H_ 0.95705 0.393904 0.502231 0.11455
H_ H_ 0.973443 0.427637 0.0493913 0.11455
H_ H_ 0.943441 0.377562 0.0879512 0.11455
H_ H_ 0.852557 0.257327 0.007711 0.11455
H_ H_ 0.809322 0.218337 0.0527364 0.11455
H_ H_ 0.833989 0.23956 0.0985231 0.11455
C_ C_ 0.736472 0.182679 0.403225 0.68181
C_ C_ 0.790017 0.170595 0.397939 -0.05681
C_ C_ 0.825057 0.177339 0.419761 -0.08735
C_ C_ 0.875542 0.178908 0.415648 -0.05681
C_ C_ 0.894386 0.17554 0.387839 -0.05681
C_ C_ 0.861217 0.16288 0.365264 -0.08735
C_ C_ 0.809309 0.156811 0.370666 -0.08735
C_ C_ 0.90896 0.193148 0.438886 -0.08735
C_ C_ 0.962551 0.19218 0.433761 -0.08735
C_ C_ 0.982406 0.184707 0.406226 -0.05681
C_ C_ 0.948129 0.177157 0.382991 -0.08735
C_ C_ 0.627365 0.283094 0.4157 0.68181
C_ C_ 0.637149 0.0841903 0.403777 0.68181
C_ C_ 0.635611 0.0299644 0.400112 -0.05681
C_ C_ 0.628073 0.501119 0.423683 -0.08735
C_ C_ 0.632012 0.447218 0.423358 -0.05681
C_ C_ 0.639721 0.42264 0.396599 -0.05681
C_ C_ 0.651567 0.451492 0.372083 -0.08735
C_ C_ 0.64274 0.505471 0.373446 -0.08735
C_ C_ 0.62381 0.417638 0.447924 -0.08735
C_ C_ 0.621798 0.36441 0.444783 -0.08735
C_ C_ 0.63262 0.339199 0.41924 -0.05681
C_ C_ 0.638943 0.371298 0.394659 -0.08735
C_ C_ 0.536649 0.177102 0.414183 0.68181
C_ C_ 0.619115 0.117512 0.487531 0.1947
C_ C_ 0.59637 0.116483 0.0172521 -0.08735
C_ C_ 0.622677 0.141782 0.0393372 -0.08735
C_ C_ 0.649892 0.184281 0.0325368 -0.05681
C_ C_ 0.656493 0.197534 1.00245717 0.18498
C_ C_ 0.688306 0.23572 0.498707 -0.08735
C_ C_ 0.698487 0.273162 0.0154117 -0.08735
C_ C_ 0.687569 0.263704 0.0448751 -0.08735
C_ C_ 0.666839 0.218221 0.0552845 0.18498
C_ C_ 0.700338 0.19739 0.103183 0.44287
C_ C_ 0.612617 0.212216 0.0969924 0.44287
C_ C_ 0.602693 0.198508 0.125579 -0.05681
C_ C_ 0.552517 0.203247 0.137206 -0.08735
C_ C_ 0.543269 0.195396 0.167267 -0.08735
C_ C_ 0.587365 0.190519 0.185928 -0.05681
C_ C_ 0.634739 0.181375 0.174251 -0.05681
C_ C_ 0.64306 0.188146 0.144181 -0.05681
C_ C_ 0.691252 0.186748 0.1321 -0.05681
C_ C_ 0.730309 0.169562 0.149885 -0.08735
C_ C_ 0.722908 0.158613 0.178908 -0.08735
C_ C_ 0.676158 0.167648 0.192057 -0.05681
C_ C_ 0.666388 0.157848 0.221761 0.44287
C_ C_ 0.583622 0.187324 0.216398 0.44287
C_ C_ 0.612281 0.157962 0.262663 0.18498
C_ C_ 0.580864 0.114664 0.269508 -0.08735
C_ C_ 0.567243 0.102528 0.297073 -0.08735
C_ C_ 0.586106 0.134756 0.320309 -0.08735
C_ C_ 0.621847 0.172861 0.314301 0.18498
C_ C_ 0.632465 0.186988 0.285351 -0.05681
C_ C_ 0.655219 0.233533 0.280733 -0.08735
C_ C_ 0.675847 0.261701 0.302245 -0.08735
C_ C_ 0.673483 0.24368 0.329308 0.1947
C_ C_ 0.782517 0.314397 0.156053 0.68181
C_ C_ 0.724567 0.314152 0.151967 -0.05681
C_ C_ 0.690758 0.322972 0.175405 -0.08735
C_ C_ 0.636933 0.321742 0.171243 -0.05681
C_ C_ 0.618624 0.326123 0.143145 -0.05681
C_ C_ 0.652184 0.320148 0.118807 -0.08735
C_ C_ 0.703334 0.316035 0.123829 -0.08735
C_ C_ 0.603304 0.323097 0.193612 -0.08735
C_ C_ 0.552115 0.319423 0.188854 -0.08735
C_ C_ 0.532398 0.323311 0.161609 -0.05681
C_ C_ 0.564388 0.32787 0.138585 -0.08735
C_ C_ 0.885176 0.217796 0.165267 0.68181
C_ C_ 0.879293 0.412255 0.149682 0.68181
C_ C_ 0.879166 0.466911 0.145805 -0.05681
C_ C_ 0.858376 0.00207355 0.171732 -0.08735
C_ C_ 0.858756 0.0561563 0.169286 -0.05681
C_ C_ 0.86732 0.0793693 0.143039 -0.05681
C_ C_ 0.878622 0.047279 0.119167 -0.08735
C_ C_ 0.890464 0.488908 0.120202 -0.08735
C_ C_ 0.857665 0.0875305 0.193928 -0.08735
C_ C_ 0.87429 0.13801 0.193676 -0.08735
C_ C_ 0.880741 0.162182 0.166514 -0.05681
C_ C_ 0.876764 0.132726 0.14058 -0.08735
C_ C_ 0.977278 0.327766 0.158842 0.68181
C_ C_ 0.912488 0.361883 0.232556 0.1947
C_ C_ 0.929237 0.374655 0.259886 -0.08735
C_ C_ 0.902175 0.35474 0.283135 -0.08735
C_ C_ 0.86445 0.31702 0.279012 -0.05681
C_ C_ 0.849678 0.30425 0.249577 0.18498
C_ C_ 0.818504 0.261516 0.244893 -0.08735
C_ C_ 0.799322 0.232683 0.267797 -0.08735
C_ C_ 0.811042 0.245436 0.29648 -0.08735
C_ C_ 0.843561 0.288838 0.302559 0.18498
C_ C_ 0.812504 0.314601 0.349163 0.44287
C_ C_ 0.901936 0.300599 0.34517 0.44287
C_ C_ 0.908468 0.305391 0.374861 -0.05681
C_ C_ 0.957318 0.305895 0.386822 -0.08735
C_ C_ 0.963421 0.30693 0.416345 -0.08735
C_ C_ 0.92083 0.314603 0.434516 -0.05681
C_ C_ 0.874323 0.322032 0.422379 -0.05681
C_ C_ 0.866726 0.311636 0.392528 -0.05681
C_ C_ 0.819697 0.31918 0.378976 -0.05681
C_ C_ 0.778186 0.332047 0.39741 -0.08735
C_ C_ 0.784725 0.336643 0.426925 -0.08735
C_ C_ 0.833748 0.333308 0.439818 -0.05681
C_ C_ 0.840636 0.340293 0.469254 0.44287
C_ C_ 0.925843 0.315805 0.464579 0.44287
C_ C_ 0.899129 0.343967 0.0107524 0.18498
C_ C_ 0.926906 0.387756 0.0159342 -0.08735
C_ C_ 0.94571 0.397531 0.0443309 -0.08735
C_ C_ 0.929942 0.369919 0.0670322 -0.08735
C_ C_ 0.896723 0.330637 0.0642025 0.18498
C_ C_ 0.885778 0.31434 0.0345492 -0.05681
C_ C_ 0.863783 0.266239 0.0299811 -0.08735
C_ C_ 0.839335 0.243381 0.0539542 -0.08735
C_ C_ 0.854473 0.256963 0.0814164 0.1947
N_ N_ 0.642624 0.163029 0.482813 -0.29468
N_ N_ 0.659828 0.209117 0.0852596 -0.17154
N_ N_ 0.621681 0.167193 0.232779 -0.17154
N_ N_ 0.642567 0.20176 0.336192 -0.29468
N_ N_ 0.875022 0.325559 0.22734 -0.29468
N_ N_ 0.853598 0.304087 0.332743 -0.17154
N_ N_ 0.885668 0.328821 0.481242 -0.17154
N_ N_ 0.881414 0.300287 0.086636 -0.29468
O_ O_ 0.717505 0.176898 0.428689 -0.58347
O_ O_ 0.707808 0.196244 0.382879 -0.58347
O_ O_ 0.640411 0.25381 0.436184 -0.58347
O_ O_ 0.621376 0.264536 0.389866 -0.58347
O_ O_ 0.641244 0.102001 0.428851 -0.58347
O_ O_ 0.641998 0.113191 0.383053 -0.58347
O_ O_ 0.562571 0.171303 0.437009 -0.58347
O_ O_ 0.556181 0.181127 0.389968 -0.58347
O_ O_ 0.574671 0.230754 0.0809723 -0.46727
O_ O_ 0.745834 0.196031 0.0937395 -0.46727
O_ O_ 0.537269 0.19404 0.227981 -0.46727
O_ O_ 0.700948 0.134612 0.236727 -0.46727
O_ O_ 0.798624 0.322297 0.180548 -0.58347
O_ O_ 0.811561 0.301411 0.13546 -0.58347
O_ O_ 0.868873 0.243666 0.185118 -0.58347
O_ O_ 0.896353 0.238233 0.141562 -0.58347
O_ O_ 0.878612 0.392133 0.173916 -0.58347
O_ O_ 0.873117 0.385028 0.127459 -0.58347
O_ O_ 0.945771 0.316745 0.178038 -0.58347
O_ O_ 0.959287 0.326913 0.134343 -0.58347
O_ O_ 0.942423 0.294282 0.329098 -0.46727
O_ O_ 0.768809 0.316116 0.336814 -0.46727
O_ O_ 0.964848 0.292359 0.476483 -0.46727
O_ O_ 0.805036 0.364996 0.483693 -0.46727
Zn Zn 0.623552 0.189914 0.887544 0.90689
Zn Zn 0.633613 0.181775 0.933261 0.90689
Zn Zn 0.872887 0.311807 0.633979 0.90689
Zn Zn 0.861519 0.320186 0.681494 0.90689
H_ H_ 0.797966 0.205032 0.95026 0.11455
H_ H_ 0.86679 0.161669 0.85268 0.11455
H_ H_ 0.777498 0.185005 0.85977 0.11455
H_ H_ 0.894083 0.192807 0.969634 0.11455
H_ H_ 0.983348 0.205458 0.957166 0.11455
H_ H_ 0.951206 0.167317 0.870335 0.11455
H_ H_ 0.64449 0.0145107 0.94898 0.11455
H_ H_ 0.640814 0.43563 0.843794 0.11455
H_ H_ 0.649191 0.0316233 0.855481 0.11455
H_ H_ 0.611892 0.435731 0.962922 0.11455
H_ H_ 0.604888 0.345966 0.959131 0.11455
H_ H_ 0.646504 0.350176 0.871413 0.11455
H_ H_ 0.571615 0.122774 0.973479 0.11455
H_ H_ 0.588059 0.0641872 0.519585 0.11455
H_ H_ 0.610124 0.121447 0.560692 0.11455
H_ H_ 0.701087 0.242362 0.974053 0.11455
H_ H_ 0.723149 0.301272 0.51733 0.11455
H_ H_ 0.69938 0.284851 0.566046 0.11455
H_ H_ 0.509652 0.206758 0.624889 0.11455
H_ H_ 0.496795 0.179707 0.674358 0.11455
H_ H_ 0.761998 0.187628 0.645254 0.11455
H_ H_ 0.745012 0.155282 0.691713 0.11455
H_ H_ 0.568779 0.0947387 0.750882 0.11455
H_ H_ 0.538882 0.0703068 0.799026 0.11455
H_ H_ 0.571345 0.119907 0.840782 0.11455
H_ H_ 0.630381 0.265114 0.766073 0.11455
H_ H_ 0.665862 0.312619 0.807469 0.11455
H_ H_ 0.678078 0.263077 0.853568 0.11455
H_ H_ 0.694298 0.32064 0.696984 0.11455
H_ H_ 0.631804 0.357714 0.602797 0.11455
H_ H_ 0.722301 0.337201 0.607847 0.11455
H_ H_ 0.597723 0.304057 0.714258 0.11455
H_ H_ 0.51254 0.322199 0.706047 0.11455
H_ H_ 0.545886 0.34714 0.615627 0.11455
H_ H_ 0.888522 0.48692 0.693338 0.11455
H_ H_ 0.858257 0.0690137 0.59739 0.11455
H_ H_ 0.852182 0.475457 0.604136 0.11455
H_ H_ 0.863205 0.0671767 0.715665 0.11455
H_ H_ 0.865071 0.160635 0.71052 0.11455
H_ H_ 0.854755 0.147882 0.619762 0.11455
H_ H_ 0.92195 0.391791 0.717772 0.11455
H_ H_ 0.938068 0.415468 0.768089 0.11455
H_ H_ 0.89998 0.372498 0.809576 0.11455
H_ H_ 0.81459 0.248046 0.726644 0.11455
H_ H_ 0.79552 0.191612 0.762823 0.11455
H_ H_ 0.810964 0.212156 0.814177 0.11455
H_ H_ 0.988301 0.272374 0.874109 0.11455
H_ H_ 0.000927683 0.293711 0.924442 0.11455
H_ H_ 0.742015 0.3305 0.889991 0.11455
H_ H_ 0.758003 0.339707 0.94166 0.11455
H_ H_ 0.941822 0.409836 0.998663 0.11455
H_ H_ 0.976514 0.411883 0.551249 0.11455
H_ H_ 0.940935 0.365385 0.591096 0.11455
H_ H_ 0.830148 0.26801 0.507249 0.11455
H_ H_ 0.786765 0.223651 0.548773 0.11455
H_ H_ 0.81619 0.240674 0.596971 0.11455
C_ C_ 0.726541 0.191975 0.910062 0.68181
C_ C_ 0.782061 0.19056 0.906246 -0.05681
C_ C_ 0.816114 0.193878 0.929635 -0.08735
C_ C_ 0.869026 0.18247 0.925819 -0.05681
C_ C_ 0.886402 0.173777 0.897398 -0.05681
C_ C_ 0.853781 0.172824 0.873861 -0.08735
C_ C_ 0.801806 0.182582 0.878314 -0.08735
C_ C_ 0.905079 0.18909 0.948296 -0.08735
C_ C_ 0.958695 0.189036 0.941872 -0.08735
C_ C_ 0.975075 0.173741 0.915419 -0.05681
C_ C_ 0.938802 0.166043 0.892528 -0.08735
C_ C_ 0.622692 0.284598 0.913344 0.68181
C_ C_ 0.638524 0.086917 0.906101 0.68181
C_ C_ 0.646232 0.0312002 0.903024 -0.05681
C_ C_ 0.618415 0.500298 0.918796 -0.08735
C_ C_ 0.627771 0.446652 0.917547 -0.05681
C_ C_ 0.632107 0.422847 0.891616 -0.05681
C_ C_ 0.63058 0.451844 0.865649 -0.08735
C_ C_ 0.621154 0.503996 0.866638 -0.08735
C_ C_ 0.623788 0.418514 0.942386 -0.08735
C_ C_ 0.615677 0.365852 0.94057 -0.08735
C_ C_ 0.622314 0.341078 0.915 -0.05681
C_ C_ 0.631354 0.369451 0.890345 -0.08735
C_ C_ 0.529925 0.17871 0.912085 0.68181
C_ C_ 0.599205 0.133742 0.989553 0.1947
C_ C_ 0.608067 0.102875 0.516202 -0.08735
C_ C_ 0.622202 0.133099 0.53944 -0.08735
C_ C_ 0.645766 0.179763 0.533976 -0.05681
C_ C_ 0.663392 0.189537 0.504996 0.18498
C_ C_ 0.68692 0.239187 0.995215 -0.08735
C_ C_ 0.698588 0.271136 0.520173 -0.08735
C_ C_ 0.682088 0.261149 0.549028 -0.08735
C_ C_ 0.65706 0.21454 0.556447 0.18498
C_ C_ 0.691159 0.196707 0.6035 0.44287
C_ C_ 0.601758 0.209673 0.59635 0.44287
C_ C_ 0.59128 0.199755 0.625607 -0.05681
C_ C_ 0.540981 0.200134 0.638587 -0.08735
C_ C_ 0.533188 0.190354 0.667459 -0.08735
C_ C_ 0.576269 0.189865 0.686261 -0.05681
C_ C_ 0.625832 0.190981 0.674933 -0.05681
C_ C_ 0.63344 0.194303 0.645147 -0.05681
C_ C_ 0.682792 0.193682 0.633011 -0.05681
C_ C_ 0.72423 0.18398 0.651993 -0.08735
C_ C_ 0.716 0.179041 0.681408 -0.08735
C_ C_ 0.66636 0.182736 0.693236 -0.05681
C_ C_ 0.657792 0.18047 0.722792 0.44287
C_ C_ 0.569346 0.184735 0.716411 0.44287
C_ C_ 0.601862 0.164568 0.764115 0.18498
C_ C_ 0.57545 0.118819 0.769431 -0.08735
C_ C_ 0.563573 0.101822 0.796329 -0.08735
C_ C_ 0.582912 0.131388 0.819948 -0.08735
C_ C_ 0.613623 0.17528 0.816149 0.18498
C_ C_ 0.615364 0.196564 0.788538 -0.05681
C_ C_ 0.629765 0.246557 0.785795 -0.08735
C_ C_ 0.651226 0.273643 0.809134 -0.08735
C_ C_ 0.655444 0.247928 0.835986 0.1947
C_ C_ 0.769562 0.325711 0.657985 0.68181
C_ C_ 0.713702 0.324749 0.65453 -0.05681
C_ C_ 0.678669 0.318378 0.676378 -0.08735
C_ C_ 0.626571 0.322103 0.671335 -0.05681
C_ C_ 0.608858 0.328035 0.643269 -0.05681
C_ C_ 0.643811 0.334923 0.620808 -0.08735
C_ C_ 0.695576 0.331997 0.625579 -0.08735
C_ C_ 0.590503 0.317007 0.693259 -0.08735
C_ C_ 0.537116 0.322409 0.687551 -0.08735
C_ C_ 0.519197 0.331657 0.659327 -0.05681
C_ C_ 0.556224 0.337573 0.637743 -0.08735
C_ C_ 0.863916 0.217971 0.661937 0.68181
C_ C_ 0.869778 0.417275 0.651931 0.68181
C_ C_ 0.871364 0.473601 0.649114 -0.05681
C_ C_ 0.855346 0.00195211 0.670929 -0.08735
C_ C_ 0.853545 0.0560314 0.669527 -0.05681
C_ C_ 0.851552 0.0789755 0.642539 -0.05681
C_ C_ 0.850089 0.0486028 0.617303 -0.08735
C_ C_ 0.854129 0.495812 0.623204 -0.08735
C_ C_ 0.858025 0.085963 0.69432 -0.08735
C_ C_ 0.85877 0.139194 0.691494 -0.08735
C_ C_ 0.861388 0.162798 0.664342 -0.05681
C_ C_ 0.854004 0.131977 0.640321 -0.08735
C_ C_ 0.965828 0.313633 0.658345 0.68181
C_ C_ 0.903483 0.369944 0.735887 0.1947
C_ C_ 0.91304 0.385277 0.763123 -0.08735
C_ C_ 0.89115 0.360275 0.787211 -0.08735
C_ C_ 0.863053 0.316805 0.782097 -0.05681
C_ C_ 0.853841 0.302308 0.752315 0.18498
C_ C_ 0.830616 0.255796 0.74754 -0.08735
C_ C_ 0.811749 0.226618 0.769427 -0.08735
C_ C_ 0.824951 0.237659 0.797489 -0.08735
C_ C_ 0.84909 0.28377 0.804343 0.18498
C_ C_ 0.816074 0.314306 0.849932 0.44287
C_ C_ 0.900898 0.286769 0.845289 0.44287
C_ C_ 0.910867 0.30198 0.873925 -0.05681
C_ C_ 0.959184 0.294111 0.886048 -0.08735
C_ C_ 0.967547 0.309112 0.915134 -0.08735
C_ C_ 0.927142 0.318001 0.933404 -0.05681
C_ C_ 0.880132 0.322069 0.921582 -0.05681
C_ C_ 0.872337 0.317942 0.891813 -0.05681
C_ C_ 0.824386 0.326622 0.879 -0.05681
C_ C_ 0.783267 0.330228 0.898547 -0.08735
C_ C_ 0.790343 0.33512 0.92731 -0.08735
C_ C_ 0.837634 0.331322 0.939852 -0.05681
C_ C_ 0.84377 0.333278 0.969527 0.44287
C_ C_ 0.930773 0.317751 0.964518 0.44287
C_ C_ 0.896673 0.339576 0.511219 0.18498
C_ C_ 0.93585 0.376287 0.518558 -0.08735
C_ C_ 0.946352 0.38807 0.545992 -0.08735
C_ C_ 0.926346 0.359147 0.568579 -0.08735
C_ C_ 0.888013 0.322138 0.563543 0.18498
C_ C_ 0.87317 0.314325 0.53488 -0.05681
C_ C_ 0.839671 0.274245 0.528618 -0.08735
C_ C_ 0.817187 0.24904 0.55174 -0.08735
C_ C_ 0.830997 0.260299 0.580086 0.1947
N_ N_ 0.633375 0.169493 0.981903 -0.29468
N_ N_ 0.649614 0.205027 0.585234 -0.17154
N_ N_ 0.609134 0.180452 0.73436 -0.17154
N_ N_ 0.631473 0.201234 0.839817 -0.29468
N_ N_ 0.877013 0.327428 0.729943 -0.29468
N_ N_ 0.856237 0.297512 0.833367 -0.17154
N_ N_ 0.890703 0.32787 0.981458 -0.17154
N_ N_ 0.860953 0.300167 0.585408 -0.29468
O_ O_ 0.707463 0.177998 0.933321 -0.58347
O_ O_ 0.69686 0.205876 0.890802 -0.58347
O_ O_ 0.632964 0.258881 0.935449 -0.58347
O_ O_ 0.61257 0.262662 0.888907 -0.58347
O_ O_ 0.630827 0.105656 0.92989 -0.58347
O_ O_ 0.639033 0.114803 0.885293 -0.58347
O_ O_ 0.560706 0.181171 0.932357 -0.58347
O_ O_ 0.547077 0.173901 0.887591 -0.58347
O_ O_ 0.564154 0.21712 0.578195 -0.46727
O_ O_ 0.734285 0.181112 0.592519 -0.46727
O_ O_ 0.523704 0.191229 0.727053 -0.46727
O_ O_ 0.696997 0.185291 0.739593 -0.46727
O_ O_ 0.788731 0.325421 0.682558 -0.58347
O_ O_ 0.797611 0.317242 0.635651 -0.58347
O_ O_ 0.860661 0.245815 0.683441 -0.58347
O_ O_ 0.876393 0.239196 0.638223 -0.58347
O_ O_ 0.862962 0.396096 0.676025 -0.58347
O_ O_ 0.874473 0.391885 0.62992 -0.58347
O_ O_ 0.937548 0.329156 0.67826 -0.58347
O_ O_ 0.947309 0.30944 0.633995 -0.58347
O_ O_ 0.938829 0.268261 0.829296 -0.46727
O_ O_ 0.772401 0.325036 0.837292 -0.46727
O_ O_ 0.977206 0.313083 0.9758 -0.46727
O_ O_ 0.803788 0.346419 0.984861 -0.46727
Zn Zn 0.623554 0.686419 0.379942 0.90689
Zn Zn 0.633472 0.683476 0.428292 0.90689
Zn Zn 0.870051 0.813384 0.134878 0.90689
Zn Zn 0.864205 0.815245 0.183972 0.90689
H_ H_ 0.798691 0.684626 0.446059 0.11455
H_ H_ 0.872058 0.64374 0.350797 0.11455
H_ H_ 0.776889 0.655785 0.356369 0.11455
H_ H_ 0.88421 0.69465 0.465238 0.11455
H_ H_ 0.976679 0.687243 0.46035 0.11455
H_ H_ 0.954068 0.640857 0.373219 0.11455
H_ H_ 0.618202 0.521092 0.442627 0.11455
H_ H_ 0.663563 0.939404 0.349779 0.11455
H_ H_ 0.650229 0.525574 0.353529 0.11455
H_ H_ 0.62023 0.925878 0.464675 0.11455
H_ H_ 0.616083 0.836457 0.45952 0.11455
H_ H_ 0.641233 0.851626 0.369115 0.11455
H_ H_ 0.574461 0.612647 0.465127 0.11455
H_ H_ 0.563309 0.564959 0.00865951 0.11455
H_ H_ 0.60704 0.607819 0.0496439 0.11455
H_ H_ 0.692956 0.74038 0.467927 0.11455
H_ H_ 0.709915 0.794246 0.00727924 0.11455
H_ H_ 0.688016 0.767841 0.0591775 0.11455
H_ H_ 0.512347 0.707584 0.11876 0.11455
H_ H_ 0.498314 0.69006 0.168238 0.11455
H_ H_ 0.766158 0.669805 0.138475 0.11455
H_ H_ 0.751737 0.666727 0.187291 0.11455
H_ H_ 0.573477 0.577978 0.245991 0.11455
H_ H_ 0.547363 0.561079 0.295328 0.11455
H_ H_ 0.568389 0.613931 0.335335 0.11455
H_ H_ 0.650955 0.746421 0.255435 0.11455
H_ H_ 0.67251 0.799919 0.296572 0.11455
H_ H_ 0.67091 0.761114 0.343764 0.11455
H_ H_ 0.698121 0.810645 0.195294 0.11455
H_ H_ 0.625143 0.815015 0.0968445 0.11455
H_ H_ 0.718106 0.813097 0.104812 0.11455
H_ H_ 0.60839 0.816076 0.215353 0.11455
H_ H_ 0.519111 0.802498 0.209396 0.11455
H_ H_ 0.541424 0.819667 0.116938 0.11455
H_ H_ 0.859409 0.987735 0.193605 0.11455
H_ H_ 0.901951 0.559914 0.0959201 0.11455
H_ H_ 0.878802 0.96974 0.10296 0.11455
H_ H_ 0.886635 0.564179 0.213506 0.11455
H_ H_ 0.884706 0.655332 0.211014 0.11455
H_ H_ 0.885697 0.644496 0.119372 0.11455
H_ H_ 0.918765 0.880166 0.220318 0.11455
H_ H_ 0.933409 0.906778 0.271085 0.11455
H_ H_ 0.895956 0.859676 0.30979 0.11455
H_ H_ 0.811844 0.738037 0.225014 0.11455
H_ H_ 0.793772 0.679685 0.262473 0.11455
H_ H_ 0.799864 0.7008 0.313033 0.11455
H_ H_ 0.982607 0.763693 0.374768 0.11455
H_ H_ 0.00415715 0.794426 0.422927 0.11455
H_ H_ 0.73747 0.809954 0.392184 0.11455
H_ H_ 0.751694 0.831921 0.442695 0.11455
H_ H_ 0.953593 0.899236 0.499346 0.11455
H_ H_ 0.949792 0.941843 0.0531258 0.11455
H_ H_ 0.925058 0.882296 0.0910902 0.11455
H_ H_ 0.835835 0.764559 0.0076863 0.11455
H_ H_ 0.807721 0.717133 0.0465291 0.11455
H_ H_ 0.818732 0.739093 0.0959028 0.11455
C_ C_ 0.725537 0.680458 0.404485 0.68181
C_ C_ 0.780461 0.671359 0.401632 -0.05681
C_ C_ 0.812523 0.677272 0.425449 -0.08735
C_ C_ 0.866153 0.672673 0.422025 -0.05681
C_ C_ 0.886866 0.659168 0.395642 -0.05681
C_ C_ 0.854857 0.655821 0.371605 -0.08735
C_ C_ 0.802563 0.660633 0.374824 -0.08735
C_ C_ 0.899127 0.681068 0.445143 -0.08735
C_ C_ 0.952035 0.677858 0.441767 -0.08735
C_ C_ 0.972658 0.661677 0.415092 -0.05681
C_ C_ 0.939933 0.649573 0.392954 -0.08735
C_ C_ 0.622425 0.780477 0.409481 0.68181
C_ C_ 0.636113 0.586553 0.400339 0.68181
C_ C_ 0.632417 0.529395 0.399018 -0.05681
C_ C_ 0.623534 0.997249 0.422923 -0.08735
C_ C_ 0.626003 0.943506 0.418993 -0.05681
C_ C_ 0.638283 0.92305 0.393092 -0.05681
C_ C_ 0.651885 0.955174 0.370382 -0.08735
C_ C_ 0.647285 1.00776464 0.37299 -0.08735
C_ C_ 0.620009 0.912287 0.442324 -0.08735
C_ C_ 0.622172 0.859793 0.440221 -0.08735
C_ C_ 0.628817 0.836482 0.413226 -0.05681
C_ C_ 0.637445 0.868781 0.38978 -0.08735
C_ C_ 0.531737 0.6794 0.408102 0.68181
C_ C_ 0.597116 0.628963 0.48194 0.1947
C_ C_ 0.589513 0.597184 0.00624408 -0.08735
C_ C_ 0.614177 0.622197 0.0286993 -0.08735
C_ C_ 0.64013 0.667494 0.0237945 -0.05681
C_ C_ 0.649972 0.682293 0.995194 0.18498
C_ C_ 0.685067 0.732347 0.490568 -0.08735
C_ C_ 0.690453 0.756741 0.0125618 -0.08735
C_ C_ 0.682299 0.741612 0.0413111 -0.08735
C_ C_ 0.653309 0.697763 0.0480035 0.18498
C_ C_ 0.689272 0.679477 0.0961531 0.44287
C_ C_ 0.599012 0.684 0.0897647 0.44287
C_ C_ 0.589583 0.676712 0.118502 -0.05681
C_ C_ 0.541967 0.689782 0.131501 -0.08735
C_ C_ 0.535406 0.688263 0.160749 -0.08735
C_ C_ 0.577805 0.677246 0.179137 -0.05681
C_ C_ 0.626526 0.672753 0.167228 -0.05681
C_ C_ 0.631912 0.672025 0.137088 -0.05681
C_ C_ 0.683129 0.673619 0.126354 -0.05681
C_ C_ 0.724991 0.670232 0.144865 -0.08735
C_ C_ 0.718026 0.671836 0.173786 -0.08735
C_ C_ 0.669194 0.669892 0.185396 -0.05681
C_ C_ 0.661773 0.667986 0.214943 0.44287
C_ C_ 0.573197 0.673726 0.209491 0.44287
C_ C_ 0.606935 0.653583 0.256504 0.18498
C_ C_ 0.58542 0.60454 0.26327 -0.08735
C_ C_ 0.572716 0.592109 0.291229 -0.08735
C_ C_ 0.584147 0.624548 0.314195 -0.08735
C_ C_ 0.608311 0.669203 0.309039 0.18498
C_ C_ 0.619568 0.685217 0.280367 -0.05681
C_ C_ 0.642517 0.73302 0.276301 -0.08735
C_ C_ 0.65435 0.761673 0.299672 -0.08735
C_ C_ 0.651789 0.739445 0.327096 0.1947
C_ C_ 0.76896 0.806133 0.154771 0.68181
C_ C_ 0.714058 0.806597 0.150458 -0.05681
C_ C_ 0.680946 0.810157 0.174023 -0.08735
C_ C_ 0.626823 0.811846 0.169332 -0.05681
C_ C_ 0.607627 0.816811 0.141237 -0.05681
C_ C_ 0.638601 0.812097 0.118275 -0.08735
C_ C_ 0.692957 0.813029 0.122539 -0.08735
C_ C_ 0.593595 0.811917 0.19323 -0.08735
C_ C_ 0.542658 0.8099 0.189408 -0.08735
C_ C_ 0.522576 0.811013 0.160302 -0.05681
C_ C_ 0.555844 0.815899 0.137577 -0.08735
C_ C_ 0.876168 0.714512 0.164447 0.68181
C_ C_ 0.864386 0.914807 0.152911 0.68181
C_ C_ 0.867117 0.970421 0.149016 -0.05681
C_ C_ 0.875889 0.496827 0.170984 -0.08735
C_ C_ 0.877002 0.548769 0.169325 -0.05681
C_ C_ 0.885409 0.57158 0.141989 -0.05681
C_ C_ 0.894644 0.542188 0.117383 -0.08735
C_ C_ 0.87466 0.99324 0.121806 -0.08735
C_ C_ 0.886088 0.580525 0.193616 -0.08735
C_ C_ 0.886966 0.632837 0.190995 -0.08735
C_ C_ 0.882978 0.656282 0.164239 -0.05681
C_ C_ 0.886048 0.626456 0.139998 -0.08735
C_ C_ 0.962975 0.817567 0.158548 0.68181
C_ C_ 0.900193 0.862522 0.236755 0.1947
C_ C_ 0.908683 0.876195 0.265449 -0.08735
C_ C_ 0.88777 0.848887 0.28793 -0.08735
C_ C_ 0.856062 0.807331 0.282175 -0.05681
C_ C_ 0.842893 0.79742 0.25228 0.18498
C_ C_ 0.819887 0.750825 0.246162 -0.08735
C_ C_ 0.812335 0.715113 0.268564 -0.08735
C_ C_ 0.816738 0.727334 0.296334 -0.08735
C_ C_ 0.842844 0.771765 0.30397 0.18498
C_ C_ 0.811347 0.79281 0.351691 0.44287
C_ C_ 0.897373 0.772397 0.345948 0.44287
C_ C_ 0.905951 0.782352 0.374726 -0.05681
C_ C_ 0.955581 0.780696 0.386227 -0.08735
C_ C_ 0.964839 0.796231 0.415403 -0.08735
C_ C_ 0.923761 0.805206 0.434016 -0.05681
C_ C_ 0.873404 0.806675 0.422293 -0.05681
C_ C_ 0.865844 0.795896 0.393158 -0.05681
C_ C_ 0.817126 0.795611 0.382428 -0.05681
C_ C_ 0.775791 0.809274 0.400223 -0.08735
C_ C_ 0.784325 0.825138 0.427903 -0.08735
C_ C_ 0.832619 0.824104 0.439439 -0.05681
C_ C_ 0.842681 0.835656 0.46952 0.44287
C_ C_ 0.93006 0.811075 0.46294 0.44287
C_ C_ 0.895753 0.852253 0.0112291 0.18498
C_ C_ 0.924123 0.894002 0.0185789 -0.08735
C_ C_ 0.934242 0.905551 0.047399 -0.08735
C_ C_ 0.918852 0.871345 0.068733 -0.08735
C_ C_ 0.884789 0.833715 0.0629615 0.18498
C_ C_ 0.875406 0.821459 0.0340718 -0.05681
C_ C_ 0.841599 0.781315 0.0284202 -0.08735
C_ C_ 0.826773 0.751074 0.0518445 -0.08735
C_ C_ 0.837705 0.762726 0.0798507 0.1947
N_ N_ 0.629723 0.666173 0.475706 -0.29468
N_ N_ 0.647011 0.68641 0.078948 -0.17154
N_ N_ 0.614743 0.665201 0.226765 -0.17154
N_ N_ 0.623255 0.698977 0.331706 -0.29468
N_ N_ 0.866733 0.824681 0.230348 -0.29468
N_ N_ 0.851119 0.781947 0.333912 -0.17154
N_ N_ 0.889218 0.826762 0.480098 -0.17154
N_ N_ 0.869007 0.803471 0.0847769 -0.29468
O_ O_ 0.706055 0.686283 0.428705 -0.58347
O_ O_ 0.699199 0.685058 0.381889 -0.58347
O_ O_ 0.624431 0.753847 0.431544 -0.58347
O_ O_ 0.615856 0.759361 0.385231 -0.58347
O_ O_ 0.637892 0.609123 0.423778 -0.58347
O_ O_ 0.634836 0.611282 0.376641 -0.58347
O_ O_ 0.558235 0.6826 0.430055 -0.58347
O_ O_ 0.550053 0.678643 0.383858 -0.58347
O_ O_ 0.559333 0.685707 0.0721026 -0.46727
O_ O_ 0.7333 0.669602 0.0845999 -0.46727
O_ O_ 0.526614 0.678655 0.220287 -0.46727
O_ O_ 0.699901 0.655315 0.230699 -0.46727
O_ O_ 0.788631 0.816963 0.178938 -0.58347
O_ O_ 0.799393 0.80456 0.133449 -0.58347
O_ O_ 0.862367 0.740109 0.18618 -0.58347
O_ O_ 0.881934 0.736753 0.141413 -0.58347
O_ O_ 0.868202 0.895233 0.176804 -0.58347
O_ O_ 0.860696 0.886729 0.13043 -0.58347
O_ O_ 0.936692 0.817122 0.180696 -0.58347
O_ O_ 0.943071 0.825111 0.134717 -0.58347
O_ O_ 0.9334 0.752894 0.331092 -0.46727
O_ O_ 0.765582 0.793418 0.340987 -0.46727
O_ O_ 0.976289 0.810388 0.474185 -0.46727
O_ O_ 0.809672 0.864438 0.484542 -0.46727
Zn Zn 0.617195 0.692978 0.87861 0.90689
Zn Zn 0.633216 0.678759 0.928188 0.90689
Zn Zn 0.863965 0.816163 0.632868 0.90689
Zn Zn 0.852383 0.821784 0.680323 0.90689
H_ H_ 0.796578 0.703897 0.939688 0.11455
H_ H_ 0.869627 0.664398 0.845185 0.11455
H_ H_ 0.776405 0.663975 0.850672 0.11455
H_ H_ 0.884315 0.69876 0.963303 0.11455
H_ H_ 0.977616 0.684791 0.955361 0.11455
H_ H_ 0.954825 0.677924 0.86461 0.11455
H_ H_ 0.618504 0.520113 0.940051 0.11455
H_ H_ 0.638074 0.944328 0.850699 0.11455
H_ H_ 0.616403 0.524279 0.848303 0.11455
H_ H_ 0.646892 0.926587 0.968258 0.11455
H_ H_ 0.625195 0.837212 0.962084 0.11455
H_ H_ 0.632486 0.854739 0.871081 0.11455
H_ H_ 0.573841 0.602042 0.961093 0.11455
H_ H_ 0.555491 0.589985 0.514054 0.11455
H_ H_ 0.602212 0.627146 0.553767 0.11455
H_ H_ 0.685379 0.738678 0.968361 0.11455
H_ H_ 0.730044 0.793319 0.504711 0.11455
H_ H_ 0.701989 0.782748 0.555475 0.11455
H_ H_ 0.514004 0.741505 0.616798 0.11455
H_ H_ 0.494798 0.735307 0.665642 0.11455
H_ H_ 0.750424 0.650657 0.63592 0.11455
H_ H_ 0.726172 0.62417 0.685577 0.11455
H_ H_ 0.543054 0.604192 0.74488 0.11455
H_ H_ 0.518723 0.582624 0.796266 0.11455
H_ H_ 0.553899 0.637436 0.835611 0.11455
H_ H_ 0.644463 0.757682 0.753842 0.11455
H_ H_ 0.68379 0.798842 0.794101 0.11455
H_ H_ 0.670405 0.767239 0.843504 0.11455
H_ H_ 0.687086 0.806659 0.692572 0.11455
H_ H_ 0.621512 0.842816 0.5951 0.11455
H_ H_ 0.715392 0.83677 0.602187 0.11455
H_ H_ 0.601624 0.819914 0.712931 0.11455
H_ H_ 0.510331 0.829559 0.705206 0.11455
H_ H_ 0.53399 0.866146 0.616071 0.11455
H_ H_ 0.857307 0.983098 0.692214 0.11455
H_ H_ 0.829499 0.566187 0.60511 0.11455
H_ H_ 0.847959 0.972358 0.599651 0.11455
H_ H_ 0.906179 0.574028 0.714002 0.11455
H_ H_ 0.903326 0.669061 0.708533 0.11455
H_ H_ 0.852988 0.649684 0.620669 0.11455
H_ H_ 0.907768 0.900832 0.711106 0.11455
H_ H_ 0.935439 0.925674 0.761256 0.11455
H_ H_ 0.891018 0.887547 0.802889 0.11455
H_ H_ 0.798558 0.759383 0.724492 0.11455
H_ H_ 0.759503 0.719142 0.767629 0.11455
H_ H_ 0.794105 0.739676 0.816583 0.11455
H_ H_ 0.986223 0.789376 0.876229 0.11455
H_ H_ 0.997225 0.808394 0.924433 0.11455
H_ H_ 0.752666 0.884896 0.886264 0.11455
H_ H_ 0.75925 0.887701 0.939377 0.11455
H_ H_ 0.939498 0.916578 1.00114514 0.11455
H_ H_ 0.969332 0.924693 0.549463 0.11455
H_ H_ 0.922861 0.88104 0.58934 0.11455
H_ H_ 0.830454 0.756539 0.507961 0.11455
H_ H_ 0.799343 0.711065 0.548612 0.11455
H_ H_ 0.817913 0.737589 0.597875 0.11455
C_ C_ 0.724967 0.682585 0.899863 0.68181
C_ C_ 0.779498 0.685788 0.89573 -0.05681
C_ C_ 0.812763 0.691247 0.920053 -0.08735
C_ C_ 0.866135 0.688324 0.917805 -0.05681
C_ C_ 0.887237 0.678531 0.890726 -0.05681
C_ C_ 0.853424 0.671161 0.866851 -0.08735
C_ C_ 0.801524 0.67543 0.868711 -0.08735
C_ C_ 0.898431 0.687907 0.942227 -0.08735
C_ C_ 0.951827 0.683608 0.937404 -0.08735
C_ C_ 0.972627 0.677941 0.909375 -0.05681
C_ C_ 0.939415 0.678473 0.885873 -0.08735
C_ C_ 0.626058 0.784265 0.911572 0.68181
C_ C_ 0.624223 0.58807 0.895712 0.68181
C_ C_ 0.619538 0.529757 0.893165 -0.05681
C_ C_ 0.645479 -0.00230265 0.927798 -0.08735
C_ C_ 0.639921 0.94553 0.924828 -0.05681
C_ C_ 0.639286 0.923593 0.896194 -0.05681
C_ C_ 0.640451 0.957924 0.872115 -0.08735
C_ C_ 0.646533 0.0107075 0.875827 -0.08735
C_ C_ 0.633861 0.911952 0.948315 -0.08735
C_ C_ 0.633283 0.859909 0.942901 -0.08735
C_ C_ 0.631537 0.83966 0.915954 -0.05681
C_ C_ 0.633094 0.870499 0.892006 -0.08735
C_ C_ 0.530029 0.685623 0.90995 0.68181
C_ C_ 0.596135 0.616789 0.978385 0.1947
C_ C_ 0.586136 0.61304 0.510258 -0.08735
C_ C_ 0.61226 0.639633 0.532151 -0.08735
C_ C_ 0.6428 0.680506 0.526914 -0.05681
C_ C_ 0.653718 0.691474 0.497675 0.18498
C_ C_ 0.675365 0.726707 0.989809 -0.08735
C_ C_ 0.704773 0.763124 0.511439 -0.08735
C_ C_ 0.693389 0.753022 0.540961 -0.08735
C_ C_ 0.661932 0.712778 0.549319 0.18498
C_ C_ 0.688973 0.692301 0.597113 0.44287
C_ C_ 0.605501 0.722782 0.589614 0.44287
C_ C_ 0.591752 0.714455 0.618717 -0.05681
C_ C_ 0.543218 0.727053 0.630334 -0.08735
C_ C_ 0.531375 0.717169 0.659539 -0.08735
C_ C_ 0.568878 0.698221 0.678925 -0.05681
C_ C_ 0.616825 0.685156 0.666331 -0.05681
C_ C_ 0.627885 0.694796 0.636888 -0.05681
C_ C_ 0.677218 0.680904 0.625593 -0.05681
C_ C_ 0.71308 0.658795 0.644304 -0.08735
C_ C_ 0.69886 0.644202 0.672066 -0.08735
C_ C_ 0.652829 0.662833 0.684861 -0.05681
C_ C_ 0.643019 0.664936 0.714955 0.44287
C_ C_ 0.559616 0.695583 0.708947 0.44287
C_ C_ 0.589398 0.668308 0.756639 0.18498
C_ C_ 0.559889 0.624307 0.76322 -0.08735
C_ C_ 0.544317 0.614309 0.791874 -0.08735
C_ C_ 0.560009 0.64629 0.81431 -0.08735
C_ C_ 0.595046 0.687276 0.808828 0.18498
C_ C_ 0.607816 0.699625 0.779689 -0.05681
C_ C_ 0.637399 0.742139 0.7752 -0.08735
C_ C_ 0.656257 0.77066 0.798517 -0.08735
C_ C_ 0.645953 0.754765 0.826233 0.1947
C_ C_ 0.760791 0.816059 0.651843 0.68181
C_ C_ 0.706234 0.82128 0.647218 -0.05681
C_ C_ 0.673305 0.814195 0.670383 -0.08735
C_ C_ 0.621137 0.829644 0.668215 -0.05681
C_ C_ 0.601909 0.842364 0.641105 -0.05681
C_ C_ 0.634435 0.84134 0.617011 -0.08735
C_ C_ 0.689212 0.836687 0.620831 -0.08735
C_ C_ 0.587689 0.828788 0.691921 -0.08735
C_ C_ 0.536709 0.836357 0.687581 -0.08735
C_ C_ 0.517444 0.843262 0.660237 -0.05681
C_ C_ 0.550547 0.848617 0.636644 -0.08735
C_ C_ 0.867363 0.720158 0.662499 0.68181
C_ C_ 0.849674 0.915583 0.648481 0.68181
C_ C_ 0.851481 0.972379 0.646853 -0.05681
C_ C_ 0.883326 0.505197 0.672624 -0.08735
C_ C_ 0.880175 0.557851 0.671341 -0.05681
C_ C_ 0.867878 0.580014 0.644597 -0.05681
C_ C_ 0.851145 0.549115 0.622133 -0.08735
C_ C_ 0.851928 0.996456 0.619226 -0.08735
C_ C_ 0.895167 0.590052 0.69339 -0.08735
C_ C_ 0.895611 0.644307 0.69032 -0.08735
C_ C_ 0.875576 0.664898 0.664449 -0.05681
C_ C_ 0.868074 0.631793 0.640619 -0.08735
C_ C_ 0.956865 0.830118 0.660694 0.68181
C_ C_ 0.889676 0.884403 0.730932 0.1947
C_ C_ 0.907054 0.897525 0.758618 -0.08735
C_ C_ 0.890406 0.870871 0.782797 -0.08735
C_ C_ 0.856813 0.82798 0.779469 -0.05681
C_ C_ 0.841695 0.815524 0.751121 0.18498
C_ C_ 0.811121 0.769622 0.746812 -0.08735
C_ C_ 0.792055 0.744963 0.771129 -0.08735
C_ C_ 0.810464 0.756169 0.798548 -0.08735
C_ C_ 0.841511 0.797774 0.803503 0.18498
C_ C_ 0.813833 0.834491 0.849645 0.44287
C_ C_ 0.897551 0.799367 0.846101 0.44287
C_ C_ 0.90444 0.809122 0.87497 -0.05681
C_ C_ 0.953046 0.799945 0.888131 -0.08735
C_ C_ 0.959321 0.804234 0.917619 -0.08735
C_ C_ 0.918973 0.81821 0.935756 -0.05681
C_ C_ 0.871452 0.830389 0.922577 -0.05681
C_ C_ 0.866377 0.829926 0.8921 -0.05681
C_ C_ 0.820028 0.840414 0.879836 -0.05681
C_ C_ 0.783667 0.86386 0.896845 -0.08735
C_ C_ 0.789603 0.874167 0.926223 -0.08735
C_ C_ 0.832157 0.85421 0.940121 -0.05681
C_ C_ 0.840315 0.855967 0.969782 0.44287
C_ C_ 0.924778 0.823833 0.964821 0.44287
C_ C_ 0.900181 0.839437 0.509361 0.18498
C_ C_ 0.934862 0.878287 0.516429 -0.08735
C_ C_ 0.941466 0.892302 0.544499 -0.08735
C_ C_ 0.916956 0.865965 0.567054 -0.08735
C_ C_ 0.885646 0.825902 0.562326 0.18498
C_ C_ 0.874384 0.811351 0.53339 -0.05681
C_ C_ 0.840751 0.770174 0.528294 -0.08735
C_ C_ 0.823404 0.742659 0.552756 -0.08735
C_ C_ 0.834754 0.756924 0.580244 0.1947
N_ N_ 0.629303 0.655148 0.973134 -0.29468
N_ N_ 0.650419 0.704543 0.578987 -0.17154
N_ N_ 0.598128 0.681489 0.726754 -0.17154
N_ N_ 0.615165 0.713777 0.831219 -0.29468
N_ N_ 0.857674 0.843368 0.727539 -0.29468
N_ N_ 0.852006 0.814961 0.833149 -0.17154
N_ N_ 0.885362 0.840566 0.981589 -0.17154
N_ N_ 0.860927 0.801308 0.584622 -0.29468
O_ O_ 0.708392 0.673519 0.924593 -0.58347
O_ O_ 0.696457 0.692044 0.879674 -0.58347
O_ O_ 0.627247 0.754815 0.932483 -0.58347
O_ O_ 0.624731 0.768081 0.88636 -0.58347
O_ O_ 0.63794 0.607928 0.918834 -0.58347
O_ O_ 0.609542 0.618101 0.875536 -0.58347
O_ O_ 0.558135 0.677663 0.930348 -0.58347
O_ O_ 0.545333 0.692076 0.884908 -0.58347
O_ O_ 0.570263 0.736431 0.57218 -0.46727
O_ O_ 0.735817 0.694719 0.588651 -0.46727
O_ O_ 0.517956 0.715744 0.72053 -0.46727
O_ O_ 0.678264 0.647238 0.732945 -0.46727
O_ O_ 0.778494 0.815521 0.676567 -0.58347
O_ O_ 0.789566 0.812019 0.630139 -0.58347
O_ O_ 0.862148 0.747023 0.68529 -0.58347
O_ O_ 0.875636 0.743187 0.638706 -0.58347
O_ O_ 0.843165 0.895368 0.672269 -0.58347
O_ O_ 0.853821 0.888727 0.625328 -0.58347
O_ O_ 0.929978 0.829687 0.682563 -0.58347
O_ O_ 0.938081 0.825564 0.63536 -0.58347
O_ O_ 0.932952 0.777171 0.829869 -0.46727
O_ O_ 0.772374 0.84725 0.836232 -0.46727
O_ O_ 0.966883 0.809878 0.976813 -0.46727
O_ O_ 0.802394 0.873299 0.985424 -0.46727
