_cell_length_a 26.376
_cell_length_b 26.400000238300095
_cell_length_c 46.67800035477134
_cell_angle_alpha 90.00700052986613
_cell_angle_beta 89.99899961309502
_cell_angle_gamma 90.45000003183146
_symmetry_space_group_name_H-M         'P 1'
_symmetry_Int_Tables_number            1
loop_
_symmetry_equiv_pos_as_xyz
   'x, y, z'
                         
loop_
_atom_site_label
_atom_site_type_symbol
_atom_site_fract_x 
_atom_site_fract_y
_atom_site_fract_z
_atom_site_charge
Zn Zn 0.135409 0.182736 0.380672 0.90689
Zn Zn 0.144606 0.174794 0.429051 0.90689
Zn Zn 0.370138 0.324513 0.129627 0.90689
Zn Zn 0.360174 0.331781 0.177368 0.90689
H_ H_ 0.313572 0.19909 0.442979 0.11455
H_ H_ 0.377717 0.139179 0.348445 0.11455
H_ H_ 0.28442 0.138739 0.360251 0.11455
H_ H_ 0.40257 0.198987 0.461441 0.11455
H_ H_ 0.491648 0.172738 0.45773 0.11455
H_ H_ 0.463346 0.147841 0.365826 0.11455
H_ H_ 0.157778 0.00926739 0.444278 0.11455
H_ H_ 0.13941 0.432713 0.346254 0.11455
H_ H_ 0.125308 0.0253607 0.352539 0.11455
H_ H_ 0.122401 0.430634 0.465403 0.11455
H_ H_ 0.122071 0.338257 0.461977 0.11455
H_ H_ 0.125074 0.349395 0.368665 0.11455
H_ H_ 0.100136 0.0903995 0.463688 0.11455
H_ H_ 0.0508106 0.100099 0.0127025 0.11455
H_ H_ 0.082395 0.147503 0.0530956 0.11455
H_ H_ 0.191637 0.249173 0.472747 0.11455
H_ H_ 0.234108 0.297138 0.0111971 0.11455
H_ H_ 0.207649 0.275391 0.0617064 0.11455
H_ H_ 0.0169719 0.221647 0.127622 0.11455
H_ H_ 0.0052488 0.198329 0.176143 0.11455
H_ H_ 0.265524 0.179653 0.133502 0.11455
H_ H_ 0.256727 0.16211 0.185637 0.11455
H_ H_ 0.0778137 0.0891989 0.244784 0.11455
H_ H_ 0.0463158 0.0696693 0.295304 0.11455
H_ H_ 0.0806583 0.115838 0.336624 0.11455
H_ H_ 0.172361 0.245189 0.256939 0.11455
H_ H_ 0.200022 0.293585 0.298952 0.11455
H_ H_ 0.19406 0.254568 0.347732 0.11455
H_ H_ 0.188277 0.285553 0.187561 0.11455
H_ H_ 0.122763 0.341637 0.0971527 0.11455
H_ H_ 0.218218 0.341037 0.101027 0.11455
H_ H_ 0.112339 0.322707 0.2126 0.11455
H_ H_ 0.0183322 0.324908 0.207619 0.11455
H_ H_ 0.0353548 0.332287 0.117171 0.11455
H_ H_ 0.360614 0.495797 0.193522 0.11455
H_ H_ 0.389267 0.0718131 0.0979127 0.11455
H_ H_ 0.363815 0.481169 0.10006 0.11455
H_ H_ 0.358403 0.0823596 0.213858 0.11455
H_ H_ 0.351687 0.171874 0.206649 0.11455
H_ H_ 0.367826 0.158607 0.115735 0.11455
H_ H_ 0.421658 0.401965 0.212626 0.11455
H_ H_ 0.457083 0.412831 0.26141 0.11455
H_ H_ 0.420317 0.370039 0.303763 0.11455
H_ H_ 0.306121 0.267898 0.222195 0.11455
H_ H_ 0.266308 0.223021 0.260644 0.11455
H_ H_ 0.295591 0.231042 0.310319 0.11455
H_ H_ 0.491135 0.275072 0.37179 0.11455
H_ H_ 0.500882 0.281154 0.424595 0.11455
H_ H_ 0.240916 0.325618 0.389307 0.11455
H_ H_ 0.255165 0.344962 0.439039 0.11455
H_ H_ 0.431135 0.395259 0.500123 0.11455
H_ H_ 0.47629 0.433449 0.0485435 0.11455
H_ H_ 0.437698 0.384456 0.0886824 0.11455
H_ H_ 0.349795 0.258701 0.00587984 0.11455
H_ H_ 0.309304 0.219578 0.0445866 0.11455
H_ H_ 0.313752 0.255513 0.0947393 0.11455
C_ C_ 0.238972 0.182041 0.405137 0.68181
C_ C_ 0.294496 0.173259 0.401511 -0.05681
C_ C_ 0.328684 0.186564 0.423308 -0.08735
C_ C_ 0.380805 0.176454 0.419503 -0.05681
C_ C_ 0.399849 0.159776 0.392596 -0.05681
C_ C_ 0.36603 0.149955 0.370094 -0.08735
C_ C_ 0.313737 0.153531 0.375765 -0.08735
C_ C_ 0.415894 0.181332 0.442086 -0.08735
C_ C_ 0.468558 0.169517 0.438402 -0.08735
C_ C_ 0.485271 0.162898 0.409945 -0.05681
C_ C_ 0.451495 0.159625 0.387098 -0.08735
C_ C_ 0.131175 0.278964 0.413413 0.68181
C_ C_ 0.139224 0.0783375 0.401548 0.68181
C_ C_ 0.142305 0.0237919 0.398964 -0.05681
C_ C_ 0.131245 0.496773 0.422762 -0.08735
C_ C_ 0.130696 0.442221 0.420512 -0.05681
C_ C_ 0.137047 0.419009 0.392938 -0.05681
C_ C_ 0.142289 0.450703 0.3675 -0.08735
C_ C_ 0.145137 0.503043 0.370948 -0.08735
C_ C_ 0.127517 0.412413 0.445099 -0.08735
C_ C_ 0.118773 0.359704 0.442199 -0.08735
C_ C_ 0.124302 0.336696 0.415821 -0.05681
C_ C_ 0.126952 0.366722 0.390216 -0.08735
C_ C_ 0.0379832 0.177613 0.405281 0.68181
C_ C_ 0.120993 0.113474 0.481304 0.1947
C_ C_ 0.0722836 0.133245 0.00862144 -0.08735
C_ C_ 0.0939258 0.158079 0.0312882 -0.08735
C_ C_ 0.131551 0.195218 0.0268693 -0.05681
C_ C_ 0.149322 0.202759 0.997737 0.18498
C_ C_ 0.181937 0.235678 0.494405 -0.08735
C_ C_ 0.210093 0.264732 0.0157599 -0.08735
C_ C_ 0.189101 0.259196 0.0432686 -0.08735
C_ C_ 0.151691 0.223455 0.0499175 0.18498
C_ C_ 0.186227 0.188178 0.0959304 0.44287
C_ C_ 0.101636 0.215052 0.0951672 0.44287
C_ C_ 0.0961851 0.204602 0.123996 -0.05681
C_ C_ 0.0494832 0.209212 0.138639 -0.08735
C_ C_ 0.0447325 0.19749 0.167058 -0.08735
C_ C_ 0.0858437 0.184094 0.182362 -0.05681
C_ C_ 0.133906 0.180428 0.169318 -0.05681
C_ C_ 0.137998 0.192607 0.139576 -0.05681
C_ C_ 0.184807 0.185094 0.126577 -0.05681
C_ C_ 0.228464 0.179373 0.14409 -0.08735
C_ C_ 0.224568 0.174643 0.174091 -0.08735
C_ C_ 0.176381 0.17507 0.18634 -0.05681
C_ C_ 0.170389 0.163237 0.215124 0.44287
C_ C_ 0.0833952 0.180542 0.212627 0.44287
C_ C_ 0.116815 0.161278 0.258582 0.18498
C_ C_ 0.090976 0.113634 0.263567 -0.08735
C_ C_ 0.0767754 0.0996632 0.291258 -0.08735
C_ C_ 0.0880041 0.131707 0.315317 -0.08735
C_ C_ 0.118844 0.175282 0.310688 0.18498
C_ C_ 0.129925 0.191648 0.282043 -0.05681
C_ C_ 0.157263 0.236637 0.278325 -0.08735
C_ C_ 0.176978 0.260527 0.302629 -0.08735
C_ C_ 0.172559 0.237395 0.329096 0.1947
C_ C_ 0.267191 0.320526 0.153094 0.68181
C_ C_ 0.211198 0.31968 0.147615 -0.05681
C_ C_ 0.178239 0.311034 0.170543 -0.08735
C_ C_ 0.127829 0.323532 0.167499 -0.05681
C_ C_ 0.105339 0.328117 0.140142 -0.05681
C_ C_ 0.13967 0.33611 0.117525 -0.08735
C_ C_ 0.19213 0.33095 0.120357 -0.08735
C_ C_ 0.0957101 0.323429 0.192192 -0.08735
C_ C_ 0.0442811 0.323105 0.188956 -0.08735
C_ C_ 0.0215243 0.328961 0.161736 -0.05681
C_ C_ 0.0527853 0.329702 0.137617 -0.08735
C_ C_ 0.372454 0.228417 0.158809 0.68181
C_ C_ 0.360224 0.424428 0.148071 0.68181
C_ C_ 0.362547 0.48069 0.145849 -0.05681
C_ C_ 0.367042 0.0121191 0.1717 -0.08735
C_ C_ 0.366405 0.0660163 0.168355 -0.05681
C_ C_ 0.369758 0.087566 0.14074 -0.05681
C_ C_ 0.37798 0.0553434 0.117087 -0.08735
C_ C_ 0.362877 0.505067 0.119368 -0.08735
C_ C_ 0.361491 0.0974894 0.192749 -0.08735
C_ C_ 0.359072 0.149304 0.188549 -0.08735
C_ C_ 0.368841 0.170774 0.162212 -0.05681
C_ C_ 0.369567 0.141247 0.136853 -0.08735
C_ C_ 0.463455 0.333393 0.155049 0.68181
C_ C_ 0.411226 0.376394 0.230411 0.1947
C_ C_ 0.432474 0.381708 0.257672 -0.08735
C_ C_ 0.407806 0.358511 0.2821 -0.08735
C_ C_ 0.371548 0.321327 0.277527 -0.05681
C_ C_ 0.357568 0.310434 0.248286 0.18498
C_ C_ 0.318294 0.274938 0.24334 -0.08735
C_ C_ 0.294399 0.250407 0.265429 -0.08735
C_ C_ 0.31175 0.257633 0.294122 -0.08735
C_ C_ 0.34735 0.294128 0.301064 0.18498
C_ C_ 0.315383 0.309816 0.3494 0.44287
C_ C_ 0.403184 0.294578 0.343729 0.44287
C_ C_ 0.411178 0.295849 0.373548 -0.05681
C_ C_ 0.459362 0.285212 0.385405 -0.08735
C_ C_ 0.467776 0.290277 0.41544 -0.08735
C_ C_ 0.426189 0.304275 0.433752 -0.05681
C_ C_ 0.376823 0.307354 0.421224 -0.05681
C_ C_ 0.369771 0.303703 0.391622 -0.05681
C_ C_ 0.321035 0.307839 0.379125 -0.05681
C_ C_ 0.278611 0.318076 0.397521 -0.08735
C_ C_ 0.287209 0.330202 0.426479 -0.08735
C_ C_ 0.334173 0.315988 0.43879 -0.05681
C_ C_ 0.341913 0.317342 0.469229 0.44287
C_ C_ 0.432002 0.304058 0.463796 0.44287
C_ C_ 0.405636 0.349692 0.00791803 0.18498
C_ C_ 0.440304 0.389925 0.016265 -0.08735
C_ C_ 0.451386 0.401702 0.0442092 -0.08735
C_ C_ 0.425322 0.374933 0.0662175 -0.08735
C_ C_ 0.393606 0.336128 0.0604344 0.18498
C_ C_ 0.384579 0.321416 0.030833 -0.05681
C_ C_ 0.354371 0.277253 0.025849 -0.08735
C_ C_ 0.329885 0.254147 0.0484637 -0.08735
C_ C_ 0.338961 0.270621 0.0773727 0.1947
N_ N_ 0.146111 0.158276 0.477054 -0.29468
N_ N_ 0.145033 0.206414 0.0800425 -0.17154
N_ N_ 0.12561 0.176207 0.228828 -0.17154
N_ N_ 0.138354 0.199529 0.332941 -0.29468
N_ N_ 0.374918 0.338319 0.226524 -0.29468
N_ N_ 0.35693 0.305484 0.332617 -0.17154
N_ N_ 0.389507 0.312118 0.480624 -0.17154
N_ N_ 0.366215 0.313294 0.081583 -0.29468
O_ O_ 0.218174 0.188925 0.429756 -0.58347
O_ O_ 0.209641 0.181475 0.383334 -0.58347
O_ O_ 0.125604 0.250982 0.435327 -0.58347
O_ O_ 0.140336 0.257304 0.389404 -0.58347
O_ O_ 0.154667 0.101163 0.423232 -0.58347
O_ O_ 0.127852 0.104511 0.379319 -0.58347
O_ O_ 0.0659814 0.162644 0.425177 -0.58347
O_ O_ 0.058433 0.187069 0.381563 -0.58347
O_ O_ 0.0615213 0.234625 0.080583 -0.46727
O_ O_ 0.229162 0.177922 0.0816838 -0.46727
O_ O_ 0.0396306 0.18559 0.226369 -0.46727
O_ O_ 0.211436 0.152907 0.23112 -0.46727
O_ O_ 0.284397 0.3205 0.17796 -0.58347
O_ O_ 0.296476 0.31846 0.131804 -0.58347
O_ O_ 0.376065 0.256305 0.180952 -0.58347
O_ O_ 0.363094 0.2493 0.135363 -0.58347
O_ O_ 0.350005 0.40466 0.171657 -0.58347
O_ O_ 0.376112 0.398091 0.126664 -0.58347
O_ O_ 0.435041 0.341809 0.175194 -0.58347
O_ O_ 0.444156 0.324601 0.130231 -0.58347
O_ O_ 0.439148 0.273589 0.327029 -0.46727
O_ O_ 0.27054 0.318826 0.336802 -0.46727
O_ O_ 0.474948 0.290311 0.475712 -0.46727
O_ O_ 0.302409 0.328341 0.485036 -0.46727
Zn Zn 0.119928 0.200082 0.880519 0.90689
Zn Zn 0.132763 0.189041 0.927081 0.90689
Zn Zn 0.370384 0.302174 0.63269 0.90689
Zn Zn 0.36456 0.309331 0.679947 0.90689
H_ H_ 0.292553 0.20486 0.939446 0.11455
H_ H_ 0.360593 0.133743 0.849047 0.11455
H_ H_ 0.2714 0.151046 0.852927 0.11455
H_ H_ 0.382141 0.225763 0.956497 0.11455
H_ H_ 0.469438 0.199856 0.957356 0.11455
H_ H_ 0.451393 0.143563 0.868797 0.11455
H_ H_ 0.101703 0.0215907 0.939601 0.11455
H_ H_ 0.0453534 0.454132 0.868618 0.11455
H_ H_ 0.14562 0.0393669 0.851299 0.11455
H_ H_ 0.19032 0.436049 0.954157 0.11455
H_ H_ 0.169923 0.34762 0.953717 0.11455
H_ H_ 0.0791574 0.363032 0.877929 0.11455
H_ H_ 0.0651958 0.128164 0.964242 0.11455
H_ H_ 0.0944078 0.0610211 0.511632 0.11455
H_ H_ 0.135678 0.108047 0.553146 0.11455
H_ H_ 0.202544 0.248122 0.970981 0.11455
H_ H_ 0.215662 0.30097 0.513343 0.11455
H_ H_ 0.194745 0.277363 0.562848 0.11455
H_ H_ 0.0151408 0.196957 0.617249 0.11455
H_ H_ -0.00248556 0.183344 0.66895 0.11455
H_ H_ 0.266819 0.185848 0.639214 0.11455
H_ H_ 0.251472 0.180279 0.690957 0.11455
H_ H_ 0.0521902 0.098417 0.752222 0.11455
H_ H_ 0.0287292 0.079478 0.799543 0.11455
H_ H_ 0.0618823 0.130087 0.838234 0.11455
H_ H_ 0.147571 0.256665 0.754254 0.11455
H_ H_ 0.17342 0.308352 0.79398 0.11455
H_ H_ 0.167189 0.27422 0.844725 0.11455
H_ H_ 0.192044 0.304025 0.699687 0.11455
H_ H_ 0.126294 0.327174 0.601328 0.11455
H_ H_ 0.21297 0.307273 0.607288 0.11455
H_ H_ 0.108248 0.314132 0.718182 0.11455
H_ H_ 0.0162515 0.300765 0.708661 0.11455
H_ H_ 0.0390236 0.332102 0.618009 0.11455
H_ H_ 0.323754 0.47474 0.691902 0.11455
H_ H_ 0.379661 0.0489481 0.596143 0.11455
H_ H_ 0.395397 0.462893 0.607907 0.11455
H_ H_ 0.343623 0.0575385 0.712651 0.11455
H_ H_ 0.337179 0.14887 0.708137 0.11455
H_ H_ 0.370167 0.138571 0.617888 0.11455
H_ H_ 0.415666 0.386082 0.716241 0.11455
H_ H_ 0.420461 0.419379 0.763081 0.11455
H_ H_ 0.395178 0.369076 0.806156 0.11455
H_ H_ 0.303973 0.243628 0.725987 0.11455
H_ H_ 0.278417 0.18823 0.768288 0.11455
H_ H_ 0.296596 0.220903 0.815842 0.11455
H_ H_ 0.491657 0.287745 0.869882 0.11455
H_ H_ 0.512338 0.305947 0.920683 0.11455
H_ H_ 0.243079 0.325158 0.889343 0.11455
H_ H_ 0.256617 0.342476 0.940436 0.11455
H_ H_ 0.456831 0.409417 -0.00013799999999997148 0.11455
H_ H_ 0.456451 0.417945 0.549501 0.11455
H_ H_ 0.419905 0.371001 0.589026 0.11455
H_ H_ 0.349719 0.229363 0.509373 0.11455
H_ H_ 0.298872 0.194805 0.549287 0.11455
H_ H_ 0.317921 0.226999 0.598456 0.11455
C_ C_ 0.220432 0.185287 0.901308 0.68181
C_ C_ 0.276902 0.177328 0.897466 -0.05681
C_ C_ 0.31036 0.194043 0.919175 -0.08735
C_ C_ 0.362287 0.18224 0.917595 -0.05681
C_ C_ 0.381172 0.160135 0.892087 -0.05681
C_ C_ 0.348474 0.151584 0.868766 -0.08735
C_ C_ 0.295472 0.161213 0.871754 -0.08735
C_ C_ 0.394963 0.200695 0.939745 -0.08735
C_ C_ 0.445797 0.191744 0.937622 -0.08735
C_ C_ 0.466223 0.17184 0.912676 -0.05681
C_ C_ 0.434058 0.153944 0.889031 -0.08735
C_ C_ 0.123095 0.292846 0.912016 0.68181
C_ C_ 0.122908 0.0938294 0.898067 0.68181
C_ C_ 0.121721 0.0380697 0.894621 -0.05681
C_ C_ 0.148665 0.508925 0.918692 -0.08735
C_ C_ 0.138749 0.455729 0.918816 -0.05681
C_ C_ 0.104143 0.43641 0.898781 -0.05681
C_ C_ 0.0771464 0.467969 0.881763 -0.08735
C_ C_ 0.0874594 0.519878 0.880752 -0.08735
C_ C_ 0.163664 0.423199 0.937596 -0.08735
C_ C_ 0.151551 0.371834 0.936713 -0.08735
C_ C_ 0.126372 0.34883 0.913705 -0.05681
C_ C_ 0.10124 0.38258 0.894732 -0.08735
C_ C_ 0.0295559 0.188468 0.906354 0.68181
C_ C_ 0.0838696 0.147943 0.980901 0.1947
C_ C_ 0.116242 0.0943407 0.508274 -0.08735
C_ C_ 0.132195 0.124594 0.531965 -0.08735
C_ C_ 0.154492 0.171662 0.527618 -0.05681
C_ C_ 0.159623 0.189056 0.4994 0.18498
C_ C_ 0.186883 0.240952 0.992677 -0.08735
C_ C_ 0.191563 0.266943 0.518284 -0.08735
C_ C_ 0.184483 0.25165 0.545776 -0.08735
C_ C_ 0.163683 0.203434 0.551749 0.18498
C_ C_ 0.192474 0.177507 0.599368 0.44287
C_ C_ 0.104906 0.197759 0.592162 0.44287
C_ C_ 0.0964209 0.191443 0.621842 -0.05681
C_ C_ 0.046462 0.191602 0.632652 -0.08735
C_ C_ 0.0374697 0.183957 0.66183 -0.08735
C_ C_ 0.0773827 0.179788 0.680413 -0.05681
C_ C_ 0.127911 0.178938 0.671027 -0.05681
C_ C_ 0.136096 0.180942 0.641376 -0.05681
C_ C_ 0.18594 0.178711 0.629591 -0.05681
C_ C_ 0.228081 0.180269 0.648936 -0.08735
C_ C_ 0.220149 0.175466 0.679113 -0.08735
C_ C_ 0.168886 0.174384 0.690791 -0.05681
C_ C_ 0.157767 0.169965 0.719669 0.44287
C_ C_ 0.0691798 0.180764 0.710521 0.44287
C_ C_ 0.096015 0.1658 0.75939 0.18498
C_ C_ 0.0719021 0.119663 0.767002 -0.08735
C_ C_ 0.0572177 0.110219 0.795527 -0.08735
C_ C_ 0.0791666 0.137658 0.817421 -0.08735
C_ C_ 0.105039 0.181909 0.810904 0.18498
C_ C_ 0.112385 0.195913 0.781975 -0.05681
C_ C_ 0.137968 0.243551 0.775854 -0.08735
C_ C_ 0.151381 0.27402 0.79962 -0.08735
C_ C_ 0.145634 0.256303 0.827401 0.1947
C_ C_ 0.268028 0.307949 0.656594 0.68181
C_ C_ 0.212671 0.30962 0.653875 -0.05681
C_ C_ 0.178366 0.311382 0.677813 -0.08735
C_ C_ 0.125544 0.315561 0.673616 -0.05681
C_ C_ 0.107019 0.316471 0.645237 -0.05681
C_ C_ 0.13923 0.318357 0.622465 -0.08735
C_ C_ 0.18985 0.30681 0.625834 -0.08735
C_ C_ 0.0917042 0.311084 0.696111 -0.08735
C_ C_ 0.0401061 0.310062 0.691045 -0.08735
C_ C_ 0.0200667 0.316559 0.663761 -0.05681
C_ C_ 0.0551544 0.322315 0.639932 -0.08735
C_ C_ 0.367899 0.206771 0.663035 0.68181
C_ C_ 0.358797 0.405642 0.652292 0.68181
C_ C_ 0.361998 0.460931 0.650932 -0.05681
C_ C_ 0.356197 -0.009278000000000008 0.669897 -0.08735
C_ C_ 0.358249 0.0432167 0.667725 -0.05681
C_ C_ 0.364156 0.0657507 0.641126 -0.05681
C_ C_ 0.368062 0.033847 0.617509 -0.08735
C_ C_ 0.382878 0.483879 0.626296 -0.08735
C_ C_ 0.350805 0.0747762 0.691676 -0.08735
C_ C_ 0.349174 0.127259 0.689786 -0.08735
C_ C_ 0.363404 0.151398 0.663749 -0.05681
C_ C_ 0.368749 0.119725 0.639574 -0.08735
C_ C_ 0.465001 0.305732 0.6595 0.68181
C_ C_ 0.397074 0.364208 0.732856 0.1947
C_ C_ 0.402278 0.383884 0.761225 -0.08735
C_ C_ 0.384852 0.357055 0.784292 -0.08735
C_ C_ 0.364365 0.306391 0.780368 -0.05681
C_ C_ 0.351354 0.292034 0.75185 0.18498
C_ C_ 0.319558 0.249264 0.747577 -0.08735
C_ C_ 0.300489 0.221996 0.770651 -0.08735
C_ C_ 0.308196 0.242069 0.797889 -0.08735
C_ C_ 0.343863 0.278592 0.803643 0.18498
C_ C_ 0.314707 0.308895 0.850695 0.44287
C_ C_ 0.399624 0.28448 0.843309 0.44287
C_ C_ 0.412476 0.299037 0.871351 -0.05681
C_ C_ 0.460234 0.291789 0.883322 -0.08735
C_ C_ 0.470388 0.303159 0.911916 -0.08735
C_ C_ 0.428505 0.316475 0.930246 -0.05681
C_ C_ 0.382147 0.325816 0.919077 -0.05681
C_ C_ 0.372002 0.311446 0.891452 -0.05681
C_ C_ 0.322537 0.316173 0.880133 -0.05681
C_ C_ 0.280436 0.327638 0.897784 -0.08735
C_ C_ 0.289718 0.334623 0.927156 -0.08735
C_ C_ 0.341008 0.33593 0.937591 -0.05681
C_ C_ 0.350275 0.349167 0.966231 0.44287
C_ C_ 0.435525 0.322024 0.960269 0.44287
C_ C_ 0.398387 0.32343 0.511036 0.18498
C_ C_ 0.423997 0.369379 0.517498 -0.08735
C_ C_ 0.437557 0.3828 0.545625 -0.08735
C_ C_ 0.420282 0.354132 0.568172 -0.08735
C_ C_ 0.38511 0.313535 0.563069 0.18498
C_ C_ 0.377245 0.294616 0.533913 -0.05681
C_ C_ 0.34804 0.250057 0.530352 -0.08735
C_ C_ 0.323142 0.228141 0.553253 -0.08735
C_ C_ 0.330835 0.248697 0.580935 0.1947
N_ N_ 0.124719 0.178785 0.975714 -0.29468
N_ N_ 0.152986 0.188403 0.581547 -0.17154
N_ N_ 0.109708 0.174932 0.728576 -0.17154
N_ N_ 0.119147 0.213417 0.832915 -0.29468
N_ N_ 0.372041 0.319522 0.72887 -0.29468
N_ N_ 0.352868 0.292233 0.833425 -0.17154
N_ N_ 0.39652 0.340983 0.978023 -0.17154
N_ N_ 0.362488 0.289793 0.585404 -0.29468
O_ O_ 0.201347 0.171505 0.924902 -0.58347
O_ O_ 0.194952 0.211233 0.884234 -0.58347
O_ O_ 0.144665 0.266849 0.931021 -0.58347
O_ O_ 0.112098 0.273251 0.887237 -0.58347
O_ O_ 0.117895 0.113343 0.922403 -0.58347
O_ O_ 0.12943 0.123189 0.876555 -0.58347
O_ O_ 0.0576737 0.202868 0.92693 -0.58347
O_ O_ 0.0475312 0.18694 0.88113 -0.58347
O_ O_ 0.0656055 0.198089 0.574166 -0.46727
O_ O_ 0.236927 0.16953 0.588971 -0.46727
O_ O_ 0.024583 0.195733 0.721467 -0.46727
O_ O_ 0.195264 0.170491 0.737099 -0.46727
O_ O_ 0.287991 0.311926 0.680933 -0.58347
O_ O_ 0.294905 0.305629 0.634834 -0.58347
O_ O_ 0.366831 0.235213 0.685299 -0.58347
O_ O_ 0.370758 0.228231 0.638589 -0.58347
O_ O_ 0.357417 0.38253 0.675996 -0.58347
O_ O_ 0.360465 0.377756 0.629164 -0.58347
O_ O_ 0.437683 0.304298 0.680007 -0.58347
O_ O_ 0.445203 0.30515 0.63433 -0.58347
O_ O_ 0.436725 0.267003 0.827787 -0.46727
O_ O_ 0.267582 0.313184 0.840424 -0.46727
O_ O_ 0.478081 0.309089 0.971538 -0.46727
O_ O_ 0.310642 0.355082 0.982568 -0.46727
Zn Zn 0.1354 0.682661 0.384438 0.90689
Zn Zn 0.144933 0.680316 0.431142 0.90689
Zn Zn 0.375375 0.821106 0.132842 0.90689
Zn Zn 0.367864 0.826462 0.180527 0.90689
H_ H_ 0.313716 0.697805 0.447691 0.11455
H_ H_ 0.381607 0.64365 0.353683 0.11455
H_ H_ 0.287472 0.657246 0.36027 0.11455
H_ H_ 0.403216 0.692202 0.467671 0.11455
H_ H_ 0.492244 0.688219 0.457494 0.11455
H_ H_ 0.467117 0.650346 0.368357 0.11455
H_ H_ 0.133719 0.513075 0.443833 0.11455
H_ H_ 0.120143 0.930791 0.349155 0.11455
H_ H_ 0.148372 0.52696 0.351821 0.11455
H_ H_ 0.147656 0.927926 0.464656 0.11455
H_ H_ 0.151196 0.836001 0.460312 0.11455
H_ H_ 0.110553 0.847696 0.371655 0.11455
H_ H_ 0.0870134 0.613282 0.468253 0.11455
H_ H_ 0.0509858 0.600539 0.0163596 0.11455
H_ H_ 0.100006 0.636372 0.0582463 0.11455
H_ H_ 0.200557 0.749096 0.479515 0.11455
H_ H_ 0.223794 0.808483 0.0146722 0.11455
H_ H_ 0.205841 0.78301 0.0640799 0.11455
H_ H_ 0.0210971 0.707522 0.12619 0.11455
H_ H_ 0.00886014 0.694748 0.175465 0.11455
H_ H_ 0.27193 0.669505 0.137886 0.11455
H_ H_ 0.263338 0.657475 0.1894 0.11455
H_ H_ 0.080123 0.588783 0.25204 0.11455
H_ H_ 0.0546971 0.568399 0.300407 0.11455
H_ H_ 0.0879122 0.616619 0.341408 0.11455
H_ H_ 0.186271 0.741491 0.262636 0.11455
H_ H_ 0.206582 0.793678 0.30358 0.11455
H_ H_ 0.187286 0.766253 0.353666 0.11455
H_ H_ 0.196935 0.80602 0.194986 0.11455
H_ H_ 0.127539 0.839477 0.0965672 0.11455
H_ H_ 0.222029 0.837216 0.10533 0.11455
H_ H_ 0.115807 0.808892 0.212953 0.11455
H_ H_ 0.0271768 0.806664 0.207675 0.11455
H_ H_ 0.0448309 0.827687 0.117172 0.11455
H_ H_ 0.371923 0.996848 0.193363 0.11455
H_ H_ 0.377109 0.575966 0.0957114 0.11455
H_ H_ 0.384553 0.979988 0.101493 0.11455
H_ H_ 0.360763 0.579173 0.213257 0.11455
H_ H_ 0.388159 0.668826 0.211046 0.11455
H_ H_ 0.384786 0.65805 0.117781 0.11455
H_ H_ 0.42543 0.89463 0.217911 0.11455
H_ H_ 0.439037 0.922418 0.268061 0.11455
H_ H_ 0.40858 0.86663 0.309532 0.11455
H_ H_ 0.312699 0.756559 0.223372 0.11455
H_ H_ 0.296162 0.69 0.259788 0.11455
H_ H_ 0.307492 0.714167 0.311909 0.11455
H_ H_ 0.494405 0.782745 0.372662 0.11455
H_ H_ 0.507673 0.790393 0.424684 0.11455
H_ H_ 0.245682 0.825644 0.387683 0.11455
H_ H_ 0.251827 0.81833 0.439466 0.11455
H_ H_ 0.440776 0.899866 0.501843 0.11455
H_ H_ 0.428915 0.95594 0.0500923 0.11455
H_ H_ 0.420561 0.895564 0.0870942 0.11455
H_ H_ 0.344077 0.768779 0.00430405 0.11455
H_ H_ 0.317587 0.71063 0.0453467 0.11455
H_ H_ 0.332131 0.740087 0.0951506 0.11455
C_ C_ 0.241126 0.689197 0.40784 0.68181
C_ C_ 0.295877 0.686088 0.403602 -0.05681
C_ C_ 0.328558 0.68829 0.426587 -0.08735
C_ C_ 0.380785 0.676149 0.423554 -0.05681
C_ C_ 0.398603 0.665413 0.395788 -0.05681
C_ C_ 0.365307 0.657498 0.372911 -0.08735
C_ C_ 0.313052 0.664648 0.37774 -0.08735
C_ C_ 0.414589 0.677807 0.446737 -0.08735
C_ C_ 0.4665 0.680067 0.440813 -0.08735
C_ C_ 0.486105 0.673734 0.412954 -0.05681
C_ C_ 0.45253 0.663464 0.389479 -0.08735
C_ C_ 0.133522 0.778192 0.413853 0.68181
C_ C_ 0.140415 0.584933 0.400315 0.68181
C_ C_ 0.138134 0.527413 0.397735 -0.05681
C_ C_ 0.150737 0.992185 0.422398 -0.08735
C_ C_ 0.142471 0.939942 0.420104 -0.05681
C_ C_ 0.134836 0.916484 0.392681 -0.05681
C_ C_ 0.129484 0.949207 0.369029 -0.08735
C_ C_ 0.131215 1.00185 0.372201 -0.08735
C_ C_ 0.145518 0.909369 0.444757 -0.08735
C_ C_ 0.148155 0.858825 0.441831 -0.08735
C_ C_ 0.134663 0.835752 0.416031 -0.05681
C_ C_ 0.128591 0.865073 0.391177 -0.08735
C_ C_ 0.0418994 0.675515 0.40941 0.68181
C_ C_ 0.10588 0.629054 0.485009 0.1947
C_ C_ 0.0788816 0.629679 0.0130497 -0.08735
C_ C_ 0.109236 0.64827 0.0355959 -0.08735
C_ C_ 0.139044 0.689836 0.0306343 -0.05681
C_ C_ 0.146121 0.708037 1.00121772 0.18498
C_ C_ 0.189557 0.739202 0.499761 -0.08735
C_ C_ 0.204322 0.773047 0.0194134 -0.08735
C_ C_ 0.191342 0.760967 0.047107 -0.08735
C_ C_ 0.160147 0.718889 0.0542046 0.18498
C_ C_ 0.196317 0.699028 0.100924 0.44287
C_ C_ 0.108674 0.710355 0.0971172 0.44287
C_ C_ 0.103788 0.705644 0.12795 -0.05681
C_ C_ 0.0555737 0.707899 0.138921 -0.08735
C_ C_ 0.0485318 0.698026 0.168472 -0.08735
C_ C_ 0.09124 0.68943 0.185989 -0.05681
C_ C_ 0.140776 0.686445 0.173529 -0.05681
C_ C_ 0.145782 0.693462 0.143845 -0.05681
C_ C_ 0.191378 0.691904 0.131172 -0.05681
C_ C_ 0.235118 0.678023 0.147421 -0.08735
C_ C_ 0.230363 0.674179 0.177357 -0.08735
C_ C_ 0.181282 0.67573 0.191016 -0.05681
C_ C_ 0.175245 0.668388 0.22085 0.44287
C_ C_ 0.0862989 0.68721 0.216189 0.44287
C_ C_ 0.118756 0.659452 0.263378 0.18498
C_ C_ 0.0909993 0.613776 0.269889 -0.08735
C_ C_ 0.0825612 0.597136 0.298009 -0.08735
C_ C_ 0.0973791 0.628484 0.320499 -0.08735
C_ C_ 0.127135 0.671745 0.315371 0.18498
C_ C_ 0.140129 0.686981 0.286126 -0.05681
C_ C_ 0.170533 0.731929 0.282119 -0.08735
C_ C_ 0.186986 0.758151 0.30595 -0.08735
C_ C_ 0.173917 0.742721 0.333986 0.1947
C_ C_ 0.271815 0.815402 0.154708 0.68181
C_ C_ 0.216462 0.81639 0.150999 -0.05681
C_ C_ 0.182591 0.811726 0.173722 -0.08735
C_ C_ 0.13153 0.816857 0.169428 -0.05681
C_ C_ 0.112074 0.825543 0.141902 -0.05681
C_ C_ 0.143399 0.832743 0.118441 -0.08735
C_ C_ 0.196087 0.829295 0.12265 -0.08735
C_ C_ 0.0992444 0.815279 0.193141 -0.08735
C_ C_ 0.0467446 0.81046 0.189034 -0.08735
C_ C_ 0.0232965 0.821735 0.161361 -0.05681
C_ C_ 0.0587423 0.826863 0.137749 -0.08735
C_ C_ 0.375625 0.727188 0.162021 0.68181
C_ C_ 0.364344 0.923175 0.149909 0.68181
C_ C_ 0.370441 0.980197 0.147094 -0.05681
C_ C_ 0.360698 0.511938 0.170444 -0.08735
C_ C_ 0.362156 0.565671 0.16792 -0.05681
C_ C_ 0.36998 0.589295 0.140603 -0.05681
C_ C_ 0.373348 0.557458 0.116836 -0.08735
C_ C_ 0.377124 0.00317877 0.120352 -0.08735
C_ C_ 0.362513 0.596514 0.192841 -0.08735
C_ C_ 0.376531 0.648777 0.191349 -0.08735
C_ C_ 0.379353 0.671082 0.163542 -0.05681
C_ C_ 0.375808 0.642357 0.138602 -0.08735
C_ C_ 0.467248 0.827772 0.155843 0.68181
C_ C_ 0.408514 0.872233 0.235128 0.1947
C_ C_ 0.415868 0.888064 0.262636 -0.08735
C_ C_ 0.401069 0.856275 0.28671 -0.08735
C_ C_ 0.372861 0.811169 0.280241 -0.05681
C_ C_ 0.358391 0.802045 0.250827 0.18498
C_ C_ 0.331339 0.758687 0.244563 -0.08735
C_ C_ 0.316212 0.725467 0.266837 -0.08735
C_ C_ 0.324082 0.737016 0.296285 -0.08735
C_ C_ 0.352463 0.781247 0.303113 0.18498
C_ C_ 0.320601 0.808871 0.349826 0.44287
C_ C_ 0.407322 0.784908 0.346049 0.44287
C_ C_ 0.414584 0.793414 0.375454 -0.05681
C_ C_ 0.462209 0.789135 0.387095 -0.08735
C_ C_ 0.469648 0.79771 0.416753 -0.08735
C_ C_ 0.428186 0.806212 0.435456 -0.05681
C_ C_ 0.380882 0.813056 0.422378 -0.05681
C_ C_ 0.372957 0.806742 0.392168 -0.05681
C_ C_ 0.32473 0.810149 0.379429 -0.05681
C_ C_ 0.282838 0.818838 0.397151 -0.08735
C_ C_ 0.287745 0.821321 0.42712 -0.08735
C_ C_ 0.336614 0.817104 0.440176 -0.05681
C_ C_ 0.34321 0.822029 0.470905 0.44287
C_ C_ 0.432444 0.810241 0.465386 0.44287
C_ C_ 0.380795 0.863616 0.00906521 0.18498
C_ C_ 0.406061 0.908185 0.0156641 -0.08735
C_ C_ 0.41402 0.920333 0.0445755 -0.08735
C_ C_ 0.404878 0.887258 0.066997 -0.08735
C_ C_ 0.382466 0.839908 0.0617557 0.18498
C_ C_ 0.372407 0.827351 0.032139 -0.05681
C_ C_ 0.351379 0.778762 0.0271646 -0.08735
C_ C_ 0.333573 0.748243 0.0501186 -0.08735
C_ C_ 0.343446 0.764909 0.0788146 0.1947
N_ N_ 0.136979 0.670363 0.479981 -0.29468
N_ N_ 0.15422 0.704954 0.0841233 -0.17154
N_ N_ 0.127028 0.67286 0.233159 -0.17154
N_ N_ 0.142263 0.701036 0.337824 -0.29468
N_ N_ 0.376953 0.831497 0.22864 -0.29468
N_ N_ 0.360699 0.793872 0.333481 -0.17154
N_ N_ 0.390195 0.81614 0.483172 -0.17154
N_ N_ 0.369253 0.809656 0.083407 -0.29468
O_ O_ 0.221037 0.682279 0.432154 -0.58347
O_ O_ 0.212655 0.695966 0.386352 -0.58347
O_ O_ 0.148977 0.752302 0.434342 -0.58347
O_ O_ 0.122496 0.757404 0.390049 -0.58347
O_ O_ 0.131785 0.607136 0.424769 -0.58347
O_ O_ 0.150159 0.610439 0.378018 -0.58347
O_ O_ 0.067927 0.686861 0.430843 -0.58347
O_ O_ 0.0615286 0.676258 0.385211 -0.58347
O_ O_ 0.0676177 0.717491 0.0807316 -0.46727
O_ O_ 0.23891 0.693403 0.0879844 -0.46727
O_ O_ 0.0408322 0.688237 0.227951 -0.46727
O_ O_ 0.214064 0.653391 0.237922 -0.46727
O_ O_ 0.291385 0.81692 0.178971 -0.58347
O_ O_ 0.30009 0.819507 0.133267 -0.58347
O_ O_ 0.372651 0.752082 0.184088 -0.58347
O_ O_ 0.376262 0.748422 0.138224 -0.58347
O_ O_ 0.363537 0.90464 0.175088 -0.58347
O_ O_ 0.373263 0.895008 0.128761 -0.58347
O_ O_ 0.439149 0.830614 0.177188 -0.58347
O_ O_ 0.44728 0.823322 0.131539 -0.58347
O_ O_ 0.443753 0.761137 0.332197 -0.46727
O_ O_ 0.278937 0.827147 0.337613 -0.46727
O_ O_ 0.47466 0.799372 0.476844 -0.46727
O_ O_ 0.3037 0.836352 0.486179 -0.46727
Zn Zn 0.125227 0.695954 0.884319 0.90689
Zn Zn 0.133688 0.691532 0.932036 0.90689
Zn Zn 0.371648 0.799567 0.634384 0.90689
Zn Zn 0.361654 0.808554 0.682274 0.90689
H_ H_ 0.303037 0.695199 0.948429 0.11455
H_ H_ 0.371129 0.679852 0.848982 0.11455
H_ H_ 0.278807 0.687882 0.859235 0.11455
H_ H_ 0.393409 0.690313 0.966599 0.11455
H_ H_ 0.48049 0.678614 0.959201 0.11455
H_ H_ 0.457816 0.688366 0.865868 0.11455
H_ H_ 0.1715 0.524333 0.935524 0.11455
H_ H_ 0.143521 0.951821 0.844688 0.11455
H_ H_ 0.0761179 0.54122 0.861378 0.11455
H_ H_ 0.101783 0.940603 0.960662 0.11455
H_ H_ 0.107409 0.847007 0.958544 0.11455
H_ H_ 0.130992 0.859572 0.868007 0.11455
H_ H_ 0.0660777 0.62855 0.968037 0.11455
H_ H_ 0.0691716 0.581108 0.516441 0.11455
H_ H_ 0.0940297 0.632764 0.556082 0.11455
H_ H_ 0.188465 0.761398 0.975021 0.11455
H_ H_ 0.241472 0.789755 0.51954 0.11455
H_ H_ 0.220257 0.764995 0.569366 0.11455
H_ H_ 1.0154338 0.715349 0.627139 0.11455
H_ H_ 1.00617243 0.719761 0.67789 0.11455
H_ H_ 0.250153 0.623594 0.638985 0.11455
H_ H_ 0.241152 0.629502 0.692411 0.11455
H_ H_ 0.0750587 0.579201 0.754034 0.11455
H_ H_ 0.0449614 0.566059 0.802424 0.11455
H_ H_ 0.0681562 0.625189 0.842388 0.11455
H_ H_ 0.154901 0.74156 0.757698 0.11455
H_ H_ 0.185388 0.795342 0.795959 0.11455
H_ H_ 0.182282 0.761516 0.845783 0.11455
H_ H_ 0.187262 0.790151 0.697955 0.11455
H_ H_ 0.130255 0.82949 0.600428 0.11455
H_ H_ 0.217623 0.807145 0.608825 0.11455
H_ H_ 0.106837 0.816509 0.71838 0.11455
H_ H_ 0.0149053 0.81369 0.712032 0.11455
H_ H_ 0.0401463 0.831269 0.619783 0.11455
H_ H_ 0.354982 0.974345 0.691688 0.11455
H_ H_ 0.410838 0.552672 0.608221 0.11455
H_ H_ 0.381693 0.954234 0.603186 0.11455
H_ H_ 0.324247 0.56215 0.71529 0.11455
H_ H_ 0.345502 0.647199 0.713833 0.11455
H_ H_ 0.378028 0.638308 0.623852 0.11455
H_ H_ 0.415862 0.882008 0.715769 0.11455
H_ H_ 0.410631 0.928593 0.761367 0.11455
H_ H_ 0.386322 0.879174 0.804811 0.11455
H_ H_ 0.300336 0.745969 0.725852 0.11455
H_ H_ 0.261858 0.700947 0.765918 0.11455
H_ H_ 0.287201 0.721593 0.816419 0.11455
H_ H_ 0.475352 0.817499 0.87293 0.11455
H_ H_ 0.488377 0.8239 0.923446 0.11455
H_ H_ 0.222009 0.826749 0.889451 0.11455
H_ H_ 0.235671 0.8315 0.942467 0.11455
H_ H_ 0.416726 0.934257 0.99827286 0.11455
H_ H_ 0.454133 0.928444 0.551506 0.11455
H_ H_ 0.430181 0.868486 0.589716 0.11455
H_ H_ 0.349943 0.737995 0.509896 0.11455
H_ H_ 0.304364 0.701211 0.55336 0.11455
H_ H_ 0.315803 0.733309 0.599922 0.11455
C_ C_ 0.229787 0.690093 0.908886 0.68181
C_ C_ 0.284604 0.689375 0.904889 -0.05681
C_ C_ 0.317172 0.691883 0.926793 -0.08735
C_ C_ 0.371531 0.691094 0.922245 -0.05681
C_ C_ 0.389661 0.691348 0.894484 -0.05681
C_ C_ 0.356597 0.689818 0.870888 -0.08735
C_ C_ 0.304597 0.688252 0.876798 -0.08735
C_ C_ 0.406174 0.692011 0.944596 -0.08735
C_ C_ 0.457743 0.688375 0.940333 -0.08735
C_ C_ 0.47816 0.685712 0.912278 -0.05681
C_ C_ 0.443914 0.686609 0.888684 -0.08735
C_ C_ 0.123439 0.792015 0.911698 0.68181
C_ C_ 0.127172 0.595904 0.902705 0.68181
C_ C_ 0.123326 0.540992 0.900308 -0.05681
C_ C_ 0.106603 1.00775275 0.917257 -0.08735
C_ C_ 0.109357 0.952868 0.916138 -0.05681
C_ C_ 0.12319 0.930366 0.88911 -0.05681
C_ C_ 0.130199 0.963346 0.865565 -0.08735
C_ C_ 0.137811 0.0145444 0.869517 -0.08735
C_ C_ 0.106754 0.92286 0.939644 -0.08735
C_ C_ 0.114816 0.870533 0.938966 -0.08735
C_ C_ 0.124938 0.847567 0.91195 -0.05681
C_ C_ 0.127589 0.877779 0.887453 -0.08735
C_ C_ 0.0289696 0.690633 0.908864 0.68181
C_ C_ 0.0849278 0.646809 0.985444 0.1947
C_ C_ 0.0949336 0.611953 0.512862 -0.08735
C_ C_ 0.111995 0.640491 0.536461 -0.08735
C_ C_ 0.144923 0.68228 0.531711 -0.05681
C_ C_ 0.157235 0.696899 0.503344 0.18498
C_ C_ 0.182465 0.747406 0.996231 -0.08735
C_ C_ 0.212479 0.763359 0.523226 -0.08735
C_ C_ 0.200503 0.74826 0.551366 -0.08735
C_ C_ 0.166774 0.70998 0.556363 0.18498
C_ C_ 0.187731 0.673956 0.601889 0.44287
C_ C_ 0.106933 0.709095 0.598508 0.44287
C_ C_ 0.0970044 0.70245 0.627174 -0.05681
C_ C_ 0.0491108 0.711186 0.639067 -0.08735
C_ C_ 0.0418024 0.707105 0.668608 -0.08735
C_ C_ 0.078887 0.684878 0.685711 -0.05681
C_ C_ 0.124452 0.670461 0.673213 -0.05681
C_ C_ 0.132972 0.676218 0.642877 -0.05681
C_ C_ 0.180323 0.666038 0.631406 -0.05681
C_ C_ 0.217926 0.645664 0.648424 -0.08735
C_ C_ 0.212978 0.644691 0.67813 -0.08735
C_ C_ 0.165991 0.658903 0.691164 -0.05681
C_ C_ 0.157474 0.655704 0.721049 0.44287
C_ C_ 0.0717055 0.678999 0.715444 0.44287
C_ C_ 0.101827 0.65287 0.763004 0.18498
C_ C_ 0.0763772 0.610238 0.77083 -0.08735
C_ C_ 0.0633581 0.601007 0.797606 -0.08735
C_ C_ 0.082257 0.631125 0.820131 -0.08735
C_ C_ 0.113004 0.674042 0.81365 0.18498
C_ C_ 0.1183 0.687835 0.785128 -0.05681
C_ C_ 0.140851 0.733433 0.778544 -0.08735
C_ C_ 0.163826 0.761097 0.8007 -0.08735
C_ C_ 0.1569 0.746779 0.829365 0.1947
C_ C_ 0.266093 0.793568 0.658533 0.68181
C_ C_ 0.210136 0.79716 0.654194 -0.05681
C_ C_ 0.175155 0.800723 0.677631 -0.08735
C_ C_ 0.125408 0.814688 0.674236 -0.05681
C_ C_ 0.106157 0.822058 0.646539 -0.05681
C_ C_ 0.140231 0.821198 0.62232 -0.08735
C_ C_ 0.190397 0.80388 0.626123 -0.08735
C_ C_ 0.0929656 0.815318 0.697274 -0.08735
C_ C_ 0.0418371 0.821309 0.693705 -0.08735
C_ C_ 0.0207386 0.82714 0.665827 -0.05681
C_ C_ 0.0538665 0.828277 0.641939 -0.08735
C_ C_ 0.372603 0.706586 0.667681 0.68181
C_ C_ 0.366731 0.902919 0.650222 0.68181
C_ C_ 0.36075 0.95791 0.646876 -0.05681
C_ C_ 0.34425 0.490146 0.674382 -0.08735
C_ C_ 0.352519 0.543194 0.673292 -0.05681
C_ C_ 0.370634 0.567426 0.647212 -0.05681
C_ C_ 0.386259 0.535661 0.625289 -0.08735
C_ C_ 0.366417 0.979057 0.619578 -0.08735
C_ C_ 0.334542 0.576942 0.69435 -0.08735
C_ C_ 0.347801 0.627025 0.693487 -0.08735
C_ C_ 0.367983 0.651503 0.668983 -0.05681
C_ C_ 0.374062 0.621486 0.644665 -0.08735
C_ C_ 0.465192 0.812474 0.658904 0.68181
C_ C_ 0.393041 0.868884 0.733404 0.1947
C_ C_ 0.393894 0.890277 0.75995 -0.08735
C_ C_ 0.375093 0.865527 0.784197 -0.08735
C_ C_ 0.349867 0.818827 0.780631 -0.05681
C_ C_ 0.33957 0.801136 0.751262 0.18498
C_ C_ 0.313341 0.754762 0.746366 -0.08735
C_ C_ 0.290412 0.730507 0.769337 -0.08735
C_ C_ 0.300339 0.746984 0.797809 -0.08735
C_ C_ 0.33053 0.78977 0.803217 0.18498
C_ C_ 0.298629 0.820209 0.848768 0.44287
C_ C_ 0.386956 0.804203 0.843717 0.44287
C_ C_ 0.394157 0.816919 0.873367 -0.05681
C_ C_ 0.442513 0.824106 0.886159 -0.08735
C_ C_ 0.448664 0.826416 0.915675 -0.08735
C_ C_ 0.406888 0.830543 0.934021 -0.05681
C_ C_ 0.357353 0.83149 0.922421 -0.05681
C_ C_ 0.351417 0.824544 0.891149 -0.05681
C_ C_ 0.302946 0.828564 0.878966 -0.05681
C_ C_ 0.259913 0.827334 0.89753 -0.08735
C_ C_ 0.26704 0.832539 0.926882 -0.08735
C_ C_ 0.314968 0.834841 0.939691 -0.05681
C_ C_ 0.322027 0.847014 0.969158 0.44287
C_ C_ 0.413099 0.84049 0.963323 0.44287
C_ C_ 0.399397 0.830247 0.512684 0.18498
C_ C_ 0.422038 0.877845 0.518572 -0.08735
C_ C_ 0.436544 0.890024 0.54684 -0.08735
C_ C_ 0.421093 0.859926 0.568884 -0.08735
C_ C_ 0.388625 0.817406 0.564702 0.18498
C_ C_ 0.380857 0.800544 0.536173 -0.05681
C_ C_ 0.353259 0.755208 0.531364 -0.08735
C_ C_ 0.333287 0.729243 0.556092 -0.08735
C_ C_ 0.336935 0.749956 0.582584 0.1947
N_ N_ 0.123191 0.681976 0.979988 -0.29468
N_ N_ 0.153399 0.698231 0.586335 -0.17154
N_ N_ 0.111858 0.663193 0.732775 -0.17154
N_ N_ 0.131681 0.703869 0.8352 -0.29468
N_ N_ 0.364538 0.826517 0.7296 -0.29468
N_ N_ 0.339127 0.804433 0.832891 -0.17154
N_ N_ 0.371145 0.851843 0.980067 -0.17154
N_ N_ 0.370011 0.7882 0.586731 -0.29468
O_ O_ 0.209379 0.689493 0.932919 -0.58347
O_ O_ 0.200252 0.699191 0.88787 -0.58347
O_ O_ 0.13372 0.76831 0.934114 -0.58347
O_ O_ 0.117513 0.767779 0.888738 -0.58347
O_ O_ 0.124965 0.617493 0.927357 -0.58347
O_ O_ 0.130303 0.62215 0.881029 -0.58347
O_ O_ 0.0586333 0.693512 0.929297 -0.58347
O_ O_ 0.0461716 0.69026 0.884034 -0.58347
O_ O_ 0.0718137 0.731259 0.582938 -0.46727
O_ O_ 0.224819 0.650777 0.589195 -0.46727
O_ O_ 0.0273413 0.688194 0.726906 -0.46727
O_ O_ 0.195857 0.647599 0.73883 -0.46727
O_ O_ 0.286144 0.803184 0.683603 -0.58347
O_ O_ 0.292498 0.795279 0.636597 -0.58347
O_ O_ 0.365373 0.734122 0.689283 -0.58347
O_ O_ 0.37437 0.725879 0.642874 -0.58347
O_ O_ 0.359784 0.884276 0.674656 -0.58347
O_ O_ 0.368404 0.874193 0.627791 -0.58347
O_ O_ 0.436954 0.815129 0.680884 -0.58347
O_ O_ 0.447183 0.802132 0.634844 -0.58347
O_ O_ 0.424851 0.793088 0.826791 -0.46727
O_ O_ 0.254818 0.827711 0.837674 -0.46727
O_ O_ 0.458806 0.836055 0.974468 -0.46727
O_ O_ 0.284317 0.858228 0.984566 -0.46727
Zn Zn 0.630126 0.187642 0.379951 0.90689
Zn Zn 0.643654 0.181601 0.426844 0.90689
Zn Zn 0.873388 0.315274 0.130402 0.90689
Zn Zn 0.859749 0.321507 0.178015 0.90689
H_ H_ 0.80992 0.198906 0.4401 0.11455
H_ H_ 0.877312 0.164231 0.344715 0.11455
H_ H_ 0.787395 0.155071 0.352354 0.11455
H_ H_ 0.890066 0.18091 0.462079 0.11455
H_ H_ 0.985124 0.189417 0.455525 0.11455
H_ H_ 0.966621 0.160042 0.364158 0.11455
H_ H_ 0.670428 0.0208983 0.434884 0.11455
H_ H_ 0.62844 0.429174 0.346904 0.11455
H_ H_ 0.621867 0.0250033 0.347266 0.11455
H_ H_ 0.615787 0.427472 0.462071 0.11455
H_ H_ 0.596993 0.334862 0.457632 0.11455
H_ H_ 0.635165 0.348435 0.368935 0.11455
H_ H_ 0.58532 0.10451 0.462446 0.11455
H_ H_ 0.586339 0.0684043 0.018229 0.11455
H_ H_ 0.618495 0.117823 0.057214 0.11455
H_ H_ 0.690462 0.251211 0.471338 0.11455
H_ H_ 0.71986 0.302654 0.00981634 0.11455
H_ H_ 0.687288 0.289726 0.0606645 0.11455
H_ H_ 0.516601 0.206392 0.120621 0.11455
H_ H_ 0.502809 0.198689 0.171421 0.11455
H_ H_ 0.758619 0.14123 0.133466 0.11455
H_ H_ 0.741832 0.120431 0.186156 0.11455
H_ H_ 0.559932 0.0918223 0.24828 0.11455
H_ H_ 0.529151 0.0847628 0.300053 0.11455
H_ H_ 0.570353 0.132068 0.338922 0.11455
H_ H_ 0.668132 0.239066 0.252021 0.11455
H_ H_ 0.706935 0.283389 0.292582 0.11455
H_ H_ 0.688414 0.260351 0.341108 0.11455
H_ H_ 0.695584 0.303136 0.192909 0.11455
H_ H_ 0.62764 0.335862 0.093053 0.11455
H_ H_ 0.722289 0.338493 0.105769 0.11455
H_ H_ 0.604983 0.314352 0.211433 0.11455
H_ H_ 0.519265 0.332619 0.205315 0.11455
H_ H_ 0.539843 0.325798 0.113846 0.11455
H_ H_ 0.866272 0.485453 0.192591 0.11455
H_ H_ 0.86219 0.0604688 0.0947411 0.11455
H_ H_ 0.892694 0.480934 0.103007 0.11455
H_ H_ 0.84343 0.0667628 0.211818 0.11455
H_ H_ 0.851954 0.160369 0.20591 0.11455
H_ H_ 0.876718 0.145792 0.117586 0.11455
H_ H_ 0.90069 0.394093 0.21453 0.11455
H_ H_ 0.916582 0.421142 0.262521 0.11455
H_ H_ 0.894358 0.372804 0.305138 0.11455
H_ H_ 0.789537 0.252832 0.224989 0.11455
H_ H_ 0.775735 0.193823 0.262972 0.11455
H_ H_ 0.814214 0.209098 0.310321 0.11455
H_ H_ 0.99437 0.299307 0.371001 0.11455
H_ H_ 0.00293845 0.303884 0.422956 0.11455
H_ H_ 0.745939 0.332539 0.384699 0.11455
H_ H_ 0.754865 0.346117 0.435269 0.11455
H_ H_ 0.932074 0.411524 0.494155 0.11455
H_ H_ 0.93942 0.447105 0.0463603 0.11455
H_ H_ 0.928247 0.386223 0.0829297 0.11455
H_ H_ 0.833864 0.264634 0.00318928 0.11455
H_ H_ 0.804742 0.21138 0.0449657 0.11455
H_ H_ 0.825103 0.242766 0.0943591 0.11455
C_ C_ 0.735725 0.183237 0.400293 0.68181
C_ C_ 0.791651 0.184627 0.394685 -0.05681
C_ C_ 0.824645 0.186813 0.419645 -0.08735
C_ C_ 0.876298 0.181573 0.416232 -0.05681
C_ C_ 0.896844 0.175152 0.388554 -0.05681
C_ C_ 0.862659 0.170602 0.36513 -0.08735
C_ C_ 0.81145 0.170159 0.369197 -0.08735
C_ C_ 0.906689 0.183263 0.440395 -0.08735
C_ C_ 0.960351 0.182141 0.436501 -0.08735
C_ C_ 0.98102 0.175218 0.408907 -0.05681
C_ C_ 0.950071 0.171753 0.385151 -0.08735
C_ C_ 0.626604 0.28028 0.410114 0.68181
C_ C_ 0.639035 0.0866596 0.396023 0.68181
C_ C_ 0.642405 0.0301474 0.393331 -0.05681
C_ C_ 0.627769 0.493763 0.419115 -0.08735
C_ C_ 0.624652 0.439919 0.41822 -0.05681
C_ C_ 0.627624 0.417076 0.391282 -0.05681
C_ C_ 0.632917 0.446283 0.36704 -0.08735
C_ C_ 0.638383 0.500222 0.368786 -0.08735
C_ C_ 0.617744 0.410817 0.442341 -0.08735
C_ C_ 0.611442 0.357742 0.439585 -0.08735
C_ C_ 0.619392 0.333389 0.412568 -0.05681
C_ C_ 0.623539 0.364738 0.388794 -0.08735
C_ C_ 0.540987 0.169073 0.403813 0.68181
C_ C_ 0.604336 0.12254 0.479956 0.1947
C_ C_ 0.598589 0.107229 0.0134283 -0.08735
C_ C_ 0.620343 0.135633 0.0356079 -0.08735
C_ C_ 0.640157 0.183685 0.0296808 -0.05681
C_ C_ 0.651624 0.194551 1.00051 0.18498
C_ C_ 0.683591 0.235675 0.49254 -0.08735
C_ C_ 0.693578 0.269959 0.015571 -0.08735
C_ C_ 0.682603 0.26096 0.0436606 -0.08735
C_ C_ 0.661756 0.213905 0.0512772 0.18498
C_ C_ 0.692542 0.184804 0.0977227 0.44287
C_ C_ 0.605363 0.209754 0.0932878 0.44287
C_ C_ 0.596551 0.197946 0.121595 -0.05681
C_ C_ 0.547644 0.195663 0.13357 -0.08735
C_ C_ 0.541823 0.197467 0.162914 -0.08735
C_ C_ 0.584628 0.184829 0.180691 -0.05681
C_ C_ 0.633169 0.175694 0.168407 -0.05681
C_ C_ 0.637825 0.181189 0.139573 -0.05681
C_ C_ 0.686517 0.170073 0.12694 -0.05681
C_ C_ 0.724087 0.147331 0.143685 -0.08735
C_ C_ 0.715456 0.139912 0.172735 -0.08735
C_ C_ 0.669366 0.15152 0.184467 -0.05681
C_ C_ 0.661564 0.144721 0.214352 0.44287
C_ C_ 0.580262 0.182845 0.210719 0.44287
C_ C_ 0.607792 0.156253 0.258079 0.18498
C_ C_ 0.573071 0.117982 0.26442 -0.08735
C_ C_ 0.559529 0.110621 0.293436 -0.08735
C_ C_ 0.583117 0.13625 0.315915 -0.08735
C_ C_ 0.623241 0.169099 0.308874 0.18498
C_ C_ 0.632507 0.184454 0.280033 -0.05681
C_ C_ 0.664319 0.225872 0.274159 -0.08735
C_ C_ 0.679755 0.255474 0.297338 -0.08735
C_ C_ 0.666355 0.243274 0.325103 0.1947
C_ C_ 0.768951 0.313782 0.154246 0.68181
C_ C_ 0.71287 0.317604 0.148627 -0.05681
C_ C_ 0.679406 0.312416 0.171956 -0.08735
C_ C_ 0.626281 0.31252 0.16581 -0.05681
C_ C_ 0.608826 0.322654 0.137869 -0.05681
C_ C_ 0.642149 0.326762 0.115104 -0.08735
C_ C_ 0.694622 0.326913 0.121013 -0.08735
C_ C_ 0.592687 0.312174 0.190092 -0.08735
C_ C_ 0.54281 0.32507 0.186717 -0.08735
C_ C_ 0.52085 0.326022 0.159125 -0.05681
C_ C_ 0.555268 0.323852 0.134872 -0.08735
C_ C_ 0.867456 0.216953 0.158729 0.68181
C_ C_ 0.865389 0.419969 0.14789 0.68181
C_ C_ 0.865442 0.475907 0.147004 -0.05681
C_ C_ 0.850924 0.00229789 0.17012 -0.08735
C_ C_ 0.861975 0.0539198 0.167866 -0.05681
C_ C_ 0.867851 0.0749876 0.140401 -0.05681
C_ C_ 0.860325 0.0442833 0.115461 -0.08735
C_ C_ 0.876863 0.50018 0.121935 -0.08735
C_ C_ 0.858476 0.0843486 0.191699 -0.08735
C_ C_ 0.856883 0.137669 0.188091 -0.08735
C_ C_ 0.866881 0.161456 0.161282 -0.05681
C_ C_ 0.873142 0.127908 0.137815 -0.08735
C_ C_ 0.963843 0.327214 0.158364 0.68181
C_ C_ 0.885213 0.374221 0.232229 0.1947
C_ C_ 0.893072 0.389943 0.260235 -0.08735
C_ C_ 0.878888 0.362455 0.284304 -0.08735
C_ C_ 0.851224 0.316249 0.278402 -0.05681
C_ C_ 0.836381 0.304844 0.24986 0.18498
C_ C_ 0.807358 0.260227 0.24548 -0.08735
C_ C_ 0.798548 0.227292 0.267229 -0.08735
C_ C_ 0.816754 0.237213 0.294664 -0.08735
C_ C_ 0.844303 0.281275 0.301058 0.18498
C_ C_ 0.814624 0.30687 0.347681 0.44287
C_ C_ 0.902532 0.297092 0.342083 0.44287
C_ C_ 0.909561 0.299385 0.372048 -0.05681
C_ C_ 0.959146 0.298473 0.385313 -0.08735
C_ C_ 0.964679 0.305911 0.41371 -0.08735
C_ C_ 0.923626 0.307767 0.433138 -0.05681
C_ C_ 0.874956 0.306772 0.420203 -0.05681
C_ C_ 0.867496 0.305568 0.389918 -0.05681
C_ C_ 0.820839 0.312814 0.377148 -0.05681
C_ C_ 0.781254 0.326819 0.394415 -0.08735
C_ C_ 0.786747 0.331612 0.423739 -0.08735
C_ C_ 0.834002 0.321844 0.437165 -0.05681
C_ C_ 0.84219 0.330132 0.467039 0.44287
C_ C_ 0.929183 0.31152 0.463002 0.44287
C_ C_ 0.889953 0.349351 0.00609539 0.18498
C_ C_ 0.911776 0.397489 0.0112926 -0.08735
C_ C_ 0.920599 0.412335 0.0406456 -0.08735
C_ C_ 0.909187 0.381252 0.062693 -0.08735
C_ C_ 0.879942 0.337093 0.057947 0.18498
C_ C_ 0.873924 0.320187 0.029222 -0.05681
C_ C_ 0.845037 0.274632 0.0245266 -0.08735
C_ C_ 0.82906 0.246561 0.0482437 -0.08735
C_ C_ 0.842132 0.261887 0.0761732 0.1947
N_ N_ 0.632332 0.16595 0.474693 -0.29468
N_ N_ 0.652297 0.200707 0.080763 -0.17154
N_ N_ 0.618002 0.164145 0.22781 -0.17154
N_ N_ 0.641914 0.200236 0.330719 -0.29468
N_ N_ 0.857201 0.331689 0.227711 -0.29468
N_ N_ 0.854296 0.294561 0.3313 -0.17154
N_ N_ 0.888716 0.325996 0.47952 -0.17154
N_ N_ 0.872198 0.304016 0.0798324 -0.29468
O_ O_ 0.719379 0.177033 0.425056 -0.58347
O_ O_ 0.705193 0.19626 0.380411 -0.58347
O_ O_ 0.638111 0.255422 0.431912 -0.58347
O_ O_ 0.625711 0.258734 0.386133 -0.58347
O_ O_ 0.64117 0.105902 0.420955 -0.58347
O_ O_ 0.641246 0.114582 0.373736 -0.58347
O_ O_ 0.569034 0.179688 0.424687 -0.58347
O_ O_ 0.559148 0.174128 0.378887 -0.58347
O_ O_ 0.568358 0.225244 0.0770607 -0.46727
O_ O_ 0.736444 0.177216 0.0849531 -0.46727
O_ O_ 0.537056 0.193316 0.222236 -0.46727
O_ O_ 0.694088 0.120682 0.230204 -0.46727
O_ O_ 0.785964 0.316947 0.179431 -0.58347
O_ O_ 0.796765 0.317191 0.13295 -0.58347
O_ O_ 0.861316 0.243796 0.180714 -0.58347
O_ O_ 0.871832 0.236107 0.134961 -0.58347
O_ O_ 0.858445 0.397191 0.171138 -0.58347
O_ O_ 0.876982 0.393501 0.126403 -0.58347
O_ O_ 0.93524 0.326026 0.179988 -0.58347
O_ O_ 0.944909 0.316191 0.133744 -0.58347
O_ O_ 0.940209 0.283398 0.325309 -0.46727
O_ O_ 0.772182 0.323723 0.335719 -0.46727
O_ O_ 0.972728 0.307463 0.475136 -0.46727
O_ O_ 0.802064 0.338788 0.483322 -0.46727
Zn Zn 0.618166 0.184032 0.882107 0.90689
Zn Zn 0.630657 0.180827 0.929504 0.90689
Zn Zn 0.868545 0.312393 0.63127 0.90689
Zn Zn 0.86175 0.317427 0.68032 0.90689
H_ H_ 0.799666 0.207762 0.938961 0.11455
H_ H_ 0.86859 0.155484 0.845407 0.11455
H_ H_ 0.773007 0.158039 0.85438 0.11455
H_ H_ 0.879474 0.213064 0.960147 0.11455
H_ H_ 0.975104 0.215625 0.955346 0.11455
H_ H_ 0.960711 0.164906 0.867042 0.11455
H_ H_ 0.645232 0.0137052 0.940598 0.11455
H_ H_ 0.656331 0.429677 0.851892 0.11455
H_ H_ 0.589558 0.0238265 0.854085 0.11455
H_ H_ 0.579368 0.429266 0.960936 0.11455
H_ H_ 0.591784 0.336547 0.959656 0.11455
H_ H_ 0.630471 0.348961 0.868829 0.11455
H_ H_ 0.584126 0.100691 0.96831 0.11455
H_ H_ 0.570732 0.0759263 0.509635 0.11455
H_ H_ 0.596335 0.121685 0.550784 0.11455
H_ H_ 0.692218 0.241285 0.973149 0.11455
H_ H_ 0.7307 0.293744 0.513316 0.11455
H_ H_ 0.711586 0.267556 0.560919 0.11455
H_ H_ 0.512609 0.2006 0.618381 0.11455
H_ H_ 0.496527 0.192797 0.671737 0.11455
H_ H_ 0.76187 0.159532 0.637855 0.11455
H_ H_ 0.75021 0.157038 0.689499 0.11455
H_ H_ 0.586872 0.0832159 0.748998 0.11455
H_ H_ 0.543854 0.063498 0.792657 0.11455
H_ H_ 0.564627 0.118927 0.835107 0.11455
H_ H_ 0.652219 0.257907 0.758639 0.11455
H_ H_ 0.671961 0.303186 0.800188 0.11455
H_ H_ 0.675634 0.258216 0.847593 0.11455
H_ H_ 0.695106 0.317549 0.695997 0.11455
H_ H_ 0.623973 0.31114 0.598322 0.11455
H_ H_ 0.715595 0.309381 0.60532 0.11455
H_ H_ 0.61225 0.314927 0.714799 0.11455
H_ H_ 0.516409 0.318604 0.709375 0.11455
H_ H_ 0.537687 0.319067 0.617317 0.11455
H_ H_ 0.875157 0.480626 0.694197 0.11455
H_ H_ 0.856101 0.0641308 0.594271 0.11455
H_ H_ 0.842803 0.47221 0.604304 0.11455
H_ H_ 0.838398 0.0656184 0.712239 0.11455
H_ H_ 0.870569 0.149837 0.712052 0.11455
H_ H_ 0.872625 0.147443 0.617534 0.11455
H_ H_ 0.904378 0.399175 0.713687 0.11455
H_ H_ 0.915675 0.427601 0.763018 0.11455
H_ H_ 0.884277 0.380035 0.804465 0.11455
H_ H_ 0.811934 0.248129 0.720631 0.11455
H_ H_ 0.776065 0.198404 0.758714 0.11455
H_ H_ 0.795456 0.216236 0.809176 0.11455
H_ H_ 0.983074 0.307002 0.866215 0.11455
H_ H_ -0.003589999999999982 0.323122 0.917783 0.11455
H_ H_ 0.73373 0.336432 0.884998 0.11455
H_ H_ 0.744815 0.342331 0.936973 0.11455
H_ H_ 0.924571 0.423892 0.993973 0.11455
H_ H_ 0.948967 0.441424 0.544659 0.11455
H_ H_ 0.927535 0.384397 0.58563 0.11455
H_ H_ 0.848142 0.251843 0.505843 0.11455
H_ H_ 0.811739 0.207202 0.548004 0.11455
H_ H_ 0.828648 0.237851 0.597802 0.11455
C_ C_ 0.723403 0.181377 0.901237 0.68181
C_ C_ 0.779528 0.183829 0.8965 -0.05681
C_ C_ 0.814063 0.197312 0.919225 -0.08735
C_ C_ 0.866864 0.192718 0.916683 -0.05681
C_ C_ 0.887151 0.176982 0.889992 -0.05681
C_ C_ 0.853323 0.165752 0.866588 -0.08735
C_ C_ 0.800989 0.16952 0.870363 -0.08735
C_ C_ 0.898822 0.200944 0.940325 -0.08735
C_ C_ 0.951193 0.204522 0.936436 -0.08735
C_ C_ 0.973245 0.185592 0.910241 -0.05681
C_ C_ 0.941446 0.175329 0.887065 -0.08735
C_ C_ 0.62215 0.280751 0.911286 0.68181
C_ C_ 0.629415 0.0821449 0.899506 0.68181
C_ C_ 0.626245 0.0270278 0.89633 -0.05681
C_ C_ 0.604281 0.496687 0.919781 -0.08735
C_ C_ 0.604912 0.443397 0.917282 -0.05681
C_ C_ 0.619508 0.419846 0.891267 -0.05681
C_ C_ 0.645112 0.449694 0.871363 -0.08735
C_ C_ 0.641031 0.501614 0.872811 -0.08735
C_ C_ 0.589155 0.411356 0.94031 -0.08735
C_ C_ 0.595808 0.359531 0.939793 -0.08735
C_ C_ 0.607734 0.335408 0.913563 -0.05681
C_ C_ 0.621512 0.366538 0.890428 -0.08735
C_ C_ 0.522336 0.178808 0.90869 0.68181
C_ C_ 0.605711 0.121896 0.98471 0.1947
C_ C_ 0.594537 0.106036 0.507181 -0.08735
C_ C_ 0.611272 0.133025 0.530195 -0.08735
C_ C_ 0.643887 0.176753 0.525456 -0.05681
C_ C_ 0.655648 0.190769 0.496331 0.18498
C_ C_ 0.683966 0.234744 0.995245 -0.08735
C_ C_ 0.705891 0.260494 0.516026 -0.08735
C_ C_ 0.693229 0.247452 0.543447 -0.08735
C_ C_ 0.660835 0.207776 0.549766 0.18498
C_ C_ 0.692384 0.184779 0.597985 0.44287
C_ C_ 0.602832 0.201026 0.591188 0.44287
C_ C_ 0.594267 0.190825 0.620104 -0.05681
C_ C_ 0.544482 0.192137 0.632869 -0.08735
C_ C_ 0.535145 0.186227 0.662295 -0.08735
C_ C_ 0.576271 0.176849 0.680517 -0.05681
C_ C_ 0.625486 0.170949 0.668529 -0.05681
C_ C_ 0.634407 0.178908 0.639338 -0.05681
C_ C_ 0.684601 0.180209 0.628105 -0.05681
C_ C_ 0.724767 0.164936 0.646113 -0.08735
C_ C_ 0.71605 0.161832 0.676485 -0.08735
C_ C_ 0.666142 0.166447 0.687434 -0.05681
C_ C_ 0.658497 0.170694 0.717089 0.44287
C_ C_ 0.570751 0.183633 0.710655 0.44287
C_ C_ 0.602219 0.161307 0.757623 0.18498
C_ C_ 0.580093 0.115227 0.762892 -0.08735
C_ C_ 0.560262 0.10184 0.78945 -0.08735
C_ C_ 0.574469 0.130997 0.814046 -0.08735
C_ C_ 0.602512 0.176078 0.8095 0.18498
C_ C_ 0.616449 0.192135 0.78129 -0.05681
C_ C_ 0.643549 0.238451 0.779144 -0.08735
C_ C_ 0.659594 0.265101 0.803257 -0.08735
C_ C_ 0.657798 0.240655 0.82904 0.1947
C_ C_ 0.764945 0.311306 0.653737 0.68181
C_ C_ 0.710284 0.311964 0.650672 -0.05681
C_ C_ 0.677096 0.317316 0.674312 -0.08735
C_ C_ 0.625444 0.315099 0.669878 -0.05681
C_ C_ 0.605622 0.316975 0.642564 -0.05681
C_ C_ 0.637429 0.316105 0.619116 -0.08735
C_ C_ 0.690415 0.312419 0.623765 -0.08735
C_ C_ 0.595665 0.308654 0.694011 -0.08735
C_ C_ 0.54167 0.311632 0.690738 -0.08735
C_ C_ 0.520622 0.306691 0.663142 -0.05681
C_ C_ 0.553331 0.311815 0.638819 -0.08735
C_ C_ 0.8764 0.216422 0.663952 0.68181
C_ C_ 0.856128 0.412223 0.649835 0.68181
C_ C_ 0.865806 0.46817 0.648022 -0.05681
C_ C_ 0.854329 -0.0024119999999999697 0.668028 -0.08735
C_ C_ 0.859952 0.0505572 0.666538 -0.05681
C_ C_ 0.866919 0.0752904 0.639849 -0.05681
C_ C_ 0.867364 0.0446578 0.614846 -0.08735
C_ C_ 0.858218 0.49165 0.622789 -0.08735
C_ C_ 0.853375 0.0799746 0.691433 -0.08735
C_ C_ 0.868687 0.132107 0.690876 -0.08735
C_ C_ 0.876086 0.158918 0.665509 -0.05681
C_ C_ 0.873204 0.128724 0.639582 -0.08735
C_ C_ 0.965204 0.318933 0.659632 0.68181
C_ C_ 0.889868 0.375693 0.732627 0.1947
C_ C_ 0.89376 0.392975 0.760457 -0.08735
C_ C_ 0.878184 0.364595 0.783001 -0.08735
C_ C_ 0.853416 0.318407 0.776902 -0.05681
C_ C_ 0.84794 0.302342 0.748402 0.18498
C_ C_ 0.819197 0.257903 0.742346 -0.08735
C_ C_ 0.800793 0.22906 0.764263 -0.08735
C_ C_ 0.811228 0.241465 0.792925 -0.08735
C_ C_ 0.837079 0.285516 0.79952 0.18498
C_ C_ 0.806526 0.307056 0.846922 0.44287
C_ C_ 0.893606 0.290522 0.841024 0.44287
C_ C_ 0.90331 0.304617 0.870221 -0.05681
C_ C_ 0.952445 0.308136 0.881289 -0.08735
C_ C_ 0.959078 0.320525 0.91052 -0.08735
C_ C_ 0.916565 0.325831 0.929357 -0.05681
C_ C_ 0.867265 0.328651 0.917074 -0.05681
C_ C_ 0.861356 0.31879 0.887598 -0.05681
C_ C_ 0.812513 0.317537 0.876473 -0.05681
C_ C_ 0.771846 0.331771 0.893368 -0.08735
C_ C_ 0.777797 0.337776 0.923809 -0.08735
C_ C_ 0.826115 0.331489 0.935267 -0.05681
C_ C_ 0.833138 0.339747 0.964939 0.44287
C_ C_ 0.921217 0.327735 0.959288 0.44287
C_ C_ 0.894702 0.34287 0.509037 0.18498
C_ C_ 0.920482 0.387732 0.513059 -0.08735
C_ C_ 0.93307 0.402522 0.541004 -0.08735
C_ C_ 0.917666 0.372919 0.564653 -0.08735
C_ C_ 0.88836 0.32927 0.560651 0.18498
C_ C_ 0.876999 0.313314 0.532314 -0.05681
C_ C_ 0.856477 0.266403 0.528159 -0.08735
C_ C_ 0.83629 0.240958 0.552046 -0.08735
C_ C_ 0.8476 0.255842 0.580117 0.1947
N_ N_ 0.633591 0.165331 0.97806 -0.29468
N_ N_ 0.651377 0.198145 0.579876 -0.17154
N_ N_ 0.610799 0.174998 0.728066 -0.17154
N_ N_ 0.625002 0.200456 0.832726 -0.29468
N_ N_ 0.865762 0.331975 0.727298 -0.29468
N_ N_ 0.846197 0.294776 0.829693 -0.17154
N_ N_ 0.879959 0.336586 0.976086 -0.17154
N_ N_ 0.873499 0.301608 0.583554 -0.29468
O_ O_ 0.705053 0.181581 0.927253 -0.58347
O_ O_ 0.692789 0.185303 0.879955 -0.58347
O_ O_ 0.624915 0.254215 0.93376 -0.58347
O_ O_ 0.619034 0.259442 0.888066 -0.58347
O_ O_ 0.632838 0.104411 0.923713 -0.58347
O_ O_ 0.625082 0.108395 0.877529 -0.58347
O_ O_ 0.550985 0.1757 0.930931 -0.58347
O_ O_ 0.54164 0.18048 0.884223 -0.58347
O_ O_ 0.564832 0.21894 0.574646 -0.46727
O_ O_ 0.739308 0.182825 0.585933 -0.46727
O_ O_ 0.525665 0.195253 0.72174 -0.46727
O_ O_ 0.697413 0.174822 0.734911 -0.46727
O_ O_ 0.78544 0.312543 0.678874 -0.58347
O_ O_ 0.793942 0.310177 0.632715 -0.58347
O_ O_ 0.872532 0.241818 0.68642 -0.58347
O_ O_ 0.878376 0.237433 0.639938 -0.58347
O_ O_ 0.850006 0.392161 0.674062 -0.58347
O_ O_ 0.860627 0.385532 0.62689 -0.58347
O_ O_ 0.937362 0.329055 0.680697 -0.58347
O_ O_ 0.946074 0.321551 0.634749 -0.58347
O_ O_ 0.932013 0.283204 0.824131 -0.46727
O_ O_ 0.761839 0.318514 0.834588 -0.46727
O_ O_ 0.96445 0.321204 0.970913 -0.46727
O_ O_ 0.796245 0.353856 0.981091 -0.46727
Zn Zn 0.63485 0.684636 0.382656 0.90689
Zn Zn 0.645829 0.678995 0.430323 0.90689
Zn Zn 0.874215 0.810415 0.132928 0.90689
Zn Zn 0.862498 0.822709 0.181439 0.90689
H_ H_ 0.811956 0.698094 0.446494 0.11455
H_ H_ 0.880735 0.675096 0.346601 0.11455
H_ H_ 0.790664 0.672522 0.355757 0.11455
H_ H_ 0.893265 0.672829 0.464713 0.11455
H_ H_ 0.985689 0.680876 0.457227 0.11455
H_ H_ 0.966505 0.677587 0.365459 0.11455
H_ H_ 0.627688 0.511274 0.440348 0.11455
H_ H_ 0.617348 0.932693 0.347717 0.11455
H_ H_ 0.636343 0.522152 0.349688 0.11455
H_ H_ 0.657997 0.935621 0.46259 0.11455
H_ H_ 0.638989 0.848176 0.462384 0.11455
H_ H_ 0.629998 0.850297 0.370869 0.11455
H_ H_ 0.601064 0.598578 0.464874 0.11455
H_ H_ 0.587959 0.568481 0.0163418 0.11455
H_ H_ 0.610579 0.623359 0.0573799 0.11455
H_ H_ 0.705107 0.747128 0.47523 0.11455
H_ H_ 0.715879 0.806678 0.0121258 0.11455
H_ H_ 0.697726 0.783572 0.0626726 0.11455
H_ H_ 0.50372 0.704352 0.121087 0.11455
H_ H_ 0.489184 0.688854 0.168747 0.11455
H_ H_ 0.758398 0.68802 0.140631 0.11455
H_ H_ 0.743346 0.673108 0.190909 0.11455
H_ H_ 0.553477 0.601117 0.250073 0.11455
H_ H_ 0.525473 0.582194 0.301625 0.11455
H_ H_ 0.572395 0.620659 0.339537 0.11455
H_ H_ 0.655368 0.749296 0.256775 0.11455
H_ H_ 0.695047 0.792555 0.297754 0.11455
H_ H_ 0.696131 0.757319 0.34564 0.11455
H_ H_ 0.698916 0.812737 0.194402 0.11455
H_ H_ 0.632857 0.839488 0.0952984 0.11455
H_ H_ 0.723048 0.832054 0.103604 0.11455
H_ H_ 0.610084 0.818468 0.212923 0.11455
H_ H_ 0.520509 0.82017 0.206101 0.11455
H_ H_ 0.541032 0.84334 0.115229 0.11455
H_ H_ 0.83448 0.987376 0.18918 0.11455
H_ H_ 0.892457 0.569151 0.100891 0.11455
H_ H_ 0.859266 0.966459 0.100067 0.11455
H_ H_ 0.862238 0.569634 0.217459 0.11455
H_ H_ 0.876696 0.663686 0.214911 0.11455
H_ H_ 0.870208 0.653771 0.121899 0.11455
H_ H_ 0.923935 0.887682 0.21737 0.11455
H_ H_ 0.940802 0.919767 0.264074 0.11455
H_ H_ 0.899158 0.878459 0.306775 0.11455
H_ H_ 0.809748 0.748612 0.227155 0.11455
H_ H_ 0.786443 0.693913 0.26804 0.11455
H_ H_ 0.789865 0.734159 0.317363 0.11455
H_ H_ 0.995849 0.797916 0.375847 0.11455
H_ H_ 0.00346763 0.793756 0.42791 0.11455
H_ H_ 0.752783 0.868189 0.387396 0.11455
H_ H_ 0.764637 0.882265 0.438922 0.11455
H_ H_ 0.938139 0.917676 0.504798 0.11455
H_ H_ 0.962152 0.933175 0.0489958 0.11455
H_ H_ 0.920211 0.885216 0.0855821 0.11455
H_ H_ 0.846643 0.753017 0.00634215 0.11455
H_ H_ 0.805589 0.712573 0.0498353 0.11455
H_ H_ 0.831662 0.737191 0.0973856 0.11455
C_ C_ 0.739938 0.684301 0.406304 0.68181
C_ C_ 0.795722 0.687438 0.401179 -0.05681
C_ C_ 0.828149 0.691968 0.424462 -0.08735
C_ C_ 0.878733 0.680492 0.419835 -0.05681
C_ C_ 0.89988 0.674847 0.391939 -0.05681
C_ C_ 0.867316 0.675812 0.368465 -0.08735
C_ C_ 0.815296 0.679268 0.374153 -0.08735
C_ C_ 0.910188 0.675215 0.443129 -0.08735
C_ C_ 0.962538 0.67663 0.439131 -0.08735
C_ C_ 0.985321 0.67494 0.412067 -0.05681
C_ C_ 0.952426 0.67801 0.387943 -0.08735
C_ C_ 0.629961 0.780925 0.413959 0.68181
C_ C_ 0.644908 0.581593 0.398464 0.68181
C_ C_ 0.638233 0.52297 0.395522 -0.05681
C_ C_ 0.653555 1.00136 0.417952 -0.08735
C_ C_ 0.649661 0.948299 0.417672 -0.05681
C_ C_ 0.640901 0.92365 0.391509 -0.05681
C_ C_ 0.628188 0.952294 0.367522 -0.08735
C_ C_ 0.633169 1.00574511 0.367285 -0.08735
C_ C_ 0.657922 0.918699 0.442072 -0.08735
C_ C_ 0.649743 0.864789 0.441918 -0.08735
C_ C_ 0.640927 0.839328 0.41542 -0.05681
C_ C_ 0.637786 0.870089 0.391169 -0.08735
C_ C_ 0.542403 0.677209 0.409472 0.68181
C_ C_ 0.615233 0.622079 0.482704 0.1947
C_ C_ 0.604563 0.604645 0.01164 -0.08735
C_ C_ 0.61608 0.636495 0.0350521 -0.08735
C_ C_ 0.639053 0.684483 0.0292671 -0.05681
C_ C_ 0.649966 0.696888 1.00028861 0.18498
C_ C_ 0.695112 0.734799 0.49625 -0.08735
C_ C_ 0.689373 0.774822 0.0165146 -0.08735
C_ C_ 0.681349 0.76188 0.0454142 -0.08735
C_ C_ 0.655918 0.716936 0.0523519 0.18498
C_ C_ 0.684523 0.693761 0.100765 0.44287
C_ C_ 0.598604 0.706666 0.0934504 0.44287
C_ C_ 0.587411 0.697743 0.121808 -0.05681
C_ C_ 0.538063 0.698253 0.133118 -0.08735
C_ C_ 0.530405 0.693073 0.162857 -0.08735
C_ C_ 0.570845 0.689006 0.182307 -0.05681
C_ C_ 0.620088 0.692715 0.170873 -0.05681
C_ C_ 0.628617 0.699347 0.141699 -0.05681
C_ C_ 0.67591 0.695176 0.13079 -0.05681
C_ C_ 0.718796 0.688581 0.148527 -0.08735
C_ C_ 0.710984 0.683014 0.177801 -0.08735
C_ C_ 0.660825 0.683794 0.1892 -0.05681
C_ C_ 0.651891 0.672034 0.217473 0.44287
C_ C_ 0.565161 0.688466 0.212195 0.44287
C_ C_ 0.595722 0.665881 0.26114 0.18498
C_ C_ 0.565092 0.62336 0.268026 -0.08735
C_ C_ 0.556163 0.608668 0.296289 -0.08735
C_ C_ 0.583907 0.63264 0.318283 -0.08735
C_ C_ 0.617891 0.672032 0.312388 0.18498
C_ C_ 0.6215 0.690379 0.284025 -0.05681
C_ C_ 0.655561 0.731298 0.278364 -0.08735
C_ C_ 0.678211 0.756294 0.301829 -0.08735
C_ C_ 0.674704 0.736503 0.329729 0.1947
C_ C_ 0.771765 0.822877 0.155381 0.68181
C_ C_ 0.717483 0.826856 0.150256 -0.05681
C_ C_ 0.682395 0.82336 0.173913 -0.08735
C_ C_ 0.629193 0.826124 0.169893 -0.05681
C_ C_ 0.609794 0.833642 0.14153 -0.05681
C_ C_ 0.645 0.836292 0.118351 -0.08735
C_ C_ 0.698553 0.833766 0.122297 -0.08735
C_ C_ 0.595038 0.82252 0.192127 -0.08735
C_ C_ 0.542879 0.826101 0.188704 -0.08735
C_ C_ 0.523913 0.826523 0.160978 -0.05681
C_ C_ 0.556664 0.837491 0.136509 -0.08735
C_ C_ 0.876459 0.72273 0.165646 0.68181
C_ C_ 0.85542 0.914701 0.148613 0.68181
C_ C_ 0.851681 0.969705 0.144963 -0.05681
C_ C_ 0.863573 0.505867 0.172167 -0.08735
C_ C_ 0.865195 0.560781 0.170496 -0.05681
C_ C_ 0.873689 0.58381 0.144291 -0.05681
C_ C_ 0.87686 0.553729 0.11975 -0.08735
C_ C_ 0.854777 0.991683 0.118394 -0.08735
C_ C_ 0.863487 0.58986 0.19598 -0.08735
C_ C_ 0.869607 0.642642 0.195735 -0.08735
C_ C_ 0.877602 0.665825 0.16917 -0.05681
C_ C_ 0.872504 0.636031 0.142745 -0.08735
C_ C_ 0.967042 0.823881 0.158775 0.68181
C_ C_ 0.898314 0.877512 0.233746 0.1947
C_ C_ 0.908157 0.893715 0.261846 -0.08735
C_ C_ 0.889101 0.86706 0.285293 -0.08735
C_ C_ 0.861745 0.821964 0.281177 -0.05681
C_ C_ 0.851204 0.804074 0.252973 0.18498
C_ C_ 0.824928 0.759123 0.248322 -0.08735
C_ C_ 0.80601 0.731972 0.272552 -0.08735
C_ C_ 0.816549 0.748284 0.300271 -0.08735
C_ C_ 0.84571 0.791635 0.305233 0.18498
C_ C_ 0.817194 0.821441 0.35177 0.44287
C_ C_ 0.902566 0.798163 0.347551 0.44287
C_ C_ 0.909775 0.803742 0.377617 -0.05681
C_ C_ 0.959969 0.799374 0.390674 -0.08735
C_ C_ 0.96517 0.798378 0.420804 -0.08735
C_ C_ 0.92396 0.813138 0.438457 -0.05681
C_ C_ 0.87665 0.824286 0.425578 -0.05681
C_ C_ 0.870809 0.816698 0.39564 -0.05681
C_ C_ 0.823634 0.829565 0.382327 -0.05681
C_ C_ 0.782331 0.848905 0.398772 -0.08735
C_ C_ 0.790933 0.859562 0.427524 -0.08735
C_ C_ 0.835075 0.842061 0.442345 -0.05681
C_ C_ 0.845773 0.853372 0.471688 0.44287
C_ C_ 0.928399 0.815286 0.467616 0.44287
C_ C_ 0.893082 0.848039 0.00948084 0.18498
C_ C_ 0.924 0.892463 0.0152645 -0.08735
C_ C_ 0.933066 0.904144 0.0433358 -0.08735
C_ C_ 0.910994 0.876955 0.0650563 -0.08735
C_ C_ 0.884006 0.832012 0.0607428 0.18498
C_ C_ 0.876471 0.81631 0.0320562 -0.05681
C_ C_ 0.852618 0.769314 0.0275882 -0.08735
C_ C_ 0.837705 0.740696 0.0510059 -0.08735
C_ C_ 0.847565 0.758221 0.0788849 0.1947
N_ N_ 0.646029 0.662774 0.477858 -0.29468
N_ N_ 0.645963 0.70449 0.0825798 -0.17154
N_ N_ 0.60534 0.675865 0.229538 -0.17154
N_ N_ 0.643248 0.696474 0.334672 -0.29468
N_ N_ 0.869887 0.832435 0.229952 -0.29468
N_ N_ 0.857088 0.806046 0.334584 -0.17154
N_ N_ 0.890563 0.837652 0.483709 -0.17154
N_ N_ 0.869049 0.802621 0.0834874 -0.29468
O_ O_ 0.721146 0.686531 0.431154 -0.58347
O_ O_ 0.711311 0.682941 0.384715 -0.58347
O_ O_ 0.635872 0.754594 0.435952 -0.58347
O_ O_ 0.634798 0.760286 0.388684 -0.58347
O_ O_ 0.654453 0.601024 0.422417 -0.58347
O_ O_ 0.638883 0.610394 0.377092 -0.58347
O_ O_ 0.570607 0.667019 0.430047 -0.58347
O_ O_ 0.560285 0.685025 0.38471 -0.58347
O_ O_ 0.564336 0.728817 0.0780449 -0.46727
O_ O_ 0.730278 0.683622 0.0891096 -0.46727
O_ O_ 0.521549 0.69745 0.224288 -0.46727
O_ O_ 0.689501 0.662043 0.235449 -0.46727
O_ O_ 0.791191 0.83306 0.179853 -0.58347
O_ O_ 0.7997 0.801333 0.136282 -0.58347
O_ O_ 0.860611 0.750347 0.185212 -0.58347
O_ O_ 0.880835 0.740506 0.141059 -0.58347
O_ O_ 0.865855 0.89701 0.173781 -0.58347
O_ O_ 0.858276 0.885773 0.127029 -0.58347
O_ O_ 0.937982 0.822192 0.180989 -0.58347
O_ O_ 0.950252 0.825482 0.132651 -0.58347
O_ O_ 0.939846 0.779252 0.331948 -0.46727
O_ O_ 0.776831 0.84058 0.339656 -0.46727
O_ O_ 0.970872 0.804777 0.480385 -0.46727
O_ O_ 0.80947 0.864557 0.488762 -0.46727
Zn Zn 0.625483 0.685267 0.882188 0.90689
Zn Zn 0.633239 0.674804 0.932122 0.90689
Zn Zn 0.873276 0.808591 0.631933 0.90689
Zn Zn 0.865052 0.816427 0.68091 0.90689
H_ H_ 0.799712 0.671921 0.9461 0.11455
H_ H_ 0.866059 0.658919 0.84818 0.11455
H_ H_ 0.779047 0.660927 0.855664 0.11455
H_ H_ 0.88572 0.686446 0.966563 0.11455
H_ H_ 0.973018 0.701225 0.959625 0.11455
H_ H_ 0.955363 0.685173 0.867147 0.11455
H_ H_ 0.599494 0.513799 0.941022 0.11455
H_ H_ 0.594101 0.935394 0.849784 0.11455
H_ H_ 0.65999 0.524384 0.854242 0.11455
H_ H_ 0.64863 0.929675 0.964898 0.11455
H_ H_ 0.645738 0.838871 0.961011 0.11455
H_ H_ 0.596445 0.847234 0.872774 0.11455
H_ H_ 0.587522 0.60147 0.966413 0.11455
H_ H_ 0.569564 0.579701 0.513425 0.11455
H_ H_ 0.615921 0.616332 0.554088 0.11455
H_ H_ 0.687626 0.752324 0.97282 0.11455
H_ H_ 0.73441 0.796444 0.514719 0.11455
H_ H_ 0.710202 0.779586 0.563288 0.11455
H_ H_ 0.51135 0.678523 0.617101 0.11455
H_ H_ 0.495686 0.677236 0.671494 0.11455
H_ H_ 0.755959 0.647572 0.640405 0.11455
H_ H_ 0.741624 0.639345 0.691533 0.11455
H_ H_ 0.548699 0.586743 0.751019 0.11455
H_ H_ 0.540275 0.559508 0.80137 0.11455
H_ H_ 0.562895 0.620444 0.839694 0.11455
H_ H_ 0.643343 0.746856 0.756239 0.11455
H_ H_ 0.686272 0.78806 0.794876 0.11455
H_ H_ 0.679169 0.757519 0.844534 0.11455
H_ H_ 0.697582 0.806007 0.696908 0.11455
H_ H_ 0.628255 0.825343 0.598665 0.11455
H_ H_ 0.721265 0.825039 0.607413 0.11455
H_ H_ 0.607535 0.808986 0.717221 0.11455
H_ H_ 0.517518 0.810107 0.707568 0.11455
H_ H_ 0.542097 0.817158 0.616991 0.11455
H_ H_ 0.843645 0.979624 0.687891 0.11455
H_ H_ 0.864368 0.559914 0.599024 0.11455
H_ H_ 0.866845 0.969841 0.598686 0.11455
H_ H_ 0.886396 0.564982 0.715834 0.11455
H_ H_ 0.867141 0.654116 0.713153 0.11455
H_ H_ 0.863152 0.642333 0.622243 0.11455
H_ H_ 0.909744 0.901553 0.711635 0.11455
H_ H_ 0.917187 0.93873 0.760441 0.11455
H_ H_ 0.888719 0.889057 0.803087 0.11455
H_ H_ 0.81204 0.7539 0.724276 0.11455
H_ H_ 0.774836 0.705073 0.763378 0.11455
H_ H_ 0.800307 0.726294 0.81274 0.11455
H_ H_ 0.983447 0.796848 0.870449 0.11455
H_ H_ 0.998801 0.810707 0.921257 0.11455
H_ H_ 0.732162 0.822795 0.887364 0.11455
H_ H_ 0.744864 0.843506 0.938214 0.11455
H_ H_ 0.940073 0.918137 0.999231 0.11455
H_ H_ 0.964638 0.925551 0.557169 0.11455
H_ H_ 0.939495 0.866914 0.592448 0.11455
H_ H_ 0.845013 0.757514 0.505984 0.11455
H_ H_ 0.812856 0.705104 0.545327 0.11455
H_ H_ 0.821937 0.735359 0.59626 0.11455
C_ C_ 0.726329 0.676113 0.904486 0.68181
C_ C_ 0.781711 0.674552 0.901111 -0.05681
C_ C_ 0.814996 0.678317 0.9248 -0.08735
C_ C_ 0.866734 0.680431 0.92115 -0.05681
C_ C_ 0.885793 0.673273 0.892641 -0.05681
C_ C_ 0.853479 0.66567 0.869422 -0.08735
C_ C_ 0.800868 0.665114 0.874219 -0.08735
C_ C_ 0.899139 0.689155 0.945501 -0.08735
C_ C_ 0.950795 0.69397 0.940789 -0.08735
C_ C_ 0.97203 0.686861 0.912687 -0.05681
C_ C_ 0.939846 0.673536 0.888744 -0.08735
C_ C_ 0.626614 0.77991 0.911682 0.68181
C_ C_ 0.626735 0.582332 0.90012 0.68181
C_ C_ 0.625122 0.525999 0.897768 -0.05681
C_ C_ 0.634253 -0.0031090000000000284 0.920615 -0.08735
C_ C_ 0.630624 0.942351 0.918911 -0.05681
C_ C_ 0.619344 0.918879 0.892684 -0.05681
C_ C_ 0.606223 0.951359 0.869655 -0.08735
C_ C_ 0.609315 0.00469454 0.871643 -0.08735
C_ C_ 0.644924 0.911021 0.943569 -0.08735
C_ C_ 0.643139 0.858862 0.941312 -0.08735
C_ C_ 0.630352 0.835469 0.914744 -0.05681
C_ C_ 0.61442 0.865383 0.891037 -0.08735
C_ C_ 0.532608 0.680958 0.908694 0.68181
C_ C_ 0.606756 0.623098 0.984024 0.1947
C_ C_ 0.603799 0.605841 0.50951 -0.08735
C_ C_ 0.619244 0.634766 0.533652 -0.08735
C_ C_ 0.651293 0.678166 0.529152 -0.05681
C_ C_ 0.665173 0.691275 0.500155 0.18498
C_ C_ 0.677116 0.740633 0.994363 -0.08735
C_ C_ 0.717049 0.760692 0.519404 -0.08735
C_ C_ 0.699536 0.752535 0.546562 -0.08735
C_ C_ 0.667721 0.7102 0.552241 0.18498
C_ C_ 0.690789 0.685963 0.600949 0.44287
C_ C_ 0.604072 0.696977 0.592859 0.44287
C_ C_ 0.592339 0.690227 0.622409 -0.05681
C_ C_ 0.542057 0.685545 0.632461 -0.08735
C_ C_ 0.532982 0.681623 0.661902 -0.08735
C_ C_ 0.573984 0.676974 0.682041 -0.05681
C_ C_ 0.624289 0.677735 0.671649 -0.05681
C_ C_ 0.632515 0.683761 0.642042 -0.05681
C_ C_ 0.681361 0.675671 0.629674 -0.05681
C_ C_ 0.718711 0.654346 0.647299 -0.08735
C_ C_ 0.711895 0.651411 0.677498 -0.08735
C_ C_ 0.663696 0.662603 0.689277 -0.05681
C_ C_ 0.651895 0.649242 0.718764 0.44287
C_ C_ 0.5661 0.671168 0.71156 0.44287
C_ C_ 0.596014 0.649898 0.760918 0.18498
C_ C_ 0.568619 0.605794 0.767905 -0.08735
C_ C_ 0.557044 0.59532 0.796187 -0.08735
C_ C_ 0.576741 0.625296 0.818607 -0.08735
C_ C_ 0.602534 0.670155 0.811959 0.18498
C_ C_ 0.616031 0.680988 0.783337 -0.05681
C_ C_ 0.642483 0.726853 0.776825 -0.08735
C_ C_ 0.663025 0.75476 0.800147 -0.08735
C_ C_ 0.659886 0.737571 0.827131 0.1947
C_ C_ 0.769068 0.80702 0.656115 0.68181
C_ C_ 0.714959 0.804836 0.651714 -0.05681
C_ C_ 0.682447 0.799623 0.675662 -0.08735
C_ C_ 0.627218 0.803765 0.671304 -0.05681
C_ C_ 0.609267 0.811455 0.643111 -0.05681
C_ C_ 0.643335 0.820525 0.620051 -0.08735
C_ C_ 0.695893 0.819824 0.624896 -0.08735
C_ C_ 0.595424 0.806351 0.694968 -0.08735
C_ C_ 0.543571 0.813325 0.690012 -0.08735
C_ C_ 0.522872 0.813095 0.662263 -0.05681
C_ C_ 0.555959 0.814145 0.63802 -0.08735
C_ C_ 0.871185 0.713092 0.662817 0.68181
C_ C_ 0.857212 0.9095 0.646964 0.68181
C_ C_ 0.860486 0.966604 0.643383 -0.05681
C_ C_ 0.872564 0.496029 0.672794 -0.08735
C_ C_ 0.874199 0.548809 0.670742 -0.05681
C_ C_ 0.863826 0.573336 0.644341 -0.05681
C_ C_ 0.861949 0.544454 0.620184 -0.08735
C_ C_ 0.862119 0.991929 0.616629 -0.08735
C_ C_ 0.875334 0.579372 0.695455 -0.08735
C_ C_ 0.86613 0.633591 0.693477 -0.08735
C_ C_ 0.864223 0.658225 0.666061 -0.05681
C_ C_ 0.858818 0.626432 0.642714 -0.08735
C_ C_ 0.965319 0.82773 0.661929 0.68181
C_ C_ 0.895197 0.881084 0.731345 0.1947
C_ C_ 0.897578 0.902432 0.758036 -0.08735
C_ C_ 0.879444 0.875436 0.781181 -0.08735
C_ C_ 0.853431 0.830418 0.777838 -0.05681
C_ C_ 0.843576 0.815341 0.7496 0.18498
C_ C_ 0.814179 0.771132 0.745657 -0.08735
C_ C_ 0.800136 0.738677 0.768714 -0.08735
C_ C_ 0.813095 0.752586 0.7956 -0.08735
C_ C_ 0.840221 0.798755 0.801158 0.18498
C_ C_ 0.805864 0.816697 0.848991 0.44287
C_ C_ 0.895558 0.810329 0.842692 0.44287
C_ C_ 0.903768 0.812792 0.872343 -0.05681
C_ C_ 0.951868 0.810411 0.88338 -0.08735
C_ C_ 0.959371 0.815615 0.913465 -0.08735
C_ C_ 0.916504 0.821334 0.932602 -0.05681
C_ C_ 0.866386 0.821011 0.920507 -0.05681
C_ C_ 0.860021 0.81664 0.890866 -0.05681
C_ C_ 0.811518 0.816929 0.87903 -0.05681
C_ C_ 0.769571 0.826689 0.897159 -0.08735
C_ C_ 0.776276 0.829294 0.926466 -0.08735
C_ C_ 0.824666 0.830249 0.939104 -0.05681
C_ C_ 0.832214 0.837784 0.968896 0.44287
C_ C_ 0.92237 0.824223 0.962321 0.44287
C_ C_ 0.902846 0.846362 0.513311 0.18498
C_ C_ 0.927663 0.892287 0.521529 -0.08735
C_ C_ 0.938005 0.900372 0.550646 -0.08735
C_ C_ 0.922928 0.864927 0.57142 -0.08735
C_ C_ 0.890878 0.824539 0.56387 0.18498
C_ C_ 0.881911 0.813473 0.535309 -0.05681
C_ C_ 0.852831 0.770069 0.528829 -0.08735
C_ C_ 0.831815 0.740189 0.550417 -0.08735
C_ C_ 0.840585 0.754894 0.578957 0.1947
N_ N_ 0.63468 0.665312 0.978487 -0.29468
N_ N_ 0.653641 0.698003 0.583126 -0.17154
N_ N_ 0.606005 0.661529 0.730084 -0.17154
N_ N_ 0.62823 0.696316 0.833579 -0.29468
N_ N_ 0.86765 0.836925 0.727026 -0.29468
N_ N_ 0.846675 0.813846 0.831289 -0.17154
N_ N_ 0.881335 0.834281 0.980228 -0.17154
N_ N_ 0.869371 0.794784 0.585562 -0.29468
O_ O_ 0.707389 0.684162 0.928885 -0.58347
O_ O_ 0.697599 0.674801 0.883389 -0.58347
O_ O_ 0.627118 0.750603 0.933691 -0.58347
O_ O_ 0.63187 0.762087 0.88777 -0.58347
O_ O_ 0.636098 0.603947 0.923882 -0.58347
O_ O_ 0.626285 0.608845 0.878895 -0.58347
O_ O_ 0.558869 0.664732 0.929327 -0.58347
O_ O_ 0.552233 0.698095 0.886676 -0.58347
O_ O_ 0.567084 0.710673 0.574426 -0.46727
O_ O_ 0.737654 0.689 0.591742 -0.46727
O_ O_ 0.520688 0.677344 0.721727 -0.46727
O_ O_ 0.689439 0.640297 0.736418 -0.46727
O_ O_ 0.786682 0.815389 0.679944 -0.58347
O_ O_ 0.797488 0.8021 0.634083 -0.58347
O_ O_ 0.866689 0.741578 0.684421 -0.58347
O_ O_ 0.881101 0.732975 0.638795 -0.58347
O_ O_ 0.858612 0.892042 0.671889 -0.58347
O_ O_ 0.86515 0.881774 0.626498 -0.58347
O_ O_ 0.936834 0.819011 0.683141 -0.58347
O_ O_ 0.9487 0.81786 0.637351 -0.58347
O_ O_ 0.936377 0.804595 0.825891 -0.46727
O_ O_ 0.760365 0.815444 0.83735 -0.46727
O_ O_ 0.967016 0.817575 0.972984 -0.46727
O_ O_ 0.794328 0.847525 0.986374 -0.46727
_cell_length_a 26.376
_cell_length_b 26.400000238300095
_cell_length_c 46.67800035477134
_cell_angle_alpha 90.00700052986613
_cell_angle_beta 89.99899961309502
_cell_angle_gamma 90.45000003183146
_symmetry_space_group_name_H-M         'P 1'
_symmetry_Int_Tables_number            1
loop_
_symmetry_equiv_pos_as_xyz
   'x, y, z'
                         
loop_
_atom_site_label
_atom_site_type_symbol
_atom_site_fract_x 
_atom_site_fract_y
_atom_site_fract_z
_atom_site_charge
Zn Zn 0.135409 0.182736 0.380672 0.90689
Zn Zn 0.144606 0.174794 0.429051 0.90689
Zn Zn 0.370138 0.324513 0.129627 0.90689
Zn Zn 0.360174 0.331781 0.177368 0.90689
H_ H_ 0.313572 0.19909 0.442979 0.11455
H_ H_ 0.377717 0.139179 0.348445 0.11455
H_ H_ 0.28442 0.138739 0.360251 0.11455
H_ H_ 0.40257 0.198987 0.461441 0.11455
H_ H_ 0.491648 0.172738 0.45773 0.11455
H_ H_ 0.463346 0.147841 0.365826 0.11455
H_ H_ 0.157778 0.00926739 0.444278 0.11455
H_ H_ 0.13941 0.432713 0.346254 0.11455
H_ H_ 0.125308 0.0253607 0.352539 0.11455
H_ H_ 0.122401 0.430634 0.465403 0.11455
H_ H_ 0.122071 0.338257 0.461977 0.11455
H_ H_ 0.125074 0.349395 0.368665 0.11455
H_ H_ 0.100136 0.0903995 0.463688 0.11455
H_ H_ 0.0508106 0.100099 0.0127025 0.11455
H_ H_ 0.082395 0.147503 0.0530956 0.11455
H_ H_ 0.191637 0.249173 0.472747 0.11455
H_ H_ 0.234108 0.297138 0.0111971 0.11455
H_ H_ 0.207649 0.275391 0.0617064 0.11455
H_ H_ 0.0169719 0.221647 0.127622 0.11455
H_ H_ 0.0052488 0.198329 0.176143 0.11455
H_ H_ 0.265524 0.179653 0.133502 0.11455
H_ H_ 0.256727 0.16211 0.185637 0.11455
H_ H_ 0.0778137 0.0891989 0.244784 0.11455
H_ H_ 0.0463158 0.0696693 0.295304 0.11455
H_ H_ 0.0806583 0.115838 0.336624 0.11455
H_ H_ 0.172361 0.245189 0.256939 0.11455
H_ H_ 0.200022 0.293585 0.298952 0.11455
H_ H_ 0.19406 0.254568 0.347732 0.11455
H_ H_ 0.188277 0.285553 0.187561 0.11455
H_ H_ 0.122763 0.341637 0.0971527 0.11455
H_ H_ 0.218218 0.341037 0.101027 0.11455
H_ H_ 0.112339 0.322707 0.2126 0.11455
H_ H_ 0.0183322 0.324908 0.207619 0.11455
H_ H_ 0.0353548 0.332287 0.117171 0.11455
H_ H_ 0.360614 0.495797 0.193522 0.11455
H_ H_ 0.389267 0.0718131 0.0979127 0.11455
H_ H_ 0.363815 0.481169 0.10006 0.11455
H_ H_ 0.358403 0.0823596 0.213858 0.11455
H_ H_ 0.351687 0.171874 0.206649 0.11455
H_ H_ 0.367826 0.158607 0.115735 0.11455
H_ H_ 0.421658 0.401965 0.212626 0.11455
H_ H_ 0.457083 0.412831 0.26141 0.11455
H_ H_ 0.420317 0.370039 0.303763 0.11455
H_ H_ 0.306121 0.267898 0.222195 0.11455
H_ H_ 0.266308 0.223021 0.260644 0.11455
H_ H_ 0.295591 0.231042 0.310319 0.11455
H_ H_ 0.491135 0.275072 0.37179 0.11455
H_ H_ 0.500882 0.281154 0.424595 0.11455
H_ H_ 0.240916 0.325618 0.389307 0.11455
H_ H_ 0.255165 0.344962 0.439039 0.11455
H_ H_ 0.431135 0.395259 0.500123 0.11455
H_ H_ 0.47629 0.433449 0.0485435 0.11455
H_ H_ 0.437698 0.384456 0.0886824 0.11455
H_ H_ 0.349795 0.258701 0.00587984 0.11455
H_ H_ 0.309304 0.219578 0.0445866 0.11455
H_ H_ 0.313752 0.255513 0.0947393 0.11455
C_ C_ 0.238972 0.182041 0.405137 0.68181
C_ C_ 0.294496 0.173259 0.401511 -0.05681
C_ C_ 0.328684 0.186564 0.423308 -0.08735
C_ C_ 0.380805 0.176454 0.419503 -0.05681
C_ C_ 0.399849 0.159776 0.392596 -0.05681
C_ C_ 0.36603 0.149955 0.370094 -0.08735
C_ C_ 0.313737 0.153531 0.375765 -0.08735
C_ C_ 0.415894 0.181332 0.442086 -0.08735
C_ C_ 0.468558 0.169517 0.438402 -0.08735
C_ C_ 0.485271 0.162898 0.409945 -0.05681
C_ C_ 0.451495 0.159625 0.387098 -0.08735
C_ C_ 0.131175 0.278964 0.413413 0.68181
C_ C_ 0.139224 0.0783375 0.401548 0.68181
C_ C_ 0.142305 0.0237919 0.398964 -0.05681
C_ C_ 0.131245 0.496773 0.422762 -0.08735
C_ C_ 0.130696 0.442221 0.420512 -0.05681
C_ C_ 0.137047 0.419009 0.392938 -0.05681
C_ C_ 0.142289 0.450703 0.3675 -0.08735
C_ C_ 0.145137 0.503043 0.370948 -0.08735
C_ C_ 0.127517 0.412413 0.445099 -0.08735
C_ C_ 0.118773 0.359704 0.442199 -0.08735
C_ C_ 0.124302 0.336696 0.415821 -0.05681
C_ C_ 0.126952 0.366722 0.390216 -0.08735
C_ C_ 0.0379832 0.177613 0.405281 0.68181
C_ C_ 0.120993 0.113474 0.481304 0.1947
C_ C_ 0.0722836 0.133245 0.00862144 -0.08735
C_ C_ 0.0939258 0.158079 0.0312882 -0.08735
C_ C_ 0.131551 0.195218 0.0268693 -0.05681
C_ C_ 0.149322 0.202759 0.997737 0.18498
C_ C_ 0.181937 0.235678 0.494405 -0.08735
C_ C_ 0.210093 0.264732 0.0157599 -0.08735
C_ C_ 0.189101 0.259196 0.0432686 -0.08735
C_ C_ 0.151691 0.223455 0.0499175 0.18498
C_ C_ 0.186227 0.188178 0.0959304 0.44287
C_ C_ 0.101636 0.215052 0.0951672 0.44287
C_ C_ 0.0961851 0.204602 0.123996 -0.05681
C_ C_ 0.0494832 0.209212 0.138639 -0.08735
C_ C_ 0.0447325 0.19749 0.167058 -0.08735
C_ C_ 0.0858437 0.184094 0.182362 -0.05681
C_ C_ 0.133906 0.180428 0.169318 -0.05681
C_ C_ 0.137998 0.192607 0.139576 -0.05681
C_ C_ 0.184807 0.185094 0.126577 -0.05681
C_ C_ 0.228464 0.179373 0.14409 -0.08735
C_ C_ 0.224568 0.174643 0.174091 -0.08735
C_ C_ 0.176381 0.17507 0.18634 -0.05681
C_ C_ 0.170389 0.163237 0.215124 0.44287
C_ C_ 0.0833952 0.180542 0.212627 0.44287
C_ C_ 0.116815 0.161278 0.258582 0.18498
C_ C_ 0.090976 0.113634 0.263567 -0.08735
C_ C_ 0.0767754 0.0996632 0.291258 -0.08735
C_ C_ 0.0880041 0.131707 0.315317 -0.08735
C_ C_ 0.118844 0.175282 0.310688 0.18498
C_ C_ 0.129925 0.191648 0.282043 -0.05681
C_ C_ 0.157263 0.236637 0.278325 -0.08735
C_ C_ 0.176978 0.260527 0.302629 -0.08735
C_ C_ 0.172559 0.237395 0.329096 0.1947
C_ C_ 0.267191 0.320526 0.153094 0.68181
C_ C_ 0.211198 0.31968 0.147615 -0.05681
C_ C_ 0.178239 0.311034 0.170543 -0.08735
C_ C_ 0.127829 0.323532 0.167499 -0.05681
C_ C_ 0.105339 0.328117 0.140142 -0.05681
C_ C_ 0.13967 0.33611 0.117525 -0.08735
C_ C_ 0.19213 0.33095 0.120357 -0.08735
C_ C_ 0.0957101 0.323429 0.192192 -0.08735
C_ C_ 0.0442811 0.323105 0.188956 -0.08735
C_ C_ 0.0215243 0.328961 0.161736 -0.05681
C_ C_ 0.0527853 0.329702 0.137617 -0.08735
C_ C_ 0.372454 0.228417 0.158809 0.68181
C_ C_ 0.360224 0.424428 0.148071 0.68181
C_ C_ 0.362547 0.48069 0.145849 -0.05681
C_ C_ 0.367042 0.0121191 0.1717 -0.08735
C_ C_ 0.366405 0.0660163 0.168355 -0.05681
C_ C_ 0.369758 0.087566 0.14074 -0.05681
C_ C_ 0.37798 0.0553434 0.117087 -0.08735
C_ C_ 0.362877 0.505067 0.119368 -0.08735
C_ C_ 0.361491 0.0974894 0.192749 -0.08735
C_ C_ 0.359072 0.149304 0.188549 -0.08735
C_ C_ 0.368841 0.170774 0.162212 -0.05681
C_ C_ 0.369567 0.141247 0.136853 -0.08735
C_ C_ 0.463455 0.333393 0.155049 0.68181
C_ C_ 0.411226 0.376394 0.230411 0.1947
C_ C_ 0.432474 0.381708 0.257672 -0.08735
C_ C_ 0.407806 0.358511 0.2821 -0.08735
C_ C_ 0.371548 0.321327 0.277527 -0.05681
C_ C_ 0.357568 0.310434 0.248286 0.18498
C_ C_ 0.318294 0.274938 0.24334 -0.08735
C_ C_ 0.294399 0.250407 0.265429 -0.08735
C_ C_ 0.31175 0.257633 0.294122 -0.08735
C_ C_ 0.34735 0.294128 0.301064 0.18498
C_ C_ 0.315383 0.309816 0.3494 0.44287
C_ C_ 0.403184 0.294578 0.343729 0.44287
C_ C_ 0.411178 0.295849 0.373548 -0.05681
C_ C_ 0.459362 0.285212 0.385405 -0.08735
C_ C_ 0.467776 0.290277 0.41544 -0.08735
C_ C_ 0.426189 0.304275 0.433752 -0.05681
C_ C_ 0.376823 0.307354 0.421224 -0.05681
C_ C_ 0.369771 0.303703 0.391622 -0.05681
C_ C_ 0.321035 0.307839 0.379125 -0.05681
C_ C_ 0.278611 0.318076 0.397521 -0.08735
C_ C_ 0.287209 0.330202 0.426479 -0.08735
C_ C_ 0.334173 0.315988 0.43879 -0.05681
C_ C_ 0.341913 0.317342 0.469229 0.44287
C_ C_ 0.432002 0.304058 0.463796 0.44287
C_ C_ 0.405636 0.349692 0.00791803 0.18498
C_ C_ 0.440304 0.389925 0.016265 -0.08735
C_ C_ 0.451386 0.401702 0.0442092 -0.08735
C_ C_ 0.425322 0.374933 0.0662175 -0.08735
C_ C_ 0.393606 0.336128 0.0604344 0.18498
C_ C_ 0.384579 0.321416 0.030833 -0.05681
C_ C_ 0.354371 0.277253 0.025849 -0.08735
C_ C_ 0.329885 0.254147 0.0484637 -0.08735
C_ C_ 0.338961 0.270621 0.0773727 0.1947
N_ N_ 0.146111 0.158276 0.477054 -0.29468
N_ N_ 0.145033 0.206414 0.0800425 -0.17154
N_ N_ 0.12561 0.176207 0.228828 -0.17154
N_ N_ 0.138354 0.199529 0.332941 -0.29468
N_ N_ 0.374918 0.338319 0.226524 -0.29468
N_ N_ 0.35693 0.305484 0.332617 -0.17154
N_ N_ 0.389507 0.312118 0.480624 -0.17154
N_ N_ 0.366215 0.313294 0.081583 -0.29468
O_ O_ 0.218174 0.188925 0.429756 -0.58347
O_ O_ 0.209641 0.181475 0.383334 -0.58347
O_ O_ 0.125604 0.250982 0.435327 -0.58347
O_ O_ 0.140336 0.257304 0.389404 -0.58347
O_ O_ 0.154667 0.101163 0.423232 -0.58347
O_ O_ 0.127852 0.104511 0.379319 -0.58347
O_ O_ 0.0659814 0.162644 0.425177 -0.58347
O_ O_ 0.058433 0.187069 0.381563 -0.58347
O_ O_ 0.0615213 0.234625 0.080583 -0.46727
O_ O_ 0.229162 0.177922 0.0816838 -0.46727
O_ O_ 0.0396306 0.18559 0.226369 -0.46727
O_ O_ 0.211436 0.152907 0.23112 -0.46727
O_ O_ 0.284397 0.3205 0.17796 -0.58347
O_ O_ 0.296476 0.31846 0.131804 -0.58347
O_ O_ 0.376065 0.256305 0.180952 -0.58347
O_ O_ 0.363094 0.2493 0.135363 -0.58347
O_ O_ 0.350005 0.40466 0.171657 -0.58347
O_ O_ 0.376112 0.398091 0.126664 -0.58347
O_ O_ 0.435041 0.341809 0.175194 -0.58347
O_ O_ 0.444156 0.324601 0.130231 -0.58347
O_ O_ 0.439148 0.273589 0.327029 -0.46727
O_ O_ 0.27054 0.318826 0.336802 -0.46727
O_ O_ 0.474948 0.290311 0.475712 -0.46727
O_ O_ 0.302409 0.328341 0.485036 -0.46727
Zn Zn 0.119928 0.200082 0.880519 0.90689
Zn Zn 0.132763 0.189041 0.927081 0.90689
Zn Zn 0.370384 0.302174 0.63269 0.90689
Zn Zn 0.36456 0.309331 0.679947 0.90689
H_ H_ 0.292553 0.20486 0.939446 0.11455
H_ H_ 0.360593 0.133743 0.849047 0.11455
H_ H_ 0.2714 0.151046 0.852927 0.11455
H_ H_ 0.382141 0.225763 0.956497 0.11455
H_ H_ 0.469438 0.199856 0.957356 0.11455
H_ H_ 0.451393 0.143563 0.868797 0.11455
H_ H_ 0.101703 0.0215907 0.939601 0.11455
H_ H_ 0.0453534 0.454132 0.868618 0.11455
H_ H_ 0.14562 0.0393669 0.851299 0.11455
H_ H_ 0.19032 0.436049 0.954157 0.11455
H_ H_ 0.169923 0.34762 0.953717 0.11455
H_ H_ 0.0791574 0.363032 0.877929 0.11455
H_ H_ 0.0651958 0.128164 0.964242 0.11455
H_ H_ 0.0944078 0.0610211 0.511632 0.11455
H_ H_ 0.135678 0.108047 0.553146 0.11455
H_ H_ 0.202544 0.248122 0.970981 0.11455
H_ H_ 0.215662 0.30097 0.513343 0.11455
H_ H_ 0.194745 0.277363 0.562848 0.11455
H_ H_ 0.0151408 0.196957 0.617249 0.11455
H_ H_ -0.00248556 0.183344 0.66895 0.11455
H_ H_ 0.266819 0.185848 0.639214 0.11455
H_ H_ 0.251472 0.180279 0.690957 0.11455
H_ H_ 0.0521902 0.098417 0.752222 0.11455
H_ H_ 0.0287292 0.079478 0.799543 0.11455
H_ H_ 0.0618823 0.130087 0.838234 0.11455
H_ H_ 0.147571 0.256665 0.754254 0.11455
H_ H_ 0.17342 0.308352 0.79398 0.11455
H_ H_ 0.167189 0.27422 0.844725 0.11455
H_ H_ 0.192044 0.304025 0.699687 0.11455
H_ H_ 0.126294 0.327174 0.601328 0.11455
H_ H_ 0.21297 0.307273 0.607288 0.11455
H_ H_ 0.108248 0.314132 0.718182 0.11455
H_ H_ 0.0162515 0.300765 0.708661 0.11455
H_ H_ 0.0390236 0.332102 0.618009 0.11455
H_ H_ 0.323754 0.47474 0.691902 0.11455
H_ H_ 0.379661 0.0489481 0.596143 0.11455
H_ H_ 0.395397 0.462893 0.607907 0.11455
H_ H_ 0.343623 0.0575385 0.712651 0.11455
H_ H_ 0.337179 0.14887 0.708137 0.11455
H_ H_ 0.370167 0.138571 0.617888 0.11455
H_ H_ 0.415666 0.386082 0.716241 0.11455
H_ H_ 0.420461 0.419379 0.763081 0.11455
H_ H_ 0.395178 0.369076 0.806156 0.11455
H_ H_ 0.303973 0.243628 0.725987 0.11455
H_ H_ 0.278417 0.18823 0.768288 0.11455
H_ H_ 0.296596 0.220903 0.815842 0.11455
H_ H_ 0.491657 0.287745 0.869882 0.11455
H_ H_ 0.512338 0.305947 0.920683 0.11455
H_ H_ 0.243079 0.325158 0.889343 0.11455
H_ H_ 0.256617 0.342476 0.940436 0.11455
H_ H_ 0.456831 0.409417 -0.00013799999999997148 0.11455
H_ H_ 0.456451 0.417945 0.549501 0.11455
H_ H_ 0.419905 0.371001 0.589026 0.11455
H_ H_ 0.349719 0.229363 0.509373 0.11455
H_ H_ 0.298872 0.194805 0.549287 0.11455
H_ H_ 0.317921 0.226999 0.598456 0.11455
C_ C_ 0.220432 0.185287 0.901308 0.68181
C_ C_ 0.276902 0.177328 0.897466 -0.05681
C_ C_ 0.31036 0.194043 0.919175 -0.08735
C_ C_ 0.362287 0.18224 0.917595 -0.05681
C_ C_ 0.381172 0.160135 0.892087 -0.05681
C_ C_ 0.348474 0.151584 0.868766 -0.08735
C_ C_ 0.295472 0.161213 0.871754 -0.08735
C_ C_ 0.394963 0.200695 0.939745 -0.08735
C_ C_ 0.445797 0.191744 0.937622 -0.08735
C_ C_ 0.466223 0.17184 0.912676 -0.05681
C_ C_ 0.434058 0.153944 0.889031 -0.08735
C_ C_ 0.123095 0.292846 0.912016 0.68181
C_ C_ 0.122908 0.0938294 0.898067 0.68181
C_ C_ 0.121721 0.0380697 0.894621 -0.05681
C_ C_ 0.148665 0.508925 0.918692 -0.08735
C_ C_ 0.138749 0.455729 0.918816 -0.05681
C_ C_ 0.104143 0.43641 0.898781 -0.05681
C_ C_ 0.0771464 0.467969 0.881763 -0.08735
C_ C_ 0.0874594 0.519878 0.880752 -0.08735
C_ C_ 0.163664 0.423199 0.937596 -0.08735
C_ C_ 0.151551 0.371834 0.936713 -0.08735
C_ C_ 0.126372 0.34883 0.913705 -0.05681
C_ C_ 0.10124 0.38258 0.894732 -0.08735
C_ C_ 0.0295559 0.188468 0.906354 0.68181
C_ C_ 0.0838696 0.147943 0.980901 0.1947
C_ C_ 0.116242 0.0943407 0.508274 -0.08735
C_ C_ 0.132195 0.124594 0.531965 -0.08735
C_ C_ 0.154492 0.171662 0.527618 -0.05681
C_ C_ 0.159623 0.189056 0.4994 0.18498
C_ C_ 0.186883 0.240952 0.992677 -0.08735
C_ C_ 0.191563 0.266943 0.518284 -0.08735
C_ C_ 0.184483 0.25165 0.545776 -0.08735
C_ C_ 0.163683 0.203434 0.551749 0.18498
C_ C_ 0.192474 0.177507 0.599368 0.44287
C_ C_ 0.104906 0.197759 0.592162 0.44287
C_ C_ 0.0964209 0.191443 0.621842 -0.05681
C_ C_ 0.046462 0.191602 0.632652 -0.08735
C_ C_ 0.0374697 0.183957 0.66183 -0.08735
C_ C_ 0.0773827 0.179788 0.680413 -0.05681
C_ C_ 0.127911 0.178938 0.671027 -0.05681
C_ C_ 0.136096 0.180942 0.641376 -0.05681
C_ C_ 0.18594 0.178711 0.629591 -0.05681
C_ C_ 0.228081 0.180269 0.648936 -0.08735
C_ C_ 0.220149 0.175466 0.679113 -0.08735
C_ C_ 0.168886 0.174384 0.690791 -0.05681
C_ C_ 0.157767 0.169965 0.719669 0.44287
C_ C_ 0.0691798 0.180764 0.710521 0.44287
C_ C_ 0.096015 0.1658 0.75939 0.18498
C_ C_ 0.0719021 0.119663 0.767002 -0.08735
C_ C_ 0.0572177 0.110219 0.795527 -0.08735
C_ C_ 0.0791666 0.137658 0.817421 -0.08735
C_ C_ 0.105039 0.181909 0.810904 0.18498
C_ C_ 0.112385 0.195913 0.781975 -0.05681
C_ C_ 0.137968 0.243551 0.775854 -0.08735
C_ C_ 0.151381 0.27402 0.79962 -0.08735
C_ C_ 0.145634 0.256303 0.827401 0.1947
C_ C_ 0.268028 0.307949 0.656594 0.68181
C_ C_ 0.212671 0.30962 0.653875 -0.05681
C_ C_ 0.178366 0.311382 0.677813 -0.08735
C_ C_ 0.125544 0.315561 0.673616 -0.05681
C_ C_ 0.107019 0.316471 0.645237 -0.05681
C_ C_ 0.13923 0.318357 0.622465 -0.08735
C_ C_ 0.18985 0.30681 0.625834 -0.08735
C_ C_ 0.0917042 0.311084 0.696111 -0.08735
C_ C_ 0.0401061 0.310062 0.691045 -0.08735
C_ C_ 0.0200667 0.316559 0.663761 -0.05681
C_ C_ 0.0551544 0.322315 0.639932 -0.08735
C_ C_ 0.367899 0.206771 0.663035 0.68181
C_ C_ 0.358797 0.405642 0.652292 0.68181
C_ C_ 0.361998 0.460931 0.650932 -0.05681
C_ C_ 0.356197 -0.009278000000000008 0.669897 -0.08735
C_ C_ 0.358249 0.0432167 0.667725 -0.05681
C_ C_ 0.364156 0.0657507 0.641126 -0.05681
C_ C_ 0.368062 0.033847 0.617509 -0.08735
C_ C_ 0.382878 0.483879 0.626296 -0.08735
C_ C_ 0.350805 0.0747762 0.691676 -0.08735
C_ C_ 0.349174 0.127259 0.689786 -0.08735
C_ C_ 0.363404 0.151398 0.663749 -0.05681
C_ C_ 0.368749 0.119725 0.639574 -0.08735
C_ C_ 0.465001 0.305732 0.6595 0.68181
C_ C_ 0.397074 0.364208 0.732856 0.1947
C_ C_ 0.402278 0.383884 0.761225 -0.08735
C_ C_ 0.384852 0.357055 0.784292 -0.08735
C_ C_ 0.364365 0.306391 0.780368 -0.05681
C_ C_ 0.351354 0.292034 0.75185 0.18498
C_ C_ 0.319558 0.249264 0.747577 -0.08735
C_ C_ 0.300489 0.221996 0.770651 -0.08735
C_ C_ 0.308196 0.242069 0.797889 -0.08735
C_ C_ 0.343863 0.278592 0.803643 0.18498
C_ C_ 0.314707 0.308895 0.850695 0.44287
C_ C_ 0.399624 0.28448 0.843309 0.44287
C_ C_ 0.412476 0.299037 0.871351 -0.05681
C_ C_ 0.460234 0.291789 0.883322 -0.08735
C_ C_ 0.470388 0.303159 0.911916 -0.08735
C_ C_ 0.428505 0.316475 0.930246 -0.05681
C_ C_ 0.382147 0.325816 0.919077 -0.05681
C_ C_ 0.372002 0.311446 0.891452 -0.05681
C_ C_ 0.322537 0.316173 0.880133 -0.05681
C_ C_ 0.280436 0.327638 0.897784 -0.08735
C_ C_ 0.289718 0.334623 0.927156 -0.08735
C_ C_ 0.341008 0.33593 0.937591 -0.05681
C_ C_ 0.350275 0.349167 0.966231 0.44287
C_ C_ 0.435525 0.322024 0.960269 0.44287
C_ C_ 0.398387 0.32343 0.511036 0.18498
C_ C_ 0.423997 0.369379 0.517498 -0.08735
C_ C_ 0.437557 0.3828 0.545625 -0.08735
C_ C_ 0.420282 0.354132 0.568172 -0.08735
C_ C_ 0.38511 0.313535 0.563069 0.18498
C_ C_ 0.377245 0.294616 0.533913 -0.05681
C_ C_ 0.34804 0.250057 0.530352 -0.08735
C_ C_ 0.323142 0.228141 0.553253 -0.08735
C_ C_ 0.330835 0.248697 0.580935 0.1947
N_ N_ 0.124719 0.178785 0.975714 -0.29468
N_ N_ 0.152986 0.188403 0.581547 -0.17154
N_ N_ 0.109708 0.174932 0.728576 -0.17154
N_ N_ 0.119147 0.213417 0.832915 -0.29468
N_ N_ 0.372041 0.319522 0.72887 -0.29468
N_ N_ 0.352868 0.292233 0.833425 -0.17154
N_ N_ 0.39652 0.340983 0.978023 -0.17154
N_ N_ 0.362488 0.289793 0.585404 -0.29468
O_ O_ 0.201347 0.171505 0.924902 -0.58347
O_ O_ 0.194952 0.211233 0.884234 -0.58347
O_ O_ 0.144665 0.266849 0.931021 -0.58347
O_ O_ 0.112098 0.273251 0.887237 -0.58347
O_ O_ 0.117895 0.113343 0.922403 -0.58347
O_ O_ 0.12943 0.123189 0.876555 -0.58347
O_ O_ 0.0576737 0.202868 0.92693 -0.58347
O_ O_ 0.0475312 0.18694 0.88113 -0.58347
O_ O_ 0.0656055 0.198089 0.574166 -0.46727
O_ O_ 0.236927 0.16953 0.588971 -0.46727
O_ O_ 0.024583 0.195733 0.721467 -0.46727
O_ O_ 0.195264 0.170491 0.737099 -0.46727
O_ O_ 0.287991 0.311926 0.680933 -0.58347
O_ O_ 0.294905 0.305629 0.634834 -0.58347
O_ O_ 0.366831 0.235213 0.685299 -0.58347
O_ O_ 0.370758 0.228231 0.638589 -0.58347
O_ O_ 0.357417 0.38253 0.675996 -0.58347
O_ O_ 0.360465 0.377756 0.629164 -0.58347
O_ O_ 0.437683 0.304298 0.680007 -0.58347
O_ O_ 0.445203 0.30515 0.63433 -0.58347
O_ O_ 0.436725 0.267003 0.827787 -0.46727
O_ O_ 0.267582 0.313184 0.840424 -0.46727
O_ O_ 0.478081 0.309089 0.971538 -0.46727
O_ O_ 0.310642 0.355082 0.982568 -0.46727
Zn Zn 0.1354 0.682661 0.384438 0.90689
Zn Zn 0.144933 0.680316 0.431142 0.90689
Zn Zn 0.375375 0.821106 0.132842 0.90689
Zn Zn 0.367864 0.826462 0.180527 0.90689
H_ H_ 0.313716 0.697805 0.447691 0.11455
H_ H_ 0.381607 0.64365 0.353683 0.11455
H_ H_ 0.287472 0.657246 0.36027 0.11455
H_ H_ 0.403216 0.692202 0.467671 0.11455
H_ H_ 0.492244 0.688219 0.457494 0.11455
H_ H_ 0.467117 0.650346 0.368357 0.11455
H_ H_ 0.133719 0.513075 0.443833 0.11455
H_ H_ 0.120143 0.930791 0.349155 0.11455
H_ H_ 0.148372 0.52696 0.351821 0.11455
H_ H_ 0.147656 0.927926 0.464656 0.11455
H_ H_ 0.151196 0.836001 0.460312 0.11455
H_ H_ 0.110553 0.847696 0.371655 0.11455
H_ H_ 0.0870134 0.613282 0.468253 0.11455
H_ H_ 0.0509858 0.600539 0.0163596 0.11455
H_ H_ 0.100006 0.636372 0.0582463 0.11455
H_ H_ 0.200557 0.749096 0.479515 0.11455
H_ H_ 0.223794 0.808483 0.0146722 0.11455
H_ H_ 0.205841 0.78301 0.0640799 0.11455
H_ H_ 0.0210971 0.707522 0.12619 0.11455
H_ H_ 0.00886014 0.694748 0.175465 0.11455
H_ H_ 0.27193 0.669505 0.137886 0.11455
H_ H_ 0.263338 0.657475 0.1894 0.11455
H_ H_ 0.080123 0.588783 0.25204 0.11455
H_ H_ 0.0546971 0.568399 0.300407 0.11455
H_ H_ 0.0879122 0.616619 0.341408 0.11455
H_ H_ 0.186271 0.741491 0.262636 0.11455
H_ H_ 0.206582 0.793678 0.30358 0.11455
H_ H_ 0.187286 0.766253 0.353666 0.11455
H_ H_ 0.196935 0.80602 0.194986 0.11455
H_ H_ 0.127539 0.839477 0.0965672 0.11455
H_ H_ 0.222029 0.837216 0.10533 0.11455
H_ H_ 0.115807 0.808892 0.212953 0.11455
H_ H_ 0.0271768 0.806664 0.207675 0.11455
H_ H_ 0.0448309 0.827687 0.117172 0.11455
H_ H_ 0.371923 0.996848 0.193363 0.11455
H_ H_ 0.377109 0.575966 0.0957114 0.11455
H_ H_ 0.384553 0.979988 0.101493 0.11455
H_ H_ 0.360763 0.579173 0.213257 0.11455
H_ H_ 0.388159 0.668826 0.211046 0.11455
H_ H_ 0.384786 0.65805 0.117781 0.11455
H_ H_ 0.42543 0.89463 0.217911 0.11455
H_ H_ 0.439037 0.922418 0.268061 0.11455
H_ H_ 0.40858 0.86663 0.309532 0.11455
H_ H_ 0.312699 0.756559 0.223372 0.11455
H_ H_ 0.296162 0.69 0.259788 0.11455
H_ H_ 0.307492 0.714167 0.311909 0.11455
H_ H_ 0.494405 0.782745 0.372662 0.11455
H_ H_ 0.507673 0.790393 0.424684 0.11455
H_ H_ 0.245682 0.825644 0.387683 0.11455
H_ H_ 0.251827 0.81833 0.439466 0.11455
H_ H_ 0.440776 0.899866 0.501843 0.11455
H_ H_ 0.428915 0.95594 0.0500923 0.11455
H_ H_ 0.420561 0.895564 0.0870942 0.11455
H_ H_ 0.344077 0.768779 0.00430405 0.11455
H_ H_ 0.317587 0.71063 0.0453467 0.11455
H_ H_ 0.332131 0.740087 0.0951506 0.11455
C_ C_ 0.241126 0.689197 0.40784 0.68181
C_ C_ 0.295877 0.686088 0.403602 -0.05681
C_ C_ 0.328558 0.68829 0.426587 -0.08735
C_ C_ 0.380785 0.676149 0.423554 -0.05681
C_ C_ 0.398603 0.665413 0.395788 -0.05681
C_ C_ 0.365307 0.657498 0.372911 -0.08735
C_ C_ 0.313052 0.664648 0.37774 -0.08735
C_ C_ 0.414589 0.677807 0.446737 -0.08735
C_ C_ 0.4665 0.680067 0.440813 -0.08735
C_ C_ 0.486105 0.673734 0.412954 -0.05681
C_ C_ 0.45253 0.663464 0.389479 -0.08735
C_ C_ 0.133522 0.778192 0.413853 0.68181
C_ C_ 0.140415 0.584933 0.400315 0.68181
C_ C_ 0.138134 0.527413 0.397735 -0.05681
C_ C_ 0.150737 0.992185 0.422398 -0.08735
C_ C_ 0.142471 0.939942 0.420104 -0.05681
C_ C_ 0.134836 0.916484 0.392681 -0.05681
C_ C_ 0.129484 0.949207 0.369029 -0.08735
C_ C_ 0.131215 1.00185 0.372201 -0.08735
C_ C_ 0.145518 0.909369 0.444757 -0.08735
C_ C_ 0.148155 0.858825 0.441831 -0.08735
C_ C_ 0.134663 0.835752 0.416031 -0.05681
C_ C_ 0.128591 0.865073 0.391177 -0.08735
C_ C_ 0.0418994 0.675515 0.40941 0.68181
C_ C_ 0.10588 0.629054 0.485009 0.1947
C_ C_ 0.0788816 0.629679 0.0130497 -0.08735
C_ C_ 0.109236 0.64827 0.0355959 -0.08735
C_ C_ 0.139044 0.689836 0.0306343 -0.05681
C_ C_ 0.146121 0.708037 1.00121772 0.18498
C_ C_ 0.189557 0.739202 0.499761 -0.08735
C_ C_ 0.204322 0.773047 0.0194134 -0.08735
C_ C_ 0.191342 0.760967 0.047107 -0.08735
C_ C_ 0.160147 0.718889 0.0542046 0.18498
C_ C_ 0.196317 0.699028 0.100924 0.44287
C_ C_ 0.108674 0.710355 0.0971172 0.44287
C_ C_ 0.103788 0.705644 0.12795 -0.05681
C_ C_ 0.0555737 0.707899 0.138921 -0.08735
C_ C_ 0.0485318 0.698026 0.168472 -0.08735
C_ C_ 0.09124 0.68943 0.185989 -0.05681
C_ C_ 0.140776 0.686445 0.173529 -0.05681
C_ C_ 0.145782 0.693462 0.143845 -0.05681
C_ C_ 0.191378 0.691904 0.131172 -0.05681
C_ C_ 0.235118 0.678023 0.147421 -0.08735
C_ C_ 0.230363 0.674179 0.177357 -0.08735
C_ C_ 0.181282 0.67573 0.191016 -0.05681
C_ C_ 0.175245 0.668388 0.22085 0.44287
C_ C_ 0.0862989 0.68721 0.216189 0.44287
C_ C_ 0.118756 0.659452 0.263378 0.18498
C_ C_ 0.0909993 0.613776 0.269889 -0.08735
C_ C_ 0.0825612 0.597136 0.298009 -0.08735
C_ C_ 0.0973791 0.628484 0.320499 -0.08735
C_ C_ 0.127135 0.671745 0.315371 0.18498
C_ C_ 0.140129 0.686981 0.286126 -0.05681
C_ C_ 0.170533 0.731929 0.282119 -0.08735
C_ C_ 0.186986 0.758151 0.30595 -0.08735
C_ C_ 0.173917 0.742721 0.333986 0.1947
C_ C_ 0.271815 0.815402 0.154708 0.68181
C_ C_ 0.216462 0.81639 0.150999 -0.05681
C_ C_ 0.182591 0.811726 0.173722 -0.08735
C_ C_ 0.13153 0.816857 0.169428 -0.05681
C_ C_ 0.112074 0.825543 0.141902 -0.05681
C_ C_ 0.143399 0.832743 0.118441 -0.08735
C_ C_ 0.196087 0.829295 0.12265 -0.08735
C_ C_ 0.0992444 0.815279 0.193141 -0.08735
C_ C_ 0.0467446 0.81046 0.189034 -0.08735
C_ C_ 0.0232965 0.821735 0.161361 -0.05681
C_ C_ 0.0587423 0.826863 0.137749 -0.08735
C_ C_ 0.375625 0.727188 0.162021 0.68181
C_ C_ 0.364344 0.923175 0.149909 0.68181
C_ C_ 0.370441 0.980197 0.147094 -0.05681
C_ C_ 0.360698 0.511938 0.170444 -0.08735
C_ C_ 0.362156 0.565671 0.16792 -0.05681
C_ C_ 0.36998 0.589295 0.140603 -0.05681
C_ C_ 0.373348 0.557458 0.116836 -0.08735
C_ C_ 0.377124 0.00317877 0.120352 -0.08735
C_ C_ 0.362513 0.596514 0.192841 -0.08735
C_ C_ 0.376531 0.648777 0.191349 -0.08735
C_ C_ 0.379353 0.671082 0.163542 -0.05681
C_ C_ 0.375808 0.642357 0.138602 -0.08735
C_ C_ 0.467248 0.827772 0.155843 0.68181
C_ C_ 0.408514 0.872233 0.235128 0.1947
C_ C_ 0.415868 0.888064 0.262636 -0.08735
C_ C_ 0.401069 0.856275 0.28671 -0.08735
C_ C_ 0.372861 0.811169 0.280241 -0.05681
C_ C_ 0.358391 0.802045 0.250827 0.18498
C_ C_ 0.331339 0.758687 0.244563 -0.08735
C_ C_ 0.316212 0.725467 0.266837 -0.08735
C_ C_ 0.324082 0.737016 0.296285 -0.08735
C_ C_ 0.352463 0.781247 0.303113 0.18498
C_ C_ 0.320601 0.808871 0.349826 0.44287
C_ C_ 0.407322 0.784908 0.346049 0.44287
C_ C_ 0.414584 0.793414 0.375454 -0.05681
C_ C_ 0.462209 0.789135 0.387095 -0.08735
C_ C_ 0.469648 0.79771 0.416753 -0.08735
C_ C_ 0.428186 0.806212 0.435456 -0.05681
C_ C_ 0.380882 0.813056 0.422378 -0.05681
C_ C_ 0.372957 0.806742 0.392168 -0.05681
C_ C_ 0.32473 0.810149 0.379429 -0.05681
C_ C_ 0.282838 0.818838 0.397151 -0.08735
C_ C_ 0.287745 0.821321 0.42712 -0.08735
C_ C_ 0.336614 0.817104 0.440176 -0.05681
C_ C_ 0.34321 0.822029 0.470905 0.44287
C_ C_ 0.432444 0.810241 0.465386 0.44287
C_ C_ 0.380795 0.863616 0.00906521 0.18498
C_ C_ 0.406061 0.908185 0.0156641 -0.08735
C_ C_ 0.41402 0.920333 0.0445755 -0.08735
C_ C_ 0.404878 0.887258 0.066997 -0.08735
C_ C_ 0.382466 0.839908 0.0617557 0.18498
C_ C_ 0.372407 0.827351 0.032139 -0.05681
C_ C_ 0.351379 0.778762 0.0271646 -0.08735
C_ C_ 0.333573 0.748243 0.0501186 -0.08735
C_ C_ 0.343446 0.764909 0.0788146 0.1947
N_ N_ 0.136979 0.670363 0.479981 -0.29468
N_ N_ 0.15422 0.704954 0.0841233 -0.17154
N_ N_ 0.127028 0.67286 0.233159 -0.17154
N_ N_ 0.142263 0.701036 0.337824 -0.29468
N_ N_ 0.376953 0.831497 0.22864 -0.29468
N_ N_ 0.360699 0.793872 0.333481 -0.17154
N_ N_ 0.390195 0.81614 0.483172 -0.17154
N_ N_ 0.369253 0.809656 0.083407 -0.29468
O_ O_ 0.221037 0.682279 0.432154 -0.58347
O_ O_ 0.212655 0.695966 0.386352 -0.58347
O_ O_ 0.148977 0.752302 0.434342 -0.58347
O_ O_ 0.122496 0.757404 0.390049 -0.58347
O_ O_ 0.131785 0.607136 0.424769 -0.58347
O_ O_ 0.150159 0.610439 0.378018 -0.58347
O_ O_ 0.067927 0.686861 0.430843 -0.58347
O_ O_ 0.0615286 0.676258 0.385211 -0.58347
O_ O_ 0.0676177 0.717491 0.0807316 -0.46727
O_ O_ 0.23891 0.693403 0.0879844 -0.46727
O_ O_ 0.0408322 0.688237 0.227951 -0.46727
O_ O_ 0.214064 0.653391 0.237922 -0.46727
O_ O_ 0.291385 0.81692 0.178971 -0.58347
O_ O_ 0.30009 0.819507 0.133267 -0.58347
O_ O_ 0.372651 0.752082 0.184088 -0.58347
O_ O_ 0.376262 0.748422 0.138224 -0.58347
O_ O_ 0.363537 0.90464 0.175088 -0.58347
O_ O_ 0.373263 0.895008 0.128761 -0.58347
O_ O_ 0.439149 0.830614 0.177188 -0.58347
O_ O_ 0.44728 0.823322 0.131539 -0.58347
O_ O_ 0.443753 0.761137 0.332197 -0.46727
O_ O_ 0.278937 0.827147 0.337613 -0.46727
O_ O_ 0.47466 0.799372 0.476844 -0.46727
O_ O_ 0.3037 0.836352 0.486179 -0.46727
Zn Zn 0.125227 0.695954 0.884319 0.90689
Zn Zn 0.133688 0.691532 0.932036 0.90689
Zn Zn 0.371648 0.799567 0.634384 0.90689
Zn Zn 0.361654 0.808554 0.682274 0.90689
H_ H_ 0.303037 0.695199 0.948429 0.11455
H_ H_ 0.371129 0.679852 0.848982 0.11455
H_ H_ 0.278807 0.687882 0.859235 0.11455
H_ H_ 0.393409 0.690313 0.966599 0.11455
H_ H_ 0.48049 0.678614 0.959201 0.11455
H_ H_ 0.457816 0.688366 0.865868 0.11455
H_ H_ 0.1715 0.524333 0.935524 0.11455
H_ H_ 0.143521 0.951821 0.844688 0.11455
H_ H_ 0.0761179 0.54122 0.861378 0.11455
H_ H_ 0.101783 0.940603 0.960662 0.11455
H_ H_ 0.107409 0.847007 0.958544 0.11455
H_ H_ 0.130992 0.859572 0.868007 0.11455
H_ H_ 0.0660777 0.62855 0.968037 0.11455
H_ H_ 0.0691716 0.581108 0.516441 0.11455
H_ H_ 0.0940297 0.632764 0.556082 0.11455
H_ H_ 0.188465 0.761398 0.975021 0.11455
H_ H_ 0.241472 0.789755 0.51954 0.11455
H_ H_ 0.220257 0.764995 0.569366 0.11455
H_ H_ 1.0154338 0.715349 0.627139 0.11455
H_ H_ 1.00617243 0.719761 0.67789 0.11455
H_ H_ 0.250153 0.623594 0.638985 0.11455
H_ H_ 0.241152 0.629502 0.692411 0.11455
H_ H_ 0.0750587 0.579201 0.754034 0.11455
H_ H_ 0.0449614 0.566059 0.802424 0.11455
H_ H_ 0.0681562 0.625189 0.842388 0.11455
H_ H_ 0.154901 0.74156 0.757698 0.11455
H_ H_ 0.185388 0.795342 0.795959 0.11455
H_ H_ 0.182282 0.761516 0.845783 0.11455
H_ H_ 0.187262 0.790151 0.697955 0.11455
H_ H_ 0.130255 0.82949 0.600428 0.11455
H_ H_ 0.217623 0.807145 0.608825 0.11455
H_ H_ 0.106837 0.816509 0.71838 0.11455
H_ H_ 0.0149053 0.81369 0.712032 0.11455
H_ H_ 0.0401463 0.831269 0.619783 0.11455
H_ H_ 0.354982 0.974345 0.691688 0.11455
H_ H_ 0.410838 0.552672 0.608221 0.11455
H_ H_ 0.381693 0.954234 0.603186 0.11455
H_ H_ 0.324247 0.56215 0.71529 0.11455
H_ H_ 0.345502 0.647199 0.713833 0.11455
H_ H_ 0.378028 0.638308 0.623852 0.11455
H_ H_ 0.415862 0.882008 0.715769 0.11455
H_ H_ 0.410631 0.928593 0.761367 0.11455
H_ H_ 0.386322 0.879174 0.804811 0.11455
H_ H_ 0.300336 0.745969 0.725852 0.11455
H_ H_ 0.261858 0.700947 0.765918 0.11455
H_ H_ 0.287201 0.721593 0.816419 0.11455
H_ H_ 0.475352 0.817499 0.87293 0.11455
H_ H_ 0.488377 0.8239 0.923446 0.11455
H_ H_ 0.222009 0.826749 0.889451 0.11455
H_ H_ 0.235671 0.8315 0.942467 0.11455
H_ H_ 0.416726 0.934257 0.99827286 0.11455
H_ H_ 0.454133 0.928444 0.551506 0.11455
H_ H_ 0.430181 0.868486 0.589716 0.11455
H_ H_ 0.349943 0.737995 0.509896 0.11455
H_ H_ 0.304364 0.701211 0.55336 0.11455
H_ H_ 0.315803 0.733309 0.599922 0.11455
C_ C_ 0.229787 0.690093 0.908886 0.68181
C_ C_ 0.284604 0.689375 0.904889 -0.05681
C_ C_ 0.317172 0.691883 0.926793 -0.08735
C_ C_ 0.371531 0.691094 0.922245 -0.05681
C_ C_ 0.389661 0.691348 0.894484 -0.05681
C_ C_ 0.356597 0.689818 0.870888 -0.08735
C_ C_ 0.304597 0.688252 0.876798 -0.08735
C_ C_ 0.406174 0.692011 0.944596 -0.08735
C_ C_ 0.457743 0.688375 0.940333 -0.08735
C_ C_ 0.47816 0.685712 0.912278 -0.05681
C_ C_ 0.443914 0.686609 0.888684 -0.08735
C_ C_ 0.123439 0.792015 0.911698 0.68181
C_ C_ 0.127172 0.595904 0.902705 0.68181
C_ C_ 0.123326 0.540992 0.900308 -0.05681
C_ C_ 0.106603 1.00775275 0.917257 -0.08735
C_ C_ 0.109357 0.952868 0.916138 -0.05681
C_ C_ 0.12319 0.930366 0.88911 -0.05681
C_ C_ 0.130199 0.963346 0.865565 -0.08735
C_ C_ 0.137811 0.0145444 0.869517 -0.08735
C_ C_ 0.106754 0.92286 0.939644 -0.08735
C_ C_ 0.114816 0.870533 0.938966 -0.08735
C_ C_ 0.124938 0.847567 0.91195 -0.05681
C_ C_ 0.127589 0.877779 0.887453 -0.08735
C_ C_ 0.0289696 0.690633 0.908864 0.68181
C_ C_ 0.0849278 0.646809 0.985444 0.1947
C_ C_ 0.0949336 0.611953 0.512862 -0.08735
C_ C_ 0.111995 0.640491 0.536461 -0.08735
C_ C_ 0.144923 0.68228 0.531711 -0.05681
C_ C_ 0.157235 0.696899 0.503344 0.18498
C_ C_ 0.182465 0.747406 0.996231 -0.08735
C_ C_ 0.212479 0.763359 0.523226 -0.08735
C_ C_ 0.200503 0.74826 0.551366 -0.08735
C_ C_ 0.166774 0.70998 0.556363 0.18498
C_ C_ 0.187731 0.673956 0.601889 0.44287
C_ C_ 0.106933 0.709095 0.598508 0.44287
C_ C_ 0.0970044 0.70245 0.627174 -0.05681
C_ C_ 0.0491108 0.711186 0.639067 -0.08735
C_ C_ 0.0418024 0.707105 0.668608 -0.08735
C_ C_ 0.078887 0.684878 0.685711 -0.05681
C_ C_ 0.124452 0.670461 0.673213 -0.05681
C_ C_ 0.132972 0.676218 0.642877 -0.05681
C_ C_ 0.180323 0.666038 0.631406 -0.05681
C_ C_ 0.217926 0.645664 0.648424 -0.08735
C_ C_ 0.212978 0.644691 0.67813 -0.08735
C_ C_ 0.165991 0.658903 0.691164 -0.05681
C_ C_ 0.157474 0.655704 0.721049 0.44287
C_ C_ 0.0717055 0.678999 0.715444 0.44287
C_ C_ 0.101827 0.65287 0.763004 0.18498
C_ C_ 0.0763772 0.610238 0.77083 -0.08735
C_ C_ 0.0633581 0.601007 0.797606 -0.08735
C_ C_ 0.082257 0.631125 0.820131 -0.08735
C_ C_ 0.113004 0.674042 0.81365 0.18498
C_ C_ 0.1183 0.687835 0.785128 -0.05681
C_ C_ 0.140851 0.733433 0.778544 -0.08735
C_ C_ 0.163826 0.761097 0.8007 -0.08735
C_ C_ 0.1569 0.746779 0.829365 0.1947
C_ C_ 0.266093 0.793568 0.658533 0.68181
C_ C_ 0.210136 0.79716 0.654194 -0.05681
C_ C_ 0.175155 0.800723 0.677631 -0.08735
C_ C_ 0.125408 0.814688 0.674236 -0.05681
C_ C_ 0.106157 0.822058 0.646539 -0.05681
C_ C_ 0.140231 0.821198 0.62232 -0.08735
C_ C_ 0.190397 0.80388 0.626123 -0.08735
C_ C_ 0.0929656 0.815318 0.697274 -0.08735
C_ C_ 0.0418371 0.821309 0.693705 -0.08735
C_ C_ 0.0207386 0.82714 0.665827 -0.05681
C_ C_ 0.0538665 0.828277 0.641939 -0.08735
C_ C_ 0.372603 0.706586 0.667681 0.68181
C_ C_ 0.366731 0.902919 0.650222 0.68181
C_ C_ 0.36075 0.95791 0.646876 -0.05681
C_ C_ 0.34425 0.490146 0.674382 -0.08735
C_ C_ 0.352519 0.543194 0.673292 -0.05681
C_ C_ 0.370634 0.567426 0.647212 -0.05681
C_ C_ 0.386259 0.535661 0.625289 -0.08735
C_ C_ 0.366417 0.979057 0.619578 -0.08735
C_ C_ 0.334542 0.576942 0.69435 -0.08735
C_ C_ 0.347801 0.627025 0.693487 -0.08735
C_ C_ 0.367983 0.651503 0.668983 -0.05681
C_ C_ 0.374062 0.621486 0.644665 -0.08735
C_ C_ 0.465192 0.812474 0.658904 0.68181
C_ C_ 0.393041 0.868884 0.733404 0.1947
C_ C_ 0.393894 0.890277 0.75995 -0.08735
C_ C_ 0.375093 0.865527 0.784197 -0.08735
C_ C_ 0.349867 0.818827 0.780631 -0.05681
C_ C_ 0.33957 0.801136 0.751262 0.18498
C_ C_ 0.313341 0.754762 0.746366 -0.08735
C_ C_ 0.290412 0.730507 0.769337 -0.08735
C_ C_ 0.300339 0.746984 0.797809 -0.08735
C_ C_ 0.33053 0.78977 0.803217 0.18498
C_ C_ 0.298629 0.820209 0.848768 0.44287
C_ C_ 0.386956 0.804203 0.843717 0.44287
C_ C_ 0.394157 0.816919 0.873367 -0.05681
C_ C_ 0.442513 0.824106 0.886159 -0.08735
C_ C_ 0.448664 0.826416 0.915675 -0.08735
C_ C_ 0.406888 0.830543 0.934021 -0.05681
C_ C_ 0.357353 0.83149 0.922421 -0.05681
C_ C_ 0.351417 0.824544 0.891149 -0.05681
C_ C_ 0.302946 0.828564 0.878966 -0.05681
C_ C_ 0.259913 0.827334 0.89753 -0.08735
C_ C_ 0.26704 0.832539 0.926882 -0.08735
C_ C_ 0.314968 0.834841 0.939691 -0.05681
C_ C_ 0.322027 0.847014 0.969158 0.44287
C_ C_ 0.413099 0.84049 0.963323 0.44287
C_ C_ 0.399397 0.830247 0.512684 0.18498
C_ C_ 0.422038 0.877845 0.518572 -0.08735
C_ C_ 0.436544 0.890024 0.54684 -0.08735
C_ C_ 0.421093 0.859926 0.568884 -0.08735
C_ C_ 0.388625 0.817406 0.564702 0.18498
C_ C_ 0.380857 0.800544 0.536173 -0.05681
C_ C_ 0.353259 0.755208 0.531364 -0.08735
C_ C_ 0.333287 0.729243 0.556092 -0.08735
C_ C_ 0.336935 0.749956 0.582584 0.1947
N_ N_ 0.123191 0.681976 0.979988 -0.29468
N_ N_ 0.153399 0.698231 0.586335 -0.17154
N_ N_ 0.111858 0.663193 0.732775 -0.17154
N_ N_ 0.131681 0.703869 0.8352 -0.29468
N_ N_ 0.364538 0.826517 0.7296 -0.29468
N_ N_ 0.339127 0.804433 0.832891 -0.17154
N_ N_ 0.371145 0.851843 0.980067 -0.17154
N_ N_ 0.370011 0.7882 0.586731 -0.29468
O_ O_ 0.209379 0.689493 0.932919 -0.58347
O_ O_ 0.200252 0.699191 0.88787 -0.58347
O_ O_ 0.13372 0.76831 0.934114 -0.58347
O_ O_ 0.117513 0.767779 0.888738 -0.58347
O_ O_ 0.124965 0.617493 0.927357 -0.58347
O_ O_ 0.130303 0.62215 0.881029 -0.58347
O_ O_ 0.0586333 0.693512 0.929297 -0.58347
O_ O_ 0.0461716 0.69026 0.884034 -0.58347
O_ O_ 0.0718137 0.731259 0.582938 -0.46727
O_ O_ 0.224819 0.650777 0.589195 -0.46727
O_ O_ 0.0273413 0.688194 0.726906 -0.46727
O_ O_ 0.195857 0.647599 0.73883 -0.46727
O_ O_ 0.286144 0.803184 0.683603 -0.58347
O_ O_ 0.292498 0.795279 0.636597 -0.58347
O_ O_ 0.365373 0.734122 0.689283 -0.58347
O_ O_ 0.37437 0.725879 0.642874 -0.58347
O_ O_ 0.359784 0.884276 0.674656 -0.58347
O_ O_ 0.368404 0.874193 0.627791 -0.58347
O_ O_ 0.436954 0.815129 0.680884 -0.58347
O_ O_ 0.447183 0.802132 0.634844 -0.58347
O_ O_ 0.424851 0.793088 0.826791 -0.46727
O_ O_ 0.254818 0.827711 0.837674 -0.46727
O_ O_ 0.458806 0.836055 0.974468 -0.46727
O_ O_ 0.284317 0.858228 0.984566 -0.46727
Zn Zn 0.630126 0.187642 0.379951 0.90689
Zn Zn 0.643654 0.181601 0.426844 0.90689
Zn Zn 0.873388 0.315274 0.130402 0.90689
Zn Zn 0.859749 0.321507 0.178015 0.90689
H_ H_ 0.80992 0.198906 0.4401 0.11455
H_ H_ 0.877312 0.164231 0.344715 0.11455
H_ H_ 0.787395 0.155071 0.352354 0.11455
H_ H_ 0.890066 0.18091 0.462079 0.11455
H_ H_ 0.985124 0.189417 0.455525 0.11455
H_ H_ 0.966621 0.160042 0.364158 0.11455
H_ H_ 0.670428 0.0208983 0.434884 0.11455
H_ H_ 0.62844 0.429174 0.346904 0.11455
H_ H_ 0.621867 0.0250033 0.347266 0.11455
H_ H_ 0.615787 0.427472 0.462071 0.11455
H_ H_ 0.596993 0.334862 0.457632 0.11455
H_ H_ 0.635165 0.348435 0.368935 0.11455
H_ H_ 0.58532 0.10451 0.462446 0.11455
H_ H_ 0.586339 0.0684043 0.018229 0.11455
H_ H_ 0.618495 0.117823 0.057214 0.11455
H_ H_ 0.690462 0.251211 0.471338 0.11455
H_ H_ 0.71986 0.302654 0.00981634 0.11455
H_ H_ 0.687288 0.289726 0.0606645 0.11455
H_ H_ 0.516601 0.206392 0.120621 0.11455
H_ H_ 0.502809 0.198689 0.171421 0.11455
H_ H_ 0.758619 0.14123 0.133466 0.11455
H_ H_ 0.741832 0.120431 0.186156 0.11455
H_ H_ 0.559932 0.0918223 0.24828 0.11455
H_ H_ 0.529151 0.0847628 0.300053 0.11455
H_ H_ 0.570353 0.132068 0.338922 0.11455
H_ H_ 0.668132 0.239066 0.252021 0.11455
H_ H_ 0.706935 0.283389 0.292582 0.11455
H_ H_ 0.688414 0.260351 0.341108 0.11455
H_ H_ 0.695584 0.303136 0.192909 0.11455
H_ H_ 0.62764 0.335862 0.093053 0.11455
H_ H_ 0.722289 0.338493 0.105769 0.11455
H_ H_ 0.604983 0.314352 0.211433 0.11455
H_ H_ 0.519265 0.332619 0.205315 0.11455
H_ H_ 0.539843 0.325798 0.113846 0.11455
H_ H_ 0.866272 0.485453 0.192591 0.11455
H_ H_ 0.86219 0.0604688 0.0947411 0.11455
H_ H_ 0.892694 0.480934 0.103007 0.11455
H_ H_ 0.84343 0.0667628 0.211818 0.11455
H_ H_ 0.851954 0.160369 0.20591 0.11455
H_ H_ 0.876718 0.145792 0.117586 0.11455
H_ H_ 0.90069 0.394093 0.21453 0.11455
H_ H_ 0.916582 0.421142 0.262521 0.11455
H_ H_ 0.894358 0.372804 0.305138 0.11455
H_ H_ 0.789537 0.252832 0.224989 0.11455
H_ H_ 0.775735 0.193823 0.262972 0.11455
H_ H_ 0.814214 0.209098 0.310321 0.11455
H_ H_ 0.99437 0.299307 0.371001 0.11455
H_ H_ 0.00293845 0.303884 0.422956 0.11455
H_ H_ 0.745939 0.332539 0.384699 0.11455
H_ H_ 0.754865 0.346117 0.435269 0.11455
H_ H_ 0.932074 0.411524 0.494155 0.11455
H_ H_ 0.93942 0.447105 0.0463603 0.11455
H_ H_ 0.928247 0.386223 0.0829297 0.11455
H_ H_ 0.833864 0.264634 0.00318928 0.11455
H_ H_ 0.804742 0.21138 0.0449657 0.11455
H_ H_ 0.825103 0.242766 0.0943591 0.11455
C_ C_ 0.735725 0.183237 0.400293 0.68181
C_ C_ 0.791651 0.184627 0.394685 -0.05681
C_ C_ 0.824645 0.186813 0.419645 -0.08735
C_ C_ 0.876298 0.181573 0.416232 -0.05681
C_ C_ 0.896844 0.175152 0.388554 -0.05681
C_ C_ 0.862659 0.170602 0.36513 -0.08735
C_ C_ 0.81145 0.170159 0.369197 -0.08735
C_ C_ 0.906689 0.183263 0.440395 -0.08735
C_ C_ 0.960351 0.182141 0.436501 -0.08735
C_ C_ 0.98102 0.175218 0.408907 -0.05681
C_ C_ 0.950071 0.171753 0.385151 -0.08735
C_ C_ 0.626604 0.28028 0.410114 0.68181
C_ C_ 0.639035 0.0866596 0.396023 0.68181
C_ C_ 0.642405 0.0301474 0.393331 -0.05681
C_ C_ 0.627769 0.493763 0.419115 -0.08735
C_ C_ 0.624652 0.439919 0.41822 -0.05681
C_ C_ 0.627624 0.417076 0.391282 -0.05681
C_ C_ 0.632917 0.446283 0.36704 -0.08735
C_ C_ 0.638383 0.500222 0.368786 -0.08735
C_ C_ 0.617744 0.410817 0.442341 -0.08735
C_ C_ 0.611442 0.357742 0.439585 -0.08735
C_ C_ 0.619392 0.333389 0.412568 -0.05681
C_ C_ 0.623539 0.364738 0.388794 -0.08735
C_ C_ 0.540987 0.169073 0.403813 0.68181
C_ C_ 0.604336 0.12254 0.479956 0.1947
C_ C_ 0.598589 0.107229 0.0134283 -0.08735
C_ C_ 0.620343 0.135633 0.0356079 -0.08735
C_ C_ 0.640157 0.183685 0.0296808 -0.05681
C_ C_ 0.651624 0.194551 1.00051 0.18498
C_ C_ 0.683591 0.235675 0.49254 -0.08735
C_ C_ 0.693578 0.269959 0.015571 -0.08735
C_ C_ 0.682603 0.26096 0.0436606 -0.08735
C_ C_ 0.661756 0.213905 0.0512772 0.18498
C_ C_ 0.692542 0.184804 0.0977227 0.44287
C_ C_ 0.605363 0.209754 0.0932878 0.44287
C_ C_ 0.596551 0.197946 0.121595 -0.05681
C_ C_ 0.547644 0.195663 0.13357 -0.08735
C_ C_ 0.541823 0.197467 0.162914 -0.08735
C_ C_ 0.584628 0.184829 0.180691 -0.05681
C_ C_ 0.633169 0.175694 0.168407 -0.05681
C_ C_ 0.637825 0.181189 0.139573 -0.05681
C_ C_ 0.686517 0.170073 0.12694 -0.05681
C_ C_ 0.724087 0.147331 0.143685 -0.08735
C_ C_ 0.715456 0.139912 0.172735 -0.08735
C_ C_ 0.669366 0.15152 0.184467 -0.05681
C_ C_ 0.661564 0.144721 0.214352 0.44287
C_ C_ 0.580262 0.182845 0.210719 0.44287
C_ C_ 0.607792 0.156253 0.258079 0.18498
C_ C_ 0.573071 0.117982 0.26442 -0.08735
C_ C_ 0.559529 0.110621 0.293436 -0.08735
C_ C_ 0.583117 0.13625 0.315915 -0.08735
C_ C_ 0.623241 0.169099 0.308874 0.18498
C_ C_ 0.632507 0.184454 0.280033 -0.05681
C_ C_ 0.664319 0.225872 0.274159 -0.08735
C_ C_ 0.679755 0.255474 0.297338 -0.08735
C_ C_ 0.666355 0.243274 0.325103 0.1947
C_ C_ 0.768951 0.313782 0.154246 0.68181
C_ C_ 0.71287 0.317604 0.148627 -0.05681
C_ C_ 0.679406 0.312416 0.171956 -0.08735
C_ C_ 0.626281 0.31252 0.16581 -0.05681
C_ C_ 0.608826 0.322654 0.137869 -0.05681
C_ C_ 0.642149 0.326762 0.115104 -0.08735
C_ C_ 0.694622 0.326913 0.121013 -0.08735
C_ C_ 0.592687 0.312174 0.190092 -0.08735
C_ C_ 0.54281 0.32507 0.186717 -0.08735
C_ C_ 0.52085 0.326022 0.159125 -0.05681
C_ C_ 0.555268 0.323852 0.134872 -0.08735
C_ C_ 0.867456 0.216953 0.158729 0.68181
C_ C_ 0.865389 0.419969 0.14789 0.68181
C_ C_ 0.865442 0.475907 0.147004 -0.05681
C_ C_ 0.850924 0.00229789 0.17012 -0.08735
C_ C_ 0.861975 0.0539198 0.167866 -0.05681
C_ C_ 0.867851 0.0749876 0.140401 -0.05681
C_ C_ 0.860325 0.0442833 0.115461 -0.08735
C_ C_ 0.876863 0.50018 0.121935 -0.08735
C_ C_ 0.858476 0.0843486 0.191699 -0.08735
C_ C_ 0.856883 0.137669 0.188091 -0.08735
C_ C_ 0.866881 0.161456 0.161282 -0.05681
C_ C_ 0.873142 0.127908 0.137815 -0.08735
C_ C_ 0.963843 0.327214 0.158364 0.68181
C_ C_ 0.885213 0.374221 0.232229 0.1947
C_ C_ 0.893072 0.389943 0.260235 -0.08735
C_ C_ 0.878888 0.362455 0.284304 -0.08735
C_ C_ 0.851224 0.316249 0.278402 -0.05681
C_ C_ 0.836381 0.304844 0.24986 0.18498
C_ C_ 0.807358 0.260227 0.24548 -0.08735
C_ C_ 0.798548 0.227292 0.267229 -0.08735
C_ C_ 0.816754 0.237213 0.294664 -0.08735
C_ C_ 0.844303 0.281275 0.301058 0.18498
C_ C_ 0.814624 0.30687 0.347681 0.44287
C_ C_ 0.902532 0.297092 0.342083 0.44287
C_ C_ 0.909561 0.299385 0.372048 -0.05681
C_ C_ 0.959146 0.298473 0.385313 -0.08735
C_ C_ 0.964679 0.305911 0.41371 -0.08735
C_ C_ 0.923626 0.307767 0.433138 -0.05681
C_ C_ 0.874956 0.306772 0.420203 -0.05681
C_ C_ 0.867496 0.305568 0.389918 -0.05681
C_ C_ 0.820839 0.312814 0.377148 -0.05681
C_ C_ 0.781254 0.326819 0.394415 -0.08735
C_ C_ 0.786747 0.331612 0.423739 -0.08735
C_ C_ 0.834002 0.321844 0.437165 -0.05681
C_ C_ 0.84219 0.330132 0.467039 0.44287
C_ C_ 0.929183 0.31152 0.463002 0.44287
C_ C_ 0.889953 0.349351 0.00609539 0.18498
C_ C_ 0.911776 0.397489 0.0112926 -0.08735
C_ C_ 0.920599 0.412335 0.0406456 -0.08735
C_ C_ 0.909187 0.381252 0.062693 -0.08735
C_ C_ 0.879942 0.337093 0.057947 0.18498
C_ C_ 0.873924 0.320187 0.029222 -0.05681
C_ C_ 0.845037 0.274632 0.0245266 -0.08735
C_ C_ 0.82906 0.246561 0.0482437 -0.08735
C_ C_ 0.842132 0.261887 0.0761732 0.1947
N_ N_ 0.632332 0.16595 0.474693 -0.29468
N_ N_ 0.652297 0.200707 0.080763 -0.17154
N_ N_ 0.618002 0.164145 0.22781 -0.17154
N_ N_ 0.641914 0.200236 0.330719 -0.29468
N_ N_ 0.857201 0.331689 0.227711 -0.29468
N_ N_ 0.854296 0.294561 0.3313 -0.17154
N_ N_ 0.888716 0.325996 0.47952 -0.17154
N_ N_ 0.872198 0.304016 0.0798324 -0.29468
O_ O_ 0.719379 0.177033 0.425056 -0.58347
O_ O_ 0.705193 0.19626 0.380411 -0.58347
O_ O_ 0.638111 0.255422 0.431912 -0.58347
O_ O_ 0.625711 0.258734 0.386133 -0.58347
O_ O_ 0.64117 0.105902 0.420955 -0.58347
O_ O_ 0.641246 0.114582 0.373736 -0.58347
O_ O_ 0.569034 0.179688 0.424687 -0.58347
O_ O_ 0.559148 0.174128 0.378887 -0.58347
O_ O_ 0.568358 0.225244 0.0770607 -0.46727
O_ O_ 0.736444 0.177216 0.0849531 -0.46727
O_ O_ 0.537056 0.193316 0.222236 -0.46727
O_ O_ 0.694088 0.120682 0.230204 -0.46727
O_ O_ 0.785964 0.316947 0.179431 -0.58347
O_ O_ 0.796765 0.317191 0.13295 -0.58347
O_ O_ 0.861316 0.243796 0.180714 -0.58347
O_ O_ 0.871832 0.236107 0.134961 -0.58347
O_ O_ 0.858445 0.397191 0.171138 -0.58347
O_ O_ 0.876982 0.393501 0.126403 -0.58347
O_ O_ 0.93524 0.326026 0.179988 -0.58347
O_ O_ 0.944909 0.316191 0.133744 -0.58347
O_ O_ 0.940209 0.283398 0.325309 -0.46727
O_ O_ 0.772182 0.323723 0.335719 -0.46727
O_ O_ 0.972728 0.307463 0.475136 -0.46727
O_ O_ 0.802064 0.338788 0.483322 -0.46727
Zn Zn 0.618166 0.184032 0.882107 0.90689
Zn Zn 0.630657 0.180827 0.929504 0.90689
Zn Zn 0.868545 0.312393 0.63127 0.90689
Zn Zn 0.86175 0.317427 0.68032 0.90689
H_ H_ 0.799666 0.207762 0.938961 0.11455
H_ H_ 0.86859 0.155484 0.845407 0.11455
H_ H_ 0.773007 0.158039 0.85438 0.11455
H_ H_ 0.879474 0.213064 0.960147 0.11455
H_ H_ 0.975104 0.215625 0.955346 0.11455
H_ H_ 0.960711 0.164906 0.867042 0.11455
H_ H_ 0.645232 0.0137052 0.940598 0.11455
H_ H_ 0.656331 0.429677 0.851892 0.11455
H_ H_ 0.589558 0.0238265 0.854085 0.11455
H_ H_ 0.579368 0.429266 0.960936 0.11455
H_ H_ 0.591784 0.336547 0.959656 0.11455
H_ H_ 0.630471 0.348961 0.868829 0.11455
H_ H_ 0.584126 0.100691 0.96831 0.11455
H_ H_ 0.570732 0.0759263 0.509635 0.11455
H_ H_ 0.596335 0.121685 0.550784 0.11455
H_ H_ 0.692218 0.241285 0.973149 0.11455
H_ H_ 0.7307 0.293744 0.513316 0.11455
H_ H_ 0.711586 0.267556 0.560919 0.11455
H_ H_ 0.512609 0.2006 0.618381 0.11455
H_ H_ 0.496527 0.192797 0.671737 0.11455
H_ H_ 0.76187 0.159532 0.637855 0.11455
H_ H_ 0.75021 0.157038 0.689499 0.11455
H_ H_ 0.586872 0.0832159 0.748998 0.11455
H_ H_ 0.543854 0.063498 0.792657 0.11455
H_ H_ 0.564627 0.118927 0.835107 0.11455
H_ H_ 0.652219 0.257907 0.758639 0.11455
H_ H_ 0.671961 0.303186 0.800188 0.11455
H_ H_ 0.675634 0.258216 0.847593 0.11455
H_ H_ 0.695106 0.317549 0.695997 0.11455
H_ H_ 0.623973 0.31114 0.598322 0.11455
H_ H_ 0.715595 0.309381 0.60532 0.11455
H_ H_ 0.61225 0.314927 0.714799 0.11455
H_ H_ 0.516409 0.318604 0.709375 0.11455
H_ H_ 0.537687 0.319067 0.617317 0.11455
H_ H_ 0.875157 0.480626 0.694197 0.11455
H_ H_ 0.856101 0.0641308 0.594271 0.11455
H_ H_ 0.842803 0.47221 0.604304 0.11455
H_ H_ 0.838398 0.0656184 0.712239 0.11455
H_ H_ 0.870569 0.149837 0.712052 0.11455
H_ H_ 0.872625 0.147443 0.617534 0.11455
H_ H_ 0.904378 0.399175 0.713687 0.11455
H_ H_ 0.915675 0.427601 0.763018 0.11455
H_ H_ 0.884277 0.380035 0.804465 0.11455
H_ H_ 0.811934 0.248129 0.720631 0.11455
H_ H_ 0.776065 0.198404 0.758714 0.11455
H_ H_ 0.795456 0.216236 0.809176 0.11455
H_ H_ 0.983074 0.307002 0.866215 0.11455
H_ H_ -0.003589999999999982 0.323122 0.917783 0.11455
H_ H_ 0.73373 0.336432 0.884998 0.11455
H_ H_ 0.744815 0.342331 0.936973 0.11455
H_ H_ 0.924571 0.423892 0.993973 0.11455
H_ H_ 0.948967 0.441424 0.544659 0.11455
H_ H_ 0.927535 0.384397 0.58563 0.11455
H_ H_ 0.848142 0.251843 0.505843 0.11455
H_ H_ 0.811739 0.207202 0.548004 0.11455
H_ H_ 0.828648 0.237851 0.597802 0.11455
C_ C_ 0.723403 0.181377 0.901237 0.68181
C_ C_ 0.779528 0.183829 0.8965 -0.05681
C_ C_ 0.814063 0.197312 0.919225 -0.08735
C_ C_ 0.866864 0.192718 0.916683 -0.05681
C_ C_ 0.887151 0.176982 0.889992 -0.05681
C_ C_ 0.853323 0.165752 0.866588 -0.08735
C_ C_ 0.800989 0.16952 0.870363 -0.08735
C_ C_ 0.898822 0.200944 0.940325 -0.08735
C_ C_ 0.951193 0.204522 0.936436 -0.08735
C_ C_ 0.973245 0.185592 0.910241 -0.05681
C_ C_ 0.941446 0.175329 0.887065 -0.08735
C_ C_ 0.62215 0.280751 0.911286 0.68181
C_ C_ 0.629415 0.0821449 0.899506 0.68181
C_ C_ 0.626245 0.0270278 0.89633 -0.05681
C_ C_ 0.604281 0.496687 0.919781 -0.08735
C_ C_ 0.604912 0.443397 0.917282 -0.05681
C_ C_ 0.619508 0.419846 0.891267 -0.05681
C_ C_ 0.645112 0.449694 0.871363 -0.08735
C_ C_ 0.641031 0.501614 0.872811 -0.08735
C_ C_ 0.589155 0.411356 0.94031 -0.08735
C_ C_ 0.595808 0.359531 0.939793 -0.08735
C_ C_ 0.607734 0.335408 0.913563 -0.05681
C_ C_ 0.621512 0.366538 0.890428 -0.08735
C_ C_ 0.522336 0.178808 0.90869 0.68181
C_ C_ 0.605711 0.121896 0.98471 0.1947
C_ C_ 0.594537 0.106036 0.507181 -0.08735
C_ C_ 0.611272 0.133025 0.530195 -0.08735
C_ C_ 0.643887 0.176753 0.525456 -0.05681
C_ C_ 0.655648 0.190769 0.496331 0.18498
C_ C_ 0.683966 0.234744 0.995245 -0.08735
C_ C_ 0.705891 0.260494 0.516026 -0.08735
C_ C_ 0.693229 0.247452 0.543447 -0.08735
C_ C_ 0.660835 0.207776 0.549766 0.18498
C_ C_ 0.692384 0.184779 0.597985 0.44287
C_ C_ 0.602832 0.201026 0.591188 0.44287
C_ C_ 0.594267 0.190825 0.620104 -0.05681
C_ C_ 0.544482 0.192137 0.632869 -0.08735
C_ C_ 0.535145 0.186227 0.662295 -0.08735
C_ C_ 0.576271 0.176849 0.680517 -0.05681
C_ C_ 0.625486 0.170949 0.668529 -0.05681
C_ C_ 0.634407 0.178908 0.639338 -0.05681
C_ C_ 0.684601 0.180209 0.628105 -0.05681
C_ C_ 0.724767 0.164936 0.646113 -0.08735
C_ C_ 0.71605 0.161832 0.676485 -0.08735
C_ C_ 0.666142 0.166447 0.687434 -0.05681
C_ C_ 0.658497 0.170694 0.717089 0.44287
C_ C_ 0.570751 0.183633 0.710655 0.44287
C_ C_ 0.602219 0.161307 0.757623 0.18498
C_ C_ 0.580093 0.115227 0.762892 -0.08735
C_ C_ 0.560262 0.10184 0.78945 -0.08735
C_ C_ 0.574469 0.130997 0.814046 -0.08735
C_ C_ 0.602512 0.176078 0.8095 0.18498
C_ C_ 0.616449 0.192135 0.78129 -0.05681
C_ C_ 0.643549 0.238451 0.779144 -0.08735
C_ C_ 0.659594 0.265101 0.803257 -0.08735
C_ C_ 0.657798 0.240655 0.82904 0.1947
C_ C_ 0.764945 0.311306 0.653737 0.68181
C_ C_ 0.710284 0.311964 0.650672 -0.05681
C_ C_ 0.677096 0.317316 0.674312 -0.08735
C_ C_ 0.625444 0.315099 0.669878 -0.05681
C_ C_ 0.605622 0.316975 0.642564 -0.05681
C_ C_ 0.637429 0.316105 0.619116 -0.08735
C_ C_ 0.690415 0.312419 0.623765 -0.08735
C_ C_ 0.595665 0.308654 0.694011 -0.08735
C_ C_ 0.54167 0.311632 0.690738 -0.08735
C_ C_ 0.520622 0.306691 0.663142 -0.05681
C_ C_ 0.553331 0.311815 0.638819 -0.08735
C_ C_ 0.8764 0.216422 0.663952 0.68181
C_ C_ 0.856128 0.412223 0.649835 0.68181
C_ C_ 0.865806 0.46817 0.648022 -0.05681
C_ C_ 0.854329 -0.0024119999999999697 0.668028 -0.08735
C_ C_ 0.859952 0.0505572 0.666538 -0.05681
C_ C_ 0.866919 0.0752904 0.639849 -0.05681
C_ C_ 0.867364 0.0446578 0.614846 -0.08735
C_ C_ 0.858218 0.49165 0.622789 -0.08735
C_ C_ 0.853375 0.0799746 0.691433 -0.08735
C_ C_ 0.868687 0.132107 0.690876 -0.08735
C_ C_ 0.876086 0.158918 0.665509 -0.05681
C_ C_ 0.873204 0.128724 0.639582 -0.08735
C_ C_ 0.965204 0.318933 0.659632 0.68181
C_ C_ 0.889868 0.375693 0.732627 0.1947
C_ C_ 0.89376 0.392975 0.760457 -0.08735
C_ C_ 0.878184 0.364595 0.783001 -0.08735
C_ C_ 0.853416 0.318407 0.776902 -0.05681
C_ C_ 0.84794 0.302342 0.748402 0.18498
C_ C_ 0.819197 0.257903 0.742346 -0.08735
C_ C_ 0.800793 0.22906 0.764263 -0.08735
C_ C_ 0.811228 0.241465 0.792925 -0.08735
C_ C_ 0.837079 0.285516 0.79952 0.18498
C_ C_ 0.806526 0.307056 0.846922 0.44287
C_ C_ 0.893606 0.290522 0.841024 0.44287
C_ C_ 0.90331 0.304617 0.870221 -0.05681
C_ C_ 0.952445 0.308136 0.881289 -0.08735
C_ C_ 0.959078 0.320525 0.91052 -0.08735
C_ C_ 0.916565 0.325831 0.929357 -0.05681
C_ C_ 0.867265 0.328651 0.917074 -0.05681
C_ C_ 0.861356 0.31879 0.887598 -0.05681
C_ C_ 0.812513 0.317537 0.876473 -0.05681
C_ C_ 0.771846 0.331771 0.893368 -0.08735
C_ C_ 0.777797 0.337776 0.923809 -0.08735
C_ C_ 0.826115 0.331489 0.935267 -0.05681
C_ C_ 0.833138 0.339747 0.964939 0.44287
C_ C_ 0.921217 0.327735 0.959288 0.44287
C_ C_ 0.894702 0.34287 0.509037 0.18498
C_ C_ 0.920482 0.387732 0.513059 -0.08735
C_ C_ 0.93307 0.402522 0.541004 -0.08735
C_ C_ 0.917666 0.372919 0.564653 -0.08735
C_ C_ 0.88836 0.32927 0.560651 0.18498
C_ C_ 0.876999 0.313314 0.532314 -0.05681
C_ C_ 0.856477 0.266403 0.528159 -0.08735
C_ C_ 0.83629 0.240958 0.552046 -0.08735
C_ C_ 0.8476 0.255842 0.580117 0.1947
N_ N_ 0.633591 0.165331 0.97806 -0.29468
N_ N_ 0.651377 0.198145 0.579876 -0.17154
N_ N_ 0.610799 0.174998 0.728066 -0.17154
N_ N_ 0.625002 0.200456 0.832726 -0.29468
N_ N_ 0.865762 0.331975 0.727298 -0.29468
N_ N_ 0.846197 0.294776 0.829693 -0.17154
N_ N_ 0.879959 0.336586 0.976086 -0.17154
N_ N_ 0.873499 0.301608 0.583554 -0.29468
O_ O_ 0.705053 0.181581 0.927253 -0.58347
O_ O_ 0.692789 0.185303 0.879955 -0.58347
O_ O_ 0.624915 0.254215 0.93376 -0.58347
O_ O_ 0.619034 0.259442 0.888066 -0.58347
O_ O_ 0.632838 0.104411 0.923713 -0.58347
O_ O_ 0.625082 0.108395 0.877529 -0.58347
O_ O_ 0.550985 0.1757 0.930931 -0.58347
O_ O_ 0.54164 0.18048 0.884223 -0.58347
O_ O_ 0.564832 0.21894 0.574646 -0.46727
O_ O_ 0.739308 0.182825 0.585933 -0.46727
O_ O_ 0.525665 0.195253 0.72174 -0.46727
O_ O_ 0.697413 0.174822 0.734911 -0.46727
O_ O_ 0.78544 0.312543 0.678874 -0.58347
O_ O_ 0.793942 0.310177 0.632715 -0.58347
O_ O_ 0.872532 0.241818 0.68642 -0.58347
O_ O_ 0.878376 0.237433 0.639938 -0.58347
O_ O_ 0.850006 0.392161 0.674062 -0.58347
O_ O_ 0.860627 0.385532 0.62689 -0.58347
O_ O_ 0.937362 0.329055 0.680697 -0.58347
O_ O_ 0.946074 0.321551 0.634749 -0.58347
O_ O_ 0.932013 0.283204 0.824131 -0.46727
O_ O_ 0.761839 0.318514 0.834588 -0.46727
O_ O_ 0.96445 0.321204 0.970913 -0.46727
O_ O_ 0.796245 0.353856 0.981091 -0.46727
Zn Zn 0.63485 0.684636 0.382656 0.90689
Zn Zn 0.645829 0.678995 0.430323 0.90689
Zn Zn 0.874215 0.810415 0.132928 0.90689
Zn Zn 0.862498 0.822709 0.181439 0.90689
H_ H_ 0.811956 0.698094 0.446494 0.11455
H_ H_ 0.880735 0.675096 0.346601 0.11455
H_ H_ 0.790664 0.672522 0.355757 0.11455
H_ H_ 0.893265 0.672829 0.464713 0.11455
H_ H_ 0.985689 0.680876 0.457227 0.11455
H_ H_ 0.966505 0.677587 0.365459 0.11455
H_ H_ 0.627688 0.511274 0.440348 0.11455
H_ H_ 0.617348 0.932693 0.347717 0.11455
H_ H_ 0.636343 0.522152 0.349688 0.11455
H_ H_ 0.657997 0.935621 0.46259 0.11455
H_ H_ 0.638989 0.848176 0.462384 0.11455
H_ H_ 0.629998 0.850297 0.370869 0.11455
H_ H_ 0.601064 0.598578 0.464874 0.11455
H_ H_ 0.587959 0.568481 0.0163418 0.11455
H_ H_ 0.610579 0.623359 0.0573799 0.11455
H_ H_ 0.705107 0.747128 0.47523 0.11455
H_ H_ 0.715879 0.806678 0.0121258 0.11455
H_ H_ 0.697726 0.783572 0.0626726 0.11455
H_ H_ 0.50372 0.704352 0.121087 0.11455
H_ H_ 0.489184 0.688854 0.168747 0.11455
H_ H_ 0.758398 0.68802 0.140631 0.11455
H_ H_ 0.743346 0.673108 0.190909 0.11455
H_ H_ 0.553477 0.601117 0.250073 0.11455
H_ H_ 0.525473 0.582194 0.301625 0.11455
H_ H_ 0.572395 0.620659 0.339537 0.11455
H_ H_ 0.655368 0.749296 0.256775 0.11455
H_ H_ 0.695047 0.792555 0.297754 0.11455
H_ H_ 0.696131 0.757319 0.34564 0.11455
H_ H_ 0.698916 0.812737 0.194402 0.11455
H_ H_ 0.632857 0.839488 0.0952984 0.11455
H_ H_ 0.723048 0.832054 0.103604 0.11455
H_ H_ 0.610084 0.818468 0.212923 0.11455
H_ H_ 0.520509 0.82017 0.206101 0.11455
H_ H_ 0.541032 0.84334 0.115229 0.11455
H_ H_ 0.83448 0.987376 0.18918 0.11455
H_ H_ 0.892457 0.569151 0.100891 0.11455
H_ H_ 0.859266 0.966459 0.100067 0.11455
H_ H_ 0.862238 0.569634 0.217459 0.11455
H_ H_ 0.876696 0.663686 0.214911 0.11455
H_ H_ 0.870208 0.653771 0.121899 0.11455
H_ H_ 0.923935 0.887682 0.21737 0.11455
H_ H_ 0.940802 0.919767 0.264074 0.11455
H_ H_ 0.899158 0.878459 0.306775 0.11455
H_ H_ 0.809748 0.748612 0.227155 0.11455
H_ H_ 0.786443 0.693913 0.26804 0.11455
H_ H_ 0.789865 0.734159 0.317363 0.11455
H_ H_ 0.995849 0.797916 0.375847 0.11455
H_ H_ 0.00346763 0.793756 0.42791 0.11455
H_ H_ 0.752783 0.868189 0.387396 0.11455
H_ H_ 0.764637 0.882265 0.438922 0.11455
H_ H_ 0.938139 0.917676 0.504798 0.11455
H_ H_ 0.962152 0.933175 0.0489958 0.11455
H_ H_ 0.920211 0.885216 0.0855821 0.11455
H_ H_ 0.846643 0.753017 0.00634215 0.11455
H_ H_ 0.805589 0.712573 0.0498353 0.11455
H_ H_ 0.831662 0.737191 0.0973856 0.11455
C_ C_ 0.739938 0.684301 0.406304 0.68181
C_ C_ 0.795722 0.687438 0.401179 -0.05681
C_ C_ 0.828149 0.691968 0.424462 -0.08735
C_ C_ 0.878733 0.680492 0.419835 -0.05681
C_ C_ 0.89988 0.674847 0.391939 -0.05681
C_ C_ 0.867316 0.675812 0.368465 -0.08735
C_ C_ 0.815296 0.679268 0.374153 -0.08735
C_ C_ 0.910188 0.675215 0.443129 -0.08735
C_ C_ 0.962538 0.67663 0.439131 -0.08735
C_ C_ 0.985321 0.67494 0.412067 -0.05681
C_ C_ 0.952426 0.67801 0.387943 -0.08735
C_ C_ 0.629961 0.780925 0.413959 0.68181
C_ C_ 0.644908 0.581593 0.398464 0.68181
C_ C_ 0.638233 0.52297 0.395522 -0.05681
C_ C_ 0.653555 1.00136 0.417952 -0.08735
C_ C_ 0.649661 0.948299 0.417672 -0.05681
C_ C_ 0.640901 0.92365 0.391509 -0.05681
C_ C_ 0.628188 0.952294 0.367522 -0.08735
C_ C_ 0.633169 1.00574511 0.367285 -0.08735
C_ C_ 0.657922 0.918699 0.442072 -0.08735
C_ C_ 0.649743 0.864789 0.441918 -0.08735
C_ C_ 0.640927 0.839328 0.41542 -0.05681
C_ C_ 0.637786 0.870089 0.391169 -0.08735
C_ C_ 0.542403 0.677209 0.409472 0.68181
C_ C_ 0.615233 0.622079 0.482704 0.1947
C_ C_ 0.604563 0.604645 0.01164 -0.08735
C_ C_ 0.61608 0.636495 0.0350521 -0.08735
C_ C_ 0.639053 0.684483 0.0292671 -0.05681
C_ C_ 0.649966 0.696888 1.00028861 0.18498
C_ C_ 0.695112 0.734799 0.49625 -0.08735
C_ C_ 0.689373 0.774822 0.0165146 -0.08735
C_ C_ 0.681349 0.76188 0.0454142 -0.08735
C_ C_ 0.655918 0.716936 0.0523519 0.18498
C_ C_ 0.684523 0.693761 0.100765 0.44287
C_ C_ 0.598604 0.706666 0.0934504 0.44287
C_ C_ 0.587411 0.697743 0.121808 -0.05681
C_ C_ 0.538063 0.698253 0.133118 -0.08735
C_ C_ 0.530405 0.693073 0.162857 -0.08735
C_ C_ 0.570845 0.689006 0.182307 -0.05681
C_ C_ 0.620088 0.692715 0.170873 -0.05681
C_ C_ 0.628617 0.699347 0.141699 -0.05681
C_ C_ 0.67591 0.695176 0.13079 -0.05681
C_ C_ 0.718796 0.688581 0.148527 -0.08735
C_ C_ 0.710984 0.683014 0.177801 -0.08735
C_ C_ 0.660825 0.683794 0.1892 -0.05681
C_ C_ 0.651891 0.672034 0.217473 0.44287
C_ C_ 0.565161 0.688466 0.212195 0.44287
C_ C_ 0.595722 0.665881 0.26114 0.18498
C_ C_ 0.565092 0.62336 0.268026 -0.08735
C_ C_ 0.556163 0.608668 0.296289 -0.08735
C_ C_ 0.583907 0.63264 0.318283 -0.08735
C_ C_ 0.617891 0.672032 0.312388 0.18498
C_ C_ 0.6215 0.690379 0.284025 -0.05681
C_ C_ 0.655561 0.731298 0.278364 -0.08735
C_ C_ 0.678211 0.756294 0.301829 -0.08735
C_ C_ 0.674704 0.736503 0.329729 0.1947
C_ C_ 0.771765 0.822877 0.155381 0.68181
C_ C_ 0.717483 0.826856 0.150256 -0.05681
C_ C_ 0.682395 0.82336 0.173913 -0.08735
C_ C_ 0.629193 0.826124 0.169893 -0.05681
C_ C_ 0.609794 0.833642 0.14153 -0.05681
C_ C_ 0.645 0.836292 0.118351 -0.08735
C_ C_ 0.698553 0.833766 0.122297 -0.08735
C_ C_ 0.595038 0.82252 0.192127 -0.08735
C_ C_ 0.542879 0.826101 0.188704 -0.08735
C_ C_ 0.523913 0.826523 0.160978 -0.05681
C_ C_ 0.556664 0.837491 0.136509 -0.08735
C_ C_ 0.876459 0.72273 0.165646 0.68181
C_ C_ 0.85542 0.914701 0.148613 0.68181
C_ C_ 0.851681 0.969705 0.144963 -0.05681
C_ C_ 0.863573 0.505867 0.172167 -0.08735
C_ C_ 0.865195 0.560781 0.170496 -0.05681
C_ C_ 0.873689 0.58381 0.144291 -0.05681
C_ C_ 0.87686 0.553729 0.11975 -0.08735
C_ C_ 0.854777 0.991683 0.118394 -0.08735
C_ C_ 0.863487 0.58986 0.19598 -0.08735
C_ C_ 0.869607 0.642642 0.195735 -0.08735
C_ C_ 0.877602 0.665825 0.16917 -0.05681
C_ C_ 0.872504 0.636031 0.142745 -0.08735
C_ C_ 0.967042 0.823881 0.158775 0.68181
C_ C_ 0.898314 0.877512 0.233746 0.1947
C_ C_ 0.908157 0.893715 0.261846 -0.08735
C_ C_ 0.889101 0.86706 0.285293 -0.08735
C_ C_ 0.861745 0.821964 0.281177 -0.05681
C_ C_ 0.851204 0.804074 0.252973 0.18498
C_ C_ 0.824928 0.759123 0.248322 -0.08735
C_ C_ 0.80601 0.731972 0.272552 -0.08735
C_ C_ 0.816549 0.748284 0.300271 -0.08735
C_ C_ 0.84571 0.791635 0.305233 0.18498
C_ C_ 0.817194 0.821441 0.35177 0.44287
C_ C_ 0.902566 0.798163 0.347551 0.44287
C_ C_ 0.909775 0.803742 0.377617 -0.05681
C_ C_ 0.959969 0.799374 0.390674 -0.08735
C_ C_ 0.96517 0.798378 0.420804 -0.08735
C_ C_ 0.92396 0.813138 0.438457 -0.05681
C_ C_ 0.87665 0.824286 0.425578 -0.05681
C_ C_ 0.870809 0.816698 0.39564 -0.05681
C_ C_ 0.823634 0.829565 0.382327 -0.05681
C_ C_ 0.782331 0.848905 0.398772 -0.08735
C_ C_ 0.790933 0.859562 0.427524 -0.08735
C_ C_ 0.835075 0.842061 0.442345 -0.05681
C_ C_ 0.845773 0.853372 0.471688 0.44287
C_ C_ 0.928399 0.815286 0.467616 0.44287
C_ C_ 0.893082 0.848039 0.00948084 0.18498
C_ C_ 0.924 0.892463 0.0152645 -0.08735
C_ C_ 0.933066 0.904144 0.0433358 -0.08735
C_ C_ 0.910994 0.876955 0.0650563 -0.08735
C_ C_ 0.884006 0.832012 0.0607428 0.18498
C_ C_ 0.876471 0.81631 0.0320562 -0.05681
C_ C_ 0.852618 0.769314 0.0275882 -0.08735
C_ C_ 0.837705 0.740696 0.0510059 -0.08735
C_ C_ 0.847565 0.758221 0.0788849 0.1947
N_ N_ 0.646029 0.662774 0.477858 -0.29468
N_ N_ 0.645963 0.70449 0.0825798 -0.17154
N_ N_ 0.60534 0.675865 0.229538 -0.17154
N_ N_ 0.643248 0.696474 0.334672 -0.29468
N_ N_ 0.869887 0.832435 0.229952 -0.29468
N_ N_ 0.857088 0.806046 0.334584 -0.17154
N_ N_ 0.890563 0.837652 0.483709 -0.17154
N_ N_ 0.869049 0.802621 0.0834874 -0.29468
O_ O_ 0.721146 0.686531 0.431154 -0.58347
O_ O_ 0.711311 0.682941 0.384715 -0.58347
O_ O_ 0.635872 0.754594 0.435952 -0.58347
O_ O_ 0.634798 0.760286 0.388684 -0.58347
O_ O_ 0.654453 0.601024 0.422417 -0.58347
O_ O_ 0.638883 0.610394 0.377092 -0.58347
O_ O_ 0.570607 0.667019 0.430047 -0.58347
O_ O_ 0.560285 0.685025 0.38471 -0.58347
O_ O_ 0.564336 0.728817 0.0780449 -0.46727
O_ O_ 0.730278 0.683622 0.0891096 -0.46727
O_ O_ 0.521549 0.69745 0.224288 -0.46727
O_ O_ 0.689501 0.662043 0.235449 -0.46727
O_ O_ 0.791191 0.83306 0.179853 -0.58347
O_ O_ 0.7997 0.801333 0.136282 -0.58347
O_ O_ 0.860611 0.750347 0.185212 -0.58347
O_ O_ 0.880835 0.740506 0.141059 -0.58347
O_ O_ 0.865855 0.89701 0.173781 -0.58347
O_ O_ 0.858276 0.885773 0.127029 -0.58347
O_ O_ 0.937982 0.822192 0.180989 -0.58347
O_ O_ 0.950252 0.825482 0.132651 -0.58347
O_ O_ 0.939846 0.779252 0.331948 -0.46727
O_ O_ 0.776831 0.84058 0.339656 -0.46727
O_ O_ 0.970872 0.804777 0.480385 -0.46727
O_ O_ 0.80947 0.864557 0.488762 -0.46727
Zn Zn 0.625483 0.685267 0.882188 0.90689
Zn Zn 0.633239 0.674804 0.932122 0.90689
Zn Zn 0.873276 0.808591 0.631933 0.90689
Zn Zn 0.865052 0.816427 0.68091 0.90689
H_ H_ 0.799712 0.671921 0.9461 0.11455
H_ H_ 0.866059 0.658919 0.84818 0.11455
H_ H_ 0.779047 0.660927 0.855664 0.11455
H_ H_ 0.88572 0.686446 0.966563 0.11455
H_ H_ 0.973018 0.701225 0.959625 0.11455
H_ H_ 0.955363 0.685173 0.867147 0.11455
H_ H_ 0.599494 0.513799 0.941022 0.11455
H_ H_ 0.594101 0.935394 0.849784 0.11455
H_ H_ 0.65999 0.524384 0.854242 0.11455
H_ H_ 0.64863 0.929675 0.964898 0.11455
H_ H_ 0.645738 0.838871 0.961011 0.11455
H_ H_ 0.596445 0.847234 0.872774 0.11455
H_ H_ 0.587522 0.60147 0.966413 0.11455
H_ H_ 0.569564 0.579701 0.513425 0.11455
H_ H_ 0.615921 0.616332 0.554088 0.11455
H_ H_ 0.687626 0.752324 0.97282 0.11455
H_ H_ 0.73441 0.796444 0.514719 0.11455
H_ H_ 0.710202 0.779586 0.563288 0.11455
H_ H_ 0.51135 0.678523 0.617101 0.11455
H_ H_ 0.495686 0.677236 0.671494 0.11455
H_ H_ 0.755959 0.647572 0.640405 0.11455
H_ H_ 0.741624 0.639345 0.691533 0.11455
H_ H_ 0.548699 0.586743 0.751019 0.11455
H_ H_ 0.540275 0.559508 0.80137 0.11455
H_ H_ 0.562895 0.620444 0.839694 0.11455
H_ H_ 0.643343 0.746856 0.756239 0.11455
H_ H_ 0.686272 0.78806 0.794876 0.11455
H_ H_ 0.679169 0.757519 0.844534 0.11455
H_ H_ 0.697582 0.806007 0.696908 0.11455
H_ H_ 0.628255 0.825343 0.598665 0.11455
H_ H_ 0.721265 0.825039 0.607413 0.11455
H_ H_ 0.607535 0.808986 0.717221 0.11455
H_ H_ 0.517518 0.810107 0.707568 0.11455
H_ H_ 0.542097 0.817158 0.616991 0.11455
H_ H_ 0.843645 0.979624 0.687891 0.11455
H_ H_ 0.864368 0.559914 0.599024 0.11455
H_ H_ 0.866845 0.969841 0.598686 0.11455
H_ H_ 0.886396 0.564982 0.715834 0.11455
H_ H_ 0.867141 0.654116 0.713153 0.11455
H_ H_ 0.863152 0.642333 0.622243 0.11455
H_ H_ 0.909744 0.901553 0.711635 0.11455
H_ H_ 0.917187 0.93873 0.760441 0.11455
H_ H_ 0.888719 0.889057 0.803087 0.11455
H_ H_ 0.81204 0.7539 0.724276 0.11455
H_ H_ 0.774836 0.705073 0.763378 0.11455
H_ H_ 0.800307 0.726294 0.81274 0.11455
H_ H_ 0.983447 0.796848 0.870449 0.11455
H_ H_ 0.998801 0.810707 0.921257 0.11455
H_ H_ 0.732162 0.822795 0.887364 0.11455
H_ H_ 0.744864 0.843506 0.938214 0.11455
H_ H_ 0.940073 0.918137 0.999231 0.11455
H_ H_ 0.964638 0.925551 0.557169 0.11455
H_ H_ 0.939495 0.866914 0.592448 0.11455
H_ H_ 0.845013 0.757514 0.505984 0.11455
H_ H_ 0.812856 0.705104 0.545327 0.11455
H_ H_ 0.821937 0.735359 0.59626 0.11455
C_ C_ 0.726329 0.676113 0.904486 0.68181
C_ C_ 0.781711 0.674552 0.901111 -0.05681
C_ C_ 0.814996 0.678317 0.9248 -0.08735
C_ C_ 0.866734 0.680431 0.92115 -0.05681
C_ C_ 0.885793 0.673273 0.892641 -0.05681
C_ C_ 0.853479 0.66567 0.869422 -0.08735
C_ C_ 0.800868 0.665114 0.874219 -0.08735
C_ C_ 0.899139 0.689155 0.945501 -0.08735
C_ C_ 0.950795 0.69397 0.940789 -0.08735
C_ C_ 0.97203 0.686861 0.912687 -0.05681
C_ C_ 0.939846 0.673536 0.888744 -0.08735
C_ C_ 0.626614 0.77991 0.911682 0.68181
C_ C_ 0.626735 0.582332 0.90012 0.68181
C_ C_ 0.625122 0.525999 0.897768 -0.05681
C_ C_ 0.634253 -0.0031090000000000284 0.920615 -0.08735
C_ C_ 0.630624 0.942351 0.918911 -0.05681
C_ C_ 0.619344 0.918879 0.892684 -0.05681
C_ C_ 0.606223 0.951359 0.869655 -0.08735
C_ C_ 0.609315 0.00469454 0.871643 -0.08735
C_ C_ 0.644924 0.911021 0.943569 -0.08735
C_ C_ 0.643139 0.858862 0.941312 -0.08735
C_ C_ 0.630352 0.835469 0.914744 -0.05681
C_ C_ 0.61442 0.865383 0.891037 -0.08735
C_ C_ 0.532608 0.680958 0.908694 0.68181
C_ C_ 0.606756 0.623098 0.984024 0.1947
C_ C_ 0.603799 0.605841 0.50951 -0.08735
C_ C_ 0.619244 0.634766 0.533652 -0.08735
C_ C_ 0.651293 0.678166 0.529152 -0.05681
C_ C_ 0.665173 0.691275 0.500155 0.18498
C_ C_ 0.677116 0.740633 0.994363 -0.08735
C_ C_ 0.717049 0.760692 0.519404 -0.08735
C_ C_ 0.699536 0.752535 0.546562 -0.08735
C_ C_ 0.667721 0.7102 0.552241 0.18498
C_ C_ 0.690789 0.685963 0.600949 0.44287
C_ C_ 0.604072 0.696977 0.592859 0.44287
C_ C_ 0.592339 0.690227 0.622409 -0.05681
C_ C_ 0.542057 0.685545 0.632461 -0.08735
C_ C_ 0.532982 0.681623 0.661902 -0.08735
C_ C_ 0.573984 0.676974 0.682041 -0.05681
C_ C_ 0.624289 0.677735 0.671649 -0.05681
C_ C_ 0.632515 0.683761 0.642042 -0.05681
C_ C_ 0.681361 0.675671 0.629674 -0.05681
C_ C_ 0.718711 0.654346 0.647299 -0.08735
C_ C_ 0.711895 0.651411 0.677498 -0.08735
C_ C_ 0.663696 0.662603 0.689277 -0.05681
C_ C_ 0.651895 0.649242 0.718764 0.44287
C_ C_ 0.5661 0.671168 0.71156 0.44287
C_ C_ 0.596014 0.649898 0.760918 0.18498
C_ C_ 0.568619 0.605794 0.767905 -0.08735
C_ C_ 0.557044 0.59532 0.796187 -0.08735
C_ C_ 0.576741 0.625296 0.818607 -0.08735
C_ C_ 0.602534 0.670155 0.811959 0.18498
C_ C_ 0.616031 0.680988 0.783337 -0.05681
C_ C_ 0.642483 0.726853 0.776825 -0.08735
C_ C_ 0.663025 0.75476 0.800147 -0.08735
C_ C_ 0.659886 0.737571 0.827131 0.1947
C_ C_ 0.769068 0.80702 0.656115 0.68181
C_ C_ 0.714959 0.804836 0.651714 -0.05681
C_ C_ 0.682447 0.799623 0.675662 -0.08735
C_ C_ 0.627218 0.803765 0.671304 -0.05681
C_ C_ 0.609267 0.811455 0.643111 -0.05681
C_ C_ 0.643335 0.820525 0.620051 -0.08735
C_ C_ 0.695893 0.819824 0.624896 -0.08735
C_ C_ 0.595424 0.806351 0.694968 -0.08735
C_ C_ 0.543571 0.813325 0.690012 -0.08735
C_ C_ 0.522872 0.813095 0.662263 -0.05681
C_ C_ 0.555959 0.814145 0.63802 -0.08735
C_ C_ 0.871185 0.713092 0.662817 0.68181
C_ C_ 0.857212 0.9095 0.646964 0.68181
C_ C_ 0.860486 0.966604 0.643383 -0.05681
C_ C_ 0.872564 0.496029 0.672794 -0.08735
C_ C_ 0.874199 0.548809 0.670742 -0.05681
C_ C_ 0.863826 0.573336 0.644341 -0.05681
C_ C_ 0.861949 0.544454 0.620184 -0.08735
C_ C_ 0.862119 0.991929 0.616629 -0.08735
C_ C_ 0.875334 0.579372 0.695455 -0.08735
C_ C_ 0.86613 0.633591 0.693477 -0.08735
C_ C_ 0.864223 0.658225 0.666061 -0.05681
C_ C_ 0.858818 0.626432 0.642714 -0.08735
C_ C_ 0.965319 0.82773 0.661929 0.68181
C_ C_ 0.895197 0.881084 0.731345 0.1947
C_ C_ 0.897578 0.902432 0.758036 -0.08735
C_ C_ 0.879444 0.875436 0.781181 -0.08735
C_ C_ 0.853431 0.830418 0.777838 -0.05681
C_ C_ 0.843576 0.815341 0.7496 0.18498
C_ C_ 0.814179 0.771132 0.745657 -0.08735
C_ C_ 0.800136 0.738677 0.768714 -0.08735
C_ C_ 0.813095 0.752586 0.7956 -0.08735
C_ C_ 0.840221 0.798755 0.801158 0.18498
C_ C_ 0.805864 0.816697 0.848991 0.44287
C_ C_ 0.895558 0.810329 0.842692 0.44287
C_ C_ 0.903768 0.812792 0.872343 -0.05681
C_ C_ 0.951868 0.810411 0.88338 -0.08735
C_ C_ 0.959371 0.815615 0.913465 -0.08735
C_ C_ 0.916504 0.821334 0.932602 -0.05681
C_ C_ 0.866386 0.821011 0.920507 -0.05681
C_ C_ 0.860021 0.81664 0.890866 -0.05681
C_ C_ 0.811518 0.816929 0.87903 -0.05681
C_ C_ 0.769571 0.826689 0.897159 -0.08735
C_ C_ 0.776276 0.829294 0.926466 -0.08735
C_ C_ 0.824666 0.830249 0.939104 -0.05681
C_ C_ 0.832214 0.837784 0.968896 0.44287
C_ C_ 0.92237 0.824223 0.962321 0.44287
C_ C_ 0.902846 0.846362 0.513311 0.18498
C_ C_ 0.927663 0.892287 0.521529 -0.08735
C_ C_ 0.938005 0.900372 0.550646 -0.08735
C_ C_ 0.922928 0.864927 0.57142 -0.08735
C_ C_ 0.890878 0.824539 0.56387 0.18498
C_ C_ 0.881911 0.813473 0.535309 -0.05681
C_ C_ 0.852831 0.770069 0.528829 -0.08735
C_ C_ 0.831815 0.740189 0.550417 -0.08735
C_ C_ 0.840585 0.754894 0.578957 0.1947
N_ N_ 0.63468 0.665312 0.978487 -0.29468
N_ N_ 0.653641 0.698003 0.583126 -0.17154
N_ N_ 0.606005 0.661529 0.730084 -0.17154
N_ N_ 0.62823 0.696316 0.833579 -0.29468
N_ N_ 0.86765 0.836925 0.727026 -0.29468
N_ N_ 0.846675 0.813846 0.831289 -0.17154
N_ N_ 0.881335 0.834281 0.980228 -0.17154
N_ N_ 0.869371 0.794784 0.585562 -0.29468
O_ O_ 0.707389 0.684162 0.928885 -0.58347
O_ O_ 0.697599 0.674801 0.883389 -0.58347
O_ O_ 0.627118 0.750603 0.933691 -0.58347
O_ O_ 0.63187 0.762087 0.88777 -0.58347
O_ O_ 0.636098 0.603947 0.923882 -0.58347
O_ O_ 0.626285 0.608845 0.878895 -0.58347
O_ O_ 0.558869 0.664732 0.929327 -0.58347
O_ O_ 0.552233 0.698095 0.886676 -0.58347
O_ O_ 0.567084 0.710673 0.574426 -0.46727
O_ O_ 0.737654 0.689 0.591742 -0.46727
O_ O_ 0.520688 0.677344 0.721727 -0.46727
O_ O_ 0.689439 0.640297 0.736418 -0.46727
O_ O_ 0.786682 0.815389 0.679944 -0.58347
O_ O_ 0.797488 0.8021 0.634083 -0.58347
O_ O_ 0.866689 0.741578 0.684421 -0.58347
O_ O_ 0.881101 0.732975 0.638795 -0.58347
O_ O_ 0.858612 0.892042 0.671889 -0.58347
O_ O_ 0.86515 0.881774 0.626498 -0.58347
O_ O_ 0.936834 0.819011 0.683141 -0.58347
O_ O_ 0.9487 0.81786 0.637351 -0.58347
O_ O_ 0.936377 0.804595 0.825891 -0.46727
O_ O_ 0.760365 0.815444 0.83735 -0.46727
O_ O_ 0.967016 0.817575 0.972984 -0.46727
O_ O_ 0.794328 0.847525 0.986374 -0.46727
