_cell_length_a 26.376
_cell_length_b 26.400000238300095
_cell_length_c 46.67800035477134
_cell_angle_alpha 90.00700052986613
_cell_angle_beta 89.99899961309502
_cell_angle_gamma 90.45000003183146
_symmetry_space_group_name_H-M         'P 1'
_symmetry_Int_Tables_number            1
loop_
_symmetry_equiv_pos_as_xyz
   'x, y, z'
                         
loop_
_atom_site_label
_atom_site_type_symbol
_atom_site_fract_x 
_atom_site_fract_y
_atom_site_fract_z
_atom_site_charge
Zn Zn 0.119182 0.192634 0.382585 0.90689
Zn Zn 0.126907 0.185683 0.4298 0.90689
Zn Zn 0.362092 0.312271 0.132437 0.90689
Zn Zn 0.355264 0.318527 0.180054 0.90689
H_ H_ 0.290317 0.195969 0.446798 0.11455
H_ H_ 0.361264 0.148681 0.352175 0.11455
H_ H_ 0.264069 0.150837 0.359375 0.11455
H_ H_ 0.374756 0.204727 0.464527 0.11455
H_ H_ 0.466917 0.196563 0.460386 0.11455
H_ H_ 0.445746 0.143673 0.373553 0.11455
H_ H_ 0.110709 0.0130215 0.440479 0.11455
H_ H_ 0.0699008 0.441412 0.353892 0.11455
H_ H_ 0.142982 0.0364597 0.353494 0.11455
H_ H_ 0.15783 0.432428 0.45957 0.11455
H_ H_ 0.150994 0.343735 0.456925 0.11455
H_ H_ 0.0814284 0.35544 0.373224 0.11455
H_ H_ 0.0720629 0.121412 0.463454 0.11455
H_ H_ 0.0680261 0.0559228 0.0130929 0.11455
H_ H_ 0.116187 0.0964583 0.0523333 0.11455
H_ H_ 0.192868 0.2524 0.473767 0.11455
H_ H_ 0.215584 0.285255 0.0159546 0.11455
H_ H_ 0.198305 0.256783 0.0649775 0.11455
H_ H_ 0.00932236 0.192539 0.119033 0.11455
H_ H_ -0.0039479999999999515 0.194902 0.171145 0.11455
H_ H_ 0.258467 0.153199 0.142154 0.11455
H_ H_ 0.24566 0.148417 0.191776 0.11455
H_ H_ 0.0371364 0.0936537 0.253031 0.11455
H_ H_ 0.0241761 0.0765359 0.301011 0.11455
H_ H_ 0.0592833 0.125839 0.339995 0.11455
H_ H_ 0.158561 0.228957 0.25642 0.11455
H_ H_ 0.202214 0.27412 0.295265 0.11455
H_ H_ 0.177159 0.261166 0.345594 0.11455
H_ H_ 0.186669 0.306509 0.195812 0.11455
H_ H_ 0.114359 0.325274 0.0981547 0.11455
H_ H_ 0.203973 0.326374 0.106257 0.11455
H_ H_ 0.101682 0.285275 0.213392 0.11455
H_ H_ 0.0077661 0.286009 0.203799 0.11455
H_ H_ 0.0299518 0.319774 0.116537 0.11455
H_ H_ 0.341805 0.487417 0.192573 0.11455
H_ H_ 0.384491 0.0626614 0.0970968 0.11455
H_ H_ 0.364245 0.471718 0.103261 0.11455
H_ H_ 0.339625 0.0700737 0.213581 0.11455
H_ H_ 0.334291 0.160162 0.209219 0.11455
H_ H_ 0.372215 0.151316 0.118544 0.11455
H_ H_ 0.390731 0.395218 0.214906 0.11455
H_ H_ 0.40773 0.427153 0.263253 0.11455
H_ H_ 0.381003 0.380626 0.3048 0.11455
H_ H_ 0.307447 0.242971 0.227904 0.11455
H_ H_ 0.298409 0.184356 0.268111 0.11455
H_ H_ 0.319893 0.207867 0.318344 0.11455
H_ H_ 0.483749 0.284411 0.376478 0.11455
H_ H_ 0.499363 0.296471 0.427177 0.11455
H_ H_ 0.235901 0.324732 0.387462 0.11455
H_ H_ 0.246028 0.324922 0.440774 0.11455
H_ H_ 0.425426 0.416897 0.497138 0.11455
H_ H_ 0.453866 0.426096 0.0512457 0.11455
H_ H_ 0.423955 0.372805 0.0898919 0.11455
H_ H_ 0.321136 0.261437 0.00481688 0.11455
H_ H_ 0.295108 0.208436 0.0461588 0.11455
H_ H_ 0.302172 0.238552 0.0957655 0.11455
C_ C_ 0.217879 0.186211 0.405969 0.68181
C_ C_ 0.27237 0.180272 0.403021 -0.05681
C_ C_ 0.305577 0.19206 0.424816 -0.08735
C_ C_ 0.357615 0.185569 0.421812 -0.05681
C_ C_ 0.379047 0.17055 0.395777 -0.05681
C_ C_ 0.345354 0.159613 0.37249 -0.08735
C_ C_ 0.292302 0.161927 0.375558 -0.08735
C_ C_ 0.391631 0.195012 0.444235 -0.08735
C_ C_ 0.444312 0.191824 0.441682 -0.08735
C_ C_ 0.46551 0.172962 0.416664 -0.05681
C_ C_ 0.432294 0.158948 0.39368 -0.08735
C_ C_ 0.113387 0.284525 0.411693 0.68181
C_ C_ 0.125238 0.0883471 0.401293 0.68181
C_ C_ 0.125899 0.0322656 0.396664 -0.05681
C_ C_ 0.127626 0.501552 0.423015 -0.08735
C_ C_ 0.116663 0.448481 0.421325 -0.05681
C_ C_ 0.100413 0.425751 0.394701 -0.05681
C_ C_ 0.0828828 0.458387 0.373386 -0.08735
C_ C_ 0.090447 0.510686 0.375241 -0.08735
C_ C_ 0.137355 0.415517 0.441848 -0.08735
C_ C_ 0.140637 0.363045 0.43714 -0.08735
C_ C_ 0.12016 0.340045 0.413242 -0.05681
C_ C_ 0.102891 0.371853 0.391275 -0.08735
C_ C_ 0.0206565 0.182763 0.407909 0.68181
C_ C_ 0.0969319 0.136395 0.481454 0.1947
C_ C_ 0.0958151 0.0873025 0.00885567 -0.08735
C_ C_ 0.118227 0.111964 0.0317991 -0.08735
C_ C_ 0.142221 0.159176 0.0275947 -0.05681
C_ C_ 0.147221 0.178114 0.999258 0.18498
C_ C_ 0.18956 0.235505 0.494795 -0.08735
C_ C_ 0.188362 0.253617 0.0196687 -0.08735
C_ C_ 0.183776 0.235323 0.0464197 -0.08735
C_ C_ 0.158459 0.190158 0.0517181 0.18498
C_ C_ 0.18907 0.168243 0.100604 0.44287
C_ C_ 0.100004 0.182486 0.0925596 0.44287
C_ C_ 0.0894729 0.176785 0.121853 -0.05681
C_ C_ 0.0411056 0.18404 0.133251 -0.08735
C_ C_ 0.0314629 0.181494 0.163515 -0.08735
C_ C_ 0.0714228 0.175666 0.182248 -0.05681
C_ C_ 0.121565 0.169608 0.17037 -0.05681
C_ C_ 0.129184 0.169476 0.14091 -0.05681
C_ C_ 0.180028 0.16315 0.130422 -0.05681
C_ C_ 0.220691 0.158763 0.149951 -0.08735
C_ C_ 0.209976 0.155592 0.179134 -0.08735
C_ C_ 0.160539 0.156694 0.189392 -0.05681
C_ C_ 0.150963 0.152077 0.219118 0.44287
C_ C_ 0.0670375 0.176747 0.212609 0.44287
C_ C_ 0.0955071 0.150156 0.259615 0.18498
C_ C_ 0.0567474 0.117456 0.266995 -0.08735
C_ C_ 0.0468407 0.107076 0.295683 -0.08735
C_ C_ 0.069007 0.133233 0.318703 -0.08735
C_ C_ 0.108238 0.166264 0.312878 0.18498
C_ C_ 0.117651 0.177906 0.282737 -0.05681
C_ C_ 0.151741 0.217119 0.277938 -0.08735
C_ C_ 0.175971 0.246146 0.300106 -0.08735
C_ C_ 0.161921 0.236025 0.328218 0.1947
C_ C_ 0.26101 0.310145 0.154392 0.68181
C_ C_ 0.204774 0.306891 0.150035 -0.05681
C_ C_ 0.172279 0.303898 0.17327 -0.08735
C_ C_ 0.119155 0.301894 0.168288 -0.05681
C_ C_ 0.0982716 0.307182 0.140656 -0.05681
C_ C_ 0.131107 0.312948 0.118726 -0.08735
C_ C_ 0.183344 0.312885 0.122756 -0.08735
C_ C_ 0.0852162 0.294661 0.191469 -0.08735
C_ C_ 0.0329553 0.296478 0.187172 -0.08735
C_ C_ 0.0146181 0.310573 0.161549 -0.05681
C_ C_ 0.0471821 0.314135 0.137618 -0.08735
C_ C_ 0.358876 0.218541 0.161578 0.68181
C_ C_ 0.350267 0.415543 0.151687 0.68181
C_ C_ 0.353639 0.471694 0.149676 -0.05681
C_ C_ 0.358101 0.00258993 0.171487 -0.08735
C_ C_ 0.36055 0.0559351 0.169617 -0.05681
C_ C_ 0.368169 0.0788821 0.142039 -0.05681
C_ C_ 0.377387 0.047178 0.118581 -0.08735
C_ C_ 0.363386 0.491804 0.122551 -0.08735
C_ C_ 0.351591 0.0860727 0.193575 -0.08735
C_ C_ 0.349925 0.138073 0.191177 -0.08735
C_ C_ 0.35675 0.162155 0.164284 -0.05681
C_ C_ 0.367869 0.132472 0.139938 -0.08735
C_ C_ 0.458724 0.323824 0.160039 0.68181
C_ C_ 0.376369 0.373006 0.233331 0.1947
C_ C_ 0.384059 0.393065 0.260634 -0.08735
C_ C_ 0.374618 0.36351 0.28421 -0.08735
C_ C_ 0.356468 0.313398 0.280822 -0.05681
C_ C_ 0.341566 0.297384 0.252264 0.18498
C_ C_ 0.318417 0.251116 0.249163 -0.08735
C_ C_ 0.310757 0.219963 0.272581 -0.08735
C_ C_ 0.328954 0.233264 0.299646 -0.08735
C_ C_ 0.34628 0.282583 0.304362 0.18498
C_ C_ 0.308095 0.305311 0.350066 0.44287
C_ C_ 0.397181 0.294808 0.346277 0.44287
C_ C_ 0.403999 0.304863 0.376407 -0.05681
C_ C_ 0.45269 0.298608 0.389599 -0.08735
C_ C_ 0.458351 0.305466 0.418578 -0.08735
C_ C_ 0.415438 0.317672 0.436031 -0.05681
C_ C_ 0.367947 0.318725 0.42251 -0.05681
C_ C_ 0.362379 0.312306 0.392985 -0.05681
C_ C_ 0.313394 0.312788 0.3796 -0.05681
C_ C_ 0.272307 0.32525 0.397309 -0.08735
C_ C_ 0.278335 0.323308 0.427095 -0.08735
C_ C_ 0.326314 0.326805 0.439812 -0.05681
C_ C_ 0.33352 0.33782 0.469469 0.44287
C_ C_ 0.421589 0.326939 0.465087 0.44287
C_ C_ 0.384216 0.343443 0.0107786 0.18498
C_ C_ 0.416401 0.385779 0.0187881 -0.08735
C_ C_ 0.424145 0.397352 0.047631 -0.08735
C_ C_ 0.40623 0.368429 0.0692954 -0.08735
C_ C_ 0.369767 0.329194 0.0622022 0.18498
C_ C_ 0.358516 0.316606 0.0332646 -0.05681
C_ C_ 0.327263 0.274624 0.0275205 -0.08735
C_ C_ 0.308587 0.247343 0.0508336 -0.08735
C_ C_ 0.318499 0.261447 0.0788649 0.1947
N_ N_ 0.132003 0.172095 0.476404 -0.29468
N_ N_ 0.149132 0.178032 0.0818153 -0.17154
N_ N_ 0.10635 0.162256 0.230698 -0.17154
N_ N_ 0.129613 0.197256 0.334458 -0.29468
N_ N_ 0.35683 0.32628 0.228336 -0.29468
N_ N_ 0.350787 0.298318 0.333225 -0.17154
N_ N_ 0.379817 0.33701 0.480905 -0.17154
N_ N_ 0.351371 0.300854 0.0850077 -0.29468
O_ O_ 0.198603 0.186719 0.43087 -0.58347
O_ O_ 0.192721 0.203635 0.385404 -0.58347
O_ O_ 0.128944 0.256749 0.43283 -0.58347
O_ O_ 0.107394 0.265184 0.387701 -0.58347
O_ O_ 0.124159 0.109576 0.426579 -0.58347
O_ O_ 0.131638 0.116936 0.379401 -0.58347
O_ O_ 0.0508555 0.184469 0.428926 -0.58347
O_ O_ 0.0377786 0.182302 0.383291 -0.58347
O_ O_ 0.0630944 0.186262 0.0745328 -0.46727
O_ O_ 0.233789 0.16487 0.0896921 -0.46727
O_ O_ 0.0256316 0.197624 0.22252 -0.46727
O_ O_ 0.188744 0.140046 0.236188 -0.46727
O_ O_ 0.282838 0.300815 0.178605 -0.58347
O_ O_ 0.287911 0.315971 0.132533 -0.58347
O_ O_ 0.366024 0.247333 0.183979 -0.58347
O_ O_ 0.364955 0.236871 0.136956 -0.58347
O_ O_ 0.343432 0.39448 0.175324 -0.58347
O_ O_ 0.360912 0.388448 0.130531 -0.58347
O_ O_ 0.429372 0.333825 0.181184 -0.58347
O_ O_ 0.438011 0.311099 0.136064 -0.58347
O_ O_ 0.43817 0.288061 0.33242 -0.46727
O_ O_ 0.26219 0.300864 0.338589 -0.46727
O_ O_ 0.46786 0.329964 0.476571 -0.46727
O_ O_ 0.294589 0.351213 0.485916 -0.46727
Zn Zn 0.128428 0.18137 0.880603 0.90689
Zn Zn 0.13939 0.165611 0.928334 0.90689
Zn Zn 0.375086 0.326707 0.633326 0.90689
Zn Zn 0.36243 0.33847 0.680872 0.90689
H_ H_ 0.306945 0.181062 0.945068 0.11455
H_ H_ 0.372247 0.170291 0.847257 0.11455
H_ H_ 0.284964 0.194412 0.85416 0.11455
H_ H_ 0.3913 0.205131 0.962114 0.11455
H_ H_ 0.48525 0.20107 0.953702 0.11455
H_ H_ 0.463744 0.173284 0.865967 0.11455
H_ H_ 0.160516 -0.000790397 0.936201 0.11455
H_ H_ 0.0917603 0.424689 0.851251 0.11455
H_ H_ 0.126125 0.0200041 0.847496 0.11455
H_ H_ 0.156797 0.415653 0.963784 0.11455
H_ H_ 0.142626 0.324412 0.959305 0.11455
H_ H_ 0.0912985 0.335434 0.8746 0.11455
H_ H_ 0.086487 0.0880485 0.963115 0.11455
H_ H_ 0.0620862 0.0868784 0.514393 0.11455
H_ H_ 0.110291 0.12187 0.553817 0.11455
H_ H_ 0.174946 0.236086 0.97426 0.11455
H_ H_ 0.237112 0.293323 0.512838 0.11455
H_ H_ 0.214488 0.26951 0.564031 0.11455
H_ H_ 0.0172536 0.208332 0.62487 0.11455
H_ H_ 0.00793046 0.202126 0.674205 0.11455
H_ H_ 0.271248 0.172062 0.63653 0.11455
H_ H_ 0.264817 0.155793 0.686477 0.11455
H_ H_ 0.0951899 0.0710979 0.745588 0.11455
H_ H_ 0.0568659 0.0579937 0.795882 0.11455
H_ H_ 0.071678 0.112501 0.836423 0.11455
H_ H_ 0.161815 0.23696 0.754325 0.11455
H_ H_ 0.197261 0.286057 0.797124 0.11455
H_ H_ 0.175901 0.258798 0.845786 0.11455
H_ H_ 0.19595 0.311708 0.68971 0.11455
H_ H_ 0.129116 0.368883 0.595697 0.11455
H_ H_ 0.221315 0.354364 0.602071 0.11455
H_ H_ 0.112235 0.304455 0.708117 0.11455
H_ H_ 0.0206551 0.309843 0.703445 0.11455
H_ H_ 0.0383596 0.344264 0.613079 0.11455
H_ H_ 0.401914 0.499417 0.686875 0.11455
H_ H_ 0.403076 0.0834307 0.598796 0.11455
H_ H_ 0.371025 0.488506 0.596772 0.11455
H_ H_ 0.355634 0.0866998 0.716287 0.11455
H_ H_ 0.373303 0.180752 0.712352 0.11455
H_ H_ 0.381135 0.163811 0.62122 0.11455
H_ H_ 0.389263 0.429027 0.720406 0.11455
H_ H_ 0.415252 0.449789 0.770464 0.11455
H_ H_ 0.408379 0.382297 0.805763 0.11455
H_ H_ 0.300283 0.27253 0.724116 0.11455
H_ H_ 0.286402 0.212196 0.761357 0.11455
H_ H_ 0.310948 0.22298 0.811048 0.11455
H_ H_ 0.490626 0.296849 0.875347 0.11455
H_ H_ 0.494589 0.303232 0.92771 0.11455
H_ H_ 0.236026 0.338952 0.886153 0.11455
H_ H_ 0.247898 0.344641 0.937311 0.11455
H_ H_ 0.43916 0.406716 0.00105248 0.11455
H_ H_ 0.449704 0.443094 0.543812 0.11455
H_ H_ 0.436227 0.38388 0.587082 0.11455
H_ H_ 0.331394 0.259766 0.50873 0.11455
H_ H_ 0.306304 0.212835 0.550646 0.11455
H_ H_ 0.32729 0.240939 0.597938 0.11455
C_ C_ 0.231171 0.190828 0.904011 0.68181
C_ C_ 0.288532 0.187263 0.900184 -0.05681
C_ C_ 0.321956 0.183982 0.923534 -0.08735
C_ C_ 0.375052 0.183245 0.920007 -0.05681
C_ C_ 0.394377 0.176816 0.891779 -0.05681
C_ C_ 0.360219 0.177622 0.868188 -0.08735
C_ C_ 0.308304 0.183851 0.872118 -0.08735
C_ C_ 0.408908 0.195619 0.942123 -0.08735
C_ C_ 0.46015 0.196569 0.936899 -0.08735
C_ C_ 0.48074 0.186077 0.910035 -0.05681
C_ C_ 0.446448 0.179582 0.887061 -0.08735
C_ C_ 0.118054 0.268278 0.910919 0.68181
C_ C_ 0.144235 0.0744043 0.898493 0.68181
C_ C_ 0.141383 0.0175619 0.893441 -0.05681
C_ C_ 0.143242 0.48148 0.921612 -0.08735
C_ C_ 0.131831 0.428851 0.921129 -0.05681
C_ C_ 0.11766 0.406777 0.894088 -0.05681
C_ C_ 0.109065 0.438692 0.869938 -0.08735
C_ C_ 0.116467 0.489623 0.872677 -0.08735
C_ C_ 0.146103 0.398501 0.943169 -0.08735
C_ C_ 0.138368 0.345917 0.941321 -0.08735
C_ C_ 0.120553 0.323591 0.91584 -0.05681
C_ C_ 0.109905 0.354165 0.8924 -0.08735
C_ C_ 0.0351075 0.164393 0.907621 0.68181
C_ C_ 0.104753 0.106179 0.980446 0.1947
C_ C_ 0.0894585 0.117408 0.510007 -0.08735
C_ C_ 0.113222 0.140289 0.533097 -0.08735
C_ C_ 0.14539 0.181705 0.527913 -0.05681
C_ C_ 0.155068 0.196212 0.499433 0.18498
C_ C_ 0.172763 0.223949 0.996285 -0.08735
C_ C_ 0.213213 0.260131 0.517301 -0.08735
C_ C_ 0.196106 0.251436 0.545867 -0.08735
C_ C_ 0.163331 0.211203 0.551097 0.18498
C_ C_ 0.19655 0.183254 0.597377 0.44287
C_ C_ 0.109032 0.205349 0.592754 0.44287
C_ C_ 0.101069 0.197169 0.621813 -0.05681
C_ C_ 0.0525474 0.200364 0.635669 -0.08735
C_ C_ 0.0452855 0.193916 0.665487 -0.08735
C_ C_ 0.0876473 0.18132 0.683314 -0.05681
C_ C_ 0.137319 0.180306 0.670163 -0.05681
C_ C_ 0.142268 0.185281 0.640327 -0.05681
C_ C_ 0.191519 0.184245 0.628006 -0.05681
C_ C_ 0.233967 0.17693 0.645915 -0.08735
C_ C_ 0.227682 0.165846 0.674607 -0.08735
C_ C_ 0.180033 0.165419 0.68726 -0.05681
C_ C_ 0.174918 0.153424 0.717096 0.44287
C_ C_ 0.0844558 0.174816 0.712985 0.44287
C_ C_ 0.119272 0.146596 0.758173 0.18498
C_ C_ 0.0980352 0.098703 0.764244 -0.08735
C_ C_ 0.0827314 0.0877616 0.79236 -0.08735
C_ C_ 0.0953723 0.116804 0.816568 -0.08735
C_ C_ 0.125012 0.160851 0.811081 0.18498
C_ C_ 0.134593 0.177952 0.781629 -0.05681
C_ C_ 0.157903 0.223469 0.776409 -0.08735
C_ C_ 0.174623 0.251817 0.799373 -0.08735
C_ C_ 0.166752 0.234437 0.827919 0.1947
C_ C_ 0.270756 0.332019 0.653436 0.68181
C_ C_ 0.214363 0.334012 0.647567 -0.05681
C_ C_ 0.180933 0.323856 0.668943 -0.08735
C_ C_ 0.127937 0.330885 0.665804 -0.05681
C_ C_ 0.108509 0.341661 0.637746 -0.05681
C_ C_ 0.141954 0.352368 0.616091 -0.08735
C_ C_ 0.195131 0.349989 0.620766 -0.08735
C_ C_ 0.0951685 0.3115 0.687427 -0.08735
C_ C_ 0.043344 0.320048 0.684499 -0.08735
C_ C_ 0.0219122 0.332293 0.657566 -0.05681
C_ C_ 0.0556583 0.342087 0.634384 -0.08735
C_ C_ 0.378505 0.234361 0.663661 0.68181
C_ C_ 0.367613 0.431468 0.648092 0.68181
C_ C_ 0.379257 0.485661 0.642701 -0.05681
C_ C_ 0.375499 0.0177424 0.673412 -0.08735
C_ C_ 0.378423 0.0725968 0.671275 -0.05681
C_ C_ 0.387462 0.0957008 0.644503 -0.05681
C_ C_ 0.395189 0.0654822 0.619365 -0.08735
C_ C_ 0.372506 0.509523 0.6169 -0.08735
C_ C_ 0.37356 0.102692 0.696697 -0.08735
C_ C_ 0.378429 0.15594 0.693423 -0.08735
C_ C_ 0.382092 0.178393 0.667272 -0.05681
C_ C_ 0.38437 0.146699 0.641998 -0.08735
C_ C_ 0.465676 0.335707 0.660715 0.68181
C_ C_ 0.387488 0.398517 0.735399 0.1947
C_ C_ 0.399025 0.411392 0.764013 -0.08735
C_ C_ 0.393226 0.374863 0.78522 -0.08735
C_ C_ 0.365372 0.330629 0.780635 -0.05681
C_ C_ 0.353474 0.319662 0.75065 0.18498
C_ C_ 0.321614 0.278418 0.74471 -0.08735
C_ C_ 0.310739 0.242744 0.766113 -0.08735
C_ C_ 0.322131 0.252073 0.795384 -0.08735
C_ C_ 0.350096 0.296341 0.803205 0.18498
C_ C_ 0.313442 0.320004 0.848575 0.44287
C_ C_ 0.402381 0.301343 0.845043 0.44287
C_ C_ 0.407827 0.310758 0.874249 -0.05681
C_ C_ 0.457321 0.309758 0.887188 -0.08735
C_ C_ 0.463343 0.315257 0.917306 -0.08735
C_ C_ 0.418955 0.322516 0.934472 -0.05681
C_ C_ 0.371559 0.32814 0.920628 -0.05681
C_ C_ 0.365743 0.3232 0.890835 -0.05681
C_ C_ 0.316436 0.323796 0.878425 -0.05681
C_ C_ 0.272897 0.333976 0.895282 -0.08735
C_ C_ 0.280122 0.342206 0.924436 -0.08735
C_ C_ 0.327736 0.337555 0.938511 -0.05681
C_ C_ 0.33255 0.340403 0.9684 0.44287
C_ C_ 0.418389 0.317932 0.965397 0.44287
C_ C_ 0.386188 0.350207 0.509741 0.18498
C_ C_ 0.40947 0.396279 0.515308 -0.08735
C_ C_ 0.428026 0.406913 0.541948 -0.08735
C_ C_ 0.422192 0.372189 0.565425 -0.08735
C_ C_ 0.391255 0.328523 0.561947 0.18498
C_ C_ 0.372994 0.317123 0.533374 -0.05681
C_ C_ 0.346176 0.270542 0.528515 -0.08735
C_ C_ 0.333652 0.2421 0.552804 -0.08735
C_ C_ 0.346676 0.258848 0.580268 0.1947
N_ N_ 0.133032 0.149616 0.975722 -0.29468
N_ N_ 0.155121 0.197012 0.580096 -0.17154
N_ N_ 0.127174 0.159437 0.728485 -0.17154
N_ N_ 0.135182 0.194364 0.83268 -0.29468
N_ N_ 0.366384 0.351932 0.729424 -0.29468
N_ N_ 0.35635 0.306404 0.833038 -0.17154
N_ N_ 0.377669 0.330252 0.981219 -0.17154
N_ N_ 0.374214 0.302836 0.584588 -0.29468
O_ O_ 0.212432 0.187809 0.928934 -0.58347
O_ O_ 0.204033 0.178817 0.881647 -0.58347
O_ O_ 0.11806 0.237872 0.932158 -0.58347
O_ O_ 0.129149 0.251907 0.888384 -0.58347
O_ O_ 0.153016 0.0915177 0.92408 -0.58347
O_ O_ 0.132063 0.105506 0.879662 -0.58347
O_ O_ 0.0641601 0.152395 0.9274 -0.58347
O_ O_ 0.0511588 0.180988 0.883875 -0.58347
O_ O_ 0.0719034 0.2218 0.577519 -0.46727
O_ O_ 0.241089 0.176044 0.585129 -0.46727
O_ O_ 0.0395889 0.178188 0.72417 -0.46727
O_ O_ 0.212942 0.141236 0.732265 -0.46727
O_ O_ 0.28629 0.337578 0.678604 -0.58347
O_ O_ 0.301339 0.326452 0.632848 -0.58347
O_ O_ 0.367085 0.264518 0.684563 -0.58347
O_ O_ 0.380976 0.253465 0.638776 -0.58347
O_ O_ 0.365502 0.412479 0.673558 -0.58347
O_ O_ 0.368428 0.401595 0.627452 -0.58347
O_ O_ 0.435073 0.338353 0.681463 -0.58347
O_ O_ 0.450071 0.328072 0.636069 -0.58347
O_ O_ 0.439414 0.28446 0.829283 -0.46727
O_ O_ 0.268514 0.322269 0.836144 -0.46727
O_ O_ 0.462302 0.30883 0.980043 -0.46727
O_ O_ 0.293543 0.352573 0.98449 -0.46727
Zn Zn 0.12048 0.692098 0.379575 0.90689
Zn Zn 0.127608 0.683258 0.427782 0.90689
Zn Zn 0.372703 0.815871 0.130595 0.90689
Zn Zn 0.359138 0.817298 0.178487 0.90689
H_ H_ 0.296981 0.720426 0.441834 0.11455
H_ H_ 0.360277 0.651453 0.347934 0.11455
H_ H_ 0.271456 0.657821 0.357946 0.11455
H_ H_ 0.376659 0.712243 0.461581 0.11455
H_ H_ 0.472013 0.70085 0.458874 0.11455
H_ H_ 0.448798 0.660386 0.368033 0.11455
H_ H_ 0.14086 0.519111 0.443401 0.11455
H_ H_ 0.153363 0.943658 0.347146 0.11455
H_ H_ 0.0737163 0.535388 0.359945 0.11455
H_ H_ 0.0969098 0.93541 0.459775 0.11455
H_ H_ 0.0916556 0.838207 0.454763 0.11455
H_ H_ 0.14003 0.85596 0.367444 0.11455
H_ H_ 0.0932099 0.601253 0.465208 0.11455
H_ H_ 0.0821207 0.566032 0.0212801 0.11455
H_ H_ 0.128167 0.613706 0.0571388 0.11455
H_ H_ 0.17722 0.755298 0.470833 0.11455
H_ H_ 0.220739 0.798164 0.00948658 0.11455
H_ H_ 0.187072 0.782824 0.0598264 0.11455
H_ H_ 0.0171822 0.729781 0.116076 0.11455
H_ H_ -0.005650000000000044 0.712424 0.168631 0.11455
H_ H_ 0.249434 0.637041 0.14434 0.11455
H_ H_ 0.22437 0.626699 0.194821 0.11455
H_ H_ 0.031946 0.605663 0.247736 0.11455
H_ H_ 0.0147326 0.57871 0.299843 0.11455
H_ H_ 0.0497569 0.636333 0.339625 0.11455
H_ H_ 0.139342 0.753875 0.254667 0.11455
H_ H_ 0.182925 0.791625 0.293188 0.11455
H_ H_ 0.16903 0.763416 0.345265 0.11455
H_ H_ 0.186037 0.803815 0.188675 0.11455
H_ H_ 0.124223 0.854681 0.0923775 0.11455
H_ H_ 0.218264 0.851146 0.102533 0.11455
H_ H_ 0.110198 0.839045 0.21055 0.11455
H_ H_ 0.0121032 0.832549 0.202352 0.11455
H_ H_ 0.0398746 0.839147 0.110067 0.11455
H_ H_ 0.346949 0.986144 0.192811 0.11455
H_ H_ 0.38618 0.563133 0.101306 0.11455
H_ H_ 0.392547 0.973071 0.103552 0.11455
H_ H_ 0.343637 0.571198 0.216918 0.11455
H_ H_ 0.35583 0.667302 0.210141 0.11455
H_ H_ 0.390921 0.645721 0.121029 0.11455
H_ H_ 0.420588 0.891052 0.214237 0.11455
H_ H_ 0.432751 0.92029 0.266062 0.11455
H_ H_ 0.381945 0.884203 0.302801 0.11455
H_ H_ 0.290711 0.765017 0.220305 0.11455
H_ H_ 0.259498 0.709775 0.258765 0.11455
H_ H_ 0.289262 0.723186 0.30947 0.11455
H_ H_ 0.480631 0.80411 0.372028 0.11455
H_ H_ 0.49042 0.810546 0.423764 0.11455
H_ H_ 0.227963 0.831944 0.38464 0.11455
H_ H_ 0.245937 0.859101 0.435962 0.11455
H_ H_ 0.415569 0.930987 0.493683 0.11455
H_ H_ 0.458425 0.928148 0.045988 0.11455
H_ H_ 0.423166 0.870257 0.0871162 0.11455
H_ H_ 0.32622 0.754283 0.00684326 0.11455
H_ H_ 0.308426 0.697907 0.0498941 0.11455
H_ H_ 0.327416 0.731383 0.0966068 0.11455
C_ C_ 0.221178 0.696951 0.403022 0.68181
C_ C_ 0.276989 0.696725 0.398141 -0.05681
C_ C_ 0.310712 0.710055 0.420753 -0.08735
C_ C_ 0.364004 0.702497 0.417245 -0.05681
C_ C_ 0.382684 0.681457 0.391567 -0.05681
C_ C_ 0.348457 0.668989 0.368909 -0.08735
C_ C_ 0.296005 0.673976 0.373167 -0.08735
C_ C_ 0.395213 0.706723 0.441586 -0.08735
C_ C_ 0.447381 0.696414 0.439079 -0.08735
C_ C_ 0.469788 0.681453 0.411748 -0.05681
C_ C_ 0.435593 0.674028 0.388532 -0.08735
C_ C_ 0.116214 0.785015 0.40818 0.68181
C_ C_ 0.127148 0.589686 0.400638 0.68181
C_ C_ 0.114508 0.532033 0.399826 -0.05681
C_ C_ 0.118232 0.999017436 0.420083 -0.08735
C_ C_ 0.115963 0.947018 0.415932 -0.05681
C_ C_ 0.126045 0.925412 0.389022 -0.05681
C_ C_ 0.139029 0.960214 0.366838 -0.08735
C_ C_ 0.139672 1.012089 0.371205 -0.08735
C_ C_ 0.104448 0.915276 0.4393 -0.08735
C_ C_ 0.0998629 0.862128 0.436178 -0.08735
C_ C_ 0.112925 0.841111 0.409807 -0.05681
C_ C_ 0.127106 0.872504 0.38694 -0.08735
C_ C_ 0.0242367 0.677502 0.402809 0.68181
C_ C_ 0.0961014 0.626573 0.481585 0.1947
C_ C_ 0.0986346 0.602364 0.015522 -0.08735
C_ C_ 0.123078 0.629955 0.0368658 -0.08735
C_ C_ 0.149995 0.67408 0.0298867 -0.05681
C_ C_ 0.159175 0.685889 1.00119 0.18498
C_ C_ 0.171955 0.741816 0.492313 -0.08735
C_ C_ 0.205807 0.76048 0.0157707 -0.08735
C_ C_ 0.190506 0.752337 0.0447186 -0.08735
C_ C_ 0.168299 0.705749 0.0522198 0.18498
C_ C_ 0.189798 0.681247 0.100989 0.44287
C_ C_ 0.106365 0.712769 0.0911143 0.44287
C_ C_ 0.0943913 0.704582 0.121109 -0.05681
C_ C_ 0.0455292 0.715126 0.131426 -0.08735
C_ C_ 0.0330361 0.707533 0.160601 -0.08735
C_ C_ 0.069802 0.690627 0.179897 -0.05681
C_ C_ 0.117702 0.682326 0.170124 -0.05681
C_ C_ 0.128719 0.68726 0.140836 -0.05681
C_ C_ 0.178622 0.672897 0.131125 -0.05681
C_ C_ 0.213524 0.652568 0.150809 -0.08735
C_ C_ 0.200491 0.648035 0.180275 -0.08735
C_ C_ 0.15523 0.665981 0.189948 -0.05681
C_ C_ 0.143052 0.663021 0.220121 0.44287
C_ C_ 0.0581124 0.686337 0.209555 0.44287
C_ C_ 0.0817279 0.665279 0.258333 0.18498
C_ C_ 0.052171 0.622466 0.265257 -0.08735
C_ C_ 0.0407907 0.611552 0.295014 -0.08735
C_ C_ 0.0609009 0.639935 0.317362 -0.08735
C_ C_ 0.0937949 0.678947 0.310369 0.18498
C_ C_ 0.101488 0.696248 0.281704 -0.05681
C_ C_ 0.134513 0.738621 0.276671 -0.08735
C_ C_ 0.161672 0.757801 0.297999 -0.08735
C_ C_ 0.152657 0.74214 0.32614 0.1947
C_ C_ 0.266103 0.823827 0.150651 0.68181
C_ C_ 0.21119 0.824063 0.145297 -0.05681
C_ C_ 0.176244 0.819525 0.168275 -0.08735
C_ C_ 0.126979 0.833544 0.164699 -0.05681
C_ C_ 0.105313 0.842017 0.137434 -0.05681
C_ C_ 0.138352 0.843655 0.113116 -0.08735
C_ C_ 0.191275 0.834516 0.117598 -0.08735
C_ C_ 0.0926652 0.833874 0.188598 -0.08735
C_ C_ 0.039508 0.836022 0.183019 -0.08735
C_ C_ 0.0187505 0.833543 0.155807 -0.05681
C_ C_ 0.0537545 0.841451 0.132559 -0.08735
C_ C_ 0.366662 0.719389 0.162205 0.68181
C_ C_ 0.361834 0.914726 0.149479 0.68181
C_ C_ 0.365561 0.971265 0.147777 -0.05681
C_ C_ 0.35409 0.503016 0.173713 -0.08735
C_ C_ 0.364564 0.556307 0.172068 -0.05681
C_ C_ 0.373268 0.578014 0.145248 -0.05681
C_ C_ 0.37487 0.545364 0.121166 -0.08735
C_ C_ 0.379524 -0.0047840000000000105 0.121417 -0.08735
C_ C_ 0.355676 0.58812 0.195437 -0.08735
C_ C_ 0.360391 0.641577 0.192171 -0.08735
C_ C_ 0.37138 0.663652 0.165892 -0.05681
C_ C_ 0.379338 0.631568 0.141837 -0.08735
C_ C_ 0.465535 0.823811 0.158244 0.68181
C_ C_ 0.397522 0.87761 0.232179 0.1947
C_ C_ 0.406083 0.891094 0.260863 -0.08735
C_ C_ 0.38015 0.866495 0.282184 -0.08735
C_ C_ 0.351081 0.82272 0.276986 -0.05681
C_ C_ 0.344424 0.809139 0.248205 0.18498
C_ C_ 0.312867 0.765833 0.242275 -0.08735
C_ C_ 0.293536 0.734024 0.264454 -0.08735
C_ C_ 0.304191 0.745574 0.293112 -0.08735
C_ C_ 0.336612 0.78714 0.299263 0.18498
C_ C_ 0.304347 0.814824 0.346303 0.44287
C_ C_ 0.391453 0.797355 0.342128 0.44287
C_ C_ 0.398936 0.810243 0.372027 -0.05681
C_ C_ 0.447116 0.81007 0.384728 -0.08735
C_ C_ 0.453545 0.816814 0.414033 -0.08735
C_ C_ 0.412407 0.826025 0.432301 -0.05681
C_ C_ 0.364011 0.829925 0.419271 -0.05681
C_ C_ 0.357086 0.819071 0.388587 -0.05681
C_ C_ 0.309133 0.824911 0.375622 -0.05681
C_ C_ 0.266607 0.838045 0.39259 -0.08735
C_ C_ 0.274107 0.843918 0.422819 -0.08735
C_ C_ 0.32187 0.838393 0.436432 -0.05681
C_ C_ 0.330941 0.846712 0.466623 0.44287
C_ C_ 0.419539 0.835357 0.461976 0.44287
C_ C_ 0.387254 0.839653 0.0090429 0.18498
C_ C_ 0.420201 0.881349 0.0151728 -0.08735
C_ C_ 0.434546 0.893613 0.0427405 -0.08735
C_ C_ 0.414578 0.864378 0.0647735 -0.08735
C_ C_ 0.384513 0.821459 0.0601462 0.18498
C_ C_ 0.370718 0.807294 0.031846 -0.05681
C_ C_ 0.341949 0.762317 0.0281424 -0.08735
C_ C_ 0.33059 0.732384 0.052 -0.08735
C_ C_ 0.343416 0.750596 0.079263 0.1947
N_ N_ 0.123862 0.668329 0.47634 -0.29468
N_ N_ 0.15459 0.700443 0.0824358 -0.17154
N_ N_ 0.0951306 0.672962 0.229094 -0.17154
N_ N_ 0.123542 0.701027 0.331508 -0.29468
N_ N_ 0.364634 0.838602 0.226621 -0.29468
N_ N_ 0.344667 0.801928 0.329566 -0.17154
N_ N_ 0.378021 0.843617 0.478559 -0.17154
N_ N_ 0.371031 0.792145 0.0839108 -0.29468
O_ O_ 0.201779 0.704266 0.428014 -0.58347
O_ O_ 0.192547 0.697281 0.381134 -0.58347
O_ O_ 0.11095 0.755438 0.429933 -0.58347
O_ O_ 0.117719 0.765802 0.383596 -0.58347
O_ O_ 0.147935 0.608968 0.422948 -0.58347
O_ O_ 0.119621 0.616779 0.378203 -0.58347
O_ O_ 0.0527938 0.66759 0.424032 -0.58347
O_ O_ 0.0441913 0.688466 0.378565 -0.58347
O_ O_ 0.0732419 0.738767 0.0742164 -0.46727
O_ O_ 0.233822 0.667213 0.0913441 -0.46727
O_ O_ 0.014652 0.700752 0.219119 -0.46727
O_ O_ 0.17896 0.650167 0.238078 -0.46727
O_ O_ 0.281365 0.831784 0.176962 -0.58347
O_ O_ 0.296323 0.809085 0.132568 -0.58347
O_ O_ 0.355007 0.74596 0.183624 -0.58347
O_ O_ 0.381391 0.738914 0.139374 -0.58347
O_ O_ 0.361609 0.892375 0.17343 -0.58347
O_ O_ 0.358388 0.891064 0.1267 -0.58347
O_ O_ 0.435769 0.813731 0.179651 -0.58347
O_ O_ 0.449025 0.828241 0.132994 -0.58347
O_ O_ 0.428878 0.775118 0.327155 -0.46727
O_ O_ 0.262344 0.826818 0.331973 -0.46727
O_ O_ 0.463231 0.820296 0.475362 -0.46727
O_ O_ 0.290881 0.854945 0.48323 -0.46727
Zn Zn 0.13657 0.676434 0.881991 0.90689
Zn Zn 0.14373 0.669445 0.93042 0.90689
Zn Zn 0.382978 0.828178 0.630267 0.90689
Zn Zn 0.372783 0.835619 0.677323 0.90689
H_ H_ 0.310761 0.664518 0.945032 0.11455
H_ H_ 0.372006 0.674525 0.844912 0.11455
H_ H_ 0.284986 0.690401 0.855984 0.11455
H_ H_ 0.399942 0.671793 0.962684 0.11455
H_ H_ 0.492587 0.675343 0.953502 0.11455
H_ H_ 0.46257 0.670021 0.8624 0.11455
H_ H_ 0.164441 0.49603 0.939911 0.11455
H_ H_ 0.115412 0.923847 0.84441 0.11455
H_ H_ 0.114592 0.512098 0.8539 0.11455
H_ H_ 0.144564 0.91861 0.960757 0.11455
H_ H_ 0.136142 0.833191 0.957392 0.11455
H_ H_ 0.115475 0.83744 0.866444 0.11455
H_ H_ 0.0851174 0.600139 0.971223 0.11455
H_ H_ 0.0626423 0.578478 0.512653 0.11455
H_ H_ 0.0876457 0.630509 0.553298 0.11455
H_ H_ 0.196229 0.733261 0.971222 0.11455
H_ H_ 0.206589 0.811094 0.510762 0.11455
H_ H_ 0.19382 0.781083 0.56075 0.11455
H_ H_ 1.0143311 0.707344 0.623232 0.11455
H_ H_ 1.00593448 0.688877 0.674652 0.11455
H_ H_ 0.267606 0.656042 0.633945 0.11455
H_ H_ 0.255181 0.645994 0.683977 0.11455
H_ H_ 0.071344 0.580224 0.750004 0.11455
H_ H_ 0.0438752 0.565066 0.797068 0.11455
H_ H_ 0.0881447 0.614645 0.837107 0.11455
H_ H_ 0.174763 0.736241 0.756392 0.11455
H_ H_ 0.208038 0.781407 0.796301 0.11455
H_ H_ 0.191561 0.750254 0.846481 0.11455
H_ H_ 0.206255 0.787105 0.686821 0.11455
H_ H_ 0.135242 0.873427 0.601323 0.11455
H_ H_ 0.225915 0.883035 0.614208 0.11455
H_ H_ 0.118543 0.789514 0.710213 0.11455
H_ H_ 0.0294831 0.786276 0.702248 0.11455
H_ H_ 0.0523516 0.837424 0.614635 0.11455
H_ H_ 0.368091 0.99885205 0.693874 0.11455
H_ H_ 0.36656 0.575525 0.59313 0.11455
H_ H_ 0.391975 0.986253 0.603168 0.11455
H_ H_ 0.412963 0.587282 0.707358 0.11455
H_ H_ 0.405361 0.67821 0.704856 0.11455
H_ H_ 0.365921 0.665278 0.615362 0.11455
H_ H_ 0.408618 0.911994 0.715892 0.11455
H_ H_ 0.43674 0.928636 0.764567 0.11455
H_ H_ 0.408009 0.872755 0.804718 0.11455
H_ H_ 0.325145 0.757095 0.717976 0.11455
H_ H_ 0.28875 0.703669 0.756223 0.11455
H_ H_ 0.32195 0.71262 0.806679 0.11455
H_ H_ 0.494379 0.812639 0.871397 0.11455
H_ H_ 0.49929 0.811241 0.923827 0.11455
H_ H_ 0.241433 0.80808 0.883532 0.11455
H_ H_ 0.248848 0.807594 0.935776 0.11455
H_ H_ 0.431788 0.905969 0.998687 0.11455
H_ H_ 0.436932 0.957351 0.546059 0.11455
H_ H_ 0.426212 0.896735 0.583289 0.11455
H_ H_ 0.344281 0.765565 0.506667 0.11455
H_ H_ 0.307232 0.721214 0.550296 0.11455
H_ H_ 0.318212 0.761364 0.597911 0.11455
C_ C_ 0.237506 0.681237 0.906333 0.68181
C_ C_ 0.293396 0.683754 0.901179 -0.05681
C_ C_ 0.326983 0.675175 0.924084 -0.08735
C_ C_ 0.380366 0.67607 0.91898 -0.05681
C_ C_ 0.39804 0.678197 0.889739 -0.05681
C_ C_ 0.362746 0.674742 0.86739 -0.08735
C_ C_ 0.310505 0.680384 0.873697 -0.08735
C_ C_ 0.413294 0.671051 0.941356 -0.08735
C_ C_ 0.465512 0.673592 0.93643 -0.08735
C_ C_ 0.486045 0.673575 0.907889 -0.05681
C_ C_ 0.449812 0.67401 0.884211 -0.08735
C_ C_ 0.13466 0.772245 0.910115 0.68181
C_ C_ 0.138409 0.570315 0.899897 0.68181
C_ C_ 0.133484 0.51303 0.89836 -0.05681
C_ C_ 0.149384 0.985796 0.916178 -0.08735
C_ C_ 0.139216 0.934605 0.915089 -0.05681
C_ C_ 0.127079 0.912171 0.888888 -0.05681
C_ C_ 0.119784 0.94307 0.864497 -0.08735
C_ C_ 0.128006 -0.003619000000000039 0.866857 -0.08735
C_ C_ 0.137918 0.904169 0.939657 -0.08735
C_ C_ 0.132707 0.852199 0.937739 -0.08735
C_ C_ 0.131354 0.826934 0.91156 -0.05681
C_ C_ 0.12573 0.857286 0.886607 -0.08735
C_ C_ 0.0437646 0.672946 0.907404 0.68181
C_ C_ 0.101866 0.621921 0.987695 0.1947
C_ C_ 0.0871012 0.612379 0.508756 -0.08735
C_ C_ 0.103073 0.642212 0.53221 -0.08735
C_ C_ 0.131381 0.685229 0.526875 -0.05681
C_ C_ 0.140499 0.700016 0.498009 0.18498
C_ C_ 0.188698 0.728688 0.99465 -0.08735
C_ C_ 0.189163 0.772853 0.515202 -0.08735
C_ C_ 0.181401 0.756716 0.542918 -0.08735
C_ C_ 0.15229 0.71312 0.550058 0.18498
C_ C_ 0.189523 0.687054 0.595521 0.44287
C_ C_ 0.101996 0.709624 0.593766 0.44287
C_ C_ 0.0951759 0.693711 0.621943 -0.05681
C_ C_ 0.0480791 0.696393 0.635741 -0.08735
C_ C_ 0.0427847 0.683706 0.664222 -0.08735
C_ C_ 0.0853494 0.677959 0.682545 -0.05681
C_ C_ 0.134607 0.677364 0.669606 -0.05681
C_ C_ 0.139245 0.686366 0.638989 -0.05681
C_ C_ 0.187773 0.683134 0.626164 -0.05681
C_ C_ 0.228675 0.665947 0.643296 -0.08735
C_ C_ 0.223041 0.659059 0.673423 -0.08735
C_ C_ 0.177021 0.666126 0.687235 -0.05681
C_ C_ 0.169488 0.656119 0.716236 0.44287
C_ C_ 0.0812707 0.67099 0.712711 0.44287
C_ C_ 0.113756 0.648903 0.758848 0.18498
C_ C_ 0.0890608 0.601787 0.765653 -0.08735
C_ C_ 0.0744334 0.593174 0.792915 -0.08735
C_ C_ 0.0962468 0.622638 0.815408 -0.08735
C_ C_ 0.12757 0.663407 0.810486 0.18498
C_ C_ 0.138169 0.676941 0.781362 -0.05681
C_ C_ 0.165903 0.721251 0.777333 -0.08735
C_ C_ 0.183709 0.748775 0.801095 -0.08735
C_ C_ 0.175399 0.730335 0.82862 0.1947
C_ C_ 0.28016 0.828619 0.653143 0.68181
C_ C_ 0.223114 0.833031 0.651281 -0.05681
C_ C_ 0.189718 0.813142 0.671222 -0.08735
C_ C_ 0.136927 0.814118 0.666801 -0.05681
C_ C_ 0.117626 0.833937 0.641615 -0.05681
C_ C_ 0.150549 0.855091 0.620587 -0.08735
C_ C_ 0.202851 0.8575 0.62695 -0.08735
C_ C_ 0.104695 0.796236 0.689553 -0.08735
C_ C_ 0.0522972 0.800988 0.685861 -0.08735
C_ C_ 0.0328393 0.814383 0.659074 -0.05681
C_ C_ 0.0666751 0.831217 0.636687 -0.08735
C_ C_ 0.382483 0.733653 0.65772 0.68181
C_ C_ 0.377198 0.931379 0.649838 0.68181
C_ C_ 0.386018 0.986768 0.648902 -0.05681
C_ C_ 0.392158 0.51767 0.666116 -0.08735
C_ C_ 0.392012 0.571919 0.663877 -0.05681
C_ C_ 0.379764 0.594145 0.637046 -0.05681
C_ C_ 0.377187 0.5622 0.612852 -0.08735
C_ C_ 0.392309 1.0102966 0.622119 -0.08735
C_ C_ 0.404392 0.603263 0.687273 -0.08735
C_ C_ 0.398578 0.653942 0.686807 -0.08735
C_ C_ 0.385633 0.677524 0.660734 -0.05681
C_ C_ 0.377626 0.646911 0.635424 -0.08735
C_ C_ 0.475169 0.83034 0.654865 0.68181
C_ C_ 0.400477 0.885129 0.731773 0.1947
C_ C_ 0.410062 0.899396 0.760186 -0.08735
C_ C_ 0.393666 0.865683 0.782722 -0.08735
C_ C_ 0.367729 0.8203 0.77614 -0.05681
C_ C_ 0.357891 0.810112 0.747042 0.18498
C_ C_ 0.331592 0.765637 0.740906 -0.08735
C_ C_ 0.311331 0.736438 0.761417 -0.08735
C_ C_ 0.330257 0.741034 0.789657 -0.08735
C_ C_ 0.35528 0.784848 0.797655 0.18498
C_ C_ 0.317715 0.807434 0.844988 0.44287
C_ C_ 0.409145 0.798609 0.840827 0.44287
C_ C_ 0.412238 0.807655 0.871083 -0.05681
C_ C_ 0.460038 0.80855 0.884609 -0.08735
C_ C_ 0.462942 0.809544 0.914408 -0.08735
C_ C_ 0.419596 0.810012 0.93124 -0.05681
C_ C_ 0.373249 0.816631 0.918083 -0.05681
C_ C_ 0.368541 0.817379 0.887554 -0.05681
C_ C_ 0.321188 0.815136 0.875921 -0.05681
C_ C_ 0.277461 0.809746 0.892782 -0.08735
C_ C_ 0.282396 0.80749 0.922706 -0.08735
C_ C_ 0.329785 0.818172 0.935218 -0.05681
C_ C_ 0.335291 0.82378 0.965683 0.44287
C_ C_ 0.423128 0.811947 0.961823 0.44287
C_ C_ 0.384053 0.859971 0.507964 0.18498
C_ C_ 0.407275 0.908192 0.51269 -0.08735
C_ C_ 0.422022 0.921858 0.541258 -0.08735
C_ C_ 0.410574 0.889532 0.563559 -0.08735
C_ C_ 0.379338 0.847975 0.559948 0.18498
C_ C_ 0.37187 0.829062 0.531762 -0.05681
C_ C_ 0.348683 0.7818 0.527751 -0.08735
C_ C_ 0.330086 0.755362 0.552409 -0.08735
C_ C_ 0.339558 0.775962 0.580224 0.1947
N_ N_ 0.135306 0.660722 0.979514 -0.29468
N_ N_ 0.147057 0.698064 0.580777 -0.17154
N_ N_ 0.122471 0.660248 0.72902 -0.17154
N_ N_ 0.1427 0.691154 0.833372 -0.29468
N_ N_ 0.372968 0.841545 0.724897 -0.29468
N_ N_ 0.359583 0.796887 0.828893 -0.17154
N_ N_ 0.381175 0.823127 0.978648 -0.17154
N_ N_ 0.371504 0.818151 0.582703 -0.29468
O_ O_ 0.21952 0.671507 0.931128 -0.58347
O_ O_ 0.208877 0.67983 0.885669 -0.58347
O_ O_ 0.144483 0.745547 0.932779 -0.58347
O_ O_ 0.131282 0.752048 0.886092 -0.58347
O_ O_ 0.138668 0.591838 0.924844 -0.58347
O_ O_ 0.140976 0.597437 0.87676 -0.58347
O_ O_ 0.0719997 0.667251 0.928812 -0.58347
O_ O_ 0.0618786 0.672939 0.881546 -0.58347
O_ O_ 0.0637526 0.726175 0.578342 -0.46727
O_ O_ 0.233636 0.690386 0.583186 -0.46727
O_ O_ 0.0372566 0.673059 0.725942 -0.46727
O_ O_ 0.210689 0.64608 0.731278 -0.46727
O_ O_ 0.300627 0.821288 0.676928 -0.58347
O_ O_ 0.308759 0.838701 0.63209 -0.58347
O_ O_ 0.382997 0.760657 0.680165 -0.58347
O_ O_ 0.375892 0.755068 0.633696 -0.58347
O_ O_ 0.363131 0.909022 0.673159 -0.58347
O_ O_ 0.3892 0.905629 0.628474 -0.58347
O_ O_ 0.448374 0.847278 0.675519 -0.58347
O_ O_ 0.457541 0.818271 0.630771 -0.58347
O_ O_ 0.451454 0.794019 0.825366 -0.46727
O_ O_ 0.274513 0.81298 0.831957 -0.46727
O_ O_ 0.469516 0.814083 0.974692 -0.46727
O_ O_ 0.295721 0.832559 0.981758 -0.46727
Zn Zn 0.614058 0.182321 0.384654 0.90689
Zn Zn 0.62397 0.181215 0.433632 0.90689
Zn Zn 0.864518 0.312885 0.133468 0.90689
Zn Zn 0.857785 0.314592 0.182689 0.90689
H_ H_ 0.790981 0.18766 0.449641 0.11455
H_ H_ 0.860765 0.184976 0.348578 0.11455
H_ H_ 0.771164 0.187535 0.357163 0.11455
H_ H_ 0.878071 0.172003 0.467012 0.11455
H_ H_ 0.971203 0.180983 0.456728 0.11455
H_ H_ 0.94679 0.182993 0.366386 0.11455
H_ H_ 0.615069 0.013059 0.449943 0.11455
H_ H_ 0.593339 0.432602 0.351139 0.11455
H_ H_ 0.655868 0.0252948 0.361048 0.11455
H_ H_ 0.660168 0.427435 0.461695 0.11455
H_ H_ 0.636614 0.336316 0.46024 0.11455
H_ H_ 0.578306 0.353512 0.375264 0.11455
H_ H_ 0.573147 0.109747 0.470186 0.11455
H_ H_ 0.575579 0.0736548 0.0194307 0.11455
H_ H_ 0.609003 0.12494 0.0569285 0.11455
H_ H_ 0.688325 0.250026 0.474478 0.11455
H_ H_ 0.739816 0.290885 0.0177759 0.11455
H_ H_ 0.712556 0.273611 0.0648781 0.11455
H_ H_ 0.517878 0.213418 0.122579 0.11455
H_ H_ 0.500175 0.203363 0.173454 0.11455
H_ H_ 0.764103 0.160456 0.143701 0.11455
H_ H_ 0.746798 0.146302 0.192034 0.11455
H_ H_ 0.546015 0.0998537 0.247332 0.11455
H_ H_ 0.528567 0.0691559 0.297505 0.11455
H_ H_ 0.567038 0.106129 0.337855 0.11455
H_ H_ 0.654402 0.239575 0.259772 0.11455
H_ H_ 0.687341 0.284905 0.304812 0.11455
H_ H_ 0.675019 0.249954 0.350085 0.11455
H_ H_ 0.690177 0.295397 0.196026 0.11455
H_ H_ 0.620292 0.325042 0.0990536 0.11455
H_ H_ 0.709685 0.327366 0.106708 0.11455
H_ H_ 0.60264 0.300784 0.215482 0.11455
H_ H_ 0.513025 0.320392 0.210617 0.11455
H_ H_ 0.532924 0.340227 0.120163 0.11455
H_ H_ 0.845208 0.482384 0.193192 0.11455
H_ H_ 0.911739 0.060509 0.103375 0.11455
H_ H_ 0.908179 0.460721 0.110093 0.11455
H_ H_ 0.851547 0.0619902 0.21527 0.11455
H_ H_ 0.86307 0.156806 0.214127 0.11455
H_ H_ 0.884594 0.142533 0.121791 0.11455
H_ H_ 0.911751 0.386157 0.218893 0.11455
H_ H_ 0.929304 0.4151 0.266554 0.11455
H_ H_ 0.875987 0.376603 0.30628 0.11455
H_ H_ 0.803016 0.244941 0.224169 0.11455
H_ H_ 0.771648 0.194404 0.263492 0.11455
H_ H_ 0.791533 0.217659 0.314132 0.11455
H_ H_ 0.980578 0.316143 0.371675 0.11455
H_ H_ -0.008438999999999974 0.305245 0.422207 0.11455
H_ H_ 0.732262 0.315208 0.39048 0.11455
H_ H_ 0.746251 0.309752 0.44367 0.11455
H_ H_ 0.917509 0.40602 0.500102 0.11455
H_ H_ 0.96294 0.425942 0.0500757 0.11455
H_ H_ 0.916922 0.380405 0.0891338 0.11455
H_ H_ 0.86873 0.233888 0.00900693 0.11455
H_ H_ 0.823962 0.190839 0.0504667 0.11455
H_ H_ 0.814929 0.23529 0.0969918 0.11455
C_ C_ 0.719529 0.187461 0.408704 0.68181
C_ C_ 0.775888 0.18732 0.404002 -0.05681
C_ C_ 0.807052 0.187584 0.426806 -0.08735
C_ C_ 0.859686 0.18194 0.421353 -0.05681
C_ C_ 0.878973 0.182797 0.392647 -0.05681
C_ C_ 0.846348 0.17959 0.370691 -0.08735
C_ C_ 0.794687 0.180544 0.374883 -0.08735
C_ C_ 0.893367 0.177024 0.444719 -0.08735
C_ C_ 0.944858 0.182454 0.439955 -0.08735
C_ C_ 0.964903 0.181579 0.411844 -0.05681
C_ C_ 0.932735 0.181219 0.388225 -0.08735
C_ C_ 0.607504 0.282606 0.415236 0.68181
C_ C_ 0.630264 0.0826899 0.406239 0.68181
C_ C_ 0.629611 0.0265098 0.403566 -0.05681
C_ C_ 0.641708 0.495284 0.422575 -0.08735
C_ C_ 0.630246 0.443864 0.420847 -0.05681
C_ C_ 0.610401 0.421391 0.395693 -0.05681
C_ C_ 0.604567 0.450919 0.371089 -0.08735
C_ C_ 0.611574 0.503314 0.373513 -0.08735
C_ C_ 0.642531 0.411767 0.442322 -0.08735
C_ C_ 0.632445 0.359432 0.441552 -0.08735
C_ C_ 0.609411 0.337491 0.416201 -0.05681
C_ C_ 0.59493 0.369555 0.394448 -0.08735
C_ C_ 0.520391 0.166008 0.412504 0.68181
C_ C_ 0.591868 0.129494 0.486864 0.1947
C_ C_ 0.601199 0.104696 0.0143873 -0.08735
C_ C_ 0.616116 0.137216 0.0358899 -0.08735
C_ C_ 0.64474 0.180801 0.0309113 -0.05681
C_ C_ 0.654932 0.194757 1.00245025 0.18498
C_ C_ 0.675003 0.242648 0.495556 -0.08735
C_ C_ 0.716359 0.25591 0.0211846 -0.08735
C_ C_ 0.701901 0.246762 0.0487043 -0.08735
C_ C_ 0.664684 0.208427 0.0541574 0.18498
C_ C_ 0.692959 0.183378 0.101825 0.44287
C_ C_ 0.605004 0.20285 0.0942496 0.44287
C_ C_ 0.594863 0.18939 0.123066 -0.05681
C_ C_ 0.547385 0.195517 0.135235 -0.08735
C_ C_ 0.538175 0.195041 0.165166 -0.08735
C_ C_ 0.576951 0.186593 0.183656 -0.05681
C_ C_ 0.627674 0.181153 0.173222 -0.05681
C_ C_ 0.634734 0.182245 0.142098 -0.05681
C_ C_ 0.683759 0.173648 0.130869 -0.05681
C_ C_ 0.724953 0.169019 0.150208 -0.08735
C_ C_ 0.714556 0.159115 0.179965 -0.08735
C_ C_ 0.665708 0.166159 0.191796 -0.05681
C_ C_ 0.654039 0.16059 0.220435 0.44287
C_ C_ 0.570472 0.186991 0.213438 0.44287
C_ C_ 0.594818 0.158162 0.261163 0.18498
C_ C_ 0.562569 0.119565 0.265973 -0.08735
C_ C_ 0.551871 0.101246 0.293999 -0.08735
C_ C_ 0.575518 0.123181 0.316823 -0.08735
C_ C_ 0.608169 0.166088 0.313302 0.18498
C_ C_ 0.618147 0.181873 0.284239 -0.05681
C_ C_ 0.646644 0.225106 0.281077 -0.08735
C_ C_ 0.666748 0.250124 0.305397 -0.08735
C_ C_ 0.656939 0.231394 0.332507 0.1947
C_ C_ 0.761003 0.309634 0.15619 0.68181
C_ C_ 0.70671 0.308937 0.151943 -0.05681
C_ C_ 0.672891 0.305852 0.175706 -0.08735
C_ C_ 0.621066 0.312108 0.171295 -0.05681
C_ C_ 0.600967 0.320334 0.144259 -0.05681
C_ C_ 0.634376 0.320711 0.120125 -0.08735
C_ C_ 0.685771 0.319871 0.124549 -0.08735
C_ C_ 0.588013 0.31322 0.195118 -0.08735
C_ C_ 0.537027 0.3227 0.191781 -0.08735
C_ C_ 0.514916 0.322654 0.163968 -0.05681
C_ C_ 0.548931 0.328563 0.14118 -0.08735
C_ C_ 0.871562 0.213799 0.163999 0.68181
C_ C_ 0.865689 0.410817 0.15279 0.68181
C_ C_ 0.870246 0.466417 0.151128 -0.05681
C_ C_ 0.8584 -0.003932999999999964 0.171615 -0.08735
C_ C_ 0.861102 0.049129 0.170305 -0.05681
C_ C_ 0.87574 0.0707857 0.143983 -0.05681
C_ C_ 0.893308 0.0407983 0.121567 -0.08735
C_ C_ 0.894609 0.486577 0.126433 -0.08735
C_ C_ 0.858308 0.0805669 0.195585 -0.08735
C_ C_ 0.864632 0.133203 0.194067 -0.08735
C_ C_ 0.871135 0.156595 0.166786 -0.05681
C_ C_ 0.876258 0.124627 0.141954 -0.08735
C_ C_ 0.958192 0.316036 0.159478 0.68181
C_ C_ 0.890104 0.369477 0.235712 0.1947
C_ C_ 0.897947 0.386725 0.262594 -0.08735
C_ C_ 0.873012 0.362623 0.285005 -0.08735
C_ C_ 0.844864 0.318869 0.280358 -0.05681
C_ C_ 0.836776 0.30212 0.251547 0.18498
C_ C_ 0.810444 0.257393 0.245762 -0.08735
C_ C_ 0.793515 0.228202 0.267943 -0.08735
C_ C_ 0.805915 0.240822 0.297231 -0.08735
C_ C_ 0.831271 0.286702 0.303417 0.18498
C_ C_ 0.80309 0.304088 0.351011 0.44287
C_ C_ 0.891913 0.295646 0.342912 0.44287
C_ C_ 0.90183 0.306612 0.37188 -0.05681
C_ C_ 0.949105 0.307732 0.383987 -0.08735
C_ C_ 0.955958 0.308473 0.414841 -0.08735
C_ C_ 0.915585 0.313823 0.433051 -0.05681
C_ C_ 0.866762 0.318119 0.421036 -0.05681
C_ C_ 0.859281 0.314156 0.390983 -0.05681
C_ C_ 0.810006 0.311535 0.380336 -0.05681
C_ C_ 0.770508 0.314897 0.399091 -0.08735
C_ C_ 0.776626 0.318696 0.428735 -0.08735
C_ C_ 0.825717 0.319446 0.440712 -0.05681
C_ C_ 0.834747 0.316459 0.471298 0.44287
C_ C_ 0.921888 0.317216 0.462821 0.44287
C_ C_ 0.907165 0.330276 0.0104878 0.18498
C_ C_ 0.938242 0.37279 0.0170623 -0.08735
C_ C_ 0.940798 0.392108 0.045157 -0.08735
C_ C_ 0.914286 0.367052 0.0668363 -0.08735
C_ C_ 0.885738 0.321582 0.0626476 0.18498
C_ C_ 0.88494 0.301172 0.0334348 -0.05681
C_ C_ 0.863514 0.252906 0.0292877 -0.08735
C_ C_ 0.839665 0.228299 0.05203 -0.08735
C_ C_ 0.834506 0.254921 0.0784019 0.1947
N_ N_ 0.621579 0.171283 0.480926 -0.29468
N_ N_ 0.653585 0.193778 0.0833802 -0.17154
N_ N_ 0.607746 0.172323 0.231556 -0.17154
N_ N_ 0.620714 0.194845 0.335625 -0.29468
N_ N_ 0.857826 0.329984 0.229762 -0.29468
N_ N_ 0.84318 0.29539 0.333059 -0.17154
N_ N_ 0.884245 0.316685 0.481446 -0.17154
N_ N_ 0.863481 0.296092 0.0847596 -0.29468
O_ O_ 0.699336 0.188917 0.433427 -0.58347
O_ O_ 0.692403 0.185951 0.386456 -0.58347
O_ O_ 0.605575 0.255781 0.43783 -0.58347
O_ O_ 0.609281 0.259059 0.391211 -0.58347
O_ O_ 0.626829 0.104022 0.430215 -0.58347
O_ O_ 0.621676 0.108651 0.38355 -0.58347
O_ O_ 0.549757 0.166135 0.43405 -0.58347
O_ O_ 0.540948 0.174204 0.387411 -0.58347
O_ O_ 0.567508 0.218059 0.0767776 -0.46727
O_ O_ 0.73866 0.181185 0.0922588 -0.46727
O_ O_ 0.52388 0.194208 0.223992 -0.46727
O_ O_ 0.689226 0.142079 0.237068 -0.46727
O_ O_ 0.780106 0.316192 0.180943 -0.58347
O_ O_ 0.790118 0.302109 0.135315 -0.58347
O_ O_ 0.864585 0.239244 0.18664 -0.58347
O_ O_ 0.867668 0.235262 0.140951 -0.58347
O_ O_ 0.859216 0.390246 0.177048 -0.58347
O_ O_ 0.859289 0.385647 0.129543 -0.58347
O_ O_ 0.931203 0.316441 0.182893 -0.58347
O_ O_ 0.936961 0.322291 0.135338 -0.58347
O_ O_ 0.928271 0.288789 0.324221 -0.46727
O_ O_ 0.756077 0.307364 0.34 -0.46727
O_ O_ 0.969403 0.314153 0.473167 -0.46727
O_ O_ 0.797205 0.321624 0.489981 -0.46727
Zn Zn 0.631216 0.183522 0.885846 0.90689
Zn Zn 0.640751 0.17989 0.932282 0.90689
Zn Zn 0.869546 0.314514 0.631422 0.90689
Zn Zn 0.86542 0.31882 0.681029 0.90689
H_ H_ 0.807489 0.187871 0.949486 0.11455
H_ H_ 0.874881 0.16534 0.85107 0.11455
H_ H_ 0.785242 0.159747 0.859149 0.11455
H_ H_ 0.896196 0.19001 0.968433 0.11455
H_ H_ 0.98795 0.180175 0.958806 0.11455
H_ H_ 0.959004 0.161136 0.8696 0.11455
H_ H_ 0.62925 0.0110428 0.94472 0.11455
H_ H_ 0.678345 0.430799 0.852363 0.11455
H_ H_ 0.664119 0.0269546 0.854337 0.11455
H_ H_ 0.63339 0.435696 0.966604 0.11455
H_ H_ 0.633481 0.341316 0.965736 0.11455
H_ H_ 0.658271 0.346433 0.876307 0.11455
H_ H_ 0.592327 0.101987 0.968768 0.11455
H_ H_ 0.567135 0.0736636 0.519492 0.11455
H_ H_ 0.606755 0.122961 0.558204 0.11455
H_ H_ 0.696983 0.24835 0.975779 0.11455
H_ H_ 0.71649 0.307901 0.512166 0.11455
H_ H_ 0.687502 0.287495 0.562448 0.11455
H_ H_ 0.529519 0.23697 0.633374 0.11455
H_ H_ 0.528782 0.233982 0.684012 0.11455
H_ H_ 0.763963 0.143081 0.632218 0.11455
H_ H_ 0.754432 0.11963 0.680641 0.11455
H_ H_ 0.596838 0.0849743 0.749678 0.11455
H_ H_ 0.570144 0.0635367 0.799598 0.11455
H_ H_ 0.566166 0.131061 0.836653 0.11455
H_ H_ 0.68932 0.237871 0.762353 0.11455
H_ H_ 0.711609 0.290307 0.804131 0.11455
H_ H_ 0.694532 0.256933 0.853299 0.11455
H_ H_ 0.697585 0.325251 0.696278 0.11455
H_ H_ 0.624789 0.343222 0.599473 0.11455
H_ H_ 0.717245 0.335107 0.605818 0.11455
H_ H_ 0.607276 0.317001 0.715889 0.11455
H_ H_ 0.518949 0.334053 0.710109 0.11455
H_ H_ 0.538723 0.354455 0.620405 0.11455
H_ H_ 0.880036 0.49072 0.689867 0.11455
H_ H_ 0.928315 0.0669512 0.602008 0.11455
H_ H_ 0.854573 0.475494 0.598838 0.11455
H_ H_ 0.875784 0.073903 0.716022 0.11455
H_ H_ 0.859416 0.163119 0.70829 0.11455
H_ H_ 0.901487 0.150403 0.619974 0.11455
H_ H_ 0.921522 0.392872 0.718578 0.11455
H_ H_ 0.916758 0.427663 0.768144 0.11455
H_ H_ 0.892402 0.373849 0.806996 0.11455
H_ H_ 0.810653 0.247981 0.724792 0.11455
H_ H_ 0.787676 0.19307 0.762991 0.11455
H_ H_ 0.805457 0.218563 0.815078 0.11455
H_ H_ 0.999634 0.291942 0.871594 0.11455
H_ H_ 0.0135054 0.29814 0.9216 0.11455
H_ H_ 0.746695 0.322289 0.893958 0.11455
H_ H_ 0.765463 0.346436 0.942264 0.11455
H_ H_ 0.957001 0.391446 1.000563069 0.11455
H_ H_ 0.93836 0.436981 0.546899 0.11455
H_ H_ 0.91149 0.383907 0.587763 0.11455
H_ H_ 0.852275 0.232876 0.511039 0.11455
H_ H_ 0.81557 0.193052 0.553442 0.11455
H_ H_ 0.816327 0.234802 0.597347 0.11455
C_ C_ 0.735635 0.181042 0.909297 0.68181
C_ C_ 0.790977 0.174826 0.905716 -0.05681
C_ C_ 0.822629 0.18339 0.927628 -0.08735
C_ C_ 0.87623 0.180716 0.924039 -0.05681
C_ C_ 0.895313 0.172711 0.896289 -0.05681
C_ C_ 0.861865 0.168858 0.873222 -0.08735
C_ C_ 0.809955 0.166428 0.877602 -0.08735
C_ C_ 0.91051 0.185061 0.946349 -0.08735
C_ C_ 0.96291 0.173763 0.941385 -0.08735
C_ C_ 0.981461 0.166142 0.91383 -0.05681
C_ C_ 0.947282 0.171186 0.890751 -0.08735
C_ C_ 0.633912 0.279232 0.918082 0.68181
C_ C_ 0.638262 0.0839148 0.900582 0.68181
C_ C_ 0.641791 0.0281876 0.898735 -0.05681
C_ C_ 0.643177 0.495991 0.923674 -0.08735
C_ C_ 0.64737 0.443582 0.923159 -0.05681
C_ C_ 0.652295 0.418171 0.895794 -0.05681
C_ C_ 0.66646 0.448469 0.871675 -0.08735
C_ C_ 0.668147 0.500888 0.87365 -0.08735
C_ C_ 0.64003 0.414392 0.947927 -0.08735
C_ C_ 0.636413 0.362211 0.946753 -0.08735
C_ C_ 0.635737 0.336846 0.919367 -0.05681
C_ C_ 0.646126 0.364798 0.894596 -0.08735
C_ C_ 0.536174 0.183903 0.907394 0.68181
C_ C_ 0.609942 0.122372 0.986327 0.1947
C_ C_ 0.587929 0.110616 0.514564 -0.08735
C_ C_ 0.60973 0.138909 0.537099 -0.08735
C_ C_ 0.639428 0.181648 0.531477 -0.05681
C_ C_ 0.648157 0.19651 0.502756 0.18498
C_ C_ 0.692447 0.232981 0.997412 -0.08735
C_ C_ 0.694135 0.271785 0.517634 -0.08735
C_ C_ 0.678329 0.261593 0.545204 -0.08735
C_ C_ 0.656301 0.215445 0.553525 0.18498
C_ C_ 0.693382 0.187747 0.597745 0.44287
C_ C_ 0.607175 0.210206 0.598252 0.44287
C_ C_ 0.605011 0.208255 0.628626 -0.05681
C_ C_ 0.560133 0.218176 0.643577 -0.08735
C_ C_ 0.560058 0.218226 0.673411 -0.08735
C_ C_ 0.603015 0.201128 0.687858 -0.05681
C_ C_ 0.645223 0.184495 0.672516 -0.05681
C_ C_ 0.648417 0.19318 0.642893 -0.05681
C_ C_ 0.693116 0.179724 0.627193 -0.05681
C_ C_ 0.733184 0.157729 0.64332 -0.08735
C_ C_ 0.725062 0.140641 0.670765 -0.08735
C_ C_ 0.683907 0.157424 0.687546 -0.05681
C_ C_ 0.679862 0.148795 0.718036 0.44287
C_ C_ 0.604743 0.197155 0.719297 0.44287
C_ C_ 0.630873 0.156342 0.762766 0.18498
C_ C_ 0.605204 0.11 0.767374 -0.08735
C_ C_ 0.58915 0.0992426 0.795372 -0.08735
C_ C_ 0.594439 0.133811 0.818114 -0.08735
C_ C_ 0.627974 0.175476 0.814713 0.18498
C_ C_ 0.642032 0.190106 0.78599 -0.05681
C_ C_ 0.668137 0.23468 0.782156 -0.08735
C_ C_ 0.687276 0.257496 0.806425 -0.08735
C_ C_ 0.674627 0.242358 0.834211 0.1947
C_ C_ 0.770741 0.324356 0.656296 0.68181
C_ C_ 0.714987 0.328133 0.651711 -0.05681
C_ C_ 0.680775 0.332465 0.675375 -0.08735
C_ C_ 0.628026 0.339379 0.672381 -0.05681
C_ C_ 0.607008 0.344409 0.645823 -0.05681
C_ C_ 0.639894 0.342147 0.622026 -0.08735
C_ C_ 0.692422 0.335353 0.624638 -0.08735
C_ C_ 0.593834 0.333558 0.69582 -0.08735
C_ C_ 0.542381 0.338477 0.691921 -0.08735
C_ C_ 0.5227 0.343375 0.66344 -0.05681
C_ C_ 0.555222 0.348318 0.640962 -0.08735
C_ C_ 0.876217 0.221074 0.659953 0.68181
C_ C_ 0.863011 0.416274 0.650156 0.68181
C_ C_ 0.865913 0.473309 0.645313 -0.05681
C_ C_ 0.889619 0.0059498 0.673287 -0.08735
C_ C_ 0.88858 0.0578229 0.67092 -0.05681
C_ C_ 0.896548 0.0811833 0.644359 -0.05681
C_ C_ 0.909751 0.0510388 0.620574 -0.08735
C_ C_ 0.859521 0.495543 0.618886 -0.08735
C_ C_ 0.881741 0.0877606 0.694414 -0.08735
C_ C_ 0.872225 0.141196 0.691003 -0.08735
C_ C_ 0.883586 0.164412 0.663836 -0.05681
C_ C_ 0.893649 0.135374 0.641035 -0.08735
C_ C_ 0.965438 0.324498 0.654368 0.68181
C_ C_ 0.900856 0.371646 0.735229 0.1947
C_ C_ 0.907833 0.388655 0.76287 -0.08735
C_ C_ 0.888635 0.359917 0.78545 -0.08735
C_ C_ 0.864073 0.313794 0.779909 -0.05681
C_ C_ 0.853396 0.299707 0.750859 0.18498
C_ C_ 0.818553 0.259196 0.746393 -0.08735
C_ C_ 0.807299 0.227788 0.768692 -0.08735
C_ C_ 0.81907 0.23994 0.796543 -0.08735
C_ C_ 0.847048 0.28367 0.802402 0.18498
C_ C_ 0.819433 0.310904 0.850508 0.44287
C_ C_ 0.906534 0.287219 0.843491 0.44287
C_ C_ 0.915959 0.297864 0.872562 -0.05681
C_ C_ 0.965007 0.298042 0.884444 -0.08735
C_ C_ 0.973282 0.304454 0.913967 -0.08735
C_ C_ 0.931587 0.309675 0.932541 -0.05681
C_ C_ 0.884334 0.317203 0.92073 -0.05681
C_ C_ 0.875306 0.307822 0.890795 -0.05681
C_ C_ 0.82648 0.312898 0.879725 -0.05681
C_ C_ 0.785144 0.322546 0.899804 -0.08735
C_ C_ 0.79622 0.33456 0.928406 -0.08735
C_ C_ 0.842895 0.325725 0.939529 -0.05681
C_ C_ 0.851535 0.323856 0.96959 0.44287
C_ C_ 0.939249 0.311847 0.962713 0.44287
C_ C_ 0.893101 0.331975 0.511393 0.18498
C_ C_ 0.913444 0.380553 0.517041 -0.08735
C_ C_ 0.925725 0.398904 0.5444 -0.08735
C_ C_ 0.90596 0.370492 0.567483 -0.08735
C_ C_ 0.885069 0.32037 0.563265 0.18498
C_ C_ 0.879131 0.301861 0.534937 -0.05681
C_ C_ 0.858749 0.250742 0.531207 -0.08735
C_ C_ 0.836115 0.227749 0.554408 -0.08735
C_ C_ 0.83865 0.251136 0.58037 0.1947
N_ N_ 0.638066 0.164947 0.980268 -0.29468
N_ N_ 0.652268 0.205409 0.584268 -0.17154
N_ N_ 0.64134 0.169342 0.732713 -0.17154
N_ N_ 0.644162 0.201322 0.838656 -0.29468
N_ N_ 0.872427 0.32805 0.728527 -0.29468
N_ N_ 0.858642 0.295395 0.83288 -0.17154
N_ N_ 0.897671 0.315794 0.980331 -0.17154
N_ N_ 0.863283 0.294534 0.585646 -0.29468
O_ O_ 0.714616 0.176634 0.933999 -0.58347
O_ O_ 0.707472 0.184528 0.888125 -0.58347
O_ O_ 0.633404 0.25324 0.940167 -0.58347
O_ O_ 0.63151 0.256488 0.894053 -0.58347
O_ O_ 0.640545 0.105149 0.924396 -0.58347
O_ O_ 0.637366 0.111666 0.87825 -0.58347
O_ O_ 0.563707 0.18004 0.929599 -0.58347
O_ O_ 0.555963 0.185021 0.882376 -0.58347
O_ O_ 0.567364 0.220307 0.583247 -0.46727
O_ O_ 0.735382 0.175936 0.5839 -0.46727
O_ O_ 0.574446 0.225943 0.73366 -0.46727
O_ O_ 0.714063 0.119903 0.730993 -0.46727
O_ O_ 0.790042 0.329307 0.680568 -0.58347
O_ O_ 0.7969 0.30163 0.637058 -0.58347
O_ O_ 0.85481 0.245656 0.680018 -0.58347
O_ O_ 0.892579 0.242117 0.636785 -0.58347
O_ O_ 0.869895 0.396808 0.674648 -0.58347
O_ O_ 0.852414 0.38713 0.629418 -0.58347
O_ O_ 0.939758 0.313266 0.676798 -0.58347
O_ O_ 0.943354 0.33647 0.631538 -0.58347
O_ O_ 0.941247 0.268081 0.827031 -0.46727
O_ O_ 0.777011 0.322139 0.838615 -0.46727
O_ O_ 0.985316 0.308818 0.974441 -0.46727
O_ O_ 0.813158 0.337187 0.986287 -0.46727
Zn Zn 0.61861 0.682401 0.383959 0.90689
Zn Zn 0.633293 0.675039 0.43058 0.90689
Zn Zn 0.870046 0.805911 0.129928 0.90689
Zn Zn 0.859232 0.816331 0.17817 0.90689
H_ H_ 0.797812 0.680496 0.44476 0.11455
H_ H_ 0.866196 0.71033 0.346978 0.11455
H_ H_ 0.774121 0.698355 0.352363 0.11455
H_ H_ 0.878696 0.674125 0.462428 0.11455
H_ H_ 0.971408 0.673201 0.456564 0.11455
H_ H_ 0.951293 0.699735 0.3641 0.11455
H_ H_ 0.648915 0.510916 0.44301 0.11455
H_ H_ 0.632743 0.933829 0.353865 0.11455
H_ H_ 0.610863 0.5271 0.353828 0.11455
H_ H_ 0.596435 0.923379 0.468528 0.11455
H_ H_ 0.596665 0.829715 0.461623 0.11455
H_ H_ 0.618545 0.854002 0.373465 0.11455
H_ H_ 0.582052 0.598693 0.465001 0.11455
H_ H_ 0.57411 0.578503 0.0110656 0.11455
H_ H_ 0.628586 0.609186 0.0531914 0.11455
H_ H_ 0.694615 0.73875 0.474147 0.11455
H_ H_ 0.72792 0.803181 0.0197769 0.11455
H_ H_ 0.709608 0.773763 0.0675694 0.11455
H_ H_ 0.515219 0.697702 0.119442 0.11455
H_ H_ 0.504004 0.684313 0.172275 0.11455
H_ H_ 0.764273 0.670261 0.143565 0.11455
H_ H_ 0.749557 0.657773 0.192658 0.11455
H_ H_ 0.567368 0.587109 0.249555 0.11455
H_ H_ 0.541665 0.563493 0.298074 0.11455
H_ H_ 0.561601 0.619831 0.338176 0.11455
H_ H_ 0.644667 0.749156 0.258629 0.11455
H_ H_ 0.669371 0.803954 0.300403 0.11455
H_ H_ 0.66255 0.77129 0.347819 0.11455
H_ H_ 0.693758 0.802757 0.195605 0.11455
H_ H_ 0.630782 0.844359 0.100018 0.11455
H_ H_ 0.718259 0.822234 0.107424 0.11455
H_ H_ 0.605527 0.797059 0.215956 0.11455
H_ H_ 0.513155 0.810649 0.210243 0.11455
H_ H_ 0.53634 0.83736 0.119237 0.11455
H_ H_ 0.850709 0.977407 0.191926 0.11455
H_ H_ 0.912099 0.553062 0.102842 0.11455
H_ H_ 0.886333 0.968197 0.101962 0.11455
H_ H_ 0.829132 0.569754 0.21222 0.11455
H_ H_ 0.839462 0.659207 0.208615 0.11455
H_ H_ 0.904812 0.640494 0.124553 0.11455
H_ H_ 0.912129 0.896349 0.211096 0.11455
H_ H_ 0.915561 0.939738 0.259936 0.11455
H_ H_ 0.857952 0.904934 0.297008 0.11455
H_ H_ 0.813215 0.751654 0.222762 0.11455
H_ H_ 0.773088 0.711044 0.264012 0.11455
H_ H_ 0.791915 0.74208 0.312647 0.11455
H_ H_ 0.983409 0.800252 0.364487 0.11455
H_ H_ 0.0016300000000000203 0.804994 0.414783 0.11455
H_ H_ 0.740068 0.863134 0.390987 0.11455
H_ H_ 0.758099 0.869814 0.441721 0.11455
H_ H_ 0.959956 0.905656 0.496747 0.11455
H_ H_ 0.950647 0.928374 0.0428941 0.11455
H_ H_ 0.917822 0.879535 0.0848234 0.11455
H_ H_ 0.844385 0.740663 0.00544837 0.11455
H_ H_ 0.816256 0.693537 0.0475568 0.11455
H_ H_ 0.814828 0.733618 0.0943781 0.11455
C_ C_ 0.722083 0.683119 0.404334 0.68181
C_ C_ 0.778145 0.69071 0.39921 -0.05681
C_ C_ 0.810643 0.688952 0.42218 -0.08735
C_ C_ 0.862305 0.691258 0.418896 -0.05681
C_ C_ 0.883016 0.696402 0.391081 -0.05681
C_ C_ 0.850241 0.703387 0.367545 -0.08735
C_ C_ 0.798717 0.698529 0.370853 -0.08735
C_ C_ 0.894939 0.682592 0.441576 -0.08735
C_ C_ 0.947059 0.677506 0.437317 -0.08735
C_ C_ 0.96963 0.682993 0.408947 -0.05681
C_ C_ 0.935031 0.692318 0.386621 -0.08735
C_ C_ 0.612901 0.778866 0.412901 0.68181
C_ C_ 0.634591 0.582069 0.401299 0.68181
C_ C_ 0.628233 0.526983 0.398693 -0.05681
C_ C_ 0.615114 0.995139 0.428081 -0.08735
C_ C_ 0.610089 0.942334 0.425114 -0.05681
C_ C_ 0.620659 0.920325 0.39776 -0.05681
C_ C_ 0.628796 0.951638 0.373673 -0.08735
C_ C_ 0.640873 1.00318018 0.378227 -0.08735
C_ C_ 0.608261 0.909799 0.448234 -0.08735
C_ C_ 0.609112 0.856302 0.444921 -0.08735
C_ C_ 0.617601 0.835334 0.418156 -0.05681
C_ C_ 0.617167 0.868012 0.394559 -0.08735
C_ C_ 0.527045 0.671104 0.409213 0.68181
C_ C_ 0.594723 0.623493 0.482471 0.1947
C_ C_ 0.602173 0.608883 0.00967935 -0.08735
C_ C_ 0.627795 0.629567 0.0334337 -0.08735
C_ C_ 0.651435 0.677811 0.0308181 -0.05681
C_ C_ 0.661543 0.694746 1.00303138 0.18498
C_ C_ 0.681606 0.732155 0.495393 -0.08735
C_ C_ 0.708312 0.768849 0.0225367 -0.08735
C_ C_ 0.691915 0.754883 0.0500396 -0.08735
C_ C_ 0.667579 0.707856 0.0551084 0.18498
C_ C_ 0.693754 0.67959 0.101671 0.44287
C_ C_ 0.607273 0.699482 0.0943194 0.44287
C_ C_ 0.596968 0.687906 0.122896 -0.05681
C_ C_ 0.547652 0.692929 0.134283 -0.08735
C_ C_ 0.54079 0.691472 0.164868 -0.08735
C_ C_ 0.579534 0.684207 0.184357 -0.05681
C_ C_ 0.627419 0.679761 0.172431 -0.05681
C_ C_ 0.635543 0.67806 0.142683 -0.05681
C_ C_ 0.686644 0.677375 0.131998 -0.05681
C_ C_ 0.726368 0.671236 0.151424 -0.08735
C_ C_ 0.717946 0.667975 0.180259 -0.08735
C_ C_ 0.66894 0.671768 0.192318 -0.05681
C_ C_ 0.659352 0.668458 0.222665 0.44287
C_ C_ 0.57108 0.681082 0.21469 0.44287
C_ C_ 0.602229 0.658058 0.261515 0.18498
C_ C_ 0.577597 0.611911 0.26761 -0.08735
C_ C_ 0.561914 0.598889 0.294766 -0.08735
C_ C_ 0.577562 0.630094 0.3179 -0.08735
C_ C_ 0.606668 0.675045 0.313353 0.18498
C_ C_ 0.614514 0.691387 0.284948 -0.05681
C_ C_ 0.635863 0.739372 0.279866 -0.08735
C_ C_ 0.649022 0.768341 0.302531 -0.08735
C_ C_ 0.638744 0.752328 0.331185 0.1947
C_ C_ 0.765458 0.803907 0.155494 0.68181
C_ C_ 0.710896 0.809592 0.151475 -0.05681
C_ C_ 0.67891 0.810277 0.174627 -0.08735
C_ C_ 0.626452 0.815069 0.172179 -0.05681
C_ C_ 0.606035 0.824201 0.144181 -0.05681
C_ C_ 0.639797 0.82867 0.120046 -0.08735
C_ C_ 0.691148 0.817947 0.124466 -0.08735
C_ C_ 0.592063 0.811689 0.195508 -0.08735
C_ C_ 0.540322 0.816127 0.19098 -0.08735
C_ C_ 0.521202 0.8255 0.163406 -0.05681
C_ C_ 0.554605 0.831604 0.140701 -0.08735
C_ C_ 0.877357 0.711804 0.162235 0.68181
C_ C_ 0.857007 0.909535 0.148964 0.68181
C_ C_ 0.866173 0.965464 0.147774 -0.05681
C_ C_ 0.863465 0.499409 0.174669 -0.08735
C_ C_ 0.867302 0.551337 0.172665 -0.05681
C_ C_ 0.885816 0.571403 0.1474 -0.05681
C_ C_ 0.901675 0.538716 0.124486 -0.08735
C_ C_ 0.882019 0.988946 0.121692 -0.08735
C_ C_ 0.850534 0.583491 0.194622 -0.08735
C_ C_ 0.853595 0.634793 0.191369 -0.08735
C_ C_ 0.872016 0.65719 0.166072 -0.05681
C_ C_ 0.89421 0.624761 0.145908 -0.08735
C_ C_ 0.964186 0.825257 0.151069 0.68181
C_ C_ 0.89653 0.879471 0.229227 0.1947
C_ C_ 0.893217 0.907357 0.254557 -0.08735
C_ C_ 0.864546 0.884829 0.276704 -0.08735
C_ C_ 0.850795 0.833566 0.275211 -0.05681
C_ C_ 0.845946 0.812903 0.247438 0.18498
C_ C_ 0.818381 0.768303 0.243215 -0.08735
C_ C_ 0.799599 0.741106 0.267454 -0.08735
C_ C_ 0.805126 0.762887 0.294675 -0.08735
C_ C_ 0.830719 0.80725 0.2988 0.18498
C_ C_ 0.806478 0.83573 0.347489 0.44287
C_ C_ 0.893488 0.820637 0.337547 0.44287
C_ C_ 0.907012 0.827146 0.367123 -0.05681
C_ C_ 0.954755 0.809844 0.377757 -0.08735
C_ C_ 0.963875 0.813486 0.407114 -0.08735
C_ C_ 0.92499 0.81963 0.427047 -0.05681
C_ C_ 0.875749 0.834766 0.417218 -0.05681
C_ C_ 0.866321 0.835513 0.387151 -0.05681
C_ C_ 0.816416 0.84287 0.377088 -0.05681
C_ C_ 0.77855 0.855397 0.397305 -0.08735
C_ C_ 0.788823 0.857298 0.427903 -0.08735
C_ C_ 0.838154 0.844711 0.437051 -0.05681
C_ C_ 0.847218 0.845378 0.465692 0.44287
C_ C_ 0.933163 0.82264 0.457116 0.44287
C_ C_ 0.890218 0.831945 0.00689947 0.18498
C_ C_ 0.920537 0.876289 0.0118818 -0.08735
C_ C_ 0.929037 0.894821 0.0398379 -0.08735
C_ C_ 0.910559 0.867862 0.0636525 -0.08735
C_ C_ 0.878457 0.824836 0.0591205 0.18498
C_ C_ 0.870271 0.806138 0.0301185 -0.05681
C_ C_ 0.846942 0.758074 0.0262989 -0.08735
C_ C_ 0.827071 0.732284 0.0501728 -0.08735
C_ C_ 0.827291 0.757603 0.0767343 0.1947
N_ N_ 0.626619 0.66407 0.478089 -0.29468
N_ N_ 0.655156 0.693711 0.0840919 -0.17154
N_ N_ 0.610551 0.671336 0.23307 -0.17154
N_ N_ 0.620323 0.704894 0.335833 -0.29468
N_ N_ 0.866071 0.838513 0.224157 -0.29468
N_ N_ 0.844678 0.824738 0.328289 -0.17154
N_ N_ 0.894397 0.835525 0.476037 -0.17154
N_ N_ 0.858585 0.799436 0.0814554 -0.29468
O_ O_ 0.705971 0.678387 0.430181 -0.58347
O_ O_ 0.690616 0.690031 0.38416 -0.58347
O_ O_ 0.625807 0.751332 0.433766 -0.58347
O_ O_ 0.611251 0.758563 0.388906 -0.58347
O_ O_ 0.639222 0.601035 0.426417 -0.58347
O_ O_ 0.631617 0.609591 0.378876 -0.58347
O_ O_ 0.555796 0.669926 0.430894 -0.58347
O_ O_ 0.545991 0.67199 0.384534 -0.58347
O_ O_ 0.571964 0.716507 0.0773443 -0.46727
O_ O_ 0.739515 0.671858 0.0917445 -0.46727
O_ O_ 0.523557 0.677455 0.224853 -0.46727
O_ O_ 0.697306 0.654467 0.239146 -0.46727
O_ O_ 0.785911 0.809261 0.180017 -0.58347
O_ O_ 0.795618 0.800385 0.134436 -0.58347
O_ O_ 0.867433 0.742166 0.182312 -0.58347
O_ O_ 0.882657 0.730521 0.136444 -0.58347
O_ O_ 0.853639 0.887363 0.172451 -0.58347
O_ O_ 0.858179 0.882805 0.126444 -0.58347
O_ O_ 0.935207 0.826243 0.172526 -0.58347
O_ O_ 0.944578 0.816572 0.127454 -0.58347
O_ O_ 0.929239 0.814009 0.317403 -0.46727
O_ O_ 0.760496 0.835025 0.337305 -0.46727
O_ O_ 0.980774 0.813185 0.466544 -0.46727
O_ O_ 0.812621 0.860949 0.483479 -0.46727
Zn Zn 0.63772 0.680784 0.884428 0.90689
Zn Zn 0.647655 0.682353 0.931786 0.90689
Zn Zn 0.881733 0.817937 0.628879 0.90689
Zn Zn 0.871702 0.824136 0.678066 0.90689
H_ H_ 0.819358 0.705985 0.951921 0.11455
H_ H_ 0.880203 0.679674 0.851122 0.11455
H_ H_ 0.790147 0.690425 0.859677 0.11455
H_ H_ 0.905962 0.702215 0.968719 0.11455
H_ H_ 0.999226 0.689293 0.9596 0.11455
H_ H_ 0.964251 0.670232 0.869161 0.11455
H_ H_ 0.631758 0.515366 0.94299 0.11455
H_ H_ 0.65549 0.937954 0.849441 0.11455
H_ H_ 0.667292 0.519471 0.854932 0.11455
H_ H_ 0.617262 0.928177 0.964645 0.11455
H_ H_ 0.634312 0.837947 0.960364 0.11455
H_ H_ 0.636878 0.847529 0.868701 0.11455
H_ H_ 0.588473 0.614838 0.963583 0.11455
H_ H_ 0.566437 0.57284 0.512708 0.11455
H_ H_ 0.594028 0.62072 0.555226 0.11455
H_ H_ 0.702677 0.751811 0.978278 0.11455
H_ H_ 0.727899 0.788887 0.515456 0.11455
H_ H_ 0.703905 0.763597 0.564857 0.11455
H_ H_ 0.513251 0.703484 0.625675 0.11455
H_ H_ 0.503415 0.696922 0.675125 0.11455
H_ H_ 0.762167 0.677947 0.639812 0.11455
H_ H_ 0.754003 0.662775 0.692077 0.11455
H_ H_ 0.572539 0.584327 0.751486 0.11455
H_ H_ 0.545887 0.565978 0.801818 0.11455
H_ H_ 0.586411 0.612468 0.841747 0.11455
H_ H_ 0.655033 0.752542 0.762114 0.11455
H_ H_ 0.690454 0.799514 0.803287 0.11455
H_ H_ 0.677319 0.763596 0.851862 0.11455
H_ H_ 0.706221 0.817014 0.692415 0.11455
H_ H_ 0.632547 0.813393 0.594672 0.11455
H_ H_ 0.725066 0.81758 0.601128 0.11455
H_ H_ 0.618429 0.826733 0.713356 0.11455
H_ H_ 0.528794 0.820155 0.706711 0.11455
H_ H_ 0.550777 0.83427 0.615296 0.11455
H_ H_ 0.886919 0.989026 0.695216 0.11455
H_ H_ 0.844632 0.565185 0.595955 0.11455
H_ H_ 0.903163 0.976537 0.601955 0.11455
H_ H_ 0.890105 0.575332 0.7105 0.11455
H_ H_ 0.900407 0.668059 0.704074 0.11455
H_ H_ 0.871848 0.647974 0.614019 0.11455
H_ H_ 0.905731 0.90841 0.71589 0.11455
H_ H_ 0.925099 0.927231 0.765048 0.11455
H_ H_ 0.907957 0.865761 0.802977 0.11455
H_ H_ 0.822088 0.744979 0.718953 0.11455
H_ H_ 0.792799 0.693041 0.755486 0.11455
H_ H_ 0.809175 0.712786 0.805444 0.11455
H_ H_ 0.996864 0.799822 0.87151 0.11455
H_ H_ 1.00078819 0.795855 0.924671 0.11455
H_ H_ 0.740072 0.827962 0.884985 0.11455
H_ H_ 0.750268 0.816993 0.934409 0.11455
H_ H_ 0.933006 0.898106 0.993461 0.11455
H_ H_ 0.985877 0.924925 0.546395 0.11455
H_ H_ 0.949651 0.87458 0.586377 0.11455
H_ H_ 0.846983 0.760354 0.504873 0.11455
H_ H_ 0.81086 0.715229 0.54622 0.11455
H_ H_ 0.821108 0.752414 0.594703 0.11455
C_ C_ 0.741148 0.687191 0.910208 0.68181
C_ C_ 0.796979 0.694115 0.906931 -0.05681
C_ C_ 0.831753 0.69514 0.930414 -0.08735
C_ C_ 0.884649 0.686437 0.925207 -0.05681
C_ C_ 0.899791 0.68043 0.896061 -0.05681
C_ C_ 0.866468 0.684702 0.873131 -0.08735
C_ C_ 0.815065 0.686115 0.877984 -0.08735
C_ C_ 0.919119 0.689734 0.947394 -0.08735
C_ C_ 0.971423 0.68709 0.941333 -0.08735
C_ C_ 0.988341 0.678887 0.912608 -0.05681
C_ C_ 0.951425 0.673412 0.890466 -0.08735
C_ C_ 0.629399 0.777488 0.9136 0.68181
C_ C_ 0.651407 0.583317 0.900741 0.68181
C_ C_ 0.656918 0.526413 0.89985 -0.05681
C_ C_ 0.627113 -0.0024170000000000025 0.922441 -0.08735
C_ C_ 0.621596 0.942832 0.919429 -0.05681
C_ C_ 0.627743 0.920837 0.892483 -0.05681
C_ C_ 0.642447 0.953633 0.870151 -0.08735
C_ C_ 0.647141 0.00591079 0.871932 -0.08735
C_ C_ 0.615113 0.912524 0.943648 -0.08735
C_ C_ 0.620803 0.859634 0.941265 -0.08735
C_ C_ 0.624568 0.834372 0.915133 -0.05681
C_ C_ 0.63245 0.866105 0.889444 -0.08735
C_ C_ 0.542495 0.674866 0.903693 0.68181
C_ C_ 0.606478 0.633224 0.983114 0.1947
C_ C_ 0.585759 0.606349 0.510597 -0.08735
C_ C_ 0.605959 0.632602 0.533814 -0.08735
C_ C_ 0.636255 0.674699 0.529606 -0.05681
C_ C_ 0.647261 0.690827 0.500871 0.18498
C_ C_ 0.689183 0.741251 0.998885 -0.08735
C_ C_ 0.706076 0.755068 0.519471 -0.08735
C_ C_ 0.689563 0.741466 0.547536 -0.08735
C_ C_ 0.658223 0.700548 0.553742 0.18498
C_ C_ 0.689151 0.676093 0.599011 0.44287
C_ C_ 0.601146 0.689536 0.594441 0.44287
C_ C_ 0.592897 0.684272 0.625085 -0.05681
C_ C_ 0.546177 0.69314 0.637691 -0.08735
C_ C_ 0.541315 0.690347 0.667538 -0.08735
C_ C_ 0.582184 0.681748 0.685444 -0.05681
C_ C_ 0.630873 0.679474 0.672732 -0.05681
C_ C_ 0.636057 0.676941 0.642448 -0.05681
C_ C_ 0.684617 0.66879 0.629771 -0.05681
C_ C_ 0.725239 0.675446 0.649074 -0.08735
C_ C_ 0.720413 0.669563 0.678364 -0.08735
C_ C_ 0.672537 0.671971 0.690441 -0.05681
C_ C_ 0.665377 0.670589 0.720839 0.44287
C_ C_ 0.576704 0.673582 0.714666 0.44287
C_ C_ 0.611789 0.655378 0.762945 0.18498
C_ C_ 0.584287 0.611073 0.768768 -0.08735
C_ C_ 0.57236 0.598085 0.797605 -0.08735
C_ C_ 0.591826 0.627294 0.819918 -0.08735
C_ C_ 0.616333 0.673516 0.816161 0.18498
C_ C_ 0.62764 0.688015 0.786962 -0.05681
C_ C_ 0.651468 0.733598 0.78285 -0.08735
C_ C_ 0.673925 0.76083 0.80566 -0.08735
C_ C_ 0.66818 0.740365 0.833038 0.1947
C_ C_ 0.777706 0.818286 0.651137 0.68181
C_ C_ 0.724238 0.814489 0.647322 -0.05681
C_ C_ 0.690893 0.817814 0.67159 -0.08735
C_ C_ 0.638273 0.820374 0.668363 -0.05681
C_ C_ 0.617626 0.818442 0.640562 -0.05681
C_ C_ 0.64941 0.815486 0.616496 -0.08735
C_ C_ 0.701219 0.818213 0.620185 -0.08735
C_ C_ 0.605167 0.823654 0.692064 -0.08735
C_ C_ 0.554068 0.819812 0.687647 -0.08735
C_ C_ 0.531627 0.82427 0.65939 -0.05681
C_ C_ 0.564461 0.825689 0.636149 -0.08735
C_ C_ 0.884639 0.719949 0.656973 0.68181
C_ C_ 0.882649 0.918264 0.649239 0.68181
C_ C_ 0.897538 0.97454 0.648142 -0.05681
C_ C_ 0.876352 0.504456 0.668858 -0.08735
C_ C_ 0.877187 0.558032 0.665894 -0.05681
C_ C_ 0.86725 0.581121 0.639473 -0.05681
C_ C_ 0.854182 0.548589 0.616421 -0.08735
C_ C_ 0.907406 0.998783 0.621325 -0.08735
C_ C_ 0.891084 0.590172 0.689126 -0.08735
C_ C_ 0.895135 0.642508 0.685115 -0.08735
C_ C_ 0.883422 0.665827 0.658947 -0.05681
C_ C_ 0.876187 0.632459 0.634744 -0.08735
C_ C_ 0.977008 0.819529 0.654568 0.68181
C_ C_ 0.894223 0.878054 0.731854 0.1947
C_ C_ 0.90417 0.892993 0.760192 -0.08735
C_ C_ 0.891752 0.860607 0.782368 -0.08735
C_ C_ 0.864675 0.815799 0.775954 -0.05681
C_ C_ 0.855228 0.802226 0.746319 0.18498
C_ C_ 0.83028 0.757562 0.739653 -0.08735
C_ C_ 0.813341 0.725629 0.761901 -0.08735
C_ C_ 0.821358 0.739207 0.79066 -0.08735
C_ C_ 0.848346 0.783271 0.797731 0.18498
C_ C_ 0.816331 0.809326 0.843731 0.44287
C_ C_ 0.90406 0.792306 0.83978 0.44287
C_ C_ 0.913045 0.80224 0.869976 -0.05681
C_ C_ 0.9613 0.796649 0.883539 -0.08735
C_ C_ 0.965416 0.801137 0.913245 -0.08735
C_ C_ 0.921566 0.806796 0.93017 -0.05681
C_ C_ 0.876482 0.81906 0.916716 -0.05681
C_ C_ 0.871387 0.814073 0.886646 -0.05681
C_ C_ 0.821901 0.81637 0.873939 -0.05681
C_ C_ 0.778401 0.821615 0.891616 -0.08735
C_ C_ 0.785236 0.825543 0.921421 -0.08735
C_ C_ 0.831281 0.821692 0.934488 -0.05681
C_ C_ 0.836609 0.821164 0.964328 0.44287
C_ C_ 0.924498 0.807298 0.960979 0.44287
C_ C_ 0.907243 0.844377 0.505977 0.18498
C_ C_ 0.942049 0.883586 0.513997 -0.08735
C_ C_ 0.953386 0.896237 0.542762 -0.08735
C_ C_ 0.936055 0.86648 0.565572 -0.08735
C_ C_ 0.900892 0.828562 0.559106 0.18498
C_ C_ 0.889922 0.813972 0.529549 -0.05681
C_ C_ 0.856445 0.77353 0.525273 -0.08735
C_ C_ 0.833455 0.75049 0.549088 -0.08735
C_ C_ 0.843398 0.766339 0.576635 0.1947
N_ N_ 0.63792 0.673635 0.98 -0.29468
N_ N_ 0.648208 0.687331 0.583201 -0.17154
N_ N_ 0.61816 0.668735 0.732434 -0.17154
N_ N_ 0.639603 0.697895 0.837965 -0.29468
N_ N_ 0.875075 0.832201 0.724851 -0.29468
N_ N_ 0.857304 0.794252 0.827575 -0.17154
N_ N_ 0.88415 0.815464 0.97717 -0.17154
N_ N_ 0.881439 0.800509 0.580794 -0.29468
O_ O_ 0.721542 0.68756 0.93513 -0.58347
O_ O_ 0.712016 0.690276 0.888604 -0.58347
O_ O_ 0.640989 0.751354 0.934678 -0.58347
O_ O_ 0.626267 0.754412 0.889772 -0.58347
O_ O_ 0.651469 0.606334 0.923927 -0.58347
O_ O_ 0.647536 0.608186 0.87794 -0.58347
O_ O_ 0.570458 0.675056 0.926061 -0.58347
O_ O_ 0.561738 0.673799 0.879615 -0.58347
O_ O_ 0.563308 0.700447 0.577276 -0.46727
O_ O_ 0.733658 0.674451 0.587201 -0.46727
O_ O_ 0.530354 0.676201 0.725934 -0.46727
O_ O_ 0.705702 0.670498 0.7383 -0.46727
O_ O_ 0.795221 0.816222 0.677082 -0.58347
O_ O_ 0.806891 0.821024 0.629659 -0.58347
O_ O_ 0.881933 0.747882 0.678984 -0.58347
O_ O_ 0.878164 0.740685 0.633524 -0.58347
O_ O_ 0.864933 0.899455 0.671612 -0.58347
O_ O_ 0.889829 0.890222 0.627798 -0.58347
O_ O_ 0.947854 0.826773 0.675245 -0.58347
O_ O_ 0.959548 0.813321 0.629817 -0.58347
O_ O_ 0.943952 0.786112 0.823111 -0.46727
O_ O_ 0.771823 0.818048 0.831215 -0.46727
O_ O_ 0.970512 0.802629 0.972633 -0.46727
O_ O_ 0.797082 0.830295 0.979723 -0.46727
_cell_length_a 26.376
_cell_length_b 26.400000238300095
_cell_length_c 46.67800035477134
_cell_angle_alpha 90.00700052986613
_cell_angle_beta 89.99899961309502
_cell_angle_gamma 90.45000003183146
_symmetry_space_group_name_H-M         'P 1'
_symmetry_Int_Tables_number            1
loop_
_symmetry_equiv_pos_as_xyz
   'x, y, z'
                         
loop_
_atom_site_label
_atom_site_type_symbol
_atom_site_fract_x 
_atom_site_fract_y
_atom_site_fract_z
_atom_site_charge
Zn Zn 0.119182 0.192634 0.382585 0.90689
Zn Zn 0.126907 0.185683 0.4298 0.90689
Zn Zn 0.362092 0.312271 0.132437 0.90689
Zn Zn 0.355264 0.318527 0.180054 0.90689
H_ H_ 0.290317 0.195969 0.446798 0.11455
H_ H_ 0.361264 0.148681 0.352175 0.11455
H_ H_ 0.264069 0.150837 0.359375 0.11455
H_ H_ 0.374756 0.204727 0.464527 0.11455
H_ H_ 0.466917 0.196563 0.460386 0.11455
H_ H_ 0.445746 0.143673 0.373553 0.11455
H_ H_ 0.110709 0.0130215 0.440479 0.11455
H_ H_ 0.0699008 0.441412 0.353892 0.11455
H_ H_ 0.142982 0.0364597 0.353494 0.11455
H_ H_ 0.15783 0.432428 0.45957 0.11455
H_ H_ 0.150994 0.343735 0.456925 0.11455
H_ H_ 0.0814284 0.35544 0.373224 0.11455
H_ H_ 0.0720629 0.121412 0.463454 0.11455
H_ H_ 0.0680261 0.0559228 0.0130929 0.11455
H_ H_ 0.116187 0.0964583 0.0523333 0.11455
H_ H_ 0.192868 0.2524 0.473767 0.11455
H_ H_ 0.215584 0.285255 0.0159546 0.11455
H_ H_ 0.198305 0.256783 0.0649775 0.11455
H_ H_ 0.00932236 0.192539 0.119033 0.11455
H_ H_ -0.0039479999999999515 0.194902 0.171145 0.11455
H_ H_ 0.258467 0.153199 0.142154 0.11455
H_ H_ 0.24566 0.148417 0.191776 0.11455
H_ H_ 0.0371364 0.0936537 0.253031 0.11455
H_ H_ 0.0241761 0.0765359 0.301011 0.11455
H_ H_ 0.0592833 0.125839 0.339995 0.11455
H_ H_ 0.158561 0.228957 0.25642 0.11455
H_ H_ 0.202214 0.27412 0.295265 0.11455
H_ H_ 0.177159 0.261166 0.345594 0.11455
H_ H_ 0.186669 0.306509 0.195812 0.11455
H_ H_ 0.114359 0.325274 0.0981547 0.11455
H_ H_ 0.203973 0.326374 0.106257 0.11455
H_ H_ 0.101682 0.285275 0.213392 0.11455
H_ H_ 0.0077661 0.286009 0.203799 0.11455
H_ H_ 0.0299518 0.319774 0.116537 0.11455
H_ H_ 0.341805 0.487417 0.192573 0.11455
H_ H_ 0.384491 0.0626614 0.0970968 0.11455
H_ H_ 0.364245 0.471718 0.103261 0.11455
H_ H_ 0.339625 0.0700737 0.213581 0.11455
H_ H_ 0.334291 0.160162 0.209219 0.11455
H_ H_ 0.372215 0.151316 0.118544 0.11455
H_ H_ 0.390731 0.395218 0.214906 0.11455
H_ H_ 0.40773 0.427153 0.263253 0.11455
H_ H_ 0.381003 0.380626 0.3048 0.11455
H_ H_ 0.307447 0.242971 0.227904 0.11455
H_ H_ 0.298409 0.184356 0.268111 0.11455
H_ H_ 0.319893 0.207867 0.318344 0.11455
H_ H_ 0.483749 0.284411 0.376478 0.11455
H_ H_ 0.499363 0.296471 0.427177 0.11455
H_ H_ 0.235901 0.324732 0.387462 0.11455
H_ H_ 0.246028 0.324922 0.440774 0.11455
H_ H_ 0.425426 0.416897 0.497138 0.11455
H_ H_ 0.453866 0.426096 0.0512457 0.11455
H_ H_ 0.423955 0.372805 0.0898919 0.11455
H_ H_ 0.321136 0.261437 0.00481688 0.11455
H_ H_ 0.295108 0.208436 0.0461588 0.11455
H_ H_ 0.302172 0.238552 0.0957655 0.11455
C_ C_ 0.217879 0.186211 0.405969 0.68181
C_ C_ 0.27237 0.180272 0.403021 -0.05681
C_ C_ 0.305577 0.19206 0.424816 -0.08735
C_ C_ 0.357615 0.185569 0.421812 -0.05681
C_ C_ 0.379047 0.17055 0.395777 -0.05681
C_ C_ 0.345354 0.159613 0.37249 -0.08735
C_ C_ 0.292302 0.161927 0.375558 -0.08735
C_ C_ 0.391631 0.195012 0.444235 -0.08735
C_ C_ 0.444312 0.191824 0.441682 -0.08735
C_ C_ 0.46551 0.172962 0.416664 -0.05681
C_ C_ 0.432294 0.158948 0.39368 -0.08735
C_ C_ 0.113387 0.284525 0.411693 0.68181
C_ C_ 0.125238 0.0883471 0.401293 0.68181
C_ C_ 0.125899 0.0322656 0.396664 -0.05681
C_ C_ 0.127626 0.501552 0.423015 -0.08735
C_ C_ 0.116663 0.448481 0.421325 -0.05681
C_ C_ 0.100413 0.425751 0.394701 -0.05681
C_ C_ 0.0828828 0.458387 0.373386 -0.08735
C_ C_ 0.090447 0.510686 0.375241 -0.08735
C_ C_ 0.137355 0.415517 0.441848 -0.08735
C_ C_ 0.140637 0.363045 0.43714 -0.08735
C_ C_ 0.12016 0.340045 0.413242 -0.05681
C_ C_ 0.102891 0.371853 0.391275 -0.08735
C_ C_ 0.0206565 0.182763 0.407909 0.68181
C_ C_ 0.0969319 0.136395 0.481454 0.1947
C_ C_ 0.0958151 0.0873025 0.00885567 -0.08735
C_ C_ 0.118227 0.111964 0.0317991 -0.08735
C_ C_ 0.142221 0.159176 0.0275947 -0.05681
C_ C_ 0.147221 0.178114 0.999258 0.18498
C_ C_ 0.18956 0.235505 0.494795 -0.08735
C_ C_ 0.188362 0.253617 0.0196687 -0.08735
C_ C_ 0.183776 0.235323 0.0464197 -0.08735
C_ C_ 0.158459 0.190158 0.0517181 0.18498
C_ C_ 0.18907 0.168243 0.100604 0.44287
C_ C_ 0.100004 0.182486 0.0925596 0.44287
C_ C_ 0.0894729 0.176785 0.121853 -0.05681
C_ C_ 0.0411056 0.18404 0.133251 -0.08735
C_ C_ 0.0314629 0.181494 0.163515 -0.08735
C_ C_ 0.0714228 0.175666 0.182248 -0.05681
C_ C_ 0.121565 0.169608 0.17037 -0.05681
C_ C_ 0.129184 0.169476 0.14091 -0.05681
C_ C_ 0.180028 0.16315 0.130422 -0.05681
C_ C_ 0.220691 0.158763 0.149951 -0.08735
C_ C_ 0.209976 0.155592 0.179134 -0.08735
C_ C_ 0.160539 0.156694 0.189392 -0.05681
C_ C_ 0.150963 0.152077 0.219118 0.44287
C_ C_ 0.0670375 0.176747 0.212609 0.44287
C_ C_ 0.0955071 0.150156 0.259615 0.18498
C_ C_ 0.0567474 0.117456 0.266995 -0.08735
C_ C_ 0.0468407 0.107076 0.295683 -0.08735
C_ C_ 0.069007 0.133233 0.318703 -0.08735
C_ C_ 0.108238 0.166264 0.312878 0.18498
C_ C_ 0.117651 0.177906 0.282737 -0.05681
C_ C_ 0.151741 0.217119 0.277938 -0.08735
C_ C_ 0.175971 0.246146 0.300106 -0.08735
C_ C_ 0.161921 0.236025 0.328218 0.1947
C_ C_ 0.26101 0.310145 0.154392 0.68181
C_ C_ 0.204774 0.306891 0.150035 -0.05681
C_ C_ 0.172279 0.303898 0.17327 -0.08735
C_ C_ 0.119155 0.301894 0.168288 -0.05681
C_ C_ 0.0982716 0.307182 0.140656 -0.05681
C_ C_ 0.131107 0.312948 0.118726 -0.08735
C_ C_ 0.183344 0.312885 0.122756 -0.08735
C_ C_ 0.0852162 0.294661 0.191469 -0.08735
C_ C_ 0.0329553 0.296478 0.187172 -0.08735
C_ C_ 0.0146181 0.310573 0.161549 -0.05681
C_ C_ 0.0471821 0.314135 0.137618 -0.08735
C_ C_ 0.358876 0.218541 0.161578 0.68181
C_ C_ 0.350267 0.415543 0.151687 0.68181
C_ C_ 0.353639 0.471694 0.149676 -0.05681
C_ C_ 0.358101 0.00258993 0.171487 -0.08735
C_ C_ 0.36055 0.0559351 0.169617 -0.05681
C_ C_ 0.368169 0.0788821 0.142039 -0.05681
C_ C_ 0.377387 0.047178 0.118581 -0.08735
C_ C_ 0.363386 0.491804 0.122551 -0.08735
C_ C_ 0.351591 0.0860727 0.193575 -0.08735
C_ C_ 0.349925 0.138073 0.191177 -0.08735
C_ C_ 0.35675 0.162155 0.164284 -0.05681
C_ C_ 0.367869 0.132472 0.139938 -0.08735
C_ C_ 0.458724 0.323824 0.160039 0.68181
C_ C_ 0.376369 0.373006 0.233331 0.1947
C_ C_ 0.384059 0.393065 0.260634 -0.08735
C_ C_ 0.374618 0.36351 0.28421 -0.08735
C_ C_ 0.356468 0.313398 0.280822 -0.05681
C_ C_ 0.341566 0.297384 0.252264 0.18498
C_ C_ 0.318417 0.251116 0.249163 -0.08735
C_ C_ 0.310757 0.219963 0.272581 -0.08735
C_ C_ 0.328954 0.233264 0.299646 -0.08735
C_ C_ 0.34628 0.282583 0.304362 0.18498
C_ C_ 0.308095 0.305311 0.350066 0.44287
C_ C_ 0.397181 0.294808 0.346277 0.44287
C_ C_ 0.403999 0.304863 0.376407 -0.05681
C_ C_ 0.45269 0.298608 0.389599 -0.08735
C_ C_ 0.458351 0.305466 0.418578 -0.08735
C_ C_ 0.415438 0.317672 0.436031 -0.05681
C_ C_ 0.367947 0.318725 0.42251 -0.05681
C_ C_ 0.362379 0.312306 0.392985 -0.05681
C_ C_ 0.313394 0.312788 0.3796 -0.05681
C_ C_ 0.272307 0.32525 0.397309 -0.08735
C_ C_ 0.278335 0.323308 0.427095 -0.08735
C_ C_ 0.326314 0.326805 0.439812 -0.05681
C_ C_ 0.33352 0.33782 0.469469 0.44287
C_ C_ 0.421589 0.326939 0.465087 0.44287
C_ C_ 0.384216 0.343443 0.0107786 0.18498
C_ C_ 0.416401 0.385779 0.0187881 -0.08735
C_ C_ 0.424145 0.397352 0.047631 -0.08735
C_ C_ 0.40623 0.368429 0.0692954 -0.08735
C_ C_ 0.369767 0.329194 0.0622022 0.18498
C_ C_ 0.358516 0.316606 0.0332646 -0.05681
C_ C_ 0.327263 0.274624 0.0275205 -0.08735
C_ C_ 0.308587 0.247343 0.0508336 -0.08735
C_ C_ 0.318499 0.261447 0.0788649 0.1947
N_ N_ 0.132003 0.172095 0.476404 -0.29468
N_ N_ 0.149132 0.178032 0.0818153 -0.17154
N_ N_ 0.10635 0.162256 0.230698 -0.17154
N_ N_ 0.129613 0.197256 0.334458 -0.29468
N_ N_ 0.35683 0.32628 0.228336 -0.29468
N_ N_ 0.350787 0.298318 0.333225 -0.17154
N_ N_ 0.379817 0.33701 0.480905 -0.17154
N_ N_ 0.351371 0.300854 0.0850077 -0.29468
O_ O_ 0.198603 0.186719 0.43087 -0.58347
O_ O_ 0.192721 0.203635 0.385404 -0.58347
O_ O_ 0.128944 0.256749 0.43283 -0.58347
O_ O_ 0.107394 0.265184 0.387701 -0.58347
O_ O_ 0.124159 0.109576 0.426579 -0.58347
O_ O_ 0.131638 0.116936 0.379401 -0.58347
O_ O_ 0.0508555 0.184469 0.428926 -0.58347
O_ O_ 0.0377786 0.182302 0.383291 -0.58347
O_ O_ 0.0630944 0.186262 0.0745328 -0.46727
O_ O_ 0.233789 0.16487 0.0896921 -0.46727
O_ O_ 0.0256316 0.197624 0.22252 -0.46727
O_ O_ 0.188744 0.140046 0.236188 -0.46727
O_ O_ 0.282838 0.300815 0.178605 -0.58347
O_ O_ 0.287911 0.315971 0.132533 -0.58347
O_ O_ 0.366024 0.247333 0.183979 -0.58347
O_ O_ 0.364955 0.236871 0.136956 -0.58347
O_ O_ 0.343432 0.39448 0.175324 -0.58347
O_ O_ 0.360912 0.388448 0.130531 -0.58347
O_ O_ 0.429372 0.333825 0.181184 -0.58347
O_ O_ 0.438011 0.311099 0.136064 -0.58347
O_ O_ 0.43817 0.288061 0.33242 -0.46727
O_ O_ 0.26219 0.300864 0.338589 -0.46727
O_ O_ 0.46786 0.329964 0.476571 -0.46727
O_ O_ 0.294589 0.351213 0.485916 -0.46727
Zn Zn 0.128428 0.18137 0.880603 0.90689
Zn Zn 0.13939 0.165611 0.928334 0.90689
Zn Zn 0.375086 0.326707 0.633326 0.90689
Zn Zn 0.36243 0.33847 0.680872 0.90689
H_ H_ 0.306945 0.181062 0.945068 0.11455
H_ H_ 0.372247 0.170291 0.847257 0.11455
H_ H_ 0.284964 0.194412 0.85416 0.11455
H_ H_ 0.3913 0.205131 0.962114 0.11455
H_ H_ 0.48525 0.20107 0.953702 0.11455
H_ H_ 0.463744 0.173284 0.865967 0.11455
H_ H_ 0.160516 -0.000790397 0.936201 0.11455
H_ H_ 0.0917603 0.424689 0.851251 0.11455
H_ H_ 0.126125 0.0200041 0.847496 0.11455
H_ H_ 0.156797 0.415653 0.963784 0.11455
H_ H_ 0.142626 0.324412 0.959305 0.11455
H_ H_ 0.0912985 0.335434 0.8746 0.11455
H_ H_ 0.086487 0.0880485 0.963115 0.11455
H_ H_ 0.0620862 0.0868784 0.514393 0.11455
H_ H_ 0.110291 0.12187 0.553817 0.11455
H_ H_ 0.174946 0.236086 0.97426 0.11455
H_ H_ 0.237112 0.293323 0.512838 0.11455
H_ H_ 0.214488 0.26951 0.564031 0.11455
H_ H_ 0.0172536 0.208332 0.62487 0.11455
H_ H_ 0.00793046 0.202126 0.674205 0.11455
H_ H_ 0.271248 0.172062 0.63653 0.11455
H_ H_ 0.264817 0.155793 0.686477 0.11455
H_ H_ 0.0951899 0.0710979 0.745588 0.11455
H_ H_ 0.0568659 0.0579937 0.795882 0.11455
H_ H_ 0.071678 0.112501 0.836423 0.11455
H_ H_ 0.161815 0.23696 0.754325 0.11455
H_ H_ 0.197261 0.286057 0.797124 0.11455
H_ H_ 0.175901 0.258798 0.845786 0.11455
H_ H_ 0.19595 0.311708 0.68971 0.11455
H_ H_ 0.129116 0.368883 0.595697 0.11455
H_ H_ 0.221315 0.354364 0.602071 0.11455
H_ H_ 0.112235 0.304455 0.708117 0.11455
H_ H_ 0.0206551 0.309843 0.703445 0.11455
H_ H_ 0.0383596 0.344264 0.613079 0.11455
H_ H_ 0.401914 0.499417 0.686875 0.11455
H_ H_ 0.403076 0.0834307 0.598796 0.11455
H_ H_ 0.371025 0.488506 0.596772 0.11455
H_ H_ 0.355634 0.0866998 0.716287 0.11455
H_ H_ 0.373303 0.180752 0.712352 0.11455
H_ H_ 0.381135 0.163811 0.62122 0.11455
H_ H_ 0.389263 0.429027 0.720406 0.11455
H_ H_ 0.415252 0.449789 0.770464 0.11455
H_ H_ 0.408379 0.382297 0.805763 0.11455
H_ H_ 0.300283 0.27253 0.724116 0.11455
H_ H_ 0.286402 0.212196 0.761357 0.11455
H_ H_ 0.310948 0.22298 0.811048 0.11455
H_ H_ 0.490626 0.296849 0.875347 0.11455
H_ H_ 0.494589 0.303232 0.92771 0.11455
H_ H_ 0.236026 0.338952 0.886153 0.11455
H_ H_ 0.247898 0.344641 0.937311 0.11455
H_ H_ 0.43916 0.406716 0.00105248 0.11455
H_ H_ 0.449704 0.443094 0.543812 0.11455
H_ H_ 0.436227 0.38388 0.587082 0.11455
H_ H_ 0.331394 0.259766 0.50873 0.11455
H_ H_ 0.306304 0.212835 0.550646 0.11455
H_ H_ 0.32729 0.240939 0.597938 0.11455
C_ C_ 0.231171 0.190828 0.904011 0.68181
C_ C_ 0.288532 0.187263 0.900184 -0.05681
C_ C_ 0.321956 0.183982 0.923534 -0.08735
C_ C_ 0.375052 0.183245 0.920007 -0.05681
C_ C_ 0.394377 0.176816 0.891779 -0.05681
C_ C_ 0.360219 0.177622 0.868188 -0.08735
C_ C_ 0.308304 0.183851 0.872118 -0.08735
C_ C_ 0.408908 0.195619 0.942123 -0.08735
C_ C_ 0.46015 0.196569 0.936899 -0.08735
C_ C_ 0.48074 0.186077 0.910035 -0.05681
C_ C_ 0.446448 0.179582 0.887061 -0.08735
C_ C_ 0.118054 0.268278 0.910919 0.68181
C_ C_ 0.144235 0.0744043 0.898493 0.68181
C_ C_ 0.141383 0.0175619 0.893441 -0.05681
C_ C_ 0.143242 0.48148 0.921612 -0.08735
C_ C_ 0.131831 0.428851 0.921129 -0.05681
C_ C_ 0.11766 0.406777 0.894088 -0.05681
C_ C_ 0.109065 0.438692 0.869938 -0.08735
C_ C_ 0.116467 0.489623 0.872677 -0.08735
C_ C_ 0.146103 0.398501 0.943169 -0.08735
C_ C_ 0.138368 0.345917 0.941321 -0.08735
C_ C_ 0.120553 0.323591 0.91584 -0.05681
C_ C_ 0.109905 0.354165 0.8924 -0.08735
C_ C_ 0.0351075 0.164393 0.907621 0.68181
C_ C_ 0.104753 0.106179 0.980446 0.1947
C_ C_ 0.0894585 0.117408 0.510007 -0.08735
C_ C_ 0.113222 0.140289 0.533097 -0.08735
C_ C_ 0.14539 0.181705 0.527913 -0.05681
C_ C_ 0.155068 0.196212 0.499433 0.18498
C_ C_ 0.172763 0.223949 0.996285 -0.08735
C_ C_ 0.213213 0.260131 0.517301 -0.08735
C_ C_ 0.196106 0.251436 0.545867 -0.08735
C_ C_ 0.163331 0.211203 0.551097 0.18498
C_ C_ 0.19655 0.183254 0.597377 0.44287
C_ C_ 0.109032 0.205349 0.592754 0.44287
C_ C_ 0.101069 0.197169 0.621813 -0.05681
C_ C_ 0.0525474 0.200364 0.635669 -0.08735
C_ C_ 0.0452855 0.193916 0.665487 -0.08735
C_ C_ 0.0876473 0.18132 0.683314 -0.05681
C_ C_ 0.137319 0.180306 0.670163 -0.05681
C_ C_ 0.142268 0.185281 0.640327 -0.05681
C_ C_ 0.191519 0.184245 0.628006 -0.05681
C_ C_ 0.233967 0.17693 0.645915 -0.08735
C_ C_ 0.227682 0.165846 0.674607 -0.08735
C_ C_ 0.180033 0.165419 0.68726 -0.05681
C_ C_ 0.174918 0.153424 0.717096 0.44287
C_ C_ 0.0844558 0.174816 0.712985 0.44287
C_ C_ 0.119272 0.146596 0.758173 0.18498
C_ C_ 0.0980352 0.098703 0.764244 -0.08735
C_ C_ 0.0827314 0.0877616 0.79236 -0.08735
C_ C_ 0.0953723 0.116804 0.816568 -0.08735
C_ C_ 0.125012 0.160851 0.811081 0.18498
C_ C_ 0.134593 0.177952 0.781629 -0.05681
C_ C_ 0.157903 0.223469 0.776409 -0.08735
C_ C_ 0.174623 0.251817 0.799373 -0.08735
C_ C_ 0.166752 0.234437 0.827919 0.1947
C_ C_ 0.270756 0.332019 0.653436 0.68181
C_ C_ 0.214363 0.334012 0.647567 -0.05681
C_ C_ 0.180933 0.323856 0.668943 -0.08735
C_ C_ 0.127937 0.330885 0.665804 -0.05681
C_ C_ 0.108509 0.341661 0.637746 -0.05681
C_ C_ 0.141954 0.352368 0.616091 -0.08735
C_ C_ 0.195131 0.349989 0.620766 -0.08735
C_ C_ 0.0951685 0.3115 0.687427 -0.08735
C_ C_ 0.043344 0.320048 0.684499 -0.08735
C_ C_ 0.0219122 0.332293 0.657566 -0.05681
C_ C_ 0.0556583 0.342087 0.634384 -0.08735
C_ C_ 0.378505 0.234361 0.663661 0.68181
C_ C_ 0.367613 0.431468 0.648092 0.68181
C_ C_ 0.379257 0.485661 0.642701 -0.05681
C_ C_ 0.375499 0.0177424 0.673412 -0.08735
C_ C_ 0.378423 0.0725968 0.671275 -0.05681
C_ C_ 0.387462 0.0957008 0.644503 -0.05681
C_ C_ 0.395189 0.0654822 0.619365 -0.08735
C_ C_ 0.372506 0.509523 0.6169 -0.08735
C_ C_ 0.37356 0.102692 0.696697 -0.08735
C_ C_ 0.378429 0.15594 0.693423 -0.08735
C_ C_ 0.382092 0.178393 0.667272 -0.05681
C_ C_ 0.38437 0.146699 0.641998 -0.08735
C_ C_ 0.465676 0.335707 0.660715 0.68181
C_ C_ 0.387488 0.398517 0.735399 0.1947
C_ C_ 0.399025 0.411392 0.764013 -0.08735
C_ C_ 0.393226 0.374863 0.78522 -0.08735
C_ C_ 0.365372 0.330629 0.780635 -0.05681
C_ C_ 0.353474 0.319662 0.75065 0.18498
C_ C_ 0.321614 0.278418 0.74471 -0.08735
C_ C_ 0.310739 0.242744 0.766113 -0.08735
C_ C_ 0.322131 0.252073 0.795384 -0.08735
C_ C_ 0.350096 0.296341 0.803205 0.18498
C_ C_ 0.313442 0.320004 0.848575 0.44287
C_ C_ 0.402381 0.301343 0.845043 0.44287
C_ C_ 0.407827 0.310758 0.874249 -0.05681
C_ C_ 0.457321 0.309758 0.887188 -0.08735
C_ C_ 0.463343 0.315257 0.917306 -0.08735
C_ C_ 0.418955 0.322516 0.934472 -0.05681
C_ C_ 0.371559 0.32814 0.920628 -0.05681
C_ C_ 0.365743 0.3232 0.890835 -0.05681
C_ C_ 0.316436 0.323796 0.878425 -0.05681
C_ C_ 0.272897 0.333976 0.895282 -0.08735
C_ C_ 0.280122 0.342206 0.924436 -0.08735
C_ C_ 0.327736 0.337555 0.938511 -0.05681
C_ C_ 0.33255 0.340403 0.9684 0.44287
C_ C_ 0.418389 0.317932 0.965397 0.44287
C_ C_ 0.386188 0.350207 0.509741 0.18498
C_ C_ 0.40947 0.396279 0.515308 -0.08735
C_ C_ 0.428026 0.406913 0.541948 -0.08735
C_ C_ 0.422192 0.372189 0.565425 -0.08735
C_ C_ 0.391255 0.328523 0.561947 0.18498
C_ C_ 0.372994 0.317123 0.533374 -0.05681
C_ C_ 0.346176 0.270542 0.528515 -0.08735
C_ C_ 0.333652 0.2421 0.552804 -0.08735
C_ C_ 0.346676 0.258848 0.580268 0.1947
N_ N_ 0.133032 0.149616 0.975722 -0.29468
N_ N_ 0.155121 0.197012 0.580096 -0.17154
N_ N_ 0.127174 0.159437 0.728485 -0.17154
N_ N_ 0.135182 0.194364 0.83268 -0.29468
N_ N_ 0.366384 0.351932 0.729424 -0.29468
N_ N_ 0.35635 0.306404 0.833038 -0.17154
N_ N_ 0.377669 0.330252 0.981219 -0.17154
N_ N_ 0.374214 0.302836 0.584588 -0.29468
O_ O_ 0.212432 0.187809 0.928934 -0.58347
O_ O_ 0.204033 0.178817 0.881647 -0.58347
O_ O_ 0.11806 0.237872 0.932158 -0.58347
O_ O_ 0.129149 0.251907 0.888384 -0.58347
O_ O_ 0.153016 0.0915177 0.92408 -0.58347
O_ O_ 0.132063 0.105506 0.879662 -0.58347
O_ O_ 0.0641601 0.152395 0.9274 -0.58347
O_ O_ 0.0511588 0.180988 0.883875 -0.58347
O_ O_ 0.0719034 0.2218 0.577519 -0.46727
O_ O_ 0.241089 0.176044 0.585129 -0.46727
O_ O_ 0.0395889 0.178188 0.72417 -0.46727
O_ O_ 0.212942 0.141236 0.732265 -0.46727
O_ O_ 0.28629 0.337578 0.678604 -0.58347
O_ O_ 0.301339 0.326452 0.632848 -0.58347
O_ O_ 0.367085 0.264518 0.684563 -0.58347
O_ O_ 0.380976 0.253465 0.638776 -0.58347
O_ O_ 0.365502 0.412479 0.673558 -0.58347
O_ O_ 0.368428 0.401595 0.627452 -0.58347
O_ O_ 0.435073 0.338353 0.681463 -0.58347
O_ O_ 0.450071 0.328072 0.636069 -0.58347
O_ O_ 0.439414 0.28446 0.829283 -0.46727
O_ O_ 0.268514 0.322269 0.836144 -0.46727
O_ O_ 0.462302 0.30883 0.980043 -0.46727
O_ O_ 0.293543 0.352573 0.98449 -0.46727
Zn Zn 0.12048 0.692098 0.379575 0.90689
Zn Zn 0.127608 0.683258 0.427782 0.90689
Zn Zn 0.372703 0.815871 0.130595 0.90689
Zn Zn 0.359138 0.817298 0.178487 0.90689
H_ H_ 0.296981 0.720426 0.441834 0.11455
H_ H_ 0.360277 0.651453 0.347934 0.11455
H_ H_ 0.271456 0.657821 0.357946 0.11455
H_ H_ 0.376659 0.712243 0.461581 0.11455
H_ H_ 0.472013 0.70085 0.458874 0.11455
H_ H_ 0.448798 0.660386 0.368033 0.11455
H_ H_ 0.14086 0.519111 0.443401 0.11455
H_ H_ 0.153363 0.943658 0.347146 0.11455
H_ H_ 0.0737163 0.535388 0.359945 0.11455
H_ H_ 0.0969098 0.93541 0.459775 0.11455
H_ H_ 0.0916556 0.838207 0.454763 0.11455
H_ H_ 0.14003 0.85596 0.367444 0.11455
H_ H_ 0.0932099 0.601253 0.465208 0.11455
H_ H_ 0.0821207 0.566032 0.0212801 0.11455
H_ H_ 0.128167 0.613706 0.0571388 0.11455
H_ H_ 0.17722 0.755298 0.470833 0.11455
H_ H_ 0.220739 0.798164 0.00948658 0.11455
H_ H_ 0.187072 0.782824 0.0598264 0.11455
H_ H_ 0.0171822 0.729781 0.116076 0.11455
H_ H_ -0.005650000000000044 0.712424 0.168631 0.11455
H_ H_ 0.249434 0.637041 0.14434 0.11455
H_ H_ 0.22437 0.626699 0.194821 0.11455
H_ H_ 0.031946 0.605663 0.247736 0.11455
H_ H_ 0.0147326 0.57871 0.299843 0.11455
H_ H_ 0.0497569 0.636333 0.339625 0.11455
H_ H_ 0.139342 0.753875 0.254667 0.11455
H_ H_ 0.182925 0.791625 0.293188 0.11455
H_ H_ 0.16903 0.763416 0.345265 0.11455
H_ H_ 0.186037 0.803815 0.188675 0.11455
H_ H_ 0.124223 0.854681 0.0923775 0.11455
H_ H_ 0.218264 0.851146 0.102533 0.11455
H_ H_ 0.110198 0.839045 0.21055 0.11455
H_ H_ 0.0121032 0.832549 0.202352 0.11455
H_ H_ 0.0398746 0.839147 0.110067 0.11455
H_ H_ 0.346949 0.986144 0.192811 0.11455
H_ H_ 0.38618 0.563133 0.101306 0.11455
H_ H_ 0.392547 0.973071 0.103552 0.11455
H_ H_ 0.343637 0.571198 0.216918 0.11455
H_ H_ 0.35583 0.667302 0.210141 0.11455
H_ H_ 0.390921 0.645721 0.121029 0.11455
H_ H_ 0.420588 0.891052 0.214237 0.11455
H_ H_ 0.432751 0.92029 0.266062 0.11455
H_ H_ 0.381945 0.884203 0.302801 0.11455
H_ H_ 0.290711 0.765017 0.220305 0.11455
H_ H_ 0.259498 0.709775 0.258765 0.11455
H_ H_ 0.289262 0.723186 0.30947 0.11455
H_ H_ 0.480631 0.80411 0.372028 0.11455
H_ H_ 0.49042 0.810546 0.423764 0.11455
H_ H_ 0.227963 0.831944 0.38464 0.11455
H_ H_ 0.245937 0.859101 0.435962 0.11455
H_ H_ 0.415569 0.930987 0.493683 0.11455
H_ H_ 0.458425 0.928148 0.045988 0.11455
H_ H_ 0.423166 0.870257 0.0871162 0.11455
H_ H_ 0.32622 0.754283 0.00684326 0.11455
H_ H_ 0.308426 0.697907 0.0498941 0.11455
H_ H_ 0.327416 0.731383 0.0966068 0.11455
C_ C_ 0.221178 0.696951 0.403022 0.68181
C_ C_ 0.276989 0.696725 0.398141 -0.05681
C_ C_ 0.310712 0.710055 0.420753 -0.08735
C_ C_ 0.364004 0.702497 0.417245 -0.05681
C_ C_ 0.382684 0.681457 0.391567 -0.05681
C_ C_ 0.348457 0.668989 0.368909 -0.08735
C_ C_ 0.296005 0.673976 0.373167 -0.08735
C_ C_ 0.395213 0.706723 0.441586 -0.08735
C_ C_ 0.447381 0.696414 0.439079 -0.08735
C_ C_ 0.469788 0.681453 0.411748 -0.05681
C_ C_ 0.435593 0.674028 0.388532 -0.08735
C_ C_ 0.116214 0.785015 0.40818 0.68181
C_ C_ 0.127148 0.589686 0.400638 0.68181
C_ C_ 0.114508 0.532033 0.399826 -0.05681
C_ C_ 0.118232 0.999017436 0.420083 -0.08735
C_ C_ 0.115963 0.947018 0.415932 -0.05681
C_ C_ 0.126045 0.925412 0.389022 -0.05681
C_ C_ 0.139029 0.960214 0.366838 -0.08735
C_ C_ 0.139672 1.012089 0.371205 -0.08735
C_ C_ 0.104448 0.915276 0.4393 -0.08735
C_ C_ 0.0998629 0.862128 0.436178 -0.08735
C_ C_ 0.112925 0.841111 0.409807 -0.05681
C_ C_ 0.127106 0.872504 0.38694 -0.08735
C_ C_ 0.0242367 0.677502 0.402809 0.68181
C_ C_ 0.0961014 0.626573 0.481585 0.1947
C_ C_ 0.0986346 0.602364 0.015522 -0.08735
C_ C_ 0.123078 0.629955 0.0368658 -0.08735
C_ C_ 0.149995 0.67408 0.0298867 -0.05681
C_ C_ 0.159175 0.685889 1.00119 0.18498
C_ C_ 0.171955 0.741816 0.492313 -0.08735
C_ C_ 0.205807 0.76048 0.0157707 -0.08735
C_ C_ 0.190506 0.752337 0.0447186 -0.08735
C_ C_ 0.168299 0.705749 0.0522198 0.18498
C_ C_ 0.189798 0.681247 0.100989 0.44287
C_ C_ 0.106365 0.712769 0.0911143 0.44287
C_ C_ 0.0943913 0.704582 0.121109 -0.05681
C_ C_ 0.0455292 0.715126 0.131426 -0.08735
C_ C_ 0.0330361 0.707533 0.160601 -0.08735
C_ C_ 0.069802 0.690627 0.179897 -0.05681
C_ C_ 0.117702 0.682326 0.170124 -0.05681
C_ C_ 0.128719 0.68726 0.140836 -0.05681
C_ C_ 0.178622 0.672897 0.131125 -0.05681
C_ C_ 0.213524 0.652568 0.150809 -0.08735
C_ C_ 0.200491 0.648035 0.180275 -0.08735
C_ C_ 0.15523 0.665981 0.189948 -0.05681
C_ C_ 0.143052 0.663021 0.220121 0.44287
C_ C_ 0.0581124 0.686337 0.209555 0.44287
C_ C_ 0.0817279 0.665279 0.258333 0.18498
C_ C_ 0.052171 0.622466 0.265257 -0.08735
C_ C_ 0.0407907 0.611552 0.295014 -0.08735
C_ C_ 0.0609009 0.639935 0.317362 -0.08735
C_ C_ 0.0937949 0.678947 0.310369 0.18498
C_ C_ 0.101488 0.696248 0.281704 -0.05681
C_ C_ 0.134513 0.738621 0.276671 -0.08735
C_ C_ 0.161672 0.757801 0.297999 -0.08735
C_ C_ 0.152657 0.74214 0.32614 0.1947
C_ C_ 0.266103 0.823827 0.150651 0.68181
C_ C_ 0.21119 0.824063 0.145297 -0.05681
C_ C_ 0.176244 0.819525 0.168275 -0.08735
C_ C_ 0.126979 0.833544 0.164699 -0.05681
C_ C_ 0.105313 0.842017 0.137434 -0.05681
C_ C_ 0.138352 0.843655 0.113116 -0.08735
C_ C_ 0.191275 0.834516 0.117598 -0.08735
C_ C_ 0.0926652 0.833874 0.188598 -0.08735
C_ C_ 0.039508 0.836022 0.183019 -0.08735
C_ C_ 0.0187505 0.833543 0.155807 -0.05681
C_ C_ 0.0537545 0.841451 0.132559 -0.08735
C_ C_ 0.366662 0.719389 0.162205 0.68181
C_ C_ 0.361834 0.914726 0.149479 0.68181
C_ C_ 0.365561 0.971265 0.147777 -0.05681
C_ C_ 0.35409 0.503016 0.173713 -0.08735
C_ C_ 0.364564 0.556307 0.172068 -0.05681
C_ C_ 0.373268 0.578014 0.145248 -0.05681
C_ C_ 0.37487 0.545364 0.121166 -0.08735
C_ C_ 0.379524 -0.0047840000000000105 0.121417 -0.08735
C_ C_ 0.355676 0.58812 0.195437 -0.08735
C_ C_ 0.360391 0.641577 0.192171 -0.08735
C_ C_ 0.37138 0.663652 0.165892 -0.05681
C_ C_ 0.379338 0.631568 0.141837 -0.08735
C_ C_ 0.465535 0.823811 0.158244 0.68181
C_ C_ 0.397522 0.87761 0.232179 0.1947
C_ C_ 0.406083 0.891094 0.260863 -0.08735
C_ C_ 0.38015 0.866495 0.282184 -0.08735
C_ C_ 0.351081 0.82272 0.276986 -0.05681
C_ C_ 0.344424 0.809139 0.248205 0.18498
C_ C_ 0.312867 0.765833 0.242275 -0.08735
C_ C_ 0.293536 0.734024 0.264454 -0.08735
C_ C_ 0.304191 0.745574 0.293112 -0.08735
C_ C_ 0.336612 0.78714 0.299263 0.18498
C_ C_ 0.304347 0.814824 0.346303 0.44287
C_ C_ 0.391453 0.797355 0.342128 0.44287
C_ C_ 0.398936 0.810243 0.372027 -0.05681
C_ C_ 0.447116 0.81007 0.384728 -0.08735
C_ C_ 0.453545 0.816814 0.414033 -0.08735
C_ C_ 0.412407 0.826025 0.432301 -0.05681
C_ C_ 0.364011 0.829925 0.419271 -0.05681
C_ C_ 0.357086 0.819071 0.388587 -0.05681
C_ C_ 0.309133 0.824911 0.375622 -0.05681
C_ C_ 0.266607 0.838045 0.39259 -0.08735
C_ C_ 0.274107 0.843918 0.422819 -0.08735
C_ C_ 0.32187 0.838393 0.436432 -0.05681
C_ C_ 0.330941 0.846712 0.466623 0.44287
C_ C_ 0.419539 0.835357 0.461976 0.44287
C_ C_ 0.387254 0.839653 0.0090429 0.18498
C_ C_ 0.420201 0.881349 0.0151728 -0.08735
C_ C_ 0.434546 0.893613 0.0427405 -0.08735
C_ C_ 0.414578 0.864378 0.0647735 -0.08735
C_ C_ 0.384513 0.821459 0.0601462 0.18498
C_ C_ 0.370718 0.807294 0.031846 -0.05681
C_ C_ 0.341949 0.762317 0.0281424 -0.08735
C_ C_ 0.33059 0.732384 0.052 -0.08735
C_ C_ 0.343416 0.750596 0.079263 0.1947
N_ N_ 0.123862 0.668329 0.47634 -0.29468
N_ N_ 0.15459 0.700443 0.0824358 -0.17154
N_ N_ 0.0951306 0.672962 0.229094 -0.17154
N_ N_ 0.123542 0.701027 0.331508 -0.29468
N_ N_ 0.364634 0.838602 0.226621 -0.29468
N_ N_ 0.344667 0.801928 0.329566 -0.17154
N_ N_ 0.378021 0.843617 0.478559 -0.17154
N_ N_ 0.371031 0.792145 0.0839108 -0.29468
O_ O_ 0.201779 0.704266 0.428014 -0.58347
O_ O_ 0.192547 0.697281 0.381134 -0.58347
O_ O_ 0.11095 0.755438 0.429933 -0.58347
O_ O_ 0.117719 0.765802 0.383596 -0.58347
O_ O_ 0.147935 0.608968 0.422948 -0.58347
O_ O_ 0.119621 0.616779 0.378203 -0.58347
O_ O_ 0.0527938 0.66759 0.424032 -0.58347
O_ O_ 0.0441913 0.688466 0.378565 -0.58347
O_ O_ 0.0732419 0.738767 0.0742164 -0.46727
O_ O_ 0.233822 0.667213 0.0913441 -0.46727
O_ O_ 0.014652 0.700752 0.219119 -0.46727
O_ O_ 0.17896 0.650167 0.238078 -0.46727
O_ O_ 0.281365 0.831784 0.176962 -0.58347
O_ O_ 0.296323 0.809085 0.132568 -0.58347
O_ O_ 0.355007 0.74596 0.183624 -0.58347
O_ O_ 0.381391 0.738914 0.139374 -0.58347
O_ O_ 0.361609 0.892375 0.17343 -0.58347
O_ O_ 0.358388 0.891064 0.1267 -0.58347
O_ O_ 0.435769 0.813731 0.179651 -0.58347
O_ O_ 0.449025 0.828241 0.132994 -0.58347
O_ O_ 0.428878 0.775118 0.327155 -0.46727
O_ O_ 0.262344 0.826818 0.331973 -0.46727
O_ O_ 0.463231 0.820296 0.475362 -0.46727
O_ O_ 0.290881 0.854945 0.48323 -0.46727
Zn Zn 0.13657 0.676434 0.881991 0.90689
Zn Zn 0.14373 0.669445 0.93042 0.90689
Zn Zn 0.382978 0.828178 0.630267 0.90689
Zn Zn 0.372783 0.835619 0.677323 0.90689
H_ H_ 0.310761 0.664518 0.945032 0.11455
H_ H_ 0.372006 0.674525 0.844912 0.11455
H_ H_ 0.284986 0.690401 0.855984 0.11455
H_ H_ 0.399942 0.671793 0.962684 0.11455
H_ H_ 0.492587 0.675343 0.953502 0.11455
H_ H_ 0.46257 0.670021 0.8624 0.11455
H_ H_ 0.164441 0.49603 0.939911 0.11455
H_ H_ 0.115412 0.923847 0.84441 0.11455
H_ H_ 0.114592 0.512098 0.8539 0.11455
H_ H_ 0.144564 0.91861 0.960757 0.11455
H_ H_ 0.136142 0.833191 0.957392 0.11455
H_ H_ 0.115475 0.83744 0.866444 0.11455
H_ H_ 0.0851174 0.600139 0.971223 0.11455
H_ H_ 0.0626423 0.578478 0.512653 0.11455
H_ H_ 0.0876457 0.630509 0.553298 0.11455
H_ H_ 0.196229 0.733261 0.971222 0.11455
H_ H_ 0.206589 0.811094 0.510762 0.11455
H_ H_ 0.19382 0.781083 0.56075 0.11455
H_ H_ 1.0143311 0.707344 0.623232 0.11455
H_ H_ 1.00593448 0.688877 0.674652 0.11455
H_ H_ 0.267606 0.656042 0.633945 0.11455
H_ H_ 0.255181 0.645994 0.683977 0.11455
H_ H_ 0.071344 0.580224 0.750004 0.11455
H_ H_ 0.0438752 0.565066 0.797068 0.11455
H_ H_ 0.0881447 0.614645 0.837107 0.11455
H_ H_ 0.174763 0.736241 0.756392 0.11455
H_ H_ 0.208038 0.781407 0.796301 0.11455
H_ H_ 0.191561 0.750254 0.846481 0.11455
H_ H_ 0.206255 0.787105 0.686821 0.11455
H_ H_ 0.135242 0.873427 0.601323 0.11455
H_ H_ 0.225915 0.883035 0.614208 0.11455
H_ H_ 0.118543 0.789514 0.710213 0.11455
H_ H_ 0.0294831 0.786276 0.702248 0.11455
H_ H_ 0.0523516 0.837424 0.614635 0.11455
H_ H_ 0.368091 0.99885205 0.693874 0.11455
H_ H_ 0.36656 0.575525 0.59313 0.11455
H_ H_ 0.391975 0.986253 0.603168 0.11455
H_ H_ 0.412963 0.587282 0.707358 0.11455
H_ H_ 0.405361 0.67821 0.704856 0.11455
H_ H_ 0.365921 0.665278 0.615362 0.11455
H_ H_ 0.408618 0.911994 0.715892 0.11455
H_ H_ 0.43674 0.928636 0.764567 0.11455
H_ H_ 0.408009 0.872755 0.804718 0.11455
H_ H_ 0.325145 0.757095 0.717976 0.11455
H_ H_ 0.28875 0.703669 0.756223 0.11455
H_ H_ 0.32195 0.71262 0.806679 0.11455
H_ H_ 0.494379 0.812639 0.871397 0.11455
H_ H_ 0.49929 0.811241 0.923827 0.11455
H_ H_ 0.241433 0.80808 0.883532 0.11455
H_ H_ 0.248848 0.807594 0.935776 0.11455
H_ H_ 0.431788 0.905969 0.998687 0.11455
H_ H_ 0.436932 0.957351 0.546059 0.11455
H_ H_ 0.426212 0.896735 0.583289 0.11455
H_ H_ 0.344281 0.765565 0.506667 0.11455
H_ H_ 0.307232 0.721214 0.550296 0.11455
H_ H_ 0.318212 0.761364 0.597911 0.11455
C_ C_ 0.237506 0.681237 0.906333 0.68181
C_ C_ 0.293396 0.683754 0.901179 -0.05681
C_ C_ 0.326983 0.675175 0.924084 -0.08735
C_ C_ 0.380366 0.67607 0.91898 -0.05681
C_ C_ 0.39804 0.678197 0.889739 -0.05681
C_ C_ 0.362746 0.674742 0.86739 -0.08735
C_ C_ 0.310505 0.680384 0.873697 -0.08735
C_ C_ 0.413294 0.671051 0.941356 -0.08735
C_ C_ 0.465512 0.673592 0.93643 -0.08735
C_ C_ 0.486045 0.673575 0.907889 -0.05681
C_ C_ 0.449812 0.67401 0.884211 -0.08735
C_ C_ 0.13466 0.772245 0.910115 0.68181
C_ C_ 0.138409 0.570315 0.899897 0.68181
C_ C_ 0.133484 0.51303 0.89836 -0.05681
C_ C_ 0.149384 0.985796 0.916178 -0.08735
C_ C_ 0.139216 0.934605 0.915089 -0.05681
C_ C_ 0.127079 0.912171 0.888888 -0.05681
C_ C_ 0.119784 0.94307 0.864497 -0.08735
C_ C_ 0.128006 -0.003619000000000039 0.866857 -0.08735
C_ C_ 0.137918 0.904169 0.939657 -0.08735
C_ C_ 0.132707 0.852199 0.937739 -0.08735
C_ C_ 0.131354 0.826934 0.91156 -0.05681
C_ C_ 0.12573 0.857286 0.886607 -0.08735
C_ C_ 0.0437646 0.672946 0.907404 0.68181
C_ C_ 0.101866 0.621921 0.987695 0.1947
C_ C_ 0.0871012 0.612379 0.508756 -0.08735
C_ C_ 0.103073 0.642212 0.53221 -0.08735
C_ C_ 0.131381 0.685229 0.526875 -0.05681
C_ C_ 0.140499 0.700016 0.498009 0.18498
C_ C_ 0.188698 0.728688 0.99465 -0.08735
C_ C_ 0.189163 0.772853 0.515202 -0.08735
C_ C_ 0.181401 0.756716 0.542918 -0.08735
C_ C_ 0.15229 0.71312 0.550058 0.18498
C_ C_ 0.189523 0.687054 0.595521 0.44287
C_ C_ 0.101996 0.709624 0.593766 0.44287
C_ C_ 0.0951759 0.693711 0.621943 -0.05681
C_ C_ 0.0480791 0.696393 0.635741 -0.08735
C_ C_ 0.0427847 0.683706 0.664222 -0.08735
C_ C_ 0.0853494 0.677959 0.682545 -0.05681
C_ C_ 0.134607 0.677364 0.669606 -0.05681
C_ C_ 0.139245 0.686366 0.638989 -0.05681
C_ C_ 0.187773 0.683134 0.626164 -0.05681
C_ C_ 0.228675 0.665947 0.643296 -0.08735
C_ C_ 0.223041 0.659059 0.673423 -0.08735
C_ C_ 0.177021 0.666126 0.687235 -0.05681
C_ C_ 0.169488 0.656119 0.716236 0.44287
C_ C_ 0.0812707 0.67099 0.712711 0.44287
C_ C_ 0.113756 0.648903 0.758848 0.18498
C_ C_ 0.0890608 0.601787 0.765653 -0.08735
C_ C_ 0.0744334 0.593174 0.792915 -0.08735
C_ C_ 0.0962468 0.622638 0.815408 -0.08735
C_ C_ 0.12757 0.663407 0.810486 0.18498
C_ C_ 0.138169 0.676941 0.781362 -0.05681
C_ C_ 0.165903 0.721251 0.777333 -0.08735
C_ C_ 0.183709 0.748775 0.801095 -0.08735
C_ C_ 0.175399 0.730335 0.82862 0.1947
C_ C_ 0.28016 0.828619 0.653143 0.68181
C_ C_ 0.223114 0.833031 0.651281 -0.05681
C_ C_ 0.189718 0.813142 0.671222 -0.08735
C_ C_ 0.136927 0.814118 0.666801 -0.05681
C_ C_ 0.117626 0.833937 0.641615 -0.05681
C_ C_ 0.150549 0.855091 0.620587 -0.08735
C_ C_ 0.202851 0.8575 0.62695 -0.08735
C_ C_ 0.104695 0.796236 0.689553 -0.08735
C_ C_ 0.0522972 0.800988 0.685861 -0.08735
C_ C_ 0.0328393 0.814383 0.659074 -0.05681
C_ C_ 0.0666751 0.831217 0.636687 -0.08735
C_ C_ 0.382483 0.733653 0.65772 0.68181
C_ C_ 0.377198 0.931379 0.649838 0.68181
C_ C_ 0.386018 0.986768 0.648902 -0.05681
C_ C_ 0.392158 0.51767 0.666116 -0.08735
C_ C_ 0.392012 0.571919 0.663877 -0.05681
C_ C_ 0.379764 0.594145 0.637046 -0.05681
C_ C_ 0.377187 0.5622 0.612852 -0.08735
C_ C_ 0.392309 1.0102966 0.622119 -0.08735
C_ C_ 0.404392 0.603263 0.687273 -0.08735
C_ C_ 0.398578 0.653942 0.686807 -0.08735
C_ C_ 0.385633 0.677524 0.660734 -0.05681
C_ C_ 0.377626 0.646911 0.635424 -0.08735
C_ C_ 0.475169 0.83034 0.654865 0.68181
C_ C_ 0.400477 0.885129 0.731773 0.1947
C_ C_ 0.410062 0.899396 0.760186 -0.08735
C_ C_ 0.393666 0.865683 0.782722 -0.08735
C_ C_ 0.367729 0.8203 0.77614 -0.05681
C_ C_ 0.357891 0.810112 0.747042 0.18498
C_ C_ 0.331592 0.765637 0.740906 -0.08735
C_ C_ 0.311331 0.736438 0.761417 -0.08735
C_ C_ 0.330257 0.741034 0.789657 -0.08735
C_ C_ 0.35528 0.784848 0.797655 0.18498
C_ C_ 0.317715 0.807434 0.844988 0.44287
C_ C_ 0.409145 0.798609 0.840827 0.44287
C_ C_ 0.412238 0.807655 0.871083 -0.05681
C_ C_ 0.460038 0.80855 0.884609 -0.08735
C_ C_ 0.462942 0.809544 0.914408 -0.08735
C_ C_ 0.419596 0.810012 0.93124 -0.05681
C_ C_ 0.373249 0.816631 0.918083 -0.05681
C_ C_ 0.368541 0.817379 0.887554 -0.05681
C_ C_ 0.321188 0.815136 0.875921 -0.05681
C_ C_ 0.277461 0.809746 0.892782 -0.08735
C_ C_ 0.282396 0.80749 0.922706 -0.08735
C_ C_ 0.329785 0.818172 0.935218 -0.05681
C_ C_ 0.335291 0.82378 0.965683 0.44287
C_ C_ 0.423128 0.811947 0.961823 0.44287
C_ C_ 0.384053 0.859971 0.507964 0.18498
C_ C_ 0.407275 0.908192 0.51269 -0.08735
C_ C_ 0.422022 0.921858 0.541258 -0.08735
C_ C_ 0.410574 0.889532 0.563559 -0.08735
C_ C_ 0.379338 0.847975 0.559948 0.18498
C_ C_ 0.37187 0.829062 0.531762 -0.05681
C_ C_ 0.348683 0.7818 0.527751 -0.08735
C_ C_ 0.330086 0.755362 0.552409 -0.08735
C_ C_ 0.339558 0.775962 0.580224 0.1947
N_ N_ 0.135306 0.660722 0.979514 -0.29468
N_ N_ 0.147057 0.698064 0.580777 -0.17154
N_ N_ 0.122471 0.660248 0.72902 -0.17154
N_ N_ 0.1427 0.691154 0.833372 -0.29468
N_ N_ 0.372968 0.841545 0.724897 -0.29468
N_ N_ 0.359583 0.796887 0.828893 -0.17154
N_ N_ 0.381175 0.823127 0.978648 -0.17154
N_ N_ 0.371504 0.818151 0.582703 -0.29468
O_ O_ 0.21952 0.671507 0.931128 -0.58347
O_ O_ 0.208877 0.67983 0.885669 -0.58347
O_ O_ 0.144483 0.745547 0.932779 -0.58347
O_ O_ 0.131282 0.752048 0.886092 -0.58347
O_ O_ 0.138668 0.591838 0.924844 -0.58347
O_ O_ 0.140976 0.597437 0.87676 -0.58347
O_ O_ 0.0719997 0.667251 0.928812 -0.58347
O_ O_ 0.0618786 0.672939 0.881546 -0.58347
O_ O_ 0.0637526 0.726175 0.578342 -0.46727
O_ O_ 0.233636 0.690386 0.583186 -0.46727
O_ O_ 0.0372566 0.673059 0.725942 -0.46727
O_ O_ 0.210689 0.64608 0.731278 -0.46727
O_ O_ 0.300627 0.821288 0.676928 -0.58347
O_ O_ 0.308759 0.838701 0.63209 -0.58347
O_ O_ 0.382997 0.760657 0.680165 -0.58347
O_ O_ 0.375892 0.755068 0.633696 -0.58347
O_ O_ 0.363131 0.909022 0.673159 -0.58347
O_ O_ 0.3892 0.905629 0.628474 -0.58347
O_ O_ 0.448374 0.847278 0.675519 -0.58347
O_ O_ 0.457541 0.818271 0.630771 -0.58347
O_ O_ 0.451454 0.794019 0.825366 -0.46727
O_ O_ 0.274513 0.81298 0.831957 -0.46727
O_ O_ 0.469516 0.814083 0.974692 -0.46727
O_ O_ 0.295721 0.832559 0.981758 -0.46727
Zn Zn 0.614058 0.182321 0.384654 0.90689
Zn Zn 0.62397 0.181215 0.433632 0.90689
Zn Zn 0.864518 0.312885 0.133468 0.90689
Zn Zn 0.857785 0.314592 0.182689 0.90689
H_ H_ 0.790981 0.18766 0.449641 0.11455
H_ H_ 0.860765 0.184976 0.348578 0.11455
H_ H_ 0.771164 0.187535 0.357163 0.11455
H_ H_ 0.878071 0.172003 0.467012 0.11455
H_ H_ 0.971203 0.180983 0.456728 0.11455
H_ H_ 0.94679 0.182993 0.366386 0.11455
H_ H_ 0.615069 0.013059 0.449943 0.11455
H_ H_ 0.593339 0.432602 0.351139 0.11455
H_ H_ 0.655868 0.0252948 0.361048 0.11455
H_ H_ 0.660168 0.427435 0.461695 0.11455
H_ H_ 0.636614 0.336316 0.46024 0.11455
H_ H_ 0.578306 0.353512 0.375264 0.11455
H_ H_ 0.573147 0.109747 0.470186 0.11455
H_ H_ 0.575579 0.0736548 0.0194307 0.11455
H_ H_ 0.609003 0.12494 0.0569285 0.11455
H_ H_ 0.688325 0.250026 0.474478 0.11455
H_ H_ 0.739816 0.290885 0.0177759 0.11455
H_ H_ 0.712556 0.273611 0.0648781 0.11455
H_ H_ 0.517878 0.213418 0.122579 0.11455
H_ H_ 0.500175 0.203363 0.173454 0.11455
H_ H_ 0.764103 0.160456 0.143701 0.11455
H_ H_ 0.746798 0.146302 0.192034 0.11455
H_ H_ 0.546015 0.0998537 0.247332 0.11455
H_ H_ 0.528567 0.0691559 0.297505 0.11455
H_ H_ 0.567038 0.106129 0.337855 0.11455
H_ H_ 0.654402 0.239575 0.259772 0.11455
H_ H_ 0.687341 0.284905 0.304812 0.11455
H_ H_ 0.675019 0.249954 0.350085 0.11455
H_ H_ 0.690177 0.295397 0.196026 0.11455
H_ H_ 0.620292 0.325042 0.0990536 0.11455
H_ H_ 0.709685 0.327366 0.106708 0.11455
H_ H_ 0.60264 0.300784 0.215482 0.11455
H_ H_ 0.513025 0.320392 0.210617 0.11455
H_ H_ 0.532924 0.340227 0.120163 0.11455
H_ H_ 0.845208 0.482384 0.193192 0.11455
H_ H_ 0.911739 0.060509 0.103375 0.11455
H_ H_ 0.908179 0.460721 0.110093 0.11455
H_ H_ 0.851547 0.0619902 0.21527 0.11455
H_ H_ 0.86307 0.156806 0.214127 0.11455
H_ H_ 0.884594 0.142533 0.121791 0.11455
H_ H_ 0.911751 0.386157 0.218893 0.11455
H_ H_ 0.929304 0.4151 0.266554 0.11455
H_ H_ 0.875987 0.376603 0.30628 0.11455
H_ H_ 0.803016 0.244941 0.224169 0.11455
H_ H_ 0.771648 0.194404 0.263492 0.11455
H_ H_ 0.791533 0.217659 0.314132 0.11455
H_ H_ 0.980578 0.316143 0.371675 0.11455
H_ H_ -0.008438999999999974 0.305245 0.422207 0.11455
H_ H_ 0.732262 0.315208 0.39048 0.11455
H_ H_ 0.746251 0.309752 0.44367 0.11455
H_ H_ 0.917509 0.40602 0.500102 0.11455
H_ H_ 0.96294 0.425942 0.0500757 0.11455
H_ H_ 0.916922 0.380405 0.0891338 0.11455
H_ H_ 0.86873 0.233888 0.00900693 0.11455
H_ H_ 0.823962 0.190839 0.0504667 0.11455
H_ H_ 0.814929 0.23529 0.0969918 0.11455
C_ C_ 0.719529 0.187461 0.408704 0.68181
C_ C_ 0.775888 0.18732 0.404002 -0.05681
C_ C_ 0.807052 0.187584 0.426806 -0.08735
C_ C_ 0.859686 0.18194 0.421353 -0.05681
C_ C_ 0.878973 0.182797 0.392647 -0.05681
C_ C_ 0.846348 0.17959 0.370691 -0.08735
C_ C_ 0.794687 0.180544 0.374883 -0.08735
C_ C_ 0.893367 0.177024 0.444719 -0.08735
C_ C_ 0.944858 0.182454 0.439955 -0.08735
C_ C_ 0.964903 0.181579 0.411844 -0.05681
C_ C_ 0.932735 0.181219 0.388225 -0.08735
C_ C_ 0.607504 0.282606 0.415236 0.68181
C_ C_ 0.630264 0.0826899 0.406239 0.68181
C_ C_ 0.629611 0.0265098 0.403566 -0.05681
C_ C_ 0.641708 0.495284 0.422575 -0.08735
C_ C_ 0.630246 0.443864 0.420847 -0.05681
C_ C_ 0.610401 0.421391 0.395693 -0.05681
C_ C_ 0.604567 0.450919 0.371089 -0.08735
C_ C_ 0.611574 0.503314 0.373513 -0.08735
C_ C_ 0.642531 0.411767 0.442322 -0.08735
C_ C_ 0.632445 0.359432 0.441552 -0.08735
C_ C_ 0.609411 0.337491 0.416201 -0.05681
C_ C_ 0.59493 0.369555 0.394448 -0.08735
C_ C_ 0.520391 0.166008 0.412504 0.68181
C_ C_ 0.591868 0.129494 0.486864 0.1947
C_ C_ 0.601199 0.104696 0.0143873 -0.08735
C_ C_ 0.616116 0.137216 0.0358899 -0.08735
C_ C_ 0.64474 0.180801 0.0309113 -0.05681
C_ C_ 0.654932 0.194757 1.00245025 0.18498
C_ C_ 0.675003 0.242648 0.495556 -0.08735
C_ C_ 0.716359 0.25591 0.0211846 -0.08735
C_ C_ 0.701901 0.246762 0.0487043 -0.08735
C_ C_ 0.664684 0.208427 0.0541574 0.18498
C_ C_ 0.692959 0.183378 0.101825 0.44287
C_ C_ 0.605004 0.20285 0.0942496 0.44287
C_ C_ 0.594863 0.18939 0.123066 -0.05681
C_ C_ 0.547385 0.195517 0.135235 -0.08735
C_ C_ 0.538175 0.195041 0.165166 -0.08735
C_ C_ 0.576951 0.186593 0.183656 -0.05681
C_ C_ 0.627674 0.181153 0.173222 -0.05681
C_ C_ 0.634734 0.182245 0.142098 -0.05681
C_ C_ 0.683759 0.173648 0.130869 -0.05681
C_ C_ 0.724953 0.169019 0.150208 -0.08735
C_ C_ 0.714556 0.159115 0.179965 -0.08735
C_ C_ 0.665708 0.166159 0.191796 -0.05681
C_ C_ 0.654039 0.16059 0.220435 0.44287
C_ C_ 0.570472 0.186991 0.213438 0.44287
C_ C_ 0.594818 0.158162 0.261163 0.18498
C_ C_ 0.562569 0.119565 0.265973 -0.08735
C_ C_ 0.551871 0.101246 0.293999 -0.08735
C_ C_ 0.575518 0.123181 0.316823 -0.08735
C_ C_ 0.608169 0.166088 0.313302 0.18498
C_ C_ 0.618147 0.181873 0.284239 -0.05681
C_ C_ 0.646644 0.225106 0.281077 -0.08735
C_ C_ 0.666748 0.250124 0.305397 -0.08735
C_ C_ 0.656939 0.231394 0.332507 0.1947
C_ C_ 0.761003 0.309634 0.15619 0.68181
C_ C_ 0.70671 0.308937 0.151943 -0.05681
C_ C_ 0.672891 0.305852 0.175706 -0.08735
C_ C_ 0.621066 0.312108 0.171295 -0.05681
C_ C_ 0.600967 0.320334 0.144259 -0.05681
C_ C_ 0.634376 0.320711 0.120125 -0.08735
C_ C_ 0.685771 0.319871 0.124549 -0.08735
C_ C_ 0.588013 0.31322 0.195118 -0.08735
C_ C_ 0.537027 0.3227 0.191781 -0.08735
C_ C_ 0.514916 0.322654 0.163968 -0.05681
C_ C_ 0.548931 0.328563 0.14118 -0.08735
C_ C_ 0.871562 0.213799 0.163999 0.68181
C_ C_ 0.865689 0.410817 0.15279 0.68181
C_ C_ 0.870246 0.466417 0.151128 -0.05681
C_ C_ 0.8584 -0.003932999999999964 0.171615 -0.08735
C_ C_ 0.861102 0.049129 0.170305 -0.05681
C_ C_ 0.87574 0.0707857 0.143983 -0.05681
C_ C_ 0.893308 0.0407983 0.121567 -0.08735
C_ C_ 0.894609 0.486577 0.126433 -0.08735
C_ C_ 0.858308 0.0805669 0.195585 -0.08735
C_ C_ 0.864632 0.133203 0.194067 -0.08735
C_ C_ 0.871135 0.156595 0.166786 -0.05681
C_ C_ 0.876258 0.124627 0.141954 -0.08735
C_ C_ 0.958192 0.316036 0.159478 0.68181
C_ C_ 0.890104 0.369477 0.235712 0.1947
C_ C_ 0.897947 0.386725 0.262594 -0.08735
C_ C_ 0.873012 0.362623 0.285005 -0.08735
C_ C_ 0.844864 0.318869 0.280358 -0.05681
C_ C_ 0.836776 0.30212 0.251547 0.18498
C_ C_ 0.810444 0.257393 0.245762 -0.08735
C_ C_ 0.793515 0.228202 0.267943 -0.08735
C_ C_ 0.805915 0.240822 0.297231 -0.08735
C_ C_ 0.831271 0.286702 0.303417 0.18498
C_ C_ 0.80309 0.304088 0.351011 0.44287
C_ C_ 0.891913 0.295646 0.342912 0.44287
C_ C_ 0.90183 0.306612 0.37188 -0.05681
C_ C_ 0.949105 0.307732 0.383987 -0.08735
C_ C_ 0.955958 0.308473 0.414841 -0.08735
C_ C_ 0.915585 0.313823 0.433051 -0.05681
C_ C_ 0.866762 0.318119 0.421036 -0.05681
C_ C_ 0.859281 0.314156 0.390983 -0.05681
C_ C_ 0.810006 0.311535 0.380336 -0.05681
C_ C_ 0.770508 0.314897 0.399091 -0.08735
C_ C_ 0.776626 0.318696 0.428735 -0.08735
C_ C_ 0.825717 0.319446 0.440712 -0.05681
C_ C_ 0.834747 0.316459 0.471298 0.44287
C_ C_ 0.921888 0.317216 0.462821 0.44287
C_ C_ 0.907165 0.330276 0.0104878 0.18498
C_ C_ 0.938242 0.37279 0.0170623 -0.08735
C_ C_ 0.940798 0.392108 0.045157 -0.08735
C_ C_ 0.914286 0.367052 0.0668363 -0.08735
C_ C_ 0.885738 0.321582 0.0626476 0.18498
C_ C_ 0.88494 0.301172 0.0334348 -0.05681
C_ C_ 0.863514 0.252906 0.0292877 -0.08735
C_ C_ 0.839665 0.228299 0.05203 -0.08735
C_ C_ 0.834506 0.254921 0.0784019 0.1947
N_ N_ 0.621579 0.171283 0.480926 -0.29468
N_ N_ 0.653585 0.193778 0.0833802 -0.17154
N_ N_ 0.607746 0.172323 0.231556 -0.17154
N_ N_ 0.620714 0.194845 0.335625 -0.29468
N_ N_ 0.857826 0.329984 0.229762 -0.29468
N_ N_ 0.84318 0.29539 0.333059 -0.17154
N_ N_ 0.884245 0.316685 0.481446 -0.17154
N_ N_ 0.863481 0.296092 0.0847596 -0.29468
O_ O_ 0.699336 0.188917 0.433427 -0.58347
O_ O_ 0.692403 0.185951 0.386456 -0.58347
O_ O_ 0.605575 0.255781 0.43783 -0.58347
O_ O_ 0.609281 0.259059 0.391211 -0.58347
O_ O_ 0.626829 0.104022 0.430215 -0.58347
O_ O_ 0.621676 0.108651 0.38355 -0.58347
O_ O_ 0.549757 0.166135 0.43405 -0.58347
O_ O_ 0.540948 0.174204 0.387411 -0.58347
O_ O_ 0.567508 0.218059 0.0767776 -0.46727
O_ O_ 0.73866 0.181185 0.0922588 -0.46727
O_ O_ 0.52388 0.194208 0.223992 -0.46727
O_ O_ 0.689226 0.142079 0.237068 -0.46727
O_ O_ 0.780106 0.316192 0.180943 -0.58347
O_ O_ 0.790118 0.302109 0.135315 -0.58347
O_ O_ 0.864585 0.239244 0.18664 -0.58347
O_ O_ 0.867668 0.235262 0.140951 -0.58347
O_ O_ 0.859216 0.390246 0.177048 -0.58347
O_ O_ 0.859289 0.385647 0.129543 -0.58347
O_ O_ 0.931203 0.316441 0.182893 -0.58347
O_ O_ 0.936961 0.322291 0.135338 -0.58347
O_ O_ 0.928271 0.288789 0.324221 -0.46727
O_ O_ 0.756077 0.307364 0.34 -0.46727
O_ O_ 0.969403 0.314153 0.473167 -0.46727
O_ O_ 0.797205 0.321624 0.489981 -0.46727
Zn Zn 0.631216 0.183522 0.885846 0.90689
Zn Zn 0.640751 0.17989 0.932282 0.90689
Zn Zn 0.869546 0.314514 0.631422 0.90689
Zn Zn 0.86542 0.31882 0.681029 0.90689
H_ H_ 0.807489 0.187871 0.949486 0.11455
H_ H_ 0.874881 0.16534 0.85107 0.11455
H_ H_ 0.785242 0.159747 0.859149 0.11455
H_ H_ 0.896196 0.19001 0.968433 0.11455
H_ H_ 0.98795 0.180175 0.958806 0.11455
H_ H_ 0.959004 0.161136 0.8696 0.11455
H_ H_ 0.62925 0.0110428 0.94472 0.11455
H_ H_ 0.678345 0.430799 0.852363 0.11455
H_ H_ 0.664119 0.0269546 0.854337 0.11455
H_ H_ 0.63339 0.435696 0.966604 0.11455
H_ H_ 0.633481 0.341316 0.965736 0.11455
H_ H_ 0.658271 0.346433 0.876307 0.11455
H_ H_ 0.592327 0.101987 0.968768 0.11455
H_ H_ 0.567135 0.0736636 0.519492 0.11455
H_ H_ 0.606755 0.122961 0.558204 0.11455
H_ H_ 0.696983 0.24835 0.975779 0.11455
H_ H_ 0.71649 0.307901 0.512166 0.11455
H_ H_ 0.687502 0.287495 0.562448 0.11455
H_ H_ 0.529519 0.23697 0.633374 0.11455
H_ H_ 0.528782 0.233982 0.684012 0.11455
H_ H_ 0.763963 0.143081 0.632218 0.11455
H_ H_ 0.754432 0.11963 0.680641 0.11455
H_ H_ 0.596838 0.0849743 0.749678 0.11455
H_ H_ 0.570144 0.0635367 0.799598 0.11455
H_ H_ 0.566166 0.131061 0.836653 0.11455
H_ H_ 0.68932 0.237871 0.762353 0.11455
H_ H_ 0.711609 0.290307 0.804131 0.11455
H_ H_ 0.694532 0.256933 0.853299 0.11455
H_ H_ 0.697585 0.325251 0.696278 0.11455
H_ H_ 0.624789 0.343222 0.599473 0.11455
H_ H_ 0.717245 0.335107 0.605818 0.11455
H_ H_ 0.607276 0.317001 0.715889 0.11455
H_ H_ 0.518949 0.334053 0.710109 0.11455
H_ H_ 0.538723 0.354455 0.620405 0.11455
H_ H_ 0.880036 0.49072 0.689867 0.11455
H_ H_ 0.928315 0.0669512 0.602008 0.11455
H_ H_ 0.854573 0.475494 0.598838 0.11455
H_ H_ 0.875784 0.073903 0.716022 0.11455
H_ H_ 0.859416 0.163119 0.70829 0.11455
H_ H_ 0.901487 0.150403 0.619974 0.11455
H_ H_ 0.921522 0.392872 0.718578 0.11455
H_ H_ 0.916758 0.427663 0.768144 0.11455
H_ H_ 0.892402 0.373849 0.806996 0.11455
H_ H_ 0.810653 0.247981 0.724792 0.11455
H_ H_ 0.787676 0.19307 0.762991 0.11455
H_ H_ 0.805457 0.218563 0.815078 0.11455
H_ H_ 0.999634 0.291942 0.871594 0.11455
H_ H_ 0.0135054 0.29814 0.9216 0.11455
H_ H_ 0.746695 0.322289 0.893958 0.11455
H_ H_ 0.765463 0.346436 0.942264 0.11455
H_ H_ 0.957001 0.391446 1.000563069 0.11455
H_ H_ 0.93836 0.436981 0.546899 0.11455
H_ H_ 0.91149 0.383907 0.587763 0.11455
H_ H_ 0.852275 0.232876 0.511039 0.11455
H_ H_ 0.81557 0.193052 0.553442 0.11455
H_ H_ 0.816327 0.234802 0.597347 0.11455
C_ C_ 0.735635 0.181042 0.909297 0.68181
C_ C_ 0.790977 0.174826 0.905716 -0.05681
C_ C_ 0.822629 0.18339 0.927628 -0.08735
C_ C_ 0.87623 0.180716 0.924039 -0.05681
C_ C_ 0.895313 0.172711 0.896289 -0.05681
C_ C_ 0.861865 0.168858 0.873222 -0.08735
C_ C_ 0.809955 0.166428 0.877602 -0.08735
C_ C_ 0.91051 0.185061 0.946349 -0.08735
C_ C_ 0.96291 0.173763 0.941385 -0.08735
C_ C_ 0.981461 0.166142 0.91383 -0.05681
C_ C_ 0.947282 0.171186 0.890751 -0.08735
C_ C_ 0.633912 0.279232 0.918082 0.68181
C_ C_ 0.638262 0.0839148 0.900582 0.68181
C_ C_ 0.641791 0.0281876 0.898735 -0.05681
C_ C_ 0.643177 0.495991 0.923674 -0.08735
C_ C_ 0.64737 0.443582 0.923159 -0.05681
C_ C_ 0.652295 0.418171 0.895794 -0.05681
C_ C_ 0.66646 0.448469 0.871675 -0.08735
C_ C_ 0.668147 0.500888 0.87365 -0.08735
C_ C_ 0.64003 0.414392 0.947927 -0.08735
C_ C_ 0.636413 0.362211 0.946753 -0.08735
C_ C_ 0.635737 0.336846 0.919367 -0.05681
C_ C_ 0.646126 0.364798 0.894596 -0.08735
C_ C_ 0.536174 0.183903 0.907394 0.68181
C_ C_ 0.609942 0.122372 0.986327 0.1947
C_ C_ 0.587929 0.110616 0.514564 -0.08735
C_ C_ 0.60973 0.138909 0.537099 -0.08735
C_ C_ 0.639428 0.181648 0.531477 -0.05681
C_ C_ 0.648157 0.19651 0.502756 0.18498
C_ C_ 0.692447 0.232981 0.997412 -0.08735
C_ C_ 0.694135 0.271785 0.517634 -0.08735
C_ C_ 0.678329 0.261593 0.545204 -0.08735
C_ C_ 0.656301 0.215445 0.553525 0.18498
C_ C_ 0.693382 0.187747 0.597745 0.44287
C_ C_ 0.607175 0.210206 0.598252 0.44287
C_ C_ 0.605011 0.208255 0.628626 -0.05681
C_ C_ 0.560133 0.218176 0.643577 -0.08735
C_ C_ 0.560058 0.218226 0.673411 -0.08735
C_ C_ 0.603015 0.201128 0.687858 -0.05681
C_ C_ 0.645223 0.184495 0.672516 -0.05681
C_ C_ 0.648417 0.19318 0.642893 -0.05681
C_ C_ 0.693116 0.179724 0.627193 -0.05681
C_ C_ 0.733184 0.157729 0.64332 -0.08735
C_ C_ 0.725062 0.140641 0.670765 -0.08735
C_ C_ 0.683907 0.157424 0.687546 -0.05681
C_ C_ 0.679862 0.148795 0.718036 0.44287
C_ C_ 0.604743 0.197155 0.719297 0.44287
C_ C_ 0.630873 0.156342 0.762766 0.18498
C_ C_ 0.605204 0.11 0.767374 -0.08735
C_ C_ 0.58915 0.0992426 0.795372 -0.08735
C_ C_ 0.594439 0.133811 0.818114 -0.08735
C_ C_ 0.627974 0.175476 0.814713 0.18498
C_ C_ 0.642032 0.190106 0.78599 -0.05681
C_ C_ 0.668137 0.23468 0.782156 -0.08735
C_ C_ 0.687276 0.257496 0.806425 -0.08735
C_ C_ 0.674627 0.242358 0.834211 0.1947
C_ C_ 0.770741 0.324356 0.656296 0.68181
C_ C_ 0.714987 0.328133 0.651711 -0.05681
C_ C_ 0.680775 0.332465 0.675375 -0.08735
C_ C_ 0.628026 0.339379 0.672381 -0.05681
C_ C_ 0.607008 0.344409 0.645823 -0.05681
C_ C_ 0.639894 0.342147 0.622026 -0.08735
C_ C_ 0.692422 0.335353 0.624638 -0.08735
C_ C_ 0.593834 0.333558 0.69582 -0.08735
C_ C_ 0.542381 0.338477 0.691921 -0.08735
C_ C_ 0.5227 0.343375 0.66344 -0.05681
C_ C_ 0.555222 0.348318 0.640962 -0.08735
C_ C_ 0.876217 0.221074 0.659953 0.68181
C_ C_ 0.863011 0.416274 0.650156 0.68181
C_ C_ 0.865913 0.473309 0.645313 -0.05681
C_ C_ 0.889619 0.0059498 0.673287 -0.08735
C_ C_ 0.88858 0.0578229 0.67092 -0.05681
C_ C_ 0.896548 0.0811833 0.644359 -0.05681
C_ C_ 0.909751 0.0510388 0.620574 -0.08735
C_ C_ 0.859521 0.495543 0.618886 -0.08735
C_ C_ 0.881741 0.0877606 0.694414 -0.08735
C_ C_ 0.872225 0.141196 0.691003 -0.08735
C_ C_ 0.883586 0.164412 0.663836 -0.05681
C_ C_ 0.893649 0.135374 0.641035 -0.08735
C_ C_ 0.965438 0.324498 0.654368 0.68181
C_ C_ 0.900856 0.371646 0.735229 0.1947
C_ C_ 0.907833 0.388655 0.76287 -0.08735
C_ C_ 0.888635 0.359917 0.78545 -0.08735
C_ C_ 0.864073 0.313794 0.779909 -0.05681
C_ C_ 0.853396 0.299707 0.750859 0.18498
C_ C_ 0.818553 0.259196 0.746393 -0.08735
C_ C_ 0.807299 0.227788 0.768692 -0.08735
C_ C_ 0.81907 0.23994 0.796543 -0.08735
C_ C_ 0.847048 0.28367 0.802402 0.18498
C_ C_ 0.819433 0.310904 0.850508 0.44287
C_ C_ 0.906534 0.287219 0.843491 0.44287
C_ C_ 0.915959 0.297864 0.872562 -0.05681
C_ C_ 0.965007 0.298042 0.884444 -0.08735
C_ C_ 0.973282 0.304454 0.913967 -0.08735
C_ C_ 0.931587 0.309675 0.932541 -0.05681
C_ C_ 0.884334 0.317203 0.92073 -0.05681
C_ C_ 0.875306 0.307822 0.890795 -0.05681
C_ C_ 0.82648 0.312898 0.879725 -0.05681
C_ C_ 0.785144 0.322546 0.899804 -0.08735
C_ C_ 0.79622 0.33456 0.928406 -0.08735
C_ C_ 0.842895 0.325725 0.939529 -0.05681
C_ C_ 0.851535 0.323856 0.96959 0.44287
C_ C_ 0.939249 0.311847 0.962713 0.44287
C_ C_ 0.893101 0.331975 0.511393 0.18498
C_ C_ 0.913444 0.380553 0.517041 -0.08735
C_ C_ 0.925725 0.398904 0.5444 -0.08735
C_ C_ 0.90596 0.370492 0.567483 -0.08735
C_ C_ 0.885069 0.32037 0.563265 0.18498
C_ C_ 0.879131 0.301861 0.534937 -0.05681
C_ C_ 0.858749 0.250742 0.531207 -0.08735
C_ C_ 0.836115 0.227749 0.554408 -0.08735
C_ C_ 0.83865 0.251136 0.58037 0.1947
N_ N_ 0.638066 0.164947 0.980268 -0.29468
N_ N_ 0.652268 0.205409 0.584268 -0.17154
N_ N_ 0.64134 0.169342 0.732713 -0.17154
N_ N_ 0.644162 0.201322 0.838656 -0.29468
N_ N_ 0.872427 0.32805 0.728527 -0.29468
N_ N_ 0.858642 0.295395 0.83288 -0.17154
N_ N_ 0.897671 0.315794 0.980331 -0.17154
N_ N_ 0.863283 0.294534 0.585646 -0.29468
O_ O_ 0.714616 0.176634 0.933999 -0.58347
O_ O_ 0.707472 0.184528 0.888125 -0.58347
O_ O_ 0.633404 0.25324 0.940167 -0.58347
O_ O_ 0.63151 0.256488 0.894053 -0.58347
O_ O_ 0.640545 0.105149 0.924396 -0.58347
O_ O_ 0.637366 0.111666 0.87825 -0.58347
O_ O_ 0.563707 0.18004 0.929599 -0.58347
O_ O_ 0.555963 0.185021 0.882376 -0.58347
O_ O_ 0.567364 0.220307 0.583247 -0.46727
O_ O_ 0.735382 0.175936 0.5839 -0.46727
O_ O_ 0.574446 0.225943 0.73366 -0.46727
O_ O_ 0.714063 0.119903 0.730993 -0.46727
O_ O_ 0.790042 0.329307 0.680568 -0.58347
O_ O_ 0.7969 0.30163 0.637058 -0.58347
O_ O_ 0.85481 0.245656 0.680018 -0.58347
O_ O_ 0.892579 0.242117 0.636785 -0.58347
O_ O_ 0.869895 0.396808 0.674648 -0.58347
O_ O_ 0.852414 0.38713 0.629418 -0.58347
O_ O_ 0.939758 0.313266 0.676798 -0.58347
O_ O_ 0.943354 0.33647 0.631538 -0.58347
O_ O_ 0.941247 0.268081 0.827031 -0.46727
O_ O_ 0.777011 0.322139 0.838615 -0.46727
O_ O_ 0.985316 0.308818 0.974441 -0.46727
O_ O_ 0.813158 0.337187 0.986287 -0.46727
Zn Zn 0.61861 0.682401 0.383959 0.90689
Zn Zn 0.633293 0.675039 0.43058 0.90689
Zn Zn 0.870046 0.805911 0.129928 0.90689
Zn Zn 0.859232 0.816331 0.17817 0.90689
H_ H_ 0.797812 0.680496 0.44476 0.11455
H_ H_ 0.866196 0.71033 0.346978 0.11455
H_ H_ 0.774121 0.698355 0.352363 0.11455
H_ H_ 0.878696 0.674125 0.462428 0.11455
H_ H_ 0.971408 0.673201 0.456564 0.11455
H_ H_ 0.951293 0.699735 0.3641 0.11455
H_ H_ 0.648915 0.510916 0.44301 0.11455
H_ H_ 0.632743 0.933829 0.353865 0.11455
H_ H_ 0.610863 0.5271 0.353828 0.11455
H_ H_ 0.596435 0.923379 0.468528 0.11455
H_ H_ 0.596665 0.829715 0.461623 0.11455
H_ H_ 0.618545 0.854002 0.373465 0.11455
H_ H_ 0.582052 0.598693 0.465001 0.11455
H_ H_ 0.57411 0.578503 0.0110656 0.11455
H_ H_ 0.628586 0.609186 0.0531914 0.11455
H_ H_ 0.694615 0.73875 0.474147 0.11455
H_ H_ 0.72792 0.803181 0.0197769 0.11455
H_ H_ 0.709608 0.773763 0.0675694 0.11455
H_ H_ 0.515219 0.697702 0.119442 0.11455
H_ H_ 0.504004 0.684313 0.172275 0.11455
H_ H_ 0.764273 0.670261 0.143565 0.11455
H_ H_ 0.749557 0.657773 0.192658 0.11455
H_ H_ 0.567368 0.587109 0.249555 0.11455
H_ H_ 0.541665 0.563493 0.298074 0.11455
H_ H_ 0.561601 0.619831 0.338176 0.11455
H_ H_ 0.644667 0.749156 0.258629 0.11455
H_ H_ 0.669371 0.803954 0.300403 0.11455
H_ H_ 0.66255 0.77129 0.347819 0.11455
H_ H_ 0.693758 0.802757 0.195605 0.11455
H_ H_ 0.630782 0.844359 0.100018 0.11455
H_ H_ 0.718259 0.822234 0.107424 0.11455
H_ H_ 0.605527 0.797059 0.215956 0.11455
H_ H_ 0.513155 0.810649 0.210243 0.11455
H_ H_ 0.53634 0.83736 0.119237 0.11455
H_ H_ 0.850709 0.977407 0.191926 0.11455
H_ H_ 0.912099 0.553062 0.102842 0.11455
H_ H_ 0.886333 0.968197 0.101962 0.11455
H_ H_ 0.829132 0.569754 0.21222 0.11455
H_ H_ 0.839462 0.659207 0.208615 0.11455
H_ H_ 0.904812 0.640494 0.124553 0.11455
H_ H_ 0.912129 0.896349 0.211096 0.11455
H_ H_ 0.915561 0.939738 0.259936 0.11455
H_ H_ 0.857952 0.904934 0.297008 0.11455
H_ H_ 0.813215 0.751654 0.222762 0.11455
H_ H_ 0.773088 0.711044 0.264012 0.11455
H_ H_ 0.791915 0.74208 0.312647 0.11455
H_ H_ 0.983409 0.800252 0.364487 0.11455
H_ H_ 0.0016300000000000203 0.804994 0.414783 0.11455
H_ H_ 0.740068 0.863134 0.390987 0.11455
H_ H_ 0.758099 0.869814 0.441721 0.11455
H_ H_ 0.959956 0.905656 0.496747 0.11455
H_ H_ 0.950647 0.928374 0.0428941 0.11455
H_ H_ 0.917822 0.879535 0.0848234 0.11455
H_ H_ 0.844385 0.740663 0.00544837 0.11455
H_ H_ 0.816256 0.693537 0.0475568 0.11455
H_ H_ 0.814828 0.733618 0.0943781 0.11455
C_ C_ 0.722083 0.683119 0.404334 0.68181
C_ C_ 0.778145 0.69071 0.39921 -0.05681
C_ C_ 0.810643 0.688952 0.42218 -0.08735
C_ C_ 0.862305 0.691258 0.418896 -0.05681
C_ C_ 0.883016 0.696402 0.391081 -0.05681
C_ C_ 0.850241 0.703387 0.367545 -0.08735
C_ C_ 0.798717 0.698529 0.370853 -0.08735
C_ C_ 0.894939 0.682592 0.441576 -0.08735
C_ C_ 0.947059 0.677506 0.437317 -0.08735
C_ C_ 0.96963 0.682993 0.408947 -0.05681
C_ C_ 0.935031 0.692318 0.386621 -0.08735
C_ C_ 0.612901 0.778866 0.412901 0.68181
C_ C_ 0.634591 0.582069 0.401299 0.68181
C_ C_ 0.628233 0.526983 0.398693 -0.05681
C_ C_ 0.615114 0.995139 0.428081 -0.08735
C_ C_ 0.610089 0.942334 0.425114 -0.05681
C_ C_ 0.620659 0.920325 0.39776 -0.05681
C_ C_ 0.628796 0.951638 0.373673 -0.08735
C_ C_ 0.640873 1.00318018 0.378227 -0.08735
C_ C_ 0.608261 0.909799 0.448234 -0.08735
C_ C_ 0.609112 0.856302 0.444921 -0.08735
C_ C_ 0.617601 0.835334 0.418156 -0.05681
C_ C_ 0.617167 0.868012 0.394559 -0.08735
C_ C_ 0.527045 0.671104 0.409213 0.68181
C_ C_ 0.594723 0.623493 0.482471 0.1947
C_ C_ 0.602173 0.608883 0.00967935 -0.08735
C_ C_ 0.627795 0.629567 0.0334337 -0.08735
C_ C_ 0.651435 0.677811 0.0308181 -0.05681
C_ C_ 0.661543 0.694746 1.00303138 0.18498
C_ C_ 0.681606 0.732155 0.495393 -0.08735
C_ C_ 0.708312 0.768849 0.0225367 -0.08735
C_ C_ 0.691915 0.754883 0.0500396 -0.08735
C_ C_ 0.667579 0.707856 0.0551084 0.18498
C_ C_ 0.693754 0.67959 0.101671 0.44287
C_ C_ 0.607273 0.699482 0.0943194 0.44287
C_ C_ 0.596968 0.687906 0.122896 -0.05681
C_ C_ 0.547652 0.692929 0.134283 -0.08735
C_ C_ 0.54079 0.691472 0.164868 -0.08735
C_ C_ 0.579534 0.684207 0.184357 -0.05681
C_ C_ 0.627419 0.679761 0.172431 -0.05681
C_ C_ 0.635543 0.67806 0.142683 -0.05681
C_ C_ 0.686644 0.677375 0.131998 -0.05681
C_ C_ 0.726368 0.671236 0.151424 -0.08735
C_ C_ 0.717946 0.667975 0.180259 -0.08735
C_ C_ 0.66894 0.671768 0.192318 -0.05681
C_ C_ 0.659352 0.668458 0.222665 0.44287
C_ C_ 0.57108 0.681082 0.21469 0.44287
C_ C_ 0.602229 0.658058 0.261515 0.18498
C_ C_ 0.577597 0.611911 0.26761 -0.08735
C_ C_ 0.561914 0.598889 0.294766 -0.08735
C_ C_ 0.577562 0.630094 0.3179 -0.08735
C_ C_ 0.606668 0.675045 0.313353 0.18498
C_ C_ 0.614514 0.691387 0.284948 -0.05681
C_ C_ 0.635863 0.739372 0.279866 -0.08735
C_ C_ 0.649022 0.768341 0.302531 -0.08735
C_ C_ 0.638744 0.752328 0.331185 0.1947
C_ C_ 0.765458 0.803907 0.155494 0.68181
C_ C_ 0.710896 0.809592 0.151475 -0.05681
C_ C_ 0.67891 0.810277 0.174627 -0.08735
C_ C_ 0.626452 0.815069 0.172179 -0.05681
C_ C_ 0.606035 0.824201 0.144181 -0.05681
C_ C_ 0.639797 0.82867 0.120046 -0.08735
C_ C_ 0.691148 0.817947 0.124466 -0.08735
C_ C_ 0.592063 0.811689 0.195508 -0.08735
C_ C_ 0.540322 0.816127 0.19098 -0.08735
C_ C_ 0.521202 0.8255 0.163406 -0.05681
C_ C_ 0.554605 0.831604 0.140701 -0.08735
C_ C_ 0.877357 0.711804 0.162235 0.68181
C_ C_ 0.857007 0.909535 0.148964 0.68181
C_ C_ 0.866173 0.965464 0.147774 -0.05681
C_ C_ 0.863465 0.499409 0.174669 -0.08735
C_ C_ 0.867302 0.551337 0.172665 -0.05681
C_ C_ 0.885816 0.571403 0.1474 -0.05681
C_ C_ 0.901675 0.538716 0.124486 -0.08735
C_ C_ 0.882019 0.988946 0.121692 -0.08735
C_ C_ 0.850534 0.583491 0.194622 -0.08735
C_ C_ 0.853595 0.634793 0.191369 -0.08735
C_ C_ 0.872016 0.65719 0.166072 -0.05681
C_ C_ 0.89421 0.624761 0.145908 -0.08735
C_ C_ 0.964186 0.825257 0.151069 0.68181
C_ C_ 0.89653 0.879471 0.229227 0.1947
C_ C_ 0.893217 0.907357 0.254557 -0.08735
C_ C_ 0.864546 0.884829 0.276704 -0.08735
C_ C_ 0.850795 0.833566 0.275211 -0.05681
C_ C_ 0.845946 0.812903 0.247438 0.18498
C_ C_ 0.818381 0.768303 0.243215 -0.08735
C_ C_ 0.799599 0.741106 0.267454 -0.08735
C_ C_ 0.805126 0.762887 0.294675 -0.08735
C_ C_ 0.830719 0.80725 0.2988 0.18498
C_ C_ 0.806478 0.83573 0.347489 0.44287
C_ C_ 0.893488 0.820637 0.337547 0.44287
C_ C_ 0.907012 0.827146 0.367123 -0.05681
C_ C_ 0.954755 0.809844 0.377757 -0.08735
C_ C_ 0.963875 0.813486 0.407114 -0.08735
C_ C_ 0.92499 0.81963 0.427047 -0.05681
C_ C_ 0.875749 0.834766 0.417218 -0.05681
C_ C_ 0.866321 0.835513 0.387151 -0.05681
C_ C_ 0.816416 0.84287 0.377088 -0.05681
C_ C_ 0.77855 0.855397 0.397305 -0.08735
C_ C_ 0.788823 0.857298 0.427903 -0.08735
C_ C_ 0.838154 0.844711 0.437051 -0.05681
C_ C_ 0.847218 0.845378 0.465692 0.44287
C_ C_ 0.933163 0.82264 0.457116 0.44287
C_ C_ 0.890218 0.831945 0.00689947 0.18498
C_ C_ 0.920537 0.876289 0.0118818 -0.08735
C_ C_ 0.929037 0.894821 0.0398379 -0.08735
C_ C_ 0.910559 0.867862 0.0636525 -0.08735
C_ C_ 0.878457 0.824836 0.0591205 0.18498
C_ C_ 0.870271 0.806138 0.0301185 -0.05681
C_ C_ 0.846942 0.758074 0.0262989 -0.08735
C_ C_ 0.827071 0.732284 0.0501728 -0.08735
C_ C_ 0.827291 0.757603 0.0767343 0.1947
N_ N_ 0.626619 0.66407 0.478089 -0.29468
N_ N_ 0.655156 0.693711 0.0840919 -0.17154
N_ N_ 0.610551 0.671336 0.23307 -0.17154
N_ N_ 0.620323 0.704894 0.335833 -0.29468
N_ N_ 0.866071 0.838513 0.224157 -0.29468
N_ N_ 0.844678 0.824738 0.328289 -0.17154
N_ N_ 0.894397 0.835525 0.476037 -0.17154
N_ N_ 0.858585 0.799436 0.0814554 -0.29468
O_ O_ 0.705971 0.678387 0.430181 -0.58347
O_ O_ 0.690616 0.690031 0.38416 -0.58347
O_ O_ 0.625807 0.751332 0.433766 -0.58347
O_ O_ 0.611251 0.758563 0.388906 -0.58347
O_ O_ 0.639222 0.601035 0.426417 -0.58347
O_ O_ 0.631617 0.609591 0.378876 -0.58347
O_ O_ 0.555796 0.669926 0.430894 -0.58347
O_ O_ 0.545991 0.67199 0.384534 -0.58347
O_ O_ 0.571964 0.716507 0.0773443 -0.46727
O_ O_ 0.739515 0.671858 0.0917445 -0.46727
O_ O_ 0.523557 0.677455 0.224853 -0.46727
O_ O_ 0.697306 0.654467 0.239146 -0.46727
O_ O_ 0.785911 0.809261 0.180017 -0.58347
O_ O_ 0.795618 0.800385 0.134436 -0.58347
O_ O_ 0.867433 0.742166 0.182312 -0.58347
O_ O_ 0.882657 0.730521 0.136444 -0.58347
O_ O_ 0.853639 0.887363 0.172451 -0.58347
O_ O_ 0.858179 0.882805 0.126444 -0.58347
O_ O_ 0.935207 0.826243 0.172526 -0.58347
O_ O_ 0.944578 0.816572 0.127454 -0.58347
O_ O_ 0.929239 0.814009 0.317403 -0.46727
O_ O_ 0.760496 0.835025 0.337305 -0.46727
O_ O_ 0.980774 0.813185 0.466544 -0.46727
O_ O_ 0.812621 0.860949 0.483479 -0.46727
Zn Zn 0.63772 0.680784 0.884428 0.90689
Zn Zn 0.647655 0.682353 0.931786 0.90689
Zn Zn 0.881733 0.817937 0.628879 0.90689
Zn Zn 0.871702 0.824136 0.678066 0.90689
H_ H_ 0.819358 0.705985 0.951921 0.11455
H_ H_ 0.880203 0.679674 0.851122 0.11455
H_ H_ 0.790147 0.690425 0.859677 0.11455
H_ H_ 0.905962 0.702215 0.968719 0.11455
H_ H_ 0.999226 0.689293 0.9596 0.11455
H_ H_ 0.964251 0.670232 0.869161 0.11455
H_ H_ 0.631758 0.515366 0.94299 0.11455
H_ H_ 0.65549 0.937954 0.849441 0.11455
H_ H_ 0.667292 0.519471 0.854932 0.11455
H_ H_ 0.617262 0.928177 0.964645 0.11455
H_ H_ 0.634312 0.837947 0.960364 0.11455
H_ H_ 0.636878 0.847529 0.868701 0.11455
H_ H_ 0.588473 0.614838 0.963583 0.11455
H_ H_ 0.566437 0.57284 0.512708 0.11455
H_ H_ 0.594028 0.62072 0.555226 0.11455
H_ H_ 0.702677 0.751811 0.978278 0.11455
H_ H_ 0.727899 0.788887 0.515456 0.11455
H_ H_ 0.703905 0.763597 0.564857 0.11455
H_ H_ 0.513251 0.703484 0.625675 0.11455
H_ H_ 0.503415 0.696922 0.675125 0.11455
H_ H_ 0.762167 0.677947 0.639812 0.11455
H_ H_ 0.754003 0.662775 0.692077 0.11455
H_ H_ 0.572539 0.584327 0.751486 0.11455
H_ H_ 0.545887 0.565978 0.801818 0.11455
H_ H_ 0.586411 0.612468 0.841747 0.11455
H_ H_ 0.655033 0.752542 0.762114 0.11455
H_ H_ 0.690454 0.799514 0.803287 0.11455
H_ H_ 0.677319 0.763596 0.851862 0.11455
H_ H_ 0.706221 0.817014 0.692415 0.11455
H_ H_ 0.632547 0.813393 0.594672 0.11455
H_ H_ 0.725066 0.81758 0.601128 0.11455
H_ H_ 0.618429 0.826733 0.713356 0.11455
H_ H_ 0.528794 0.820155 0.706711 0.11455
H_ H_ 0.550777 0.83427 0.615296 0.11455
H_ H_ 0.886919 0.989026 0.695216 0.11455
H_ H_ 0.844632 0.565185 0.595955 0.11455
H_ H_ 0.903163 0.976537 0.601955 0.11455
H_ H_ 0.890105 0.575332 0.7105 0.11455
H_ H_ 0.900407 0.668059 0.704074 0.11455
H_ H_ 0.871848 0.647974 0.614019 0.11455
H_ H_ 0.905731 0.90841 0.71589 0.11455
H_ H_ 0.925099 0.927231 0.765048 0.11455
H_ H_ 0.907957 0.865761 0.802977 0.11455
H_ H_ 0.822088 0.744979 0.718953 0.11455
H_ H_ 0.792799 0.693041 0.755486 0.11455
H_ H_ 0.809175 0.712786 0.805444 0.11455
H_ H_ 0.996864 0.799822 0.87151 0.11455
H_ H_ 1.00078819 0.795855 0.924671 0.11455
H_ H_ 0.740072 0.827962 0.884985 0.11455
H_ H_ 0.750268 0.816993 0.934409 0.11455
H_ H_ 0.933006 0.898106 0.993461 0.11455
H_ H_ 0.985877 0.924925 0.546395 0.11455
H_ H_ 0.949651 0.87458 0.586377 0.11455
H_ H_ 0.846983 0.760354 0.504873 0.11455
H_ H_ 0.81086 0.715229 0.54622 0.11455
H_ H_ 0.821108 0.752414 0.594703 0.11455
C_ C_ 0.741148 0.687191 0.910208 0.68181
C_ C_ 0.796979 0.694115 0.906931 -0.05681
C_ C_ 0.831753 0.69514 0.930414 -0.08735
C_ C_ 0.884649 0.686437 0.925207 -0.05681
C_ C_ 0.899791 0.68043 0.896061 -0.05681
C_ C_ 0.866468 0.684702 0.873131 -0.08735
C_ C_ 0.815065 0.686115 0.877984 -0.08735
C_ C_ 0.919119 0.689734 0.947394 -0.08735
C_ C_ 0.971423 0.68709 0.941333 -0.08735
C_ C_ 0.988341 0.678887 0.912608 -0.05681
C_ C_ 0.951425 0.673412 0.890466 -0.08735
C_ C_ 0.629399 0.777488 0.9136 0.68181
C_ C_ 0.651407 0.583317 0.900741 0.68181
C_ C_ 0.656918 0.526413 0.89985 -0.05681
C_ C_ 0.627113 -0.0024170000000000025 0.922441 -0.08735
C_ C_ 0.621596 0.942832 0.919429 -0.05681
C_ C_ 0.627743 0.920837 0.892483 -0.05681
C_ C_ 0.642447 0.953633 0.870151 -0.08735
C_ C_ 0.647141 0.00591079 0.871932 -0.08735
C_ C_ 0.615113 0.912524 0.943648 -0.08735
C_ C_ 0.620803 0.859634 0.941265 -0.08735
C_ C_ 0.624568 0.834372 0.915133 -0.05681
C_ C_ 0.63245 0.866105 0.889444 -0.08735
C_ C_ 0.542495 0.674866 0.903693 0.68181
C_ C_ 0.606478 0.633224 0.983114 0.1947
C_ C_ 0.585759 0.606349 0.510597 -0.08735
C_ C_ 0.605959 0.632602 0.533814 -0.08735
C_ C_ 0.636255 0.674699 0.529606 -0.05681
C_ C_ 0.647261 0.690827 0.500871 0.18498
C_ C_ 0.689183 0.741251 0.998885 -0.08735
C_ C_ 0.706076 0.755068 0.519471 -0.08735
C_ C_ 0.689563 0.741466 0.547536 -0.08735
C_ C_ 0.658223 0.700548 0.553742 0.18498
C_ C_ 0.689151 0.676093 0.599011 0.44287
C_ C_ 0.601146 0.689536 0.594441 0.44287
C_ C_ 0.592897 0.684272 0.625085 -0.05681
C_ C_ 0.546177 0.69314 0.637691 -0.08735
C_ C_ 0.541315 0.690347 0.667538 -0.08735
C_ C_ 0.582184 0.681748 0.685444 -0.05681
C_ C_ 0.630873 0.679474 0.672732 -0.05681
C_ C_ 0.636057 0.676941 0.642448 -0.05681
C_ C_ 0.684617 0.66879 0.629771 -0.05681
C_ C_ 0.725239 0.675446 0.649074 -0.08735
C_ C_ 0.720413 0.669563 0.678364 -0.08735
C_ C_ 0.672537 0.671971 0.690441 -0.05681
C_ C_ 0.665377 0.670589 0.720839 0.44287
C_ C_ 0.576704 0.673582 0.714666 0.44287
C_ C_ 0.611789 0.655378 0.762945 0.18498
C_ C_ 0.584287 0.611073 0.768768 -0.08735
C_ C_ 0.57236 0.598085 0.797605 -0.08735
C_ C_ 0.591826 0.627294 0.819918 -0.08735
C_ C_ 0.616333 0.673516 0.816161 0.18498
C_ C_ 0.62764 0.688015 0.786962 -0.05681
C_ C_ 0.651468 0.733598 0.78285 -0.08735
C_ C_ 0.673925 0.76083 0.80566 -0.08735
C_ C_ 0.66818 0.740365 0.833038 0.1947
C_ C_ 0.777706 0.818286 0.651137 0.68181
C_ C_ 0.724238 0.814489 0.647322 -0.05681
C_ C_ 0.690893 0.817814 0.67159 -0.08735
C_ C_ 0.638273 0.820374 0.668363 -0.05681
C_ C_ 0.617626 0.818442 0.640562 -0.05681
C_ C_ 0.64941 0.815486 0.616496 -0.08735
C_ C_ 0.701219 0.818213 0.620185 -0.08735
C_ C_ 0.605167 0.823654 0.692064 -0.08735
C_ C_ 0.554068 0.819812 0.687647 -0.08735
C_ C_ 0.531627 0.82427 0.65939 -0.05681
C_ C_ 0.564461 0.825689 0.636149 -0.08735
C_ C_ 0.884639 0.719949 0.656973 0.68181
C_ C_ 0.882649 0.918264 0.649239 0.68181
C_ C_ 0.897538 0.97454 0.648142 -0.05681
C_ C_ 0.876352 0.504456 0.668858 -0.08735
C_ C_ 0.877187 0.558032 0.665894 -0.05681
C_ C_ 0.86725 0.581121 0.639473 -0.05681
C_ C_ 0.854182 0.548589 0.616421 -0.08735
C_ C_ 0.907406 0.998783 0.621325 -0.08735
C_ C_ 0.891084 0.590172 0.689126 -0.08735
C_ C_ 0.895135 0.642508 0.685115 -0.08735
C_ C_ 0.883422 0.665827 0.658947 -0.05681
C_ C_ 0.876187 0.632459 0.634744 -0.08735
C_ C_ 0.977008 0.819529 0.654568 0.68181
C_ C_ 0.894223 0.878054 0.731854 0.1947
C_ C_ 0.90417 0.892993 0.760192 -0.08735
C_ C_ 0.891752 0.860607 0.782368 -0.08735
C_ C_ 0.864675 0.815799 0.775954 -0.05681
C_ C_ 0.855228 0.802226 0.746319 0.18498
C_ C_ 0.83028 0.757562 0.739653 -0.08735
C_ C_ 0.813341 0.725629 0.761901 -0.08735
C_ C_ 0.821358 0.739207 0.79066 -0.08735
C_ C_ 0.848346 0.783271 0.797731 0.18498
C_ C_ 0.816331 0.809326 0.843731 0.44287
C_ C_ 0.90406 0.792306 0.83978 0.44287
C_ C_ 0.913045 0.80224 0.869976 -0.05681
C_ C_ 0.9613 0.796649 0.883539 -0.08735
C_ C_ 0.965416 0.801137 0.913245 -0.08735
C_ C_ 0.921566 0.806796 0.93017 -0.05681
C_ C_ 0.876482 0.81906 0.916716 -0.05681
C_ C_ 0.871387 0.814073 0.886646 -0.05681
C_ C_ 0.821901 0.81637 0.873939 -0.05681
C_ C_ 0.778401 0.821615 0.891616 -0.08735
C_ C_ 0.785236 0.825543 0.921421 -0.08735
C_ C_ 0.831281 0.821692 0.934488 -0.05681
C_ C_ 0.836609 0.821164 0.964328 0.44287
C_ C_ 0.924498 0.807298 0.960979 0.44287
C_ C_ 0.907243 0.844377 0.505977 0.18498
C_ C_ 0.942049 0.883586 0.513997 -0.08735
C_ C_ 0.953386 0.896237 0.542762 -0.08735
C_ C_ 0.936055 0.86648 0.565572 -0.08735
C_ C_ 0.900892 0.828562 0.559106 0.18498
C_ C_ 0.889922 0.813972 0.529549 -0.05681
C_ C_ 0.856445 0.77353 0.525273 -0.08735
C_ C_ 0.833455 0.75049 0.549088 -0.08735
C_ C_ 0.843398 0.766339 0.576635 0.1947
N_ N_ 0.63792 0.673635 0.98 -0.29468
N_ N_ 0.648208 0.687331 0.583201 -0.17154
N_ N_ 0.61816 0.668735 0.732434 -0.17154
N_ N_ 0.639603 0.697895 0.837965 -0.29468
N_ N_ 0.875075 0.832201 0.724851 -0.29468
N_ N_ 0.857304 0.794252 0.827575 -0.17154
N_ N_ 0.88415 0.815464 0.97717 -0.17154
N_ N_ 0.881439 0.800509 0.580794 -0.29468
O_ O_ 0.721542 0.68756 0.93513 -0.58347
O_ O_ 0.712016 0.690276 0.888604 -0.58347
O_ O_ 0.640989 0.751354 0.934678 -0.58347
O_ O_ 0.626267 0.754412 0.889772 -0.58347
O_ O_ 0.651469 0.606334 0.923927 -0.58347
O_ O_ 0.647536 0.608186 0.87794 -0.58347
O_ O_ 0.570458 0.675056 0.926061 -0.58347
O_ O_ 0.561738 0.673799 0.879615 -0.58347
O_ O_ 0.563308 0.700447 0.577276 -0.46727
O_ O_ 0.733658 0.674451 0.587201 -0.46727
O_ O_ 0.530354 0.676201 0.725934 -0.46727
O_ O_ 0.705702 0.670498 0.7383 -0.46727
O_ O_ 0.795221 0.816222 0.677082 -0.58347
O_ O_ 0.806891 0.821024 0.629659 -0.58347
O_ O_ 0.881933 0.747882 0.678984 -0.58347
O_ O_ 0.878164 0.740685 0.633524 -0.58347
O_ O_ 0.864933 0.899455 0.671612 -0.58347
O_ O_ 0.889829 0.890222 0.627798 -0.58347
O_ O_ 0.947854 0.826773 0.675245 -0.58347
O_ O_ 0.959548 0.813321 0.629817 -0.58347
O_ O_ 0.943952 0.786112 0.823111 -0.46727
O_ O_ 0.771823 0.818048 0.831215 -0.46727
O_ O_ 0.970512 0.802629 0.972633 -0.46727
O_ O_ 0.797082 0.830295 0.979723 -0.46727
