_cell_length_a 26.376
_cell_length_b 26.400000238300095
_cell_length_c 46.67800035477134
_cell_angle_alpha 90.00700052986613
_cell_angle_beta 89.99899961309502
_cell_angle_gamma 90.45000003183146
_symmetry_space_group_name_H-M         'P 1'
_symmetry_Int_Tables_number            1
loop_
_symmetry_equiv_pos_as_xyz
   'x, y, z'
                         
loop_
_atom_site_label
_atom_site_type_symbol
_atom_site_fract_x 
_atom_site_fract_y
_atom_site_fract_z
_atom_site_charge
Zn Zn 0.128762 0.185231 0.380627 0.90689
Zn Zn 0.13767 0.177171 0.429379 0.90689
Zn Zn 0.382557 0.320149 0.131884 0.90689
Zn Zn 0.370577 0.325286 0.17827 0.90689
H_ H_ 0.303747 0.190182 0.442195 0.11455
H_ H_ 0.374011 0.174913 0.34419 0.11455
H_ H_ 0.279087 0.176052 0.353077 0.11455
H_ H_ 0.390683 0.195549 0.461468 0.11455
H_ H_ 0.482557 0.194069 0.454696 0.11455
H_ H_ 0.461844 0.172224 0.362825 0.11455
H_ H_ 0.162005 0.0106251 0.439606 0.11455
H_ H_ 0.135403 0.433047 0.348346 0.11455
H_ H_ 0.1177 0.022989 0.349527 0.11455
H_ H_ 0.114252 0.432481 0.465739 0.11455
H_ H_ 0.109418 0.335258 0.462218 0.11455
H_ H_ 0.115178 0.351142 0.371132 0.11455
H_ H_ 0.0736606 0.108043 0.461792 0.11455
H_ H_ 0.0433078 0.0948371 0.0140685 0.11455
H_ H_ 0.0849689 0.131919 0.0539652 0.11455
H_ H_ 0.202703 0.238285 0.474304 0.11455
H_ H_ 0.229839 0.289415 0.00702602 0.11455
H_ H_ 0.203949 0.27634 0.0571299 0.11455
H_ H_ 0.00834911 0.189722 0.122602 0.11455
H_ H_ 7.98437e-05 0.174109 0.173435 0.11455
H_ H_ 0.261256 0.193633 0.133515 0.11455
H_ H_ 0.248145 0.203197 0.184884 0.11455
H_ H_ 0.0780046 0.0910699 0.246981 0.11455
H_ H_ 0.0476595 0.0677879 0.297602 0.11455
H_ H_ 0.0793945 0.118225 0.33901 0.11455
H_ H_ 0.155407 0.252599 0.254948 0.11455
H_ H_ 0.198039 0.300496 0.29625 0.11455
H_ H_ 0.17852 0.273709 0.345549 0.11455
H_ H_ 0.201887 0.320883 0.196404 0.11455
H_ H_ 0.137612 0.324224 0.0963254 0.11455
H_ H_ 0.228326 0.320679 0.103012 0.11455
H_ H_ 0.119798 0.307663 0.212441 0.11455
H_ H_ 0.0296789 0.320153 0.207243 0.11455
H_ H_ 0.0475892 0.306858 0.114161 0.11455
H_ H_ 0.364162 0.490218 0.191696 0.11455
H_ H_ 0.385184 0.0694411 0.098275 0.11455
H_ H_ 0.353229 0.476301 0.0998508 0.11455
H_ H_ 0.347282 0.0781162 0.21623 0.11455
H_ H_ 0.371412 0.166857 0.213422 0.11455
H_ H_ 0.390465 0.155893 0.123027 0.11455
H_ H_ 0.436041 0.391039 0.215247 0.11455
H_ H_ 0.439811 0.426702 0.265354 0.11455
H_ H_ 0.414401 0.37707 0.305516 0.11455
H_ H_ 0.298735 0.272205 0.224582 0.11455
H_ H_ 0.279093 0.209962 0.264828 0.11455
H_ H_ 0.316309 0.219111 0.310535 0.11455
H_ H_ 0.493168 0.294092 0.375833 0.11455
H_ H_ 0.497835 0.316723 0.426311 0.11455
H_ H_ 0.241276 0.331253 0.387814 0.11455
H_ H_ 0.248772 0.325052 0.439483 0.11455
H_ H_ 0.42075 0.415659 0.500948 0.11455
H_ H_ 0.446343 0.441983 0.0479372 0.11455
H_ H_ 0.428983 0.386898 0.0856695 0.11455
H_ H_ 0.355061 0.253253 0.00842858 0.11455
H_ H_ 0.334738 0.198689 0.0504864 0.11455
H_ H_ 0.339295 0.233216 0.0976852 0.11455
C_ C_ 0.229976 0.185563 0.404117 0.68181
C_ C_ 0.286198 0.179646 0.397501 -0.05681
C_ C_ 0.318738 0.18637 0.42087 -0.08735
C_ C_ 0.372717 0.186634 0.416133 -0.05681
C_ C_ 0.393354 0.178435 0.388282 -0.05681
C_ C_ 0.358922 0.179433 0.365526 -0.08735
C_ C_ 0.305791 0.174982 0.371228 -0.08735
C_ C_ 0.405961 0.191638 0.439915 -0.08735
C_ C_ 0.458451 0.192354 0.435012 -0.08735
C_ C_ 0.480007 0.180131 0.407555 -0.05681
C_ C_ 0.445771 0.173113 0.38501 -0.08735
C_ C_ 0.122292 0.278483 0.415361 0.68181
C_ C_ 0.140032 0.0817836 0.396239 0.68181
C_ C_ 0.140272 0.024445 0.39564 -0.05681
C_ C_ 0.130289 0.494942 0.423203 -0.08735
C_ C_ 0.126699 0.442929 0.42118 -0.05681
C_ C_ 0.130041 0.419514 0.393757 -0.05681
C_ C_ 0.137131 0.449109 0.369656 -0.08735
C_ C_ 0.145639 0.502225 0.373415 -0.08735
C_ C_ 0.123243 0.411922 0.445789 -0.08735
C_ C_ 0.119095 0.358743 0.443807 -0.08735
C_ C_ 0.125042 0.333986 0.417044 -0.05681
C_ C_ 0.126413 0.365292 0.391946 -0.08735
C_ C_ 0.0330678 0.179923 0.405176 0.68181
C_ C_ 0.0945329 0.12616 0.480058 0.1947
C_ C_ 0.0720204 0.121521 0.00931691 -0.08735
C_ C_ 0.10098 0.140777 0.0322666 -0.08735
C_ C_ 0.132894 0.18309 0.026298 -0.05681
C_ C_ 0.1392 0.198675 0.996688 0.18498
C_ C_ 0.188232 0.227762 0.494294 -0.08735
C_ C_ 0.199748 0.262022 0.01258 -0.08735
C_ C_ 0.18419 0.254414 0.041712 -0.08735
C_ C_ 0.151368 0.214613 0.0489198 0.18498
C_ C_ 0.184643 0.1846 0.0948831 0.44287
C_ C_ 0.0984492 0.204978 0.0914895 0.44287
C_ C_ 0.0923613 0.192217 0.121546 -0.05681
C_ C_ 0.0431006 0.192298 0.1347 -0.08735
C_ C_ 0.0369388 0.178347 0.163474 -0.08735
C_ C_ 0.0800504 0.177124 0.181527 -0.05681
C_ C_ 0.128703 0.172981 0.167955 -0.05681
C_ C_ 0.13349 0.183613 0.138799 -0.05681
C_ C_ 0.182087 0.182022 0.125395 -0.05681
C_ C_ 0.225476 0.186586 0.142879 -0.08735
C_ C_ 0.21983 0.184573 0.172913 -0.08735
C_ C_ 0.172398 0.171252 0.185962 -0.05681
C_ C_ 0.166831 0.171849 0.216565 0.44287
C_ C_ 0.076014 0.180641 0.211372 0.44287
C_ C_ 0.109682 0.161945 0.259225 0.18498
C_ C_ 0.0874425 0.11795 0.265424 -0.08735
C_ C_ 0.0747247 0.102178 0.294247 -0.08735
C_ C_ 0.0914831 0.13067 0.317859 -0.08735
C_ C_ 0.122218 0.175935 0.312085 0.18498
C_ C_ 0.129524 0.191531 0.28238 -0.05681
C_ C_ 0.149329 0.240598 0.277364 -0.08735
C_ C_ 0.174022 0.266071 0.300544 -0.08735
C_ C_ 0.160624 0.251339 0.328236 0.1947
C_ C_ 0.279588 0.316058 0.153907 0.68181
C_ C_ 0.224696 0.3149 0.150941 -0.05681
C_ C_ 0.189974 0.31515 0.17419 -0.08735
C_ C_ 0.137969 0.317391 0.169045 -0.05681
C_ C_ 0.118907 0.318709 0.140928 -0.05681
C_ C_ 0.15286 0.321537 0.118104 -0.08735
C_ C_ 0.203352 0.318006 0.1226 -0.08735
C_ C_ 0.105067 0.314905 0.191151 -0.08735
C_ C_ 0.0536634 0.318728 0.188116 -0.08735
C_ C_ 0.0328933 0.317886 0.160239 -0.05681
C_ C_ 0.0651406 0.316462 0.136134 -0.08735
C_ C_ 0.379679 0.225136 0.16602 0.68181
C_ C_ 0.369916 0.421707 0.148691 0.68181
C_ C_ 0.371251 0.477244 0.145929 -0.05681
C_ C_ 0.355801 0.0100564 0.173107 -0.08735
C_ C_ 0.359617 0.0629088 0.17016 -0.05681
C_ C_ 0.371751 0.0857769 0.143243 -0.05681
C_ C_ 0.371784 0.0545574 0.119088 -0.08735
C_ C_ 0.360809 0.500231 0.119511 -0.08735
C_ C_ 0.362025 0.0932344 0.19532 -0.08735
C_ C_ 0.371417 0.145224 0.194195 -0.08735
C_ C_ 0.378679 0.169867 0.167797 -0.05681
C_ C_ 0.3819 0.138722 0.143329 -0.08735
C_ C_ 0.479418 0.328241 0.157324 0.68181
C_ C_ 0.413206 0.374459 0.233071 0.1947
C_ C_ 0.424527 0.389814 0.26053 -0.08735
C_ C_ 0.402175 0.365723 0.283978 -0.08735
C_ C_ 0.365676 0.326699 0.278946 -0.05681
C_ C_ 0.356117 0.312209 0.249997 0.18498
C_ C_ 0.319904 0.273185 0.244683 -0.08735
C_ C_ 0.304445 0.240757 0.267482 -0.08735
C_ C_ 0.326952 0.246918 0.294428 -0.08735
C_ C_ 0.353051 0.291196 0.301516 0.18498
C_ C_ 0.31857 0.312301 0.349049 0.44287
C_ C_ 0.406755 0.300248 0.344805 0.44287
C_ C_ 0.4125 0.306524 0.374903 -0.05681
C_ C_ 0.459643 0.303944 0.387861 -0.08735
C_ C_ 0.464857 0.31501 0.416692 -0.08735
C_ C_ 0.423012 0.318204 0.43445 -0.05681
C_ C_ 0.37341 0.319552 0.421905 -0.05681
C_ C_ 0.36872 0.314845 0.391979 -0.05681
C_ C_ 0.321999 0.316971 0.378064 -0.05681
C_ C_ 0.278507 0.323549 0.39603 -0.08735
C_ C_ 0.283066 0.326729 0.426092 -0.08735
C_ C_ 0.330813 0.323944 0.438873 -0.05681
C_ C_ 0.338385 0.325434 0.469057 0.44287
C_ C_ 0.42732 0.321867 0.46404 0.44287
C_ C_ 0.405302 0.342542 0.00952215 0.18498
C_ C_ 0.430897 0.388289 0.0145274 -0.08735
C_ C_ 0.437445 0.403448 0.0430292 -0.08735
C_ C_ 0.427804 0.370951 0.0655914 -0.08735
C_ C_ 0.400608 0.326722 0.0615565 0.18498
C_ C_ 0.391346 0.310425 0.0327588 -0.05681
C_ C_ 0.367105 0.264491 0.0289548 -0.08735
C_ C_ 0.351128 0.234765 0.0525196 -0.08735
C_ C_ 0.356776 0.252857 0.080139 0.1947
N_ N_ 0.134654 0.16168 0.475323 -0.29468
N_ N_ 0.143041 0.200143 0.0786259 -0.17154
N_ N_ 0.119264 0.173414 0.228132 -0.17154
N_ N_ 0.135175 0.208325 0.334179 -0.29468
N_ N_ 0.377946 0.337532 0.228497 -0.29468
N_ N_ 0.360357 0.303482 0.33158 -0.17154
N_ N_ 0.386139 0.32559 0.480927 -0.17154
N_ N_ 0.382193 0.298834 0.0845027 -0.29468
O_ O_ 0.21414 0.174962 0.428975 -0.58347
O_ O_ 0.20234 0.200521 0.384468 -0.58347
O_ O_ 0.136651 0.252486 0.437025 -0.58347
O_ O_ 0.115467 0.256405 0.391314 -0.58347
O_ O_ 0.132798 0.103446 0.420113 -0.58347
O_ O_ 0.139599 0.107278 0.373102 -0.58347
O_ O_ 0.0590276 0.180016 0.427766 -0.58347
O_ O_ 0.0547769 0.17653 0.380259 -0.58347
O_ O_ 0.0584216 0.217912 0.0762016 -0.46727
O_ O_ 0.22572 0.166443 0.0823191 -0.46727
O_ O_ 0.0325046 0.191698 0.222785 -0.46727
O_ O_ 0.205832 0.167532 0.233189 -0.46727
O_ O_ 0.299051 0.334461 0.176443 -0.58347
O_ O_ 0.308828 0.301435 0.133718 -0.58347
O_ O_ 0.36276 0.250871 0.185959 -0.58347
O_ O_ 0.390004 0.247324 0.142106 -0.58347
O_ O_ 0.379217 0.401167 0.172858 -0.58347
O_ O_ 0.367197 0.393675 0.127246 -0.58347
O_ O_ 0.447249 0.319379 0.178632 -0.58347
O_ O_ 0.460398 0.331029 0.132495 -0.58347
O_ O_ 0.448204 0.28731 0.329676 -0.46727
O_ O_ 0.27447 0.314893 0.336823 -0.46727
O_ O_ 0.472489 0.32665 0.476719 -0.46727
O_ O_ 0.299585 0.336846 0.485054 -0.46727
Zn Zn 0.124261 0.194628 0.88016 0.90689
Zn Zn 0.131058 0.179292 0.927309 0.90689
Zn Zn 0.37029 0.313329 0.631226 0.90689
Zn Zn 0.362247 0.316487 0.67927 0.90689
H_ H_ 0.302302 0.172866 0.946021 0.11455
H_ H_ 0.367852 0.16964 0.84813 0.11455
H_ H_ 0.275874 0.182794 0.85623 0.11455
H_ H_ 0.388863 0.163252 0.964586 0.11455
H_ H_ 0.482392 0.171708 0.957983 0.11455
H_ H_ 0.458211 0.177395 0.867298 0.11455
H_ H_ 0.136332 0.0199168 0.941341 0.11455
H_ H_ 0.0788836 0.445995 0.85698 0.11455
H_ H_ 0.106701 0.0300089 0.85181 0.11455
H_ H_ 0.193894 0.430811 0.955059 0.11455
H_ H_ 0.177841 0.338398 0.952587 0.11455
H_ H_ 0.104282 0.361456 0.870756 0.11455
H_ H_ 0.063937 0.117242 0.963717 0.11455
H_ H_ 0.0456801 0.0927205 0.511591 0.11455
H_ H_ 0.0963129 0.118291 0.551147 0.11455
H_ H_ 0.183385 0.241002 0.967796 0.11455
H_ H_ 0.242499 0.27454 0.516048 0.11455
H_ H_ 0.218602 0.247631 0.565481 0.11455
H_ H_ 0.0153543 0.208907 0.622107 0.11455
H_ H_ 0.00701933 0.20241 0.674344 0.11455
H_ H_ 0.258596 0.133411 0.634649 0.11455
H_ H_ 0.257567 0.137706 0.686715 0.11455
H_ H_ 0.071726 0.0876293 0.748414 0.11455
H_ H_ 0.0405576 0.0691319 0.795835 0.11455
H_ H_ 0.0704417 0.120424 0.836008 0.11455
H_ H_ 0.173256 0.24416 0.757176 0.11455
H_ H_ 0.204443 0.290567 0.801525 0.11455
H_ H_ 0.178564 0.264488 0.846932 0.11455
H_ H_ 0.193819 0.333826 0.697638 0.11455
H_ H_ 0.123269 0.300663 0.601185 0.11455
H_ H_ 0.216666 0.303798 0.608311 0.11455
H_ H_ 0.105911 0.317722 0.716738 0.11455
H_ H_ 0.0143105 0.324367 0.708548 0.11455
H_ H_ 0.0367474 0.320409 0.61898 0.11455
H_ H_ 0.343854 0.481997 0.694617 0.11455
H_ H_ 0.350612 0.0617536 0.596363 0.11455
H_ H_ 0.357934 0.475892 0.60397 0.11455
H_ H_ 0.406525 0.0714025 0.711586 0.11455
H_ H_ 0.39879 0.160216 0.706087 0.11455
H_ H_ 0.360976 0.145057 0.617842 0.11455
H_ H_ 0.411106 0.394527 0.717697 0.11455
H_ H_ 0.439346 0.40917 0.76579 0.11455
H_ H_ 0.401943 0.363945 0.807875 0.11455
H_ H_ 0.32072 0.246226 0.720385 0.11455
H_ H_ 0.281532 0.189112 0.758886 0.11455
H_ H_ 0.303478 0.207192 0.809023 0.11455
H_ H_ 0.496419 0.273176 0.870911 0.11455
H_ H_ 0.512806 0.288542 0.921961 0.11455
H_ H_ 0.247993 0.319281 0.888 0.11455
H_ H_ 0.261532 0.325453 0.938632 0.11455
H_ H_ 0.439903 0.411205 -0.002847000000000044 0.11455
H_ H_ 0.445741 0.434922 0.551053 0.11455
H_ H_ 0.430818 0.366897 0.588177 0.11455
H_ H_ 0.348617 0.246375 0.506624 0.11455
H_ H_ 0.307394 0.198797 0.54714 0.11455
H_ H_ 0.319363 0.233089 0.594926 0.11455
C_ C_ 0.226337 0.181137 0.90475 0.68181
C_ C_ 0.282535 0.182678 0.902153 -0.05681
C_ C_ 0.316142 0.175467 0.924719 -0.08735
C_ C_ 0.369268 0.172893 0.91988 -0.05681
C_ C_ 0.38806 0.171847 0.891883 -0.05681
C_ C_ 0.353297 0.177955 0.86979 -0.08735
C_ C_ 0.302725 0.179668 0.874591 -0.08735
C_ C_ 0.404432 0.172049 0.943119 -0.08735
C_ C_ 0.455686 0.174474 0.938665 -0.08735
C_ C_ 0.47582 0.170245 0.910662 -0.05681
C_ C_ 0.442005 0.17254 0.887508 -0.08735
C_ C_ 0.13096 0.287458 0.907123 0.68181
C_ C_ 0.122592 0.0886634 0.899769 0.68181
C_ C_ 0.124992 0.0316503 0.895753 -0.05681
C_ C_ 0.161124 0.503538 0.919802 -0.08735
C_ C_ 0.152244 0.44992 0.918298 -0.05681
C_ C_ 0.126087 0.430472 0.89355 -0.05681
C_ C_ 0.0991131 0.461833 0.876086 -0.08735
C_ C_ 0.105538 0.512973 0.878416 -0.08735
C_ C_ 0.171009 0.416327 0.938749 -0.08735
C_ C_ 0.166232 0.364629 0.934441 -0.08735
C_ C_ 0.140959 0.344967 0.91044 -0.05681
C_ C_ 0.125141 0.378356 0.888377 -0.08735
C_ C_ 0.0288832 0.191142 0.906361 0.68181
C_ C_ 0.0819668 0.136827 0.980578 0.1947
C_ C_ 0.0804739 0.112322 0.507835 -0.08735
C_ C_ 0.103379 0.135776 0.530561 -0.08735
C_ C_ 0.136287 0.176633 0.525952 -0.05681
C_ C_ 0.152336 0.189693 0.497933 0.18498
C_ C_ 0.174415 0.23566 0.989835 -0.08735
C_ C_ 0.210774 0.250628 0.51831 -0.08735
C_ C_ 0.198649 0.236021 0.545519 -0.08735
C_ C_ 0.15907 0.200115 0.549793 0.18498
C_ C_ 0.184824 0.162199 0.596325 0.44287
C_ C_ 0.103645 0.197413 0.592208 0.44287
C_ C_ 0.0972138 0.192704 0.621465 -0.05681
C_ C_ 0.0497639 0.203224 0.63503 -0.08735
C_ C_ 0.0439187 0.198514 0.665634 -0.08735
C_ C_ 0.0873431 0.191201 0.68249 -0.05681
C_ C_ 0.135016 0.177663 0.669102 -0.05681
C_ C_ 0.139867 0.180648 0.639036 -0.05681
C_ C_ 0.184861 0.164935 0.626807 -0.05681
C_ C_ 0.225162 0.14852 0.643914 -0.08735
C_ C_ 0.223013 0.151789 0.673538 -0.08735
C_ C_ 0.176758 0.165321 0.687219 -0.05681
C_ C_ 0.169602 0.159571 0.716947 0.44287
C_ C_ 0.0842961 0.184759 0.712483 0.44287
C_ C_ 0.118198 0.15377 0.758929 0.18498
C_ C_ 0.0887461 0.108883 0.765101 -0.08735
C_ C_ 0.0717488 0.0986888 0.793534 -0.08735
C_ C_ 0.0863382 0.130671 0.815699 -0.08735
C_ C_ 0.12006 0.171443 0.811366 0.18498
C_ C_ 0.131453 0.186458 0.782096 -0.05681
C_ C_ 0.163485 0.230653 0.778558 -0.08735
C_ C_ 0.181911 0.257359 0.803108 -0.08735
C_ C_ 0.166806 0.240822 0.829419 0.1947
C_ C_ 0.268031 0.304106 0.656712 0.68181
C_ C_ 0.211849 0.312699 0.653646 -0.05681
C_ C_ 0.179254 0.323017 0.677088 -0.08735
C_ C_ 0.125727 0.326773 0.672238 -0.05681
C_ C_ 0.105164 0.321889 0.644186 -0.05681
C_ C_ 0.138996 0.314971 0.620769 -0.08735
C_ C_ 0.192343 0.312378 0.625586 -0.08735
C_ C_ 0.091668 0.32644 0.695132 -0.08735
C_ C_ 0.0387124 0.323999 0.690419 -0.08735
C_ C_ 0.0186507 0.32424 0.662962 -0.05681
C_ C_ 0.0513352 0.32611 0.639576 -0.08735
C_ C_ 0.376069 0.215313 0.658184 0.68181
C_ C_ 0.356018 0.413988 0.652419 0.68181
C_ C_ 0.355773 0.471341 0.650426 -0.05681
C_ C_ 0.377285 -0.0002830000000000332 0.67092 -0.08735
C_ C_ 0.378426 0.0525449 0.668502 -0.05681
C_ C_ 0.369681 0.0756069 0.6405 -0.05681
C_ C_ 0.359518 0.0442916 0.616885 -0.08735
C_ C_ 0.361388 0.495867 0.623897 -0.08735
C_ C_ 0.395849 0.0856292 0.691404 -0.08735
C_ C_ 0.389767 0.136877 0.688424 -0.08735
C_ C_ 0.377825 0.158372 0.660777 -0.05681
C_ C_ 0.369507 0.127605 0.636791 -0.08735
C_ C_ 0.46266 0.322318 0.655646 0.68181
C_ C_ 0.39868 0.369911 0.734718 0.1947
C_ C_ 0.410076 0.382894 0.763326 -0.08735
C_ C_ 0.393164 0.352385 0.785845 -0.08735
C_ C_ 0.36532 0.308579 0.779392 -0.05681
C_ C_ 0.351577 0.299296 0.750678 0.18498
C_ C_ 0.325484 0.255663 0.743023 -0.08735
C_ C_ 0.303536 0.224928 0.764069 -0.08735
C_ C_ 0.318374 0.231914 0.792589 -0.08735
C_ C_ 0.347273 0.274266 0.800597 0.18498
C_ C_ 0.318834 0.302511 0.848963 0.44287
C_ C_ 0.402923 0.276702 0.843934 0.44287
C_ C_ 0.415287 0.291513 0.872335 -0.05681
C_ C_ 0.464668 0.287842 0.883667 -0.08735
C_ C_ 0.474844 0.297732 0.912699 -0.08735
C_ C_ 0.434843 0.308485 0.931822 -0.05681
C_ C_ 0.385557 0.312613 0.919769 -0.05681
C_ C_ 0.374692 0.309711 0.889973 -0.05681
C_ C_ 0.325721 0.311327 0.878707 -0.05681
C_ C_ 0.285313 0.320121 0.896282 -0.08735
C_ C_ 0.293224 0.321677 0.925645 -0.08735
C_ C_ 0.342917 0.320326 0.938353 -0.05681
C_ C_ 0.352273 0.335986 0.966286 0.44287
C_ C_ 0.4408 0.316187 0.961674 0.44287
C_ C_ 0.389706 0.341291 0.509846 0.18498
C_ C_ 0.412269 0.389712 0.517691 -0.08735
C_ C_ 0.427948 0.399621 0.545568 -0.08735
C_ C_ 0.417997 0.363672 0.566305 -0.08735
C_ C_ 0.382485 0.326334 0.560388 0.18498
C_ C_ 0.37278 0.310579 0.531872 -0.05681
C_ C_ 0.347816 0.262901 0.5284 -0.08735
C_ C_ 0.32829 0.235375 0.550551 -0.08735
C_ C_ 0.332842 0.25614 0.577775 0.1947
N_ N_ 0.116451 0.17539 0.975015 -0.29468
N_ N_ 0.147535 0.184325 0.579108 -0.17154
N_ N_ 0.125733 0.169456 0.728855 -0.17154
N_ N_ 0.135033 0.200085 0.834175 -0.29468
N_ N_ 0.369715 0.32857 0.72826 -0.29468
N_ N_ 0.35591 0.2842 0.832183 -0.17154
N_ N_ 0.398856 0.326104 0.980078 -0.17154
N_ N_ 0.362674 0.296291 0.583263 -0.29468
O_ O_ 0.205561 0.167973 0.928279 -0.58347
O_ O_ 0.198371 0.195972 0.885667 -0.58347
O_ O_ 0.135035 0.259769 0.928338 -0.58347
O_ O_ 0.123797 0.267524 0.882963 -0.58347
O_ O_ 0.120735 0.104492 0.925396 -0.58347
O_ O_ 0.126372 0.120168 0.879316 -0.58347
O_ O_ 0.0572536 0.194113 0.927989 -0.58347
O_ O_ 0.0477715 0.187674 0.881118 -0.58347
O_ O_ 0.0647868 0.205973 0.575089 -0.46727
O_ O_ 0.229558 0.15462 0.584645 -0.46727
O_ O_ 0.0423072 0.194273 0.726338 -0.46727
O_ O_ 0.207093 0.138849 0.732079 -0.46727
O_ O_ 0.289787 0.295949 0.681071 -0.58347
O_ O_ 0.293581 0.31125 0.635043 -0.58347
O_ O_ 0.378246 0.242949 0.68034 -0.58347
O_ O_ 0.37353 0.235008 0.633758 -0.58347
O_ O_ 0.350707 0.391394 0.675738 -0.58347
O_ O_ 0.367447 0.387367 0.630189 -0.58347
O_ O_ 0.437736 0.332523 0.678225 -0.58347
O_ O_ 0.441657 0.31676 0.632011 -0.58347
O_ O_ 0.438119 0.260767 0.826845 -0.46727
O_ O_ 0.271952 0.305711 0.83815 -0.46727
O_ O_ 0.486829 0.314336 0.972058 -0.46727
O_ O_ 0.316499 0.35808 0.980577 -0.46727
Zn Zn 0.129513 0.686386 0.382669 0.90689
Zn Zn 0.134308 0.674196 0.431697 0.90689
Zn Zn 0.380659 0.819888 0.134138 0.90689
Zn Zn 0.36928 0.820497 0.181366 0.90689
H_ H_ 0.310367 0.684024 0.44579 0.11455
H_ H_ 0.373051 0.682845 0.346739 0.11455
H_ H_ 0.281745 0.674484 0.354749 0.11455
H_ H_ 0.397006 0.668178 0.464287 0.11455
H_ H_ 0.482418 0.683908 0.455377 0.11455
H_ H_ 0.457745 0.673605 0.364737 0.11455
H_ H_ 0.131271 0.51203 0.444254 0.11455
H_ H_ 0.109391 0.931971 0.348503 0.11455
H_ H_ 0.155626 0.526036 0.354775 0.11455
H_ H_ 0.15511 0.930193 0.46319 0.11455
H_ H_ 0.144676 0.837636 0.460662 0.11455
H_ H_ 0.117737 0.851683 0.369419 0.11455
H_ H_ 0.0872971 0.604412 0.46779 0.11455
H_ H_ 0.0684808 0.568016 0.013374 0.11455
H_ H_ 0.0937687 0.61738 0.0553758 0.11455
H_ H_ 0.183382 0.75762 0.475603 0.11455
H_ H_ 0.209084 0.798704 0.0153643 0.11455
H_ H_ 0.195766 0.773752 0.0650582 0.11455
H_ H_ 0.0198902 0.702527 0.125283 0.11455
H_ H_ 0.00695767 0.688337 0.175937 0.11455
H_ H_ 0.261966 0.636334 0.137388 0.11455
H_ H_ 0.252651 0.635654 0.191469 0.11455
H_ H_ 0.0739264 0.573991 0.251895 0.11455
H_ H_ 0.0469067 0.560967 0.301841 0.11455
H_ H_ 0.0720378 0.615428 0.339358 0.11455
H_ H_ 0.161557 0.737767 0.256003 0.11455
H_ H_ 0.19599 0.782174 0.298197 0.11455
H_ H_ 0.180493 0.759975 0.345908 0.11455
H_ H_ 0.205277 0.811513 0.196935 0.11455
H_ H_ 0.132034 0.843831 0.0992618 0.11455
H_ H_ 0.224817 0.848998 0.106242 0.11455
H_ H_ 0.120502 0.797761 0.217281 0.11455
H_ H_ 0.0278952 0.801848 0.211444 0.11455
H_ H_ 0.0464406 0.820007 0.120332 0.11455
H_ H_ 0.347892 0.992883 0.193286 0.11455
H_ H_ 0.358312 0.5726 0.0955988 0.11455
H_ H_ 0.371537 0.980062 0.100974 0.11455
H_ H_ 0.380979 0.572253 0.214429 0.11455
H_ H_ 0.380019 0.66498 0.211707 0.11455
H_ H_ 0.375161 0.652488 0.119313 0.11455
H_ H_ 0.417497 0.890642 0.217406 0.11455
H_ H_ 0.441875 0.911449 0.264764 0.11455
H_ H_ 0.403855 0.869185 0.306001 0.11455
H_ H_ 0.311422 0.752509 0.221771 0.11455
H_ H_ 0.288065 0.693894 0.260874 0.11455
H_ H_ 0.293091 0.72243 0.311173 0.11455
H_ H_ 0.47994 0.790284 0.37516 0.11455
H_ H_ 0.49128 0.803015 0.426882 0.11455
H_ H_ 0.22816 0.825026 0.386656 0.11455
H_ H_ 0.239232 0.830323 0.438661 0.11455
H_ H_ 0.406794 0.909428 0.499624 0.11455
H_ H_ 0.451294 0.94134 0.0468975 0.11455
H_ H_ 0.438314 0.885583 0.0885935 0.11455
H_ H_ 0.339934 0.754828 0.0108144 0.11455
H_ H_ 0.309192 0.714943 0.0518377 0.11455
H_ H_ 0.329086 0.740857 0.0987328 0.11455
C_ C_ 0.231466 0.681866 0.403563 0.68181
C_ C_ 0.288289 0.680869 0.400826 -0.05681
C_ C_ 0.322454 0.679742 0.423862 -0.08735
C_ C_ 0.37361 0.676971 0.419611 -0.05681
C_ C_ 0.393538 0.674359 0.391005 -0.05681
C_ C_ 0.359829 0.679811 0.367962 -0.08735
C_ C_ 0.307872 0.680899 0.372825 -0.08735
C_ C_ 0.408245 0.678791 0.442251 -0.08735
C_ C_ 0.460273 0.680349 0.436972 -0.08735
C_ C_ 0.480342 0.67705 0.409467 -0.05681
C_ C_ 0.444843 0.670346 0.386233 -0.08735
C_ C_ 0.12621 0.779097 0.411775 0.68181
C_ C_ 0.138069 0.582842 0.402751 0.68181
C_ C_ 0.137034 0.525346 0.399632 -0.05681
C_ C_ 0.15156 0.993263 0.419214 -0.08735
C_ C_ 0.145699 0.942304 0.418146 -0.05681
C_ C_ 0.132137 0.92051 0.391837 -0.05681
C_ C_ 0.124582 0.950992 0.367633 -0.08735
C_ C_ 0.127187 1.00124916 0.369312 -0.08735
C_ C_ 0.146352 0.912034 0.442868 -0.08735
C_ C_ 0.142179 0.859327 0.440496 -0.08735
C_ C_ 0.132685 0.835612 0.414292 -0.05681
C_ C_ 0.126835 0.867005 0.389761 -0.08735
C_ C_ 0.0333862 0.672643 0.411615 0.68181
C_ C_ 0.107776 0.620951 0.483764 0.1947
C_ C_ 0.0909977 0.603715 0.0111249 -0.08735
C_ C_ 0.107753 0.630732 0.034689 -0.08735
C_ C_ 0.142752 0.669068 0.0323417 -0.05681
C_ C_ 0.154112 0.683937 1.00203247 0.18498
C_ C_ 0.172153 0.742714 0.497521 -0.08735
C_ C_ 0.191647 0.760761 0.0205381 -0.08735
C_ C_ 0.187662 0.743913 0.048909 -0.08735
C_ C_ 0.162441 0.698903 0.0547386 0.18498
C_ C_ 0.193946 0.672979 0.100418 0.44287
C_ C_ 0.107613 0.694935 0.0956893 0.44287
C_ C_ 0.0986041 0.687216 0.125626 -0.05681
C_ C_ 0.0510507 0.692885 0.13832 -0.08735
C_ C_ 0.045092 0.687702 0.168044 -0.08735
C_ C_ 0.0854913 0.674545 0.184894 -0.05681
C_ C_ 0.134283 0.663434 0.171267 -0.05681
C_ C_ 0.142063 0.676988 0.142548 -0.05681
C_ C_ 0.188379 0.667834 0.12984 -0.05681
C_ C_ 0.229635 0.651647 0.147203 -0.08735
C_ C_ 0.223086 0.644458 0.176274 -0.08735
C_ C_ 0.173995 0.648303 0.188417 -0.05681
C_ C_ 0.16483 0.638671 0.217749 0.44287
C_ C_ 0.0832214 0.669625 0.214451 0.44287
C_ C_ 0.113714 0.642797 0.260939 0.18498
C_ C_ 0.0908182 0.596675 0.269561 -0.08735
C_ C_ 0.0743531 0.587671 0.297414 -0.08735
C_ C_ 0.0884399 0.62213 0.317982 -0.08735
C_ C_ 0.116848 0.666518 0.312493 0.18498
C_ C_ 0.126007 0.678223 0.282463 -0.05681
C_ C_ 0.153062 0.722985 0.277388 -0.08735
C_ C_ 0.17237 0.751068 0.301324 -0.08735
C_ C_ 0.167288 0.734054 0.328128 0.1947
C_ C_ 0.276575 0.819689 0.154157 0.68181
C_ C_ 0.221978 0.826821 0.150973 -0.05681
C_ C_ 0.189579 0.82262 0.175231 -0.08735
C_ C_ 0.136742 0.820128 0.172729 -0.05681
C_ C_ 0.113429 0.82492 0.144907 -0.05681
C_ C_ 0.145194 0.835648 0.121164 -0.08735
C_ C_ 0.198347 0.833579 0.122782 -0.08735
C_ C_ 0.104445 0.80715 0.196357 -0.08735
C_ C_ 0.0485646 0.810855 0.194003 -0.08735
C_ C_ 0.0278996 0.814057 0.165444 -0.05681
C_ C_ 0.0618853 0.81946 0.142167 -0.08735
C_ C_ 0.383774 0.722813 0.164646 0.68181
C_ C_ 0.367621 0.921156 0.150196 0.68181
C_ C_ 0.361609 0.978305 0.148228 -0.05681
C_ C_ 0.37145 0.507781 0.170599 -0.08735
C_ C_ 0.375523 0.561314 0.169156 -0.05681
C_ C_ 0.371457 0.583467 0.141684 -0.05681
C_ C_ 0.363753 0.553806 0.116569 -0.08735
C_ C_ 0.365454 0.00118986 0.120797 -0.08735
C_ C_ 0.381785 0.588986 0.194501 -0.08735
C_ C_ 0.382454 0.641933 0.192244 -0.08735
C_ C_ 0.381494 0.665755 0.164781 -0.05681
C_ C_ 0.380901 0.635284 0.139686 -0.08735
C_ C_ 0.472107 0.82381 0.161052 0.68181
C_ C_ 0.399163 0.871576 0.235222 0.1947
C_ C_ 0.411247 0.884349 0.263124 -0.08735
C_ C_ 0.38707 0.860576 0.285592 -0.08735
C_ C_ 0.357363 0.817281 0.280936 -0.05681
C_ C_ 0.34578 0.804822 0.251584 0.18498
C_ C_ 0.32078 0.759718 0.24436 -0.08735
C_ C_ 0.305454 0.72754 0.266767 -0.08735
C_ C_ 0.317384 0.738104 0.295309 -0.08735
C_ C_ 0.339814 0.782951 0.302952 0.18498
C_ C_ 0.306046 0.808516 0.349098 0.44287
C_ C_ 0.392171 0.789608 0.345778 0.44287
C_ C_ 0.401426 0.805637 0.374732 -0.05681
C_ C_ 0.447881 0.8004 0.388415 -0.08735
C_ C_ 0.45382 0.808074 0.417874 -0.08735
C_ C_ 0.409709 0.810082 0.435723 -0.05681
C_ C_ 0.361447 0.80982 0.422201 -0.05681
C_ C_ 0.357841 0.810156 0.392017 -0.05681
C_ C_ 0.30984 0.814792 0.379108 -0.05681
C_ C_ 0.266116 0.821157 0.396155 -0.08735
C_ C_ 0.273632 0.829215 0.424861 -0.08735
C_ C_ 0.320655 0.822376 0.438836 -0.05681
C_ C_ 0.325606 0.83002 0.469364 0.44287
C_ C_ 0.412738 0.8135 0.4654 0.44287
C_ C_ 0.38825 0.84847 0.0106676 0.18498
C_ C_ 0.41118 0.896036 0.0171748 -0.08735
C_ C_ 0.432352 0.905959 0.0439785 -0.08735
C_ C_ 0.421231 0.875209 0.0674672 -0.08735
C_ C_ 0.394913 0.829606 0.0629049 0.18498
C_ C_ 0.380234 0.81436 0.0338313 -0.05681
C_ C_ 0.354158 0.770154 0.0303723 -0.08735
C_ C_ 0.336823 0.744978 0.0541611 -0.08735
C_ C_ 0.348015 0.759437 0.0813243 0.1947
N_ N_ 0.132092 0.666416 0.479146 -0.29468
N_ N_ 0.153144 0.683908 0.0837044 -0.17154
N_ N_ 0.12186 0.65293 0.230476 -0.17154
N_ N_ 0.132912 0.696313 0.334469 -0.29468
N_ N_ 0.368422 0.83075 0.229523 -0.29468
N_ N_ 0.346027 0.794285 0.333123 -0.17154
N_ N_ 0.371844 0.823651 0.482553 -0.17154
N_ N_ 0.378048 0.801518 0.0854542 -0.29468
O_ O_ 0.209666 0.688233 0.427596 -0.58347
O_ O_ 0.205401 0.68456 0.380674 -0.58347
O_ O_ 0.123501 0.750049 0.43448 -0.58347
O_ O_ 0.127982 0.75987 0.387049 -0.58347
O_ O_ 0.149872 0.601692 0.426441 -0.58347
O_ O_ 0.128022 0.610639 0.381664 -0.58347
O_ O_ 0.0594637 0.658815 0.433242 -0.58347
O_ O_ 0.056635 0.686358 0.388761 -0.58347
O_ O_ 0.0709261 0.711995 0.0791271 -0.46727
O_ O_ 0.239871 0.666932 0.088389 -0.46727
O_ O_ 0.0411534 0.679705 0.226829 -0.46727
O_ O_ 0.201977 0.618999 0.233803 -0.46727
O_ O_ 0.296554 0.806718 0.177747 -0.58347
O_ O_ 0.304504 0.829086 0.133413 -0.58347
O_ O_ 0.380415 0.748338 0.188481 -0.58347
O_ O_ 0.377456 0.744752 0.141171 -0.58347
O_ O_ 0.362285 0.897421 0.174116 -0.58347
O_ O_ 0.378881 0.897004 0.12759 -0.58347
O_ O_ 0.443503 0.83126 0.181922 -0.58347
O_ O_ 0.453832 0.810156 0.137898 -0.58347
O_ O_ 0.43091 0.770099 0.332066 -0.46727
O_ O_ 0.261623 0.8093 0.336044 -0.46727
O_ O_ 0.458625 0.813341 0.477374 -0.46727
O_ O_ 0.285902 0.844496 0.4845 -0.46727
Zn Zn 0.118531 0.68977 0.884131 0.90689
Zn Zn 0.132522 0.682149 0.932007 0.90689
Zn Zn 0.366711 0.813034 0.635767 0.90689
Zn Zn 0.350369 0.81691 0.682943 0.90689
H_ H_ 0.303094 0.693781 0.946665 0.11455
H_ H_ 0.365597 0.670347 0.849394 0.11455
H_ H_ 0.270511 0.676892 0.857267 0.11455
H_ H_ 0.389754 0.694446 0.966756 0.11455
H_ H_ 0.477978 0.693222 0.958308 0.11455
H_ H_ 0.452635 0.658961 0.868579 0.11455
H_ H_ 0.183908 0.517068 0.937782 0.11455
H_ H_ 0.0998966 0.94116 0.845434 0.11455
H_ H_ 0.0810288 0.540131 0.867443 0.11455
H_ H_ 0.144516 0.937993 0.960387 0.11455
H_ H_ 0.126824 0.841311 0.961583 0.11455
H_ H_ 0.0952005 0.856391 0.870129 0.11455
H_ H_ 0.0852054 0.605008 0.963987 0.11455
H_ H_ 0.0948945 0.5614 0.514135 0.11455
H_ H_ 0.123919 0.608313 0.556009 0.11455
H_ H_ 0.186968 0.74259 0.977372 0.11455
H_ H_ 0.204969 0.810496 0.518453 0.11455
H_ H_ 0.18889 0.781417 0.567157 0.11455
H_ H_ 1.0139328 0.715688 0.620472 0.11455
H_ H_ 0.998561 0.710723 0.668848 0.11455
H_ H_ 0.25743 0.665897 0.640567 0.11455
H_ H_ 0.244453 0.652716 0.690784 0.11455
H_ H_ 0.0492343 0.586522 0.75056 0.11455
H_ H_ 0.0391216 0.56489 0.799463 0.11455
H_ H_ 0.0645828 0.616371 0.83926 0.11455
H_ H_ 0.142053 0.751097 0.759144 0.11455
H_ H_ 0.18732 0.792041 0.799876 0.11455
H_ H_ 0.176001 0.756933 0.848323 0.11455
H_ H_ 0.18686 0.821381 0.69581 0.11455
H_ H_ 0.123007 0.841673 0.598483 0.11455
H_ H_ 0.219032 0.858016 0.609386 0.11455
H_ H_ 0.0995076 0.819982 0.713185 0.11455
H_ H_ 0.00738795 0.820149 0.707369 0.11455
H_ H_ 0.0371756 0.825576 0.615009 0.11455
H_ H_ 0.388179 0.981199 0.689408 0.11455
H_ H_ 0.378575 0.563704 0.600037 0.11455
H_ H_ 0.34278 0.968406 0.602416 0.11455
H_ H_ 0.331443 0.57383 0.716489 0.11455
H_ H_ 0.348642 0.661787 0.713659 0.11455
H_ H_ 0.36304 0.651009 0.623629 0.11455
H_ H_ 0.407766 0.889689 0.719068 0.11455
H_ H_ 0.421699 0.91693 0.768596 0.11455
H_ H_ 0.395681 0.865336 0.807439 0.11455
H_ H_ 0.284626 0.756262 0.726027 0.11455
H_ H_ 0.275506 0.692196 0.761913 0.11455
H_ H_ 0.307403 0.704802 0.811944 0.11455
H_ H_ 0.487063 0.796967 0.874041 0.11455
H_ H_ 0.498375 0.810207 0.925204 0.11455
H_ H_ 0.236705 0.825821 0.887654 0.11455
H_ H_ 0.246819 0.838081 0.938443 0.11455
H_ H_ 0.420252 0.923032 0.999865 0.11455
H_ H_ 0.434621 0.93678 0.54955 0.11455
H_ H_ 0.40524 0.883493 0.590624 0.11455
H_ H_ 0.342705 0.741938 0.511633 0.11455
H_ H_ 0.316911 0.691484 0.552357 0.11455
H_ H_ 0.321253 0.729649 0.600889 0.11455
C_ C_ 0.224491 0.694273 0.908401 0.68181
C_ C_ 0.281666 0.689929 0.902518 -0.05681
C_ C_ 0.315982 0.692131 0.925532 -0.08735
C_ C_ 0.366611 0.682368 0.921674 -0.05681
C_ C_ 0.385653 0.672554 0.89416 -0.05681
C_ C_ 0.350942 0.675534 0.870233 -0.08735
C_ C_ 0.299595 0.680469 0.874215 -0.08735
C_ C_ 0.400944 0.688645 0.944387 -0.08735
C_ C_ 0.452792 0.686187 0.939874 -0.08735
C_ C_ 0.470715 0.673692 0.911659 -0.05681
C_ C_ 0.437624 0.670762 0.88843 -0.08735
C_ C_ 0.113694 0.784859 0.912946 0.68181
C_ C_ 0.136555 0.589235 0.903739 0.68181
C_ C_ 0.136025 0.533508 0.900269 -0.05681
C_ C_ 0.132668 1.000214536 0.920096 -0.08735
C_ C_ 0.128151 0.945981 0.917211 -0.05681
C_ C_ 0.112705 0.925154 0.891709 -0.05681
C_ C_ 0.112056 0.955707 0.866825 -0.08735
C_ C_ 0.11673 0.00783427 0.869377 -0.08735
C_ C_ 0.136152 0.916263 0.941548 -0.08735
C_ C_ 0.126714 0.864166 0.941265 -0.08735
C_ C_ 0.110645 0.84088 0.915735 -0.05681
C_ C_ 0.104516 0.873167 0.890409 -0.08735
C_ C_ 0.0262639 0.679507 0.908871 0.68181
C_ C_ 0.101446 0.620835 0.983512 0.1947
C_ C_ 0.107499 0.599218 0.511433 -0.08735
C_ C_ 0.12483 0.627543 0.535352 -0.08735
C_ C_ 0.14413 0.675711 0.531132 -0.05681
C_ C_ 0.149298 0.694798 0.502221 0.18498
C_ C_ 0.177874 0.730335 0.99848 -0.08735
C_ C_ 0.185878 0.772446 0.521563 -0.08735
C_ C_ 0.181622 0.753908 0.549622 -0.08735
C_ C_ 0.162753 0.705175 0.55397 0.18498
C_ C_ 0.188419 0.67869 0.600736 0.44287
C_ C_ 0.101143 0.700448 0.59335 0.44287
C_ C_ 0.0907446 0.690602 0.622947 -0.05681
C_ C_ 0.0430759 0.699977 0.633232 -0.08735
C_ C_ 0.0335449 0.695031 0.662287 -0.08735
C_ C_ 0.0737239 0.686729 0.681516 -0.05681
C_ C_ 0.122364 0.678266 0.670231 -0.05681
C_ C_ 0.129238 0.676188 0.641208 -0.05681
C_ C_ 0.179497 0.675401 0.630474 -0.05681
C_ C_ 0.219414 0.667785 0.649394 -0.08735
C_ C_ 0.210926 0.662246 0.677735 -0.08735
C_ C_ 0.162026 0.66651 0.689343 -0.05681
C_ C_ 0.153055 0.664053 0.718986 0.44287
C_ C_ 0.0658888 0.683139 0.711794 0.44287
C_ C_ 0.0917055 0.658854 0.759604 0.18498
C_ C_ 0.0680247 0.611038 0.766876 -0.08735
C_ C_ 0.0602698 0.597804 0.794378 -0.08735
C_ C_ 0.0763982 0.62568 0.817159 -0.08735
C_ C_ 0.107325 0.668697 0.812146 0.18498
C_ C_ 0.114312 0.685704 0.783611 -0.05681
C_ C_ 0.143993 0.730685 0.779348 -0.08735
C_ C_ 0.163528 0.758416 0.80315 -0.08735
C_ C_ 0.155421 0.739143 0.830961 0.1947
C_ C_ 0.26425 0.821104 0.656746 0.68181
C_ C_ 0.208852 0.828432 0.651535 -0.05681
C_ C_ 0.173297 0.822601 0.673822 -0.08735
C_ C_ 0.120048 0.827528 0.668971 -0.05681
C_ C_ 0.101903 0.832361 0.641216 -0.05681
C_ C_ 0.13714 0.841479 0.619292 -0.08735
C_ C_ 0.190649 0.839745 0.62373 -0.08735
C_ C_ 0.0847647 0.820198 0.691012 -0.08735
C_ C_ 0.0323641 0.823646 0.687814 -0.08735
C_ C_ 0.0149294 0.827422 0.659567 -0.05681
C_ C_ 0.050576 0.829708 0.636197 -0.08735
C_ C_ 0.350038 0.717428 0.664227 0.68181
C_ C_ 0.358438 0.912502 0.649239 0.68181
C_ C_ 0.366734 0.967943 0.646752 -0.05681
C_ C_ 0.348276 0.501199 0.67449 -0.08735
C_ C_ 0.352194 0.555441 0.673432 -0.05681
C_ C_ 0.363405 0.578277 0.646514 -0.05681
C_ C_ 0.365639 0.548116 0.621288 -0.08735
C_ C_ 0.353101 0.9918 0.620369 -0.08735
C_ C_ 0.34898 0.587455 0.696925 -0.08735
C_ C_ 0.352774 0.638674 0.694185 -0.08735
C_ C_ 0.353514 0.66147 0.667088 -0.05681
C_ C_ 0.35768 0.631244 0.643204 -0.08735
C_ C_ 0.453844 0.816448 0.661158 0.68181
C_ C_ 0.382289 0.875331 0.736024 0.1947
C_ C_ 0.390864 0.889477 0.764436 -0.08735
C_ C_ 0.380939 0.856506 0.786846 -0.08735
C_ C_ 0.349981 0.814312 0.780974 -0.05681
C_ C_ 0.337359 0.802795 0.751363 0.18498
C_ C_ 0.303479 0.761223 0.746184 -0.08735
C_ C_ 0.292029 0.728271 0.76757 -0.08735
C_ C_ 0.316336 0.731528 0.794884 -0.08735
C_ C_ 0.343493 0.776645 0.802427 0.18498
C_ C_ 0.30917 0.806865 0.848795 0.44287
C_ C_ 0.39587 0.78375 0.845474 0.44287
C_ C_ 0.404355 0.797258 0.874582 -0.05681
C_ C_ 0.453278 0.79468 0.887135 -0.08735
C_ C_ 0.45909 0.807008 0.915844 -0.08735
C_ C_ 0.416853 0.816859 0.93432 -0.05681
C_ C_ 0.369476 0.820233 0.921515 -0.05681
C_ C_ 0.360902 0.808707 0.89148 -0.05681
C_ C_ 0.314201 0.813285 0.878756 -0.05681
C_ C_ 0.272974 0.825804 0.896948 -0.08735
C_ C_ 0.280339 0.842353 0.925036 -0.08735
C_ C_ 0.32761 0.836617 0.938403 -0.05681
C_ C_ 0.334442 0.842315 0.968919 0.44287
C_ C_ 0.421639 0.82764 0.964039 0.44287
C_ C_ 0.37901 0.838044 0.511953 0.18498
C_ C_ 0.398908 0.88533 0.517894 -0.08735
C_ C_ 0.411097 0.901502 0.545903 -0.08735
C_ C_ 0.394968 0.872353 0.568947 -0.08735
C_ C_ 0.369867 0.826393 0.565137 0.18498
C_ C_ 0.363256 0.808094 0.535971 -0.05681
C_ C_ 0.348833 0.757922 0.532768 -0.08735
C_ C_ 0.33262 0.729623 0.555598 -0.08735
C_ C_ 0.337347 0.749152 0.58299 0.1947
N_ N_ 0.130847 0.662379 0.979254 -0.29468
N_ N_ 0.149841 0.693906 0.583271 -0.17154
N_ N_ 0.103909 0.671098 0.729795 -0.17154
N_ N_ 0.127286 0.696412 0.834568 -0.29468
N_ N_ 0.354467 0.833024 0.730351 -0.29468
N_ N_ 0.3503 0.789727 0.832425 -0.17154
N_ N_ 0.381242 0.836531 0.981427 -0.17154
N_ N_ 0.35827 0.794415 0.588088 -0.29468
O_ O_ 0.206537 0.69646 0.933069 -0.58347
O_ O_ 0.194787 0.692514 0.886973 -0.58347
O_ O_ 0.11547 0.757521 0.935063 -0.58347
O_ O_ 0.113712 0.762853 0.889245 -0.58347
O_ O_ 0.15046 0.609375 0.927123 -0.58347
O_ O_ 0.125254 0.618178 0.884004 -0.58347
O_ O_ 0.0572195 0.668324 0.929752 -0.58347
O_ O_ 0.043234 0.685936 0.883425 -0.58347
O_ O_ 0.0652544 0.718592 0.577315 -0.46727
O_ O_ 0.235096 0.676665 0.590303 -0.46727
O_ O_ 0.0207689 0.691197 0.72314 -0.46727
O_ O_ 0.18678 0.644083 0.736549 -0.46727
O_ O_ 0.281976 0.826247 0.681381 -0.58347
O_ O_ 0.290993 0.799022 0.63853 -0.58347
O_ O_ 0.339998 0.742144 0.686763 -0.58347
O_ O_ 0.374407 0.740253 0.644418 -0.58347
O_ O_ 0.359503 0.89363 0.673455 -0.58347
O_ O_ 0.353342 0.883687 0.62796 -0.58347
O_ O_ 0.424327 0.80791 0.680447 -0.58347
O_ O_ 0.437887 0.831783 0.637481 -0.58347
O_ O_ 0.431743 0.761419 0.830559 -0.46727
O_ O_ 0.263318 0.810713 0.837743 -0.46727
O_ O_ 0.466859 0.834078 0.974656 -0.46727
O_ O_ 0.294966 0.850073 0.985184 -0.46727
Zn Zn 0.62839 0.187254 0.380148 0.90689
Zn Zn 0.639615 0.183321 0.429753 0.90689
Zn Zn 0.883699 0.311931 0.130564 0.90689
Zn Zn 0.871514 0.31904 0.180476 0.90689
H_ H_ 0.808369 0.206054 0.442655 0.11455
H_ H_ 0.874627 0.171744 0.346093 0.11455
H_ H_ 0.779358 0.177779 0.355351 0.11455
H_ H_ 0.890518 0.199211 0.463299 0.11455
H_ H_ 0.982132 0.188785 0.456174 0.11455
H_ H_ 0.959647 0.181673 0.363887 0.11455
H_ H_ 0.636022 0.0150724 0.4444 0.11455
H_ H_ 0.626505 0.437917 0.343586 0.11455
H_ H_ 0.611253 0.026996 0.353591 0.11455
H_ H_ 0.673069 0.429307 0.461505 0.11455
H_ H_ 0.653501 0.340288 0.457602 0.11455
H_ H_ 0.618293 0.354795 0.366917 0.11455
H_ H_ 0.585095 0.112167 0.467688 0.11455
H_ H_ 0.577528 0.0642195 0.00989046 0.11455
H_ H_ 0.611432 0.114397 0.0518013 0.11455
H_ H_ 0.701633 0.246194 0.467977 0.11455
H_ H_ 0.73486 0.289057 0.0100443 0.11455
H_ H_ 0.713502 0.266184 0.0572694 0.11455
H_ H_ 0.520861 0.201996 0.117803 0.11455
H_ H_ 0.508489 0.198755 0.169762 0.11455
H_ H_ 0.777042 0.186229 0.134677 0.11455
H_ H_ 0.76789 0.179327 0.184669 0.11455
H_ H_ 0.575954 0.105116 0.241481 0.11455
H_ H_ 0.570437 0.0669659 0.290813 0.11455
H_ H_ 0.59071 0.12254 0.330939 0.11455
H_ H_ 0.670585 0.261554 0.255845 0.11455
H_ H_ 0.698239 0.311561 0.298695 0.11455
H_ H_ 0.678527 0.276884 0.346471 0.11455
H_ H_ 0.707795 0.313495 0.196614 0.11455
H_ H_ 0.640849 0.321895 0.0975675 0.11455
H_ H_ 0.732318 0.311762 0.104215 0.11455
H_ H_ 0.621427 0.324686 0.215251 0.11455
H_ H_ 0.535094 0.334206 0.207827 0.11455
H_ H_ 0.555686 0.320596 0.118002 0.11455
H_ H_ 0.858044 0.481376 0.194365 0.11455
H_ H_ 0.883801 0.058606 0.096817 0.11455
H_ H_ 0.857897 0.471377 0.10594 0.11455
H_ H_ 0.903079 0.0675773 0.213506 0.11455
H_ H_ 0.904044 0.162037 0.208407 0.11455
H_ H_ 0.889126 0.14593 0.117187 0.11455
H_ H_ 0.929647 0.392348 0.213411 0.11455
H_ H_ 0.946568 0.425314 0.260634 0.11455
H_ H_ 0.8992 0.390534 0.303317 0.11455
H_ H_ 0.817335 0.252755 0.224102 0.11455
H_ H_ 0.796587 0.200094 0.264678 0.11455
H_ H_ 0.823179 0.225361 0.315181 0.11455
H_ H_ 0.995865 0.300675 0.372972 0.11455
H_ H_ 0.00662042 0.32169 0.426566 0.11455
H_ H_ 0.743076 0.337573 0.383759 0.11455
H_ H_ 0.75128 0.344948 0.43557 0.11455
H_ H_ 0.933999 0.421618 0.497461 0.11455
H_ H_ 0.959428 0.437726 0.0467506 0.11455
H_ H_ 0.933063 0.37738 0.0886233 0.11455
H_ H_ 0.837713 0.259799 0.0054289 0.11455
H_ H_ 0.81093 0.208143 0.0463975 0.11455
H_ H_ 0.832781 0.23029 0.0959929 0.11455
C_ C_ 0.731268 0.189015 0.405942 0.68181
C_ C_ 0.786299 0.190041 0.399633 -0.05681
C_ C_ 0.821122 0.1975 0.421454 -0.08735
C_ C_ 0.872354 0.187886 0.418101 -0.05681
C_ C_ 0.891354 0.174192 0.390988 -0.05681
C_ C_ 0.857151 0.175551 0.36764 -0.08735
C_ C_ 0.805084 0.178191 0.373571 -0.08735
C_ C_ 0.904037 0.19277 0.44171 -0.08735
C_ C_ 0.956536 0.184285 0.437163 -0.08735
C_ C_ 0.976475 0.178442 0.409347 -0.05681
C_ C_ 0.944611 0.175023 0.385985 -0.08735
C_ C_ 0.627592 0.285083 0.409906 0.68181
C_ C_ 0.639492 0.0853265 0.40082 0.68181
C_ C_ 0.631689 0.0298607 0.399472 -0.05681
C_ C_ 0.652458 0.499018 0.41923 -0.08735
C_ C_ 0.648961 0.446472 0.416137 -0.05681
C_ C_ 0.637599 0.423322 0.389398 -0.05681
C_ C_ 0.631028 0.454835 0.3655 -0.08735
C_ C_ 0.641413 0.507212 0.367997 -0.08735
C_ C_ 0.659149 0.414449 0.440668 -0.08735
C_ C_ 0.646785 0.362769 0.438298 -0.08735
C_ C_ 0.631512 0.339946 0.412313 -0.05681
C_ C_ 0.627412 0.371796 0.387063 -0.08735
C_ C_ 0.536269 0.178599 0.403097 0.68181
C_ C_ 0.593008 0.144549 0.481465 0.1947
C_ C_ 0.599488 0.0986824 0.00641331 -0.08735
C_ C_ 0.617389 0.12667 0.0297378 -0.08735
C_ C_ 0.64605 0.17089 0.0244456 -0.05681
C_ C_ 0.653169 0.186865 0.994362 0.18498
C_ C_ 0.686738 0.240087 0.489969 -0.08735
C_ C_ 0.706608 0.258759 0.0125725 -0.08735
C_ C_ 0.695226 0.245161 0.0406242 -0.08735
C_ C_ 0.665927 0.202498 0.0474623 0.18498
C_ C_ 0.699771 0.187903 0.0945179 0.44287
C_ C_ 0.613752 0.203236 0.0893198 0.44287
C_ C_ 0.601867 0.19159 0.118195 -0.05681
C_ C_ 0.55362 0.191407 0.130674 -0.08735
C_ C_ 0.546642 0.20017 0.160717 -0.08735
C_ C_ 0.590341 0.192249 0.179307 -0.05681
C_ C_ 0.637407 0.187486 0.166614 -0.05681
C_ C_ 0.644291 0.189154 0.135907 -0.05681
C_ C_ 0.694999 0.187421 0.123361 -0.05681
C_ C_ 0.736935 0.179125 0.142262 -0.08735
C_ C_ 0.731073 0.175552 0.172358 -0.08735
C_ C_ 0.682856 0.182665 0.184283 -0.05681
C_ C_ 0.675955 0.181923 0.214545 0.44287
C_ C_ 0.587601 0.198806 0.209393 0.44287
C_ C_ 0.617184 0.172011 0.255091 0.18498
C_ C_ 0.589335 0.125667 0.259362 -0.08735
C_ C_ 0.588936 0.105517 0.287348 -0.08735
C_ C_ 0.601567 0.135177 0.311135 -0.08735
C_ C_ 0.625269 0.181631 0.308989 0.18498
C_ C_ 0.630823 0.201567 0.279958 -0.05681
C_ C_ 0.658362 0.249122 0.276743 -0.08735
C_ C_ 0.670679 0.27755 0.3015 -0.08735
C_ C_ 0.661184 0.257083 0.328693 0.1947
C_ C_ 0.779629 0.314288 0.156533 0.68181
C_ C_ 0.726576 0.314208 0.152295 -0.05681
C_ C_ 0.691758 0.319229 0.17542 -0.08735
C_ C_ 0.64124 0.326488 0.171326 -0.05681
C_ C_ 0.621463 0.324416 0.142969 -0.05681
C_ C_ 0.654881 0.315725 0.119651 -0.08735
C_ C_ 0.70759 0.310903 0.123672 -0.08735
C_ C_ 0.609 0.333792 0.193215 -0.08735
C_ C_ 0.557731 0.337621 0.189349 -0.08735
C_ C_ 0.53617 0.330382 0.16272 -0.05681
C_ C_ 0.569189 0.328629 0.138612 -0.08735
C_ C_ 0.888213 0.215843 0.161666 0.68181
C_ C_ 0.869063 0.413589 0.151512 0.68181
C_ C_ 0.861265 0.46984 0.149513 -0.05681
C_ C_ 0.880927 0.00366263 0.173526 -0.08735
C_ C_ 0.887918 0.0556377 0.169512 -0.05681
C_ C_ 0.888847 0.0756807 0.142177 -0.05681
C_ C_ 0.882219 0.0428179 0.118284 -0.08735
C_ C_ 0.856443 0.495063 0.124111 -0.08735
C_ C_ 0.896709 0.0858939 0.192792 -0.08735
C_ C_ 0.902901 0.138275 0.189878 -0.08735
C_ C_ 0.892736 0.159015 0.163602 -0.05681
C_ C_ 0.888828 0.128047 0.139035 -0.08735
C_ C_ 0.97691 0.313891 0.154696 0.68181
C_ C_ 0.909074 0.377523 0.230994 0.1947
C_ C_ 0.920887 0.395393 0.258542 -0.08735
C_ C_ 0.896988 0.371338 0.28211 -0.08735
C_ C_ 0.870034 0.325024 0.278226 -0.05681
C_ C_ 0.859097 0.310247 0.24954 0.18498
C_ C_ 0.833009 0.263722 0.244389 -0.08735
C_ C_ 0.819329 0.23378 0.268215 -0.08735
C_ C_ 0.829962 0.250878 0.296458 -0.08735
C_ C_ 0.852369 0.29771 0.301242 0.18498
C_ C_ 0.821885 0.323609 0.347198 0.44287
C_ C_ 0.907958 0.297151 0.342984 0.44287
C_ C_ 0.9143 0.300451 0.373476 -0.05681
C_ C_ 0.961295 0.302347 0.386974 -0.08735
C_ C_ 0.965535 0.317601 0.415874 -0.08735
C_ C_ 0.922075 0.319059 0.432872 -0.05681
C_ C_ 0.875004 0.320039 0.420499 -0.05681
C_ C_ 0.87079 0.312167 0.390577 -0.05681
C_ C_ 0.824868 0.323008 0.37775 -0.05681
C_ C_ 0.781171 0.335365 0.393955 -0.08735
C_ C_ 0.784714 0.335229 0.423371 -0.08735
C_ C_ 0.831275 0.331693 0.437356 -0.05681
C_ C_ 0.838558 0.339471 0.467894 0.44287
C_ C_ 0.925424 0.323364 0.463664 0.44287
C_ C_ 0.892584 0.351158 0.0102899 0.18498
C_ C_ 0.91922 0.395781 0.0167099 -0.08735
C_ C_ 0.930571 0.408406 0.0443748 -0.08735
C_ C_ 0.917528 0.373478 0.0668483 -0.08735
C_ C_ 0.885948 0.330058 0.0616297 0.18498
C_ C_ 0.876101 0.317778 0.0325884 -0.05681
C_ C_ 0.847518 0.27234 0.0275974 -0.08735
C_ C_ 0.832401 0.241776 0.0505391 -0.08735
C_ C_ 0.844203 0.256715 0.0784216 0.1947
N_ N_ 0.630696 0.177757 0.47537 -0.29468
N_ N_ 0.657573 0.190828 0.0777971 -0.17154
N_ N_ 0.628552 0.185453 0.22565 -0.17154
N_ N_ 0.637907 0.210964 0.331874 -0.29468
N_ N_ 0.87886 0.335727 0.226925 -0.29468
N_ N_ 0.861972 0.309453 0.330561 -0.17154
N_ N_ 0.884011 0.334339 0.480797 -0.17154
N_ N_ 0.870902 0.30051 0.0834528 -0.29468
O_ O_ 0.714981 0.181865 0.431524 -0.58347
O_ O_ 0.70165 0.196837 0.385571 -0.58347
O_ O_ 0.638012 0.260208 0.431829 -0.58347
O_ O_ 0.619192 0.263135 0.385942 -0.58347
O_ O_ 0.637773 0.107473 0.424989 -0.58347
O_ O_ 0.643891 0.112662 0.377905 -0.58347
O_ O_ 0.56529 0.188125 0.424185 -0.58347
O_ O_ 0.553506 0.176756 0.377811 -0.58347
O_ O_ 0.575786 0.213612 0.0721642 -0.46727
O_ O_ 0.744572 0.178428 0.0830647 -0.46727
O_ O_ 0.548852 0.223338 0.21947 -0.46727
O_ O_ 0.715868 0.17716 0.23138 -0.46727
O_ O_ 0.799022 0.318226 0.181479 -0.58347
O_ O_ 0.807456 0.296115 0.136782 -0.58347
O_ O_ 0.87546 0.240856 0.18362 -0.58347
O_ O_ 0.895089 0.238716 0.137489 -0.58347
O_ O_ 0.870325 0.39226 0.176018 -0.58347
O_ O_ 0.863586 0.385367 0.129813 -0.58347
O_ O_ 0.947697 0.317829 0.177137 -0.58347
O_ O_ 0.957889 0.32659 0.130228 -0.58347
O_ O_ 0.945464 0.279078 0.327354 -0.46727
O_ O_ 0.778237 0.332756 0.334595 -0.46727
O_ O_ 0.967507 0.318276 0.476075 -0.46727
O_ O_ 0.798964 0.351855 0.482626 -0.46727
Zn Zn 0.62294 0.184375 0.878596 0.90689
Zn Zn 0.631095 0.176066 0.924619 0.90689
Zn Zn 0.869478 0.322913 0.632553 0.90689
Zn Zn 0.860308 0.329852 0.681069 0.90689
H_ H_ 0.795377 0.185688 0.945949 0.11455
H_ H_ 0.863468 0.178895 0.847645 0.11455
H_ H_ 0.776298 0.196805 0.854047 0.11455
H_ H_ 0.887913 0.203287 0.965164 0.11455
H_ H_ 0.976295 0.202673 0.956723 0.11455
H_ H_ 0.949699 0.194192 0.864878 0.11455
H_ H_ 0.57477 0.00870412 0.926936 0.11455
H_ H_ 0.622825 0.43093 0.844643 0.11455
H_ H_ 0.676146 0.0211679 0.854631 0.11455
H_ H_ 0.624745 0.428916 0.961022 0.11455
H_ H_ 0.615592 0.336517 0.958301 0.11455
H_ H_ 0.613231 0.348367 0.864797 0.11455
H_ H_ 0.57963 0.102877 0.960181 0.11455
H_ H_ 0.545416 0.110337 0.512374 0.11455
H_ H_ 0.591929 0.142505 0.553079 0.11455
H_ H_ 0.694761 0.240102 0.967868 0.11455
H_ H_ 0.722934 0.308436 0.506243 0.11455
H_ H_ 0.6921 0.296314 0.555039 0.11455
H_ H_ 0.5191 0.221095 0.618597 0.11455
H_ H_ 0.501448 0.186171 0.666156 0.11455
H_ H_ 0.765921 0.18522 0.636392 0.11455
H_ H_ 0.754524 0.174451 0.68839 0.11455
H_ H_ 0.573794 0.0847952 0.746608 0.11455
H_ H_ 0.543014 0.0621115 0.793609 0.11455
H_ H_ 0.56329 0.119945 0.833861 0.11455
H_ H_ 0.649306 0.249579 0.75399 0.11455
H_ H_ 0.68886 0.293943 0.798208 0.11455
H_ H_ 0.67157 0.261145 0.845491 0.11455
H_ H_ 0.688817 0.306573 0.694565 0.11455
H_ H_ 0.624167 0.332933 0.598055 0.11455
H_ H_ 0.714485 0.326058 0.605483 0.11455
H_ H_ 0.601381 0.306997 0.715735 0.11455
H_ H_ 0.507494 0.303193 0.704759 0.11455
H_ H_ 0.53641 0.322359 0.613808 0.11455
H_ H_ 0.837456 0.493556 0.690025 0.11455
H_ H_ 0.881482 0.0696768 0.601256 0.11455
H_ H_ 0.89088 0.482802 0.602155 0.11455
H_ H_ 0.847792 0.0757674 0.716661 0.11455
H_ H_ 0.855086 0.173333 0.713014 0.11455
H_ H_ 0.884057 0.152981 0.62347 0.11455
H_ H_ 0.916466 0.403248 0.718072 0.11455
H_ H_ 0.922082 0.437937 0.766967 0.11455
H_ H_ 0.871232 0.398277 0.806422 0.11455
H_ H_ 0.807971 0.267147 0.721746 0.11455
H_ H_ 0.769889 0.213377 0.761476 0.11455
H_ H_ 0.784575 0.239357 0.81175 0.11455
H_ H_ 0.981211 0.30823 0.870001 0.11455
H_ H_ -0.004171000000000036 0.313393 0.922632 0.11455
H_ H_ 0.729816 0.329927 0.890684 0.11455
H_ H_ 0.740483 0.341133 0.941292 0.11455
H_ H_ 0.93456 0.419811 0.998714 0.11455
H_ H_ 0.944537 0.448883 0.548825 0.11455
H_ H_ 0.929095 0.392962 0.587886 0.11455
H_ H_ 0.842579 0.259596 0.506133 0.11455
H_ H_ 0.815256 0.208642 0.54709 0.11455
H_ H_ 0.824986 0.243311 0.59745 0.11455
C_ C_ 0.722379 0.19296 0.901654 0.68181
C_ C_ 0.779033 0.190806 0.899544 -0.05681
C_ C_ 0.811726 0.190682 0.924333 -0.08735
C_ C_ 0.865235 0.191105 0.920723 -0.05681
C_ C_ 0.885075 0.189714 0.892438 -0.05681
C_ C_ 0.852933 0.189918 0.869058 -0.08735
C_ C_ 0.800076 0.193661 0.872493 -0.08735
C_ C_ 0.899224 0.197732 0.94337 -0.08735
C_ C_ 0.950458 0.200178 0.938339 -0.08735
C_ C_ 0.97148 0.19253 0.910808 -0.05681
C_ C_ 0.937557 0.187314 0.887562 -0.08735
C_ C_ 0.61575 0.280007 0.908863 0.68181
C_ C_ 0.630965 0.0812114 0.894997 0.68181
C_ C_ 0.628139 0.0236713 0.893726 -0.05681
C_ C_ 0.64571 0.49535 0.917248 -0.08735
C_ C_ 0.637889 0.441754 0.915781 -0.05681
C_ C_ 0.626456 0.419234 0.888892 -0.05681
C_ C_ 0.629333 0.447929 0.864387 -0.08735
C_ C_ 0.626046 0.501445 0.866535 -0.08735
C_ C_ 0.625571 0.411507 0.940723 -0.08735
C_ C_ 0.621515 0.358075 0.937908 -0.08735
C_ C_ 0.617637 0.335041 0.911582 -0.05681
C_ C_ 0.617364 0.365746 0.886375 -0.08735
C_ C_ 0.530291 0.176139 0.906112 0.68181
C_ C_ 0.598359 0.121313 0.978561 0.1947
C_ C_ 0.576079 0.135947 0.508425 -0.08735
C_ C_ 0.602682 0.155012 0.532145 -0.08735
C_ C_ 0.639724 0.191294 0.526499 -0.05681
C_ C_ 0.656528 0.199584 0.49727 0.18498
C_ C_ 0.687889 0.226559 0.989161 -0.08735
C_ C_ 0.703106 0.274352 0.51189 -0.08735
C_ C_ 0.686327 0.266653 0.540149 -0.08735
C_ C_ 0.660378 0.222005 0.548437 0.18498
C_ C_ 0.693939 0.199614 0.597241 0.44287
C_ C_ 0.607359 0.216872 0.592144 0.44287
C_ C_ 0.599116 0.204114 0.620874 -0.05681
C_ C_ 0.55052 0.201453 0.630648 -0.08735
C_ C_ 0.541192 0.190125 0.659843 -0.08735
C_ C_ 0.580925 0.181418 0.679139 -0.05681
C_ C_ 0.630183 0.17353 0.667527 -0.05681
C_ C_ 0.639279 0.185619 0.638027 -0.05681
C_ C_ 0.688208 0.189641 0.627347 -0.05681
C_ C_ 0.72967 0.189261 0.645529 -0.08735
C_ C_ 0.722705 0.174349 0.674246 -0.08735
C_ C_ 0.672679 0.170006 0.68637 -0.05681
C_ C_ 0.663887 0.165232 0.716742 0.44287
C_ C_ 0.575849 0.179296 0.709686 0.44287
C_ C_ 0.605477 0.155283 0.757594 0.18498
C_ C_ 0.577935 0.112306 0.763774 -0.08735
C_ C_ 0.565702 0.0958429 0.791201 -0.08735
C_ C_ 0.577624 0.127401 0.813387 -0.08735
C_ C_ 0.607493 0.171615 0.808719 0.18498
C_ C_ 0.618396 0.187399 0.779808 -0.05681
C_ C_ 0.647382 0.233456 0.775056 -0.08735
C_ C_ 0.667748 0.258418 0.799458 -0.08735
C_ C_ 0.653969 0.242406 0.826214 0.1947
C_ C_ 0.764933 0.32097 0.654405 0.68181
C_ C_ 0.709788 0.317167 0.651529 -0.05681
C_ C_ 0.674316 0.314963 0.674469 -0.08735
C_ C_ 0.621111 0.310053 0.670275 -0.05681
C_ C_ 0.602598 0.317819 0.641522 -0.05681
C_ C_ 0.637989 0.325971 0.619614 -0.08735
C_ C_ 0.690081 0.322784 0.623933 -0.08735
C_ C_ 0.588138 0.306296 0.692798 -0.08735
C_ C_ 0.536731 0.305979 0.687259 -0.08735
C_ C_ 0.517432 0.313564 0.660118 -0.05681
C_ C_ 0.551221 0.318259 0.635803 -0.08735
C_ C_ 0.873962 0.227545 0.664726 0.68181
C_ C_ 0.859542 0.422727 0.649095 0.68181
C_ C_ 0.868227 0.478965 0.648292 -0.05681
C_ C_ 0.852115 0.00724724 0.673663 -0.08735
C_ C_ 0.860309 0.0607845 0.671219 -0.05681
C_ C_ 0.871492 0.0843076 0.645652 -0.05681
C_ C_ 0.876381 0.0537107 0.621795 -0.08735
C_ C_ 0.881753 0.502616 0.622209 -0.08735
C_ C_ 0.856311 0.091842 0.696125 -0.08735
C_ C_ 0.859871 0.14512 0.694105 -0.08735
C_ C_ 0.872334 0.168654 0.667875 -0.05681
C_ C_ 0.878956 0.137602 0.643442 -0.08735
C_ C_ 0.963534 0.325899 0.659518 0.68181
C_ C_ 0.890517 0.390623 0.734054 0.1947
C_ C_ 0.892707 0.410677 0.762002 -0.08735
C_ C_ 0.869217 0.384012 0.784013 -0.08735
C_ C_ 0.848938 0.335666 0.778302 -0.05681
C_ C_ 0.841907 0.321813 0.749609 0.18498
C_ C_ 0.812249 0.278409 0.744035 -0.08735
C_ C_ 0.795299 0.245016 0.765621 -0.08735
C_ C_ 0.800135 0.261845 0.794138 -0.08735
C_ C_ 0.83386 0.301661 0.80158 0.18498
C_ C_ 0.802197 0.324103 0.848954 0.44287
C_ C_ 0.888586 0.306859 0.843419 0.44287
C_ C_ 0.900083 0.313751 0.873186 -0.05681
C_ C_ 0.950304 0.311053 0.884425 -0.08735
C_ C_ 0.958823 0.319129 0.913887 -0.08735
C_ C_ 0.917224 0.324848 0.932701 -0.05681
C_ C_ 0.866964 0.333528 0.920456 -0.05681
C_ C_ 0.859582 0.329391 0.890281 -0.05681
C_ C_ 0.809242 0.33171 0.878835 -0.05681
C_ C_ 0.7678 0.33417 0.897877 -0.08735
C_ C_ 0.775587 0.340568 0.927271 -0.08735
C_ C_ 0.825904 0.341459 0.939215 -0.05681
C_ C_ 0.834841 0.347984 0.969867 0.44287
C_ C_ 0.922671 0.327574 0.962484 0.44287
C_ C_ 0.891583 0.352027 0.509636 0.18498
C_ C_ 0.918023 0.398348 0.515148 -0.08735
C_ C_ 0.924026 0.413491 0.543018 -0.08735
C_ C_ 0.91444 0.381165 0.565598 -0.08735
C_ C_ 0.886396 0.336311 0.560316 0.18498
C_ C_ 0.87549 0.320958 0.532416 -0.05681
C_ C_ 0.851251 0.274217 0.527939 -0.08735
C_ C_ 0.83014 0.247034 0.551109 -0.08735
C_ C_ 0.838452 0.265448 0.579646 0.1947
N_ N_ 0.631654 0.16033 0.973028 -0.29468
N_ N_ 0.653076 0.211347 0.579678 -0.17154
N_ N_ 0.615867 0.16743 0.726947 -0.17154
N_ N_ 0.624047 0.200425 0.831363 -0.29468
N_ N_ 0.859963 0.350604 0.727939 -0.29468
N_ N_ 0.841842 0.313036 0.831511 -0.17154
N_ N_ 0.883835 0.340401 0.980369 -0.17154
N_ N_ 0.869461 0.308227 0.583325 -0.29468
O_ O_ 0.70253 0.175316 0.923854 -0.58347
O_ O_ 0.695808 0.199817 0.878635 -0.58347
O_ O_ 0.632716 0.254367 0.928397 -0.58347
O_ O_ 0.609482 0.259041 0.88454 -0.58347
O_ O_ 0.628717 0.102882 0.918706 -0.58347
O_ O_ 0.633541 0.107082 0.873009 -0.58347
O_ O_ 0.559519 0.173842 0.927858 -0.58347
O_ O_ 0.550288 0.174086 0.881672 -0.58347
O_ O_ 0.568731 0.238541 0.578133 -0.46727
O_ O_ 0.73878 0.197252 0.585773 -0.46727
O_ O_ 0.531808 0.183978 0.720387 -0.46727
O_ O_ 0.701431 0.15341 0.734417 -0.46727
O_ O_ 0.785795 0.318714 0.679342 -0.58347
O_ O_ 0.791885 0.326817 0.632489 -0.58347
O_ O_ 0.873486 0.25543 0.686635 -0.58347
O_ O_ 0.864406 0.248204 0.640556 -0.58347
O_ O_ 0.847831 0.402727 0.672745 -0.58347
O_ O_ 0.87477 0.393762 0.627585 -0.58347
O_ O_ 0.9353 0.343302 0.678775 -0.58347
O_ O_ 0.943589 0.318209 0.63565 -0.58347
O_ O_ 0.925483 0.292834 0.825516 -0.46727
O_ O_ 0.759007 0.342061 0.837911 -0.46727
O_ O_ 0.967416 0.318494 0.973865 -0.46727
O_ O_ 0.798507 0.365106 0.985833 -0.46727
Zn Zn 0.628961 0.690644 0.383696 0.90689
Zn Zn 0.639299 0.681536 0.429689 0.90689
Zn Zn 0.878744 0.812814 0.135934 0.90689
Zn Zn 0.867015 0.819912 0.184079 0.90689
H_ H_ 0.809025 0.710725 0.444101 0.11455
H_ H_ 0.878686 0.672672 0.348741 0.11455
H_ H_ 0.785474 0.676858 0.35724 0.11455
H_ H_ 0.889721 0.689444 0.46519 0.11455
H_ H_ 0.981453 0.682691 0.460288 0.11455
H_ H_ 0.961819 0.672763 0.370295 0.11455
H_ H_ 0.660121 0.517546 0.440331 0.11455
H_ H_ 0.611213 0.933833 0.350319 0.11455
H_ H_ 0.642246 0.527942 0.348696 0.11455
H_ H_ 0.645337 0.930043 0.465901 0.11455
H_ H_ 0.637425 0.839049 0.462334 0.11455
H_ H_ 0.633738 0.856636 0.370114 0.11455
H_ H_ 0.58358 0.607804 0.460957 0.11455
H_ H_ 0.580149 0.552372 0.0102076 0.11455
H_ H_ 0.595534 0.602925 0.051398 0.11455
H_ H_ 0.6787 0.751977 0.473327 0.11455
H_ H_ 0.700714 0.795489 0.0164073 0.11455
H_ H_ 0.67861 0.769533 0.0637504 0.11455
H_ H_ 0.510419 0.698719 0.132039 0.11455
H_ H_ 0.511206 0.699844 0.18147 0.11455
H_ H_ 0.757166 0.642848 0.12918 0.11455
H_ H_ 0.760125 0.648512 0.183294 0.11455
H_ H_ 0.607316 0.571559 0.251343 0.11455
H_ H_ 0.594613 0.544964 0.299726 0.11455
H_ H_ 0.593054 0.609451 0.338844 0.11455
H_ H_ 0.674566 0.736892 0.256319 0.11455
H_ H_ 0.703255 0.788722 0.295623 0.11455
H_ H_ 0.683547 0.764929 0.346015 0.11455
H_ H_ 0.704414 0.800631 0.19573 0.11455
H_ H_ 0.631132 0.817839 0.0976041 0.11455
H_ H_ 0.723382 0.812104 0.104464 0.11455
H_ H_ 0.616258 0.793288 0.214986 0.11455
H_ H_ 0.527521 0.802213 0.209082 0.11455
H_ H_ 0.544266 0.829153 0.119934 0.11455
H_ H_ 0.890032 0.989124 0.194183 0.11455
H_ H_ 0.850213 0.561902 0.100779 0.11455
H_ H_ 0.85977 0.969721 0.102344 0.11455
H_ H_ 0.885123 0.564215 0.218743 0.11455
H_ H_ 0.885628 0.655004 0.216331 0.11455
H_ H_ 0.865283 0.644666 0.123505 0.11455
H_ H_ 0.924461 0.890425 0.221001 0.11455
H_ H_ 0.937563 0.919373 0.270204 0.11455
H_ H_ 0.883289 0.886183 0.308228 0.11455
H_ H_ 0.800401 0.762143 0.223741 0.11455
H_ H_ 0.776299 0.707163 0.260384 0.11455
H_ H_ 0.786712 0.727487 0.3109 0.11455
H_ H_ 0.981412 0.811167 0.369761 0.11455
H_ H_ -0.00819700000000001 0.814554 0.423535 0.11455
H_ H_ 0.730122 0.84113 0.39278 0.11455
H_ H_ 0.740388 0.828677 0.444349 0.11455
H_ H_ 0.947957 0.885377 0.500759 0.11455
H_ H_ 0.979504 0.926781 0.0518308 0.11455
H_ H_ 0.938057 0.87973 0.0920127 0.11455
H_ H_ 0.847141 0.749763 0.0117243 0.11455
H_ H_ 0.808638 0.71046 0.0520036 0.11455
H_ H_ 0.834954 0.73408 0.0998001 0.11455
C_ C_ 0.733088 0.691826 0.40554 0.68181
C_ C_ 0.78952 0.690515 0.401653 -0.05681
C_ C_ 0.822366 0.696333 0.425247 -0.08735
C_ C_ 0.873774 0.685373 0.422119 -0.05681
C_ C_ 0.893911 0.677791 0.394078 -0.05681
C_ C_ 0.86218 0.678748 0.370305 -0.08735
C_ C_ 0.809786 0.680956 0.374907 -0.08735
C_ C_ 0.907363 0.685028 0.444713 -0.08735
C_ C_ 0.959106 0.68205 0.441243 -0.08735
C_ C_ 0.979611 0.680776 0.414156 -0.05681
C_ C_ 0.946539 0.676316 0.390432 -0.08735
C_ C_ 0.621404 0.784784 0.412973 0.68181
C_ C_ 0.652131 0.586104 0.398658 0.68181
C_ C_ 0.652075 0.530026 0.394865 -0.05681
C_ C_ 0.633565 0.998764 0.423932 -0.08735
C_ C_ 0.631182 0.945682 0.421053 -0.05681
C_ C_ 0.6269 0.924021 0.394707 -0.05681
C_ C_ 0.617371 0.953531 0.370744 -0.08735
C_ C_ 0.61766 1.00540296 0.373271 -0.08735
C_ C_ 0.636371 0.913416 0.445145 -0.08735
C_ C_ 0.635814 0.861713 0.443187 -0.08735
C_ C_ 0.629738 0.839887 0.415188 -0.05681
C_ C_ 0.629948 0.872312 0.391728 -0.08735
C_ C_ 0.537499 0.674815 0.40471 0.68181
C_ C_ 0.59917 0.62473 0.479152 0.1947
C_ C_ 0.589829 0.591699 0.00618984 -0.08735
C_ C_ 0.608419 0.618166 0.0305204 -0.08735
C_ C_ 0.628516 0.6676 0.0286389 -0.05681
C_ C_ 0.640697 0.685036 1.00021 0.18498
C_ C_ 0.669934 0.737487 0.494955 -0.08735
C_ C_ 0.677107 0.763435 0.0187672 -0.08735
C_ C_ 0.661897 0.748513 0.0460497 -0.08735
C_ C_ 0.640177 0.699296 0.0514245 0.18498
C_ C_ 0.681207 0.673286 0.0959269 0.44287
C_ C_ 0.591801 0.68695 0.0953416 0.44287
C_ C_ 0.590926 0.685635 0.126072 -0.05681
C_ C_ 0.545564 0.685989 0.141647 -0.08735
C_ C_ 0.545611 0.690115 0.170274 -0.08735
C_ C_ 0.587671 0.675602 0.185558 -0.05681
C_ C_ 0.635457 0.671281 0.170801 -0.05681
C_ C_ 0.637172 0.67579 0.140921 -0.05681
C_ C_ 0.681629 0.666617 0.125439 -0.05681
C_ C_ 0.726415 0.656803 0.141777 -0.08735
C_ C_ 0.724142 0.652528 0.171379 -0.08735
C_ C_ 0.679333 0.661418 0.186316 -0.05681
C_ C_ 0.67614 0.654255 0.216159 0.44287
C_ C_ 0.588414 0.673634 0.215696 0.44287
C_ C_ 0.628049 0.648529 0.261213 0.18498
C_ C_ 0.614329 0.597889 0.268289 -0.08735
C_ C_ 0.602724 0.584993 0.295571 -0.08735
C_ C_ 0.603808 0.622644 0.317715 -0.08735
C_ C_ 0.626188 0.669103 0.312358 0.18498
C_ C_ 0.634292 0.683106 0.283195 -0.05681
C_ C_ 0.660992 0.728879 0.278543 -0.08735
C_ C_ 0.678277 0.757641 0.301017 -0.08735
C_ C_ 0.665528 0.743395 0.328869 0.1947
C_ C_ 0.775602 0.815846 0.155114 0.68181
C_ C_ 0.719885 0.814957 0.150564 -0.05681
C_ C_ 0.687648 0.804055 0.17411 -0.08735
C_ C_ 0.633355 0.803418 0.169889 -0.05681
C_ C_ 0.612632 0.810696 0.142626 -0.05681
C_ C_ 0.646997 0.815609 0.119601 -0.08735
C_ C_ 0.69977 0.815531 0.124035 -0.08735
C_ C_ 0.602175 0.799006 0.193857 -0.08735
C_ C_ 0.550626 0.809804 0.192008 -0.08735
C_ C_ 0.527253 0.820183 0.164964 -0.05681
C_ C_ 0.560263 0.81714 0.139804 -0.08735
C_ C_ 0.875697 0.715814 0.167027 0.68181
C_ C_ 0.869589 0.914791 0.152761 0.68181
C_ C_ 0.870251 0.970723 0.149438 -0.05681
C_ C_ 0.86612 0.500054 0.17394 -0.08735
C_ C_ 0.868688 0.55314 0.17332 -0.05681
C_ C_ 0.860143 0.577414 0.146066 -0.05681
C_ C_ 0.850607 0.547358 0.121865 -0.08735
C_ C_ 0.866365 0.992047 0.121302 -0.08735
C_ C_ 0.878752 0.582169 0.198278 -0.08735
C_ C_ 0.881907 0.635272 0.196185 -0.08735
C_ C_ 0.87223 0.660039 0.169508 -0.05681
C_ C_ 0.861765 0.629125 0.144955 -0.08735
C_ C_ 0.970893 0.819506 0.160866 0.68181
C_ C_ 0.899554 0.877179 0.23744 0.1947
C_ C_ 0.90972 0.88814 0.266197 -0.08735
C_ C_ 0.88203 0.868268 0.287586 -0.08735
C_ C_ 0.852968 0.825778 0.280972 -0.05681
C_ C_ 0.843761 0.812821 0.252058 0.18498
C_ C_ 0.817004 0.768911 0.245834 -0.08735
C_ C_ 0.795066 0.740171 0.267647 -0.08735
C_ C_ 0.801393 0.751817 0.295363 -0.08735
C_ C_ 0.830671 0.795152 0.302925 0.18498
C_ C_ 0.798824 0.818678 0.351573 0.44287
C_ C_ 0.885648 0.79665 0.344034 0.44287
C_ C_ 0.895921 0.806051 0.374034 -0.05681
C_ C_ 0.94554 0.811015 0.384142 -0.08735
C_ C_ 0.954206 0.813423 0.413882 -0.08735
C_ C_ 0.912876 0.816472 0.433047 -0.05681
C_ C_ 0.86319 0.819235 0.421994 -0.05681
C_ C_ 0.855633 0.81517 0.392273 -0.05681
C_ C_ 0.806911 0.825379 0.380865 -0.05681
C_ C_ 0.768018 0.836768 0.400348 -0.08735
C_ C_ 0.773722 0.827465 0.430177 -0.08735
C_ C_ 0.821795 0.823184 0.441683 -0.05681
C_ C_ 0.831341 0.823335 0.470774 0.44287
C_ C_ 0.917307 0.809686 0.46382 0.44287
C_ C_ 0.907433 0.842102 0.0130419 0.18498
C_ C_ 0.938731 0.884356 0.0196606 -0.08735
C_ C_ 0.954262 0.894399 0.0471409 -0.08735
C_ C_ 0.935665 0.864481 0.0692719 -0.08735
C_ C_ 0.899077 0.825225 0.064189 0.18498
C_ C_ 0.888556 0.81102 0.0362921 -0.05681
C_ C_ 0.861031 0.763373 0.0324225 -0.08735
C_ C_ 0.839207 0.737867 0.0552903 -0.08735
C_ C_ 0.85028 0.755551 0.0826831 0.1947
N_ N_ 0.628209 0.665427 0.476455 -0.29468
N_ N_ 0.637151 0.682438 0.081557 -0.17154
N_ N_ 0.631442 0.659931 0.230865 -0.17154
N_ N_ 0.638876 0.701662 0.334309 -0.29468
N_ N_ 0.86709 0.837893 0.23102 -0.29468
N_ N_ 0.838374 0.804148 0.33365 -0.17154
N_ N_ 0.877388 0.819504 0.481349 -0.17154
N_ N_ 0.87643 0.800479 0.0865619 -0.29468
O_ O_ 0.713142 0.681737 0.429818 -0.58347
O_ O_ 0.704855 0.703097 0.384267 -0.58347
O_ O_ 0.627156 0.756816 0.433814 -0.58347
O_ O_ 0.620804 0.765666 0.38723 -0.58347
O_ O_ 0.646947 0.603302 0.423692 -0.58347
O_ O_ 0.643867 0.615844 0.378179 -0.58347
O_ O_ 0.565952 0.680099 0.426439 -0.58347
O_ O_ 0.555784 0.679332 0.380659 -0.58347
O_ O_ 0.550161 0.68895 0.0805709 -0.46727
O_ O_ 0.72475 0.673294 0.0815115 -0.46727
O_ O_ 0.546023 0.681626 0.229432 -0.46727
O_ O_ 0.717805 0.648055 0.230428 -0.46727
O_ O_ 0.794658 0.821821 0.180881 -0.58347
O_ O_ 0.805514 0.801984 0.134999 -0.58347
O_ O_ 0.868725 0.746692 0.187933 -0.58347
O_ O_ 0.886517 0.735953 0.14349 -0.58347
O_ O_ 0.865525 0.894437 0.177073 -0.58347
O_ O_ 0.869059 0.886612 0.130129 -0.58347
O_ O_ 0.941894 0.82286 0.183145 -0.58347
O_ O_ 0.952377 0.821235 0.135333 -0.58347
O_ O_ 0.924739 0.791311 0.326378 -0.46727
O_ O_ 0.753705 0.827574 0.340966 -0.46727
O_ O_ 0.960595 0.802144 0.47455 -0.46727
O_ O_ 0.792739 0.825609 0.488217 -0.46727
Zn Zn 0.619029 0.683751 0.879591 0.90689
Zn Zn 0.629544 0.677401 0.929003 0.90689
Zn Zn 0.866181 0.816086 0.632126 0.90689
Zn Zn 0.852718 0.826657 0.682931 0.90689
H_ H_ 0.798236 0.711957 0.94188 0.11455
H_ H_ 0.869689 0.658652 0.848672 0.11455
H_ H_ 0.779777 0.656427 0.856237 0.11455
H_ H_ 0.879309 0.69577 0.965663 0.11455
H_ H_ 0.975469 0.695304 0.9589 0.11455
H_ H_ 0.954457 0.648894 0.871502 0.11455
H_ H_ 0.662231 0.511001 0.935428 0.11455
H_ H_ 0.664284 0.930134 0.850413 0.11455
H_ H_ 0.630514 0.523122 0.844927 0.11455
H_ H_ 0.574874 0.928772 0.957847 0.11455
H_ H_ 0.587618 0.83438 0.957493 0.11455
H_ H_ 0.6477 0.842233 0.871924 0.11455
H_ H_ 0.581275 0.593015 0.960719 0.11455
H_ H_ 0.564219 0.569543 0.510942 0.11455
H_ H_ 0.621221 0.59951 0.549251 0.11455
H_ H_ 0.679252 0.740619 0.973593 0.11455
H_ H_ 0.706977 0.799388 0.513811 0.11455
H_ H_ 0.688693 0.77118 0.562662 0.11455
H_ H_ 0.504856 0.688468 0.616009 0.11455
H_ H_ 0.491639 0.702604 0.668735 0.11455
H_ H_ 0.756694 0.664224 0.639579 0.11455
H_ H_ 0.740007 0.663726 0.693198 0.11455
H_ H_ 0.539831 0.603353 0.74714 0.11455
H_ H_ 0.533554 0.572432 0.795338 0.11455
H_ H_ 0.559194 0.62709 0.835284 0.11455
H_ H_ 0.651013 0.749523 0.754502 0.11455
H_ H_ 0.697965 0.783155 0.79423 0.11455
H_ H_ 0.67321 0.765454 0.843657 0.11455
H_ H_ 0.688683 0.802358 0.700312 0.11455
H_ H_ 0.61932 0.817652 0.602737 0.11455
H_ H_ 0.707929 0.826619 0.60851 0.11455
H_ H_ 0.600602 0.79928 0.720545 0.11455
H_ H_ 0.510264 0.804412 0.713323 0.11455
H_ H_ 0.530667 0.81737 0.620642 0.11455
H_ H_ 0.845789 0.987533 0.693507 0.11455
H_ H_ 0.909415 0.569426 0.602129 0.11455
H_ H_ 0.877796 0.977642 0.604296 0.11455
H_ H_ 0.8345 0.578578 0.713347 0.11455
H_ H_ 0.84688 0.669741 0.711159 0.11455
H_ H_ 0.900913 0.658182 0.624191 0.11455
H_ H_ 0.906217 0.896786 0.720016 0.11455
H_ H_ 0.900701 0.933282 0.768303 0.11455
H_ H_ 0.868589 0.879852 0.810096 0.11455
H_ H_ 0.793953 0.754899 0.724962 0.11455
H_ H_ 0.770388 0.69785 0.763267 0.11455
H_ H_ 0.792977 0.721267 0.814958 0.11455
H_ H_ 0.982818 0.773698 0.875173 0.11455
H_ H_ 0.999270537 0.790843 0.926226 0.11455
H_ H_ 0.744912 0.843884 0.894088 0.11455
H_ H_ 0.756084 0.852608 0.945214 0.11455
H_ H_ 0.957932 0.904352 1.00238867 0.11455
H_ H_ 0.955116 0.920087 0.548127 0.11455
H_ H_ 0.916671 0.875257 0.589008 0.11455
H_ H_ 0.836781 0.742188 0.510563 0.11455
H_ H_ 0.795992 0.703972 0.553091 0.11455
H_ H_ 0.810162 0.73912 0.599734 0.11455
C_ C_ 0.724645 0.683323 0.903956 0.68181
C_ C_ 0.780849 0.681023 0.90035 -0.05681
C_ C_ 0.812251 0.690454 0.924249 -0.08735
C_ C_ 0.864737 0.683409 0.921274 -0.05681
C_ C_ 0.885924 0.674889 0.893713 -0.05681
C_ C_ 0.854269 0.667986 0.869983 -0.08735
C_ C_ 0.801943 0.669072 0.873621 -0.08735
C_ C_ 0.897789 0.691821 0.944569 -0.08735
C_ C_ 0.951021 0.689115 0.940898 -0.08735
C_ C_ 0.971417 0.673892 0.914308 -0.05681
C_ C_ 0.938558 0.665043 0.891051 -0.08735
C_ C_ 0.617538 0.776776 0.914005 0.68181
C_ C_ 0.636592 0.580928 0.894999 0.68181
C_ C_ 0.640647 0.524555 0.892114 -0.05681
C_ C_ 0.60612 -0.005485999999999991 0.915231 -0.08735
C_ C_ 0.613101 0.941135 0.916945 -0.05681
C_ C_ 0.64179 0.917019 0.894122 -0.05681
C_ C_ 0.657661 0.946673 0.87087 -0.08735
C_ C_ 0.655883 -0.00039000000000000146 0.871544 -0.08735
C_ C_ 0.590635 0.910441 0.938775 -0.08735
C_ C_ 0.594243 0.857475 0.938643 -0.08735
C_ C_ 0.615053 0.834019 0.914277 -0.05681
C_ C_ 0.639694 0.863294 0.891835 -0.08735
C_ C_ 0.527118 0.671242 0.906917 0.68181
C_ C_ 0.60193 0.61 0.979543 0.1947
C_ C_ 0.591081 0.602652 0.506172 -0.08735
C_ C_ 0.617345 0.621856 0.52998 -0.08735
C_ C_ 0.645174 0.669121 0.526872 -0.05681
C_ C_ 0.643871 0.692924 0.499233 0.18498
C_ C_ 0.669311 0.729525 0.995572 -0.08735
C_ C_ 0.683779 0.766681 0.518192 -0.08735
C_ C_ 0.677645 0.747418 0.54512 -0.08735
C_ C_ 0.658487 0.697415 0.550124 0.18498
C_ C_ 0.683669 0.668806 0.597104 0.44287
C_ C_ 0.597867 0.691539 0.590322 0.44287
C_ C_ 0.586695 0.684808 0.619934 -0.05681
C_ C_ 0.537427 0.685955 0.630373 -0.08735
C_ C_ 0.529501 0.68768 0.661186 -0.08735
C_ C_ 0.571299 0.683323 0.680311 -0.05681
C_ C_ 0.61845 0.671058 0.668707 -0.05681
C_ C_ 0.627029 0.675822 0.638369 -0.05681
C_ C_ 0.676884 0.674829 0.627867 -0.05681
C_ C_ 0.716887 0.666436 0.647143 -0.08735
C_ C_ 0.708461 0.663039 0.677695 -0.08735
C_ C_ 0.658618 0.663995 0.688085 -0.05681
C_ C_ 0.647755 0.660483 0.717601 0.44287
C_ C_ 0.56372 0.687715 0.709935 0.44287
C_ C_ 0.59012 0.663061 0.757576 0.18498
C_ C_ 0.55675 0.623996 0.763809 -0.08735
C_ C_ 0.548173 0.609094 0.792053 -0.08735
C_ C_ 0.568395 0.63587 0.814576 -0.08735
C_ C_ 0.600604 0.679349 0.809044 0.18498
C_ C_ 0.612153 0.692872 0.780368 -0.05681
C_ C_ 0.643403 0.734777 0.775341 -0.08735
C_ C_ 0.66836 0.757194 0.798337 -0.08735
C_ C_ 0.65721 0.741588 0.82653 0.1947
C_ C_ 0.761774 0.808194 0.658711 0.68181
C_ C_ 0.706995 0.812465 0.655148 -0.05681
C_ C_ 0.672467 0.809802 0.678873 -0.08735
C_ C_ 0.618899 0.812052 0.676493 -0.05681
C_ C_ 0.598112 0.81342 0.647841 -0.05681
C_ C_ 0.633016 0.813306 0.624077 -0.08735
C_ C_ 0.685031 0.82059 0.627318 -0.08735
C_ C_ 0.586129 0.811784 0.699715 -0.08735
C_ C_ 0.533433 0.806553 0.694554 -0.08735
C_ C_ 0.510195 0.811186 0.666534 -0.05681
C_ C_ 0.545154 0.815374 0.64343 -0.08735
C_ C_ 0.874066 0.724348 0.665063 0.68181
C_ C_ 0.854058 0.919355 0.651882 0.68181
C_ C_ 0.861903 0.976109 0.649713 -0.05681
C_ C_ 0.856646 0.510523 0.672177 -0.08735
C_ C_ 0.864987 0.563743 0.671818 -0.05681
C_ C_ 0.881079 0.586196 0.645597 -0.05681
C_ C_ 0.888757 0.556015 0.620557 -0.08735
C_ C_ 0.872209 1.000292721 0.624133 -0.08735
C_ C_ 0.851375 0.594094 0.694902 -0.08735
C_ C_ 0.859483 0.646867 0.693464 -0.08735
C_ C_ 0.872324 0.669296 0.66781 -0.05681
C_ C_ 0.883441 0.639619 0.642957 -0.08735
C_ C_ 0.959678 0.827584 0.655493 0.68181
C_ C_ 0.882171 0.87785 0.736785 0.1947
C_ C_ 0.886507 0.8956 0.765022 -0.08735
C_ C_ 0.870005 0.866317 0.788094 -0.08735
C_ C_ 0.85177 0.816065 0.783043 -0.05681
C_ C_ 0.843053 0.80251 0.753526 0.18498
C_ C_ 0.809258 0.76185 0.746662 -0.08735
C_ C_ 0.793857 0.730868 0.769319 -0.08735
C_ C_ 0.807998 0.741763 0.798019 -0.08735
C_ C_ 0.833676 0.785559 0.805198 0.18498
C_ C_ 0.812095 0.816667 0.853615 0.44287
C_ C_ 0.895501 0.786654 0.845569 0.44287
C_ C_ 0.906143 0.793315 0.876423 -0.05681
C_ C_ 0.954094 0.785744 0.889026 -0.08735
C_ C_ 0.963894 0.802117 0.917231 -0.08735
C_ C_ 0.923468 0.810864 0.935443 -0.05681
C_ C_ 0.876473 0.821841 0.9247 -0.05681
C_ C_ 0.866661 0.812869 0.894534 -0.05681
C_ C_ 0.821617 0.826909 0.882889 -0.05681
C_ C_ 0.782039 0.842841 0.901027 -0.08735
C_ C_ 0.789633 0.846529 0.931238 -0.08735
C_ C_ 0.840876 0.845484 0.942174 -0.05681
C_ C_ 0.851041 0.846334 0.971375 0.44287
C_ C_ 0.933083 0.814987 0.965349 0.44287
C_ C_ 0.888145 0.833731 0.510824 0.18498
C_ C_ 0.924913 0.870568 0.517512 -0.08735
C_ C_ 0.932129 0.88865 0.54524 -0.08735
C_ C_ 0.906076 0.867013 0.567948 -0.08735
C_ C_ 0.874356 0.826965 0.56311 0.18498
C_ C_ 0.865287 0.806558 0.534708 -0.05681
C_ C_ 0.837532 0.761892 0.531493 -0.08735
C_ C_ 0.816244 0.738292 0.555401 -0.08735
C_ C_ 0.82578 0.759079 0.582176 0.1947
N_ N_ 0.626427 0.655517 0.97673 -0.29468
N_ N_ 0.645291 0.680258 0.578795 -0.17154
N_ N_ 0.600719 0.672855 0.728094 -0.17154
N_ N_ 0.624189 0.703708 0.831722 -0.29468
N_ N_ 0.855694 0.835433 0.731262 -0.29468
N_ N_ 0.846893 0.79641 0.835486 -0.17154
N_ N_ 0.895156 0.830396 0.982999 -0.17154
N_ N_ 0.859909 0.798127 0.586268 -0.29468
O_ O_ 0.704116 0.681529 0.928424 -0.58347
O_ O_ 0.697924 0.69271 0.881955 -0.58347
O_ O_ 0.615063 0.750445 0.937593 -0.58347
O_ O_ 0.612693 0.755923 0.889009 -0.58347
O_ O_ 0.637563 0.604008 0.91896 -0.58347
O_ O_ 0.624738 0.60511 0.87307 -0.58347
O_ O_ 0.556042 0.668596 0.928815 -0.58347
O_ O_ 0.543586 0.669463 0.88103 -0.58347
O_ O_ 0.564291 0.712227 0.573818 -0.46727
O_ O_ 0.729026 0.659022 0.586713 -0.46727
O_ O_ 0.519491 0.702567 0.719506 -0.46727
O_ O_ 0.684408 0.64914 0.734924 -0.46727
O_ O_ 0.783294 0.813021 0.683171 -0.58347
O_ O_ 0.789763 0.809741 0.636432 -0.58347
O_ O_ 0.862375 0.75148 0.686269 -0.58347
O_ O_ 0.868623 0.743096 0.639183 -0.58347
O_ O_ 0.844263 0.89854 0.676272 -0.58347
O_ O_ 0.859887 0.890987 0.629832 -0.58347
O_ O_ 0.931642 0.838387 0.676501 -0.58347
O_ O_ 0.941913 0.821747 0.630514 -0.58347
O_ O_ 0.930504 0.768248 0.828725 -0.46727
O_ O_ 0.763895 0.826101 0.843187 -0.46727
O_ O_ 0.978757 0.812308 0.974787 -0.46727
O_ O_ 0.814407 0.862397 0.989534 -0.46727
_cell_length_a 26.376
_cell_length_b 26.400000238300095
_cell_length_c 46.67800035477134
_cell_angle_alpha 90.00700052986613
_cell_angle_beta 89.99899961309502
_cell_angle_gamma 90.45000003183146
_symmetry_space_group_name_H-M         'P 1'
_symmetry_Int_Tables_number            1
loop_
_symmetry_equiv_pos_as_xyz
   'x, y, z'
                         
loop_
_atom_site_label
_atom_site_type_symbol
_atom_site_fract_x 
_atom_site_fract_y
_atom_site_fract_z
_atom_site_charge
Zn Zn 0.128762 0.185231 0.380627 0.90689
Zn Zn 0.13767 0.177171 0.429379 0.90689
Zn Zn 0.382557 0.320149 0.131884 0.90689
Zn Zn 0.370577 0.325286 0.17827 0.90689
H_ H_ 0.303747 0.190182 0.442195 0.11455
H_ H_ 0.374011 0.174913 0.34419 0.11455
H_ H_ 0.279087 0.176052 0.353077 0.11455
H_ H_ 0.390683 0.195549 0.461468 0.11455
H_ H_ 0.482557 0.194069 0.454696 0.11455
H_ H_ 0.461844 0.172224 0.362825 0.11455
H_ H_ 0.162005 0.0106251 0.439606 0.11455
H_ H_ 0.135403 0.433047 0.348346 0.11455
H_ H_ 0.1177 0.022989 0.349527 0.11455
H_ H_ 0.114252 0.432481 0.465739 0.11455
H_ H_ 0.109418 0.335258 0.462218 0.11455
H_ H_ 0.115178 0.351142 0.371132 0.11455
H_ H_ 0.0736606 0.108043 0.461792 0.11455
H_ H_ 0.0433078 0.0948371 0.0140685 0.11455
H_ H_ 0.0849689 0.131919 0.0539652 0.11455
H_ H_ 0.202703 0.238285 0.474304 0.11455
H_ H_ 0.229839 0.289415 0.00702602 0.11455
H_ H_ 0.203949 0.27634 0.0571299 0.11455
H_ H_ 0.00834911 0.189722 0.122602 0.11455
H_ H_ 7.98437e-05 0.174109 0.173435 0.11455
H_ H_ 0.261256 0.193633 0.133515 0.11455
H_ H_ 0.248145 0.203197 0.184884 0.11455
H_ H_ 0.0780046 0.0910699 0.246981 0.11455
H_ H_ 0.0476595 0.0677879 0.297602 0.11455
H_ H_ 0.0793945 0.118225 0.33901 0.11455
H_ H_ 0.155407 0.252599 0.254948 0.11455
H_ H_ 0.198039 0.300496 0.29625 0.11455
H_ H_ 0.17852 0.273709 0.345549 0.11455
H_ H_ 0.201887 0.320883 0.196404 0.11455
H_ H_ 0.137612 0.324224 0.0963254 0.11455
H_ H_ 0.228326 0.320679 0.103012 0.11455
H_ H_ 0.119798 0.307663 0.212441 0.11455
H_ H_ 0.0296789 0.320153 0.207243 0.11455
H_ H_ 0.0475892 0.306858 0.114161 0.11455
H_ H_ 0.364162 0.490218 0.191696 0.11455
H_ H_ 0.385184 0.0694411 0.098275 0.11455
H_ H_ 0.353229 0.476301 0.0998508 0.11455
H_ H_ 0.347282 0.0781162 0.21623 0.11455
H_ H_ 0.371412 0.166857 0.213422 0.11455
H_ H_ 0.390465 0.155893 0.123027 0.11455
H_ H_ 0.436041 0.391039 0.215247 0.11455
H_ H_ 0.439811 0.426702 0.265354 0.11455
H_ H_ 0.414401 0.37707 0.305516 0.11455
H_ H_ 0.298735 0.272205 0.224582 0.11455
H_ H_ 0.279093 0.209962 0.264828 0.11455
H_ H_ 0.316309 0.219111 0.310535 0.11455
H_ H_ 0.493168 0.294092 0.375833 0.11455
H_ H_ 0.497835 0.316723 0.426311 0.11455
H_ H_ 0.241276 0.331253 0.387814 0.11455
H_ H_ 0.248772 0.325052 0.439483 0.11455
H_ H_ 0.42075 0.415659 0.500948 0.11455
H_ H_ 0.446343 0.441983 0.0479372 0.11455
H_ H_ 0.428983 0.386898 0.0856695 0.11455
H_ H_ 0.355061 0.253253 0.00842858 0.11455
H_ H_ 0.334738 0.198689 0.0504864 0.11455
H_ H_ 0.339295 0.233216 0.0976852 0.11455
C_ C_ 0.229976 0.185563 0.404117 0.68181
C_ C_ 0.286198 0.179646 0.397501 -0.05681
C_ C_ 0.318738 0.18637 0.42087 -0.08735
C_ C_ 0.372717 0.186634 0.416133 -0.05681
C_ C_ 0.393354 0.178435 0.388282 -0.05681
C_ C_ 0.358922 0.179433 0.365526 -0.08735
C_ C_ 0.305791 0.174982 0.371228 -0.08735
C_ C_ 0.405961 0.191638 0.439915 -0.08735
C_ C_ 0.458451 0.192354 0.435012 -0.08735
C_ C_ 0.480007 0.180131 0.407555 -0.05681
C_ C_ 0.445771 0.173113 0.38501 -0.08735
C_ C_ 0.122292 0.278483 0.415361 0.68181
C_ C_ 0.140032 0.0817836 0.396239 0.68181
C_ C_ 0.140272 0.024445 0.39564 -0.05681
C_ C_ 0.130289 0.494942 0.423203 -0.08735
C_ C_ 0.126699 0.442929 0.42118 -0.05681
C_ C_ 0.130041 0.419514 0.393757 -0.05681
C_ C_ 0.137131 0.449109 0.369656 -0.08735
C_ C_ 0.145639 0.502225 0.373415 -0.08735
C_ C_ 0.123243 0.411922 0.445789 -0.08735
C_ C_ 0.119095 0.358743 0.443807 -0.08735
C_ C_ 0.125042 0.333986 0.417044 -0.05681
C_ C_ 0.126413 0.365292 0.391946 -0.08735
C_ C_ 0.0330678 0.179923 0.405176 0.68181
C_ C_ 0.0945329 0.12616 0.480058 0.1947
C_ C_ 0.0720204 0.121521 0.00931691 -0.08735
C_ C_ 0.10098 0.140777 0.0322666 -0.08735
C_ C_ 0.132894 0.18309 0.026298 -0.05681
C_ C_ 0.1392 0.198675 0.996688 0.18498
C_ C_ 0.188232 0.227762 0.494294 -0.08735
C_ C_ 0.199748 0.262022 0.01258 -0.08735
C_ C_ 0.18419 0.254414 0.041712 -0.08735
C_ C_ 0.151368 0.214613 0.0489198 0.18498
C_ C_ 0.184643 0.1846 0.0948831 0.44287
C_ C_ 0.0984492 0.204978 0.0914895 0.44287
C_ C_ 0.0923613 0.192217 0.121546 -0.05681
C_ C_ 0.0431006 0.192298 0.1347 -0.08735
C_ C_ 0.0369388 0.178347 0.163474 -0.08735
C_ C_ 0.0800504 0.177124 0.181527 -0.05681
C_ C_ 0.128703 0.172981 0.167955 -0.05681
C_ C_ 0.13349 0.183613 0.138799 -0.05681
C_ C_ 0.182087 0.182022 0.125395 -0.05681
C_ C_ 0.225476 0.186586 0.142879 -0.08735
C_ C_ 0.21983 0.184573 0.172913 -0.08735
C_ C_ 0.172398 0.171252 0.185962 -0.05681
C_ C_ 0.166831 0.171849 0.216565 0.44287
C_ C_ 0.076014 0.180641 0.211372 0.44287
C_ C_ 0.109682 0.161945 0.259225 0.18498
C_ C_ 0.0874425 0.11795 0.265424 -0.08735
C_ C_ 0.0747247 0.102178 0.294247 -0.08735
C_ C_ 0.0914831 0.13067 0.317859 -0.08735
C_ C_ 0.122218 0.175935 0.312085 0.18498
C_ C_ 0.129524 0.191531 0.28238 -0.05681
C_ C_ 0.149329 0.240598 0.277364 -0.08735
C_ C_ 0.174022 0.266071 0.300544 -0.08735
C_ C_ 0.160624 0.251339 0.328236 0.1947
C_ C_ 0.279588 0.316058 0.153907 0.68181
C_ C_ 0.224696 0.3149 0.150941 -0.05681
C_ C_ 0.189974 0.31515 0.17419 -0.08735
C_ C_ 0.137969 0.317391 0.169045 -0.05681
C_ C_ 0.118907 0.318709 0.140928 -0.05681
C_ C_ 0.15286 0.321537 0.118104 -0.08735
C_ C_ 0.203352 0.318006 0.1226 -0.08735
C_ C_ 0.105067 0.314905 0.191151 -0.08735
C_ C_ 0.0536634 0.318728 0.188116 -0.08735
C_ C_ 0.0328933 0.317886 0.160239 -0.05681
C_ C_ 0.0651406 0.316462 0.136134 -0.08735
C_ C_ 0.379679 0.225136 0.16602 0.68181
C_ C_ 0.369916 0.421707 0.148691 0.68181
C_ C_ 0.371251 0.477244 0.145929 -0.05681
C_ C_ 0.355801 0.0100564 0.173107 -0.08735
C_ C_ 0.359617 0.0629088 0.17016 -0.05681
C_ C_ 0.371751 0.0857769 0.143243 -0.05681
C_ C_ 0.371784 0.0545574 0.119088 -0.08735
C_ C_ 0.360809 0.500231 0.119511 -0.08735
C_ C_ 0.362025 0.0932344 0.19532 -0.08735
C_ C_ 0.371417 0.145224 0.194195 -0.08735
C_ C_ 0.378679 0.169867 0.167797 -0.05681
C_ C_ 0.3819 0.138722 0.143329 -0.08735
C_ C_ 0.479418 0.328241 0.157324 0.68181
C_ C_ 0.413206 0.374459 0.233071 0.1947
C_ C_ 0.424527 0.389814 0.26053 -0.08735
C_ C_ 0.402175 0.365723 0.283978 -0.08735
C_ C_ 0.365676 0.326699 0.278946 -0.05681
C_ C_ 0.356117 0.312209 0.249997 0.18498
C_ C_ 0.319904 0.273185 0.244683 -0.08735
C_ C_ 0.304445 0.240757 0.267482 -0.08735
C_ C_ 0.326952 0.246918 0.294428 -0.08735
C_ C_ 0.353051 0.291196 0.301516 0.18498
C_ C_ 0.31857 0.312301 0.349049 0.44287
C_ C_ 0.406755 0.300248 0.344805 0.44287
C_ C_ 0.4125 0.306524 0.374903 -0.05681
C_ C_ 0.459643 0.303944 0.387861 -0.08735
C_ C_ 0.464857 0.31501 0.416692 -0.08735
C_ C_ 0.423012 0.318204 0.43445 -0.05681
C_ C_ 0.37341 0.319552 0.421905 -0.05681
C_ C_ 0.36872 0.314845 0.391979 -0.05681
C_ C_ 0.321999 0.316971 0.378064 -0.05681
C_ C_ 0.278507 0.323549 0.39603 -0.08735
C_ C_ 0.283066 0.326729 0.426092 -0.08735
C_ C_ 0.330813 0.323944 0.438873 -0.05681
C_ C_ 0.338385 0.325434 0.469057 0.44287
C_ C_ 0.42732 0.321867 0.46404 0.44287
C_ C_ 0.405302 0.342542 0.00952215 0.18498
C_ C_ 0.430897 0.388289 0.0145274 -0.08735
C_ C_ 0.437445 0.403448 0.0430292 -0.08735
C_ C_ 0.427804 0.370951 0.0655914 -0.08735
C_ C_ 0.400608 0.326722 0.0615565 0.18498
C_ C_ 0.391346 0.310425 0.0327588 -0.05681
C_ C_ 0.367105 0.264491 0.0289548 -0.08735
C_ C_ 0.351128 0.234765 0.0525196 -0.08735
C_ C_ 0.356776 0.252857 0.080139 0.1947
N_ N_ 0.134654 0.16168 0.475323 -0.29468
N_ N_ 0.143041 0.200143 0.0786259 -0.17154
N_ N_ 0.119264 0.173414 0.228132 -0.17154
N_ N_ 0.135175 0.208325 0.334179 -0.29468
N_ N_ 0.377946 0.337532 0.228497 -0.29468
N_ N_ 0.360357 0.303482 0.33158 -0.17154
N_ N_ 0.386139 0.32559 0.480927 -0.17154
N_ N_ 0.382193 0.298834 0.0845027 -0.29468
O_ O_ 0.21414 0.174962 0.428975 -0.58347
O_ O_ 0.20234 0.200521 0.384468 -0.58347
O_ O_ 0.136651 0.252486 0.437025 -0.58347
O_ O_ 0.115467 0.256405 0.391314 -0.58347
O_ O_ 0.132798 0.103446 0.420113 -0.58347
O_ O_ 0.139599 0.107278 0.373102 -0.58347
O_ O_ 0.0590276 0.180016 0.427766 -0.58347
O_ O_ 0.0547769 0.17653 0.380259 -0.58347
O_ O_ 0.0584216 0.217912 0.0762016 -0.46727
O_ O_ 0.22572 0.166443 0.0823191 -0.46727
O_ O_ 0.0325046 0.191698 0.222785 -0.46727
O_ O_ 0.205832 0.167532 0.233189 -0.46727
O_ O_ 0.299051 0.334461 0.176443 -0.58347
O_ O_ 0.308828 0.301435 0.133718 -0.58347
O_ O_ 0.36276 0.250871 0.185959 -0.58347
O_ O_ 0.390004 0.247324 0.142106 -0.58347
O_ O_ 0.379217 0.401167 0.172858 -0.58347
O_ O_ 0.367197 0.393675 0.127246 -0.58347
O_ O_ 0.447249 0.319379 0.178632 -0.58347
O_ O_ 0.460398 0.331029 0.132495 -0.58347
O_ O_ 0.448204 0.28731 0.329676 -0.46727
O_ O_ 0.27447 0.314893 0.336823 -0.46727
O_ O_ 0.472489 0.32665 0.476719 -0.46727
O_ O_ 0.299585 0.336846 0.485054 -0.46727
Zn Zn 0.124261 0.194628 0.88016 0.90689
Zn Zn 0.131058 0.179292 0.927309 0.90689
Zn Zn 0.37029 0.313329 0.631226 0.90689
Zn Zn 0.362247 0.316487 0.67927 0.90689
H_ H_ 0.302302 0.172866 0.946021 0.11455
H_ H_ 0.367852 0.16964 0.84813 0.11455
H_ H_ 0.275874 0.182794 0.85623 0.11455
H_ H_ 0.388863 0.163252 0.964586 0.11455
H_ H_ 0.482392 0.171708 0.957983 0.11455
H_ H_ 0.458211 0.177395 0.867298 0.11455
H_ H_ 0.136332 0.0199168 0.941341 0.11455
H_ H_ 0.0788836 0.445995 0.85698 0.11455
H_ H_ 0.106701 0.0300089 0.85181 0.11455
H_ H_ 0.193894 0.430811 0.955059 0.11455
H_ H_ 0.177841 0.338398 0.952587 0.11455
H_ H_ 0.104282 0.361456 0.870756 0.11455
H_ H_ 0.063937 0.117242 0.963717 0.11455
H_ H_ 0.0456801 0.0927205 0.511591 0.11455
H_ H_ 0.0963129 0.118291 0.551147 0.11455
H_ H_ 0.183385 0.241002 0.967796 0.11455
H_ H_ 0.242499 0.27454 0.516048 0.11455
H_ H_ 0.218602 0.247631 0.565481 0.11455
H_ H_ 0.0153543 0.208907 0.622107 0.11455
H_ H_ 0.00701933 0.20241 0.674344 0.11455
H_ H_ 0.258596 0.133411 0.634649 0.11455
H_ H_ 0.257567 0.137706 0.686715 0.11455
H_ H_ 0.071726 0.0876293 0.748414 0.11455
H_ H_ 0.0405576 0.0691319 0.795835 0.11455
H_ H_ 0.0704417 0.120424 0.836008 0.11455
H_ H_ 0.173256 0.24416 0.757176 0.11455
H_ H_ 0.204443 0.290567 0.801525 0.11455
H_ H_ 0.178564 0.264488 0.846932 0.11455
H_ H_ 0.193819 0.333826 0.697638 0.11455
H_ H_ 0.123269 0.300663 0.601185 0.11455
H_ H_ 0.216666 0.303798 0.608311 0.11455
H_ H_ 0.105911 0.317722 0.716738 0.11455
H_ H_ 0.0143105 0.324367 0.708548 0.11455
H_ H_ 0.0367474 0.320409 0.61898 0.11455
H_ H_ 0.343854 0.481997 0.694617 0.11455
H_ H_ 0.350612 0.0617536 0.596363 0.11455
H_ H_ 0.357934 0.475892 0.60397 0.11455
H_ H_ 0.406525 0.0714025 0.711586 0.11455
H_ H_ 0.39879 0.160216 0.706087 0.11455
H_ H_ 0.360976 0.145057 0.617842 0.11455
H_ H_ 0.411106 0.394527 0.717697 0.11455
H_ H_ 0.439346 0.40917 0.76579 0.11455
H_ H_ 0.401943 0.363945 0.807875 0.11455
H_ H_ 0.32072 0.246226 0.720385 0.11455
H_ H_ 0.281532 0.189112 0.758886 0.11455
H_ H_ 0.303478 0.207192 0.809023 0.11455
H_ H_ 0.496419 0.273176 0.870911 0.11455
H_ H_ 0.512806 0.288542 0.921961 0.11455
H_ H_ 0.247993 0.319281 0.888 0.11455
H_ H_ 0.261532 0.325453 0.938632 0.11455
H_ H_ 0.439903 0.411205 -0.002847000000000044 0.11455
H_ H_ 0.445741 0.434922 0.551053 0.11455
H_ H_ 0.430818 0.366897 0.588177 0.11455
H_ H_ 0.348617 0.246375 0.506624 0.11455
H_ H_ 0.307394 0.198797 0.54714 0.11455
H_ H_ 0.319363 0.233089 0.594926 0.11455
C_ C_ 0.226337 0.181137 0.90475 0.68181
C_ C_ 0.282535 0.182678 0.902153 -0.05681
C_ C_ 0.316142 0.175467 0.924719 -0.08735
C_ C_ 0.369268 0.172893 0.91988 -0.05681
C_ C_ 0.38806 0.171847 0.891883 -0.05681
C_ C_ 0.353297 0.177955 0.86979 -0.08735
C_ C_ 0.302725 0.179668 0.874591 -0.08735
C_ C_ 0.404432 0.172049 0.943119 -0.08735
C_ C_ 0.455686 0.174474 0.938665 -0.08735
C_ C_ 0.47582 0.170245 0.910662 -0.05681
C_ C_ 0.442005 0.17254 0.887508 -0.08735
C_ C_ 0.13096 0.287458 0.907123 0.68181
C_ C_ 0.122592 0.0886634 0.899769 0.68181
C_ C_ 0.124992 0.0316503 0.895753 -0.05681
C_ C_ 0.161124 0.503538 0.919802 -0.08735
C_ C_ 0.152244 0.44992 0.918298 -0.05681
C_ C_ 0.126087 0.430472 0.89355 -0.05681
C_ C_ 0.0991131 0.461833 0.876086 -0.08735
C_ C_ 0.105538 0.512973 0.878416 -0.08735
C_ C_ 0.171009 0.416327 0.938749 -0.08735
C_ C_ 0.166232 0.364629 0.934441 -0.08735
C_ C_ 0.140959 0.344967 0.91044 -0.05681
C_ C_ 0.125141 0.378356 0.888377 -0.08735
C_ C_ 0.0288832 0.191142 0.906361 0.68181
C_ C_ 0.0819668 0.136827 0.980578 0.1947
C_ C_ 0.0804739 0.112322 0.507835 -0.08735
C_ C_ 0.103379 0.135776 0.530561 -0.08735
C_ C_ 0.136287 0.176633 0.525952 -0.05681
C_ C_ 0.152336 0.189693 0.497933 0.18498
C_ C_ 0.174415 0.23566 0.989835 -0.08735
C_ C_ 0.210774 0.250628 0.51831 -0.08735
C_ C_ 0.198649 0.236021 0.545519 -0.08735
C_ C_ 0.15907 0.200115 0.549793 0.18498
C_ C_ 0.184824 0.162199 0.596325 0.44287
C_ C_ 0.103645 0.197413 0.592208 0.44287
C_ C_ 0.0972138 0.192704 0.621465 -0.05681
C_ C_ 0.0497639 0.203224 0.63503 -0.08735
C_ C_ 0.0439187 0.198514 0.665634 -0.08735
C_ C_ 0.0873431 0.191201 0.68249 -0.05681
C_ C_ 0.135016 0.177663 0.669102 -0.05681
C_ C_ 0.139867 0.180648 0.639036 -0.05681
C_ C_ 0.184861 0.164935 0.626807 -0.05681
C_ C_ 0.225162 0.14852 0.643914 -0.08735
C_ C_ 0.223013 0.151789 0.673538 -0.08735
C_ C_ 0.176758 0.165321 0.687219 -0.05681
C_ C_ 0.169602 0.159571 0.716947 0.44287
C_ C_ 0.0842961 0.184759 0.712483 0.44287
C_ C_ 0.118198 0.15377 0.758929 0.18498
C_ C_ 0.0887461 0.108883 0.765101 -0.08735
C_ C_ 0.0717488 0.0986888 0.793534 -0.08735
C_ C_ 0.0863382 0.130671 0.815699 -0.08735
C_ C_ 0.12006 0.171443 0.811366 0.18498
C_ C_ 0.131453 0.186458 0.782096 -0.05681
C_ C_ 0.163485 0.230653 0.778558 -0.08735
C_ C_ 0.181911 0.257359 0.803108 -0.08735
C_ C_ 0.166806 0.240822 0.829419 0.1947
C_ C_ 0.268031 0.304106 0.656712 0.68181
C_ C_ 0.211849 0.312699 0.653646 -0.05681
C_ C_ 0.179254 0.323017 0.677088 -0.08735
C_ C_ 0.125727 0.326773 0.672238 -0.05681
C_ C_ 0.105164 0.321889 0.644186 -0.05681
C_ C_ 0.138996 0.314971 0.620769 -0.08735
C_ C_ 0.192343 0.312378 0.625586 -0.08735
C_ C_ 0.091668 0.32644 0.695132 -0.08735
C_ C_ 0.0387124 0.323999 0.690419 -0.08735
C_ C_ 0.0186507 0.32424 0.662962 -0.05681
C_ C_ 0.0513352 0.32611 0.639576 -0.08735
C_ C_ 0.376069 0.215313 0.658184 0.68181
C_ C_ 0.356018 0.413988 0.652419 0.68181
C_ C_ 0.355773 0.471341 0.650426 -0.05681
C_ C_ 0.377285 -0.0002830000000000332 0.67092 -0.08735
C_ C_ 0.378426 0.0525449 0.668502 -0.05681
C_ C_ 0.369681 0.0756069 0.6405 -0.05681
C_ C_ 0.359518 0.0442916 0.616885 -0.08735
C_ C_ 0.361388 0.495867 0.623897 -0.08735
C_ C_ 0.395849 0.0856292 0.691404 -0.08735
C_ C_ 0.389767 0.136877 0.688424 -0.08735
C_ C_ 0.377825 0.158372 0.660777 -0.05681
C_ C_ 0.369507 0.127605 0.636791 -0.08735
C_ C_ 0.46266 0.322318 0.655646 0.68181
C_ C_ 0.39868 0.369911 0.734718 0.1947
C_ C_ 0.410076 0.382894 0.763326 -0.08735
C_ C_ 0.393164 0.352385 0.785845 -0.08735
C_ C_ 0.36532 0.308579 0.779392 -0.05681
C_ C_ 0.351577 0.299296 0.750678 0.18498
C_ C_ 0.325484 0.255663 0.743023 -0.08735
C_ C_ 0.303536 0.224928 0.764069 -0.08735
C_ C_ 0.318374 0.231914 0.792589 -0.08735
C_ C_ 0.347273 0.274266 0.800597 0.18498
C_ C_ 0.318834 0.302511 0.848963 0.44287
C_ C_ 0.402923 0.276702 0.843934 0.44287
C_ C_ 0.415287 0.291513 0.872335 -0.05681
C_ C_ 0.464668 0.287842 0.883667 -0.08735
C_ C_ 0.474844 0.297732 0.912699 -0.08735
C_ C_ 0.434843 0.308485 0.931822 -0.05681
C_ C_ 0.385557 0.312613 0.919769 -0.05681
C_ C_ 0.374692 0.309711 0.889973 -0.05681
C_ C_ 0.325721 0.311327 0.878707 -0.05681
C_ C_ 0.285313 0.320121 0.896282 -0.08735
C_ C_ 0.293224 0.321677 0.925645 -0.08735
C_ C_ 0.342917 0.320326 0.938353 -0.05681
C_ C_ 0.352273 0.335986 0.966286 0.44287
C_ C_ 0.4408 0.316187 0.961674 0.44287
C_ C_ 0.389706 0.341291 0.509846 0.18498
C_ C_ 0.412269 0.389712 0.517691 -0.08735
C_ C_ 0.427948 0.399621 0.545568 -0.08735
C_ C_ 0.417997 0.363672 0.566305 -0.08735
C_ C_ 0.382485 0.326334 0.560388 0.18498
C_ C_ 0.37278 0.310579 0.531872 -0.05681
C_ C_ 0.347816 0.262901 0.5284 -0.08735
C_ C_ 0.32829 0.235375 0.550551 -0.08735
C_ C_ 0.332842 0.25614 0.577775 0.1947
N_ N_ 0.116451 0.17539 0.975015 -0.29468
N_ N_ 0.147535 0.184325 0.579108 -0.17154
N_ N_ 0.125733 0.169456 0.728855 -0.17154
N_ N_ 0.135033 0.200085 0.834175 -0.29468
N_ N_ 0.369715 0.32857 0.72826 -0.29468
N_ N_ 0.35591 0.2842 0.832183 -0.17154
N_ N_ 0.398856 0.326104 0.980078 -0.17154
N_ N_ 0.362674 0.296291 0.583263 -0.29468
O_ O_ 0.205561 0.167973 0.928279 -0.58347
O_ O_ 0.198371 0.195972 0.885667 -0.58347
O_ O_ 0.135035 0.259769 0.928338 -0.58347
O_ O_ 0.123797 0.267524 0.882963 -0.58347
O_ O_ 0.120735 0.104492 0.925396 -0.58347
O_ O_ 0.126372 0.120168 0.879316 -0.58347
O_ O_ 0.0572536 0.194113 0.927989 -0.58347
O_ O_ 0.0477715 0.187674 0.881118 -0.58347
O_ O_ 0.0647868 0.205973 0.575089 -0.46727
O_ O_ 0.229558 0.15462 0.584645 -0.46727
O_ O_ 0.0423072 0.194273 0.726338 -0.46727
O_ O_ 0.207093 0.138849 0.732079 -0.46727
O_ O_ 0.289787 0.295949 0.681071 -0.58347
O_ O_ 0.293581 0.31125 0.635043 -0.58347
O_ O_ 0.378246 0.242949 0.68034 -0.58347
O_ O_ 0.37353 0.235008 0.633758 -0.58347
O_ O_ 0.350707 0.391394 0.675738 -0.58347
O_ O_ 0.367447 0.387367 0.630189 -0.58347
O_ O_ 0.437736 0.332523 0.678225 -0.58347
O_ O_ 0.441657 0.31676 0.632011 -0.58347
O_ O_ 0.438119 0.260767 0.826845 -0.46727
O_ O_ 0.271952 0.305711 0.83815 -0.46727
O_ O_ 0.486829 0.314336 0.972058 -0.46727
O_ O_ 0.316499 0.35808 0.980577 -0.46727
Zn Zn 0.129513 0.686386 0.382669 0.90689
Zn Zn 0.134308 0.674196 0.431697 0.90689
Zn Zn 0.380659 0.819888 0.134138 0.90689
Zn Zn 0.36928 0.820497 0.181366 0.90689
H_ H_ 0.310367 0.684024 0.44579 0.11455
H_ H_ 0.373051 0.682845 0.346739 0.11455
H_ H_ 0.281745 0.674484 0.354749 0.11455
H_ H_ 0.397006 0.668178 0.464287 0.11455
H_ H_ 0.482418 0.683908 0.455377 0.11455
H_ H_ 0.457745 0.673605 0.364737 0.11455
H_ H_ 0.131271 0.51203 0.444254 0.11455
H_ H_ 0.109391 0.931971 0.348503 0.11455
H_ H_ 0.155626 0.526036 0.354775 0.11455
H_ H_ 0.15511 0.930193 0.46319 0.11455
H_ H_ 0.144676 0.837636 0.460662 0.11455
H_ H_ 0.117737 0.851683 0.369419 0.11455
H_ H_ 0.0872971 0.604412 0.46779 0.11455
H_ H_ 0.0684808 0.568016 0.013374 0.11455
H_ H_ 0.0937687 0.61738 0.0553758 0.11455
H_ H_ 0.183382 0.75762 0.475603 0.11455
H_ H_ 0.209084 0.798704 0.0153643 0.11455
H_ H_ 0.195766 0.773752 0.0650582 0.11455
H_ H_ 0.0198902 0.702527 0.125283 0.11455
H_ H_ 0.00695767 0.688337 0.175937 0.11455
H_ H_ 0.261966 0.636334 0.137388 0.11455
H_ H_ 0.252651 0.635654 0.191469 0.11455
H_ H_ 0.0739264 0.573991 0.251895 0.11455
H_ H_ 0.0469067 0.560967 0.301841 0.11455
H_ H_ 0.0720378 0.615428 0.339358 0.11455
H_ H_ 0.161557 0.737767 0.256003 0.11455
H_ H_ 0.19599 0.782174 0.298197 0.11455
H_ H_ 0.180493 0.759975 0.345908 0.11455
H_ H_ 0.205277 0.811513 0.196935 0.11455
H_ H_ 0.132034 0.843831 0.0992618 0.11455
H_ H_ 0.224817 0.848998 0.106242 0.11455
H_ H_ 0.120502 0.797761 0.217281 0.11455
H_ H_ 0.0278952 0.801848 0.211444 0.11455
H_ H_ 0.0464406 0.820007 0.120332 0.11455
H_ H_ 0.347892 0.992883 0.193286 0.11455
H_ H_ 0.358312 0.5726 0.0955988 0.11455
H_ H_ 0.371537 0.980062 0.100974 0.11455
H_ H_ 0.380979 0.572253 0.214429 0.11455
H_ H_ 0.380019 0.66498 0.211707 0.11455
H_ H_ 0.375161 0.652488 0.119313 0.11455
H_ H_ 0.417497 0.890642 0.217406 0.11455
H_ H_ 0.441875 0.911449 0.264764 0.11455
H_ H_ 0.403855 0.869185 0.306001 0.11455
H_ H_ 0.311422 0.752509 0.221771 0.11455
H_ H_ 0.288065 0.693894 0.260874 0.11455
H_ H_ 0.293091 0.72243 0.311173 0.11455
H_ H_ 0.47994 0.790284 0.37516 0.11455
H_ H_ 0.49128 0.803015 0.426882 0.11455
H_ H_ 0.22816 0.825026 0.386656 0.11455
H_ H_ 0.239232 0.830323 0.438661 0.11455
H_ H_ 0.406794 0.909428 0.499624 0.11455
H_ H_ 0.451294 0.94134 0.0468975 0.11455
H_ H_ 0.438314 0.885583 0.0885935 0.11455
H_ H_ 0.339934 0.754828 0.0108144 0.11455
H_ H_ 0.309192 0.714943 0.0518377 0.11455
H_ H_ 0.329086 0.740857 0.0987328 0.11455
C_ C_ 0.231466 0.681866 0.403563 0.68181
C_ C_ 0.288289 0.680869 0.400826 -0.05681
C_ C_ 0.322454 0.679742 0.423862 -0.08735
C_ C_ 0.37361 0.676971 0.419611 -0.05681
C_ C_ 0.393538 0.674359 0.391005 -0.05681
C_ C_ 0.359829 0.679811 0.367962 -0.08735
C_ C_ 0.307872 0.680899 0.372825 -0.08735
C_ C_ 0.408245 0.678791 0.442251 -0.08735
C_ C_ 0.460273 0.680349 0.436972 -0.08735
C_ C_ 0.480342 0.67705 0.409467 -0.05681
C_ C_ 0.444843 0.670346 0.386233 -0.08735
C_ C_ 0.12621 0.779097 0.411775 0.68181
C_ C_ 0.138069 0.582842 0.402751 0.68181
C_ C_ 0.137034 0.525346 0.399632 -0.05681
C_ C_ 0.15156 0.993263 0.419214 -0.08735
C_ C_ 0.145699 0.942304 0.418146 -0.05681
C_ C_ 0.132137 0.92051 0.391837 -0.05681
C_ C_ 0.124582 0.950992 0.367633 -0.08735
C_ C_ 0.127187 1.00124916 0.369312 -0.08735
C_ C_ 0.146352 0.912034 0.442868 -0.08735
C_ C_ 0.142179 0.859327 0.440496 -0.08735
C_ C_ 0.132685 0.835612 0.414292 -0.05681
C_ C_ 0.126835 0.867005 0.389761 -0.08735
C_ C_ 0.0333862 0.672643 0.411615 0.68181
C_ C_ 0.107776 0.620951 0.483764 0.1947
C_ C_ 0.0909977 0.603715 0.0111249 -0.08735
C_ C_ 0.107753 0.630732 0.034689 -0.08735
C_ C_ 0.142752 0.669068 0.0323417 -0.05681
C_ C_ 0.154112 0.683937 1.00203247 0.18498
C_ C_ 0.172153 0.742714 0.497521 -0.08735
C_ C_ 0.191647 0.760761 0.0205381 -0.08735
C_ C_ 0.187662 0.743913 0.048909 -0.08735
C_ C_ 0.162441 0.698903 0.0547386 0.18498
C_ C_ 0.193946 0.672979 0.100418 0.44287
C_ C_ 0.107613 0.694935 0.0956893 0.44287
C_ C_ 0.0986041 0.687216 0.125626 -0.05681
C_ C_ 0.0510507 0.692885 0.13832 -0.08735
C_ C_ 0.045092 0.687702 0.168044 -0.08735
C_ C_ 0.0854913 0.674545 0.184894 -0.05681
C_ C_ 0.134283 0.663434 0.171267 -0.05681
C_ C_ 0.142063 0.676988 0.142548 -0.05681
C_ C_ 0.188379 0.667834 0.12984 -0.05681
C_ C_ 0.229635 0.651647 0.147203 -0.08735
C_ C_ 0.223086 0.644458 0.176274 -0.08735
C_ C_ 0.173995 0.648303 0.188417 -0.05681
C_ C_ 0.16483 0.638671 0.217749 0.44287
C_ C_ 0.0832214 0.669625 0.214451 0.44287
C_ C_ 0.113714 0.642797 0.260939 0.18498
C_ C_ 0.0908182 0.596675 0.269561 -0.08735
C_ C_ 0.0743531 0.587671 0.297414 -0.08735
C_ C_ 0.0884399 0.62213 0.317982 -0.08735
C_ C_ 0.116848 0.666518 0.312493 0.18498
C_ C_ 0.126007 0.678223 0.282463 -0.05681
C_ C_ 0.153062 0.722985 0.277388 -0.08735
C_ C_ 0.17237 0.751068 0.301324 -0.08735
C_ C_ 0.167288 0.734054 0.328128 0.1947
C_ C_ 0.276575 0.819689 0.154157 0.68181
C_ C_ 0.221978 0.826821 0.150973 -0.05681
C_ C_ 0.189579 0.82262 0.175231 -0.08735
C_ C_ 0.136742 0.820128 0.172729 -0.05681
C_ C_ 0.113429 0.82492 0.144907 -0.05681
C_ C_ 0.145194 0.835648 0.121164 -0.08735
C_ C_ 0.198347 0.833579 0.122782 -0.08735
C_ C_ 0.104445 0.80715 0.196357 -0.08735
C_ C_ 0.0485646 0.810855 0.194003 -0.08735
C_ C_ 0.0278996 0.814057 0.165444 -0.05681
C_ C_ 0.0618853 0.81946 0.142167 -0.08735
C_ C_ 0.383774 0.722813 0.164646 0.68181
C_ C_ 0.367621 0.921156 0.150196 0.68181
C_ C_ 0.361609 0.978305 0.148228 -0.05681
C_ C_ 0.37145 0.507781 0.170599 -0.08735
C_ C_ 0.375523 0.561314 0.169156 -0.05681
C_ C_ 0.371457 0.583467 0.141684 -0.05681
C_ C_ 0.363753 0.553806 0.116569 -0.08735
C_ C_ 0.365454 0.00118986 0.120797 -0.08735
C_ C_ 0.381785 0.588986 0.194501 -0.08735
C_ C_ 0.382454 0.641933 0.192244 -0.08735
C_ C_ 0.381494 0.665755 0.164781 -0.05681
C_ C_ 0.380901 0.635284 0.139686 -0.08735
C_ C_ 0.472107 0.82381 0.161052 0.68181
C_ C_ 0.399163 0.871576 0.235222 0.1947
C_ C_ 0.411247 0.884349 0.263124 -0.08735
C_ C_ 0.38707 0.860576 0.285592 -0.08735
C_ C_ 0.357363 0.817281 0.280936 -0.05681
C_ C_ 0.34578 0.804822 0.251584 0.18498
C_ C_ 0.32078 0.759718 0.24436 -0.08735
C_ C_ 0.305454 0.72754 0.266767 -0.08735
C_ C_ 0.317384 0.738104 0.295309 -0.08735
C_ C_ 0.339814 0.782951 0.302952 0.18498
C_ C_ 0.306046 0.808516 0.349098 0.44287
C_ C_ 0.392171 0.789608 0.345778 0.44287
C_ C_ 0.401426 0.805637 0.374732 -0.05681
C_ C_ 0.447881 0.8004 0.388415 -0.08735
C_ C_ 0.45382 0.808074 0.417874 -0.08735
C_ C_ 0.409709 0.810082 0.435723 -0.05681
C_ C_ 0.361447 0.80982 0.422201 -0.05681
C_ C_ 0.357841 0.810156 0.392017 -0.05681
C_ C_ 0.30984 0.814792 0.379108 -0.05681
C_ C_ 0.266116 0.821157 0.396155 -0.08735
C_ C_ 0.273632 0.829215 0.424861 -0.08735
C_ C_ 0.320655 0.822376 0.438836 -0.05681
C_ C_ 0.325606 0.83002 0.469364 0.44287
C_ C_ 0.412738 0.8135 0.4654 0.44287
C_ C_ 0.38825 0.84847 0.0106676 0.18498
C_ C_ 0.41118 0.896036 0.0171748 -0.08735
C_ C_ 0.432352 0.905959 0.0439785 -0.08735
C_ C_ 0.421231 0.875209 0.0674672 -0.08735
C_ C_ 0.394913 0.829606 0.0629049 0.18498
C_ C_ 0.380234 0.81436 0.0338313 -0.05681
C_ C_ 0.354158 0.770154 0.0303723 -0.08735
C_ C_ 0.336823 0.744978 0.0541611 -0.08735
C_ C_ 0.348015 0.759437 0.0813243 0.1947
N_ N_ 0.132092 0.666416 0.479146 -0.29468
N_ N_ 0.153144 0.683908 0.0837044 -0.17154
N_ N_ 0.12186 0.65293 0.230476 -0.17154
N_ N_ 0.132912 0.696313 0.334469 -0.29468
N_ N_ 0.368422 0.83075 0.229523 -0.29468
N_ N_ 0.346027 0.794285 0.333123 -0.17154
N_ N_ 0.371844 0.823651 0.482553 -0.17154
N_ N_ 0.378048 0.801518 0.0854542 -0.29468
O_ O_ 0.209666 0.688233 0.427596 -0.58347
O_ O_ 0.205401 0.68456 0.380674 -0.58347
O_ O_ 0.123501 0.750049 0.43448 -0.58347
O_ O_ 0.127982 0.75987 0.387049 -0.58347
O_ O_ 0.149872 0.601692 0.426441 -0.58347
O_ O_ 0.128022 0.610639 0.381664 -0.58347
O_ O_ 0.0594637 0.658815 0.433242 -0.58347
O_ O_ 0.056635 0.686358 0.388761 -0.58347
O_ O_ 0.0709261 0.711995 0.0791271 -0.46727
O_ O_ 0.239871 0.666932 0.088389 -0.46727
O_ O_ 0.0411534 0.679705 0.226829 -0.46727
O_ O_ 0.201977 0.618999 0.233803 -0.46727
O_ O_ 0.296554 0.806718 0.177747 -0.58347
O_ O_ 0.304504 0.829086 0.133413 -0.58347
O_ O_ 0.380415 0.748338 0.188481 -0.58347
O_ O_ 0.377456 0.744752 0.141171 -0.58347
O_ O_ 0.362285 0.897421 0.174116 -0.58347
O_ O_ 0.378881 0.897004 0.12759 -0.58347
O_ O_ 0.443503 0.83126 0.181922 -0.58347
O_ O_ 0.453832 0.810156 0.137898 -0.58347
O_ O_ 0.43091 0.770099 0.332066 -0.46727
O_ O_ 0.261623 0.8093 0.336044 -0.46727
O_ O_ 0.458625 0.813341 0.477374 -0.46727
O_ O_ 0.285902 0.844496 0.4845 -0.46727
Zn Zn 0.118531 0.68977 0.884131 0.90689
Zn Zn 0.132522 0.682149 0.932007 0.90689
Zn Zn 0.366711 0.813034 0.635767 0.90689
Zn Zn 0.350369 0.81691 0.682943 0.90689
H_ H_ 0.303094 0.693781 0.946665 0.11455
H_ H_ 0.365597 0.670347 0.849394 0.11455
H_ H_ 0.270511 0.676892 0.857267 0.11455
H_ H_ 0.389754 0.694446 0.966756 0.11455
H_ H_ 0.477978 0.693222 0.958308 0.11455
H_ H_ 0.452635 0.658961 0.868579 0.11455
H_ H_ 0.183908 0.517068 0.937782 0.11455
H_ H_ 0.0998966 0.94116 0.845434 0.11455
H_ H_ 0.0810288 0.540131 0.867443 0.11455
H_ H_ 0.144516 0.937993 0.960387 0.11455
H_ H_ 0.126824 0.841311 0.961583 0.11455
H_ H_ 0.0952005 0.856391 0.870129 0.11455
H_ H_ 0.0852054 0.605008 0.963987 0.11455
H_ H_ 0.0948945 0.5614 0.514135 0.11455
H_ H_ 0.123919 0.608313 0.556009 0.11455
H_ H_ 0.186968 0.74259 0.977372 0.11455
H_ H_ 0.204969 0.810496 0.518453 0.11455
H_ H_ 0.18889 0.781417 0.567157 0.11455
H_ H_ 1.0139328 0.715688 0.620472 0.11455
H_ H_ 0.998561 0.710723 0.668848 0.11455
H_ H_ 0.25743 0.665897 0.640567 0.11455
H_ H_ 0.244453 0.652716 0.690784 0.11455
H_ H_ 0.0492343 0.586522 0.75056 0.11455
H_ H_ 0.0391216 0.56489 0.799463 0.11455
H_ H_ 0.0645828 0.616371 0.83926 0.11455
H_ H_ 0.142053 0.751097 0.759144 0.11455
H_ H_ 0.18732 0.792041 0.799876 0.11455
H_ H_ 0.176001 0.756933 0.848323 0.11455
H_ H_ 0.18686 0.821381 0.69581 0.11455
H_ H_ 0.123007 0.841673 0.598483 0.11455
H_ H_ 0.219032 0.858016 0.609386 0.11455
H_ H_ 0.0995076 0.819982 0.713185 0.11455
H_ H_ 0.00738795 0.820149 0.707369 0.11455
H_ H_ 0.0371756 0.825576 0.615009 0.11455
H_ H_ 0.388179 0.981199 0.689408 0.11455
H_ H_ 0.378575 0.563704 0.600037 0.11455
H_ H_ 0.34278 0.968406 0.602416 0.11455
H_ H_ 0.331443 0.57383 0.716489 0.11455
H_ H_ 0.348642 0.661787 0.713659 0.11455
H_ H_ 0.36304 0.651009 0.623629 0.11455
H_ H_ 0.407766 0.889689 0.719068 0.11455
H_ H_ 0.421699 0.91693 0.768596 0.11455
H_ H_ 0.395681 0.865336 0.807439 0.11455
H_ H_ 0.284626 0.756262 0.726027 0.11455
H_ H_ 0.275506 0.692196 0.761913 0.11455
H_ H_ 0.307403 0.704802 0.811944 0.11455
H_ H_ 0.487063 0.796967 0.874041 0.11455
H_ H_ 0.498375 0.810207 0.925204 0.11455
H_ H_ 0.236705 0.825821 0.887654 0.11455
H_ H_ 0.246819 0.838081 0.938443 0.11455
H_ H_ 0.420252 0.923032 0.999865 0.11455
H_ H_ 0.434621 0.93678 0.54955 0.11455
H_ H_ 0.40524 0.883493 0.590624 0.11455
H_ H_ 0.342705 0.741938 0.511633 0.11455
H_ H_ 0.316911 0.691484 0.552357 0.11455
H_ H_ 0.321253 0.729649 0.600889 0.11455
C_ C_ 0.224491 0.694273 0.908401 0.68181
C_ C_ 0.281666 0.689929 0.902518 -0.05681
C_ C_ 0.315982 0.692131 0.925532 -0.08735
C_ C_ 0.366611 0.682368 0.921674 -0.05681
C_ C_ 0.385653 0.672554 0.89416 -0.05681
C_ C_ 0.350942 0.675534 0.870233 -0.08735
C_ C_ 0.299595 0.680469 0.874215 -0.08735
C_ C_ 0.400944 0.688645 0.944387 -0.08735
C_ C_ 0.452792 0.686187 0.939874 -0.08735
C_ C_ 0.470715 0.673692 0.911659 -0.05681
C_ C_ 0.437624 0.670762 0.88843 -0.08735
C_ C_ 0.113694 0.784859 0.912946 0.68181
C_ C_ 0.136555 0.589235 0.903739 0.68181
C_ C_ 0.136025 0.533508 0.900269 -0.05681
C_ C_ 0.132668 1.000214536 0.920096 -0.08735
C_ C_ 0.128151 0.945981 0.917211 -0.05681
C_ C_ 0.112705 0.925154 0.891709 -0.05681
C_ C_ 0.112056 0.955707 0.866825 -0.08735
C_ C_ 0.11673 0.00783427 0.869377 -0.08735
C_ C_ 0.136152 0.916263 0.941548 -0.08735
C_ C_ 0.126714 0.864166 0.941265 -0.08735
C_ C_ 0.110645 0.84088 0.915735 -0.05681
C_ C_ 0.104516 0.873167 0.890409 -0.08735
C_ C_ 0.0262639 0.679507 0.908871 0.68181
C_ C_ 0.101446 0.620835 0.983512 0.1947
C_ C_ 0.107499 0.599218 0.511433 -0.08735
C_ C_ 0.12483 0.627543 0.535352 -0.08735
C_ C_ 0.14413 0.675711 0.531132 -0.05681
C_ C_ 0.149298 0.694798 0.502221 0.18498
C_ C_ 0.177874 0.730335 0.99848 -0.08735
C_ C_ 0.185878 0.772446 0.521563 -0.08735
C_ C_ 0.181622 0.753908 0.549622 -0.08735
C_ C_ 0.162753 0.705175 0.55397 0.18498
C_ C_ 0.188419 0.67869 0.600736 0.44287
C_ C_ 0.101143 0.700448 0.59335 0.44287
C_ C_ 0.0907446 0.690602 0.622947 -0.05681
C_ C_ 0.0430759 0.699977 0.633232 -0.08735
C_ C_ 0.0335449 0.695031 0.662287 -0.08735
C_ C_ 0.0737239 0.686729 0.681516 -0.05681
C_ C_ 0.122364 0.678266 0.670231 -0.05681
C_ C_ 0.129238 0.676188 0.641208 -0.05681
C_ C_ 0.179497 0.675401 0.630474 -0.05681
C_ C_ 0.219414 0.667785 0.649394 -0.08735
C_ C_ 0.210926 0.662246 0.677735 -0.08735
C_ C_ 0.162026 0.66651 0.689343 -0.05681
C_ C_ 0.153055 0.664053 0.718986 0.44287
C_ C_ 0.0658888 0.683139 0.711794 0.44287
C_ C_ 0.0917055 0.658854 0.759604 0.18498
C_ C_ 0.0680247 0.611038 0.766876 -0.08735
C_ C_ 0.0602698 0.597804 0.794378 -0.08735
C_ C_ 0.0763982 0.62568 0.817159 -0.08735
C_ C_ 0.107325 0.668697 0.812146 0.18498
C_ C_ 0.114312 0.685704 0.783611 -0.05681
C_ C_ 0.143993 0.730685 0.779348 -0.08735
C_ C_ 0.163528 0.758416 0.80315 -0.08735
C_ C_ 0.155421 0.739143 0.830961 0.1947
C_ C_ 0.26425 0.821104 0.656746 0.68181
C_ C_ 0.208852 0.828432 0.651535 -0.05681
C_ C_ 0.173297 0.822601 0.673822 -0.08735
C_ C_ 0.120048 0.827528 0.668971 -0.05681
C_ C_ 0.101903 0.832361 0.641216 -0.05681
C_ C_ 0.13714 0.841479 0.619292 -0.08735
C_ C_ 0.190649 0.839745 0.62373 -0.08735
C_ C_ 0.0847647 0.820198 0.691012 -0.08735
C_ C_ 0.0323641 0.823646 0.687814 -0.08735
C_ C_ 0.0149294 0.827422 0.659567 -0.05681
C_ C_ 0.050576 0.829708 0.636197 -0.08735
C_ C_ 0.350038 0.717428 0.664227 0.68181
C_ C_ 0.358438 0.912502 0.649239 0.68181
C_ C_ 0.366734 0.967943 0.646752 -0.05681
C_ C_ 0.348276 0.501199 0.67449 -0.08735
C_ C_ 0.352194 0.555441 0.673432 -0.05681
C_ C_ 0.363405 0.578277 0.646514 -0.05681
C_ C_ 0.365639 0.548116 0.621288 -0.08735
C_ C_ 0.353101 0.9918 0.620369 -0.08735
C_ C_ 0.34898 0.587455 0.696925 -0.08735
C_ C_ 0.352774 0.638674 0.694185 -0.08735
C_ C_ 0.353514 0.66147 0.667088 -0.05681
C_ C_ 0.35768 0.631244 0.643204 -0.08735
C_ C_ 0.453844 0.816448 0.661158 0.68181
C_ C_ 0.382289 0.875331 0.736024 0.1947
C_ C_ 0.390864 0.889477 0.764436 -0.08735
C_ C_ 0.380939 0.856506 0.786846 -0.08735
C_ C_ 0.349981 0.814312 0.780974 -0.05681
C_ C_ 0.337359 0.802795 0.751363 0.18498
C_ C_ 0.303479 0.761223 0.746184 -0.08735
C_ C_ 0.292029 0.728271 0.76757 -0.08735
C_ C_ 0.316336 0.731528 0.794884 -0.08735
C_ C_ 0.343493 0.776645 0.802427 0.18498
C_ C_ 0.30917 0.806865 0.848795 0.44287
C_ C_ 0.39587 0.78375 0.845474 0.44287
C_ C_ 0.404355 0.797258 0.874582 -0.05681
C_ C_ 0.453278 0.79468 0.887135 -0.08735
C_ C_ 0.45909 0.807008 0.915844 -0.08735
C_ C_ 0.416853 0.816859 0.93432 -0.05681
C_ C_ 0.369476 0.820233 0.921515 -0.05681
C_ C_ 0.360902 0.808707 0.89148 -0.05681
C_ C_ 0.314201 0.813285 0.878756 -0.05681
C_ C_ 0.272974 0.825804 0.896948 -0.08735
C_ C_ 0.280339 0.842353 0.925036 -0.08735
C_ C_ 0.32761 0.836617 0.938403 -0.05681
C_ C_ 0.334442 0.842315 0.968919 0.44287
C_ C_ 0.421639 0.82764 0.964039 0.44287
C_ C_ 0.37901 0.838044 0.511953 0.18498
C_ C_ 0.398908 0.88533 0.517894 -0.08735
C_ C_ 0.411097 0.901502 0.545903 -0.08735
C_ C_ 0.394968 0.872353 0.568947 -0.08735
C_ C_ 0.369867 0.826393 0.565137 0.18498
C_ C_ 0.363256 0.808094 0.535971 -0.05681
C_ C_ 0.348833 0.757922 0.532768 -0.08735
C_ C_ 0.33262 0.729623 0.555598 -0.08735
C_ C_ 0.337347 0.749152 0.58299 0.1947
N_ N_ 0.130847 0.662379 0.979254 -0.29468
N_ N_ 0.149841 0.693906 0.583271 -0.17154
N_ N_ 0.103909 0.671098 0.729795 -0.17154
N_ N_ 0.127286 0.696412 0.834568 -0.29468
N_ N_ 0.354467 0.833024 0.730351 -0.29468
N_ N_ 0.3503 0.789727 0.832425 -0.17154
N_ N_ 0.381242 0.836531 0.981427 -0.17154
N_ N_ 0.35827 0.794415 0.588088 -0.29468
O_ O_ 0.206537 0.69646 0.933069 -0.58347
O_ O_ 0.194787 0.692514 0.886973 -0.58347
O_ O_ 0.11547 0.757521 0.935063 -0.58347
O_ O_ 0.113712 0.762853 0.889245 -0.58347
O_ O_ 0.15046 0.609375 0.927123 -0.58347
O_ O_ 0.125254 0.618178 0.884004 -0.58347
O_ O_ 0.0572195 0.668324 0.929752 -0.58347
O_ O_ 0.043234 0.685936 0.883425 -0.58347
O_ O_ 0.0652544 0.718592 0.577315 -0.46727
O_ O_ 0.235096 0.676665 0.590303 -0.46727
O_ O_ 0.0207689 0.691197 0.72314 -0.46727
O_ O_ 0.18678 0.644083 0.736549 -0.46727
O_ O_ 0.281976 0.826247 0.681381 -0.58347
O_ O_ 0.290993 0.799022 0.63853 -0.58347
O_ O_ 0.339998 0.742144 0.686763 -0.58347
O_ O_ 0.374407 0.740253 0.644418 -0.58347
O_ O_ 0.359503 0.89363 0.673455 -0.58347
O_ O_ 0.353342 0.883687 0.62796 -0.58347
O_ O_ 0.424327 0.80791 0.680447 -0.58347
O_ O_ 0.437887 0.831783 0.637481 -0.58347
O_ O_ 0.431743 0.761419 0.830559 -0.46727
O_ O_ 0.263318 0.810713 0.837743 -0.46727
O_ O_ 0.466859 0.834078 0.974656 -0.46727
O_ O_ 0.294966 0.850073 0.985184 -0.46727
Zn Zn 0.62839 0.187254 0.380148 0.90689
Zn Zn 0.639615 0.183321 0.429753 0.90689
Zn Zn 0.883699 0.311931 0.130564 0.90689
Zn Zn 0.871514 0.31904 0.180476 0.90689
H_ H_ 0.808369 0.206054 0.442655 0.11455
H_ H_ 0.874627 0.171744 0.346093 0.11455
H_ H_ 0.779358 0.177779 0.355351 0.11455
H_ H_ 0.890518 0.199211 0.463299 0.11455
H_ H_ 0.982132 0.188785 0.456174 0.11455
H_ H_ 0.959647 0.181673 0.363887 0.11455
H_ H_ 0.636022 0.0150724 0.4444 0.11455
H_ H_ 0.626505 0.437917 0.343586 0.11455
H_ H_ 0.611253 0.026996 0.353591 0.11455
H_ H_ 0.673069 0.429307 0.461505 0.11455
H_ H_ 0.653501 0.340288 0.457602 0.11455
H_ H_ 0.618293 0.354795 0.366917 0.11455
H_ H_ 0.585095 0.112167 0.467688 0.11455
H_ H_ 0.577528 0.0642195 0.00989046 0.11455
H_ H_ 0.611432 0.114397 0.0518013 0.11455
H_ H_ 0.701633 0.246194 0.467977 0.11455
H_ H_ 0.73486 0.289057 0.0100443 0.11455
H_ H_ 0.713502 0.266184 0.0572694 0.11455
H_ H_ 0.520861 0.201996 0.117803 0.11455
H_ H_ 0.508489 0.198755 0.169762 0.11455
H_ H_ 0.777042 0.186229 0.134677 0.11455
H_ H_ 0.76789 0.179327 0.184669 0.11455
H_ H_ 0.575954 0.105116 0.241481 0.11455
H_ H_ 0.570437 0.0669659 0.290813 0.11455
H_ H_ 0.59071 0.12254 0.330939 0.11455
H_ H_ 0.670585 0.261554 0.255845 0.11455
H_ H_ 0.698239 0.311561 0.298695 0.11455
H_ H_ 0.678527 0.276884 0.346471 0.11455
H_ H_ 0.707795 0.313495 0.196614 0.11455
H_ H_ 0.640849 0.321895 0.0975675 0.11455
H_ H_ 0.732318 0.311762 0.104215 0.11455
H_ H_ 0.621427 0.324686 0.215251 0.11455
H_ H_ 0.535094 0.334206 0.207827 0.11455
H_ H_ 0.555686 0.320596 0.118002 0.11455
H_ H_ 0.858044 0.481376 0.194365 0.11455
H_ H_ 0.883801 0.058606 0.096817 0.11455
H_ H_ 0.857897 0.471377 0.10594 0.11455
H_ H_ 0.903079 0.0675773 0.213506 0.11455
H_ H_ 0.904044 0.162037 0.208407 0.11455
H_ H_ 0.889126 0.14593 0.117187 0.11455
H_ H_ 0.929647 0.392348 0.213411 0.11455
H_ H_ 0.946568 0.425314 0.260634 0.11455
H_ H_ 0.8992 0.390534 0.303317 0.11455
H_ H_ 0.817335 0.252755 0.224102 0.11455
H_ H_ 0.796587 0.200094 0.264678 0.11455
H_ H_ 0.823179 0.225361 0.315181 0.11455
H_ H_ 0.995865 0.300675 0.372972 0.11455
H_ H_ 0.00662042 0.32169 0.426566 0.11455
H_ H_ 0.743076 0.337573 0.383759 0.11455
H_ H_ 0.75128 0.344948 0.43557 0.11455
H_ H_ 0.933999 0.421618 0.497461 0.11455
H_ H_ 0.959428 0.437726 0.0467506 0.11455
H_ H_ 0.933063 0.37738 0.0886233 0.11455
H_ H_ 0.837713 0.259799 0.0054289 0.11455
H_ H_ 0.81093 0.208143 0.0463975 0.11455
H_ H_ 0.832781 0.23029 0.0959929 0.11455
C_ C_ 0.731268 0.189015 0.405942 0.68181
C_ C_ 0.786299 0.190041 0.399633 -0.05681
C_ C_ 0.821122 0.1975 0.421454 -0.08735
C_ C_ 0.872354 0.187886 0.418101 -0.05681
C_ C_ 0.891354 0.174192 0.390988 -0.05681
C_ C_ 0.857151 0.175551 0.36764 -0.08735
C_ C_ 0.805084 0.178191 0.373571 -0.08735
C_ C_ 0.904037 0.19277 0.44171 -0.08735
C_ C_ 0.956536 0.184285 0.437163 -0.08735
C_ C_ 0.976475 0.178442 0.409347 -0.05681
C_ C_ 0.944611 0.175023 0.385985 -0.08735
C_ C_ 0.627592 0.285083 0.409906 0.68181
C_ C_ 0.639492 0.0853265 0.40082 0.68181
C_ C_ 0.631689 0.0298607 0.399472 -0.05681
C_ C_ 0.652458 0.499018 0.41923 -0.08735
C_ C_ 0.648961 0.446472 0.416137 -0.05681
C_ C_ 0.637599 0.423322 0.389398 -0.05681
C_ C_ 0.631028 0.454835 0.3655 -0.08735
C_ C_ 0.641413 0.507212 0.367997 -0.08735
C_ C_ 0.659149 0.414449 0.440668 -0.08735
C_ C_ 0.646785 0.362769 0.438298 -0.08735
C_ C_ 0.631512 0.339946 0.412313 -0.05681
C_ C_ 0.627412 0.371796 0.387063 -0.08735
C_ C_ 0.536269 0.178599 0.403097 0.68181
C_ C_ 0.593008 0.144549 0.481465 0.1947
C_ C_ 0.599488 0.0986824 0.00641331 -0.08735
C_ C_ 0.617389 0.12667 0.0297378 -0.08735
C_ C_ 0.64605 0.17089 0.0244456 -0.05681
C_ C_ 0.653169 0.186865 0.994362 0.18498
C_ C_ 0.686738 0.240087 0.489969 -0.08735
C_ C_ 0.706608 0.258759 0.0125725 -0.08735
C_ C_ 0.695226 0.245161 0.0406242 -0.08735
C_ C_ 0.665927 0.202498 0.0474623 0.18498
C_ C_ 0.699771 0.187903 0.0945179 0.44287
C_ C_ 0.613752 0.203236 0.0893198 0.44287
C_ C_ 0.601867 0.19159 0.118195 -0.05681
C_ C_ 0.55362 0.191407 0.130674 -0.08735
C_ C_ 0.546642 0.20017 0.160717 -0.08735
C_ C_ 0.590341 0.192249 0.179307 -0.05681
C_ C_ 0.637407 0.187486 0.166614 -0.05681
C_ C_ 0.644291 0.189154 0.135907 -0.05681
C_ C_ 0.694999 0.187421 0.123361 -0.05681
C_ C_ 0.736935 0.179125 0.142262 -0.08735
C_ C_ 0.731073 0.175552 0.172358 -0.08735
C_ C_ 0.682856 0.182665 0.184283 -0.05681
C_ C_ 0.675955 0.181923 0.214545 0.44287
C_ C_ 0.587601 0.198806 0.209393 0.44287
C_ C_ 0.617184 0.172011 0.255091 0.18498
C_ C_ 0.589335 0.125667 0.259362 -0.08735
C_ C_ 0.588936 0.105517 0.287348 -0.08735
C_ C_ 0.601567 0.135177 0.311135 -0.08735
C_ C_ 0.625269 0.181631 0.308989 0.18498
C_ C_ 0.630823 0.201567 0.279958 -0.05681
C_ C_ 0.658362 0.249122 0.276743 -0.08735
C_ C_ 0.670679 0.27755 0.3015 -0.08735
C_ C_ 0.661184 0.257083 0.328693 0.1947
C_ C_ 0.779629 0.314288 0.156533 0.68181
C_ C_ 0.726576 0.314208 0.152295 -0.05681
C_ C_ 0.691758 0.319229 0.17542 -0.08735
C_ C_ 0.64124 0.326488 0.171326 -0.05681
C_ C_ 0.621463 0.324416 0.142969 -0.05681
C_ C_ 0.654881 0.315725 0.119651 -0.08735
C_ C_ 0.70759 0.310903 0.123672 -0.08735
C_ C_ 0.609 0.333792 0.193215 -0.08735
C_ C_ 0.557731 0.337621 0.189349 -0.08735
C_ C_ 0.53617 0.330382 0.16272 -0.05681
C_ C_ 0.569189 0.328629 0.138612 -0.08735
C_ C_ 0.888213 0.215843 0.161666 0.68181
C_ C_ 0.869063 0.413589 0.151512 0.68181
C_ C_ 0.861265 0.46984 0.149513 -0.05681
C_ C_ 0.880927 0.00366263 0.173526 -0.08735
C_ C_ 0.887918 0.0556377 0.169512 -0.05681
C_ C_ 0.888847 0.0756807 0.142177 -0.05681
C_ C_ 0.882219 0.0428179 0.118284 -0.08735
C_ C_ 0.856443 0.495063 0.124111 -0.08735
C_ C_ 0.896709 0.0858939 0.192792 -0.08735
C_ C_ 0.902901 0.138275 0.189878 -0.08735
C_ C_ 0.892736 0.159015 0.163602 -0.05681
C_ C_ 0.888828 0.128047 0.139035 -0.08735
C_ C_ 0.97691 0.313891 0.154696 0.68181
C_ C_ 0.909074 0.377523 0.230994 0.1947
C_ C_ 0.920887 0.395393 0.258542 -0.08735
C_ C_ 0.896988 0.371338 0.28211 -0.08735
C_ C_ 0.870034 0.325024 0.278226 -0.05681
C_ C_ 0.859097 0.310247 0.24954 0.18498
C_ C_ 0.833009 0.263722 0.244389 -0.08735
C_ C_ 0.819329 0.23378 0.268215 -0.08735
C_ C_ 0.829962 0.250878 0.296458 -0.08735
C_ C_ 0.852369 0.29771 0.301242 0.18498
C_ C_ 0.821885 0.323609 0.347198 0.44287
C_ C_ 0.907958 0.297151 0.342984 0.44287
C_ C_ 0.9143 0.300451 0.373476 -0.05681
C_ C_ 0.961295 0.302347 0.386974 -0.08735
C_ C_ 0.965535 0.317601 0.415874 -0.08735
C_ C_ 0.922075 0.319059 0.432872 -0.05681
C_ C_ 0.875004 0.320039 0.420499 -0.05681
C_ C_ 0.87079 0.312167 0.390577 -0.05681
C_ C_ 0.824868 0.323008 0.37775 -0.05681
C_ C_ 0.781171 0.335365 0.393955 -0.08735
C_ C_ 0.784714 0.335229 0.423371 -0.08735
C_ C_ 0.831275 0.331693 0.437356 -0.05681
C_ C_ 0.838558 0.339471 0.467894 0.44287
C_ C_ 0.925424 0.323364 0.463664 0.44287
C_ C_ 0.892584 0.351158 0.0102899 0.18498
C_ C_ 0.91922 0.395781 0.0167099 -0.08735
C_ C_ 0.930571 0.408406 0.0443748 -0.08735
C_ C_ 0.917528 0.373478 0.0668483 -0.08735
C_ C_ 0.885948 0.330058 0.0616297 0.18498
C_ C_ 0.876101 0.317778 0.0325884 -0.05681
C_ C_ 0.847518 0.27234 0.0275974 -0.08735
C_ C_ 0.832401 0.241776 0.0505391 -0.08735
C_ C_ 0.844203 0.256715 0.0784216 0.1947
N_ N_ 0.630696 0.177757 0.47537 -0.29468
N_ N_ 0.657573 0.190828 0.0777971 -0.17154
N_ N_ 0.628552 0.185453 0.22565 -0.17154
N_ N_ 0.637907 0.210964 0.331874 -0.29468
N_ N_ 0.87886 0.335727 0.226925 -0.29468
N_ N_ 0.861972 0.309453 0.330561 -0.17154
N_ N_ 0.884011 0.334339 0.480797 -0.17154
N_ N_ 0.870902 0.30051 0.0834528 -0.29468
O_ O_ 0.714981 0.181865 0.431524 -0.58347
O_ O_ 0.70165 0.196837 0.385571 -0.58347
O_ O_ 0.638012 0.260208 0.431829 -0.58347
O_ O_ 0.619192 0.263135 0.385942 -0.58347
O_ O_ 0.637773 0.107473 0.424989 -0.58347
O_ O_ 0.643891 0.112662 0.377905 -0.58347
O_ O_ 0.56529 0.188125 0.424185 -0.58347
O_ O_ 0.553506 0.176756 0.377811 -0.58347
O_ O_ 0.575786 0.213612 0.0721642 -0.46727
O_ O_ 0.744572 0.178428 0.0830647 -0.46727
O_ O_ 0.548852 0.223338 0.21947 -0.46727
O_ O_ 0.715868 0.17716 0.23138 -0.46727
O_ O_ 0.799022 0.318226 0.181479 -0.58347
O_ O_ 0.807456 0.296115 0.136782 -0.58347
O_ O_ 0.87546 0.240856 0.18362 -0.58347
O_ O_ 0.895089 0.238716 0.137489 -0.58347
O_ O_ 0.870325 0.39226 0.176018 -0.58347
O_ O_ 0.863586 0.385367 0.129813 -0.58347
O_ O_ 0.947697 0.317829 0.177137 -0.58347
O_ O_ 0.957889 0.32659 0.130228 -0.58347
O_ O_ 0.945464 0.279078 0.327354 -0.46727
O_ O_ 0.778237 0.332756 0.334595 -0.46727
O_ O_ 0.967507 0.318276 0.476075 -0.46727
O_ O_ 0.798964 0.351855 0.482626 -0.46727
Zn Zn 0.62294 0.184375 0.878596 0.90689
Zn Zn 0.631095 0.176066 0.924619 0.90689
Zn Zn 0.869478 0.322913 0.632553 0.90689
Zn Zn 0.860308 0.329852 0.681069 0.90689
H_ H_ 0.795377 0.185688 0.945949 0.11455
H_ H_ 0.863468 0.178895 0.847645 0.11455
H_ H_ 0.776298 0.196805 0.854047 0.11455
H_ H_ 0.887913 0.203287 0.965164 0.11455
H_ H_ 0.976295 0.202673 0.956723 0.11455
H_ H_ 0.949699 0.194192 0.864878 0.11455
H_ H_ 0.57477 0.00870412 0.926936 0.11455
H_ H_ 0.622825 0.43093 0.844643 0.11455
H_ H_ 0.676146 0.0211679 0.854631 0.11455
H_ H_ 0.624745 0.428916 0.961022 0.11455
H_ H_ 0.615592 0.336517 0.958301 0.11455
H_ H_ 0.613231 0.348367 0.864797 0.11455
H_ H_ 0.57963 0.102877 0.960181 0.11455
H_ H_ 0.545416 0.110337 0.512374 0.11455
H_ H_ 0.591929 0.142505 0.553079 0.11455
H_ H_ 0.694761 0.240102 0.967868 0.11455
H_ H_ 0.722934 0.308436 0.506243 0.11455
H_ H_ 0.6921 0.296314 0.555039 0.11455
H_ H_ 0.5191 0.221095 0.618597 0.11455
H_ H_ 0.501448 0.186171 0.666156 0.11455
H_ H_ 0.765921 0.18522 0.636392 0.11455
H_ H_ 0.754524 0.174451 0.68839 0.11455
H_ H_ 0.573794 0.0847952 0.746608 0.11455
H_ H_ 0.543014 0.0621115 0.793609 0.11455
H_ H_ 0.56329 0.119945 0.833861 0.11455
H_ H_ 0.649306 0.249579 0.75399 0.11455
H_ H_ 0.68886 0.293943 0.798208 0.11455
H_ H_ 0.67157 0.261145 0.845491 0.11455
H_ H_ 0.688817 0.306573 0.694565 0.11455
H_ H_ 0.624167 0.332933 0.598055 0.11455
H_ H_ 0.714485 0.326058 0.605483 0.11455
H_ H_ 0.601381 0.306997 0.715735 0.11455
H_ H_ 0.507494 0.303193 0.704759 0.11455
H_ H_ 0.53641 0.322359 0.613808 0.11455
H_ H_ 0.837456 0.493556 0.690025 0.11455
H_ H_ 0.881482 0.0696768 0.601256 0.11455
H_ H_ 0.89088 0.482802 0.602155 0.11455
H_ H_ 0.847792 0.0757674 0.716661 0.11455
H_ H_ 0.855086 0.173333 0.713014 0.11455
H_ H_ 0.884057 0.152981 0.62347 0.11455
H_ H_ 0.916466 0.403248 0.718072 0.11455
H_ H_ 0.922082 0.437937 0.766967 0.11455
H_ H_ 0.871232 0.398277 0.806422 0.11455
H_ H_ 0.807971 0.267147 0.721746 0.11455
H_ H_ 0.769889 0.213377 0.761476 0.11455
H_ H_ 0.784575 0.239357 0.81175 0.11455
H_ H_ 0.981211 0.30823 0.870001 0.11455
H_ H_ -0.004171000000000036 0.313393 0.922632 0.11455
H_ H_ 0.729816 0.329927 0.890684 0.11455
H_ H_ 0.740483 0.341133 0.941292 0.11455
H_ H_ 0.93456 0.419811 0.998714 0.11455
H_ H_ 0.944537 0.448883 0.548825 0.11455
H_ H_ 0.929095 0.392962 0.587886 0.11455
H_ H_ 0.842579 0.259596 0.506133 0.11455
H_ H_ 0.815256 0.208642 0.54709 0.11455
H_ H_ 0.824986 0.243311 0.59745 0.11455
C_ C_ 0.722379 0.19296 0.901654 0.68181
C_ C_ 0.779033 0.190806 0.899544 -0.05681
C_ C_ 0.811726 0.190682 0.924333 -0.08735
C_ C_ 0.865235 0.191105 0.920723 -0.05681
C_ C_ 0.885075 0.189714 0.892438 -0.05681
C_ C_ 0.852933 0.189918 0.869058 -0.08735
C_ C_ 0.800076 0.193661 0.872493 -0.08735
C_ C_ 0.899224 0.197732 0.94337 -0.08735
C_ C_ 0.950458 0.200178 0.938339 -0.08735
C_ C_ 0.97148 0.19253 0.910808 -0.05681
C_ C_ 0.937557 0.187314 0.887562 -0.08735
C_ C_ 0.61575 0.280007 0.908863 0.68181
C_ C_ 0.630965 0.0812114 0.894997 0.68181
C_ C_ 0.628139 0.0236713 0.893726 -0.05681
C_ C_ 0.64571 0.49535 0.917248 -0.08735
C_ C_ 0.637889 0.441754 0.915781 -0.05681
C_ C_ 0.626456 0.419234 0.888892 -0.05681
C_ C_ 0.629333 0.447929 0.864387 -0.08735
C_ C_ 0.626046 0.501445 0.866535 -0.08735
C_ C_ 0.625571 0.411507 0.940723 -0.08735
C_ C_ 0.621515 0.358075 0.937908 -0.08735
C_ C_ 0.617637 0.335041 0.911582 -0.05681
C_ C_ 0.617364 0.365746 0.886375 -0.08735
C_ C_ 0.530291 0.176139 0.906112 0.68181
C_ C_ 0.598359 0.121313 0.978561 0.1947
C_ C_ 0.576079 0.135947 0.508425 -0.08735
C_ C_ 0.602682 0.155012 0.532145 -0.08735
C_ C_ 0.639724 0.191294 0.526499 -0.05681
C_ C_ 0.656528 0.199584 0.49727 0.18498
C_ C_ 0.687889 0.226559 0.989161 -0.08735
C_ C_ 0.703106 0.274352 0.51189 -0.08735
C_ C_ 0.686327 0.266653 0.540149 -0.08735
C_ C_ 0.660378 0.222005 0.548437 0.18498
C_ C_ 0.693939 0.199614 0.597241 0.44287
C_ C_ 0.607359 0.216872 0.592144 0.44287
C_ C_ 0.599116 0.204114 0.620874 -0.05681
C_ C_ 0.55052 0.201453 0.630648 -0.08735
C_ C_ 0.541192 0.190125 0.659843 -0.08735
C_ C_ 0.580925 0.181418 0.679139 -0.05681
C_ C_ 0.630183 0.17353 0.667527 -0.05681
C_ C_ 0.639279 0.185619 0.638027 -0.05681
C_ C_ 0.688208 0.189641 0.627347 -0.05681
C_ C_ 0.72967 0.189261 0.645529 -0.08735
C_ C_ 0.722705 0.174349 0.674246 -0.08735
C_ C_ 0.672679 0.170006 0.68637 -0.05681
C_ C_ 0.663887 0.165232 0.716742 0.44287
C_ C_ 0.575849 0.179296 0.709686 0.44287
C_ C_ 0.605477 0.155283 0.757594 0.18498
C_ C_ 0.577935 0.112306 0.763774 -0.08735
C_ C_ 0.565702 0.0958429 0.791201 -0.08735
C_ C_ 0.577624 0.127401 0.813387 -0.08735
C_ C_ 0.607493 0.171615 0.808719 0.18498
C_ C_ 0.618396 0.187399 0.779808 -0.05681
C_ C_ 0.647382 0.233456 0.775056 -0.08735
C_ C_ 0.667748 0.258418 0.799458 -0.08735
C_ C_ 0.653969 0.242406 0.826214 0.1947
C_ C_ 0.764933 0.32097 0.654405 0.68181
C_ C_ 0.709788 0.317167 0.651529 -0.05681
C_ C_ 0.674316 0.314963 0.674469 -0.08735
C_ C_ 0.621111 0.310053 0.670275 -0.05681
C_ C_ 0.602598 0.317819 0.641522 -0.05681
C_ C_ 0.637989 0.325971 0.619614 -0.08735
C_ C_ 0.690081 0.322784 0.623933 -0.08735
C_ C_ 0.588138 0.306296 0.692798 -0.08735
C_ C_ 0.536731 0.305979 0.687259 -0.08735
C_ C_ 0.517432 0.313564 0.660118 -0.05681
C_ C_ 0.551221 0.318259 0.635803 -0.08735
C_ C_ 0.873962 0.227545 0.664726 0.68181
C_ C_ 0.859542 0.422727 0.649095 0.68181
C_ C_ 0.868227 0.478965 0.648292 -0.05681
C_ C_ 0.852115 0.00724724 0.673663 -0.08735
C_ C_ 0.860309 0.0607845 0.671219 -0.05681
C_ C_ 0.871492 0.0843076 0.645652 -0.05681
C_ C_ 0.876381 0.0537107 0.621795 -0.08735
C_ C_ 0.881753 0.502616 0.622209 -0.08735
C_ C_ 0.856311 0.091842 0.696125 -0.08735
C_ C_ 0.859871 0.14512 0.694105 -0.08735
C_ C_ 0.872334 0.168654 0.667875 -0.05681
C_ C_ 0.878956 0.137602 0.643442 -0.08735
C_ C_ 0.963534 0.325899 0.659518 0.68181
C_ C_ 0.890517 0.390623 0.734054 0.1947
C_ C_ 0.892707 0.410677 0.762002 -0.08735
C_ C_ 0.869217 0.384012 0.784013 -0.08735
C_ C_ 0.848938 0.335666 0.778302 -0.05681
C_ C_ 0.841907 0.321813 0.749609 0.18498
C_ C_ 0.812249 0.278409 0.744035 -0.08735
C_ C_ 0.795299 0.245016 0.765621 -0.08735
C_ C_ 0.800135 0.261845 0.794138 -0.08735
C_ C_ 0.83386 0.301661 0.80158 0.18498
C_ C_ 0.802197 0.324103 0.848954 0.44287
C_ C_ 0.888586 0.306859 0.843419 0.44287
C_ C_ 0.900083 0.313751 0.873186 -0.05681
C_ C_ 0.950304 0.311053 0.884425 -0.08735
C_ C_ 0.958823 0.319129 0.913887 -0.08735
C_ C_ 0.917224 0.324848 0.932701 -0.05681
C_ C_ 0.866964 0.333528 0.920456 -0.05681
C_ C_ 0.859582 0.329391 0.890281 -0.05681
C_ C_ 0.809242 0.33171 0.878835 -0.05681
C_ C_ 0.7678 0.33417 0.897877 -0.08735
C_ C_ 0.775587 0.340568 0.927271 -0.08735
C_ C_ 0.825904 0.341459 0.939215 -0.05681
C_ C_ 0.834841 0.347984 0.969867 0.44287
C_ C_ 0.922671 0.327574 0.962484 0.44287
C_ C_ 0.891583 0.352027 0.509636 0.18498
C_ C_ 0.918023 0.398348 0.515148 -0.08735
C_ C_ 0.924026 0.413491 0.543018 -0.08735
C_ C_ 0.91444 0.381165 0.565598 -0.08735
C_ C_ 0.886396 0.336311 0.560316 0.18498
C_ C_ 0.87549 0.320958 0.532416 -0.05681
C_ C_ 0.851251 0.274217 0.527939 -0.08735
C_ C_ 0.83014 0.247034 0.551109 -0.08735
C_ C_ 0.838452 0.265448 0.579646 0.1947
N_ N_ 0.631654 0.16033 0.973028 -0.29468
N_ N_ 0.653076 0.211347 0.579678 -0.17154
N_ N_ 0.615867 0.16743 0.726947 -0.17154
N_ N_ 0.624047 0.200425 0.831363 -0.29468
N_ N_ 0.859963 0.350604 0.727939 -0.29468
N_ N_ 0.841842 0.313036 0.831511 -0.17154
N_ N_ 0.883835 0.340401 0.980369 -0.17154
N_ N_ 0.869461 0.308227 0.583325 -0.29468
O_ O_ 0.70253 0.175316 0.923854 -0.58347
O_ O_ 0.695808 0.199817 0.878635 -0.58347
O_ O_ 0.632716 0.254367 0.928397 -0.58347
O_ O_ 0.609482 0.259041 0.88454 -0.58347
O_ O_ 0.628717 0.102882 0.918706 -0.58347
O_ O_ 0.633541 0.107082 0.873009 -0.58347
O_ O_ 0.559519 0.173842 0.927858 -0.58347
O_ O_ 0.550288 0.174086 0.881672 -0.58347
O_ O_ 0.568731 0.238541 0.578133 -0.46727
O_ O_ 0.73878 0.197252 0.585773 -0.46727
O_ O_ 0.531808 0.183978 0.720387 -0.46727
O_ O_ 0.701431 0.15341 0.734417 -0.46727
O_ O_ 0.785795 0.318714 0.679342 -0.58347
O_ O_ 0.791885 0.326817 0.632489 -0.58347
O_ O_ 0.873486 0.25543 0.686635 -0.58347
O_ O_ 0.864406 0.248204 0.640556 -0.58347
O_ O_ 0.847831 0.402727 0.672745 -0.58347
O_ O_ 0.87477 0.393762 0.627585 -0.58347
O_ O_ 0.9353 0.343302 0.678775 -0.58347
O_ O_ 0.943589 0.318209 0.63565 -0.58347
O_ O_ 0.925483 0.292834 0.825516 -0.46727
O_ O_ 0.759007 0.342061 0.837911 -0.46727
O_ O_ 0.967416 0.318494 0.973865 -0.46727
O_ O_ 0.798507 0.365106 0.985833 -0.46727
Zn Zn 0.628961 0.690644 0.383696 0.90689
Zn Zn 0.639299 0.681536 0.429689 0.90689
Zn Zn 0.878744 0.812814 0.135934 0.90689
Zn Zn 0.867015 0.819912 0.184079 0.90689
H_ H_ 0.809025 0.710725 0.444101 0.11455
H_ H_ 0.878686 0.672672 0.348741 0.11455
H_ H_ 0.785474 0.676858 0.35724 0.11455
H_ H_ 0.889721 0.689444 0.46519 0.11455
H_ H_ 0.981453 0.682691 0.460288 0.11455
H_ H_ 0.961819 0.672763 0.370295 0.11455
H_ H_ 0.660121 0.517546 0.440331 0.11455
H_ H_ 0.611213 0.933833 0.350319 0.11455
H_ H_ 0.642246 0.527942 0.348696 0.11455
H_ H_ 0.645337 0.930043 0.465901 0.11455
H_ H_ 0.637425 0.839049 0.462334 0.11455
H_ H_ 0.633738 0.856636 0.370114 0.11455
H_ H_ 0.58358 0.607804 0.460957 0.11455
H_ H_ 0.580149 0.552372 0.0102076 0.11455
H_ H_ 0.595534 0.602925 0.051398 0.11455
H_ H_ 0.6787 0.751977 0.473327 0.11455
H_ H_ 0.700714 0.795489 0.0164073 0.11455
H_ H_ 0.67861 0.769533 0.0637504 0.11455
H_ H_ 0.510419 0.698719 0.132039 0.11455
H_ H_ 0.511206 0.699844 0.18147 0.11455
H_ H_ 0.757166 0.642848 0.12918 0.11455
H_ H_ 0.760125 0.648512 0.183294 0.11455
H_ H_ 0.607316 0.571559 0.251343 0.11455
H_ H_ 0.594613 0.544964 0.299726 0.11455
H_ H_ 0.593054 0.609451 0.338844 0.11455
H_ H_ 0.674566 0.736892 0.256319 0.11455
H_ H_ 0.703255 0.788722 0.295623 0.11455
H_ H_ 0.683547 0.764929 0.346015 0.11455
H_ H_ 0.704414 0.800631 0.19573 0.11455
H_ H_ 0.631132 0.817839 0.0976041 0.11455
H_ H_ 0.723382 0.812104 0.104464 0.11455
H_ H_ 0.616258 0.793288 0.214986 0.11455
H_ H_ 0.527521 0.802213 0.209082 0.11455
H_ H_ 0.544266 0.829153 0.119934 0.11455
H_ H_ 0.890032 0.989124 0.194183 0.11455
H_ H_ 0.850213 0.561902 0.100779 0.11455
H_ H_ 0.85977 0.969721 0.102344 0.11455
H_ H_ 0.885123 0.564215 0.218743 0.11455
H_ H_ 0.885628 0.655004 0.216331 0.11455
H_ H_ 0.865283 0.644666 0.123505 0.11455
H_ H_ 0.924461 0.890425 0.221001 0.11455
H_ H_ 0.937563 0.919373 0.270204 0.11455
H_ H_ 0.883289 0.886183 0.308228 0.11455
H_ H_ 0.800401 0.762143 0.223741 0.11455
H_ H_ 0.776299 0.707163 0.260384 0.11455
H_ H_ 0.786712 0.727487 0.3109 0.11455
H_ H_ 0.981412 0.811167 0.369761 0.11455
H_ H_ -0.00819700000000001 0.814554 0.423535 0.11455
H_ H_ 0.730122 0.84113 0.39278 0.11455
H_ H_ 0.740388 0.828677 0.444349 0.11455
H_ H_ 0.947957 0.885377 0.500759 0.11455
H_ H_ 0.979504 0.926781 0.0518308 0.11455
H_ H_ 0.938057 0.87973 0.0920127 0.11455
H_ H_ 0.847141 0.749763 0.0117243 0.11455
H_ H_ 0.808638 0.71046 0.0520036 0.11455
H_ H_ 0.834954 0.73408 0.0998001 0.11455
C_ C_ 0.733088 0.691826 0.40554 0.68181
C_ C_ 0.78952 0.690515 0.401653 -0.05681
C_ C_ 0.822366 0.696333 0.425247 -0.08735
C_ C_ 0.873774 0.685373 0.422119 -0.05681
C_ C_ 0.893911 0.677791 0.394078 -0.05681
C_ C_ 0.86218 0.678748 0.370305 -0.08735
C_ C_ 0.809786 0.680956 0.374907 -0.08735
C_ C_ 0.907363 0.685028 0.444713 -0.08735
C_ C_ 0.959106 0.68205 0.441243 -0.08735
C_ C_ 0.979611 0.680776 0.414156 -0.05681
C_ C_ 0.946539 0.676316 0.390432 -0.08735
C_ C_ 0.621404 0.784784 0.412973 0.68181
C_ C_ 0.652131 0.586104 0.398658 0.68181
C_ C_ 0.652075 0.530026 0.394865 -0.05681
C_ C_ 0.633565 0.998764 0.423932 -0.08735
C_ C_ 0.631182 0.945682 0.421053 -0.05681
C_ C_ 0.6269 0.924021 0.394707 -0.05681
C_ C_ 0.617371 0.953531 0.370744 -0.08735
C_ C_ 0.61766 1.00540296 0.373271 -0.08735
C_ C_ 0.636371 0.913416 0.445145 -0.08735
C_ C_ 0.635814 0.861713 0.443187 -0.08735
C_ C_ 0.629738 0.839887 0.415188 -0.05681
C_ C_ 0.629948 0.872312 0.391728 -0.08735
C_ C_ 0.537499 0.674815 0.40471 0.68181
C_ C_ 0.59917 0.62473 0.479152 0.1947
C_ C_ 0.589829 0.591699 0.00618984 -0.08735
C_ C_ 0.608419 0.618166 0.0305204 -0.08735
C_ C_ 0.628516 0.6676 0.0286389 -0.05681
C_ C_ 0.640697 0.685036 1.00021 0.18498
C_ C_ 0.669934 0.737487 0.494955 -0.08735
C_ C_ 0.677107 0.763435 0.0187672 -0.08735
C_ C_ 0.661897 0.748513 0.0460497 -0.08735
C_ C_ 0.640177 0.699296 0.0514245 0.18498
C_ C_ 0.681207 0.673286 0.0959269 0.44287
C_ C_ 0.591801 0.68695 0.0953416 0.44287
C_ C_ 0.590926 0.685635 0.126072 -0.05681
C_ C_ 0.545564 0.685989 0.141647 -0.08735
C_ C_ 0.545611 0.690115 0.170274 -0.08735
C_ C_ 0.587671 0.675602 0.185558 -0.05681
C_ C_ 0.635457 0.671281 0.170801 -0.05681
C_ C_ 0.637172 0.67579 0.140921 -0.05681
C_ C_ 0.681629 0.666617 0.125439 -0.05681
C_ C_ 0.726415 0.656803 0.141777 -0.08735
C_ C_ 0.724142 0.652528 0.171379 -0.08735
C_ C_ 0.679333 0.661418 0.186316 -0.05681
C_ C_ 0.67614 0.654255 0.216159 0.44287
C_ C_ 0.588414 0.673634 0.215696 0.44287
C_ C_ 0.628049 0.648529 0.261213 0.18498
C_ C_ 0.614329 0.597889 0.268289 -0.08735
C_ C_ 0.602724 0.584993 0.295571 -0.08735
C_ C_ 0.603808 0.622644 0.317715 -0.08735
C_ C_ 0.626188 0.669103 0.312358 0.18498
C_ C_ 0.634292 0.683106 0.283195 -0.05681
C_ C_ 0.660992 0.728879 0.278543 -0.08735
C_ C_ 0.678277 0.757641 0.301017 -0.08735
C_ C_ 0.665528 0.743395 0.328869 0.1947
C_ C_ 0.775602 0.815846 0.155114 0.68181
C_ C_ 0.719885 0.814957 0.150564 -0.05681
C_ C_ 0.687648 0.804055 0.17411 -0.08735
C_ C_ 0.633355 0.803418 0.169889 -0.05681
C_ C_ 0.612632 0.810696 0.142626 -0.05681
C_ C_ 0.646997 0.815609 0.119601 -0.08735
C_ C_ 0.69977 0.815531 0.124035 -0.08735
C_ C_ 0.602175 0.799006 0.193857 -0.08735
C_ C_ 0.550626 0.809804 0.192008 -0.08735
C_ C_ 0.527253 0.820183 0.164964 -0.05681
C_ C_ 0.560263 0.81714 0.139804 -0.08735
C_ C_ 0.875697 0.715814 0.167027 0.68181
C_ C_ 0.869589 0.914791 0.152761 0.68181
C_ C_ 0.870251 0.970723 0.149438 -0.05681
C_ C_ 0.86612 0.500054 0.17394 -0.08735
C_ C_ 0.868688 0.55314 0.17332 -0.05681
C_ C_ 0.860143 0.577414 0.146066 -0.05681
C_ C_ 0.850607 0.547358 0.121865 -0.08735
C_ C_ 0.866365 0.992047 0.121302 -0.08735
C_ C_ 0.878752 0.582169 0.198278 -0.08735
C_ C_ 0.881907 0.635272 0.196185 -0.08735
C_ C_ 0.87223 0.660039 0.169508 -0.05681
C_ C_ 0.861765 0.629125 0.144955 -0.08735
C_ C_ 0.970893 0.819506 0.160866 0.68181
C_ C_ 0.899554 0.877179 0.23744 0.1947
C_ C_ 0.90972 0.88814 0.266197 -0.08735
C_ C_ 0.88203 0.868268 0.287586 -0.08735
C_ C_ 0.852968 0.825778 0.280972 -0.05681
C_ C_ 0.843761 0.812821 0.252058 0.18498
C_ C_ 0.817004 0.768911 0.245834 -0.08735
C_ C_ 0.795066 0.740171 0.267647 -0.08735
C_ C_ 0.801393 0.751817 0.295363 -0.08735
C_ C_ 0.830671 0.795152 0.302925 0.18498
C_ C_ 0.798824 0.818678 0.351573 0.44287
C_ C_ 0.885648 0.79665 0.344034 0.44287
C_ C_ 0.895921 0.806051 0.374034 -0.05681
C_ C_ 0.94554 0.811015 0.384142 -0.08735
C_ C_ 0.954206 0.813423 0.413882 -0.08735
C_ C_ 0.912876 0.816472 0.433047 -0.05681
C_ C_ 0.86319 0.819235 0.421994 -0.05681
C_ C_ 0.855633 0.81517 0.392273 -0.05681
C_ C_ 0.806911 0.825379 0.380865 -0.05681
C_ C_ 0.768018 0.836768 0.400348 -0.08735
C_ C_ 0.773722 0.827465 0.430177 -0.08735
C_ C_ 0.821795 0.823184 0.441683 -0.05681
C_ C_ 0.831341 0.823335 0.470774 0.44287
C_ C_ 0.917307 0.809686 0.46382 0.44287
C_ C_ 0.907433 0.842102 0.0130419 0.18498
C_ C_ 0.938731 0.884356 0.0196606 -0.08735
C_ C_ 0.954262 0.894399 0.0471409 -0.08735
C_ C_ 0.935665 0.864481 0.0692719 -0.08735
C_ C_ 0.899077 0.825225 0.064189 0.18498
C_ C_ 0.888556 0.81102 0.0362921 -0.05681
C_ C_ 0.861031 0.763373 0.0324225 -0.08735
C_ C_ 0.839207 0.737867 0.0552903 -0.08735
C_ C_ 0.85028 0.755551 0.0826831 0.1947
N_ N_ 0.628209 0.665427 0.476455 -0.29468
N_ N_ 0.637151 0.682438 0.081557 -0.17154
N_ N_ 0.631442 0.659931 0.230865 -0.17154
N_ N_ 0.638876 0.701662 0.334309 -0.29468
N_ N_ 0.86709 0.837893 0.23102 -0.29468
N_ N_ 0.838374 0.804148 0.33365 -0.17154
N_ N_ 0.877388 0.819504 0.481349 -0.17154
N_ N_ 0.87643 0.800479 0.0865619 -0.29468
O_ O_ 0.713142 0.681737 0.429818 -0.58347
O_ O_ 0.704855 0.703097 0.384267 -0.58347
O_ O_ 0.627156 0.756816 0.433814 -0.58347
O_ O_ 0.620804 0.765666 0.38723 -0.58347
O_ O_ 0.646947 0.603302 0.423692 -0.58347
O_ O_ 0.643867 0.615844 0.378179 -0.58347
O_ O_ 0.565952 0.680099 0.426439 -0.58347
O_ O_ 0.555784 0.679332 0.380659 -0.58347
O_ O_ 0.550161 0.68895 0.0805709 -0.46727
O_ O_ 0.72475 0.673294 0.0815115 -0.46727
O_ O_ 0.546023 0.681626 0.229432 -0.46727
O_ O_ 0.717805 0.648055 0.230428 -0.46727
O_ O_ 0.794658 0.821821 0.180881 -0.58347
O_ O_ 0.805514 0.801984 0.134999 -0.58347
O_ O_ 0.868725 0.746692 0.187933 -0.58347
O_ O_ 0.886517 0.735953 0.14349 -0.58347
O_ O_ 0.865525 0.894437 0.177073 -0.58347
O_ O_ 0.869059 0.886612 0.130129 -0.58347
O_ O_ 0.941894 0.82286 0.183145 -0.58347
O_ O_ 0.952377 0.821235 0.135333 -0.58347
O_ O_ 0.924739 0.791311 0.326378 -0.46727
O_ O_ 0.753705 0.827574 0.340966 -0.46727
O_ O_ 0.960595 0.802144 0.47455 -0.46727
O_ O_ 0.792739 0.825609 0.488217 -0.46727
Zn Zn 0.619029 0.683751 0.879591 0.90689
Zn Zn 0.629544 0.677401 0.929003 0.90689
Zn Zn 0.866181 0.816086 0.632126 0.90689
Zn Zn 0.852718 0.826657 0.682931 0.90689
H_ H_ 0.798236 0.711957 0.94188 0.11455
H_ H_ 0.869689 0.658652 0.848672 0.11455
H_ H_ 0.779777 0.656427 0.856237 0.11455
H_ H_ 0.879309 0.69577 0.965663 0.11455
H_ H_ 0.975469 0.695304 0.9589 0.11455
H_ H_ 0.954457 0.648894 0.871502 0.11455
H_ H_ 0.662231 0.511001 0.935428 0.11455
H_ H_ 0.664284 0.930134 0.850413 0.11455
H_ H_ 0.630514 0.523122 0.844927 0.11455
H_ H_ 0.574874 0.928772 0.957847 0.11455
H_ H_ 0.587618 0.83438 0.957493 0.11455
H_ H_ 0.6477 0.842233 0.871924 0.11455
H_ H_ 0.581275 0.593015 0.960719 0.11455
H_ H_ 0.564219 0.569543 0.510942 0.11455
H_ H_ 0.621221 0.59951 0.549251 0.11455
H_ H_ 0.679252 0.740619 0.973593 0.11455
H_ H_ 0.706977 0.799388 0.513811 0.11455
H_ H_ 0.688693 0.77118 0.562662 0.11455
H_ H_ 0.504856 0.688468 0.616009 0.11455
H_ H_ 0.491639 0.702604 0.668735 0.11455
H_ H_ 0.756694 0.664224 0.639579 0.11455
H_ H_ 0.740007 0.663726 0.693198 0.11455
H_ H_ 0.539831 0.603353 0.74714 0.11455
H_ H_ 0.533554 0.572432 0.795338 0.11455
H_ H_ 0.559194 0.62709 0.835284 0.11455
H_ H_ 0.651013 0.749523 0.754502 0.11455
H_ H_ 0.697965 0.783155 0.79423 0.11455
H_ H_ 0.67321 0.765454 0.843657 0.11455
H_ H_ 0.688683 0.802358 0.700312 0.11455
H_ H_ 0.61932 0.817652 0.602737 0.11455
H_ H_ 0.707929 0.826619 0.60851 0.11455
H_ H_ 0.600602 0.79928 0.720545 0.11455
H_ H_ 0.510264 0.804412 0.713323 0.11455
H_ H_ 0.530667 0.81737 0.620642 0.11455
H_ H_ 0.845789 0.987533 0.693507 0.11455
H_ H_ 0.909415 0.569426 0.602129 0.11455
H_ H_ 0.877796 0.977642 0.604296 0.11455
H_ H_ 0.8345 0.578578 0.713347 0.11455
H_ H_ 0.84688 0.669741 0.711159 0.11455
H_ H_ 0.900913 0.658182 0.624191 0.11455
H_ H_ 0.906217 0.896786 0.720016 0.11455
H_ H_ 0.900701 0.933282 0.768303 0.11455
H_ H_ 0.868589 0.879852 0.810096 0.11455
H_ H_ 0.793953 0.754899 0.724962 0.11455
H_ H_ 0.770388 0.69785 0.763267 0.11455
H_ H_ 0.792977 0.721267 0.814958 0.11455
H_ H_ 0.982818 0.773698 0.875173 0.11455
H_ H_ 0.999270537 0.790843 0.926226 0.11455
H_ H_ 0.744912 0.843884 0.894088 0.11455
H_ H_ 0.756084 0.852608 0.945214 0.11455
H_ H_ 0.957932 0.904352 1.00238867 0.11455
H_ H_ 0.955116 0.920087 0.548127 0.11455
H_ H_ 0.916671 0.875257 0.589008 0.11455
H_ H_ 0.836781 0.742188 0.510563 0.11455
H_ H_ 0.795992 0.703972 0.553091 0.11455
H_ H_ 0.810162 0.73912 0.599734 0.11455
C_ C_ 0.724645 0.683323 0.903956 0.68181
C_ C_ 0.780849 0.681023 0.90035 -0.05681
C_ C_ 0.812251 0.690454 0.924249 -0.08735
C_ C_ 0.864737 0.683409 0.921274 -0.05681
C_ C_ 0.885924 0.674889 0.893713 -0.05681
C_ C_ 0.854269 0.667986 0.869983 -0.08735
C_ C_ 0.801943 0.669072 0.873621 -0.08735
C_ C_ 0.897789 0.691821 0.944569 -0.08735
C_ C_ 0.951021 0.689115 0.940898 -0.08735
C_ C_ 0.971417 0.673892 0.914308 -0.05681
C_ C_ 0.938558 0.665043 0.891051 -0.08735
C_ C_ 0.617538 0.776776 0.914005 0.68181
C_ C_ 0.636592 0.580928 0.894999 0.68181
C_ C_ 0.640647 0.524555 0.892114 -0.05681
C_ C_ 0.60612 -0.005485999999999991 0.915231 -0.08735
C_ C_ 0.613101 0.941135 0.916945 -0.05681
C_ C_ 0.64179 0.917019 0.894122 -0.05681
C_ C_ 0.657661 0.946673 0.87087 -0.08735
C_ C_ 0.655883 -0.00039000000000000146 0.871544 -0.08735
C_ C_ 0.590635 0.910441 0.938775 -0.08735
C_ C_ 0.594243 0.857475 0.938643 -0.08735
C_ C_ 0.615053 0.834019 0.914277 -0.05681
C_ C_ 0.639694 0.863294 0.891835 -0.08735
C_ C_ 0.527118 0.671242 0.906917 0.68181
C_ C_ 0.60193 0.61 0.979543 0.1947
C_ C_ 0.591081 0.602652 0.506172 -0.08735
C_ C_ 0.617345 0.621856 0.52998 -0.08735
C_ C_ 0.645174 0.669121 0.526872 -0.05681
C_ C_ 0.643871 0.692924 0.499233 0.18498
C_ C_ 0.669311 0.729525 0.995572 -0.08735
C_ C_ 0.683779 0.766681 0.518192 -0.08735
C_ C_ 0.677645 0.747418 0.54512 -0.08735
C_ C_ 0.658487 0.697415 0.550124 0.18498
C_ C_ 0.683669 0.668806 0.597104 0.44287
C_ C_ 0.597867 0.691539 0.590322 0.44287
C_ C_ 0.586695 0.684808 0.619934 -0.05681
C_ C_ 0.537427 0.685955 0.630373 -0.08735
C_ C_ 0.529501 0.68768 0.661186 -0.08735
C_ C_ 0.571299 0.683323 0.680311 -0.05681
C_ C_ 0.61845 0.671058 0.668707 -0.05681
C_ C_ 0.627029 0.675822 0.638369 -0.05681
C_ C_ 0.676884 0.674829 0.627867 -0.05681
C_ C_ 0.716887 0.666436 0.647143 -0.08735
C_ C_ 0.708461 0.663039 0.677695 -0.08735
C_ C_ 0.658618 0.663995 0.688085 -0.05681
C_ C_ 0.647755 0.660483 0.717601 0.44287
C_ C_ 0.56372 0.687715 0.709935 0.44287
C_ C_ 0.59012 0.663061 0.757576 0.18498
C_ C_ 0.55675 0.623996 0.763809 -0.08735
C_ C_ 0.548173 0.609094 0.792053 -0.08735
C_ C_ 0.568395 0.63587 0.814576 -0.08735
C_ C_ 0.600604 0.679349 0.809044 0.18498
C_ C_ 0.612153 0.692872 0.780368 -0.05681
C_ C_ 0.643403 0.734777 0.775341 -0.08735
C_ C_ 0.66836 0.757194 0.798337 -0.08735
C_ C_ 0.65721 0.741588 0.82653 0.1947
C_ C_ 0.761774 0.808194 0.658711 0.68181
C_ C_ 0.706995 0.812465 0.655148 -0.05681
C_ C_ 0.672467 0.809802 0.678873 -0.08735
C_ C_ 0.618899 0.812052 0.676493 -0.05681
C_ C_ 0.598112 0.81342 0.647841 -0.05681
C_ C_ 0.633016 0.813306 0.624077 -0.08735
C_ C_ 0.685031 0.82059 0.627318 -0.08735
C_ C_ 0.586129 0.811784 0.699715 -0.08735
C_ C_ 0.533433 0.806553 0.694554 -0.08735
C_ C_ 0.510195 0.811186 0.666534 -0.05681
C_ C_ 0.545154 0.815374 0.64343 -0.08735
C_ C_ 0.874066 0.724348 0.665063 0.68181
C_ C_ 0.854058 0.919355 0.651882 0.68181
C_ C_ 0.861903 0.976109 0.649713 -0.05681
C_ C_ 0.856646 0.510523 0.672177 -0.08735
C_ C_ 0.864987 0.563743 0.671818 -0.05681
C_ C_ 0.881079 0.586196 0.645597 -0.05681
C_ C_ 0.888757 0.556015 0.620557 -0.08735
C_ C_ 0.872209 1.000292721 0.624133 -0.08735
C_ C_ 0.851375 0.594094 0.694902 -0.08735
C_ C_ 0.859483 0.646867 0.693464 -0.08735
C_ C_ 0.872324 0.669296 0.66781 -0.05681
C_ C_ 0.883441 0.639619 0.642957 -0.08735
C_ C_ 0.959678 0.827584 0.655493 0.68181
C_ C_ 0.882171 0.87785 0.736785 0.1947
C_ C_ 0.886507 0.8956 0.765022 -0.08735
C_ C_ 0.870005 0.866317 0.788094 -0.08735
C_ C_ 0.85177 0.816065 0.783043 -0.05681
C_ C_ 0.843053 0.80251 0.753526 0.18498
C_ C_ 0.809258 0.76185 0.746662 -0.08735
C_ C_ 0.793857 0.730868 0.769319 -0.08735
C_ C_ 0.807998 0.741763 0.798019 -0.08735
C_ C_ 0.833676 0.785559 0.805198 0.18498
C_ C_ 0.812095 0.816667 0.853615 0.44287
C_ C_ 0.895501 0.786654 0.845569 0.44287
C_ C_ 0.906143 0.793315 0.876423 -0.05681
C_ C_ 0.954094 0.785744 0.889026 -0.08735
C_ C_ 0.963894 0.802117 0.917231 -0.08735
C_ C_ 0.923468 0.810864 0.935443 -0.05681
C_ C_ 0.876473 0.821841 0.9247 -0.05681
C_ C_ 0.866661 0.812869 0.894534 -0.05681
C_ C_ 0.821617 0.826909 0.882889 -0.05681
C_ C_ 0.782039 0.842841 0.901027 -0.08735
C_ C_ 0.789633 0.846529 0.931238 -0.08735
C_ C_ 0.840876 0.845484 0.942174 -0.05681
C_ C_ 0.851041 0.846334 0.971375 0.44287
C_ C_ 0.933083 0.814987 0.965349 0.44287
C_ C_ 0.888145 0.833731 0.510824 0.18498
C_ C_ 0.924913 0.870568 0.517512 -0.08735
C_ C_ 0.932129 0.88865 0.54524 -0.08735
C_ C_ 0.906076 0.867013 0.567948 -0.08735
C_ C_ 0.874356 0.826965 0.56311 0.18498
C_ C_ 0.865287 0.806558 0.534708 -0.05681
C_ C_ 0.837532 0.761892 0.531493 -0.08735
C_ C_ 0.816244 0.738292 0.555401 -0.08735
C_ C_ 0.82578 0.759079 0.582176 0.1947
N_ N_ 0.626427 0.655517 0.97673 -0.29468
N_ N_ 0.645291 0.680258 0.578795 -0.17154
N_ N_ 0.600719 0.672855 0.728094 -0.17154
N_ N_ 0.624189 0.703708 0.831722 -0.29468
N_ N_ 0.855694 0.835433 0.731262 -0.29468
N_ N_ 0.846893 0.79641 0.835486 -0.17154
N_ N_ 0.895156 0.830396 0.982999 -0.17154
N_ N_ 0.859909 0.798127 0.586268 -0.29468
O_ O_ 0.704116 0.681529 0.928424 -0.58347
O_ O_ 0.697924 0.69271 0.881955 -0.58347
O_ O_ 0.615063 0.750445 0.937593 -0.58347
O_ O_ 0.612693 0.755923 0.889009 -0.58347
O_ O_ 0.637563 0.604008 0.91896 -0.58347
O_ O_ 0.624738 0.60511 0.87307 -0.58347
O_ O_ 0.556042 0.668596 0.928815 -0.58347
O_ O_ 0.543586 0.669463 0.88103 -0.58347
O_ O_ 0.564291 0.712227 0.573818 -0.46727
O_ O_ 0.729026 0.659022 0.586713 -0.46727
O_ O_ 0.519491 0.702567 0.719506 -0.46727
O_ O_ 0.684408 0.64914 0.734924 -0.46727
O_ O_ 0.783294 0.813021 0.683171 -0.58347
O_ O_ 0.789763 0.809741 0.636432 -0.58347
O_ O_ 0.862375 0.75148 0.686269 -0.58347
O_ O_ 0.868623 0.743096 0.639183 -0.58347
O_ O_ 0.844263 0.89854 0.676272 -0.58347
O_ O_ 0.859887 0.890987 0.629832 -0.58347
O_ O_ 0.931642 0.838387 0.676501 -0.58347
O_ O_ 0.941913 0.821747 0.630514 -0.58347
O_ O_ 0.930504 0.768248 0.828725 -0.46727
O_ O_ 0.763895 0.826101 0.843187 -0.46727
O_ O_ 0.978757 0.812308 0.974787 -0.46727
O_ O_ 0.814407 0.862397 0.989534 -0.46727
