_cell_length_a 26.376
_cell_length_b 26.400000238300095
_cell_length_c 46.67800035477134
_cell_angle_alpha 90.00700052986613
_cell_angle_beta 89.99899961309502
_cell_angle_gamma 90.45000003183146
_symmetry_space_group_name_H-M         'P 1'
_symmetry_Int_Tables_number            1
loop_
_symmetry_equiv_pos_as_xyz
   'x, y, z'
                         
loop_
_atom_site_label
_atom_site_type_symbol
_atom_site_fract_x 
_atom_site_fract_y
_atom_site_fract_z
_atom_site_charge
Zn Zn 0.135376 0.187873 0.380408 0.90689
Zn Zn 0.145213 0.181499 0.428094 0.90689
Zn Zn 0.374822 0.311621 0.131918 0.90689
Zn Zn 0.362743 0.31789 0.180589 0.90689
H_ H_ 0.308998 0.172604 0.448682 0.11455
H_ H_ 0.383654 0.179305 0.35034 0.11455
H_ H_ 0.29583 0.193608 0.357453 0.11455
H_ H_ 0.398589 0.168292 0.468163 0.11455
H_ H_ 0.488465 0.168129 0.460138 0.11455
H_ H_ 0.467283 0.174043 0.37141 0.11455
H_ H_ 0.157361 0.0146177 0.441756 0.11455
H_ H_ 0.178209 0.441985 0.348113 0.11455
H_ H_ 0.113148 0.026132 0.351953 0.11455
H_ H_ 0.115909 0.432143 0.462795 0.11455
H_ H_ 0.120076 0.337972 0.45903 0.11455
H_ H_ 0.162463 0.352308 0.370598 0.11455
H_ H_ 0.0849499 0.109051 0.464499 0.11455
H_ H_ 0.0733926 0.0774093 0.0190258 0.11455
H_ H_ 0.101576 0.129085 0.0563545 0.11455
H_ H_ 0.200403 0.247029 0.472787 0.11455
H_ H_ 0.201058 0.315446 0.0139663 0.11455
H_ H_ 0.169805 0.295632 0.0632558 0.11455
H_ H_ 0.0125299 0.222378 0.129797 0.11455
H_ H_ 0.00785722 0.222919 0.180644 0.11455
H_ H_ 0.259265 0.166049 0.134096 0.11455
H_ H_ 0.251744 0.138199 0.181892 0.11455
H_ H_ 0.0867058 0.087272 0.251224 0.11455
H_ H_ 0.058005 0.0712968 0.300154 0.11455
H_ H_ 0.0735362 0.12898 0.336527 0.11455
H_ H_ 0.183639 0.242099 0.25664 0.11455
H_ H_ 0.221986 0.279873 0.296377 0.11455
H_ H_ 0.197327 0.264723 0.346329 0.11455
H_ H_ 0.197962 0.289406 0.194633 0.11455
H_ H_ 0.130544 0.338249 0.0978905 0.11455
H_ H_ 0.21643 0.33999 0.10618 0.11455
H_ H_ 0.110281 0.303722 0.21593 0.11455
H_ H_ 0.0194597 0.3229 0.209697 0.11455
H_ H_ 0.0408161 0.333103 0.121364 0.11455
H_ H_ 0.36322 0.489147 0.196116 0.11455
H_ H_ 0.369257 0.0650629 0.0955557 0.11455
H_ H_ 0.338151 0.46606 0.106263 0.11455
H_ H_ 0.380925 0.0657321 0.213898 0.11455
H_ H_ 0.374471 0.160145 0.211533 0.11455
H_ H_ 0.3737 0.148271 0.120081 0.11455
H_ H_ 0.430034 0.392296 0.212248 0.11455
H_ H_ 0.458201 0.41961 0.259526 0.11455
H_ H_ 0.41945 0.374505 0.304225 0.11455
H_ H_ 0.313244 0.26029 0.226502 0.11455
H_ H_ 0.27906 0.20917 0.266595 0.11455
H_ H_ 0.320561 0.221033 0.315584 0.11455
H_ H_ 0.503215 0.287979 0.377228 0.11455
H_ H_ 0.507048 0.274981 0.431681 0.11455
H_ H_ 0.254692 0.339218 0.386071 0.11455
H_ H_ 0.258926 0.339738 0.43835 0.11455
H_ H_ 0.413053 0.412168 0.503379 0.11455
H_ H_ 0.450638 0.437476 0.0495431 0.11455
H_ H_ 0.425597 0.377191 0.0885432 0.11455
H_ H_ 0.340045 0.254485 0.00685562 0.11455
H_ H_ 0.296754 0.212332 0.0482616 0.11455
H_ H_ 0.317632 0.240199 0.0988583 0.11455
C_ C_ 0.236746 0.184301 0.40733 0.68181
C_ C_ 0.293502 0.175112 0.403073 -0.05681
C_ C_ 0.325837 0.174476 0.42741 -0.08735
C_ C_ 0.378721 0.171286 0.423247 -0.05681
C_ C_ 0.398557 0.169451 0.39527 -0.05681
C_ C_ 0.36695 0.175451 0.371475 -0.08735
C_ C_ 0.315494 0.182215 0.375659 -0.08735
C_ C_ 0.411854 0.166928 0.44629 -0.08735
C_ C_ 0.463043 0.162675 0.442409 -0.08735
C_ C_ 0.486338 0.160622 0.414574 -0.05681
C_ C_ 0.452583 0.164695 0.391145 -0.08735
C_ C_ 0.132356 0.282323 0.410435 0.68181
C_ C_ 0.139438 0.0865824 0.397649 0.68181
C_ C_ 0.136469 0.0298023 0.396201 -0.05681
C_ C_ 0.134273 0.497095 0.421337 -0.08735
C_ C_ 0.134246 0.443944 0.41905 -0.05681
C_ C_ 0.150331 0.422703 0.39319 -0.05681
C_ C_ 0.163911 0.453599 0.369609 -0.08735
C_ C_ 0.162233 0.507461 0.371508 -0.08735
C_ C_ 0.126353 0.413736 0.443077 -0.08735
C_ C_ 0.127313 0.361071 0.440123 -0.08735
C_ C_ 0.13914 0.337602 0.413609 -0.05681
C_ C_ 0.151867 0.368606 0.390492 -0.08735
C_ C_ 0.0416034 0.184009 0.404165 0.68181
C_ C_ 0.0996571 0.133307 0.481993 0.1947
C_ C_ 0.0909947 0.114721 0.013302 -0.08735
C_ C_ 0.107145 0.144753 0.0353884 -0.08735
C_ C_ 0.135836 0.186911 0.0303062 -0.05681
C_ C_ 0.147724 0.200587 1.00153264 0.18498
C_ C_ 0.191611 0.237964 0.493651 -0.08735
C_ C_ 0.183854 0.279764 0.0195057 -0.08735
C_ C_ 0.169076 0.267297 0.0463887 -0.08735
C_ C_ 0.149931 0.219522 0.0522634 0.18498
C_ C_ 0.182307 0.186614 0.0966793 0.44287
C_ C_ 0.0975282 0.21231 0.0956776 0.44287
C_ C_ 0.0917948 0.203104 0.125797 -0.05681
C_ C_ 0.0460436 0.211766 0.14128 -0.08735
C_ C_ 0.0433757 0.207443 0.170861 -0.08735
C_ C_ 0.0857781 0.194706 0.186737 -0.05681
C_ C_ 0.13346 0.184387 0.172093 -0.05681
C_ C_ 0.135488 0.189789 0.14159 -0.05681
C_ C_ 0.180928 0.180616 0.126403 -0.05681
C_ C_ 0.221625 0.162979 0.141674 -0.08735
C_ C_ 0.219968 0.156476 0.171615 -0.08735
C_ C_ 0.174605 0.167235 0.186942 -0.05681
C_ C_ 0.173521 0.167735 0.217068 0.44287
C_ C_ 0.0843265 0.186153 0.21668 0.44287
C_ C_ 0.123431 0.156803 0.260842 0.18498
C_ C_ 0.0992167 0.10824 0.268094 -0.08735
C_ C_ 0.083735 0.0987921 0.295623 -0.08735
C_ C_ 0.0963017 0.131825 0.317516 -0.08735
C_ C_ 0.128041 0.173567 0.312418 0.18498
C_ C_ 0.142723 0.186204 0.283042 -0.05681
C_ C_ 0.169625 0.231618 0.277381 -0.08735
C_ C_ 0.18893 0.256796 0.299825 -0.08735
C_ C_ 0.176275 0.244559 0.328624 0.1947
C_ C_ 0.269545 0.31034 0.155841 0.68181
C_ C_ 0.212908 0.309269 0.150087 -0.05681
C_ C_ 0.181817 0.299641 0.173461 -0.08735
C_ C_ 0.129327 0.312321 0.170368 -0.05681
C_ C_ 0.108746 0.324222 0.14314 -0.05681
C_ C_ 0.140731 0.329827 0.119927 -0.08735
C_ C_ 0.192652 0.325482 0.123599 -0.08735
C_ C_ 0.0961512 0.315378 0.195352 -0.08735
C_ C_ 0.0446626 0.322883 0.19098 -0.08735
C_ C_ 0.0220769 0.324642 0.164038 -0.05681
C_ C_ 0.0550067 0.323585 0.140547 -0.08735
C_ C_ 0.370092 0.216542 0.16295 0.68181
C_ C_ 0.356931 0.413343 0.151863 0.68181
C_ C_ 0.356236 0.468875 0.149768 -0.05681
C_ C_ 0.361818 0.00285514 0.170769 -0.08735
C_ C_ 0.370412 0.0541515 0.168123 -0.05681
C_ C_ 0.374235 0.0771448 0.141186 -0.05681
C_ C_ 0.368722 0.0466907 0.115984 -0.08735
C_ C_ 0.345552 0.490914 0.123039 -0.08735
C_ C_ 0.376015 0.0839937 0.193263 -0.08735
C_ C_ 0.377487 0.137663 0.191465 -0.08735
C_ C_ 0.371539 0.160376 0.165199 -0.05681
C_ C_ 0.373074 0.130687 0.139711 -0.08735
C_ C_ 0.467782 0.320072 0.157999 0.68181
C_ C_ 0.414015 0.371706 0.231167 0.1947
C_ C_ 0.429312 0.388872 0.258747 -0.08735
C_ C_ 0.409277 0.363213 0.282899 -0.08735
C_ C_ 0.374321 0.32342 0.280717 -0.05681
C_ C_ 0.363308 0.307523 0.252004 0.18498
C_ C_ 0.324612 0.271071 0.24888 -0.08735
C_ C_ 0.309427 0.239785 0.271573 -0.08735
C_ C_ 0.331117 0.246278 0.297648 -0.08735
C_ C_ 0.361107 0.289773 0.304088 0.18498
C_ C_ 0.332072 0.323361 0.349035 0.44287
C_ C_ 0.41585 0.293654 0.345951 0.44287
C_ C_ 0.422701 0.29914 0.375983 -0.05681
C_ C_ 0.468577 0.292336 0.38959 -0.08735
C_ C_ 0.470551 0.2912 0.419867 -0.08735
C_ C_ 0.429122 0.303776 0.436855 -0.05681
C_ C_ 0.383997 0.312213 0.42298 -0.05681
C_ C_ 0.380009 0.310529 0.392374 -0.05681
C_ C_ 0.333407 0.326278 0.379187 -0.05681
C_ C_ 0.289623 0.331543 0.396952 -0.08735
C_ C_ 0.292116 0.330863 0.426061 -0.08735
C_ C_ 0.339737 0.323465 0.438788 -0.05681
C_ C_ 0.343493 0.32537 0.468733 0.44287
C_ C_ 0.432761 0.313296 0.466162 0.44287
C_ C_ 0.383677 0.349626 0.0114906 0.18498
C_ C_ 0.405426 0.397284 0.0188203 -0.08735
C_ C_ 0.42097 0.408304 0.0464641 -0.08735
C_ C_ 0.406993 0.374797 0.0682701 -0.08735
C_ C_ 0.379228 0.329581 0.0635481 0.18498
C_ C_ 0.370707 0.316491 0.0348749 -0.05681
C_ C_ 0.345546 0.269225 0.0289916 -0.08735
C_ C_ 0.321376 0.244778 0.0526137 -0.08735
C_ C_ 0.333708 0.259509 0.0806969 0.1947
N_ N_ 0.134421 0.170573 0.476791 -0.29468
N_ N_ 0.142262 0.20515 0.0820443 -0.17154
N_ N_ 0.127425 0.171761 0.230293 -0.17154
N_ N_ 0.147083 0.201878 0.333898 -0.29468
N_ N_ 0.382337 0.331858 0.228113 -0.29468
N_ N_ 0.370176 0.303045 0.333694 -0.17154
N_ N_ 0.38894 0.32098 0.482166 -0.17154
N_ N_ 0.365537 0.297806 0.0848053 -0.29468
O_ O_ 0.221559 0.192229 0.432246 -0.58347
O_ O_ 0.210064 0.189026 0.385579 -0.58347
O_ O_ 0.134986 0.254016 0.431745 -0.58347
O_ O_ 0.128503 0.262172 0.385597 -0.58347
O_ O_ 0.14325 0.105321 0.421913 -0.58347
O_ O_ 0.141311 0.1123 0.374619 -0.58347
O_ O_ 0.0699412 0.174649 0.425733 -0.58347
O_ O_ 0.0604501 0.188116 0.379275 -0.58347
O_ O_ 0.0575708 0.226382 0.0813717 -0.46727
O_ O_ 0.226699 0.189089 0.0841659 -0.46727
O_ O_ 0.0406554 0.18542 0.231796 -0.46727
O_ O_ 0.215893 0.155485 0.23212 -0.46727
O_ O_ 0.287272 0.314631 0.181126 -0.58347
O_ O_ 0.298769 0.300337 0.135711 -0.58347
O_ O_ 0.365298 0.244479 0.18517 -0.58347
O_ O_ 0.379839 0.237519 0.138026 -0.58347
O_ O_ 0.359978 0.394015 0.176183 -0.58347
O_ O_ 0.36143 0.386414 0.129318 -0.58347
O_ O_ 0.439022 0.313787 0.179483 -0.58347
O_ O_ 0.449282 0.327889 0.13282 -0.58347
O_ O_ 0.452557 0.27213 0.330992 -0.46727
O_ O_ 0.288666 0.327162 0.335404 -0.46727
O_ O_ 0.473234 0.302162 0.479981 -0.46727
O_ O_ 0.301966 0.330288 0.48472 -0.46727
Zn Zn 0.125331 0.19411 0.882463 0.90689
Zn Zn 0.130773 0.183445 0.930442 0.90689
Zn Zn 0.379022 0.311361 0.632963 0.90689
Zn Zn 0.370206 0.316294 0.681286 0.90689
H_ H_ 0.304145 0.197075 0.94856 0.11455
H_ H_ 0.366269 0.171735 0.849335 0.11455
H_ H_ 0.279678 0.184883 0.856491 0.11455
H_ H_ 0.39118 0.179315 0.964284 0.11455
H_ H_ 0.479865 0.198752 0.957444 0.11455
H_ H_ 0.458426 0.185791 0.865993 0.11455
H_ H_ 0.118826 0.023336 0.941957 0.11455
H_ H_ 0.103593 0.43776 0.850963 0.11455
H_ H_ 0.123233 0.0339558 0.849865 0.11455
H_ H_ 0.117353 0.432187 0.969302 0.11455
H_ H_ 0.109772 0.342072 0.961774 0.11455
H_ H_ 0.107951 0.355314 0.871383 0.11455
H_ H_ 0.0849097 0.109992 0.967895 0.11455
H_ H_ 0.0672093 0.0832897 0.514348 0.11455
H_ H_ 0.100818 0.130184 0.553629 0.11455
H_ H_ 0.189893 0.255053 0.974758 0.11455
H_ H_ 0.223129 0.304562 0.514146 0.11455
H_ H_ 0.211981 0.27583 0.563156 0.11455
H_ H_ 0.0124028 0.216313 0.622578 0.11455
H_ H_ -0.0048960000000000115 0.188368 0.67096 0.11455
H_ H_ 0.255445 0.162793 0.640259 0.11455
H_ H_ 0.23833 0.150574 0.690362 0.11455
H_ H_ 0.0474483 0.101788 0.752103 0.11455
H_ H_ 0.0196911 0.0893072 0.801614 0.11455
H_ H_ 0.0552759 0.144413 0.840671 0.11455
H_ H_ 0.155163 0.251516 0.756539 0.11455
H_ H_ 0.205074 0.29141 0.797171 0.11455
H_ H_ 0.195377 0.255804 0.846938 0.11455
H_ H_ 0.197987 0.288608 0.692812 0.11455
H_ H_ 0.132776 0.349708 0.599357 0.11455
H_ H_ 0.225501 0.349362 0.609451 0.11455
H_ H_ 0.109939 0.299848 0.711868 0.11455
H_ H_ 0.0186587 0.305259 0.704807 0.11455
H_ H_ 0.0455556 0.33662 0.613097 0.11455
H_ H_ 0.352698 0.4811 0.692037 0.11455
H_ H_ 0.320217 0.0591287 0.603766 0.11455
H_ H_ 0.380321 0.46923 0.600186 0.11455
H_ H_ 0.417012 0.0613001 0.709309 0.11455
H_ H_ 0.412311 0.158056 0.706703 0.11455
H_ H_ 0.33318 0.143601 0.624795 0.11455
H_ H_ 0.413849 0.406254 0.718971 0.11455
H_ H_ 0.421038 0.438606 0.765237 0.11455
H_ H_ 0.391985 0.387873 0.805624 0.11455
H_ H_ 0.32449 0.249185 0.725908 0.11455
H_ H_ 0.299274 0.194832 0.765678 0.11455
H_ H_ 0.322168 0.221222 0.815272 0.11455
H_ H_ 0.484809 0.292416 0.878055 0.11455
H_ H_ 0.498046 0.315477 0.928353 0.11455
H_ H_ 0.234976 0.340972 0.884628 0.11455
H_ H_ 0.246411 0.35359 0.937433 0.11455
H_ H_ 0.413982 0.426656 0.0017000000000000348 0.11455
H_ H_ 0.452814 0.427767 0.550176 0.11455
H_ H_ 0.43992 0.370361 0.588941 0.11455
H_ H_ 0.349234 0.240558 0.510792 0.11455
H_ H_ 0.317057 0.195017 0.552957 0.11455
H_ H_ 0.314152 0.236344 0.599314 0.11455
C_ C_ 0.228438 0.187953 0.905483 0.68181
C_ C_ 0.28498 0.191019 0.903247 -0.05681
C_ C_ 0.318097 0.193638 0.926825 -0.08735
C_ C_ 0.370619 0.188447 0.921712 -0.05681
C_ C_ 0.389429 0.181964 0.893341 -0.05681
C_ C_ 0.355588 0.183227 0.870648 -0.08735
C_ C_ 0.304625 0.187807 0.875123 -0.08735
C_ C_ 0.405329 0.18881 0.943736 -0.08735
C_ C_ 0.458343 0.187794 0.938738 -0.08735
C_ C_ 0.478242 0.188769 0.91168 -0.05681
C_ C_ 0.443035 0.186761 0.888607 -0.08735
C_ C_ 0.123801 0.284199 0.91299 0.68181
C_ C_ 0.128178 0.0898715 0.899166 0.68181
C_ C_ 0.121929 0.0338594 0.897552 -0.05681
C_ C_ 0.123362 0.501916 0.925434 -0.08735
C_ C_ 0.121095 0.44717 0.92278 -0.05681
C_ C_ 0.113075 0.42517 0.895974 -0.05681
C_ C_ 0.106831 0.454299 0.87124 -0.08735
C_ C_ 0.106692 0.506351 0.872849 -0.08735
C_ C_ 0.119961 0.414768 0.947075 -0.08735
C_ C_ 0.117948 0.364099 0.944275 -0.08735
C_ C_ 0.119316 0.341483 0.91707 -0.05681
C_ C_ 0.113043 0.372828 0.892683 -0.08735
C_ C_ 0.031551 0.180458 0.905884 0.68181
C_ C_ 0.0995235 0.131444 0.985577 0.1947
C_ C_ 0.0882767 0.118511 0.509739 -0.08735
C_ C_ 0.110289 0.143858 0.53216 -0.08735
C_ C_ 0.143905 0.184693 0.528102 -0.05681
C_ C_ 0.156136 0.198054 0.499375 0.18498
C_ C_ 0.172655 0.247692 0.996291 -0.08735
C_ C_ 0.21121 0.266529 0.517033 -0.08735
C_ C_ 0.202335 0.249988 0.54504 -0.08735
C_ C_ 0.168087 0.211655 0.551858 0.18498
C_ C_ 0.19131 0.187384 0.60159 0.44287
C_ C_ 0.10738 0.212436 0.59277 0.44287
C_ C_ 0.0942949 0.200563 0.62225 -0.05681
C_ C_ 0.0431425 0.199527 0.633894 -0.08735
C_ C_ 0.0339205 0.19213 0.663791 -0.08735
C_ C_ 0.0717771 0.183604 0.682826 -0.05681
C_ C_ 0.121946 0.187654 0.671387 -0.05681
C_ C_ 0.132035 0.188951 0.641814 -0.05681
C_ C_ 0.182121 0.182256 0.630775 -0.05681
C_ C_ 0.220727 0.171255 0.649744 -0.08735
C_ C_ 0.211971 0.167561 0.678646 -0.08735
C_ C_ 0.163815 0.177822 0.690837 -0.05681
C_ C_ 0.153809 0.169703 0.720415 0.44287
C_ C_ 0.0654823 0.1788 0.712604 0.44287
C_ C_ 0.0935711 0.168816 0.761156 0.18498
C_ C_ 0.0632355 0.125633 0.769219 -0.08735
C_ C_ 0.0458759 0.119587 0.797551 -0.08735
C_ C_ 0.0706414 0.145406 0.819616 -0.08735
C_ C_ 0.106594 0.184915 0.812986 0.18498
C_ C_ 0.118002 0.196876 0.783073 -0.05681
C_ C_ 0.152513 0.235973 0.777751 -0.08735
C_ C_ 0.176344 0.261027 0.800948 -0.08735
C_ C_ 0.17307 0.241242 0.828818 0.1947
C_ C_ 0.276145 0.306685 0.654522 0.68181
C_ C_ 0.218872 0.313881 0.6513 -0.05681
C_ C_ 0.183499 0.302205 0.672856 -0.08735
C_ C_ 0.13 0.307223 0.667625 -0.05681
C_ C_ 0.110046 0.31911 0.640794 -0.05681
C_ C_ 0.145826 0.334573 0.619822 -0.08735
C_ C_ 0.199187 0.334321 0.626174 -0.08735
C_ C_ 0.0967305 0.307492 0.690899 -0.08735
C_ C_ 0.044668 0.306382 0.686271 -0.08735
C_ C_ 0.0247284 0.315169 0.6582 -0.05681
C_ C_ 0.056843 0.323392 0.634873 -0.08735
C_ C_ 0.376195 0.21459 0.663559 0.68181
C_ C_ 0.369423 0.41135 0.650284 0.68181
C_ C_ 0.364903 0.468163 0.646467 -0.05681
C_ C_ 0.382632 -0.002047000000000021 0.671461 -0.08735
C_ C_ 0.379841 0.0503714 0.669665 -0.05681
C_ C_ 0.35959 0.073675 0.64418 -0.05681
C_ C_ 0.334514 0.0423764 0.623181 -0.08735
C_ C_ 0.376696 0.490962 0.620022 -0.08735
C_ C_ 0.399433 0.0808601 0.691051 -0.08735
C_ C_ 0.39653 0.13406 0.689363 -0.08735
C_ C_ 0.376412 0.157904 0.664439 -0.05681
C_ C_ 0.353383 0.126073 0.643134 -0.08735
C_ C_ 0.472783 0.31683 0.659772 0.68181
C_ C_ 0.392173 0.386091 0.734081 0.1947
C_ C_ 0.393981 0.405743 0.761177 -0.08735
C_ C_ 0.378358 0.376053 0.784756 -0.08735
C_ C_ 0.356413 0.328426 0.780575 -0.05681
C_ C_ 0.354911 0.309964 0.751525 0.18498
C_ C_ 0.333407 0.262769 0.746616 -0.08735
C_ C_ 0.320251 0.232196 0.769626 -0.08735
C_ C_ 0.326004 0.24785 0.798363 -0.08735
C_ C_ 0.348493 0.29532 0.80368 0.18498
C_ C_ 0.312539 0.321811 0.848071 0.44287
C_ C_ 0.400128 0.300864 0.845947 0.44287
C_ C_ 0.405083 0.31048 0.875322 -0.05681
C_ C_ 0.452311 0.307151 0.889172 -0.08735
C_ C_ 0.458097 0.316905 0.917677 -0.08735
C_ C_ 0.416504 0.321237 0.934434 -0.05681
C_ C_ 0.367849 0.325783 0.921156 -0.05681
C_ C_ 0.361512 0.319286 0.891073 -0.05681
C_ C_ 0.314754 0.325009 0.878331 -0.05681
C_ C_ 0.271898 0.335213 0.895243 -0.08735
C_ C_ 0.278767 0.347594 0.924052 -0.08735
C_ C_ 0.324207 0.337551 0.93848 -0.05681
C_ C_ 0.33126 0.340858 0.968108 0.44287
C_ C_ 0.421411 0.325864 0.964458 0.44287
C_ C_ 0.391263 0.33573 0.512368 0.18498
C_ C_ 0.41154 0.382348 0.519835 -0.08735
C_ C_ 0.433086 0.391406 0.546139 -0.08735
C_ C_ 0.423836 0.356833 0.568363 -0.08735
C_ C_ 0.392656 0.314841 0.563804 0.18498
C_ C_ 0.381889 0.298947 0.535146 -0.05681
C_ C_ 0.354574 0.255341 0.531485 -0.08735
C_ C_ 0.333464 0.231181 0.555316 -0.08735
C_ C_ 0.335927 0.253858 0.582855 0.1947
N_ N_ 0.129279 0.171935 0.979528 -0.29468
N_ N_ 0.154987 0.202745 0.582509 -0.17154
N_ N_ 0.106945 0.175549 0.730402 -0.17154
N_ N_ 0.132915 0.210725 0.834596 -0.29468
N_ N_ 0.374622 0.337964 0.72945 -0.29468
N_ N_ 0.355445 0.312952 0.832613 -0.17154
N_ N_ 0.378666 0.336922 0.980815 -0.17154
N_ N_ 0.369323 0.294403 0.586471 -0.29468
O_ O_ 0.206266 0.198348 0.929264 -0.58347
O_ O_ 0.20142 0.180496 0.882795 -0.58347
O_ O_ 0.119631 0.255718 0.935427 -0.58347
O_ O_ 0.136533 0.266867 0.888266 -0.58347
O_ O_ 0.145548 0.109788 0.920541 -0.58347
O_ O_ 0.115495 0.117321 0.877685 -0.58347
O_ O_ 0.0616802 0.166511 0.925634 -0.58347
O_ O_ 0.0495351 0.200488 0.88368 -0.58347
O_ O_ 0.0718349 0.231897 0.575598 -0.46727
O_ O_ 0.239772 0.183491 0.592972 -0.46727
O_ O_ 0.0191929 0.188428 0.72338 -0.46727
O_ O_ 0.191088 0.156501 0.737481 -0.46727
O_ O_ 0.294472 0.306199 0.679385 -0.58347
O_ O_ 0.305124 0.318786 0.633785 -0.58347
O_ O_ 0.37844 0.241316 0.685655 -0.58347
O_ O_ 0.370181 0.234563 0.64051 -0.58347
O_ O_ 0.366033 0.392031 0.675813 -0.58347
O_ O_ 0.380334 0.384965 0.628771 -0.58347
O_ O_ 0.445246 0.330203 0.68034 -0.58347
O_ O_ 0.45401 0.305289 0.636495 -0.58347
O_ O_ 0.439352 0.288057 0.831188 -0.46727
O_ O_ 0.269356 0.323929 0.83611 -0.46727
O_ O_ 0.466568 0.333294 0.976102 -0.46727
O_ O_ 0.291478 0.346941 0.984712 -0.46727
Zn Zn 0.131936 0.687083 0.380923 0.90689
Zn Zn 0.139346 0.68281 0.43057 0.90689
Zn Zn 0.361063 0.815591 0.13013 0.90689
Zn Zn 0.35406 0.819683 0.177985 0.90689
H_ H_ 0.310463 0.689346 0.444983 0.11455
H_ H_ 0.377368 0.670795 0.346143 0.11455
H_ H_ 0.288179 0.678494 0.354044 0.11455
H_ H_ 0.397617 0.694423 0.460469 0.11455
H_ H_ 0.488017 0.671334 0.456075 0.11455
H_ H_ 0.459157 0.672256 0.363021 0.11455
H_ H_ 0.13787 0.512608 0.44202 0.11455
H_ H_ 0.126736 0.937819 0.346671 0.11455
H_ H_ 0.175929 0.533407 0.355278 0.11455
H_ H_ 0.154262 0.933677 0.463822 0.11455
H_ H_ 0.165203 0.842431 0.457164 0.11455
H_ H_ 0.134365 0.854963 0.366453 0.11455
H_ H_ 0.0882136 0.600731 0.465473 0.11455
H_ H_ 0.0577447 0.580739 0.0162489 0.11455
H_ H_ 0.108256 0.617506 0.0554371 0.11455
H_ H_ 0.195224 0.740185 0.470853 0.11455
H_ H_ 0.211915 0.801148 0.00771987 0.11455
H_ H_ 0.191132 0.78337 0.0594799 0.11455
H_ H_ 0.00709219 0.709371 0.121501 0.11455
H_ H_ -0.0030010000000000314 0.693398 0.174853 0.11455
H_ H_ 0.258299 0.695652 0.134077 0.11455
H_ H_ 0.252281 0.671352 0.186207 0.11455
H_ H_ 0.0879334 0.584671 0.247987 0.11455
H_ H_ 0.0637741 0.557013 0.298428 0.11455
H_ H_ 0.0837376 0.61977 0.338036 0.11455
H_ H_ 0.157963 0.755207 0.257069 0.11455
H_ H_ 0.195997 0.798429 0.29898 0.11455
H_ H_ 0.183577 0.761436 0.348034 0.11455
H_ H_ 0.186317 0.795767 0.192834 0.11455
H_ H_ 0.116045 0.83292 0.0973231 0.11455
H_ H_ 0.210731 0.827987 0.102797 0.11455
H_ H_ 0.101094 0.791535 0.210998 0.11455
H_ H_ 0.00878179 0.805623 0.207493 0.11455
H_ H_ 0.0292468 0.82065 0.115468 0.11455
H_ H_ 0.349214 0.988612 0.191047 0.11455
H_ H_ 0.347113 0.557219 0.0974938 0.11455
H_ H_ 0.368903 0.972047 0.0998386 0.11455
H_ H_ 0.384877 0.572347 0.214705 0.11455
H_ H_ 0.394842 0.662 0.207238 0.11455
H_ H_ 0.34291 0.64624 0.118965 0.11455
H_ H_ 0.41154 0.887512 0.214189 0.11455
H_ H_ 0.435952 0.913685 0.262269 0.11455
H_ H_ 0.408493 0.863763 0.30594 0.11455
H_ H_ 0.313519 0.742095 0.224391 0.11455
H_ H_ 0.303087 0.68284 0.262589 0.11455
H_ H_ 0.329818 0.700362 0.310194 0.11455
H_ H_ 0.494842 0.767444 0.372549 0.11455
H_ H_ 0.508332 0.795708 0.422473 0.11455
H_ H_ 0.251182 0.843203 0.383403 0.11455
H_ H_ 0.261929 0.84827 0.436668 0.11455
H_ H_ 0.438485 0.91261 0.496195 0.11455
H_ H_ 0.459026 0.934833 0.0513509 0.11455
H_ H_ 0.421348 0.881158 0.0887647 0.11455
H_ H_ 0.344302 0.760975 0.0010135 0.11455
H_ H_ 0.309894 0.70656 0.0390821 0.11455
H_ H_ 0.329489 0.733489 0.0916897 0.11455
C_ C_ 0.235139 0.690308 0.405342 0.68181
C_ C_ 0.29052 0.685442 0.400502 -0.05681
C_ C_ 0.324919 0.684551 0.423298 -0.08735
C_ C_ 0.376893 0.684236 0.418291 -0.05681
C_ C_ 0.396853 0.676568 0.39076 -0.05681
C_ C_ 0.363826 0.676512 0.367745 -0.08735
C_ C_ 0.311161 0.67858 0.372404 -0.08735
C_ C_ 0.411467 0.680532 0.440893 -0.08735
C_ C_ 0.463172 0.67546 0.436694 -0.08735
C_ C_ 0.481496 0.674275 0.408881 -0.05681
C_ C_ 0.446431 0.67197 0.385972 -0.08735
C_ C_ 0.133859 0.782988 0.411867 0.68181
C_ C_ 0.14165 0.586551 0.40039 0.68181
C_ C_ 0.145623 0.529967 0.397803 -0.05681
C_ C_ 0.147083 0.998564 0.420359 -0.08735
C_ C_ 0.139344 0.946176 0.418527 -0.05681
C_ C_ 0.134253 0.923831 0.391462 -0.05681
C_ C_ 0.12548 0.953663 0.367615 -0.08735
C_ C_ 0.123532 1.00569975 0.37027 -0.08735
C_ C_ 0.145649 0.91575 0.443555 -0.08735
C_ C_ 0.152446 0.863723 0.439243 -0.08735
C_ C_ 0.137771 0.839574 0.414193 -0.05681
C_ C_ 0.135105 0.871453 0.389379 -0.08735
C_ C_ 0.0353367 0.674199 0.405811 0.68181
C_ C_ 0.108297 0.619365 0.482948 0.1947
C_ C_ 0.0820953 0.610113 0.0106653 -0.08735
C_ C_ 0.108385 0.63208 0.0336446 -0.08735
C_ C_ 0.135665 0.678223 0.0274449 -0.05681
C_ C_ 0.142511 0.692332 0.999145 0.18498
C_ C_ 0.18809 0.730166 0.492317 -0.08735
C_ C_ 0.189155 0.767601 0.0134579 -0.08735
C_ C_ 0.176935 0.756539 0.0420267 -0.08735
C_ C_ 0.149473 0.712694 0.0488581 0.18498
C_ C_ 0.181126 0.686363 0.0951041 0.44287
C_ C_ 0.0952252 0.705682 0.0918729 0.44287
C_ C_ 0.0875993 0.692147 0.121432 -0.05681
C_ C_ 0.039733 0.700049 0.135695 -0.08735
C_ C_ 0.0346046 0.690229 0.165249 -0.08735
C_ C_ 0.0775241 0.682697 0.182701 -0.05681
C_ C_ 0.124534 0.680999 0.168098 -0.05681
C_ C_ 0.130233 0.683529 0.137734 -0.05681
C_ C_ 0.179351 0.68393 0.124684 -0.05681
C_ C_ 0.222711 0.682566 0.142901 -0.08735
C_ C_ 0.21621 0.676091 0.172772 -0.08735
C_ C_ 0.168334 0.676669 0.185042 -0.05681
C_ C_ 0.163082 0.673206 0.214917 0.44287
C_ C_ 0.0743156 0.678189 0.211288 0.44287
C_ C_ 0.114303 0.659824 0.258718 0.18498
C_ C_ 0.0957059 0.610273 0.264603 -0.08735
C_ C_ 0.0811789 0.596125 0.293667 -0.08735
C_ C_ 0.0881533 0.631146 0.315942 -0.08735
C_ C_ 0.110879 0.678056 0.310804 0.18498
C_ C_ 0.125432 0.693118 0.282285 -0.05681
C_ C_ 0.151864 0.739549 0.278089 -0.08735
C_ C_ 0.166449 0.768988 0.301933 -0.08735
C_ C_ 0.162044 0.745274 0.32901 0.1947
C_ C_ 0.260247 0.814675 0.153223 0.68181
C_ C_ 0.20569 0.813385 0.14923 -0.05681
C_ C_ 0.172592 0.806089 0.172266 -0.08735
C_ C_ 0.119808 0.810616 0.168122 -0.05681
C_ C_ 0.0996786 0.819378 0.14019 -0.05681
C_ C_ 0.130884 0.824298 0.118329 -0.08735
C_ C_ 0.186032 0.824003 0.121506 -0.08735
C_ C_ 0.0871272 0.809063 0.191973 -0.08735
C_ C_ 0.0340682 0.813797 0.187472 -0.08735
C_ C_ 0.0145625 0.821991 0.160724 -0.05681
C_ C_ 0.0460723 0.821055 0.136461 -0.08735
C_ C_ 0.362607 0.717345 0.159686 0.68181
C_ C_ 0.358367 0.915362 0.148398 0.68181
C_ C_ 0.363621 0.971709 0.146175 -0.05681
C_ C_ 0.363972 0.502608 0.173567 -0.08735
C_ C_ 0.367522 0.554948 0.169837 -0.05681
C_ C_ 0.357854 0.575696 0.142234 -0.05681
C_ C_ 0.346552 0.54461 0.118768 -0.08735
C_ C_ 0.364627 -0.005503000000000036 0.119298 -0.08735
C_ C_ 0.383099 0.587433 0.192693 -0.08735
C_ C_ 0.385189 0.64007 0.188525 -0.08735
C_ C_ 0.369973 0.661616 0.161645 -0.05681
C_ C_ 0.356373 0.627738 0.138605 -0.08735
C_ C_ 0.457307 0.813371 0.153397 0.68181
C_ C_ 0.394443 0.868699 0.232422 0.1947
C_ C_ 0.410277 0.880449 0.261246 -0.08735
C_ C_ 0.394789 0.852117 0.284719 -0.08735
C_ C_ 0.366851 0.808815 0.278962 -0.05681
C_ C_ 0.350494 0.796714 0.249099 0.18498
C_ C_ 0.324702 0.752237 0.24484 -0.08735
C_ C_ 0.312865 0.72006 0.267732 -0.08735
C_ C_ 0.329958 0.730939 0.295018 -0.08735
C_ C_ 0.354251 0.775995 0.301683 0.18498
C_ C_ 0.320742 0.805085 0.345942 0.44287
C_ C_ 0.407983 0.779004 0.343287 0.44287
C_ C_ 0.414177 0.789343 0.372542 -0.05681
C_ C_ 0.462787 0.781355 0.384926 -0.08735
C_ C_ 0.470019 0.792539 0.414037 -0.08735
C_ C_ 0.428794 0.805428 0.432201 -0.05681
C_ C_ 0.381279 0.809851 0.418921 -0.05681
C_ C_ 0.375409 0.806221 0.388934 -0.05681
C_ C_ 0.327952 0.817426 0.375151 -0.05681
C_ C_ 0.287496 0.833799 0.392984 -0.08735
C_ C_ 0.291119 0.83048 0.423158 -0.08735
C_ C_ 0.337872 0.821897 0.436145 -0.05681
C_ C_ 0.344828 0.829952 0.466677 0.44287
C_ C_ 0.432999 0.810288 0.462321 0.44287
C_ C_ 0.389539 0.854171 0.00875594 0.18498
C_ C_ 0.415543 0.897631 0.0168712 -0.08735
C_ C_ 0.428696 0.90691 0.0456517 -0.08735
C_ C_ 0.414392 0.872305 0.0662126 -0.08735
C_ C_ 0.383061 0.830906 0.0596288 0.18498
C_ C_ 0.375787 0.818178 0.0310259 -0.05681
C_ C_ 0.345868 0.775669 0.0233074 -0.08735
C_ C_ 0.329799 0.741824 0.0450914 -0.08735
C_ C_ 0.339872 0.757646 0.0743875 0.1947
N_ N_ 0.135789 0.661481 0.476268 -0.29468
N_ N_ 0.140219 0.699898 0.0791883 -0.17154
N_ N_ 0.116481 0.675166 0.228353 -0.17154
N_ N_ 0.134147 0.702727 0.332728 -0.29468
N_ N_ 0.365412 0.826465 0.227167 -0.29468
N_ N_ 0.361837 0.788815 0.330816 -0.17154
N_ N_ 0.391507 0.826405 0.47896 -0.17154
N_ N_ 0.36241 0.802115 0.0811242 -0.29468
O_ O_ 0.216105 0.689179 0.430592 -0.58347
O_ O_ 0.208512 0.69336 0.383117 -0.58347
O_ O_ 0.134205 0.756675 0.433813 -0.58347
O_ O_ 0.122949 0.763082 0.387278 -0.58347
O_ O_ 0.148988 0.608408 0.424167 -0.58347
O_ O_ 0.135373 0.612607 0.378396 -0.58347
O_ O_ 0.0640079 0.668588 0.427216 -0.58347
O_ O_ 0.055218 0.681278 0.381487 -0.58347
O_ O_ 0.0564546 0.716871 0.0749743 -0.46727
O_ O_ 0.225252 0.67891 0.0832107 -0.46727
O_ O_ 0.0320032 0.68672 0.225266 -0.46727
O_ O_ 0.204782 0.665716 0.230323 -0.46727
O_ O_ 0.27846 0.817599 0.178469 -0.58347
O_ O_ 0.289147 0.813666 0.131598 -0.58347
O_ O_ 0.364719 0.74451 0.181231 -0.58347
O_ O_ 0.361775 0.738433 0.136039 -0.58347
O_ O_ 0.354362 0.894388 0.173092 -0.58347
O_ O_ 0.356011 0.888127 0.125915 -0.58347
O_ O_ 0.429734 0.820391 0.175092 -0.58347
O_ O_ 0.440339 0.817834 0.127736 -0.58347
O_ O_ 0.445914 0.76229 0.328031 -0.46727
O_ O_ 0.275208 0.803087 0.334681 -0.46727
O_ O_ 0.476055 0.803942 0.47438 -0.46727
O_ O_ 0.305322 0.834597 0.484221 -0.46727
Zn Zn 0.117723 0.690824 0.881311 0.90689
Zn Zn 0.128669 0.682923 0.929236 0.90689
Zn Zn 0.375404 0.811576 0.631266 0.90689
Zn Zn 0.364805 0.815666 0.679211 0.90689
H_ H_ 0.29265 0.668 0.946686 0.11455
H_ H_ 0.365588 0.672327 0.848292 0.11455
H_ H_ 0.274687 0.671449 0.856834 0.11455
H_ H_ 0.384439 0.66177 0.967018 0.11455
H_ H_ 0.477856 0.669919 0.958321 0.11455
H_ H_ 0.44906 0.674798 0.867223 0.11455
H_ H_ 0.124646 0.517866 0.946226 0.11455
H_ H_ 0.1129 0.938189 0.847448 0.11455
H_ H_ 0.103379 0.530064 0.854063 0.11455
H_ H_ 0.120776 0.936166 0.966781 0.11455
H_ H_ 0.109055 0.848677 0.961742 0.11455
H_ H_ 0.122043 0.855695 0.870585 0.11455
H_ H_ 0.0759369 0.599056 0.963537 0.11455
H_ H_ 0.0735952 0.571078 0.516554 0.11455
H_ H_ 0.112942 0.61771 0.555157 0.11455
H_ H_ 0.17434 0.745998 0.969976 0.11455
H_ H_ 0.234663 0.792686 0.508708 0.11455
H_ H_ 0.211506 0.773913 0.557809 0.11455
H_ H_ 1.0179301 0.706381 0.616415 0.11455
H_ H_ 1.00713628 0.698732 0.671385 0.11455
H_ H_ 0.265756 0.651437 0.634556 0.11455
H_ H_ 0.256084 0.662162 0.68679 0.11455
H_ H_ 0.0629008 0.595652 0.744538 0.11455
H_ H_ 0.0289199 0.578836 0.794672 0.11455
H_ H_ 0.0558792 0.630977 0.833342 0.11455
H_ H_ 0.178553 0.748231 0.758233 0.11455
H_ H_ 0.186944 0.799986 0.800706 0.11455
H_ H_ 0.180933 0.758579 0.84745 0.11455
H_ H_ 0.19561 0.799197 0.696158 0.11455
H_ H_ 0.126337 0.835355 0.600559 0.11455
H_ H_ 0.217956 0.812783 0.607163 0.11455
H_ H_ 0.110142 0.814161 0.715882 0.11455
H_ H_ 0.0184199 0.810572 0.708049 0.11455
H_ H_ 0.0430313 0.817781 0.619317 0.11455
H_ H_ 0.402422 0.979639 0.689468 0.11455
H_ H_ 0.385903 0.564481 0.596784 0.11455
H_ H_ 0.315185 0.968044 0.611083 0.11455
H_ H_ 0.348324 0.566565 0.713643 0.11455
H_ H_ 0.349245 0.6552 0.708014 0.11455
H_ H_ 0.377327 0.646487 0.61826 0.11455
H_ H_ 0.416785 0.890999 0.717114 0.11455
H_ H_ 0.451651 0.903849 0.763498 0.11455
H_ H_ 0.409199 0.862798 0.80473 0.11455
H_ H_ 0.316325 0.74307 0.721599 0.11455
H_ H_ 0.275117 0.695805 0.761722 0.11455
H_ H_ 0.284011 0.724418 0.812386 0.11455
H_ H_ 0.478098 0.793762 0.872371 0.11455
H_ H_ 0.487805 0.795571 0.924712 0.11455
H_ H_ 0.231275 0.833314 0.886698 0.11455
H_ H_ 0.24223 0.842536 0.938754 0.11455
H_ H_ 0.432492 0.919812 1.00049 0.11455
H_ H_ 0.442322 0.944651 0.542598 0.11455
H_ H_ 0.421119 0.893715 0.584222 0.11455
H_ H_ 0.337533 0.755136 0.506834 0.11455
H_ H_ 0.310803 0.705369 0.547388 0.11455
H_ H_ 0.318908 0.746624 0.596524 0.11455
C_ C_ 0.220803 0.683 0.905551 0.68181
C_ C_ 0.277847 0.681305 0.901774 -0.05681
C_ C_ 0.31045 0.673881 0.925658 -0.08735
C_ C_ 0.363863 0.672463 0.921915 -0.05681
C_ C_ 0.382881 0.669046 0.894148 -0.05681
C_ C_ 0.350114 0.676316 0.870624 -0.08735
C_ C_ 0.297989 0.678641 0.874888 -0.08735
C_ C_ 0.397726 0.668146 0.946048 -0.08735
C_ C_ 0.449683 0.674376 0.941034 -0.08735
C_ C_ 0.468439 0.674052 0.913606 -0.05681
C_ C_ 0.435836 0.668146 0.889616 -0.08735
C_ C_ 0.114237 0.785449 0.912065 0.68181
C_ C_ 0.122097 0.587061 0.902071 0.68181
C_ C_ 0.119026 0.530396 0.900242 -0.05681
C_ C_ 0.11908 1.00361762 0.922267 -0.08735
C_ C_ 0.116542 0.952148 0.920006 -0.05681
C_ C_ 0.118838 0.927958 0.893464 -0.05681
C_ C_ 0.114147 0.955948 0.868038 -0.08735
C_ C_ 0.11637 0.00900183 0.869624 -0.08735
C_ C_ 0.114955 0.920501 0.944474 -0.08735
C_ C_ 0.11055 0.868455 0.942721 -0.08735
C_ C_ 0.115377 0.843675 0.915976 -0.05681
C_ C_ 0.120866 0.874463 0.891707 -0.08735
C_ C_ 0.0237341 0.682311 0.907448 0.68181
C_ C_ 0.0926043 0.621676 0.982193 0.1947
C_ C_ 0.103024 0.600186 0.511579 -0.08735
C_ C_ 0.122447 0.628962 0.533395 -0.08735
C_ C_ 0.145138 0.67674 0.527701 -0.05681
C_ C_ 0.154687 0.689555 0.498546 0.18498
C_ C_ 0.167109 0.737205 0.99163 -0.08735
C_ C_ 0.209725 0.761871 0.513072 -0.08735
C_ C_ 0.199037 0.748259 0.542021 -0.08735
C_ C_ 0.165793 0.709757 0.54972 0.18498
C_ C_ 0.195679 0.683924 0.597525 0.44287
C_ C_ 0.110379 0.706161 0.59123 0.44287
C_ C_ 0.101265 0.697965 0.620319 -0.05681
C_ C_ 0.0514646 0.702627 0.631291 -0.08735
C_ C_ 0.0446377 0.699101 0.661271 -0.08735
C_ C_ 0.0848781 0.688662 0.680567 -0.05681
C_ C_ 0.132989 0.679182 0.66836 -0.05681
C_ C_ 0.141888 0.685332 0.639068 -0.05681
C_ C_ 0.18923 0.678043 0.626511 -0.05681
C_ C_ 0.229039 0.66049 0.643573 -0.08735
C_ C_ 0.222272 0.664694 0.674343 -0.08735
C_ C_ 0.175222 0.671584 0.686722 -0.05681
C_ C_ 0.165927 0.663213 0.715845 0.44287
C_ C_ 0.0785796 0.684679 0.710495 0.44287
C_ C_ 0.110527 0.659219 0.757459 0.18498
C_ C_ 0.0775173 0.616526 0.762396 -0.08735
C_ C_ 0.0570685 0.60907 0.790131 -0.08735
C_ C_ 0.0693599 0.640932 0.812588 -0.08735
C_ C_ 0.105246 0.680025 0.80851 0.18498
C_ C_ 0.123227 0.692992 0.780638 -0.05681
C_ C_ 0.157097 0.73588 0.778165 -0.08735
C_ C_ 0.166313 0.764488 0.802937 -0.08735
C_ C_ 0.158562 0.742878 0.82969 0.1947
C_ C_ 0.271062 0.808241 0.655801 0.68181
C_ C_ 0.214686 0.80748 0.652378 -0.05681
C_ C_ 0.180744 0.806207 0.6761 -0.08735
C_ C_ 0.129004 0.814272 0.672729 -0.05681
C_ C_ 0.110267 0.820876 0.645759 -0.05681
C_ C_ 0.142137 0.823263 0.621802 -0.08735
C_ C_ 0.194598 0.813613 0.625741 -0.08735
C_ C_ 0.0945697 0.811959 0.694635 -0.08735
C_ C_ 0.0423765 0.811741 0.690207 -0.08735
C_ C_ 0.0236484 0.818688 0.663086 -0.05681
C_ C_ 0.0574283 0.822482 0.640996 -0.08735
C_ C_ 0.377709 0.713226 0.66221 0.68181
C_ C_ 0.363549 0.911709 0.650096 0.68181
C_ C_ 0.363117 0.967474 0.647959 -0.05681
C_ C_ 0.362468 0.497104 0.671813 -0.08735
C_ C_ 0.361633 0.551114 0.668547 -0.05681
C_ C_ 0.369084 0.574337 0.641424 -0.05681
C_ C_ 0.377445 0.543769 0.617478 -0.08735
C_ C_ 0.337061 0.991252 0.625822 -0.08735
C_ C_ 0.351592 0.582695 0.69144 -0.08735
C_ C_ 0.355164 0.633574 0.689041 -0.08735
C_ C_ 0.37007 0.657518 0.66412 -0.05681
C_ C_ 0.373584 0.626534 0.63919 -0.08735
C_ C_ 0.469505 0.813656 0.65697 0.68181
C_ C_ 0.408886 0.863936 0.733666 0.1947
C_ C_ 0.423954 0.875775 0.760847 -0.08735
C_ C_ 0.397032 0.853312 0.78286 -0.08735
C_ C_ 0.359967 0.812714 0.778026 -0.05681
C_ C_ 0.350898 0.798214 0.749243 0.18498
C_ C_ 0.321281 0.756163 0.74374 -0.08735
C_ C_ 0.297336 0.729586 0.766264 -0.08735
C_ C_ 0.30237 0.746358 0.795082 -0.08735
C_ C_ 0.335735 0.787558 0.801235 0.18498
C_ C_ 0.305553 0.817007 0.847159 0.44287
C_ C_ 0.390207 0.794443 0.842787 0.44287
C_ C_ 0.397394 0.804348 0.871976 -0.05681
C_ C_ 0.445512 0.800165 0.885139 -0.08735
C_ C_ 0.452008 0.805849 0.914345 -0.08735
C_ C_ 0.411974 0.822004 0.931697 -0.05681
C_ C_ 0.363712 0.826766 0.919487 -0.05681
C_ C_ 0.356428 0.81606 0.890372 -0.05681
C_ C_ 0.310188 0.822714 0.876951 -0.05681
C_ C_ 0.269224 0.835259 0.894882 -0.08735
C_ C_ 0.274455 0.842391 0.924085 -0.08735
C_ C_ 0.322209 0.837759 0.93754 -0.05681
C_ C_ 0.331994 0.851466 0.966133 0.44287
C_ C_ 0.419296 0.83048 0.961184 0.44287
C_ C_ 0.399195 0.841781 0.508252 0.18498
C_ C_ 0.421025 0.89004 0.513573 -0.08735
C_ C_ 0.427311 0.907913 0.540363 -0.08735
C_ C_ 0.40782 0.880968 0.563574 -0.08735
C_ C_ 0.387438 0.831948 0.560553 0.18498
C_ C_ 0.378019 0.813625 0.532293 -0.05681
C_ C_ 0.350803 0.76759 0.528035 -0.08735
C_ C_ 0.32923 0.742012 0.551215 -0.08735
C_ C_ 0.336064 0.763564 0.578519 0.1947
N_ N_ 0.121673 0.663914 0.977164 -0.29468
N_ N_ 0.15643 0.701056 0.580787 -0.17154
N_ N_ 0.120236 0.67328 0.728019 -0.17154
N_ N_ 0.125094 0.703278 0.832327 -0.29468
N_ N_ 0.371358 0.826733 0.727822 -0.29468
N_ N_ 0.34466 0.799344 0.830524 -0.17154
N_ N_ 0.380734 0.844505 0.977914 -0.17154
N_ N_ 0.366307 0.806199 0.583242 -0.29468
O_ O_ 0.202314 0.687117 0.930403 -0.58347
O_ O_ 0.192655 0.690587 0.88512 -0.58347
O_ O_ 0.115812 0.7565 0.932987 -0.58347
O_ O_ 0.120779 0.766893 0.88763 -0.58347
O_ O_ 0.141329 0.607457 0.924495 -0.58347
O_ O_ 0.115608 0.614534 0.880569 -0.58347
O_ O_ 0.052917 0.674691 0.929384 -0.58347
O_ O_ 0.0428258 0.689683 0.882577 -0.58347
O_ O_ 0.072874 0.715341 0.574095 -0.46727
O_ O_ 0.243089 0.688207 0.587542 -0.46727
O_ O_ 0.034382 0.69178 0.721439 -0.46727
O_ O_ 0.203174 0.6466 0.732955 -0.46727
O_ O_ 0.288957 0.813846 0.680791 -0.58347
O_ O_ 0.299519 0.805633 0.634557 -0.58347
O_ O_ 0.370849 0.7413 0.683596 -0.58347
O_ O_ 0.377339 0.733986 0.637214 -0.58347
O_ O_ 0.365292 0.890374 0.67378 -0.58347
O_ O_ 0.369199 0.885238 0.627316 -0.58347
O_ O_ 0.439698 0.821515 0.678058 -0.58347
O_ O_ 0.451684 0.812431 0.631848 -0.58347
O_ O_ 0.427153 0.779529 0.826543 -0.46727
O_ O_ 0.260844 0.828177 0.834783 -0.46727
O_ O_ 0.465601 0.826461 0.971788 -0.46727
O_ O_ 0.294184 0.862073 0.983518 -0.46727
Zn Zn 0.631837 0.179495 0.383616 0.90689
Zn Zn 0.644448 0.169706 0.432793 0.90689
Zn Zn 0.872377 0.324914 0.131915 0.90689
Zn Zn 0.862086 0.327162 0.179623 0.90689
H_ H_ 0.814815 0.177527 0.443219 0.11455
H_ H_ 0.87605 0.161847 0.344549 0.11455
H_ H_ 0.786211 0.169112 0.351524 0.11455
H_ H_ 0.89515 0.186785 0.459933 0.11455
H_ H_ 0.98585 0.197087 0.451392 0.11455
H_ H_ 0.962212 0.178784 0.361141 0.11455
H_ H_ 0.626219 0.00769336 0.440703 0.11455
H_ H_ 0.624829 0.431134 0.350753 0.11455
H_ H_ 0.638917 0.0158189 0.347555 0.11455
H_ H_ 0.632712 0.418211 0.470599 0.11455
H_ H_ 0.631656 0.326313 0.463832 0.11455
H_ H_ 0.635495 0.342252 0.372273 0.11455
H_ H_ 0.599078 0.0981556 0.470145 0.11455
H_ H_ 0.547695 0.0985621 0.0149332 0.11455
H_ H_ 0.57773 0.146129 0.0559269 0.11455
H_ H_ 0.712239 0.2412 0.477386 0.11455
H_ H_ 0.716809 0.305728 0.0181874 0.11455
H_ H_ 0.692173 0.285998 0.0665094 0.11455
H_ H_ 0.505503 0.214743 0.127747 0.11455
H_ H_ 0.497857 0.198872 0.178202 0.11455
H_ H_ 0.757821 0.179518 0.137713 0.11455
H_ H_ 0.749089 0.163311 0.189424 0.11455
H_ H_ 0.566527 0.0782979 0.251503 0.11455
H_ H_ 0.5542 0.0541087 0.299566 0.11455
H_ H_ 0.577911 0.111267 0.340648 0.11455
H_ H_ 0.655269 0.236735 0.258754 0.11455
H_ H_ 0.687064 0.291312 0.299299 0.11455
H_ H_ 0.669534 0.268887 0.346464 0.11455
H_ H_ 0.696216 0.293333 0.194688 0.11455
H_ H_ 0.627757 0.352612 0.102198 0.11455
H_ H_ 0.719717 0.333922 0.106429 0.11455
H_ H_ 0.612062 0.295781 0.215929 0.11455
H_ H_ 0.520589 0.297713 0.20835 0.11455
H_ H_ 0.543675 0.330693 0.117801 0.11455
H_ H_ 0.861518 0.495389 0.192493 0.11455
H_ H_ 0.844728 0.0736633 0.102269 0.11455
H_ H_ 0.836642 0.473245 0.10263 0.11455
H_ H_ 0.907907 0.0804979 0.214175 0.11455
H_ H_ 0.92479 0.170684 0.207805 0.11455
H_ H_ 0.865806 0.155488 0.120693 0.11455
H_ H_ 0.911057 0.406263 0.213247 0.11455
H_ H_ 0.925589 0.440078 0.261728 0.11455
H_ H_ 0.892889 0.392509 0.302534 0.11455
H_ H_ 0.822037 0.253015 0.223454 0.11455
H_ H_ 0.799522 0.197565 0.263376 0.11455
H_ H_ 0.802015 0.230292 0.31216 0.11455
H_ H_ 0.979613 0.281667 0.375354 0.11455
H_ H_ -0.008328000000000002 0.301302 0.422992 0.11455
H_ H_ 0.740113 0.365029 0.386509 0.11455
H_ H_ 0.750565 0.367592 0.437225 0.11455
H_ H_ 0.931085 0.423215 0.502398 0.11455
H_ H_ 0.943879 0.436132 0.0419577 0.11455
H_ H_ 0.913862 0.388983 0.0856393 0.11455
H_ H_ 0.849896 0.239973 0.0112255 0.11455
H_ H_ 0.817132 0.198516 0.0510946 0.11455
H_ H_ 0.818875 0.2451 0.100123 0.11455
C_ C_ 0.737044 0.178846 0.405308 0.68181
C_ C_ 0.792634 0.17864 0.39907 -0.05681
C_ C_ 0.826792 0.177612 0.421546 -0.08735
C_ C_ 0.87807 0.177438 0.416314 -0.05681
C_ C_ 0.898146 0.175585 0.387879 -0.05681
C_ C_ 0.863351 0.171161 0.365119 -0.08735
C_ C_ 0.810619 0.172612 0.370375 -0.08735
C_ C_ 0.911229 0.181525 0.438701 -0.08735
C_ C_ 0.962653 0.186359 0.434019 -0.08735
C_ C_ 0.984277 0.181867 0.406058 -0.05681
C_ C_ 0.950763 0.178007 0.382736 -0.08735
C_ C_ 0.639618 0.271452 0.415462 0.68181
C_ C_ 0.644231 0.0765356 0.398286 0.68181
C_ C_ 0.634403 0.0211026 0.394824 -0.05681
C_ C_ 0.639282 0.491266 0.427354 -0.08735
C_ C_ 0.637965 0.436683 0.425244 -0.05681
C_ C_ 0.634946 0.413604 0.397187 -0.05681
C_ C_ 0.627676 0.444342 0.372384 -0.08735
C_ C_ 0.629034 0.497614 0.374592 -0.08735
C_ C_ 0.639504 0.403792 0.449476 -0.08735
C_ C_ 0.636351 0.350042 0.445487 -0.08735
C_ C_ 0.63764 0.327352 0.418958 -0.05681
C_ C_ 0.637996 0.35956 0.394524 -0.08735
C_ C_ 0.54032 0.16822 0.410843 0.68181
C_ C_ 0.620975 0.117306 0.486428 0.1947
C_ C_ 0.570168 0.131469 0.0113083 -0.08735
C_ C_ 0.592944 0.152932 0.0345706 -0.08735
C_ C_ 0.625995 0.19609 0.0304656 -0.05681
C_ C_ 0.641122 0.206797 1.00185408 0.18498
C_ C_ 0.687831 0.236995 0.496151 -0.08735
C_ C_ 0.693806 0.273872 0.0212441 -0.08735
C_ C_ 0.677038 0.264092 0.0489962 -0.08735
C_ C_ 0.644265 0.223307 0.0548922 0.18498
C_ C_ 0.679973 0.186976 0.0994124 0.44287
C_ C_ 0.593074 0.214099 0.0967863 0.44287
C_ C_ 0.586806 0.201548 0.126724 -0.05681
C_ C_ 0.538989 0.209769 0.140489 -0.08735
C_ C_ 0.533928 0.194832 0.168572 -0.08735
C_ C_ 0.575837 0.182534 0.186752 -0.05681
C_ C_ 0.623858 0.173395 0.172893 -0.05681
C_ C_ 0.628824 0.183888 0.14291 -0.05681
C_ C_ 0.675792 0.181179 0.128961 -0.05681
C_ C_ 0.71848 0.175464 0.146706 -0.08735
C_ C_ 0.715414 0.163993 0.175782 -0.08735
C_ C_ 0.665569 0.16272 0.189322 -0.05681
C_ C_ 0.659546 0.157671 0.219706 0.44287
C_ C_ 0.570971 0.171936 0.216387 0.44287
C_ C_ 0.603575 0.148824 0.263627 0.18498
C_ C_ 0.58238 0.10195 0.269072 -0.08735
C_ C_ 0.574195 0.087748 0.296868 -0.08735
C_ C_ 0.585204 0.123245 0.319808 -0.08735
C_ C_ 0.612613 0.167146 0.314672 0.18498
C_ C_ 0.619815 0.181811 0.286204 -0.05681
C_ C_ 0.648876 0.225939 0.280244 -0.08735
C_ C_ 0.664807 0.257637 0.301465 -0.08735
C_ C_ 0.658692 0.242462 0.330257 0.1947
C_ C_ 0.767689 0.313978 0.154637 0.68181
C_ C_ 0.713548 0.312308 0.150354 -0.05681
C_ C_ 0.68246 0.304355 0.173607 -0.08735
C_ C_ 0.628426 0.308405 0.170461 -0.05681
C_ C_ 0.609642 0.326285 0.143736 -0.05681
C_ C_ 0.641144 0.337294 0.122021 -0.08735
C_ C_ 0.694021 0.327839 0.124514 -0.08735
C_ C_ 0.597331 0.303471 0.194429 -0.08735
C_ C_ 0.544311 0.311921 0.190121 -0.08735
C_ C_ 0.524823 0.321639 0.162633 -0.05681
C_ C_ 0.558068 0.329712 0.14027 -0.08735
C_ C_ 0.88331 0.227913 0.162904 0.68181
C_ C_ 0.853745 0.421732 0.15036 0.68181
C_ C_ 0.8501 0.479698 0.148279 -0.05681
C_ C_ 0.884707 0.0106033 0.17349 -0.08735
C_ C_ 0.889431 0.063686 0.169549 -0.05681
C_ C_ 0.879217 0.0869325 0.142777 -0.05681
C_ C_ 0.85456 0.0570751 0.122504 -0.08735
C_ C_ 0.842921 0.499653 0.120823 -0.08735
C_ C_ 0.908644 0.0955627 0.192646 -0.08735
C_ C_ 0.911205 0.148219 0.189355 -0.08735
C_ C_ 0.892787 0.170745 0.163767 -0.05681
C_ C_ 0.879217 0.140136 0.140192 -0.08735
C_ C_ 0.966494 0.331284 0.15901 0.68181
C_ C_ 0.896149 0.385248 0.231118 0.1947
C_ C_ 0.904789 0.403073 0.258314 -0.08735
C_ C_ 0.886514 0.378554 0.281883 -0.08735
C_ C_ 0.859337 0.332446 0.277699 -0.05681
C_ C_ 0.848504 0.315307 0.249299 0.18498
C_ C_ 0.825565 0.267277 0.244736 -0.08735
C_ C_ 0.814216 0.23619 0.267272 -0.08735
C_ C_ 0.819721 0.252357 0.2951 -0.08735
C_ C_ 0.844046 0.298301 0.301762 0.18498
C_ C_ 0.810052 0.324833 0.348087 0.44287
C_ C_ 0.897755 0.300362 0.342986 0.44287
C_ C_ 0.902111 0.303637 0.373293 -0.05681
C_ C_ 0.948723 0.294541 0.387067 -0.08735
C_ C_ 0.956401 0.308397 0.415657 -0.08735
C_ C_ 0.914688 0.321978 0.433005 -0.05681
C_ C_ 0.867404 0.327047 0.42064 -0.05681
C_ C_ 0.859703 0.316235 0.390549 -0.05681
C_ C_ 0.813711 0.326187 0.378436 -0.05681
C_ C_ 0.776021 0.349304 0.395395 -0.08735
C_ C_ 0.781846 0.354947 0.425499 -0.08735
C_ C_ 0.826264 0.342123 0.438484 -0.05681
C_ C_ 0.836177 0.353409 0.467955 0.44287
C_ C_ 0.919647 0.322437 0.463575 0.44287
C_ C_ 0.896853 0.333721 0.00827103 0.18498
C_ C_ 0.923403 0.380985 0.0131043 -0.08735
C_ C_ 0.928639 0.398625 0.0405887 -0.08735
C_ C_ 0.908738 0.375009 0.0643535 -0.08735
C_ C_ 0.887597 0.327971 0.0609646 0.18498
C_ C_ 0.87853 0.308109 0.0328832 -0.05681
C_ C_ 0.853834 0.259755 0.0308283 -0.08735
C_ C_ 0.830225 0.238412 0.0543336 -0.08735
C_ C_ 0.839564 0.258921 0.0815801 0.1947
N_ N_ 0.646117 0.16076 0.480226 -0.29468
N_ N_ 0.638546 0.203864 0.0834805 -0.17154
N_ N_ 0.611615 0.161387 0.232647 -0.17154
N_ N_ 0.634805 0.197535 0.336215 -0.29468
N_ N_ 0.862623 0.345954 0.226641 -0.29468
N_ N_ 0.851184 0.313793 0.331539 -0.17154
N_ N_ 0.883185 0.344271 0.4797 -0.17154
N_ N_ 0.869165 0.30246 0.084372 -0.29468
O_ O_ 0.719824 0.16351 0.429438 -0.58347
O_ O_ 0.707119 0.194234 0.385287 -0.58347
O_ O_ 0.650192 0.244164 0.436898 -0.58347
O_ O_ 0.622029 0.253214 0.39235 -0.58347
O_ O_ 0.643154 0.0956355 0.423698 -0.58347
O_ O_ 0.640829 0.106638 0.378029 -0.58347
O_ O_ 0.569626 0.177554 0.432245 -0.58347
O_ O_ 0.558431 0.171822 0.386114 -0.58347
O_ O_ 0.558358 0.239795 0.083554 -0.46727
O_ O_ 0.725614 0.180907 0.0866598 -0.46727
O_ O_ 0.527265 0.181198 0.228605 -0.46727
O_ O_ 0.701389 0.159486 0.236147 -0.46727
O_ O_ 0.786396 0.305723 0.178638 -0.58347
O_ O_ 0.797795 0.31883 0.132889 -0.58347
O_ O_ 0.883236 0.2551 0.185057 -0.58347
O_ O_ 0.874914 0.248078 0.139253 -0.58347
O_ O_ 0.847734 0.399653 0.174591 -0.58347
O_ O_ 0.868816 0.39652 0.129324 -0.58347
O_ O_ 0.939205 0.343372 0.178885 -0.58347
O_ O_ 0.949354 0.324604 0.13417 -0.58347
O_ O_ 0.935291 0.287724 0.325878 -0.46727
O_ O_ 0.765827 0.3344 0.335157 -0.46727
O_ O_ 0.957257 0.29983 0.476387 -0.46727
O_ O_ 0.798509 0.369483 0.484299 -0.46727
Zn Zn 0.62463 0.196281 0.884223 0.90689
Zn Zn 0.637217 0.190447 0.932826 0.90689
Zn Zn 0.875307 0.309004 0.629038 0.90689
Zn Zn 0.870688 0.315615 0.680285 0.90689
H_ H_ 0.802743 0.174132 0.94688 0.11455
H_ H_ 0.871305 0.171511 0.84864 0.11455
H_ H_ 0.780183 0.196097 0.858249 0.11455
H_ H_ 0.894203 0.180952 0.9666 0.11455
H_ H_ 0.98368 0.180454 0.958788 0.11455
H_ H_ 0.955278 0.176792 0.866987 0.11455
H_ H_ 0.626482 0.023212 0.944145 0.11455
H_ H_ 0.668348 0.445653 0.85336 0.11455
H_ H_ 0.648521 0.0363481 0.853086 0.11455
H_ H_ 0.617678 0.436134 0.968172 0.11455
H_ H_ 0.612307 0.34588 0.961403 0.11455
H_ H_ 0.641969 0.360788 0.871746 0.11455
H_ H_ 0.567267 0.125184 0.965672 0.11455
H_ H_ 0.603099 0.0613212 0.519724 0.11455
H_ H_ 0.636802 0.115158 0.558889 0.11455
H_ H_ 0.683171 0.25826 0.975425 0.11455
H_ H_ 0.721036 0.300659 0.514572 0.11455
H_ H_ 0.69638 0.281827 0.562571 0.11455
H_ H_ 0.514924 0.196352 0.623344 0.11455
H_ H_ 0.502709 0.190563 0.67466 0.11455
H_ H_ 0.765027 0.153543 0.642477 0.11455
H_ H_ 0.751706 0.161838 0.693787 0.11455
H_ H_ 0.560171 0.0844858 0.755528 0.11455
H_ H_ 0.544199 0.0734368 0.805875 0.11455
H_ H_ 0.56642 0.134017 0.841103 0.11455
H_ H_ 0.668513 0.241695 0.756141 0.11455
H_ H_ 0.702299 0.291562 0.795832 0.11455
H_ H_ 0.678905 0.265158 0.849327 0.11455
H_ H_ 0.696705 0.279273 0.696868 0.11455
H_ H_ 0.63209 0.354006 0.607553 0.11455
H_ H_ 0.720761 0.332234 0.607797 0.11455
H_ H_ 0.614764 0.292471 0.715514 0.11455
H_ H_ 0.523619 0.287687 0.705623 0.11455
H_ H_ 0.545827 0.336082 0.620282 0.11455
H_ H_ 0.860325 0.47624 0.695846 0.11455
H_ H_ 0.881186 0.0600353 0.590811 0.11455
H_ H_ 0.854161 0.473374 0.603354 0.11455
H_ H_ 0.87998 0.0651684 0.709179 0.11455
H_ H_ 0.892746 0.155467 0.701223 0.11455
H_ H_ 0.877339 0.139937 0.612068 0.11455
H_ H_ 0.930371 0.378581 0.71892 0.11455
H_ H_ 0.937604 0.412524 0.766002 0.11455
H_ H_ 0.882324 0.373083 0.803984 0.11455
H_ H_ 0.81888 0.2399 0.720563 0.11455
H_ H_ 0.777007 0.194057 0.758312 0.11455
H_ H_ 0.792892 0.212886 0.808893 0.11455
H_ H_ 0.988105 0.299377 0.87014 0.11455
H_ H_ -0.0012889999999999846 0.313025 0.919874 0.11455
H_ H_ 0.740309 0.329874 0.885413 0.11455
H_ H_ 0.750635 0.338099 0.937361 0.11455
H_ H_ 0.939798 0.401526 0.996553 0.11455
H_ H_ 0.959408 0.433013 0.552388 0.11455
H_ H_ 0.932899 0.374183 0.588011 0.11455
H_ H_ 0.854241 0.26099 0.502959 0.11455
H_ H_ 0.814168 0.209405 0.541506 0.11455
H_ H_ 0.82712 0.232804 0.59128 0.11455
C_ C_ 0.728757 0.188042 0.907219 0.68181
C_ C_ 0.783183 0.178877 0.901972 -0.05681
C_ C_ 0.817816 0.17635 0.925999 -0.08735
C_ C_ 0.87071 0.173131 0.921781 -0.05681
C_ C_ 0.890171 0.172038 0.893584 -0.05681
C_ C_ 0.856897 0.175245 0.870185 -0.08735
C_ C_ 0.806448 0.184608 0.875158 -0.08735
C_ C_ 0.906075 0.1733 0.944788 -0.08735
C_ C_ 0.957804 0.176389 0.940697 -0.08735
C_ C_ 0.975588 0.174734 0.911349 -0.05681
C_ C_ 0.941552 0.173477 0.888773 -0.08735
C_ C_ 0.628719 0.292767 0.911765 0.68181
C_ C_ 0.635942 0.0940984 0.900288 0.68181
C_ C_ 0.630717 0.0378003 0.897154 -0.05681
C_ C_ 0.633161 0.506383 0.926217 -0.08735
C_ C_ 0.634267 0.451244 0.923185 -0.05681
C_ C_ 0.641438 0.429178 0.896643 -0.05681
C_ C_ 0.65511 0.461712 0.873956 -0.08735
C_ C_ 0.65184 0.513337 0.875417 -0.08735
C_ C_ 0.627493 0.420413 0.946873 -0.08735
C_ C_ 0.6211 0.368317 0.943393 -0.08735
C_ C_ 0.625223 0.346377 0.915694 -0.05681
C_ C_ 0.634434 0.376579 0.89213 -0.08735
C_ C_ 0.532464 0.189432 0.906577 0.68181
C_ C_ 0.588124 0.142555 0.98348 0.1947
C_ C_ 0.615732 0.100241 0.515407 -0.08735
C_ C_ 0.638781 0.127607 0.536341 -0.08735
C_ C_ 0.65769 0.175957 0.531368 -0.05681
C_ C_ 0.667725 0.189251 0.501993 0.18498
C_ C_ 0.672814 0.248249 0.997291 -0.08735
C_ C_ 0.696653 0.270993 0.518511 -0.08735
C_ C_ 0.680783 0.259376 0.546725 -0.08735
C_ C_ 0.664328 0.211524 0.554127 0.18498
C_ C_ 0.695934 0.18339 0.602005 0.44287
C_ C_ 0.607812 0.197983 0.595131 0.44287
C_ C_ 0.599428 0.191726 0.624226 -0.05681
C_ C_ 0.547299 0.189327 0.636203 -0.08735
C_ C_ 0.538945 0.17751 0.664944 -0.08735
C_ C_ 0.579898 0.174471 0.684002 -0.05681
C_ C_ 0.629657 0.170051 0.671829 -0.05681
C_ C_ 0.640211 0.182222 0.642429 -0.05681
C_ C_ 0.689223 0.178322 0.631156 -0.05681
C_ C_ 0.729234 0.166379 0.649941 -0.08735
C_ C_ 0.719156 0.162145 0.679557 -0.08735
C_ C_ 0.669915 0.158829 0.690487 -0.05681
C_ C_ 0.660179 0.153477 0.720769 0.44287
C_ C_ 0.571713 0.171098 0.713392 0.44287
C_ C_ 0.603389 0.157034 0.761384 0.18498
C_ C_ 0.571671 0.115309 0.76965 -0.08735
C_ C_ 0.566697 0.106199 0.798832 -0.08735
C_ C_ 0.580524 0.13946 0.819036 -0.08735
C_ C_ 0.610848 0.179854 0.813017 0.18498
C_ C_ 0.622751 0.191718 0.783526 -0.05681
C_ C_ 0.654321 0.233532 0.778414 -0.08735
C_ C_ 0.674007 0.26359 0.801096 -0.08735
C_ C_ 0.664157 0.246906 0.82941 0.1947
C_ C_ 0.774604 0.298908 0.656553 0.68181
C_ C_ 0.718373 0.305526 0.652706 -0.05681
C_ C_ 0.684354 0.292383 0.675242 -0.08735
C_ C_ 0.631497 0.299426 0.671475 -0.05681
C_ C_ 0.612569 0.313905 0.644713 -0.05681
C_ C_ 0.64574 0.330213 0.623944 -0.08735
C_ C_ 0.698326 0.327065 0.626759 -0.08735
C_ C_ 0.598463 0.296997 0.695154 -0.08735
C_ C_ 0.54741 0.300971 0.689548 -0.08735
C_ C_ 0.527724 0.316273 0.662698 -0.05681
C_ C_ 0.561032 0.325365 0.640665 -0.08735
C_ C_ 0.883696 0.215827 0.655226 0.68181
C_ C_ 0.857652 0.41104 0.652104 0.68181
C_ C_ 0.858685 0.467296 0.650055 -0.05681
C_ C_ 0.873641 -0.0029919999999999947 0.667374 -0.08735
C_ C_ 0.878238 0.0503279 0.663907 -0.05681
C_ C_ 0.88049 0.0720335 0.636881 -0.05681
C_ C_ 0.883745 0.0419188 0.612673 -0.08735
C_ C_ 0.853804 0.492411 0.623718 -0.08735
C_ C_ 0.884451 0.0820391 0.687981 -0.08735
C_ C_ 0.887269 0.132949 0.683989 -0.08735
C_ C_ 0.8838 0.156971 0.657747 -0.05681
C_ C_ 0.879205 0.12517 0.63428 -0.08735
C_ C_ 0.970204 0.317042 0.653859 0.68181
C_ C_ 0.912803 0.358953 0.734888 0.1947
C_ C_ 0.913734 0.378714 0.762872 -0.08735
C_ C_ 0.883452 0.356525 0.783672 -0.08735
C_ C_ 0.860678 0.308777 0.778873 -0.05681
C_ C_ 0.854481 0.2948 0.749051 0.18498
C_ C_ 0.823175 0.254327 0.74239 -0.08735
C_ C_ 0.798592 0.227047 0.76405 -0.08735
C_ C_ 0.81021 0.235617 0.792402 -0.08735
C_ C_ 0.839918 0.280144 0.801055 0.18498
C_ C_ 0.809057 0.305389 0.847473 0.44287
C_ C_ 0.897848 0.286553 0.843072 0.44287
C_ C_ 0.904364 0.295406 0.872207 -0.05681
C_ C_ 0.952994 0.302524 0.88325 -0.08735
C_ C_ 0.960866 0.308731 0.912677 -0.08735
C_ C_ 0.920136 0.304629 0.932073 -0.05681
C_ C_ 0.86958 0.302786 0.920435 -0.05681
C_ C_ 0.861322 0.299699 0.890423 -0.05681
C_ C_ 0.812969 0.304211 0.87741 -0.05681
C_ C_ 0.774005 0.31777 0.895819 -0.08735
C_ C_ 0.780085 0.32264 0.925314 -0.08735
C_ C_ 0.82751 0.314452 0.938615 -0.05681
C_ C_ 0.838181 0.320564 0.968464 0.44287
C_ C_ 0.927356 0.309362 0.961916 0.44287
C_ C_ 0.894402 0.351988 0.509725 0.18498
C_ C_ 0.917765 0.39699 0.517892 -0.08735
C_ C_ 0.93446 0.40413 0.545349 -0.08735
C_ C_ 0.920735 0.369 0.566619 -0.08735
C_ C_ 0.89132 0.326685 0.560322 0.18498
C_ C_ 0.878166 0.318153 0.531875 -0.05681
C_ C_ 0.852352 0.274336 0.524486 -0.08735
C_ C_ 0.833541 0.244669 0.546493 -0.08735
C_ C_ 0.84215 0.255734 0.574696 0.1947
N_ N_ 0.620508 0.181695 0.978638 -0.29468
N_ N_ 0.65662 0.19679 0.584115 -0.17154
N_ N_ 0.612127 0.163796 0.731277 -0.17154
N_ N_ 0.63304 0.206234 0.834597 -0.29468
N_ N_ 0.87939 0.321585 0.728309 -0.29468
N_ N_ 0.849424 0.291546 0.830921 -0.17154
N_ N_ 0.886406 0.316361 0.979702 -0.17154
N_ N_ 0.87286 0.295718 0.581905 -0.29468
O_ O_ 0.71037 0.185725 0.932531 -0.58347
O_ O_ 0.700594 0.20075 0.887334 -0.58347
O_ O_ 0.647691 0.265715 0.931843 -0.58347
O_ O_ 0.614999 0.271616 0.88843 -0.58347
O_ O_ 0.633744 0.112858 0.92506 -0.58347
O_ O_ 0.631419 0.121612 0.878211 -0.58347
O_ O_ 0.563703 0.194311 0.927199 -0.58347
O_ O_ 0.549914 0.190138 0.88146 -0.58347
O_ O_ 0.56915 0.205025 0.577082 -0.46727
O_ O_ 0.741961 0.180514 0.59074 -0.46727
O_ O_ 0.526019 0.172891 0.724614 -0.46727
O_ O_ 0.697878 0.145838 0.738337 -0.46727
O_ O_ 0.795423 0.298701 0.680968 -0.58347
O_ O_ 0.802881 0.298138 0.633485 -0.58347
O_ O_ 0.87946 0.241568 0.677052 -0.58347
O_ O_ 0.893324 0.235628 0.630784 -0.58347
O_ O_ 0.859533 0.389313 0.676873 -0.58347
O_ O_ 0.861824 0.383518 0.629826 -0.58347
O_ O_ 0.941606 0.3241 0.675146 -0.58347
O_ O_ 0.951385 0.318249 0.628266 -0.58347
O_ O_ 0.936475 0.275976 0.825724 -0.46727
O_ O_ 0.762939 0.305688 0.835379 -0.46727
O_ O_ 0.972824 0.305787 0.972978 -0.46727
O_ O_ 0.796767 0.324304 0.985631 -0.46727
Zn Zn 0.628887 0.67974 0.382673 0.90689
Zn Zn 0.642529 0.674965 0.429735 0.90689
Zn Zn 0.862639 0.819639 0.130322 0.90689
Zn Zn 0.854935 0.829958 0.177433 0.90689
H_ H_ 0.807988 0.697184 0.444405 0.11455
H_ H_ 0.875945 0.66503 0.347152 0.11455
H_ H_ 0.781319 0.681368 0.354552 0.11455
H_ H_ 0.892993 0.680285 0.463825 0.11455
H_ H_ 0.984544 0.678244 0.457267 0.11455
H_ H_ 0.958989 0.656156 0.366645 0.11455
H_ H_ 0.655575 0.50663 0.446786 0.11455
H_ H_ 0.63308 0.923853 0.344057 0.11455
H_ H_ 0.625802 0.521589 0.354801 0.11455
H_ H_ 0.61773 0.924071 0.463043 0.11455
H_ H_ 0.609069 0.83152 0.460041 0.11455
H_ H_ 0.626316 0.842062 0.367428 0.11455
H_ H_ 0.579551 0.617739 0.466712 0.11455
H_ H_ 0.559634 0.584574 0.017966 0.11455
H_ H_ 0.575304 0.641646 0.055573 0.11455
H_ H_ 0.703401 0.741782 0.474148 0.11455
H_ H_ 0.706371 0.809838 0.016805 0.11455
H_ H_ 0.685718 0.790497 0.0656753 0.11455
H_ H_ 0.499568 0.707656 0.128288 0.11455
H_ H_ 0.488832 0.675637 0.176367 0.11455
H_ H_ 0.754426 0.675175 0.138814 0.11455
H_ H_ 0.740958 0.642462 0.188249 0.11455
H_ H_ 0.561889 0.573855 0.253187 0.11455
H_ H_ 0.535771 0.56058 0.301662 0.11455
H_ H_ 0.580056 0.604109 0.341638 0.11455
H_ H_ 0.668438 0.720414 0.256676 0.11455
H_ H_ 0.700854 0.776971 0.298248 0.11455
H_ H_ 0.692379 0.749938 0.346302 0.11455
H_ H_ 0.687071 0.795884 0.189564 0.11455
H_ H_ 0.619059 0.860951 0.0981188 0.11455
H_ H_ 0.706214 0.858349 0.106308 0.11455
H_ H_ 0.600219 0.78689 0.209943 0.11455
H_ H_ 0.506535 0.786776 0.202029 0.11455
H_ H_ 0.530886 0.842648 0.114818 0.11455
H_ H_ 0.89917 0.994716 0.194615 0.11455
H_ H_ 0.854966 0.567446 0.095234 0.11455
H_ H_ 0.833242 0.981167 0.107833 0.11455
H_ H_ 0.870583 0.581898 0.214589 0.11455
H_ H_ 0.866173 0.669177 0.209253 0.11455
H_ H_ 0.856855 0.654801 0.116816 0.11455
H_ H_ 0.921354 0.900041 0.215329 0.11455
H_ H_ 0.944105 0.917905 0.264304 0.11455
H_ H_ 0.89925 0.876121 0.304655 0.11455
H_ H_ 0.801915 0.772071 0.219261 0.11455
H_ H_ 0.761444 0.721188 0.2577 0.11455
H_ H_ 0.786165 0.735399 0.308547 0.11455
H_ H_ 0.987178 0.783875 0.369572 0.11455
H_ H_ 0.00480787 0.79976 0.42115 0.11455
H_ H_ 0.740978 0.813939 0.388798 0.11455
H_ H_ 0.752172 0.831548 0.438998 0.11455
H_ H_ 0.937316 0.893241 0.494946 0.11455
H_ H_ 0.962197 0.933149 0.0519266 0.11455
H_ H_ 0.919147 0.883413 0.0899911 0.11455
H_ H_ 0.826071 0.771187 0.00669519 0.11455
H_ H_ 0.773542 0.738307 0.0435861 0.11455
H_ H_ 0.791343 0.760113 0.0941218 0.11455
C_ C_ 0.733945 0.691616 0.406559 0.68181
C_ C_ 0.790107 0.686364 0.400686 -0.05681
C_ C_ 0.823814 0.688469 0.423664 -0.08735
C_ C_ 0.876564 0.681138 0.418922 -0.05681
C_ C_ 0.894896 0.670831 0.391212 -0.05681
C_ C_ 0.860011 0.667868 0.367982 -0.08735
C_ C_ 0.808774 0.680898 0.372843 -0.08735
C_ C_ 0.908683 0.674731 0.442482 -0.08735
C_ C_ 0.95963 0.671963 0.438386 -0.08735
C_ C_ 0.979177 0.674631 0.409958 -0.05681
C_ C_ 0.946694 0.668548 0.387019 -0.08735
C_ C_ 0.623642 0.77203 0.411278 0.68181
C_ C_ 0.647567 0.577797 0.403783 0.68181
C_ C_ 0.64105 0.520909 0.402077 -0.05681
C_ C_ 0.631066 0.989346 0.419424 -0.08735
C_ C_ 0.627441 0.936015 0.417583 -0.05681
C_ C_ 0.626954 0.913034 0.390763 -0.05681
C_ C_ 0.633728 0.943307 0.365123 -0.08735
C_ C_ 0.638994 0.996759 0.367815 -0.08735
C_ C_ 0.618795 0.906905 0.442174 -0.08735
C_ C_ 0.616825 0.853293 0.440065 -0.08735
C_ C_ 0.618166 0.829206 0.41367 -0.05681
C_ C_ 0.625286 0.859996 0.389119 -0.08735
C_ C_ 0.536272 0.672575 0.405052 0.68181
C_ C_ 0.603649 0.63134 0.483153 0.1947
C_ C_ 0.582426 0.617618 0.0138508 -0.08735
C_ C_ 0.591992 0.650553 0.0358901 -0.08735
C_ C_ 0.61905 0.695713 0.0311383 -0.05681
C_ C_ 0.636181 0.706404 1.00252354 0.18498
C_ C_ 0.694535 0.73169 0.495544 -0.08735
C_ C_ 0.683095 0.778818 0.020092 -0.08735
C_ C_ 0.668674 0.767877 0.0482606 -0.08735
C_ C_ 0.641415 0.724269 0.055045 0.18498
C_ C_ 0.676191 0.693144 0.100351 0.44287
C_ C_ 0.587599 0.708791 0.0975218 0.44287
C_ C_ 0.581719 0.699428 0.127441 -0.05681
C_ C_ 0.533011 0.692514 0.138848 -0.08735
C_ C_ 0.528246 0.678137 0.168158 -0.08735
C_ C_ 0.571667 0.673066 0.184861 -0.05681
C_ C_ 0.618268 0.670408 0.172129 -0.05681
C_ C_ 0.623708 0.683142 0.142487 -0.05681
C_ C_ 0.672897 0.684191 0.130595 -0.05681
C_ C_ 0.716445 0.672827 0.14679 -0.08735
C_ C_ 0.709128 0.658545 0.175937 -0.08735
C_ C_ 0.660286 0.657889 0.188909 -0.05681
C_ C_ 0.654349 0.647649 0.217458 0.44287
C_ C_ 0.56816 0.665436 0.21447 0.44287
C_ C_ 0.601823 0.641705 0.261071 0.18498
C_ C_ 0.575937 0.598454 0.270099 -0.08735
C_ C_ 0.562546 0.590592 0.29763 -0.08735
C_ C_ 0.585284 0.617976 0.3195 -0.08735
C_ C_ 0.615703 0.659359 0.31299 0.18498
C_ C_ 0.62433 0.672459 0.283265 -0.05681
C_ C_ 0.655291 0.715456 0.27792 -0.08735
C_ C_ 0.674468 0.745122 0.301266 -0.08735
C_ C_ 0.669044 0.729585 0.329615 0.1947
C_ C_ 0.759678 0.829087 0.154759 0.68181
C_ C_ 0.703589 0.831241 0.150659 -0.05681
C_ C_ 0.669867 0.812198 0.171007 -0.08735
C_ C_ 0.6176 0.809844 0.166461 -0.05681
C_ C_ 0.599509 0.831926 0.141144 -0.05681
C_ C_ 0.632757 0.848293 0.118909 -0.08735
C_ C_ 0.683361 0.84612 0.123324 -0.08735
C_ C_ 0.584311 0.796365 0.188302 -0.08735
C_ C_ 0.533507 0.798956 0.184161 -0.08735
C_ C_ 0.51253 0.813444 0.157334 -0.05681
C_ C_ 0.546982 0.83048 0.135044 -0.08735
C_ C_ 0.862639 0.726795 0.156769 0.68181
C_ C_ 0.866532 0.9233 0.150692 0.68181
C_ C_ 0.868266 0.97939 0.149994 -0.05681
C_ C_ 0.855444 0.512005 0.172439 -0.08735
C_ C_ 0.857151 0.564199 0.168919 -0.05681
C_ C_ 0.85543 0.585919 0.140394 -0.05681
C_ C_ 0.844451 0.553153 0.116583 -0.08735
C_ C_ 0.850714 1.00380031 0.125685 -0.08735
C_ C_ 0.86697 0.596268 0.192475 -0.08735
C_ C_ 0.865845 0.648591 0.188263 -0.08735
C_ C_ 0.859054 0.670113 0.161595 -0.05681
C_ C_ 0.857105 0.639007 0.137578 -0.08735
C_ C_ 0.959002 0.825579 0.156343 0.68181
C_ C_ 0.905555 0.876743 0.231335 0.1947
C_ C_ 0.919103 0.887801 0.258909 -0.08735
C_ C_ 0.895249 0.861756 0.282586 -0.08735
C_ C_ 0.859775 0.824621 0.276686 -0.05681
C_ C_ 0.843177 0.81734 0.247665 0.18498
C_ C_ 0.810458 0.777749 0.241275 -0.08735
C_ C_ 0.790041 0.749215 0.263332 -0.08735
C_ C_ 0.802631 0.757424 0.292148 -0.08735
C_ C_ 0.840455 0.793085 0.299695 0.18498
C_ C_ 0.813334 0.816366 0.347816 0.44287
C_ C_ 0.899751 0.795296 0.339889 0.44287
C_ C_ 0.908905 0.798014 0.3707 -0.05681
C_ C_ 0.958144 0.792349 0.382604 -0.08735
C_ C_ 0.966352 0.797464 0.412569 -0.08735
C_ C_ 0.923497 0.796798 0.430324 -0.05681
C_ C_ 0.875201 0.806595 0.418384 -0.05681
C_ C_ 0.869805 0.808823 0.389094 -0.05681
C_ C_ 0.820064 0.816804 0.377963 -0.05681
C_ C_ 0.779012 0.818111 0.39604 -0.08735
C_ C_ 0.786158 0.825599 0.425178 -0.08735
C_ C_ 0.835388 0.816433 0.437254 -0.05681
C_ C_ 0.843309 0.813761 0.46687 0.44287
C_ C_ 0.930888 0.79871 0.460073 0.44287
C_ C_ 0.894988 0.84911 0.00985847 0.18498
C_ C_ 0.93029 0.888718 0.0175363 -0.08735
C_ C_ 0.93471 0.904317 0.0461633 -0.08735
C_ C_ 0.906581 0.879847 0.0674045 -0.08735
C_ C_ 0.873993 0.839555 0.0614617 0.18498
C_ C_ 0.868186 0.823618 0.0328202 -0.05681
C_ C_ 0.835787 0.783093 0.0283086 -0.08735
C_ C_ 0.806185 0.762552 0.0497426 -0.08735
C_ C_ 0.816508 0.773785 0.0777516 0.1947
N_ N_ 0.643102 0.665068 0.47819 -0.29468
N_ N_ 0.63316 0.70789 0.0847793 -0.17154
N_ N_ 0.610177 0.654663 0.230634 -0.17154
N_ N_ 0.637209 0.689049 0.335156 -0.29468
N_ N_ 0.867668 0.841691 0.224997 -0.29468
N_ N_ 0.852577 0.802101 0.329808 -0.17154
N_ N_ 0.891584 0.80762 0.478082 -0.17154
N_ N_ 0.849609 0.812451 0.0833121 -0.29468
O_ O_ 0.719157 0.681537 0.431165 -0.58347
O_ O_ 0.702274 0.694872 0.385776 -0.58347
O_ O_ 0.63255 0.74593 0.4333 -0.58347
O_ O_ 0.613921 0.75142 0.386536 -0.58347
O_ O_ 0.647625 0.599066 0.427444 -0.58347
O_ O_ 0.647018 0.603091 0.38086 -0.58347
O_ O_ 0.565162 0.67398 0.426411 -0.58347
O_ O_ 0.555595 0.660582 0.380899 -0.58347
O_ O_ 0.547637 0.726341 0.0836659 -0.46727
O_ O_ 0.721074 0.701626 0.0887509 -0.46727
O_ O_ 0.523106 0.667946 0.22648 -0.46727
O_ O_ 0.689911 0.624399 0.23148 -0.46727
O_ O_ 0.780066 0.836335 0.1782 -0.58347
O_ O_ 0.787866 0.816406 0.134058 -0.58347
O_ O_ 0.850704 0.756777 0.177467 -0.58347
O_ O_ 0.870877 0.744959 0.132412 -0.58347
O_ O_ 0.863362 0.902368 0.175667 -0.58347
O_ O_ 0.85519 0.897785 0.129098 -0.58347
O_ O_ 0.931685 0.823106 0.178549 -0.58347
O_ O_ 0.938443 0.830916 0.132296 -0.58347
O_ O_ 0.935463 0.779226 0.322566 -0.46727
O_ O_ 0.765764 0.813618 0.337657 -0.46727
O_ O_ 0.972291 0.785832 0.472049 -0.46727
O_ O_ 0.805653 0.817591 0.485579 -0.46727
Zn Zn 0.619725 0.693984 0.884164 0.90689
Zn Zn 0.62841 0.686672 0.930714 0.90689
Zn Zn 0.871841 0.806906 0.630264 0.90689
Zn Zn 0.867047 0.81399 0.67913 0.90689
H_ H_ 0.793399 0.701337 0.945008 0.11455
H_ H_ 0.864735 0.668416 0.84878 0.11455
H_ H_ 0.771858 0.664099 0.85709 0.11455
H_ H_ 0.879802 0.70142 0.96393 0.11455
H_ H_ 0.971455 0.696637 0.958747 0.11455
H_ H_ 0.951894 0.657423 0.868459 0.11455
H_ H_ 0.619741 0.524241 0.94722 0.11455
H_ H_ 0.636436 0.942653 0.84695 0.11455
H_ H_ 0.655573 0.534158 0.85704 0.11455
H_ H_ 0.607583 0.937242 0.963803 0.11455
H_ H_ 0.586168 0.846713 0.956757 0.11455
H_ H_ 0.647009 0.856714 0.87471 0.11455
H_ H_ 0.600785 0.602325 0.969379 0.11455
H_ H_ 0.557527 0.595507 0.513769 0.11455
H_ H_ 0.601638 0.630593 0.554713 0.11455
H_ H_ 0.686764 0.751304 0.975727 0.11455
H_ H_ 0.732282 0.795739 0.513678 0.11455
H_ H_ 0.712764 0.773181 0.565633 0.11455
H_ H_ 0.516862 0.69235 0.619425 0.11455
H_ H_ 0.504019 0.687202 0.671168 0.11455
H_ H_ 0.762557 0.652257 0.643772 0.11455
H_ H_ 0.746383 0.652388 0.694209 0.11455
H_ H_ 0.54108 0.602287 0.750583 0.11455
H_ H_ 0.529675 0.572521 0.802046 0.11455
H_ H_ 0.561187 0.629127 0.840978 0.11455
H_ H_ 0.656419 0.744205 0.75565 0.11455
H_ H_ 0.6966 0.784334 0.796223 0.11455
H_ H_ 0.679227 0.763346 0.843678 0.11455
H_ H_ 0.702885 0.799569 0.695153 0.11455
H_ H_ 0.62938 0.829929 0.597886 0.11455
H_ H_ 0.718918 0.826572 0.604567 0.11455
H_ H_ 0.61632 0.817866 0.715318 0.11455
H_ H_ 0.522397 0.807841 0.70925 0.11455
H_ H_ 0.544708 0.822104 0.6161 0.11455
H_ H_ 0.867201 0.979946 0.686979 0.11455
H_ H_ 0.860602 0.564533 0.601242 0.11455
H_ H_ 0.881568 0.968536 0.596247 0.11455
H_ H_ 0.871537 0.564589 0.718789 0.11455
H_ H_ 0.872286 0.657069 0.714266 0.11455
H_ H_ 0.863271 0.645486 0.623516 0.11455
H_ H_ 0.925972 0.891092 0.712796 0.11455
H_ H_ 0.940378 0.92251 0.763224 0.11455
H_ H_ 0.903092 0.878553 0.803459 0.11455
H_ H_ 0.796652 0.762658 0.723254 0.11455
H_ H_ 0.78467 0.700305 0.760486 0.11455
H_ H_ 0.809169 0.71979 0.807771 0.11455
H_ H_ 0.992249 0.790003 0.873108 0.11455
H_ H_ 0.999561346 0.813383 0.923126 0.11455
H_ H_ 0.741372 0.837262 0.888749 0.11455
H_ H_ 0.752594 0.853331 0.940205 0.11455
H_ H_ 0.951647 0.909302 1.00176464 0.11455
H_ H_ 0.954815 0.924524 0.543251 0.11455
H_ H_ 0.929387 0.872597 0.585934 0.11455
H_ H_ 0.84833 0.731969 0.507559 0.11455
H_ H_ 0.82387 0.681533 0.550342 0.11455
H_ H_ 0.834508 0.725017 0.598893 0.11455
C_ C_ 0.721694 0.69377 0.902748 0.68181
C_ C_ 0.777724 0.685203 0.900183 -0.05681
C_ C_ 0.808556 0.691001 0.92344 -0.08735
C_ C_ 0.861315 0.688135 0.919657 -0.05681
C_ C_ 0.884175 0.684504 0.891149 -0.05681
C_ C_ 0.850516 0.674859 0.869089 -0.08735
C_ C_ 0.797752 0.675101 0.873693 -0.08735
C_ C_ 0.894773 0.697598 0.943038 -0.08735
C_ C_ 0.947514 0.69758 0.939176 -0.08735
C_ C_ 0.969522 0.682092 0.912533 -0.05681
C_ C_ 0.936766 0.674385 0.888599 -0.08735
C_ C_ 0.619446 0.789542 0.909948 0.68181
C_ C_ 0.635917 0.592893 0.902706 0.68181
C_ C_ 0.643409 0.536057 0.901715 -0.05681
C_ C_ 0.625297 0.00672936 0.922099 -0.08735
C_ C_ 0.618924 0.95255 0.918741 -0.05681
C_ C_ 0.625397 0.929081 0.891767 -0.05681
C_ C_ 0.635702 0.959837 0.868616 -0.08735
C_ C_ 0.643176 0.0131324 0.871951 -0.08735
C_ C_ 0.604093 0.921974 0.942856 -0.08735
C_ C_ 0.601015 0.869719 0.939225 -0.08735
C_ C_ 0.616524 0.845403 0.913369 -0.05681
C_ C_ 0.63363 0.877121 0.892414 -0.08735
C_ C_ 0.524631 0.68305 0.9095 0.68181
C_ C_ 0.598585 0.631242 0.985538 0.1947
C_ C_ 0.587726 0.620835 0.511383 -0.08735
C_ C_ 0.61423 0.639553 0.533388 -0.08735
C_ C_ 0.653807 0.674398 0.529414 -0.05681
C_ C_ 0.664254 0.69034 0.501138 0.18498
C_ C_ 0.66762 0.748323 0.997105 -0.08735
C_ C_ 0.707623 0.764013 0.518918 -0.08735
C_ C_ 0.697176 0.749715 0.547921 -0.08735
C_ C_ 0.668344 0.706032 0.553326 0.18498
C_ C_ 0.695492 0.677812 0.601644 0.44287
C_ C_ 0.609317 0.702528 0.594619 0.44287
C_ C_ 0.59879 0.693293 0.622881 -0.05681
C_ C_ 0.548865 0.690959 0.634068 -0.08735
C_ C_ 0.540749 0.68336 0.662759 -0.08735
C_ C_ 0.581499 0.688042 0.682303 -0.05681
C_ C_ 0.630209 0.681347 0.672683 -0.05681
C_ C_ 0.638556 0.68366 0.642353 -0.05681
C_ C_ 0.686158 0.677634 0.631545 -0.05681
C_ C_ 0.724996 0.665964 0.650665 -0.08735
C_ C_ 0.716348 0.664031 0.680322 -0.08735
C_ C_ 0.667524 0.66926 0.691053 -0.05681
C_ C_ 0.654696 0.661613 0.720716 0.44287
C_ C_ 0.570263 0.686891 0.713129 0.44287
C_ C_ 0.597162 0.659719 0.760887 0.18498
C_ C_ 0.564429 0.61846 0.768469 -0.08735
C_ C_ 0.551339 0.607212 0.796507 -0.08735
C_ C_ 0.567113 0.639526 0.818799 -0.08735
C_ C_ 0.603297 0.677453 0.812765 0.18498
C_ C_ 0.618679 0.687561 0.783466 -0.05681
C_ C_ 0.643069 0.732836 0.777812 -0.08735
C_ C_ 0.663683 0.760417 0.800402 -0.08735
C_ C_ 0.658392 0.744002 0.828508 0.1947
C_ C_ 0.77038 0.808634 0.653016 0.68181
C_ C_ 0.71673 0.810049 0.649803 -0.05681
C_ C_ 0.686177 0.809963 0.673713 -0.08735
C_ C_ 0.633233 0.812999 0.670509 -0.05681
C_ C_ 0.612419 0.817716 0.642829 -0.05681
C_ C_ 0.644143 0.823398 0.619479 -0.08735
C_ C_ 0.695577 0.818526 0.622632 -0.08735
C_ C_ 0.599909 0.811444 0.693842 -0.08735
C_ C_ 0.545733 0.810101 0.689814 -0.08735
C_ C_ 0.525645 0.81154 0.661644 -0.05681
C_ C_ 0.559517 0.819072 0.637925 -0.08735
C_ C_ 0.874838 0.71418 0.666474 0.68181
C_ C_ 0.866205 0.908561 0.646022 0.68181
C_ C_ 0.873459 0.964607 0.643002 -0.05681
C_ C_ 0.859103 0.496282 0.675197 -0.08735
C_ C_ 0.864646 0.551171 0.672731 -0.05681
C_ C_ 0.85687 0.575639 0.645696 -0.05681
C_ C_ 0.855668 0.546488 0.621946 -0.08735
C_ C_ 0.878875 0.988208 0.615563 -0.08735
C_ C_ 0.868101 0.582378 0.697335 -0.08735
C_ C_ 0.872488 0.633955 0.695323 -0.08735
C_ C_ 0.8733 0.657976 0.667892 -0.05681
C_ C_ 0.862892 0.628383 0.643684 -0.08735
C_ C_ 0.968815 0.815557 0.658573 0.68181
C_ C_ 0.903313 0.876161 0.731209 0.1947
C_ C_ 0.913738 0.892695 0.758746 -0.08735
C_ C_ 0.896036 0.865723 0.78175 -0.08735
C_ C_ 0.860434 0.826521 0.777911 -0.05681
C_ C_ 0.844601 0.815273 0.749307 0.18498
C_ C_ 0.815617 0.770687 0.744606 -0.08735
C_ C_ 0.805192 0.736519 0.766095 -0.08735
C_ C_ 0.818136 0.748854 0.793665 -0.08735
C_ C_ 0.842955 0.795556 0.801398 0.18498
C_ C_ 0.815628 0.82563 0.848514 0.44287
C_ C_ 0.901942 0.800897 0.842246 0.44287
C_ C_ 0.909625 0.808813 0.872643 -0.05681
C_ C_ 0.957686 0.805951 0.884687 -0.08735
C_ C_ 0.960567 0.812894 0.9145 -0.08735
C_ C_ 0.919985 0.81959 0.932713 -0.05681
C_ C_ 0.874567 0.824633 0.92105 -0.05681
C_ C_ 0.868769 0.82395 0.890766 -0.05681
C_ C_ 0.820395 0.830018 0.878893 -0.05681
C_ C_ 0.778358 0.838757 0.896819 -0.08735
C_ C_ 0.784426 0.842489 0.92667 -0.08735
C_ C_ 0.832244 0.835919 0.939212 -0.05681
C_ C_ 0.839439 0.846901 0.967667 0.44287
C_ C_ 0.924829 0.820479 0.963466 0.44287
C_ C_ 0.900633 0.822895 0.508623 0.18498
C_ C_ 0.923299 0.871656 0.513389 -0.08735
C_ C_ 0.931886 0.88918 0.541208 -0.08735
C_ C_ 0.916119 0.860395 0.56496 -0.08735
C_ C_ 0.890275 0.813139 0.560605 0.18498
C_ C_ 0.881214 0.795314 0.531594 -0.05681
C_ C_ 0.85819 0.74708 0.52814 -0.08735
C_ C_ 0.842087 0.719907 0.553116 -0.08735
C_ C_ 0.849856 0.741859 0.580488 0.1947
N_ N_ 0.622292 0.677028 0.980243 -0.29468
N_ N_ 0.656893 0.691758 0.582921 -0.17154
N_ N_ 0.60678 0.671115 0.731409 -0.17154
N_ N_ 0.62599 0.703694 0.834119 -0.29468
N_ N_ 0.869373 0.837549 0.726839 -0.29468
N_ N_ 0.854107 0.805408 0.830989 -0.17154
N_ N_ 0.886534 0.834643 0.980341 -0.17154
N_ N_ 0.875018 0.785408 0.583159 -0.29468
O_ O_ 0.701434 0.706255 0.925736 -0.58347
O_ O_ 0.694447 0.68785 0.880549 -0.58347
O_ O_ 0.615271 0.761061 0.932047 -0.58347
O_ O_ 0.626013 0.771439 0.885437 -0.58347
O_ O_ 0.645035 0.615515 0.926114 -0.58347
O_ O_ 0.617585 0.616892 0.881463 -0.58347
O_ O_ 0.555907 0.671349 0.928933 -0.58347
O_ O_ 0.541489 0.694048 0.884608 -0.58347
O_ O_ 0.576157 0.730368 0.580254 -0.46727
O_ O_ 0.742603 0.67586 0.592075 -0.46727
O_ O_ 0.528493 0.70311 0.724421 -0.46727
O_ O_ 0.689258 0.643633 0.738736 -0.46727
O_ O_ 0.795021 0.817178 0.675871 -0.58347
O_ O_ 0.797094 0.796366 0.631551 -0.58347
O_ O_ 0.867467 0.741802 0.688722 -0.58347
O_ O_ 0.881537 0.733065 0.641682 -0.58347
O_ O_ 0.874726 0.887831 0.669742 -0.58347
O_ O_ 0.86061 0.881586 0.622646 -0.58347
O_ O_ 0.940443 0.809802 0.680523 -0.58347
O_ O_ 0.948739 0.818902 0.634254 -0.58347
O_ O_ 0.93919 0.782622 0.826851 -0.46727
O_ O_ 0.77139 0.836084 0.835764 -0.46727
O_ O_ 0.969636 0.813011 0.975117 -0.46727
O_ O_ 0.80134 0.86264 0.983659 -0.46727
_cell_length_a 26.376
_cell_length_b 26.400000238300095
_cell_length_c 46.67800035477134
_cell_angle_alpha 90.00700052986613
_cell_angle_beta 89.99899961309502
_cell_angle_gamma 90.45000003183146
_symmetry_space_group_name_H-M         'P 1'
_symmetry_Int_Tables_number            1
loop_
_symmetry_equiv_pos_as_xyz
   'x, y, z'
                         
loop_
_atom_site_label
_atom_site_type_symbol
_atom_site_fract_x 
_atom_site_fract_y
_atom_site_fract_z
_atom_site_charge
Zn Zn 0.135376 0.187873 0.380408 0.90689
Zn Zn 0.145213 0.181499 0.428094 0.90689
Zn Zn 0.374822 0.311621 0.131918 0.90689
Zn Zn 0.362743 0.31789 0.180589 0.90689
H_ H_ 0.308998 0.172604 0.448682 0.11455
H_ H_ 0.383654 0.179305 0.35034 0.11455
H_ H_ 0.29583 0.193608 0.357453 0.11455
H_ H_ 0.398589 0.168292 0.468163 0.11455
H_ H_ 0.488465 0.168129 0.460138 0.11455
H_ H_ 0.467283 0.174043 0.37141 0.11455
H_ H_ 0.157361 0.0146177 0.441756 0.11455
H_ H_ 0.178209 0.441985 0.348113 0.11455
H_ H_ 0.113148 0.026132 0.351953 0.11455
H_ H_ 0.115909 0.432143 0.462795 0.11455
H_ H_ 0.120076 0.337972 0.45903 0.11455
H_ H_ 0.162463 0.352308 0.370598 0.11455
H_ H_ 0.0849499 0.109051 0.464499 0.11455
H_ H_ 0.0733926 0.0774093 0.0190258 0.11455
H_ H_ 0.101576 0.129085 0.0563545 0.11455
H_ H_ 0.200403 0.247029 0.472787 0.11455
H_ H_ 0.201058 0.315446 0.0139663 0.11455
H_ H_ 0.169805 0.295632 0.0632558 0.11455
H_ H_ 0.0125299 0.222378 0.129797 0.11455
H_ H_ 0.00785722 0.222919 0.180644 0.11455
H_ H_ 0.259265 0.166049 0.134096 0.11455
H_ H_ 0.251744 0.138199 0.181892 0.11455
H_ H_ 0.0867058 0.087272 0.251224 0.11455
H_ H_ 0.058005 0.0712968 0.300154 0.11455
H_ H_ 0.0735362 0.12898 0.336527 0.11455
H_ H_ 0.183639 0.242099 0.25664 0.11455
H_ H_ 0.221986 0.279873 0.296377 0.11455
H_ H_ 0.197327 0.264723 0.346329 0.11455
H_ H_ 0.197962 0.289406 0.194633 0.11455
H_ H_ 0.130544 0.338249 0.0978905 0.11455
H_ H_ 0.21643 0.33999 0.10618 0.11455
H_ H_ 0.110281 0.303722 0.21593 0.11455
H_ H_ 0.0194597 0.3229 0.209697 0.11455
H_ H_ 0.0408161 0.333103 0.121364 0.11455
H_ H_ 0.36322 0.489147 0.196116 0.11455
H_ H_ 0.369257 0.0650629 0.0955557 0.11455
H_ H_ 0.338151 0.46606 0.106263 0.11455
H_ H_ 0.380925 0.0657321 0.213898 0.11455
H_ H_ 0.374471 0.160145 0.211533 0.11455
H_ H_ 0.3737 0.148271 0.120081 0.11455
H_ H_ 0.430034 0.392296 0.212248 0.11455
H_ H_ 0.458201 0.41961 0.259526 0.11455
H_ H_ 0.41945 0.374505 0.304225 0.11455
H_ H_ 0.313244 0.26029 0.226502 0.11455
H_ H_ 0.27906 0.20917 0.266595 0.11455
H_ H_ 0.320561 0.221033 0.315584 0.11455
H_ H_ 0.503215 0.287979 0.377228 0.11455
H_ H_ 0.507048 0.274981 0.431681 0.11455
H_ H_ 0.254692 0.339218 0.386071 0.11455
H_ H_ 0.258926 0.339738 0.43835 0.11455
H_ H_ 0.413053 0.412168 0.503379 0.11455
H_ H_ 0.450638 0.437476 0.0495431 0.11455
H_ H_ 0.425597 0.377191 0.0885432 0.11455
H_ H_ 0.340045 0.254485 0.00685562 0.11455
H_ H_ 0.296754 0.212332 0.0482616 0.11455
H_ H_ 0.317632 0.240199 0.0988583 0.11455
C_ C_ 0.236746 0.184301 0.40733 0.68181
C_ C_ 0.293502 0.175112 0.403073 -0.05681
C_ C_ 0.325837 0.174476 0.42741 -0.08735
C_ C_ 0.378721 0.171286 0.423247 -0.05681
C_ C_ 0.398557 0.169451 0.39527 -0.05681
C_ C_ 0.36695 0.175451 0.371475 -0.08735
C_ C_ 0.315494 0.182215 0.375659 -0.08735
C_ C_ 0.411854 0.166928 0.44629 -0.08735
C_ C_ 0.463043 0.162675 0.442409 -0.08735
C_ C_ 0.486338 0.160622 0.414574 -0.05681
C_ C_ 0.452583 0.164695 0.391145 -0.08735
C_ C_ 0.132356 0.282323 0.410435 0.68181
C_ C_ 0.139438 0.0865824 0.397649 0.68181
C_ C_ 0.136469 0.0298023 0.396201 -0.05681
C_ C_ 0.134273 0.497095 0.421337 -0.08735
C_ C_ 0.134246 0.443944 0.41905 -0.05681
C_ C_ 0.150331 0.422703 0.39319 -0.05681
C_ C_ 0.163911 0.453599 0.369609 -0.08735
C_ C_ 0.162233 0.507461 0.371508 -0.08735
C_ C_ 0.126353 0.413736 0.443077 -0.08735
C_ C_ 0.127313 0.361071 0.440123 -0.08735
C_ C_ 0.13914 0.337602 0.413609 -0.05681
C_ C_ 0.151867 0.368606 0.390492 -0.08735
C_ C_ 0.0416034 0.184009 0.404165 0.68181
C_ C_ 0.0996571 0.133307 0.481993 0.1947
C_ C_ 0.0909947 0.114721 0.013302 -0.08735
C_ C_ 0.107145 0.144753 0.0353884 -0.08735
C_ C_ 0.135836 0.186911 0.0303062 -0.05681
C_ C_ 0.147724 0.200587 1.00153264 0.18498
C_ C_ 0.191611 0.237964 0.493651 -0.08735
C_ C_ 0.183854 0.279764 0.0195057 -0.08735
C_ C_ 0.169076 0.267297 0.0463887 -0.08735
C_ C_ 0.149931 0.219522 0.0522634 0.18498
C_ C_ 0.182307 0.186614 0.0966793 0.44287
C_ C_ 0.0975282 0.21231 0.0956776 0.44287
C_ C_ 0.0917948 0.203104 0.125797 -0.05681
C_ C_ 0.0460436 0.211766 0.14128 -0.08735
C_ C_ 0.0433757 0.207443 0.170861 -0.08735
C_ C_ 0.0857781 0.194706 0.186737 -0.05681
C_ C_ 0.13346 0.184387 0.172093 -0.05681
C_ C_ 0.135488 0.189789 0.14159 -0.05681
C_ C_ 0.180928 0.180616 0.126403 -0.05681
C_ C_ 0.221625 0.162979 0.141674 -0.08735
C_ C_ 0.219968 0.156476 0.171615 -0.08735
C_ C_ 0.174605 0.167235 0.186942 -0.05681
C_ C_ 0.173521 0.167735 0.217068 0.44287
C_ C_ 0.0843265 0.186153 0.21668 0.44287
C_ C_ 0.123431 0.156803 0.260842 0.18498
C_ C_ 0.0992167 0.10824 0.268094 -0.08735
C_ C_ 0.083735 0.0987921 0.295623 -0.08735
C_ C_ 0.0963017 0.131825 0.317516 -0.08735
C_ C_ 0.128041 0.173567 0.312418 0.18498
C_ C_ 0.142723 0.186204 0.283042 -0.05681
C_ C_ 0.169625 0.231618 0.277381 -0.08735
C_ C_ 0.18893 0.256796 0.299825 -0.08735
C_ C_ 0.176275 0.244559 0.328624 0.1947
C_ C_ 0.269545 0.31034 0.155841 0.68181
C_ C_ 0.212908 0.309269 0.150087 -0.05681
C_ C_ 0.181817 0.299641 0.173461 -0.08735
C_ C_ 0.129327 0.312321 0.170368 -0.05681
C_ C_ 0.108746 0.324222 0.14314 -0.05681
C_ C_ 0.140731 0.329827 0.119927 -0.08735
C_ C_ 0.192652 0.325482 0.123599 -0.08735
C_ C_ 0.0961512 0.315378 0.195352 -0.08735
C_ C_ 0.0446626 0.322883 0.19098 -0.08735
C_ C_ 0.0220769 0.324642 0.164038 -0.05681
C_ C_ 0.0550067 0.323585 0.140547 -0.08735
C_ C_ 0.370092 0.216542 0.16295 0.68181
C_ C_ 0.356931 0.413343 0.151863 0.68181
C_ C_ 0.356236 0.468875 0.149768 -0.05681
C_ C_ 0.361818 0.00285514 0.170769 -0.08735
C_ C_ 0.370412 0.0541515 0.168123 -0.05681
C_ C_ 0.374235 0.0771448 0.141186 -0.05681
C_ C_ 0.368722 0.0466907 0.115984 -0.08735
C_ C_ 0.345552 0.490914 0.123039 -0.08735
C_ C_ 0.376015 0.0839937 0.193263 -0.08735
C_ C_ 0.377487 0.137663 0.191465 -0.08735
C_ C_ 0.371539 0.160376 0.165199 -0.05681
C_ C_ 0.373074 0.130687 0.139711 -0.08735
C_ C_ 0.467782 0.320072 0.157999 0.68181
C_ C_ 0.414015 0.371706 0.231167 0.1947
C_ C_ 0.429312 0.388872 0.258747 -0.08735
C_ C_ 0.409277 0.363213 0.282899 -0.08735
C_ C_ 0.374321 0.32342 0.280717 -0.05681
C_ C_ 0.363308 0.307523 0.252004 0.18498
C_ C_ 0.324612 0.271071 0.24888 -0.08735
C_ C_ 0.309427 0.239785 0.271573 -0.08735
C_ C_ 0.331117 0.246278 0.297648 -0.08735
C_ C_ 0.361107 0.289773 0.304088 0.18498
C_ C_ 0.332072 0.323361 0.349035 0.44287
C_ C_ 0.41585 0.293654 0.345951 0.44287
C_ C_ 0.422701 0.29914 0.375983 -0.05681
C_ C_ 0.468577 0.292336 0.38959 -0.08735
C_ C_ 0.470551 0.2912 0.419867 -0.08735
C_ C_ 0.429122 0.303776 0.436855 -0.05681
C_ C_ 0.383997 0.312213 0.42298 -0.05681
C_ C_ 0.380009 0.310529 0.392374 -0.05681
C_ C_ 0.333407 0.326278 0.379187 -0.05681
C_ C_ 0.289623 0.331543 0.396952 -0.08735
C_ C_ 0.292116 0.330863 0.426061 -0.08735
C_ C_ 0.339737 0.323465 0.438788 -0.05681
C_ C_ 0.343493 0.32537 0.468733 0.44287
C_ C_ 0.432761 0.313296 0.466162 0.44287
C_ C_ 0.383677 0.349626 0.0114906 0.18498
C_ C_ 0.405426 0.397284 0.0188203 -0.08735
C_ C_ 0.42097 0.408304 0.0464641 -0.08735
C_ C_ 0.406993 0.374797 0.0682701 -0.08735
C_ C_ 0.379228 0.329581 0.0635481 0.18498
C_ C_ 0.370707 0.316491 0.0348749 -0.05681
C_ C_ 0.345546 0.269225 0.0289916 -0.08735
C_ C_ 0.321376 0.244778 0.0526137 -0.08735
C_ C_ 0.333708 0.259509 0.0806969 0.1947
N_ N_ 0.134421 0.170573 0.476791 -0.29468
N_ N_ 0.142262 0.20515 0.0820443 -0.17154
N_ N_ 0.127425 0.171761 0.230293 -0.17154
N_ N_ 0.147083 0.201878 0.333898 -0.29468
N_ N_ 0.382337 0.331858 0.228113 -0.29468
N_ N_ 0.370176 0.303045 0.333694 -0.17154
N_ N_ 0.38894 0.32098 0.482166 -0.17154
N_ N_ 0.365537 0.297806 0.0848053 -0.29468
O_ O_ 0.221559 0.192229 0.432246 -0.58347
O_ O_ 0.210064 0.189026 0.385579 -0.58347
O_ O_ 0.134986 0.254016 0.431745 -0.58347
O_ O_ 0.128503 0.262172 0.385597 -0.58347
O_ O_ 0.14325 0.105321 0.421913 -0.58347
O_ O_ 0.141311 0.1123 0.374619 -0.58347
O_ O_ 0.0699412 0.174649 0.425733 -0.58347
O_ O_ 0.0604501 0.188116 0.379275 -0.58347
O_ O_ 0.0575708 0.226382 0.0813717 -0.46727
O_ O_ 0.226699 0.189089 0.0841659 -0.46727
O_ O_ 0.0406554 0.18542 0.231796 -0.46727
O_ O_ 0.215893 0.155485 0.23212 -0.46727
O_ O_ 0.287272 0.314631 0.181126 -0.58347
O_ O_ 0.298769 0.300337 0.135711 -0.58347
O_ O_ 0.365298 0.244479 0.18517 -0.58347
O_ O_ 0.379839 0.237519 0.138026 -0.58347
O_ O_ 0.359978 0.394015 0.176183 -0.58347
O_ O_ 0.36143 0.386414 0.129318 -0.58347
O_ O_ 0.439022 0.313787 0.179483 -0.58347
O_ O_ 0.449282 0.327889 0.13282 -0.58347
O_ O_ 0.452557 0.27213 0.330992 -0.46727
O_ O_ 0.288666 0.327162 0.335404 -0.46727
O_ O_ 0.473234 0.302162 0.479981 -0.46727
O_ O_ 0.301966 0.330288 0.48472 -0.46727
Zn Zn 0.125331 0.19411 0.882463 0.90689
Zn Zn 0.130773 0.183445 0.930442 0.90689
Zn Zn 0.379022 0.311361 0.632963 0.90689
Zn Zn 0.370206 0.316294 0.681286 0.90689
H_ H_ 0.304145 0.197075 0.94856 0.11455
H_ H_ 0.366269 0.171735 0.849335 0.11455
H_ H_ 0.279678 0.184883 0.856491 0.11455
H_ H_ 0.39118 0.179315 0.964284 0.11455
H_ H_ 0.479865 0.198752 0.957444 0.11455
H_ H_ 0.458426 0.185791 0.865993 0.11455
H_ H_ 0.118826 0.023336 0.941957 0.11455
H_ H_ 0.103593 0.43776 0.850963 0.11455
H_ H_ 0.123233 0.0339558 0.849865 0.11455
H_ H_ 0.117353 0.432187 0.969302 0.11455
H_ H_ 0.109772 0.342072 0.961774 0.11455
H_ H_ 0.107951 0.355314 0.871383 0.11455
H_ H_ 0.0849097 0.109992 0.967895 0.11455
H_ H_ 0.0672093 0.0832897 0.514348 0.11455
H_ H_ 0.100818 0.130184 0.553629 0.11455
H_ H_ 0.189893 0.255053 0.974758 0.11455
H_ H_ 0.223129 0.304562 0.514146 0.11455
H_ H_ 0.211981 0.27583 0.563156 0.11455
H_ H_ 0.0124028 0.216313 0.622578 0.11455
H_ H_ -0.0048960000000000115 0.188368 0.67096 0.11455
H_ H_ 0.255445 0.162793 0.640259 0.11455
H_ H_ 0.23833 0.150574 0.690362 0.11455
H_ H_ 0.0474483 0.101788 0.752103 0.11455
H_ H_ 0.0196911 0.0893072 0.801614 0.11455
H_ H_ 0.0552759 0.144413 0.840671 0.11455
H_ H_ 0.155163 0.251516 0.756539 0.11455
H_ H_ 0.205074 0.29141 0.797171 0.11455
H_ H_ 0.195377 0.255804 0.846938 0.11455
H_ H_ 0.197987 0.288608 0.692812 0.11455
H_ H_ 0.132776 0.349708 0.599357 0.11455
H_ H_ 0.225501 0.349362 0.609451 0.11455
H_ H_ 0.109939 0.299848 0.711868 0.11455
H_ H_ 0.0186587 0.305259 0.704807 0.11455
H_ H_ 0.0455556 0.33662 0.613097 0.11455
H_ H_ 0.352698 0.4811 0.692037 0.11455
H_ H_ 0.320217 0.0591287 0.603766 0.11455
H_ H_ 0.380321 0.46923 0.600186 0.11455
H_ H_ 0.417012 0.0613001 0.709309 0.11455
H_ H_ 0.412311 0.158056 0.706703 0.11455
H_ H_ 0.33318 0.143601 0.624795 0.11455
H_ H_ 0.413849 0.406254 0.718971 0.11455
H_ H_ 0.421038 0.438606 0.765237 0.11455
H_ H_ 0.391985 0.387873 0.805624 0.11455
H_ H_ 0.32449 0.249185 0.725908 0.11455
H_ H_ 0.299274 0.194832 0.765678 0.11455
H_ H_ 0.322168 0.221222 0.815272 0.11455
H_ H_ 0.484809 0.292416 0.878055 0.11455
H_ H_ 0.498046 0.315477 0.928353 0.11455
H_ H_ 0.234976 0.340972 0.884628 0.11455
H_ H_ 0.246411 0.35359 0.937433 0.11455
H_ H_ 0.413982 0.426656 0.0017000000000000348 0.11455
H_ H_ 0.452814 0.427767 0.550176 0.11455
H_ H_ 0.43992 0.370361 0.588941 0.11455
H_ H_ 0.349234 0.240558 0.510792 0.11455
H_ H_ 0.317057 0.195017 0.552957 0.11455
H_ H_ 0.314152 0.236344 0.599314 0.11455
C_ C_ 0.228438 0.187953 0.905483 0.68181
C_ C_ 0.28498 0.191019 0.903247 -0.05681
C_ C_ 0.318097 0.193638 0.926825 -0.08735
C_ C_ 0.370619 0.188447 0.921712 -0.05681
C_ C_ 0.389429 0.181964 0.893341 -0.05681
C_ C_ 0.355588 0.183227 0.870648 -0.08735
C_ C_ 0.304625 0.187807 0.875123 -0.08735
C_ C_ 0.405329 0.18881 0.943736 -0.08735
C_ C_ 0.458343 0.187794 0.938738 -0.08735
C_ C_ 0.478242 0.188769 0.91168 -0.05681
C_ C_ 0.443035 0.186761 0.888607 -0.08735
C_ C_ 0.123801 0.284199 0.91299 0.68181
C_ C_ 0.128178 0.0898715 0.899166 0.68181
C_ C_ 0.121929 0.0338594 0.897552 -0.05681
C_ C_ 0.123362 0.501916 0.925434 -0.08735
C_ C_ 0.121095 0.44717 0.92278 -0.05681
C_ C_ 0.113075 0.42517 0.895974 -0.05681
C_ C_ 0.106831 0.454299 0.87124 -0.08735
C_ C_ 0.106692 0.506351 0.872849 -0.08735
C_ C_ 0.119961 0.414768 0.947075 -0.08735
C_ C_ 0.117948 0.364099 0.944275 -0.08735
C_ C_ 0.119316 0.341483 0.91707 -0.05681
C_ C_ 0.113043 0.372828 0.892683 -0.08735
C_ C_ 0.031551 0.180458 0.905884 0.68181
C_ C_ 0.0995235 0.131444 0.985577 0.1947
C_ C_ 0.0882767 0.118511 0.509739 -0.08735
C_ C_ 0.110289 0.143858 0.53216 -0.08735
C_ C_ 0.143905 0.184693 0.528102 -0.05681
C_ C_ 0.156136 0.198054 0.499375 0.18498
C_ C_ 0.172655 0.247692 0.996291 -0.08735
C_ C_ 0.21121 0.266529 0.517033 -0.08735
C_ C_ 0.202335 0.249988 0.54504 -0.08735
C_ C_ 0.168087 0.211655 0.551858 0.18498
C_ C_ 0.19131 0.187384 0.60159 0.44287
C_ C_ 0.10738 0.212436 0.59277 0.44287
C_ C_ 0.0942949 0.200563 0.62225 -0.05681
C_ C_ 0.0431425 0.199527 0.633894 -0.08735
C_ C_ 0.0339205 0.19213 0.663791 -0.08735
C_ C_ 0.0717771 0.183604 0.682826 -0.05681
C_ C_ 0.121946 0.187654 0.671387 -0.05681
C_ C_ 0.132035 0.188951 0.641814 -0.05681
C_ C_ 0.182121 0.182256 0.630775 -0.05681
C_ C_ 0.220727 0.171255 0.649744 -0.08735
C_ C_ 0.211971 0.167561 0.678646 -0.08735
C_ C_ 0.163815 0.177822 0.690837 -0.05681
C_ C_ 0.153809 0.169703 0.720415 0.44287
C_ C_ 0.0654823 0.1788 0.712604 0.44287
C_ C_ 0.0935711 0.168816 0.761156 0.18498
C_ C_ 0.0632355 0.125633 0.769219 -0.08735
C_ C_ 0.0458759 0.119587 0.797551 -0.08735
C_ C_ 0.0706414 0.145406 0.819616 -0.08735
C_ C_ 0.106594 0.184915 0.812986 0.18498
C_ C_ 0.118002 0.196876 0.783073 -0.05681
C_ C_ 0.152513 0.235973 0.777751 -0.08735
C_ C_ 0.176344 0.261027 0.800948 -0.08735
C_ C_ 0.17307 0.241242 0.828818 0.1947
C_ C_ 0.276145 0.306685 0.654522 0.68181
C_ C_ 0.218872 0.313881 0.6513 -0.05681
C_ C_ 0.183499 0.302205 0.672856 -0.08735
C_ C_ 0.13 0.307223 0.667625 -0.05681
C_ C_ 0.110046 0.31911 0.640794 -0.05681
C_ C_ 0.145826 0.334573 0.619822 -0.08735
C_ C_ 0.199187 0.334321 0.626174 -0.08735
C_ C_ 0.0967305 0.307492 0.690899 -0.08735
C_ C_ 0.044668 0.306382 0.686271 -0.08735
C_ C_ 0.0247284 0.315169 0.6582 -0.05681
C_ C_ 0.056843 0.323392 0.634873 -0.08735
C_ C_ 0.376195 0.21459 0.663559 0.68181
C_ C_ 0.369423 0.41135 0.650284 0.68181
C_ C_ 0.364903 0.468163 0.646467 -0.05681
C_ C_ 0.382632 -0.002047000000000021 0.671461 -0.08735
C_ C_ 0.379841 0.0503714 0.669665 -0.05681
C_ C_ 0.35959 0.073675 0.64418 -0.05681
C_ C_ 0.334514 0.0423764 0.623181 -0.08735
C_ C_ 0.376696 0.490962 0.620022 -0.08735
C_ C_ 0.399433 0.0808601 0.691051 -0.08735
C_ C_ 0.39653 0.13406 0.689363 -0.08735
C_ C_ 0.376412 0.157904 0.664439 -0.05681
C_ C_ 0.353383 0.126073 0.643134 -0.08735
C_ C_ 0.472783 0.31683 0.659772 0.68181
C_ C_ 0.392173 0.386091 0.734081 0.1947
C_ C_ 0.393981 0.405743 0.761177 -0.08735
C_ C_ 0.378358 0.376053 0.784756 -0.08735
C_ C_ 0.356413 0.328426 0.780575 -0.05681
C_ C_ 0.354911 0.309964 0.751525 0.18498
C_ C_ 0.333407 0.262769 0.746616 -0.08735
C_ C_ 0.320251 0.232196 0.769626 -0.08735
C_ C_ 0.326004 0.24785 0.798363 -0.08735
C_ C_ 0.348493 0.29532 0.80368 0.18498
C_ C_ 0.312539 0.321811 0.848071 0.44287
C_ C_ 0.400128 0.300864 0.845947 0.44287
C_ C_ 0.405083 0.31048 0.875322 -0.05681
C_ C_ 0.452311 0.307151 0.889172 -0.08735
C_ C_ 0.458097 0.316905 0.917677 -0.08735
C_ C_ 0.416504 0.321237 0.934434 -0.05681
C_ C_ 0.367849 0.325783 0.921156 -0.05681
C_ C_ 0.361512 0.319286 0.891073 -0.05681
C_ C_ 0.314754 0.325009 0.878331 -0.05681
C_ C_ 0.271898 0.335213 0.895243 -0.08735
C_ C_ 0.278767 0.347594 0.924052 -0.08735
C_ C_ 0.324207 0.337551 0.93848 -0.05681
C_ C_ 0.33126 0.340858 0.968108 0.44287
C_ C_ 0.421411 0.325864 0.964458 0.44287
C_ C_ 0.391263 0.33573 0.512368 0.18498
C_ C_ 0.41154 0.382348 0.519835 -0.08735
C_ C_ 0.433086 0.391406 0.546139 -0.08735
C_ C_ 0.423836 0.356833 0.568363 -0.08735
C_ C_ 0.392656 0.314841 0.563804 0.18498
C_ C_ 0.381889 0.298947 0.535146 -0.05681
C_ C_ 0.354574 0.255341 0.531485 -0.08735
C_ C_ 0.333464 0.231181 0.555316 -0.08735
C_ C_ 0.335927 0.253858 0.582855 0.1947
N_ N_ 0.129279 0.171935 0.979528 -0.29468
N_ N_ 0.154987 0.202745 0.582509 -0.17154
N_ N_ 0.106945 0.175549 0.730402 -0.17154
N_ N_ 0.132915 0.210725 0.834596 -0.29468
N_ N_ 0.374622 0.337964 0.72945 -0.29468
N_ N_ 0.355445 0.312952 0.832613 -0.17154
N_ N_ 0.378666 0.336922 0.980815 -0.17154
N_ N_ 0.369323 0.294403 0.586471 -0.29468
O_ O_ 0.206266 0.198348 0.929264 -0.58347
O_ O_ 0.20142 0.180496 0.882795 -0.58347
O_ O_ 0.119631 0.255718 0.935427 -0.58347
O_ O_ 0.136533 0.266867 0.888266 -0.58347
O_ O_ 0.145548 0.109788 0.920541 -0.58347
O_ O_ 0.115495 0.117321 0.877685 -0.58347
O_ O_ 0.0616802 0.166511 0.925634 -0.58347
O_ O_ 0.0495351 0.200488 0.88368 -0.58347
O_ O_ 0.0718349 0.231897 0.575598 -0.46727
O_ O_ 0.239772 0.183491 0.592972 -0.46727
O_ O_ 0.0191929 0.188428 0.72338 -0.46727
O_ O_ 0.191088 0.156501 0.737481 -0.46727
O_ O_ 0.294472 0.306199 0.679385 -0.58347
O_ O_ 0.305124 0.318786 0.633785 -0.58347
O_ O_ 0.37844 0.241316 0.685655 -0.58347
O_ O_ 0.370181 0.234563 0.64051 -0.58347
O_ O_ 0.366033 0.392031 0.675813 -0.58347
O_ O_ 0.380334 0.384965 0.628771 -0.58347
O_ O_ 0.445246 0.330203 0.68034 -0.58347
O_ O_ 0.45401 0.305289 0.636495 -0.58347
O_ O_ 0.439352 0.288057 0.831188 -0.46727
O_ O_ 0.269356 0.323929 0.83611 -0.46727
O_ O_ 0.466568 0.333294 0.976102 -0.46727
O_ O_ 0.291478 0.346941 0.984712 -0.46727
Zn Zn 0.131936 0.687083 0.380923 0.90689
Zn Zn 0.139346 0.68281 0.43057 0.90689
Zn Zn 0.361063 0.815591 0.13013 0.90689
Zn Zn 0.35406 0.819683 0.177985 0.90689
H_ H_ 0.310463 0.689346 0.444983 0.11455
H_ H_ 0.377368 0.670795 0.346143 0.11455
H_ H_ 0.288179 0.678494 0.354044 0.11455
H_ H_ 0.397617 0.694423 0.460469 0.11455
H_ H_ 0.488017 0.671334 0.456075 0.11455
H_ H_ 0.459157 0.672256 0.363021 0.11455
H_ H_ 0.13787 0.512608 0.44202 0.11455
H_ H_ 0.126736 0.937819 0.346671 0.11455
H_ H_ 0.175929 0.533407 0.355278 0.11455
H_ H_ 0.154262 0.933677 0.463822 0.11455
H_ H_ 0.165203 0.842431 0.457164 0.11455
H_ H_ 0.134365 0.854963 0.366453 0.11455
H_ H_ 0.0882136 0.600731 0.465473 0.11455
H_ H_ 0.0577447 0.580739 0.0162489 0.11455
H_ H_ 0.108256 0.617506 0.0554371 0.11455
H_ H_ 0.195224 0.740185 0.470853 0.11455
H_ H_ 0.211915 0.801148 0.00771987 0.11455
H_ H_ 0.191132 0.78337 0.0594799 0.11455
H_ H_ 0.00709219 0.709371 0.121501 0.11455
H_ H_ -0.0030010000000000314 0.693398 0.174853 0.11455
H_ H_ 0.258299 0.695652 0.134077 0.11455
H_ H_ 0.252281 0.671352 0.186207 0.11455
H_ H_ 0.0879334 0.584671 0.247987 0.11455
H_ H_ 0.0637741 0.557013 0.298428 0.11455
H_ H_ 0.0837376 0.61977 0.338036 0.11455
H_ H_ 0.157963 0.755207 0.257069 0.11455
H_ H_ 0.195997 0.798429 0.29898 0.11455
H_ H_ 0.183577 0.761436 0.348034 0.11455
H_ H_ 0.186317 0.795767 0.192834 0.11455
H_ H_ 0.116045 0.83292 0.0973231 0.11455
H_ H_ 0.210731 0.827987 0.102797 0.11455
H_ H_ 0.101094 0.791535 0.210998 0.11455
H_ H_ 0.00878179 0.805623 0.207493 0.11455
H_ H_ 0.0292468 0.82065 0.115468 0.11455
H_ H_ 0.349214 0.988612 0.191047 0.11455
H_ H_ 0.347113 0.557219 0.0974938 0.11455
H_ H_ 0.368903 0.972047 0.0998386 0.11455
H_ H_ 0.384877 0.572347 0.214705 0.11455
H_ H_ 0.394842 0.662 0.207238 0.11455
H_ H_ 0.34291 0.64624 0.118965 0.11455
H_ H_ 0.41154 0.887512 0.214189 0.11455
H_ H_ 0.435952 0.913685 0.262269 0.11455
H_ H_ 0.408493 0.863763 0.30594 0.11455
H_ H_ 0.313519 0.742095 0.224391 0.11455
H_ H_ 0.303087 0.68284 0.262589 0.11455
H_ H_ 0.329818 0.700362 0.310194 0.11455
H_ H_ 0.494842 0.767444 0.372549 0.11455
H_ H_ 0.508332 0.795708 0.422473 0.11455
H_ H_ 0.251182 0.843203 0.383403 0.11455
H_ H_ 0.261929 0.84827 0.436668 0.11455
H_ H_ 0.438485 0.91261 0.496195 0.11455
H_ H_ 0.459026 0.934833 0.0513509 0.11455
H_ H_ 0.421348 0.881158 0.0887647 0.11455
H_ H_ 0.344302 0.760975 0.0010135 0.11455
H_ H_ 0.309894 0.70656 0.0390821 0.11455
H_ H_ 0.329489 0.733489 0.0916897 0.11455
C_ C_ 0.235139 0.690308 0.405342 0.68181
C_ C_ 0.29052 0.685442 0.400502 -0.05681
C_ C_ 0.324919 0.684551 0.423298 -0.08735
C_ C_ 0.376893 0.684236 0.418291 -0.05681
C_ C_ 0.396853 0.676568 0.39076 -0.05681
C_ C_ 0.363826 0.676512 0.367745 -0.08735
C_ C_ 0.311161 0.67858 0.372404 -0.08735
C_ C_ 0.411467 0.680532 0.440893 -0.08735
C_ C_ 0.463172 0.67546 0.436694 -0.08735
C_ C_ 0.481496 0.674275 0.408881 -0.05681
C_ C_ 0.446431 0.67197 0.385972 -0.08735
C_ C_ 0.133859 0.782988 0.411867 0.68181
C_ C_ 0.14165 0.586551 0.40039 0.68181
C_ C_ 0.145623 0.529967 0.397803 -0.05681
C_ C_ 0.147083 0.998564 0.420359 -0.08735
C_ C_ 0.139344 0.946176 0.418527 -0.05681
C_ C_ 0.134253 0.923831 0.391462 -0.05681
C_ C_ 0.12548 0.953663 0.367615 -0.08735
C_ C_ 0.123532 1.00569975 0.37027 -0.08735
C_ C_ 0.145649 0.91575 0.443555 -0.08735
C_ C_ 0.152446 0.863723 0.439243 -0.08735
C_ C_ 0.137771 0.839574 0.414193 -0.05681
C_ C_ 0.135105 0.871453 0.389379 -0.08735
C_ C_ 0.0353367 0.674199 0.405811 0.68181
C_ C_ 0.108297 0.619365 0.482948 0.1947
C_ C_ 0.0820953 0.610113 0.0106653 -0.08735
C_ C_ 0.108385 0.63208 0.0336446 -0.08735
C_ C_ 0.135665 0.678223 0.0274449 -0.05681
C_ C_ 0.142511 0.692332 0.999145 0.18498
C_ C_ 0.18809 0.730166 0.492317 -0.08735
C_ C_ 0.189155 0.767601 0.0134579 -0.08735
C_ C_ 0.176935 0.756539 0.0420267 -0.08735
C_ C_ 0.149473 0.712694 0.0488581 0.18498
C_ C_ 0.181126 0.686363 0.0951041 0.44287
C_ C_ 0.0952252 0.705682 0.0918729 0.44287
C_ C_ 0.0875993 0.692147 0.121432 -0.05681
C_ C_ 0.039733 0.700049 0.135695 -0.08735
C_ C_ 0.0346046 0.690229 0.165249 -0.08735
C_ C_ 0.0775241 0.682697 0.182701 -0.05681
C_ C_ 0.124534 0.680999 0.168098 -0.05681
C_ C_ 0.130233 0.683529 0.137734 -0.05681
C_ C_ 0.179351 0.68393 0.124684 -0.05681
C_ C_ 0.222711 0.682566 0.142901 -0.08735
C_ C_ 0.21621 0.676091 0.172772 -0.08735
C_ C_ 0.168334 0.676669 0.185042 -0.05681
C_ C_ 0.163082 0.673206 0.214917 0.44287
C_ C_ 0.0743156 0.678189 0.211288 0.44287
C_ C_ 0.114303 0.659824 0.258718 0.18498
C_ C_ 0.0957059 0.610273 0.264603 -0.08735
C_ C_ 0.0811789 0.596125 0.293667 -0.08735
C_ C_ 0.0881533 0.631146 0.315942 -0.08735
C_ C_ 0.110879 0.678056 0.310804 0.18498
C_ C_ 0.125432 0.693118 0.282285 -0.05681
C_ C_ 0.151864 0.739549 0.278089 -0.08735
C_ C_ 0.166449 0.768988 0.301933 -0.08735
C_ C_ 0.162044 0.745274 0.32901 0.1947
C_ C_ 0.260247 0.814675 0.153223 0.68181
C_ C_ 0.20569 0.813385 0.14923 -0.05681
C_ C_ 0.172592 0.806089 0.172266 -0.08735
C_ C_ 0.119808 0.810616 0.168122 -0.05681
C_ C_ 0.0996786 0.819378 0.14019 -0.05681
C_ C_ 0.130884 0.824298 0.118329 -0.08735
C_ C_ 0.186032 0.824003 0.121506 -0.08735
C_ C_ 0.0871272 0.809063 0.191973 -0.08735
C_ C_ 0.0340682 0.813797 0.187472 -0.08735
C_ C_ 0.0145625 0.821991 0.160724 -0.05681
C_ C_ 0.0460723 0.821055 0.136461 -0.08735
C_ C_ 0.362607 0.717345 0.159686 0.68181
C_ C_ 0.358367 0.915362 0.148398 0.68181
C_ C_ 0.363621 0.971709 0.146175 -0.05681
C_ C_ 0.363972 0.502608 0.173567 -0.08735
C_ C_ 0.367522 0.554948 0.169837 -0.05681
C_ C_ 0.357854 0.575696 0.142234 -0.05681
C_ C_ 0.346552 0.54461 0.118768 -0.08735
C_ C_ 0.364627 -0.005503000000000036 0.119298 -0.08735
C_ C_ 0.383099 0.587433 0.192693 -0.08735
C_ C_ 0.385189 0.64007 0.188525 -0.08735
C_ C_ 0.369973 0.661616 0.161645 -0.05681
C_ C_ 0.356373 0.627738 0.138605 -0.08735
C_ C_ 0.457307 0.813371 0.153397 0.68181
C_ C_ 0.394443 0.868699 0.232422 0.1947
C_ C_ 0.410277 0.880449 0.261246 -0.08735
C_ C_ 0.394789 0.852117 0.284719 -0.08735
C_ C_ 0.366851 0.808815 0.278962 -0.05681
C_ C_ 0.350494 0.796714 0.249099 0.18498
C_ C_ 0.324702 0.752237 0.24484 -0.08735
C_ C_ 0.312865 0.72006 0.267732 -0.08735
C_ C_ 0.329958 0.730939 0.295018 -0.08735
C_ C_ 0.354251 0.775995 0.301683 0.18498
C_ C_ 0.320742 0.805085 0.345942 0.44287
C_ C_ 0.407983 0.779004 0.343287 0.44287
C_ C_ 0.414177 0.789343 0.372542 -0.05681
C_ C_ 0.462787 0.781355 0.384926 -0.08735
C_ C_ 0.470019 0.792539 0.414037 -0.08735
C_ C_ 0.428794 0.805428 0.432201 -0.05681
C_ C_ 0.381279 0.809851 0.418921 -0.05681
C_ C_ 0.375409 0.806221 0.388934 -0.05681
C_ C_ 0.327952 0.817426 0.375151 -0.05681
C_ C_ 0.287496 0.833799 0.392984 -0.08735
C_ C_ 0.291119 0.83048 0.423158 -0.08735
C_ C_ 0.337872 0.821897 0.436145 -0.05681
C_ C_ 0.344828 0.829952 0.466677 0.44287
C_ C_ 0.432999 0.810288 0.462321 0.44287
C_ C_ 0.389539 0.854171 0.00875594 0.18498
C_ C_ 0.415543 0.897631 0.0168712 -0.08735
C_ C_ 0.428696 0.90691 0.0456517 -0.08735
C_ C_ 0.414392 0.872305 0.0662126 -0.08735
C_ C_ 0.383061 0.830906 0.0596288 0.18498
C_ C_ 0.375787 0.818178 0.0310259 -0.05681
C_ C_ 0.345868 0.775669 0.0233074 -0.08735
C_ C_ 0.329799 0.741824 0.0450914 -0.08735
C_ C_ 0.339872 0.757646 0.0743875 0.1947
N_ N_ 0.135789 0.661481 0.476268 -0.29468
N_ N_ 0.140219 0.699898 0.0791883 -0.17154
N_ N_ 0.116481 0.675166 0.228353 -0.17154
N_ N_ 0.134147 0.702727 0.332728 -0.29468
N_ N_ 0.365412 0.826465 0.227167 -0.29468
N_ N_ 0.361837 0.788815 0.330816 -0.17154
N_ N_ 0.391507 0.826405 0.47896 -0.17154
N_ N_ 0.36241 0.802115 0.0811242 -0.29468
O_ O_ 0.216105 0.689179 0.430592 -0.58347
O_ O_ 0.208512 0.69336 0.383117 -0.58347
O_ O_ 0.134205 0.756675 0.433813 -0.58347
O_ O_ 0.122949 0.763082 0.387278 -0.58347
O_ O_ 0.148988 0.608408 0.424167 -0.58347
O_ O_ 0.135373 0.612607 0.378396 -0.58347
O_ O_ 0.0640079 0.668588 0.427216 -0.58347
O_ O_ 0.055218 0.681278 0.381487 -0.58347
O_ O_ 0.0564546 0.716871 0.0749743 -0.46727
O_ O_ 0.225252 0.67891 0.0832107 -0.46727
O_ O_ 0.0320032 0.68672 0.225266 -0.46727
O_ O_ 0.204782 0.665716 0.230323 -0.46727
O_ O_ 0.27846 0.817599 0.178469 -0.58347
O_ O_ 0.289147 0.813666 0.131598 -0.58347
O_ O_ 0.364719 0.74451 0.181231 -0.58347
O_ O_ 0.361775 0.738433 0.136039 -0.58347
O_ O_ 0.354362 0.894388 0.173092 -0.58347
O_ O_ 0.356011 0.888127 0.125915 -0.58347
O_ O_ 0.429734 0.820391 0.175092 -0.58347
O_ O_ 0.440339 0.817834 0.127736 -0.58347
O_ O_ 0.445914 0.76229 0.328031 -0.46727
O_ O_ 0.275208 0.803087 0.334681 -0.46727
O_ O_ 0.476055 0.803942 0.47438 -0.46727
O_ O_ 0.305322 0.834597 0.484221 -0.46727
Zn Zn 0.117723 0.690824 0.881311 0.90689
Zn Zn 0.128669 0.682923 0.929236 0.90689
Zn Zn 0.375404 0.811576 0.631266 0.90689
Zn Zn 0.364805 0.815666 0.679211 0.90689
H_ H_ 0.29265 0.668 0.946686 0.11455
H_ H_ 0.365588 0.672327 0.848292 0.11455
H_ H_ 0.274687 0.671449 0.856834 0.11455
H_ H_ 0.384439 0.66177 0.967018 0.11455
H_ H_ 0.477856 0.669919 0.958321 0.11455
H_ H_ 0.44906 0.674798 0.867223 0.11455
H_ H_ 0.124646 0.517866 0.946226 0.11455
H_ H_ 0.1129 0.938189 0.847448 0.11455
H_ H_ 0.103379 0.530064 0.854063 0.11455
H_ H_ 0.120776 0.936166 0.966781 0.11455
H_ H_ 0.109055 0.848677 0.961742 0.11455
H_ H_ 0.122043 0.855695 0.870585 0.11455
H_ H_ 0.0759369 0.599056 0.963537 0.11455
H_ H_ 0.0735952 0.571078 0.516554 0.11455
H_ H_ 0.112942 0.61771 0.555157 0.11455
H_ H_ 0.17434 0.745998 0.969976 0.11455
H_ H_ 0.234663 0.792686 0.508708 0.11455
H_ H_ 0.211506 0.773913 0.557809 0.11455
H_ H_ 1.0179301 0.706381 0.616415 0.11455
H_ H_ 1.00713628 0.698732 0.671385 0.11455
H_ H_ 0.265756 0.651437 0.634556 0.11455
H_ H_ 0.256084 0.662162 0.68679 0.11455
H_ H_ 0.0629008 0.595652 0.744538 0.11455
H_ H_ 0.0289199 0.578836 0.794672 0.11455
H_ H_ 0.0558792 0.630977 0.833342 0.11455
H_ H_ 0.178553 0.748231 0.758233 0.11455
H_ H_ 0.186944 0.799986 0.800706 0.11455
H_ H_ 0.180933 0.758579 0.84745 0.11455
H_ H_ 0.19561 0.799197 0.696158 0.11455
H_ H_ 0.126337 0.835355 0.600559 0.11455
H_ H_ 0.217956 0.812783 0.607163 0.11455
H_ H_ 0.110142 0.814161 0.715882 0.11455
H_ H_ 0.0184199 0.810572 0.708049 0.11455
H_ H_ 0.0430313 0.817781 0.619317 0.11455
H_ H_ 0.402422 0.979639 0.689468 0.11455
H_ H_ 0.385903 0.564481 0.596784 0.11455
H_ H_ 0.315185 0.968044 0.611083 0.11455
H_ H_ 0.348324 0.566565 0.713643 0.11455
H_ H_ 0.349245 0.6552 0.708014 0.11455
H_ H_ 0.377327 0.646487 0.61826 0.11455
H_ H_ 0.416785 0.890999 0.717114 0.11455
H_ H_ 0.451651 0.903849 0.763498 0.11455
H_ H_ 0.409199 0.862798 0.80473 0.11455
H_ H_ 0.316325 0.74307 0.721599 0.11455
H_ H_ 0.275117 0.695805 0.761722 0.11455
H_ H_ 0.284011 0.724418 0.812386 0.11455
H_ H_ 0.478098 0.793762 0.872371 0.11455
H_ H_ 0.487805 0.795571 0.924712 0.11455
H_ H_ 0.231275 0.833314 0.886698 0.11455
H_ H_ 0.24223 0.842536 0.938754 0.11455
H_ H_ 0.432492 0.919812 1.00049 0.11455
H_ H_ 0.442322 0.944651 0.542598 0.11455
H_ H_ 0.421119 0.893715 0.584222 0.11455
H_ H_ 0.337533 0.755136 0.506834 0.11455
H_ H_ 0.310803 0.705369 0.547388 0.11455
H_ H_ 0.318908 0.746624 0.596524 0.11455
C_ C_ 0.220803 0.683 0.905551 0.68181
C_ C_ 0.277847 0.681305 0.901774 -0.05681
C_ C_ 0.31045 0.673881 0.925658 -0.08735
C_ C_ 0.363863 0.672463 0.921915 -0.05681
C_ C_ 0.382881 0.669046 0.894148 -0.05681
C_ C_ 0.350114 0.676316 0.870624 -0.08735
C_ C_ 0.297989 0.678641 0.874888 -0.08735
C_ C_ 0.397726 0.668146 0.946048 -0.08735
C_ C_ 0.449683 0.674376 0.941034 -0.08735
C_ C_ 0.468439 0.674052 0.913606 -0.05681
C_ C_ 0.435836 0.668146 0.889616 -0.08735
C_ C_ 0.114237 0.785449 0.912065 0.68181
C_ C_ 0.122097 0.587061 0.902071 0.68181
C_ C_ 0.119026 0.530396 0.900242 -0.05681
C_ C_ 0.11908 1.00361762 0.922267 -0.08735
C_ C_ 0.116542 0.952148 0.920006 -0.05681
C_ C_ 0.118838 0.927958 0.893464 -0.05681
C_ C_ 0.114147 0.955948 0.868038 -0.08735
C_ C_ 0.11637 0.00900183 0.869624 -0.08735
C_ C_ 0.114955 0.920501 0.944474 -0.08735
C_ C_ 0.11055 0.868455 0.942721 -0.08735
C_ C_ 0.115377 0.843675 0.915976 -0.05681
C_ C_ 0.120866 0.874463 0.891707 -0.08735
C_ C_ 0.0237341 0.682311 0.907448 0.68181
C_ C_ 0.0926043 0.621676 0.982193 0.1947
C_ C_ 0.103024 0.600186 0.511579 -0.08735
C_ C_ 0.122447 0.628962 0.533395 -0.08735
C_ C_ 0.145138 0.67674 0.527701 -0.05681
C_ C_ 0.154687 0.689555 0.498546 0.18498
C_ C_ 0.167109 0.737205 0.99163 -0.08735
C_ C_ 0.209725 0.761871 0.513072 -0.08735
C_ C_ 0.199037 0.748259 0.542021 -0.08735
C_ C_ 0.165793 0.709757 0.54972 0.18498
C_ C_ 0.195679 0.683924 0.597525 0.44287
C_ C_ 0.110379 0.706161 0.59123 0.44287
C_ C_ 0.101265 0.697965 0.620319 -0.05681
C_ C_ 0.0514646 0.702627 0.631291 -0.08735
C_ C_ 0.0446377 0.699101 0.661271 -0.08735
C_ C_ 0.0848781 0.688662 0.680567 -0.05681
C_ C_ 0.132989 0.679182 0.66836 -0.05681
C_ C_ 0.141888 0.685332 0.639068 -0.05681
C_ C_ 0.18923 0.678043 0.626511 -0.05681
C_ C_ 0.229039 0.66049 0.643573 -0.08735
C_ C_ 0.222272 0.664694 0.674343 -0.08735
C_ C_ 0.175222 0.671584 0.686722 -0.05681
C_ C_ 0.165927 0.663213 0.715845 0.44287
C_ C_ 0.0785796 0.684679 0.710495 0.44287
C_ C_ 0.110527 0.659219 0.757459 0.18498
C_ C_ 0.0775173 0.616526 0.762396 -0.08735
C_ C_ 0.0570685 0.60907 0.790131 -0.08735
C_ C_ 0.0693599 0.640932 0.812588 -0.08735
C_ C_ 0.105246 0.680025 0.80851 0.18498
C_ C_ 0.123227 0.692992 0.780638 -0.05681
C_ C_ 0.157097 0.73588 0.778165 -0.08735
C_ C_ 0.166313 0.764488 0.802937 -0.08735
C_ C_ 0.158562 0.742878 0.82969 0.1947
C_ C_ 0.271062 0.808241 0.655801 0.68181
C_ C_ 0.214686 0.80748 0.652378 -0.05681
C_ C_ 0.180744 0.806207 0.6761 -0.08735
C_ C_ 0.129004 0.814272 0.672729 -0.05681
C_ C_ 0.110267 0.820876 0.645759 -0.05681
C_ C_ 0.142137 0.823263 0.621802 -0.08735
C_ C_ 0.194598 0.813613 0.625741 -0.08735
C_ C_ 0.0945697 0.811959 0.694635 -0.08735
C_ C_ 0.0423765 0.811741 0.690207 -0.08735
C_ C_ 0.0236484 0.818688 0.663086 -0.05681
C_ C_ 0.0574283 0.822482 0.640996 -0.08735
C_ C_ 0.377709 0.713226 0.66221 0.68181
C_ C_ 0.363549 0.911709 0.650096 0.68181
C_ C_ 0.363117 0.967474 0.647959 -0.05681
C_ C_ 0.362468 0.497104 0.671813 -0.08735
C_ C_ 0.361633 0.551114 0.668547 -0.05681
C_ C_ 0.369084 0.574337 0.641424 -0.05681
C_ C_ 0.377445 0.543769 0.617478 -0.08735
C_ C_ 0.337061 0.991252 0.625822 -0.08735
C_ C_ 0.351592 0.582695 0.69144 -0.08735
C_ C_ 0.355164 0.633574 0.689041 -0.08735
C_ C_ 0.37007 0.657518 0.66412 -0.05681
C_ C_ 0.373584 0.626534 0.63919 -0.08735
C_ C_ 0.469505 0.813656 0.65697 0.68181
C_ C_ 0.408886 0.863936 0.733666 0.1947
C_ C_ 0.423954 0.875775 0.760847 -0.08735
C_ C_ 0.397032 0.853312 0.78286 -0.08735
C_ C_ 0.359967 0.812714 0.778026 -0.05681
C_ C_ 0.350898 0.798214 0.749243 0.18498
C_ C_ 0.321281 0.756163 0.74374 -0.08735
C_ C_ 0.297336 0.729586 0.766264 -0.08735
C_ C_ 0.30237 0.746358 0.795082 -0.08735
C_ C_ 0.335735 0.787558 0.801235 0.18498
C_ C_ 0.305553 0.817007 0.847159 0.44287
C_ C_ 0.390207 0.794443 0.842787 0.44287
C_ C_ 0.397394 0.804348 0.871976 -0.05681
C_ C_ 0.445512 0.800165 0.885139 -0.08735
C_ C_ 0.452008 0.805849 0.914345 -0.08735
C_ C_ 0.411974 0.822004 0.931697 -0.05681
C_ C_ 0.363712 0.826766 0.919487 -0.05681
C_ C_ 0.356428 0.81606 0.890372 -0.05681
C_ C_ 0.310188 0.822714 0.876951 -0.05681
C_ C_ 0.269224 0.835259 0.894882 -0.08735
C_ C_ 0.274455 0.842391 0.924085 -0.08735
C_ C_ 0.322209 0.837759 0.93754 -0.05681
C_ C_ 0.331994 0.851466 0.966133 0.44287
C_ C_ 0.419296 0.83048 0.961184 0.44287
C_ C_ 0.399195 0.841781 0.508252 0.18498
C_ C_ 0.421025 0.89004 0.513573 -0.08735
C_ C_ 0.427311 0.907913 0.540363 -0.08735
C_ C_ 0.40782 0.880968 0.563574 -0.08735
C_ C_ 0.387438 0.831948 0.560553 0.18498
C_ C_ 0.378019 0.813625 0.532293 -0.05681
C_ C_ 0.350803 0.76759 0.528035 -0.08735
C_ C_ 0.32923 0.742012 0.551215 -0.08735
C_ C_ 0.336064 0.763564 0.578519 0.1947
N_ N_ 0.121673 0.663914 0.977164 -0.29468
N_ N_ 0.15643 0.701056 0.580787 -0.17154
N_ N_ 0.120236 0.67328 0.728019 -0.17154
N_ N_ 0.125094 0.703278 0.832327 -0.29468
N_ N_ 0.371358 0.826733 0.727822 -0.29468
N_ N_ 0.34466 0.799344 0.830524 -0.17154
N_ N_ 0.380734 0.844505 0.977914 -0.17154
N_ N_ 0.366307 0.806199 0.583242 -0.29468
O_ O_ 0.202314 0.687117 0.930403 -0.58347
O_ O_ 0.192655 0.690587 0.88512 -0.58347
O_ O_ 0.115812 0.7565 0.932987 -0.58347
O_ O_ 0.120779 0.766893 0.88763 -0.58347
O_ O_ 0.141329 0.607457 0.924495 -0.58347
O_ O_ 0.115608 0.614534 0.880569 -0.58347
O_ O_ 0.052917 0.674691 0.929384 -0.58347
O_ O_ 0.0428258 0.689683 0.882577 -0.58347
O_ O_ 0.072874 0.715341 0.574095 -0.46727
O_ O_ 0.243089 0.688207 0.587542 -0.46727
O_ O_ 0.034382 0.69178 0.721439 -0.46727
O_ O_ 0.203174 0.6466 0.732955 -0.46727
O_ O_ 0.288957 0.813846 0.680791 -0.58347
O_ O_ 0.299519 0.805633 0.634557 -0.58347
O_ O_ 0.370849 0.7413 0.683596 -0.58347
O_ O_ 0.377339 0.733986 0.637214 -0.58347
O_ O_ 0.365292 0.890374 0.67378 -0.58347
O_ O_ 0.369199 0.885238 0.627316 -0.58347
O_ O_ 0.439698 0.821515 0.678058 -0.58347
O_ O_ 0.451684 0.812431 0.631848 -0.58347
O_ O_ 0.427153 0.779529 0.826543 -0.46727
O_ O_ 0.260844 0.828177 0.834783 -0.46727
O_ O_ 0.465601 0.826461 0.971788 -0.46727
O_ O_ 0.294184 0.862073 0.983518 -0.46727
Zn Zn 0.631837 0.179495 0.383616 0.90689
Zn Zn 0.644448 0.169706 0.432793 0.90689
Zn Zn 0.872377 0.324914 0.131915 0.90689
Zn Zn 0.862086 0.327162 0.179623 0.90689
H_ H_ 0.814815 0.177527 0.443219 0.11455
H_ H_ 0.87605 0.161847 0.344549 0.11455
H_ H_ 0.786211 0.169112 0.351524 0.11455
H_ H_ 0.89515 0.186785 0.459933 0.11455
H_ H_ 0.98585 0.197087 0.451392 0.11455
H_ H_ 0.962212 0.178784 0.361141 0.11455
H_ H_ 0.626219 0.00769336 0.440703 0.11455
H_ H_ 0.624829 0.431134 0.350753 0.11455
H_ H_ 0.638917 0.0158189 0.347555 0.11455
H_ H_ 0.632712 0.418211 0.470599 0.11455
H_ H_ 0.631656 0.326313 0.463832 0.11455
H_ H_ 0.635495 0.342252 0.372273 0.11455
H_ H_ 0.599078 0.0981556 0.470145 0.11455
H_ H_ 0.547695 0.0985621 0.0149332 0.11455
H_ H_ 0.57773 0.146129 0.0559269 0.11455
H_ H_ 0.712239 0.2412 0.477386 0.11455
H_ H_ 0.716809 0.305728 0.0181874 0.11455
H_ H_ 0.692173 0.285998 0.0665094 0.11455
H_ H_ 0.505503 0.214743 0.127747 0.11455
H_ H_ 0.497857 0.198872 0.178202 0.11455
H_ H_ 0.757821 0.179518 0.137713 0.11455
H_ H_ 0.749089 0.163311 0.189424 0.11455
H_ H_ 0.566527 0.0782979 0.251503 0.11455
H_ H_ 0.5542 0.0541087 0.299566 0.11455
H_ H_ 0.577911 0.111267 0.340648 0.11455
H_ H_ 0.655269 0.236735 0.258754 0.11455
H_ H_ 0.687064 0.291312 0.299299 0.11455
H_ H_ 0.669534 0.268887 0.346464 0.11455
H_ H_ 0.696216 0.293333 0.194688 0.11455
H_ H_ 0.627757 0.352612 0.102198 0.11455
H_ H_ 0.719717 0.333922 0.106429 0.11455
H_ H_ 0.612062 0.295781 0.215929 0.11455
H_ H_ 0.520589 0.297713 0.20835 0.11455
H_ H_ 0.543675 0.330693 0.117801 0.11455
H_ H_ 0.861518 0.495389 0.192493 0.11455
H_ H_ 0.844728 0.0736633 0.102269 0.11455
H_ H_ 0.836642 0.473245 0.10263 0.11455
H_ H_ 0.907907 0.0804979 0.214175 0.11455
H_ H_ 0.92479 0.170684 0.207805 0.11455
H_ H_ 0.865806 0.155488 0.120693 0.11455
H_ H_ 0.911057 0.406263 0.213247 0.11455
H_ H_ 0.925589 0.440078 0.261728 0.11455
H_ H_ 0.892889 0.392509 0.302534 0.11455
H_ H_ 0.822037 0.253015 0.223454 0.11455
H_ H_ 0.799522 0.197565 0.263376 0.11455
H_ H_ 0.802015 0.230292 0.31216 0.11455
H_ H_ 0.979613 0.281667 0.375354 0.11455
H_ H_ -0.008328000000000002 0.301302 0.422992 0.11455
H_ H_ 0.740113 0.365029 0.386509 0.11455
H_ H_ 0.750565 0.367592 0.437225 0.11455
H_ H_ 0.931085 0.423215 0.502398 0.11455
H_ H_ 0.943879 0.436132 0.0419577 0.11455
H_ H_ 0.913862 0.388983 0.0856393 0.11455
H_ H_ 0.849896 0.239973 0.0112255 0.11455
H_ H_ 0.817132 0.198516 0.0510946 0.11455
H_ H_ 0.818875 0.2451 0.100123 0.11455
C_ C_ 0.737044 0.178846 0.405308 0.68181
C_ C_ 0.792634 0.17864 0.39907 -0.05681
C_ C_ 0.826792 0.177612 0.421546 -0.08735
C_ C_ 0.87807 0.177438 0.416314 -0.05681
C_ C_ 0.898146 0.175585 0.387879 -0.05681
C_ C_ 0.863351 0.171161 0.365119 -0.08735
C_ C_ 0.810619 0.172612 0.370375 -0.08735
C_ C_ 0.911229 0.181525 0.438701 -0.08735
C_ C_ 0.962653 0.186359 0.434019 -0.08735
C_ C_ 0.984277 0.181867 0.406058 -0.05681
C_ C_ 0.950763 0.178007 0.382736 -0.08735
C_ C_ 0.639618 0.271452 0.415462 0.68181
C_ C_ 0.644231 0.0765356 0.398286 0.68181
C_ C_ 0.634403 0.0211026 0.394824 -0.05681
C_ C_ 0.639282 0.491266 0.427354 -0.08735
C_ C_ 0.637965 0.436683 0.425244 -0.05681
C_ C_ 0.634946 0.413604 0.397187 -0.05681
C_ C_ 0.627676 0.444342 0.372384 -0.08735
C_ C_ 0.629034 0.497614 0.374592 -0.08735
C_ C_ 0.639504 0.403792 0.449476 -0.08735
C_ C_ 0.636351 0.350042 0.445487 -0.08735
C_ C_ 0.63764 0.327352 0.418958 -0.05681
C_ C_ 0.637996 0.35956 0.394524 -0.08735
C_ C_ 0.54032 0.16822 0.410843 0.68181
C_ C_ 0.620975 0.117306 0.486428 0.1947
C_ C_ 0.570168 0.131469 0.0113083 -0.08735
C_ C_ 0.592944 0.152932 0.0345706 -0.08735
C_ C_ 0.625995 0.19609 0.0304656 -0.05681
C_ C_ 0.641122 0.206797 1.00185408 0.18498
C_ C_ 0.687831 0.236995 0.496151 -0.08735
C_ C_ 0.693806 0.273872 0.0212441 -0.08735
C_ C_ 0.677038 0.264092 0.0489962 -0.08735
C_ C_ 0.644265 0.223307 0.0548922 0.18498
C_ C_ 0.679973 0.186976 0.0994124 0.44287
C_ C_ 0.593074 0.214099 0.0967863 0.44287
C_ C_ 0.586806 0.201548 0.126724 -0.05681
C_ C_ 0.538989 0.209769 0.140489 -0.08735
C_ C_ 0.533928 0.194832 0.168572 -0.08735
C_ C_ 0.575837 0.182534 0.186752 -0.05681
C_ C_ 0.623858 0.173395 0.172893 -0.05681
C_ C_ 0.628824 0.183888 0.14291 -0.05681
C_ C_ 0.675792 0.181179 0.128961 -0.05681
C_ C_ 0.71848 0.175464 0.146706 -0.08735
C_ C_ 0.715414 0.163993 0.175782 -0.08735
C_ C_ 0.665569 0.16272 0.189322 -0.05681
C_ C_ 0.659546 0.157671 0.219706 0.44287
C_ C_ 0.570971 0.171936 0.216387 0.44287
C_ C_ 0.603575 0.148824 0.263627 0.18498
C_ C_ 0.58238 0.10195 0.269072 -0.08735
C_ C_ 0.574195 0.087748 0.296868 -0.08735
C_ C_ 0.585204 0.123245 0.319808 -0.08735
C_ C_ 0.612613 0.167146 0.314672 0.18498
C_ C_ 0.619815 0.181811 0.286204 -0.05681
C_ C_ 0.648876 0.225939 0.280244 -0.08735
C_ C_ 0.664807 0.257637 0.301465 -0.08735
C_ C_ 0.658692 0.242462 0.330257 0.1947
C_ C_ 0.767689 0.313978 0.154637 0.68181
C_ C_ 0.713548 0.312308 0.150354 -0.05681
C_ C_ 0.68246 0.304355 0.173607 -0.08735
C_ C_ 0.628426 0.308405 0.170461 -0.05681
C_ C_ 0.609642 0.326285 0.143736 -0.05681
C_ C_ 0.641144 0.337294 0.122021 -0.08735
C_ C_ 0.694021 0.327839 0.124514 -0.08735
C_ C_ 0.597331 0.303471 0.194429 -0.08735
C_ C_ 0.544311 0.311921 0.190121 -0.08735
C_ C_ 0.524823 0.321639 0.162633 -0.05681
C_ C_ 0.558068 0.329712 0.14027 -0.08735
C_ C_ 0.88331 0.227913 0.162904 0.68181
C_ C_ 0.853745 0.421732 0.15036 0.68181
C_ C_ 0.8501 0.479698 0.148279 -0.05681
C_ C_ 0.884707 0.0106033 0.17349 -0.08735
C_ C_ 0.889431 0.063686 0.169549 -0.05681
C_ C_ 0.879217 0.0869325 0.142777 -0.05681
C_ C_ 0.85456 0.0570751 0.122504 -0.08735
C_ C_ 0.842921 0.499653 0.120823 -0.08735
C_ C_ 0.908644 0.0955627 0.192646 -0.08735
C_ C_ 0.911205 0.148219 0.189355 -0.08735
C_ C_ 0.892787 0.170745 0.163767 -0.05681
C_ C_ 0.879217 0.140136 0.140192 -0.08735
C_ C_ 0.966494 0.331284 0.15901 0.68181
C_ C_ 0.896149 0.385248 0.231118 0.1947
C_ C_ 0.904789 0.403073 0.258314 -0.08735
C_ C_ 0.886514 0.378554 0.281883 -0.08735
C_ C_ 0.859337 0.332446 0.277699 -0.05681
C_ C_ 0.848504 0.315307 0.249299 0.18498
C_ C_ 0.825565 0.267277 0.244736 -0.08735
C_ C_ 0.814216 0.23619 0.267272 -0.08735
C_ C_ 0.819721 0.252357 0.2951 -0.08735
C_ C_ 0.844046 0.298301 0.301762 0.18498
C_ C_ 0.810052 0.324833 0.348087 0.44287
C_ C_ 0.897755 0.300362 0.342986 0.44287
C_ C_ 0.902111 0.303637 0.373293 -0.05681
C_ C_ 0.948723 0.294541 0.387067 -0.08735
C_ C_ 0.956401 0.308397 0.415657 -0.08735
C_ C_ 0.914688 0.321978 0.433005 -0.05681
C_ C_ 0.867404 0.327047 0.42064 -0.05681
C_ C_ 0.859703 0.316235 0.390549 -0.05681
C_ C_ 0.813711 0.326187 0.378436 -0.05681
C_ C_ 0.776021 0.349304 0.395395 -0.08735
C_ C_ 0.781846 0.354947 0.425499 -0.08735
C_ C_ 0.826264 0.342123 0.438484 -0.05681
C_ C_ 0.836177 0.353409 0.467955 0.44287
C_ C_ 0.919647 0.322437 0.463575 0.44287
C_ C_ 0.896853 0.333721 0.00827103 0.18498
C_ C_ 0.923403 0.380985 0.0131043 -0.08735
C_ C_ 0.928639 0.398625 0.0405887 -0.08735
C_ C_ 0.908738 0.375009 0.0643535 -0.08735
C_ C_ 0.887597 0.327971 0.0609646 0.18498
C_ C_ 0.87853 0.308109 0.0328832 -0.05681
C_ C_ 0.853834 0.259755 0.0308283 -0.08735
C_ C_ 0.830225 0.238412 0.0543336 -0.08735
C_ C_ 0.839564 0.258921 0.0815801 0.1947
N_ N_ 0.646117 0.16076 0.480226 -0.29468
N_ N_ 0.638546 0.203864 0.0834805 -0.17154
N_ N_ 0.611615 0.161387 0.232647 -0.17154
N_ N_ 0.634805 0.197535 0.336215 -0.29468
N_ N_ 0.862623 0.345954 0.226641 -0.29468
N_ N_ 0.851184 0.313793 0.331539 -0.17154
N_ N_ 0.883185 0.344271 0.4797 -0.17154
N_ N_ 0.869165 0.30246 0.084372 -0.29468
O_ O_ 0.719824 0.16351 0.429438 -0.58347
O_ O_ 0.707119 0.194234 0.385287 -0.58347
O_ O_ 0.650192 0.244164 0.436898 -0.58347
O_ O_ 0.622029 0.253214 0.39235 -0.58347
O_ O_ 0.643154 0.0956355 0.423698 -0.58347
O_ O_ 0.640829 0.106638 0.378029 -0.58347
O_ O_ 0.569626 0.177554 0.432245 -0.58347
O_ O_ 0.558431 0.171822 0.386114 -0.58347
O_ O_ 0.558358 0.239795 0.083554 -0.46727
O_ O_ 0.725614 0.180907 0.0866598 -0.46727
O_ O_ 0.527265 0.181198 0.228605 -0.46727
O_ O_ 0.701389 0.159486 0.236147 -0.46727
O_ O_ 0.786396 0.305723 0.178638 -0.58347
O_ O_ 0.797795 0.31883 0.132889 -0.58347
O_ O_ 0.883236 0.2551 0.185057 -0.58347
O_ O_ 0.874914 0.248078 0.139253 -0.58347
O_ O_ 0.847734 0.399653 0.174591 -0.58347
O_ O_ 0.868816 0.39652 0.129324 -0.58347
O_ O_ 0.939205 0.343372 0.178885 -0.58347
O_ O_ 0.949354 0.324604 0.13417 -0.58347
O_ O_ 0.935291 0.287724 0.325878 -0.46727
O_ O_ 0.765827 0.3344 0.335157 -0.46727
O_ O_ 0.957257 0.29983 0.476387 -0.46727
O_ O_ 0.798509 0.369483 0.484299 -0.46727
Zn Zn 0.62463 0.196281 0.884223 0.90689
Zn Zn 0.637217 0.190447 0.932826 0.90689
Zn Zn 0.875307 0.309004 0.629038 0.90689
Zn Zn 0.870688 0.315615 0.680285 0.90689
H_ H_ 0.802743 0.174132 0.94688 0.11455
H_ H_ 0.871305 0.171511 0.84864 0.11455
H_ H_ 0.780183 0.196097 0.858249 0.11455
H_ H_ 0.894203 0.180952 0.9666 0.11455
H_ H_ 0.98368 0.180454 0.958788 0.11455
H_ H_ 0.955278 0.176792 0.866987 0.11455
H_ H_ 0.626482 0.023212 0.944145 0.11455
H_ H_ 0.668348 0.445653 0.85336 0.11455
H_ H_ 0.648521 0.0363481 0.853086 0.11455
H_ H_ 0.617678 0.436134 0.968172 0.11455
H_ H_ 0.612307 0.34588 0.961403 0.11455
H_ H_ 0.641969 0.360788 0.871746 0.11455
H_ H_ 0.567267 0.125184 0.965672 0.11455
H_ H_ 0.603099 0.0613212 0.519724 0.11455
H_ H_ 0.636802 0.115158 0.558889 0.11455
H_ H_ 0.683171 0.25826 0.975425 0.11455
H_ H_ 0.721036 0.300659 0.514572 0.11455
H_ H_ 0.69638 0.281827 0.562571 0.11455
H_ H_ 0.514924 0.196352 0.623344 0.11455
H_ H_ 0.502709 0.190563 0.67466 0.11455
H_ H_ 0.765027 0.153543 0.642477 0.11455
H_ H_ 0.751706 0.161838 0.693787 0.11455
H_ H_ 0.560171 0.0844858 0.755528 0.11455
H_ H_ 0.544199 0.0734368 0.805875 0.11455
H_ H_ 0.56642 0.134017 0.841103 0.11455
H_ H_ 0.668513 0.241695 0.756141 0.11455
H_ H_ 0.702299 0.291562 0.795832 0.11455
H_ H_ 0.678905 0.265158 0.849327 0.11455
H_ H_ 0.696705 0.279273 0.696868 0.11455
H_ H_ 0.63209 0.354006 0.607553 0.11455
H_ H_ 0.720761 0.332234 0.607797 0.11455
H_ H_ 0.614764 0.292471 0.715514 0.11455
H_ H_ 0.523619 0.287687 0.705623 0.11455
H_ H_ 0.545827 0.336082 0.620282 0.11455
H_ H_ 0.860325 0.47624 0.695846 0.11455
H_ H_ 0.881186 0.0600353 0.590811 0.11455
H_ H_ 0.854161 0.473374 0.603354 0.11455
H_ H_ 0.87998 0.0651684 0.709179 0.11455
H_ H_ 0.892746 0.155467 0.701223 0.11455
H_ H_ 0.877339 0.139937 0.612068 0.11455
H_ H_ 0.930371 0.378581 0.71892 0.11455
H_ H_ 0.937604 0.412524 0.766002 0.11455
H_ H_ 0.882324 0.373083 0.803984 0.11455
H_ H_ 0.81888 0.2399 0.720563 0.11455
H_ H_ 0.777007 0.194057 0.758312 0.11455
H_ H_ 0.792892 0.212886 0.808893 0.11455
H_ H_ 0.988105 0.299377 0.87014 0.11455
H_ H_ -0.0012889999999999846 0.313025 0.919874 0.11455
H_ H_ 0.740309 0.329874 0.885413 0.11455
H_ H_ 0.750635 0.338099 0.937361 0.11455
H_ H_ 0.939798 0.401526 0.996553 0.11455
H_ H_ 0.959408 0.433013 0.552388 0.11455
H_ H_ 0.932899 0.374183 0.588011 0.11455
H_ H_ 0.854241 0.26099 0.502959 0.11455
H_ H_ 0.814168 0.209405 0.541506 0.11455
H_ H_ 0.82712 0.232804 0.59128 0.11455
C_ C_ 0.728757 0.188042 0.907219 0.68181
C_ C_ 0.783183 0.178877 0.901972 -0.05681
C_ C_ 0.817816 0.17635 0.925999 -0.08735
C_ C_ 0.87071 0.173131 0.921781 -0.05681
C_ C_ 0.890171 0.172038 0.893584 -0.05681
C_ C_ 0.856897 0.175245 0.870185 -0.08735
C_ C_ 0.806448 0.184608 0.875158 -0.08735
C_ C_ 0.906075 0.1733 0.944788 -0.08735
C_ C_ 0.957804 0.176389 0.940697 -0.08735
C_ C_ 0.975588 0.174734 0.911349 -0.05681
C_ C_ 0.941552 0.173477 0.888773 -0.08735
C_ C_ 0.628719 0.292767 0.911765 0.68181
C_ C_ 0.635942 0.0940984 0.900288 0.68181
C_ C_ 0.630717 0.0378003 0.897154 -0.05681
C_ C_ 0.633161 0.506383 0.926217 -0.08735
C_ C_ 0.634267 0.451244 0.923185 -0.05681
C_ C_ 0.641438 0.429178 0.896643 -0.05681
C_ C_ 0.65511 0.461712 0.873956 -0.08735
C_ C_ 0.65184 0.513337 0.875417 -0.08735
C_ C_ 0.627493 0.420413 0.946873 -0.08735
C_ C_ 0.6211 0.368317 0.943393 -0.08735
C_ C_ 0.625223 0.346377 0.915694 -0.05681
C_ C_ 0.634434 0.376579 0.89213 -0.08735
C_ C_ 0.532464 0.189432 0.906577 0.68181
C_ C_ 0.588124 0.142555 0.98348 0.1947
C_ C_ 0.615732 0.100241 0.515407 -0.08735
C_ C_ 0.638781 0.127607 0.536341 -0.08735
C_ C_ 0.65769 0.175957 0.531368 -0.05681
C_ C_ 0.667725 0.189251 0.501993 0.18498
C_ C_ 0.672814 0.248249 0.997291 -0.08735
C_ C_ 0.696653 0.270993 0.518511 -0.08735
C_ C_ 0.680783 0.259376 0.546725 -0.08735
C_ C_ 0.664328 0.211524 0.554127 0.18498
C_ C_ 0.695934 0.18339 0.602005 0.44287
C_ C_ 0.607812 0.197983 0.595131 0.44287
C_ C_ 0.599428 0.191726 0.624226 -0.05681
C_ C_ 0.547299 0.189327 0.636203 -0.08735
C_ C_ 0.538945 0.17751 0.664944 -0.08735
C_ C_ 0.579898 0.174471 0.684002 -0.05681
C_ C_ 0.629657 0.170051 0.671829 -0.05681
C_ C_ 0.640211 0.182222 0.642429 -0.05681
C_ C_ 0.689223 0.178322 0.631156 -0.05681
C_ C_ 0.729234 0.166379 0.649941 -0.08735
C_ C_ 0.719156 0.162145 0.679557 -0.08735
C_ C_ 0.669915 0.158829 0.690487 -0.05681
C_ C_ 0.660179 0.153477 0.720769 0.44287
C_ C_ 0.571713 0.171098 0.713392 0.44287
C_ C_ 0.603389 0.157034 0.761384 0.18498
C_ C_ 0.571671 0.115309 0.76965 -0.08735
C_ C_ 0.566697 0.106199 0.798832 -0.08735
C_ C_ 0.580524 0.13946 0.819036 -0.08735
C_ C_ 0.610848 0.179854 0.813017 0.18498
C_ C_ 0.622751 0.191718 0.783526 -0.05681
C_ C_ 0.654321 0.233532 0.778414 -0.08735
C_ C_ 0.674007 0.26359 0.801096 -0.08735
C_ C_ 0.664157 0.246906 0.82941 0.1947
C_ C_ 0.774604 0.298908 0.656553 0.68181
C_ C_ 0.718373 0.305526 0.652706 -0.05681
C_ C_ 0.684354 0.292383 0.675242 -0.08735
C_ C_ 0.631497 0.299426 0.671475 -0.05681
C_ C_ 0.612569 0.313905 0.644713 -0.05681
C_ C_ 0.64574 0.330213 0.623944 -0.08735
C_ C_ 0.698326 0.327065 0.626759 -0.08735
C_ C_ 0.598463 0.296997 0.695154 -0.08735
C_ C_ 0.54741 0.300971 0.689548 -0.08735
C_ C_ 0.527724 0.316273 0.662698 -0.05681
C_ C_ 0.561032 0.325365 0.640665 -0.08735
C_ C_ 0.883696 0.215827 0.655226 0.68181
C_ C_ 0.857652 0.41104 0.652104 0.68181
C_ C_ 0.858685 0.467296 0.650055 -0.05681
C_ C_ 0.873641 -0.0029919999999999947 0.667374 -0.08735
C_ C_ 0.878238 0.0503279 0.663907 -0.05681
C_ C_ 0.88049 0.0720335 0.636881 -0.05681
C_ C_ 0.883745 0.0419188 0.612673 -0.08735
C_ C_ 0.853804 0.492411 0.623718 -0.08735
C_ C_ 0.884451 0.0820391 0.687981 -0.08735
C_ C_ 0.887269 0.132949 0.683989 -0.08735
C_ C_ 0.8838 0.156971 0.657747 -0.05681
C_ C_ 0.879205 0.12517 0.63428 -0.08735
C_ C_ 0.970204 0.317042 0.653859 0.68181
C_ C_ 0.912803 0.358953 0.734888 0.1947
C_ C_ 0.913734 0.378714 0.762872 -0.08735
C_ C_ 0.883452 0.356525 0.783672 -0.08735
C_ C_ 0.860678 0.308777 0.778873 -0.05681
C_ C_ 0.854481 0.2948 0.749051 0.18498
C_ C_ 0.823175 0.254327 0.74239 -0.08735
C_ C_ 0.798592 0.227047 0.76405 -0.08735
C_ C_ 0.81021 0.235617 0.792402 -0.08735
C_ C_ 0.839918 0.280144 0.801055 0.18498
C_ C_ 0.809057 0.305389 0.847473 0.44287
C_ C_ 0.897848 0.286553 0.843072 0.44287
C_ C_ 0.904364 0.295406 0.872207 -0.05681
C_ C_ 0.952994 0.302524 0.88325 -0.08735
C_ C_ 0.960866 0.308731 0.912677 -0.08735
C_ C_ 0.920136 0.304629 0.932073 -0.05681
C_ C_ 0.86958 0.302786 0.920435 -0.05681
C_ C_ 0.861322 0.299699 0.890423 -0.05681
C_ C_ 0.812969 0.304211 0.87741 -0.05681
C_ C_ 0.774005 0.31777 0.895819 -0.08735
C_ C_ 0.780085 0.32264 0.925314 -0.08735
C_ C_ 0.82751 0.314452 0.938615 -0.05681
C_ C_ 0.838181 0.320564 0.968464 0.44287
C_ C_ 0.927356 0.309362 0.961916 0.44287
C_ C_ 0.894402 0.351988 0.509725 0.18498
C_ C_ 0.917765 0.39699 0.517892 -0.08735
C_ C_ 0.93446 0.40413 0.545349 -0.08735
C_ C_ 0.920735 0.369 0.566619 -0.08735
C_ C_ 0.89132 0.326685 0.560322 0.18498
C_ C_ 0.878166 0.318153 0.531875 -0.05681
C_ C_ 0.852352 0.274336 0.524486 -0.08735
C_ C_ 0.833541 0.244669 0.546493 -0.08735
C_ C_ 0.84215 0.255734 0.574696 0.1947
N_ N_ 0.620508 0.181695 0.978638 -0.29468
N_ N_ 0.65662 0.19679 0.584115 -0.17154
N_ N_ 0.612127 0.163796 0.731277 -0.17154
N_ N_ 0.63304 0.206234 0.834597 -0.29468
N_ N_ 0.87939 0.321585 0.728309 -0.29468
N_ N_ 0.849424 0.291546 0.830921 -0.17154
N_ N_ 0.886406 0.316361 0.979702 -0.17154
N_ N_ 0.87286 0.295718 0.581905 -0.29468
O_ O_ 0.71037 0.185725 0.932531 -0.58347
O_ O_ 0.700594 0.20075 0.887334 -0.58347
O_ O_ 0.647691 0.265715 0.931843 -0.58347
O_ O_ 0.614999 0.271616 0.88843 -0.58347
O_ O_ 0.633744 0.112858 0.92506 -0.58347
O_ O_ 0.631419 0.121612 0.878211 -0.58347
O_ O_ 0.563703 0.194311 0.927199 -0.58347
O_ O_ 0.549914 0.190138 0.88146 -0.58347
O_ O_ 0.56915 0.205025 0.577082 -0.46727
O_ O_ 0.741961 0.180514 0.59074 -0.46727
O_ O_ 0.526019 0.172891 0.724614 -0.46727
O_ O_ 0.697878 0.145838 0.738337 -0.46727
O_ O_ 0.795423 0.298701 0.680968 -0.58347
O_ O_ 0.802881 0.298138 0.633485 -0.58347
O_ O_ 0.87946 0.241568 0.677052 -0.58347
O_ O_ 0.893324 0.235628 0.630784 -0.58347
O_ O_ 0.859533 0.389313 0.676873 -0.58347
O_ O_ 0.861824 0.383518 0.629826 -0.58347
O_ O_ 0.941606 0.3241 0.675146 -0.58347
O_ O_ 0.951385 0.318249 0.628266 -0.58347
O_ O_ 0.936475 0.275976 0.825724 -0.46727
O_ O_ 0.762939 0.305688 0.835379 -0.46727
O_ O_ 0.972824 0.305787 0.972978 -0.46727
O_ O_ 0.796767 0.324304 0.985631 -0.46727
Zn Zn 0.628887 0.67974 0.382673 0.90689
Zn Zn 0.642529 0.674965 0.429735 0.90689
Zn Zn 0.862639 0.819639 0.130322 0.90689
Zn Zn 0.854935 0.829958 0.177433 0.90689
H_ H_ 0.807988 0.697184 0.444405 0.11455
H_ H_ 0.875945 0.66503 0.347152 0.11455
H_ H_ 0.781319 0.681368 0.354552 0.11455
H_ H_ 0.892993 0.680285 0.463825 0.11455
H_ H_ 0.984544 0.678244 0.457267 0.11455
H_ H_ 0.958989 0.656156 0.366645 0.11455
H_ H_ 0.655575 0.50663 0.446786 0.11455
H_ H_ 0.63308 0.923853 0.344057 0.11455
H_ H_ 0.625802 0.521589 0.354801 0.11455
H_ H_ 0.61773 0.924071 0.463043 0.11455
H_ H_ 0.609069 0.83152 0.460041 0.11455
H_ H_ 0.626316 0.842062 0.367428 0.11455
H_ H_ 0.579551 0.617739 0.466712 0.11455
H_ H_ 0.559634 0.584574 0.017966 0.11455
H_ H_ 0.575304 0.641646 0.055573 0.11455
H_ H_ 0.703401 0.741782 0.474148 0.11455
H_ H_ 0.706371 0.809838 0.016805 0.11455
H_ H_ 0.685718 0.790497 0.0656753 0.11455
H_ H_ 0.499568 0.707656 0.128288 0.11455
H_ H_ 0.488832 0.675637 0.176367 0.11455
H_ H_ 0.754426 0.675175 0.138814 0.11455
H_ H_ 0.740958 0.642462 0.188249 0.11455
H_ H_ 0.561889 0.573855 0.253187 0.11455
H_ H_ 0.535771 0.56058 0.301662 0.11455
H_ H_ 0.580056 0.604109 0.341638 0.11455
H_ H_ 0.668438 0.720414 0.256676 0.11455
H_ H_ 0.700854 0.776971 0.298248 0.11455
H_ H_ 0.692379 0.749938 0.346302 0.11455
H_ H_ 0.687071 0.795884 0.189564 0.11455
H_ H_ 0.619059 0.860951 0.0981188 0.11455
H_ H_ 0.706214 0.858349 0.106308 0.11455
H_ H_ 0.600219 0.78689 0.209943 0.11455
H_ H_ 0.506535 0.786776 0.202029 0.11455
H_ H_ 0.530886 0.842648 0.114818 0.11455
H_ H_ 0.89917 0.994716 0.194615 0.11455
H_ H_ 0.854966 0.567446 0.095234 0.11455
H_ H_ 0.833242 0.981167 0.107833 0.11455
H_ H_ 0.870583 0.581898 0.214589 0.11455
H_ H_ 0.866173 0.669177 0.209253 0.11455
H_ H_ 0.856855 0.654801 0.116816 0.11455
H_ H_ 0.921354 0.900041 0.215329 0.11455
H_ H_ 0.944105 0.917905 0.264304 0.11455
H_ H_ 0.89925 0.876121 0.304655 0.11455
H_ H_ 0.801915 0.772071 0.219261 0.11455
H_ H_ 0.761444 0.721188 0.2577 0.11455
H_ H_ 0.786165 0.735399 0.308547 0.11455
H_ H_ 0.987178 0.783875 0.369572 0.11455
H_ H_ 0.00480787 0.79976 0.42115 0.11455
H_ H_ 0.740978 0.813939 0.388798 0.11455
H_ H_ 0.752172 0.831548 0.438998 0.11455
H_ H_ 0.937316 0.893241 0.494946 0.11455
H_ H_ 0.962197 0.933149 0.0519266 0.11455
H_ H_ 0.919147 0.883413 0.0899911 0.11455
H_ H_ 0.826071 0.771187 0.00669519 0.11455
H_ H_ 0.773542 0.738307 0.0435861 0.11455
H_ H_ 0.791343 0.760113 0.0941218 0.11455
C_ C_ 0.733945 0.691616 0.406559 0.68181
C_ C_ 0.790107 0.686364 0.400686 -0.05681
C_ C_ 0.823814 0.688469 0.423664 -0.08735
C_ C_ 0.876564 0.681138 0.418922 -0.05681
C_ C_ 0.894896 0.670831 0.391212 -0.05681
C_ C_ 0.860011 0.667868 0.367982 -0.08735
C_ C_ 0.808774 0.680898 0.372843 -0.08735
C_ C_ 0.908683 0.674731 0.442482 -0.08735
C_ C_ 0.95963 0.671963 0.438386 -0.08735
C_ C_ 0.979177 0.674631 0.409958 -0.05681
C_ C_ 0.946694 0.668548 0.387019 -0.08735
C_ C_ 0.623642 0.77203 0.411278 0.68181
C_ C_ 0.647567 0.577797 0.403783 0.68181
C_ C_ 0.64105 0.520909 0.402077 -0.05681
C_ C_ 0.631066 0.989346 0.419424 -0.08735
C_ C_ 0.627441 0.936015 0.417583 -0.05681
C_ C_ 0.626954 0.913034 0.390763 -0.05681
C_ C_ 0.633728 0.943307 0.365123 -0.08735
C_ C_ 0.638994 0.996759 0.367815 -0.08735
C_ C_ 0.618795 0.906905 0.442174 -0.08735
C_ C_ 0.616825 0.853293 0.440065 -0.08735
C_ C_ 0.618166 0.829206 0.41367 -0.05681
C_ C_ 0.625286 0.859996 0.389119 -0.08735
C_ C_ 0.536272 0.672575 0.405052 0.68181
C_ C_ 0.603649 0.63134 0.483153 0.1947
C_ C_ 0.582426 0.617618 0.0138508 -0.08735
C_ C_ 0.591992 0.650553 0.0358901 -0.08735
C_ C_ 0.61905 0.695713 0.0311383 -0.05681
C_ C_ 0.636181 0.706404 1.00252354 0.18498
C_ C_ 0.694535 0.73169 0.495544 -0.08735
C_ C_ 0.683095 0.778818 0.020092 -0.08735
C_ C_ 0.668674 0.767877 0.0482606 -0.08735
C_ C_ 0.641415 0.724269 0.055045 0.18498
C_ C_ 0.676191 0.693144 0.100351 0.44287
C_ C_ 0.587599 0.708791 0.0975218 0.44287
C_ C_ 0.581719 0.699428 0.127441 -0.05681
C_ C_ 0.533011 0.692514 0.138848 -0.08735
C_ C_ 0.528246 0.678137 0.168158 -0.08735
C_ C_ 0.571667 0.673066 0.184861 -0.05681
C_ C_ 0.618268 0.670408 0.172129 -0.05681
C_ C_ 0.623708 0.683142 0.142487 -0.05681
C_ C_ 0.672897 0.684191 0.130595 -0.05681
C_ C_ 0.716445 0.672827 0.14679 -0.08735
C_ C_ 0.709128 0.658545 0.175937 -0.08735
C_ C_ 0.660286 0.657889 0.188909 -0.05681
C_ C_ 0.654349 0.647649 0.217458 0.44287
C_ C_ 0.56816 0.665436 0.21447 0.44287
C_ C_ 0.601823 0.641705 0.261071 0.18498
C_ C_ 0.575937 0.598454 0.270099 -0.08735
C_ C_ 0.562546 0.590592 0.29763 -0.08735
C_ C_ 0.585284 0.617976 0.3195 -0.08735
C_ C_ 0.615703 0.659359 0.31299 0.18498
C_ C_ 0.62433 0.672459 0.283265 -0.05681
C_ C_ 0.655291 0.715456 0.27792 -0.08735
C_ C_ 0.674468 0.745122 0.301266 -0.08735
C_ C_ 0.669044 0.729585 0.329615 0.1947
C_ C_ 0.759678 0.829087 0.154759 0.68181
C_ C_ 0.703589 0.831241 0.150659 -0.05681
C_ C_ 0.669867 0.812198 0.171007 -0.08735
C_ C_ 0.6176 0.809844 0.166461 -0.05681
C_ C_ 0.599509 0.831926 0.141144 -0.05681
C_ C_ 0.632757 0.848293 0.118909 -0.08735
C_ C_ 0.683361 0.84612 0.123324 -0.08735
C_ C_ 0.584311 0.796365 0.188302 -0.08735
C_ C_ 0.533507 0.798956 0.184161 -0.08735
C_ C_ 0.51253 0.813444 0.157334 -0.05681
C_ C_ 0.546982 0.83048 0.135044 -0.08735
C_ C_ 0.862639 0.726795 0.156769 0.68181
C_ C_ 0.866532 0.9233 0.150692 0.68181
C_ C_ 0.868266 0.97939 0.149994 -0.05681
C_ C_ 0.855444 0.512005 0.172439 -0.08735
C_ C_ 0.857151 0.564199 0.168919 -0.05681
C_ C_ 0.85543 0.585919 0.140394 -0.05681
C_ C_ 0.844451 0.553153 0.116583 -0.08735
C_ C_ 0.850714 1.00380031 0.125685 -0.08735
C_ C_ 0.86697 0.596268 0.192475 -0.08735
C_ C_ 0.865845 0.648591 0.188263 -0.08735
C_ C_ 0.859054 0.670113 0.161595 -0.05681
C_ C_ 0.857105 0.639007 0.137578 -0.08735
C_ C_ 0.959002 0.825579 0.156343 0.68181
C_ C_ 0.905555 0.876743 0.231335 0.1947
C_ C_ 0.919103 0.887801 0.258909 -0.08735
C_ C_ 0.895249 0.861756 0.282586 -0.08735
C_ C_ 0.859775 0.824621 0.276686 -0.05681
C_ C_ 0.843177 0.81734 0.247665 0.18498
C_ C_ 0.810458 0.777749 0.241275 -0.08735
C_ C_ 0.790041 0.749215 0.263332 -0.08735
C_ C_ 0.802631 0.757424 0.292148 -0.08735
C_ C_ 0.840455 0.793085 0.299695 0.18498
C_ C_ 0.813334 0.816366 0.347816 0.44287
C_ C_ 0.899751 0.795296 0.339889 0.44287
C_ C_ 0.908905 0.798014 0.3707 -0.05681
C_ C_ 0.958144 0.792349 0.382604 -0.08735
C_ C_ 0.966352 0.797464 0.412569 -0.08735
C_ C_ 0.923497 0.796798 0.430324 -0.05681
C_ C_ 0.875201 0.806595 0.418384 -0.05681
C_ C_ 0.869805 0.808823 0.389094 -0.05681
C_ C_ 0.820064 0.816804 0.377963 -0.05681
C_ C_ 0.779012 0.818111 0.39604 -0.08735
C_ C_ 0.786158 0.825599 0.425178 -0.08735
C_ C_ 0.835388 0.816433 0.437254 -0.05681
C_ C_ 0.843309 0.813761 0.46687 0.44287
C_ C_ 0.930888 0.79871 0.460073 0.44287
C_ C_ 0.894988 0.84911 0.00985847 0.18498
C_ C_ 0.93029 0.888718 0.0175363 -0.08735
C_ C_ 0.93471 0.904317 0.0461633 -0.08735
C_ C_ 0.906581 0.879847 0.0674045 -0.08735
C_ C_ 0.873993 0.839555 0.0614617 0.18498
C_ C_ 0.868186 0.823618 0.0328202 -0.05681
C_ C_ 0.835787 0.783093 0.0283086 -0.08735
C_ C_ 0.806185 0.762552 0.0497426 -0.08735
C_ C_ 0.816508 0.773785 0.0777516 0.1947
N_ N_ 0.643102 0.665068 0.47819 -0.29468
N_ N_ 0.63316 0.70789 0.0847793 -0.17154
N_ N_ 0.610177 0.654663 0.230634 -0.17154
N_ N_ 0.637209 0.689049 0.335156 -0.29468
N_ N_ 0.867668 0.841691 0.224997 -0.29468
N_ N_ 0.852577 0.802101 0.329808 -0.17154
N_ N_ 0.891584 0.80762 0.478082 -0.17154
N_ N_ 0.849609 0.812451 0.0833121 -0.29468
O_ O_ 0.719157 0.681537 0.431165 -0.58347
O_ O_ 0.702274 0.694872 0.385776 -0.58347
O_ O_ 0.63255 0.74593 0.4333 -0.58347
O_ O_ 0.613921 0.75142 0.386536 -0.58347
O_ O_ 0.647625 0.599066 0.427444 -0.58347
O_ O_ 0.647018 0.603091 0.38086 -0.58347
O_ O_ 0.565162 0.67398 0.426411 -0.58347
O_ O_ 0.555595 0.660582 0.380899 -0.58347
O_ O_ 0.547637 0.726341 0.0836659 -0.46727
O_ O_ 0.721074 0.701626 0.0887509 -0.46727
O_ O_ 0.523106 0.667946 0.22648 -0.46727
O_ O_ 0.689911 0.624399 0.23148 -0.46727
O_ O_ 0.780066 0.836335 0.1782 -0.58347
O_ O_ 0.787866 0.816406 0.134058 -0.58347
O_ O_ 0.850704 0.756777 0.177467 -0.58347
O_ O_ 0.870877 0.744959 0.132412 -0.58347
O_ O_ 0.863362 0.902368 0.175667 -0.58347
O_ O_ 0.85519 0.897785 0.129098 -0.58347
O_ O_ 0.931685 0.823106 0.178549 -0.58347
O_ O_ 0.938443 0.830916 0.132296 -0.58347
O_ O_ 0.935463 0.779226 0.322566 -0.46727
O_ O_ 0.765764 0.813618 0.337657 -0.46727
O_ O_ 0.972291 0.785832 0.472049 -0.46727
O_ O_ 0.805653 0.817591 0.485579 -0.46727
Zn Zn 0.619725 0.693984 0.884164 0.90689
Zn Zn 0.62841 0.686672 0.930714 0.90689
Zn Zn 0.871841 0.806906 0.630264 0.90689
Zn Zn 0.867047 0.81399 0.67913 0.90689
H_ H_ 0.793399 0.701337 0.945008 0.11455
H_ H_ 0.864735 0.668416 0.84878 0.11455
H_ H_ 0.771858 0.664099 0.85709 0.11455
H_ H_ 0.879802 0.70142 0.96393 0.11455
H_ H_ 0.971455 0.696637 0.958747 0.11455
H_ H_ 0.951894 0.657423 0.868459 0.11455
H_ H_ 0.619741 0.524241 0.94722 0.11455
H_ H_ 0.636436 0.942653 0.84695 0.11455
H_ H_ 0.655573 0.534158 0.85704 0.11455
H_ H_ 0.607583 0.937242 0.963803 0.11455
H_ H_ 0.586168 0.846713 0.956757 0.11455
H_ H_ 0.647009 0.856714 0.87471 0.11455
H_ H_ 0.600785 0.602325 0.969379 0.11455
H_ H_ 0.557527 0.595507 0.513769 0.11455
H_ H_ 0.601638 0.630593 0.554713 0.11455
H_ H_ 0.686764 0.751304 0.975727 0.11455
H_ H_ 0.732282 0.795739 0.513678 0.11455
H_ H_ 0.712764 0.773181 0.565633 0.11455
H_ H_ 0.516862 0.69235 0.619425 0.11455
H_ H_ 0.504019 0.687202 0.671168 0.11455
H_ H_ 0.762557 0.652257 0.643772 0.11455
H_ H_ 0.746383 0.652388 0.694209 0.11455
H_ H_ 0.54108 0.602287 0.750583 0.11455
H_ H_ 0.529675 0.572521 0.802046 0.11455
H_ H_ 0.561187 0.629127 0.840978 0.11455
H_ H_ 0.656419 0.744205 0.75565 0.11455
H_ H_ 0.6966 0.784334 0.796223 0.11455
H_ H_ 0.679227 0.763346 0.843678 0.11455
H_ H_ 0.702885 0.799569 0.695153 0.11455
H_ H_ 0.62938 0.829929 0.597886 0.11455
H_ H_ 0.718918 0.826572 0.604567 0.11455
H_ H_ 0.61632 0.817866 0.715318 0.11455
H_ H_ 0.522397 0.807841 0.70925 0.11455
H_ H_ 0.544708 0.822104 0.6161 0.11455
H_ H_ 0.867201 0.979946 0.686979 0.11455
H_ H_ 0.860602 0.564533 0.601242 0.11455
H_ H_ 0.881568 0.968536 0.596247 0.11455
H_ H_ 0.871537 0.564589 0.718789 0.11455
H_ H_ 0.872286 0.657069 0.714266 0.11455
H_ H_ 0.863271 0.645486 0.623516 0.11455
H_ H_ 0.925972 0.891092 0.712796 0.11455
H_ H_ 0.940378 0.92251 0.763224 0.11455
H_ H_ 0.903092 0.878553 0.803459 0.11455
H_ H_ 0.796652 0.762658 0.723254 0.11455
H_ H_ 0.78467 0.700305 0.760486 0.11455
H_ H_ 0.809169 0.71979 0.807771 0.11455
H_ H_ 0.992249 0.790003 0.873108 0.11455
H_ H_ 0.999561346 0.813383 0.923126 0.11455
H_ H_ 0.741372 0.837262 0.888749 0.11455
H_ H_ 0.752594 0.853331 0.940205 0.11455
H_ H_ 0.951647 0.909302 1.00176464 0.11455
H_ H_ 0.954815 0.924524 0.543251 0.11455
H_ H_ 0.929387 0.872597 0.585934 0.11455
H_ H_ 0.84833 0.731969 0.507559 0.11455
H_ H_ 0.82387 0.681533 0.550342 0.11455
H_ H_ 0.834508 0.725017 0.598893 0.11455
C_ C_ 0.721694 0.69377 0.902748 0.68181
C_ C_ 0.777724 0.685203 0.900183 -0.05681
C_ C_ 0.808556 0.691001 0.92344 -0.08735
C_ C_ 0.861315 0.688135 0.919657 -0.05681
C_ C_ 0.884175 0.684504 0.891149 -0.05681
C_ C_ 0.850516 0.674859 0.869089 -0.08735
C_ C_ 0.797752 0.675101 0.873693 -0.08735
C_ C_ 0.894773 0.697598 0.943038 -0.08735
C_ C_ 0.947514 0.69758 0.939176 -0.08735
C_ C_ 0.969522 0.682092 0.912533 -0.05681
C_ C_ 0.936766 0.674385 0.888599 -0.08735
C_ C_ 0.619446 0.789542 0.909948 0.68181
C_ C_ 0.635917 0.592893 0.902706 0.68181
C_ C_ 0.643409 0.536057 0.901715 -0.05681
C_ C_ 0.625297 0.00672936 0.922099 -0.08735
C_ C_ 0.618924 0.95255 0.918741 -0.05681
C_ C_ 0.625397 0.929081 0.891767 -0.05681
C_ C_ 0.635702 0.959837 0.868616 -0.08735
C_ C_ 0.643176 0.0131324 0.871951 -0.08735
C_ C_ 0.604093 0.921974 0.942856 -0.08735
C_ C_ 0.601015 0.869719 0.939225 -0.08735
C_ C_ 0.616524 0.845403 0.913369 -0.05681
C_ C_ 0.63363 0.877121 0.892414 -0.08735
C_ C_ 0.524631 0.68305 0.9095 0.68181
C_ C_ 0.598585 0.631242 0.985538 0.1947
C_ C_ 0.587726 0.620835 0.511383 -0.08735
C_ C_ 0.61423 0.639553 0.533388 -0.08735
C_ C_ 0.653807 0.674398 0.529414 -0.05681
C_ C_ 0.664254 0.69034 0.501138 0.18498
C_ C_ 0.66762 0.748323 0.997105 -0.08735
C_ C_ 0.707623 0.764013 0.518918 -0.08735
C_ C_ 0.697176 0.749715 0.547921 -0.08735
C_ C_ 0.668344 0.706032 0.553326 0.18498
C_ C_ 0.695492 0.677812 0.601644 0.44287
C_ C_ 0.609317 0.702528 0.594619 0.44287
C_ C_ 0.59879 0.693293 0.622881 -0.05681
C_ C_ 0.548865 0.690959 0.634068 -0.08735
C_ C_ 0.540749 0.68336 0.662759 -0.08735
C_ C_ 0.581499 0.688042 0.682303 -0.05681
C_ C_ 0.630209 0.681347 0.672683 -0.05681
C_ C_ 0.638556 0.68366 0.642353 -0.05681
C_ C_ 0.686158 0.677634 0.631545 -0.05681
C_ C_ 0.724996 0.665964 0.650665 -0.08735
C_ C_ 0.716348 0.664031 0.680322 -0.08735
C_ C_ 0.667524 0.66926 0.691053 -0.05681
C_ C_ 0.654696 0.661613 0.720716 0.44287
C_ C_ 0.570263 0.686891 0.713129 0.44287
C_ C_ 0.597162 0.659719 0.760887 0.18498
C_ C_ 0.564429 0.61846 0.768469 -0.08735
C_ C_ 0.551339 0.607212 0.796507 -0.08735
C_ C_ 0.567113 0.639526 0.818799 -0.08735
C_ C_ 0.603297 0.677453 0.812765 0.18498
C_ C_ 0.618679 0.687561 0.783466 -0.05681
C_ C_ 0.643069 0.732836 0.777812 -0.08735
C_ C_ 0.663683 0.760417 0.800402 -0.08735
C_ C_ 0.658392 0.744002 0.828508 0.1947
C_ C_ 0.77038 0.808634 0.653016 0.68181
C_ C_ 0.71673 0.810049 0.649803 -0.05681
C_ C_ 0.686177 0.809963 0.673713 -0.08735
C_ C_ 0.633233 0.812999 0.670509 -0.05681
C_ C_ 0.612419 0.817716 0.642829 -0.05681
C_ C_ 0.644143 0.823398 0.619479 -0.08735
C_ C_ 0.695577 0.818526 0.622632 -0.08735
C_ C_ 0.599909 0.811444 0.693842 -0.08735
C_ C_ 0.545733 0.810101 0.689814 -0.08735
C_ C_ 0.525645 0.81154 0.661644 -0.05681
C_ C_ 0.559517 0.819072 0.637925 -0.08735
C_ C_ 0.874838 0.71418 0.666474 0.68181
C_ C_ 0.866205 0.908561 0.646022 0.68181
C_ C_ 0.873459 0.964607 0.643002 -0.05681
C_ C_ 0.859103 0.496282 0.675197 -0.08735
C_ C_ 0.864646 0.551171 0.672731 -0.05681
C_ C_ 0.85687 0.575639 0.645696 -0.05681
C_ C_ 0.855668 0.546488 0.621946 -0.08735
C_ C_ 0.878875 0.988208 0.615563 -0.08735
C_ C_ 0.868101 0.582378 0.697335 -0.08735
C_ C_ 0.872488 0.633955 0.695323 -0.08735
C_ C_ 0.8733 0.657976 0.667892 -0.05681
C_ C_ 0.862892 0.628383 0.643684 -0.08735
C_ C_ 0.968815 0.815557 0.658573 0.68181
C_ C_ 0.903313 0.876161 0.731209 0.1947
C_ C_ 0.913738 0.892695 0.758746 -0.08735
C_ C_ 0.896036 0.865723 0.78175 -0.08735
C_ C_ 0.860434 0.826521 0.777911 -0.05681
C_ C_ 0.844601 0.815273 0.749307 0.18498
C_ C_ 0.815617 0.770687 0.744606 -0.08735
C_ C_ 0.805192 0.736519 0.766095 -0.08735
C_ C_ 0.818136 0.748854 0.793665 -0.08735
C_ C_ 0.842955 0.795556 0.801398 0.18498
C_ C_ 0.815628 0.82563 0.848514 0.44287
C_ C_ 0.901942 0.800897 0.842246 0.44287
C_ C_ 0.909625 0.808813 0.872643 -0.05681
C_ C_ 0.957686 0.805951 0.884687 -0.08735
C_ C_ 0.960567 0.812894 0.9145 -0.08735
C_ C_ 0.919985 0.81959 0.932713 -0.05681
C_ C_ 0.874567 0.824633 0.92105 -0.05681
C_ C_ 0.868769 0.82395 0.890766 -0.05681
C_ C_ 0.820395 0.830018 0.878893 -0.05681
C_ C_ 0.778358 0.838757 0.896819 -0.08735
C_ C_ 0.784426 0.842489 0.92667 -0.08735
C_ C_ 0.832244 0.835919 0.939212 -0.05681
C_ C_ 0.839439 0.846901 0.967667 0.44287
C_ C_ 0.924829 0.820479 0.963466 0.44287
C_ C_ 0.900633 0.822895 0.508623 0.18498
C_ C_ 0.923299 0.871656 0.513389 -0.08735
C_ C_ 0.931886 0.88918 0.541208 -0.08735
C_ C_ 0.916119 0.860395 0.56496 -0.08735
C_ C_ 0.890275 0.813139 0.560605 0.18498
C_ C_ 0.881214 0.795314 0.531594 -0.05681
C_ C_ 0.85819 0.74708 0.52814 -0.08735
C_ C_ 0.842087 0.719907 0.553116 -0.08735
C_ C_ 0.849856 0.741859 0.580488 0.1947
N_ N_ 0.622292 0.677028 0.980243 -0.29468
N_ N_ 0.656893 0.691758 0.582921 -0.17154
N_ N_ 0.60678 0.671115 0.731409 -0.17154
N_ N_ 0.62599 0.703694 0.834119 -0.29468
N_ N_ 0.869373 0.837549 0.726839 -0.29468
N_ N_ 0.854107 0.805408 0.830989 -0.17154
N_ N_ 0.886534 0.834643 0.980341 -0.17154
N_ N_ 0.875018 0.785408 0.583159 -0.29468
O_ O_ 0.701434 0.706255 0.925736 -0.58347
O_ O_ 0.694447 0.68785 0.880549 -0.58347
O_ O_ 0.615271 0.761061 0.932047 -0.58347
O_ O_ 0.626013 0.771439 0.885437 -0.58347
O_ O_ 0.645035 0.615515 0.926114 -0.58347
O_ O_ 0.617585 0.616892 0.881463 -0.58347
O_ O_ 0.555907 0.671349 0.928933 -0.58347
O_ O_ 0.541489 0.694048 0.884608 -0.58347
O_ O_ 0.576157 0.730368 0.580254 -0.46727
O_ O_ 0.742603 0.67586 0.592075 -0.46727
O_ O_ 0.528493 0.70311 0.724421 -0.46727
O_ O_ 0.689258 0.643633 0.738736 -0.46727
O_ O_ 0.795021 0.817178 0.675871 -0.58347
O_ O_ 0.797094 0.796366 0.631551 -0.58347
O_ O_ 0.867467 0.741802 0.688722 -0.58347
O_ O_ 0.881537 0.733065 0.641682 -0.58347
O_ O_ 0.874726 0.887831 0.669742 -0.58347
O_ O_ 0.86061 0.881586 0.622646 -0.58347
O_ O_ 0.940443 0.809802 0.680523 -0.58347
O_ O_ 0.948739 0.818902 0.634254 -0.58347
O_ O_ 0.93919 0.782622 0.826851 -0.46727
O_ O_ 0.77139 0.836084 0.835764 -0.46727
O_ O_ 0.969636 0.813011 0.975117 -0.46727
O_ O_ 0.80134 0.86264 0.983659 -0.46727
