_cell_length_a 26.376
_cell_length_b 26.400000238300095
_cell_length_c 46.67800035477134
_cell_angle_alpha 90.00700052986613
_cell_angle_beta 89.99899961309502
_cell_angle_gamma 90.45000003183146
_symmetry_space_group_name_H-M         'P 1'
_symmetry_Int_Tables_number            1
loop_
_symmetry_equiv_pos_as_xyz
   'x, y, z'
                         
loop_
_atom_site_label
_atom_site_type_symbol
_atom_site_fract_x 
_atom_site_fract_y
_atom_site_fract_z
_atom_site_charge
Zn Zn 0.120441 0.182278 0.382067 0.90689
Zn Zn 0.132302 0.1771 0.430337 0.90689
Zn Zn 0.36912 0.312679 0.13421 0.90689
Zn Zn 0.361875 0.319957 0.183545 0.90689
H_ H_ 0.294188 0.190917 0.447495 0.11455
H_ H_ 0.359953 0.169581 0.347229 0.11455
H_ H_ 0.268636 0.179318 0.356893 0.11455
H_ H_ 0.382721 0.198852 0.463873 0.11455
H_ H_ 0.471923 0.189413 0.455224 0.11455
H_ H_ 0.447306 0.192475 0.363167 0.11455
H_ H_ 0.134904 0.00939018 0.445087 0.11455
H_ H_ 0.137158 0.428508 0.349408 0.11455
H_ H_ 0.146053 0.0270716 0.352286 0.11455
H_ H_ 0.101449 0.431188 0.466171 0.11455
H_ H_ 0.0918156 0.335861 0.460966 0.11455
H_ H_ 0.135716 0.347611 0.371275 0.11455
H_ H_ 0.0822625 0.102707 0.463709 0.11455
H_ H_ 0.0646636 0.0682498 0.0171012 0.11455
H_ H_ 0.0930571 0.122821 0.0579119 0.11455
H_ H_ 0.187794 0.244026 0.475483 0.11455
H_ H_ 0.215242 0.296492 0.0160831 0.11455
H_ H_ 0.160414 0.291577 0.0589588 0.11455
H_ H_ -0.00172551 0.207532 0.125836 0.11455
H_ H_ -0.006211999999999995 0.194631 0.178542 0.11455
H_ H_ 0.24627 0.164258 0.135557 0.11455
H_ H_ 0.243438 0.148683 0.184791 0.11455
H_ H_ 0.0830557 0.0602836 0.252507 0.11455
H_ H_ 0.0436844 0.0497102 0.301582 0.11455
H_ H_ 0.0640068 0.115206 0.338617 0.11455
H_ H_ 0.163226 0.224509 0.256302 0.11455
H_ H_ 0.177898 0.283857 0.296867 0.11455
H_ H_ 0.16381 0.258531 0.346589 0.11455
H_ H_ 0.192096 0.30061 0.195547 0.11455
H_ H_ 0.131704 0.356884 0.102581 0.11455
H_ H_ 0.216539 0.339732 0.110247 0.11455
H_ H_ 0.103483 0.288946 0.214217 0.11455
H_ H_ 0.0164495 0.30565 0.206054 0.11455
H_ H_ 0.0358723 0.336978 0.118508 0.11455
H_ H_ 0.385124 0.487335 0.194814 0.11455
H_ H_ 0.352366 0.0706546 0.100379 0.11455
H_ H_ 0.368234 0.478731 0.10209 0.11455
H_ H_ 0.415114 0.0725838 0.21356 0.11455
H_ H_ 0.400997 0.164746 0.211287 0.11455
H_ H_ 0.352969 0.152119 0.123952 0.11455
H_ H_ 0.404554 0.399588 0.219967 0.11455
H_ H_ 0.408124 0.433569 0.268592 0.11455
H_ H_ 0.365822 0.389767 0.307306 0.11455
H_ H_ 0.302553 0.254279 0.226551 0.11455
H_ H_ 0.268356 0.199801 0.266335 0.11455
H_ H_ 0.288587 0.226798 0.316199 0.11455
H_ H_ 0.471154 0.31258 0.370975 0.11455
H_ H_ 0.48211 0.329489 0.421956 0.11455
H_ H_ 0.217784 0.31605 0.393481 0.11455
H_ H_ 0.233342 0.342209 0.441682 0.11455
H_ H_ 0.406822 0.429324 0.501943 0.11455
H_ H_ 0.467711 0.42198 0.0500085 0.11455
H_ H_ 0.438157 0.368647 0.0918785 0.11455
H_ H_ 0.336595 0.252256 0.00946345 0.11455
H_ H_ 0.296967 0.21037 0.0516769 0.11455
H_ H_ 0.316864 0.241829 0.0992665 0.11455
C_ C_ 0.220814 0.188404 0.408027 0.68181
C_ C_ 0.276015 0.190159 0.40312 -0.05681
C_ C_ 0.30943 0.192588 0.426081 -0.08735
C_ C_ 0.362263 0.19185 0.42053 -0.05681
C_ C_ 0.380534 0.189701 0.391333 -0.05681
C_ C_ 0.347089 0.178596 0.368909 -0.08735
C_ C_ 0.297451 0.184922 0.374691 -0.08735
C_ C_ 0.395602 0.201627 0.442497 -0.08735
C_ C_ 0.448376 0.197371 0.437554 -0.08735
C_ C_ 0.46779 0.195904 0.409951 -0.05681
C_ C_ 0.433131 0.190022 0.385808 -0.08735
C_ C_ 0.116363 0.276449 0.413907 0.68181
C_ C_ 0.139289 0.0839802 0.400233 0.68181
C_ C_ 0.136585 0.0269264 0.39843 -0.05681
C_ C_ 0.115498 0.49661 0.420829 -0.08735
C_ C_ 0.11847 0.442249 0.420424 -0.05681
C_ C_ 0.126591 0.417113 0.394257 -0.05681
C_ C_ 0.135018 0.446246 0.369488 -0.08735
C_ C_ 0.135603 0.50128 0.370313 -0.08735
C_ C_ 0.105333 0.410573 0.445844 -0.08735
C_ C_ 0.100957 0.35814 0.442777 -0.08735
C_ C_ 0.110582 0.333306 0.415997 -0.05681
C_ C_ 0.122892 0.364275 0.391669 -0.08735
C_ C_ 0.0274745 0.165289 0.406096 0.68181
C_ C_ 0.0989943 0.121312 0.481987 0.1947
C_ C_ 0.0864625 0.101601 0.0134154 -0.08735
C_ C_ 0.104974 0.132374 0.0364092 -0.08735
C_ C_ 0.13299 0.175451 0.0307991 -0.05681
C_ C_ 0.152071 0.185307 1.00279582 0.18498
C_ C_ 0.17839 0.229091 0.497376 -0.08735
C_ C_ 0.191955 0.263854 0.0209735 -0.08735
C_ C_ 0.162475 0.25772 0.045313 -0.08735
C_ C_ 0.140203 0.211395 0.0537027 0.18498
C_ C_ 0.173652 0.189794 0.0999889 0.44287
C_ C_ 0.0882157 0.207255 0.096265 0.44287
C_ C_ 0.0796418 0.191405 0.124803 -0.05681
C_ C_ 0.0320409 0.196884 0.138201 -0.08735
C_ C_ 0.0267312 0.184463 0.167449 -0.08735
C_ C_ 0.0699669 0.173227 0.184436 -0.05681
C_ C_ 0.116931 0.166456 0.171798 -0.05681
C_ C_ 0.120505 0.178209 0.14205 -0.05681
C_ C_ 0.168679 0.176356 0.128225 -0.05681
C_ C_ 0.211507 0.170827 0.145191 -0.08735
C_ C_ 0.207224 0.154783 0.17291 -0.08735
C_ C_ 0.161813 0.158484 0.1875 -0.05681
C_ C_ 0.156352 0.14586 0.216789 0.44287
C_ C_ 0.0685796 0.167857 0.213702 0.44287
C_ C_ 0.103318 0.140755 0.259175 0.18498
C_ C_ 0.0813079 0.0935612 0.268182 -0.08735
C_ C_ 0.0582497 0.0884083 0.295796 -0.08735
C_ C_ 0.0718575 0.122116 0.316973 -0.08735
C_ C_ 0.101286 0.163065 0.310136 0.18498
C_ C_ 0.117765 0.173659 0.282396 -0.05681
C_ C_ 0.147532 0.217605 0.277739 -0.08735
C_ C_ 0.159573 0.249307 0.300926 -0.08735
C_ C_ 0.149673 0.233735 0.328582 0.1947
C_ C_ 0.267819 0.313377 0.157209 0.68181
C_ C_ 0.211853 0.313416 0.152956 -0.05681
C_ C_ 0.178797 0.302596 0.175209 -0.08735
C_ C_ 0.127462 0.31032 0.170954 -0.05681
C_ C_ 0.107561 0.320431 0.143229 -0.05681
C_ C_ 0.141982 0.338729 0.122576 -0.08735
C_ C_ 0.191619 0.330344 0.126921 -0.08735
C_ C_ 0.0926094 0.301898 0.193825 -0.08735
C_ C_ 0.0415506 0.309465 0.189825 -0.08735
C_ C_ 0.0217702 0.322093 0.16241 -0.05681
C_ C_ 0.0550947 0.328599 0.139228 -0.08735
C_ C_ 0.373403 0.220585 0.165834 0.68181
C_ C_ 0.368219 0.417353 0.15047 0.68181
C_ C_ 0.373554 0.474689 0.149881 -0.05681
C_ C_ 0.395124 0.00337495 0.169807 -0.08735
C_ C_ 0.393406 0.0579962 0.169926 -0.05681
C_ C_ 0.375945 0.0818262 0.144199 -0.05681
C_ C_ 0.360465 0.051281 0.120361 -0.08735
C_ C_ 0.365418 0.500133 0.123029 -0.08735
C_ C_ 0.404406 0.0890518 0.194195 -0.08735
C_ C_ 0.395131 0.14157 0.193006 -0.08735
C_ C_ 0.380321 0.16488 0.16711 -0.05681
C_ C_ 0.371893 0.135075 0.143057 -0.08735
C_ C_ 0.461913 0.31765 0.161659 0.68181
C_ C_ 0.381726 0.379473 0.236484 0.1947
C_ C_ 0.388601 0.398009 0.263569 -0.08735
C_ C_ 0.364608 0.374635 0.285955 -0.08735
C_ C_ 0.340925 0.327719 0.281305 -0.05681
C_ C_ 0.337742 0.30757 0.25331 0.18498
C_ C_ 0.306662 0.2661 0.247903 -0.08735
C_ C_ 0.293238 0.233286 0.27128 -0.08735
C_ C_ 0.295469 0.252195 0.299632 -0.08735
C_ C_ 0.319276 0.301008 0.304149 0.18498
C_ C_ 0.289882 0.324703 0.350673 0.44287
C_ C_ 0.378163 0.309478 0.343266 0.44287
C_ C_ 0.387891 0.316556 0.373124 -0.05681
C_ C_ 0.438009 0.321085 0.383899 -0.08735
C_ C_ 0.446205 0.328407 0.41338 -0.08735
C_ C_ 0.403692 0.330475 0.432794 -0.05681
C_ C_ 0.354119 0.327023 0.422283 -0.05681
C_ C_ 0.347104 0.319937 0.391961 -0.05681
C_ C_ 0.296819 0.320636 0.380918 -0.05681
C_ C_ 0.257025 0.324736 0.399963 -0.08735
C_ C_ 0.265488 0.337658 0.428337 -0.08735
C_ C_ 0.313344 0.33791 0.439882 -0.05681
C_ C_ 0.322423 0.345032 0.47032 0.44287
C_ C_ 0.411223 0.338609 0.463263 0.44287
C_ C_ 0.400612 0.335303 0.0109067 0.18498
C_ C_ 0.428101 0.379015 0.0175201 -0.08735
C_ C_ 0.440385 0.392349 0.0461385 -0.08735
C_ C_ 0.426954 0.361711 0.0689567 -0.08735
C_ C_ 0.392417 0.32172 0.0637393 0.18498
C_ C_ 0.378463 0.308024 0.0345687 -0.05681
C_ C_ 0.348535 0.264146 0.0302309 -0.08735
C_ C_ 0.322248 0.242974 0.0530281 -0.08735
C_ C_ 0.33403 0.259831 0.0807034 0.1947
N_ N_ 0.129875 0.160333 0.47763 -0.29468
N_ N_ 0.133498 0.202206 0.0840169 -0.17154
N_ N_ 0.111029 0.153166 0.229499 -0.17154
N_ N_ 0.11928 0.192487 0.333573 -0.29468
N_ N_ 0.360031 0.333321 0.231226 -0.29468
N_ N_ 0.329349 0.317836 0.333187 -0.17154
N_ N_ 0.370792 0.339745 0.481555 -0.17154
N_ N_ 0.366083 0.299467 0.0849815 -0.29468
O_ O_ 0.203266 0.181009 0.432482 -0.58347
O_ O_ 0.192808 0.197738 0.386336 -0.58347
O_ O_ 0.125147 0.251363 0.43747 -0.58347
O_ O_ 0.111865 0.254798 0.390329 -0.58347
O_ O_ 0.147843 0.104014 0.424319 -0.58347
O_ O_ 0.130149 0.1095 0.378204 -0.58347
O_ O_ 0.0560462 0.167186 0.427345 -0.58347
O_ O_ 0.0458654 0.167355 0.38109 -0.58347
O_ O_ 0.0497075 0.226699 0.0817173 -0.46727
O_ O_ 0.217791 0.18239 0.0873376 -0.46727
O_ O_ 0.0273002 0.17577 0.227909 -0.46727
O_ O_ 0.197322 0.137046 0.232854 -0.46727
O_ O_ 0.285552 0.305416 0.181648 -0.58347
O_ O_ 0.295695 0.317154 0.135235 -0.58347
O_ O_ 0.376763 0.248147 0.18776 -0.58347
O_ O_ 0.355441 0.239506 0.143389 -0.58347
O_ O_ 0.352423 0.396778 0.173565 -0.58347
O_ O_ 0.374829 0.390676 0.127681 -0.58347
O_ O_ 0.43628 0.334029 0.182426 -0.58347
O_ O_ 0.442397 0.307743 0.137545 -0.58347
O_ O_ 0.412766 0.296079 0.324548 -0.46727
O_ O_ 0.245218 0.325242 0.338936 -0.46727
O_ O_ 0.458246 0.339642 0.474154 -0.46727
O_ O_ 0.284797 0.361099 0.487448 -0.46727
Zn Zn 0.131759 0.176854 0.886545 0.90689
Zn Zn 0.141125 0.178634 0.934303 0.90689
Zn Zn 0.377088 0.317187 0.6311 0.90689
Zn Zn 0.368271 0.326441 0.679501 0.90689
H_ H_ 0.307715 0.158231 0.950147 0.11455
H_ H_ 0.366973 0.173986 0.848857 0.11455
H_ H_ 0.281553 0.182609 0.859628 0.11455
H_ H_ 0.396868 0.172702 0.965984 0.11455
H_ H_ 0.481552 0.190169 0.955522 0.11455
H_ H_ 0.454414 0.176024 0.866039 0.11455
H_ H_ 0.144295 0.0138857 0.94624 0.11455
H_ H_ 0.131806 0.431368 0.845527 0.11455
H_ H_ 0.155919 0.0245472 0.855926 0.11455
H_ H_ 0.149739 0.428264 0.964078 0.11455
H_ H_ 0.14792 0.335953 0.963726 0.11455
H_ H_ 0.136763 0.340438 0.871102 0.11455
H_ H_ 0.0818863 0.0990687 0.966585 0.11455
H_ H_ 0.0564696 0.0774094 0.513192 0.11455
H_ H_ 0.0944203 0.116825 0.553967 0.11455
H_ H_ 0.213716 0.225263 0.981185 0.11455
H_ H_ 0.217332 0.294043 0.516232 0.11455
H_ H_ 0.204621 0.271593 0.565347 0.11455
H_ H_ 0.0170785 0.204074 0.625302 0.11455
H_ H_ 0.00630654 0.194284 0.675586 0.11455
H_ H_ 0.267037 0.157466 0.639888 0.11455
H_ H_ 0.251688 0.140978 0.690397 0.11455
H_ H_ 0.0549511 0.0984361 0.751854 0.11455
H_ H_ 0.0312376 0.0758085 0.799109 0.11455
H_ H_ 0.0760546 0.112891 0.841307 0.11455
H_ H_ 0.167103 0.243548 0.761931 0.11455
H_ H_ 0.20236 0.284964 0.802405 0.11455
H_ H_ 0.19341 0.249996 0.852938 0.11455
H_ H_ 0.203004 0.288686 0.697747 0.11455
H_ H_ 0.133608 0.322862 0.601049 0.11455
H_ H_ 0.228098 0.32433 0.608761 0.11455
H_ H_ 0.114019 0.31196 0.71881 0.11455
H_ H_ 0.0230949 0.309044 0.709165 0.11455
H_ H_ 0.0500183 0.332719 0.61922 0.11455
H_ H_ 0.398053 0.492003 0.690778 0.11455
H_ H_ 0.409545 0.0758321 0.599016 0.11455
H_ H_ 0.332932 0.474782 0.604484 0.11455
H_ H_ 0.348251 0.0778872 0.713072 0.11455
H_ H_ 0.362417 0.170025 0.709683 0.11455
H_ H_ 0.412751 0.154956 0.621402 0.11455
H_ H_ 0.438944 0.388156 0.715258 0.11455
H_ H_ 0.462242 0.412604 0.762423 0.11455
H_ H_ 0.422826 0.365024 0.803924 0.11455
H_ H_ 0.313554 0.262763 0.723965 0.11455
H_ H_ 0.294442 0.201514 0.761799 0.11455
H_ H_ 0.319572 0.220503 0.811657 0.11455
H_ H_ 0.499929 0.294869 0.872925 0.11455
H_ H_ 0.505517 0.296353 0.923947 0.11455
H_ H_ 0.24803 0.327309 0.886676 0.11455
H_ H_ 0.258981 0.333344 0.936633 0.11455
H_ H_ 0.446948 0.397272 0.0005900000000000905 0.11455
H_ H_ 0.424748 0.451526 0.55326 0.11455
H_ H_ 0.40331 0.38928 0.590895 0.11455
H_ H_ 0.339188 0.258474 0.507736 0.11455
H_ H_ 0.311157 0.204591 0.548685 0.11455
H_ H_ 0.331786 0.230955 0.596428 0.11455
C_ C_ 0.234296 0.182874 0.910638 0.68181
C_ C_ 0.287929 0.173163 0.905144 -0.05681
C_ C_ 0.321685 0.161788 0.927496 -0.08735
C_ C_ 0.374241 0.161668 0.922539 -0.05681
C_ C_ 0.391966 0.167252 0.89307 -0.05681
C_ C_ 0.356858 0.177843 0.870909 -0.08735
C_ C_ 0.30606 0.18068 0.877194 -0.08735
C_ C_ 0.408099 0.175191 0.944136 -0.08735
C_ C_ 0.460747 0.173042 0.938849 -0.08735
C_ C_ 0.477196 0.172039 0.910382 -0.05681
C_ C_ 0.442572 0.164914 0.887333 -0.08735
C_ C_ 0.132127 0.275188 0.915367 0.68181
C_ C_ 0.143754 0.0826985 0.901639 0.68181
C_ C_ 0.148627 0.0270452 0.900039 -0.05681
C_ C_ 0.146487 0.493653 0.921043 -0.08735
C_ C_ 0.147556 0.440737 0.919555 -0.05681
C_ C_ 0.139134 0.414776 0.892653 -0.05681
C_ C_ 0.140309 0.446238 0.867626 -0.08735
C_ C_ 0.136828 0.497825 0.870415 -0.08735
C_ C_ 0.147872 0.410035 0.944463 -0.08735
C_ C_ 0.144159 0.358622 0.943164 -0.08735
C_ C_ 0.137 0.332783 0.916635 -0.05681
C_ C_ 0.136251 0.361863 0.890487 -0.08735
C_ C_ 0.0376581 0.171404 0.910663 0.68181
C_ C_ 0.101378 0.116683 0.984885 0.1947
C_ C_ 0.0813123 0.108924 0.509896 -0.08735
C_ C_ 0.101524 0.134065 0.533384 -0.08735
C_ C_ 0.138821 0.171959 0.53015 -0.05681
C_ C_ 0.151416 0.184715 0.501249 0.18498
C_ C_ 0.187913 0.225538 0.999651 -0.08735
C_ C_ 0.200355 0.257287 0.519696 -0.08735
C_ C_ 0.188866 0.246347 0.547205 -0.08735
C_ C_ 0.160155 0.202895 0.553561 0.18498
C_ C_ 0.193181 0.178906 0.599938 0.44287
C_ C_ 0.106563 0.200509 0.594563 0.44287
C_ C_ 0.0989754 0.196129 0.624538 -0.05681
C_ C_ 0.0504135 0.202167 0.63864 -0.08735
C_ C_ 0.0448033 0.19691 0.667332 -0.08735
C_ C_ 0.0843212 0.187593 0.684919 -0.05681
C_ C_ 0.131503 0.176614 0.672625 -0.05681
C_ C_ 0.138896 0.184155 0.642372 -0.05681
C_ C_ 0.187542 0.176853 0.630455 -0.05681
C_ C_ 0.229171 0.164317 0.648567 -0.08735
C_ C_ 0.221834 0.154497 0.678043 -0.08735
C_ C_ 0.17265 0.16479 0.691084 -0.05681
C_ C_ 0.164006 0.162803 0.721355 0.44287
C_ C_ 0.0784823 0.190444 0.715006 0.44287
C_ C_ 0.104777 0.161861 0.762415 0.18498
C_ C_ 0.0712868 0.120929 0.768803 -0.08735
C_ C_ 0.0556624 0.109434 0.796499 -0.08735
C_ C_ 0.0806221 0.130247 0.819802 -0.08735
C_ C_ 0.116201 0.170384 0.815709 0.18498
C_ C_ 0.123516 0.189594 0.786899 -0.05681
C_ C_ 0.161784 0.227424 0.783273 -0.08735
C_ C_ 0.182619 0.251275 0.806849 -0.08735
C_ C_ 0.17332 0.23301 0.835068 0.1947
C_ C_ 0.277407 0.312935 0.660635 0.68181
C_ C_ 0.221828 0.311784 0.654542 -0.05681
C_ C_ 0.188148 0.303814 0.677561 -0.08735
C_ C_ 0.134626 0.313181 0.674007 -0.05681
C_ C_ 0.114843 0.324871 0.645241 -0.05681
C_ C_ 0.14867 0.319535 0.622472 -0.08735
C_ C_ 0.201934 0.319594 0.626441 -0.08735
C_ C_ 0.100179 0.311477 0.696901 -0.08735
C_ C_ 0.0476947 0.31735 0.691596 -0.08735
C_ C_ 0.0278373 0.324618 0.663767 -0.05681
C_ C_ 0.0630013 0.326752 0.640703 -0.08735
C_ C_ 0.389921 0.225366 0.662195 0.68181
C_ C_ 0.361076 0.419589 0.651539 0.68181
C_ C_ 0.360763 0.47614 0.647599 -0.05681
C_ C_ 0.362779 0.0130795 0.670003 -0.08735
C_ C_ 0.372082 0.064936 0.668884 -0.05681
C_ C_ 0.394945 0.0856041 0.644652 -0.05681
C_ C_ 0.403871 0.0564888 0.619821 -0.08735
C_ C_ 0.346469 0.498288 0.621897 -0.08735
C_ C_ 0.366291 0.0947462 0.693593 -0.08735
C_ C_ 0.375665 0.147079 0.692927 -0.08735
C_ C_ 0.392562 0.169975 0.667731 -0.05681
C_ C_ 0.406358 0.137994 0.643457 -0.08735
C_ C_ 0.469229 0.331574 0.652417 0.68181
C_ C_ 0.420521 0.370964 0.732346 0.1947
C_ C_ 0.43896 0.379789 0.760444 -0.08735
C_ C_ 0.408261 0.361269 0.782761 -0.08735
C_ C_ 0.373198 0.323195 0.777301 -0.05681
C_ C_ 0.362649 0.310325 0.748222 0.18498
C_ C_ 0.330942 0.267955 0.743944 -0.08735
C_ C_ 0.31993 0.234179 0.766212 -0.08735
C_ C_ 0.332481 0.245457 0.794242 -0.08735
C_ C_ 0.356901 0.292105 0.800575 0.18498
C_ C_ 0.324134 0.312228 0.84766 0.44287
C_ C_ 0.411471 0.291434 0.843883 0.44287
C_ C_ 0.41762 0.298683 0.873681 -0.05681
C_ C_ 0.46636 0.299859 0.886229 -0.08735
C_ C_ 0.471851 0.301831 0.915702 -0.08735
C_ C_ 0.429259 0.309619 0.934442 -0.05681
C_ C_ 0.380803 0.31026 0.921726 -0.05681
C_ C_ 0.374867 0.303063 0.890823 -0.05681
C_ C_ 0.327335 0.307786 0.878631 -0.05681
C_ C_ 0.284852 0.320313 0.895443 -0.08735
C_ C_ 0.29283 0.323201 0.924414 -0.08735
C_ C_ 0.338766 0.318443 0.939453 -0.05681
C_ C_ 0.344557 0.32976 0.968148 0.44287
C_ C_ 0.431634 0.311361 0.964482 0.44287
C_ C_ 0.381139 0.353051 0.512 0.18498
C_ C_ 0.400119 0.402164 0.518499 -0.08735
C_ C_ 0.412933 0.414042 0.547011 -0.08735
C_ C_ 0.401791 0.378727 0.568944 -0.08735
C_ C_ 0.382508 0.3318 0.562881 0.18498
C_ C_ 0.370609 0.318231 0.534064 -0.05681
C_ C_ 0.343462 0.272147 0.52943 -0.08735
C_ C_ 0.329962 0.241526 0.552414 -0.08735
C_ C_ 0.340567 0.257692 0.580237 0.1947
N_ N_ 0.131537 0.158349 0.98038 -0.29468
N_ N_ 0.151735 0.19098 0.582778 -0.17154
N_ N_ 0.117249 0.175017 0.732515 -0.17154
N_ N_ 0.141176 0.192188 0.838434 -0.29468
N_ N_ 0.381085 0.339938 0.727091 -0.29468
N_ N_ 0.365507 0.304017 0.831202 -0.17154
N_ N_ 0.391644 0.323804 0.980801 -0.17154
N_ N_ 0.366736 0.30031 0.585368 -0.29468
O_ O_ 0.216848 0.180042 0.935407 -0.58347
O_ O_ 0.203609 0.181522 0.889853 -0.58347
O_ O_ 0.136182 0.251196 0.938723 -0.58347
O_ O_ 0.135277 0.250441 0.89262 -0.58347
O_ O_ 0.144469 0.104685 0.926505 -0.58347
O_ O_ 0.137716 0.107307 0.880233 -0.58347
O_ O_ 0.0654483 0.172585 0.931503 -0.58347
O_ O_ 0.0584791 0.173827 0.885748 -0.58347
O_ O_ 0.0716795 0.222428 0.580376 -0.46727
O_ O_ 0.236546 0.172157 0.58728 -0.46727
O_ O_ 0.0378893 0.211643 0.724613 -0.46727
O_ O_ 0.199753 0.147951 0.738607 -0.46727
O_ O_ 0.294415 0.327706 0.684043 -0.58347
O_ O_ 0.305617 0.30161 0.639389 -0.58347
O_ O_ 0.372474 0.251324 0.682772 -0.58347
O_ O_ 0.391961 0.244281 0.63757 -0.58347
O_ O_ 0.365351 0.401912 0.675949 -0.58347
O_ O_ 0.355511 0.390569 0.631144 -0.58347
O_ O_ 0.440304 0.32606 0.674328 -0.58347
O_ O_ 0.449243 0.336538 0.627741 -0.58347
O_ O_ 0.450986 0.277818 0.828888 -0.46727
O_ O_ 0.278793 0.318788 0.83534 -0.46727
O_ O_ 0.475421 0.306238 0.977061 -0.46727
O_ O_ 0.306045 0.342811 0.982689 -0.46727
Zn Zn 0.120787 0.682189 0.380941 0.90689
Zn Zn 0.126232 0.679429 0.428976 0.90689
Zn Zn 0.377081 0.815854 0.13284 0.90689
Zn Zn 0.363973 0.822236 0.180129 0.90689
H_ H_ 0.294818 0.693791 0.444096 0.11455
H_ H_ 0.365044 0.683277 0.34517 0.11455
H_ H_ 0.270816 0.671933 0.353819 0.11455
H_ H_ 0.382127 0.708137 0.462339 0.11455
H_ H_ 0.471297 0.710084 0.454868 0.11455
H_ H_ 0.452991 0.678669 0.365623 0.11455
H_ H_ 0.106682 0.515405 0.4409 0.11455
H_ H_ 0.133639 0.934855 0.346838 0.11455
H_ H_ 0.138302 0.522337 0.350169 0.11455
H_ H_ 0.137142 0.92498 0.466229 0.11455
H_ H_ 0.139875 0.834469 0.459651 0.11455
H_ H_ 0.124114 0.85098 0.36892 0.11455
H_ H_ 0.071785 0.612047 0.466481 0.11455
H_ H_ 0.101733 0.559698 0.0148229 0.11455
H_ H_ 0.11236 0.620409 0.0555718 0.11455
H_ H_ 0.1857 0.753983 0.469219 0.11455
H_ H_ 0.199341 0.809141 0.00881259 0.11455
H_ H_ 0.189272 0.786568 0.0616098 0.11455
H_ H_ 0.004350000000000076 0.699013 0.119587 0.11455
H_ H_ -0.00930299999999995 0.699452 0.171493 0.11455
H_ H_ 0.254986 0.675015 0.141125 0.11455
H_ H_ 0.242451 0.686051 0.188754 0.11455
H_ H_ 0.0348841 0.606711 0.247007 0.11455
H_ H_ 0.0136101 0.5866 0.295576 0.11455
H_ H_ 0.0580879 0.619656 0.335966 0.11455
H_ H_ 0.143193 0.757928 0.258283 0.11455
H_ H_ 0.180759 0.798203 0.301442 0.11455
H_ H_ 0.171235 0.757579 0.34975 0.11455
H_ H_ 0.195354 0.820008 0.198645 0.11455
H_ H_ 0.128729 0.823524 0.098473 0.11455
H_ H_ 0.220624 0.8268 0.106133 0.11455
H_ H_ 0.11311 0.814943 0.216334 0.11455
H_ H_ 0.0152586 0.808892 0.205302 0.11455
H_ H_ 0.0402883 0.82465 0.117781 0.11455
H_ H_ 0.412853 0.984367 0.187744 0.11455
H_ H_ 0.362588 0.570629 0.0989099 0.11455
H_ H_ 0.338856 0.977948 0.106457 0.11455
H_ H_ 0.363407 0.571879 0.217822 0.11455
H_ H_ 0.370696 0.66908 0.212215 0.11455
H_ H_ 0.36596 0.648867 0.121568 0.11455
H_ H_ 0.424527 0.893151 0.216435 0.11455
H_ H_ 0.42369 0.934024 0.263037 0.11455
H_ H_ 0.396754 0.880228 0.305451 0.11455
H_ H_ 0.297269 0.765159 0.220543 0.11455
H_ H_ 0.26594 0.712413 0.262463 0.11455
H_ H_ 0.300159 0.725758 0.313159 0.11455
H_ H_ 0.483966 0.804312 0.374746 0.11455
H_ H_ 0.493667 0.821716 0.425029 0.11455
H_ H_ 0.236241 0.855505 0.384912 0.11455
H_ H_ 0.240918 0.861945 0.437122 0.11455
H_ H_ 0.428506 0.932209 0.502569 0.11455
H_ H_ 0.439558 0.942566 0.0448918 0.11455
H_ H_ 0.434932 0.88145 0.085234 0.11455
H_ H_ 0.351035 0.74598 0.00951238 0.11455
H_ H_ 0.30155 0.710519 0.0545017 0.11455
H_ H_ 0.325098 0.739303 0.0998483 0.11455
C_ C_ 0.222799 0.683152 0.40343 0.68181
C_ C_ 0.278454 0.686963 0.399605 -0.05681
C_ C_ 0.311927 0.691164 0.422788 -0.08735
C_ C_ 0.36505 0.696494 0.417466 -0.05681
C_ C_ 0.383746 0.687066 0.390132 -0.05681
C_ C_ 0.351477 0.679623 0.367254 -0.08735
C_ C_ 0.297966 0.675895 0.372452 -0.08735
C_ C_ 0.39734 0.700839 0.441102 -0.08735
C_ C_ 0.448869 0.698647 0.437194 -0.08735
C_ C_ 0.469743 0.694955 0.409295 -0.05681
C_ C_ 0.43761 0.687511 0.386392 -0.08735
C_ C_ 0.121614 0.779501 0.41189 0.68181
C_ C_ 0.122932 0.582685 0.397187 0.68181
C_ C_ 0.128219 0.526388 0.39683 -0.05681
C_ C_ 0.137289 0.994977 0.42298 -0.08735
C_ C_ 0.13991 0.942156 0.419412 -0.05681
C_ C_ 0.136811 0.919826 0.392366 -0.05681
C_ C_ 0.137716 0.950288 0.368351 -0.08735
C_ C_ 0.142718 1.00348208 0.371741 -0.08735
C_ C_ 0.138421 0.910329 0.444184 -0.08735
C_ C_ 0.137448 0.858637 0.440877 -0.08735
C_ C_ 0.129404 0.836387 0.413536 -0.05681
C_ C_ 0.131585 0.866681 0.389254 -0.08735
C_ C_ 0.0252328 0.68151 0.404714 0.68181
C_ C_ 0.0914381 0.632411 0.483385 0.1947
C_ C_ 0.115167 0.598513 0.0119731 -0.08735
C_ C_ 0.12093 0.631761 0.0337149 -0.08735
C_ C_ 0.14339 0.680519 0.0285225 -0.05681
C_ C_ 0.151191 0.695035 0.999522 0.18498
C_ C_ 0.171136 0.745905 0.491297 -0.08735
C_ C_ 0.181989 0.776043 0.015952 -0.08735
C_ C_ 0.176314 0.761584 0.0439394 -0.08735
C_ C_ 0.151015 0.716169 0.05097 0.18498
C_ C_ 0.182724 0.697838 0.0983315 0.44287
C_ C_ 0.0930715 0.705967 0.0914052 0.44287
C_ C_ 0.0859885 0.698996 0.121781 -0.05681
C_ C_ 0.0366377 0.696722 0.132783 -0.08735
C_ C_ 0.0266799 0.691462 0.16189 -0.08735
C_ C_ 0.0683354 0.688087 0.180882 -0.05681
C_ C_ 0.118241 0.686798 0.168507 -0.05681
C_ C_ 0.126987 0.694048 0.139719 -0.05681
C_ C_ 0.17412 0.687586 0.127484 -0.05681
C_ C_ 0.21632 0.679999 0.146654 -0.08735
C_ C_ 0.208744 0.679099 0.175326 -0.08735
C_ C_ 0.15918 0.684347 0.186632 -0.05681
C_ C_ 0.148796 0.678031 0.217229 0.44287
C_ C_ 0.0614345 0.690861 0.209459 0.44287
C_ C_ 0.087074 0.669346 0.257951 0.18498
C_ C_ 0.0557881 0.626881 0.264496 -0.08735
C_ C_ 0.0391205 0.615625 0.29224 -0.08735
C_ C_ 0.061853 0.638625 0.315934 -0.08735
C_ C_ 0.0985709 0.67817 0.311 0.18498
C_ C_ 0.108103 0.696798 0.28252 -0.05681
C_ C_ 0.137447 0.740859 0.279255 -0.08735
C_ C_ 0.158807 0.764246 0.30336 -0.08735
C_ C_ 0.153393 0.740587 0.329924 0.1947
C_ C_ 0.270807 0.824933 0.157694 0.68181
C_ C_ 0.214901 0.823677 0.154074 -0.05681
C_ C_ 0.181794 0.820805 0.177131 -0.08735
C_ C_ 0.127708 0.818567 0.171706 -0.05681
C_ C_ 0.110117 0.822328 0.143807 -0.05681
C_ C_ 0.142011 0.824302 0.11998 -0.08735
C_ C_ 0.19499 0.825546 0.12604 -0.08735
C_ C_ 0.0958283 0.814104 0.195367 -0.08735
C_ C_ 0.0424479 0.817451 0.190067 -0.08735
C_ C_ 0.0237494 0.821549 0.161497 -0.05681
C_ C_ 0.0559551 0.823374 0.138894 -0.08735
C_ C_ 0.372131 0.720008 0.164335 0.68181
C_ C_ 0.369039 0.917774 0.150019 0.68181
C_ C_ 0.370413 0.974024 0.14844 -0.05681
C_ C_ 0.378903 0.504922 0.174855 -0.08735
C_ C_ 0.371133 0.557167 0.173037 -0.05681
C_ C_ 0.367136 0.581411 0.146156 -0.05681
C_ C_ 0.368922 0.553195 0.120807 -0.08735
C_ C_ 0.356207 -0.00029000000000001247 0.12319 -0.08735
C_ C_ 0.371187 0.588832 0.197086 -0.08735
C_ C_ 0.375857 0.642613 0.194175 -0.08735
C_ C_ 0.373341 0.665081 0.167088 -0.05681
C_ C_ 0.366903 0.631924 0.143358 -0.08735
C_ C_ 0.46839 0.818582 0.154868 0.68181
C_ C_ 0.401195 0.878411 0.233376 0.1947
C_ C_ 0.40567 0.898551 0.261311 -0.08735
C_ C_ 0.386447 0.869315 0.284015 -0.08735
C_ C_ 0.358961 0.824699 0.279339 -0.05681
C_ C_ 0.348217 0.811166 0.249906 0.18498
C_ C_ 0.312002 0.77197 0.243757 -0.08735
C_ C_ 0.291486 0.74348 0.266971 -0.08735
C_ C_ 0.310144 0.752796 0.295271 -0.08735
C_ C_ 0.337123 0.797102 0.301842 0.18498
C_ C_ 0.309498 0.827723 0.347669 0.44287
C_ C_ 0.395617 0.802842 0.345715 0.44287
C_ C_ 0.402286 0.814779 0.375316 -0.05681
C_ C_ 0.450879 0.816241 0.387245 -0.08735
C_ C_ 0.456703 0.82506 0.415787 -0.08735
C_ C_ 0.414315 0.833144 0.433418 -0.05681
C_ C_ 0.366107 0.83858 0.421051 -0.05681
C_ C_ 0.360013 0.830498 0.39105 -0.05681
C_ C_ 0.312285 0.832569 0.377959 -0.05681
C_ C_ 0.27158 0.849029 0.394994 -0.08735
C_ C_ 0.275059 0.856098 0.42497 -0.08735
C_ C_ 0.32537 0.851642 0.437673 -0.05681
C_ C_ 0.330435 0.859037 0.467064 0.44287
C_ C_ 0.418639 0.836383 0.463286 0.44287
C_ C_ 0.389039 0.840813 0.00936827 0.18498
C_ C_ 0.41336 0.887727 0.0136666 -0.08735
C_ C_ 0.429599 0.903149 0.041518 -0.08735
C_ C_ 0.416147 0.873924 0.0653364 -0.08735
C_ C_ 0.388019 0.828061 0.0614182 0.18498
C_ C_ 0.378622 0.80975 0.0334757 -0.05681
C_ C_ 0.348861 0.764556 0.03009 -0.08735
C_ C_ 0.33142 0.739492 0.0552628 -0.08735
C_ C_ 0.340125 0.759896 0.0825259 0.1947
N_ N_ 0.125813 0.670469 0.477466 -0.29468
N_ N_ 0.142496 0.704667 0.0803416 -0.17154
N_ N_ 0.0989364 0.678953 0.22812 -0.17154
N_ N_ 0.124234 0.69899 0.333417 -0.29468
N_ N_ 0.368819 0.839302 0.227838 -0.29468
N_ N_ 0.348756 0.808631 0.332734 -0.17154
N_ N_ 0.378623 0.853272 0.479697 -0.17154
N_ N_ 0.370389 0.800925 0.0851655 -0.29468
O_ O_ 0.203874 0.680815 0.428803 -0.58347
O_ O_ 0.193732 0.686396 0.382094 -0.58347
O_ O_ 0.12065 0.753125 0.434618 -0.58347
O_ O_ 0.112012 0.757871 0.388233 -0.58347
O_ O_ 0.122769 0.606696 0.42135 -0.58347
O_ O_ 0.12645 0.60766 0.374752 -0.58347
O_ O_ 0.0525767 0.681216 0.426616 -0.58347
O_ O_ 0.0466464 0.678877 0.380753 -0.58347
O_ O_ 0.0548803 0.718103 0.0755772 -0.46727
O_ O_ 0.229927 0.694869 0.0885896 -0.46727
O_ O_ 0.0161928 0.702948 0.21857 -0.46727
O_ O_ 0.187597 0.674543 0.234983 -0.46727
O_ O_ 0.289922 0.823914 0.181852 -0.58347
O_ O_ 0.299806 0.819354 0.136753 -0.58347
O_ O_ 0.367304 0.747355 0.18655 -0.58347
O_ O_ 0.381399 0.7401 0.140392 -0.58347
O_ O_ 0.363831 0.896924 0.174133 -0.58347
O_ O_ 0.370911 0.890003 0.128095 -0.58347
O_ O_ 0.441103 0.822668 0.176474 -0.58347
O_ O_ 0.449899 0.814663 0.130389 -0.58347
O_ O_ 0.433285 0.784608 0.329708 -0.46727
O_ O_ 0.267302 0.831187 0.33561 -0.46727
O_ O_ 0.46226 0.824721 0.475007 -0.46727
O_ O_ 0.292354 0.880598 0.481734 -0.46727
Zn Zn 0.137491 0.682853 0.880493 0.90689
Zn Zn 0.143007 0.675191 0.928411 0.90689
Zn Zn 0.376318 0.820174 0.631138 0.90689
Zn Zn 0.363184 0.830285 0.678606 0.90689
H_ H_ 0.315038 0.687258 0.942798 0.11455
H_ H_ 0.384008 0.665717 0.845519 0.11455
H_ H_ 0.291393 0.665201 0.851314 0.11455
H_ H_ 0.402312 0.684364 0.964469 0.11455
H_ H_ 0.493224 0.661442 0.9569 0.11455
H_ H_ 0.470699 0.672853 0.866636 0.11455
H_ H_ 0.14984 0.513465 0.942787 0.11455
H_ H_ 0.159468 0.932351 0.848936 0.11455
H_ H_ 0.1385 0.519151 0.850315 0.11455
H_ H_ 0.127719 0.924945 0.967824 0.11455
H_ H_ 0.123323 0.831202 0.962208 0.11455
H_ H_ 0.133083 0.851061 0.869977 0.11455
H_ H_ 0.109279 0.590424 0.965062 0.11455
H_ H_ 0.0699022 0.57906 0.513719 0.11455
H_ H_ 0.102359 0.631688 0.555089 0.11455
H_ H_ 0.190162 0.748865 0.973147 0.11455
H_ H_ 0.197785 0.814714 0.507558 0.11455
H_ H_ 0.186414 0.795915 0.556778 0.11455
H_ H_ 1.0106802 0.722562 0.624668 0.11455
H_ H_ 1.0033957 0.710567 0.675768 0.11455
H_ H_ 0.256277 0.672793 0.631218 0.11455
H_ H_ 0.253304 0.661025 0.679609 0.11455
H_ H_ 0.0958282 0.58553 0.747591 0.11455
H_ H_ 0.0703515 0.563048 0.799116 0.11455
H_ H_ 0.0841011 0.626591 0.836161 0.11455
H_ H_ 0.149939 0.765471 0.760343 0.11455
H_ H_ 0.205721 0.797181 0.798343 0.11455
H_ H_ 0.196051 0.761587 0.845508 0.11455
H_ H_ 0.196801 0.834176 0.697223 0.11455
H_ H_ 0.129923 0.847193 0.597918 0.11455
H_ H_ 0.222694 0.817162 0.606928 0.11455
H_ H_ 0.111915 0.828077 0.715089 0.11455
H_ H_ 0.018597 0.834988 0.707848 0.11455
H_ H_ 0.045318 0.827615 0.61521 0.11455
H_ H_ 0.354087 0.994028 0.690676 0.11455
H_ H_ 0.33734 0.567237 0.598831 0.11455
H_ H_ 0.39792 0.982179 0.603684 0.11455
H_ H_ 0.430191 0.576434 0.701794 0.11455
H_ H_ 0.410821 0.668093 0.704797 0.11455
H_ H_ 0.348179 0.65305 0.618062 0.11455
H_ H_ 0.420205 0.898418 0.715653 0.11455
H_ H_ 0.447628 0.920158 0.766091 0.11455
H_ H_ 0.40271 0.875486 0.806513 0.11455
H_ H_ 0.305488 0.758944 0.722618 0.11455
H_ H_ 0.278777 0.704167 0.761558 0.11455
H_ H_ 0.309212 0.715623 0.810251 0.11455
H_ H_ 0.487806 0.777726 0.87268 0.11455
H_ H_ 0.500584 0.790593 0.924493 0.11455
H_ H_ 0.240487 0.829907 0.886364 0.11455
H_ H_ 0.248003 0.81135 0.936245 0.11455
H_ H_ 0.42061 0.911569 0.995006 0.11455
H_ H_ 0.456863 0.946428 0.55164 0.11455
H_ H_ 0.432921 0.875666 0.587477 0.11455
H_ H_ 0.329333 0.778033 0.503223 0.11455
H_ H_ 0.293602 0.729552 0.543228 0.11455
H_ H_ 0.322751 0.743772 0.593147 0.11455
C_ C_ 0.240868 0.676117 0.904068 0.68181
C_ C_ 0.297487 0.673392 0.89911 -0.05681
C_ C_ 0.330436 0.672837 0.922445 -0.08735
C_ C_ 0.383975 0.673983 0.918242 -0.05681
C_ C_ 0.402273 0.666651 0.89041 -0.05681
C_ C_ 0.368582 0.662369 0.866279 -0.08735
C_ C_ 0.316758 0.66998 0.870356 -0.08735
C_ C_ 0.416736 0.672436 0.942734 -0.08735
C_ C_ 0.468563 0.669368 0.939142 -0.08735
C_ C_ 0.487931 0.6688 0.911197 -0.05681
C_ C_ 0.455884 0.666833 0.88806 -0.08735
C_ C_ 0.133415 0.776562 0.911526 0.68181
C_ C_ 0.141654 0.580992 0.899151 0.68181
C_ C_ 0.140699 0.523866 0.896044 -0.05681
C_ C_ 0.147703 0.995305 0.92546 -0.08735
C_ C_ 0.141759 0.940242 0.922864 -0.05681
C_ C_ 0.14228 0.916377 0.894754 -0.05681
C_ C_ 0.151231 0.948862 0.870764 -0.08735
C_ C_ 0.155649 0.00245487 0.873911 -0.08735
C_ C_ 0.133695 0.911217 0.946825 -0.08735
C_ C_ 0.131861 0.856382 0.942948 -0.08735
C_ C_ 0.133351 0.833688 0.915361 -0.05681
C_ C_ 0.133766 0.865056 0.89129 -0.08735
C_ C_ 0.0421068 0.67337 0.907078 0.68181
C_ C_ 0.123053 0.61444 0.983964 0.1947
C_ C_ 0.0870773 0.61529 0.510941 -0.08735
C_ C_ 0.109391 0.643753 0.533389 -0.08735
C_ C_ 0.131991 0.691489 0.528278 -0.05681
C_ C_ 0.143082 0.701167 0.498856 0.18498
C_ C_ 0.171929 0.741795 0.993366 -0.08735
C_ C_ 0.181874 0.779549 0.512775 -0.08735
C_ C_ 0.174042 0.770475 0.541335 -0.08735
C_ C_ 0.145919 0.72668 0.549247 0.18498
C_ C_ 0.180906 0.698321 0.59355 0.44287
C_ C_ 0.0941211 0.718354 0.591423 0.44287
C_ C_ 0.089203 0.709735 0.622233 -0.05681
C_ C_ 0.042603 0.711628 0.6368 -0.08735
C_ C_ 0.0398801 0.706017 0.666372 -0.08735
C_ C_ 0.0835039 0.70071 0.682439 -0.05681
C_ C_ 0.13047 0.695336 0.667808 -0.05681
C_ C_ 0.132044 0.697178 0.637999 -0.05681
C_ C_ 0.179361 0.692441 0.623629 -0.05681
C_ C_ 0.222557 0.682148 0.640446 -0.08735
C_ C_ 0.220311 0.674931 0.668984 -0.08735
C_ C_ 0.173096 0.682819 0.68459 -0.05681
C_ C_ 0.169096 0.675307 0.71426 0.44287
C_ C_ 0.0822029 0.694009 0.713244 0.44287
C_ C_ 0.120515 0.660887 0.757713 0.18498
C_ C_ 0.0992049 0.613639 0.765078 -0.08735
C_ C_ 0.0871533 0.598948 0.793606 -0.08735
C_ C_ 0.0979272 0.633338 0.814691 -0.08735
C_ C_ 0.125157 0.677169 0.810132 0.18498
C_ C_ 0.132763 0.694661 0.780984 -0.05681
C_ C_ 0.159159 0.740714 0.776969 -0.08735
C_ C_ 0.184913 0.762048 0.800835 -0.08735
C_ C_ 0.177564 0.74202 0.827957 0.1947
C_ C_ 0.27171 0.828795 0.657549 0.68181
C_ C_ 0.215735 0.832531 0.651805 -0.05681
C_ C_ 0.182356 0.833026 0.673839 -0.08735
C_ C_ 0.129366 0.828296 0.669661 -0.05681
C_ C_ 0.111326 0.83423 0.641806 -0.05681
C_ C_ 0.144571 0.837533 0.618337 -0.08735
C_ C_ 0.196563 0.828536 0.623167 -0.08735
C_ C_ 0.0974183 0.827268 0.694136 -0.08735
C_ C_ 0.0463171 0.834633 0.689153 -0.08735
C_ C_ 0.0254951 0.83856 0.661054 -0.05681
C_ C_ 0.0596508 0.832168 0.63755 -0.08735
C_ C_ 0.376945 0.723838 0.659011 0.68181
C_ C_ 0.36805 0.927094 0.649257 0.68181
C_ C_ 0.371409 0.983522 0.646472 -0.05681
C_ C_ 0.381494 0.506426 0.669348 -0.08735
C_ C_ 0.385323 0.560733 0.665568 -0.05681
C_ C_ 0.368893 0.583919 0.639522 -0.05681
C_ C_ 0.345997 0.550517 0.618686 -0.08735
C_ C_ 0.392137 1.00523567 0.621611 -0.08735
C_ C_ 0.405031 0.592757 0.686612 -0.08735
C_ C_ 0.400484 0.644625 0.686266 -0.08735
C_ C_ 0.378348 0.667522 0.661192 -0.05681
C_ C_ 0.364658 0.636756 0.637685 -0.08735
C_ C_ 0.468321 0.82685 0.656823 0.68181
C_ C_ 0.403184 0.876512 0.732965 0.1947
C_ C_ 0.418275 0.889237 0.761771 -0.08735
C_ C_ 0.394254 0.865386 0.784838 -0.08735
C_ C_ 0.362452 0.822206 0.778922 -0.05681
C_ C_ 0.351987 0.809721 0.750225 0.18498
C_ C_ 0.31659 0.770435 0.74393 -0.08735
C_ C_ 0.302688 0.7368 0.76616 -0.08735
C_ C_ 0.321408 0.741907 0.793698 -0.08735
C_ C_ 0.349647 0.786379 0.801363 0.18498
C_ C_ 0.318142 0.812975 0.847374 0.44287
C_ C_ 0.403477 0.785705 0.843865 0.44287
C_ C_ 0.411173 0.796915 0.873444 -0.05681
C_ C_ 0.455252 0.786844 0.886689 -0.08735
C_ C_ 0.463022 0.795935 0.916243 -0.08735
C_ C_ 0.419966 0.808002 0.933075 -0.05681
C_ C_ 0.372554 0.810208 0.920196 -0.05681
C_ C_ 0.368834 0.810327 0.890275 -0.05681
C_ C_ 0.321959 0.819225 0.877249 -0.05681
C_ C_ 0.277872 0.82028 0.895041 -0.08735
C_ C_ 0.281978 0.820369 0.924499 -0.08735
C_ C_ 0.329123 0.816892 0.938087 -0.05681
C_ C_ 0.335643 0.823957 0.966879 0.44287
C_ C_ 0.425103 0.813409 0.963406 0.44287
C_ C_ 0.384432 0.865325 0.510038 0.18498
C_ C_ 0.415626 0.907209 0.518493 -0.08735
C_ C_ 0.429767 0.915168 0.546623 -0.08735
C_ C_ 0.417617 0.875826 0.566456 -0.08735
C_ C_ 0.38115 0.839879 0.559908 0.18498
C_ C_ 0.365958 0.831786 0.530876 -0.05681
C_ C_ 0.335283 0.790447 0.524473 -0.08735
C_ C_ 0.322432 0.757954 0.547129 -0.08735
C_ C_ 0.336203 0.766947 0.575708 0.1947
N_ N_ 0.145511 0.660539 0.977768 -0.29468
N_ N_ 0.139896 0.713684 0.578759 -0.17154
N_ N_ 0.123512 0.678634 0.728552 -0.17154
N_ N_ 0.143814 0.704444 0.833025 -0.29468
N_ N_ 0.371597 0.837843 0.727975 -0.29468
N_ N_ 0.357806 0.796992 0.831742 -0.17154
N_ N_ 0.382513 0.822966 0.979055 -0.17154
N_ N_ 0.365369 0.808811 0.581591 -0.29468
O_ O_ 0.22129 0.685286 0.928729 -0.58347
O_ O_ 0.212506 0.676903 0.882444 -0.58347
O_ O_ 0.129206 0.748967 0.934142 -0.58347
O_ O_ 0.142885 0.756527 0.887236 -0.58347
O_ O_ 0.152043 0.599862 0.923157 -0.58347
O_ O_ 0.134686 0.608761 0.877409 -0.58347
O_ O_ 0.0713896 0.661777 0.928114 -0.58347
O_ O_ 0.0619743 0.689985 0.883963 -0.58347
O_ O_ 0.0538004 0.731573 0.576104 -0.46727
O_ O_ 0.225456 0.691648 0.580878 -0.46727
O_ O_ 0.038831 0.706279 0.726682 -0.46727
O_ O_ 0.209472 0.65814 0.72779 -0.46727
O_ O_ 0.289433 0.829338 0.682248 -0.58347
O_ O_ 0.301711 0.821398 0.636714 -0.58347
O_ O_ 0.365263 0.751364 0.680235 -0.58347
O_ O_ 0.374132 0.743538 0.634393 -0.58347
O_ O_ 0.360001 0.906282 0.674332 -0.58347
O_ O_ 0.374754 0.897603 0.626879 -0.58347
O_ O_ 0.438518 0.833089 0.677788 -0.58347
O_ O_ 0.450826 0.820949 0.631817 -0.58347
O_ O_ 0.442677 0.777429 0.827245 -0.46727
O_ O_ 0.273219 0.815082 0.835005 -0.46727
O_ O_ 0.469251 0.810857 0.97631 -0.46727
O_ O_ 0.294256 0.827788 0.983481 -0.46727
Zn Zn 0.614352 0.194103 0.3791 0.90689
Zn Zn 0.627133 0.189445 0.427011 0.90689
Zn Zn 0.871329 0.308567 0.131779 0.90689
Zn Zn 0.863845 0.315896 0.183032 0.90689
H_ H_ 0.795274 0.176903 0.443913 0.11455
H_ H_ 0.867134 0.149138 0.347016 0.11455
H_ H_ 0.770653 0.171009 0.352418 0.11455
H_ H_ 0.881093 0.18865 0.462111 0.11455
H_ H_ 0.973971 0.18115 0.457287 0.11455
H_ H_ 0.950462 0.16256 0.366438 0.11455
H_ H_ 0.63592 0.0239165 0.438822 0.11455
H_ H_ 0.668484 0.4476 0.353174 0.11455
H_ H_ 0.606429 0.0350804 0.34778 0.11455
H_ H_ 0.600626 0.438657 0.464106 0.11455
H_ H_ 0.604784 0.343015 0.460616 0.11455
H_ H_ 0.635068 0.359948 0.369562 0.11455
H_ H_ 0.569191 0.118532 0.462902 0.11455
H_ H_ 0.572055 0.0707658 0.0147978 0.11455
H_ H_ 0.620664 0.111853 0.0539803 0.11455
H_ H_ 0.690869 0.251183 0.471045 0.11455
H_ H_ 0.720141 0.29408 0.0173513 0.11455
H_ H_ 0.699286 0.267513 0.0677306 0.11455
H_ H_ 0.507642 0.1799 0.114048 0.11455
H_ H_ 0.493127 0.181803 0.169697 0.11455
H_ H_ 0.755237 0.132794 0.138916 0.11455
H_ H_ 0.732165 0.114998 0.190226 0.11455
H_ H_ 0.52512 0.0991731 0.249531 0.11455
H_ H_ 0.490573 0.0933247 0.296241 0.11455
H_ H_ 0.541798 0.13345 0.3371 0.11455
H_ H_ 0.652423 0.228702 0.253569 0.11455
H_ H_ 0.705821 0.263793 0.289649 0.11455
H_ H_ 0.685808 0.240638 0.342425 0.11455
H_ H_ 0.695057 0.294247 0.197711 0.11455
H_ H_ 0.619879 0.341504 0.103575 0.11455
H_ H_ 0.71308 0.349505 0.111024 0.11455
H_ H_ 0.606723 0.281863 0.214321 0.11455
H_ H_ 0.513793 0.294006 0.208478 0.11455
H_ H_ 0.536857 0.324161 0.120129 0.11455
H_ H_ 0.856075 0.480101 0.195425 0.11455
H_ H_ 0.814247 0.057878 0.105623 0.11455
H_ H_ 0.858379 0.466626 0.104036 0.11455
H_ H_ 0.918999 0.067663 0.210244 0.11455
H_ H_ 0.917902 0.157872 0.202623 0.11455
H_ H_ 0.847581 0.143795 0.120568 0.11455
H_ H_ 0.919058 0.382109 0.219415 0.11455
H_ H_ 0.931174 0.412086 0.268551 0.11455
H_ H_ 0.897734 0.362883 0.31031 0.11455
H_ H_ 0.811889 0.244366 0.223276 0.11455
H_ H_ 0.771061 0.188905 0.260116 0.11455
H_ H_ 0.788956 0.207143 0.31174 0.11455
H_ H_ 0.985092 0.265937 0.369438 0.11455
H_ H_ -0.002414999999999945 0.276896 0.422551 0.11455
H_ H_ 0.739859 0.343337 0.388075 0.11455
H_ H_ 0.75961 0.367984 0.436126 0.11455
H_ H_ 0.955179 0.391124 0.498135 0.11455
H_ H_ 0.958737 0.428983 0.0478203 0.11455
H_ H_ 0.927366 0.37456 0.0889956 0.11455
H_ H_ 0.841163 0.254733 0.00424324 0.11455
H_ H_ 0.810211 0.20437 0.0455644 0.11455
H_ H_ 0.818686 0.236217 0.0964019 0.11455
C_ C_ 0.720921 0.179747 0.402288 0.68181
C_ C_ 0.776882 0.173602 0.398848 -0.05681
C_ C_ 0.809779 0.170786 0.422098 -0.08735
C_ C_ 0.86295 0.164706 0.419501 -0.05681
C_ C_ 0.884793 0.163536 0.391035 -0.05681
C_ C_ 0.851057 0.162656 0.367532 -0.08735
C_ C_ 0.797562 0.172489 0.371159 -0.08735
C_ C_ 0.896003 0.172363 0.443264 -0.08735
C_ C_ 0.949433 0.168927 0.439288 -0.08735
C_ C_ 0.970731 0.162708 0.411739 -0.05681
C_ C_ 0.93685 0.160205 0.387888 -0.08735
C_ C_ 0.625763 0.290041 0.409786 0.68181
C_ C_ 0.622961 0.0897484 0.396228 0.68181
C_ C_ 0.619413 0.0336946 0.392713 -0.05681
C_ C_ 0.62038 0.504853 0.423531 -0.08735
C_ C_ 0.619122 0.451538 0.420412 -0.05681
C_ C_ 0.629972 0.430243 0.393225 -0.05681
C_ C_ 0.648743 0.461194 0.371611 -0.08735
C_ C_ 0.65199 0.513593 0.374891 -0.08735
C_ C_ 0.612175 0.421103 0.444378 -0.08735
C_ C_ 0.610365 0.367974 0.441726 -0.08735
C_ C_ 0.6204 0.34612 0.413818 -0.05681
C_ C_ 0.630822 0.375701 0.389927 -0.08735
C_ C_ 0.521629 0.197753 0.404237 0.68181
C_ C_ 0.59146 0.135193 0.479952 0.1947
C_ C_ 0.601513 0.100007 0.0101375 -0.08735
C_ C_ 0.620042 0.128597 0.0332382 -0.08735
C_ C_ 0.64292 0.173838 0.0299604 -0.05681
C_ C_ 0.652584 0.191007 1.0006512 0.18498
C_ C_ 0.676308 0.24523 0.492256 -0.08735
C_ C_ 0.696935 0.261501 0.0210727 -0.08735
C_ C_ 0.686279 0.247457 0.0490068 -0.08735
C_ C_ 0.660573 0.200916 0.0538567 0.18498
C_ C_ 0.688028 0.172365 0.100855 0.44287
C_ C_ 0.601262 0.197144 0.0926517 0.44287
C_ C_ 0.58893 0.182885 0.120827 -0.05681
C_ C_ 0.539343 0.17877 0.129703 -0.08735
C_ C_ 0.531174 0.176729 0.160238 -0.08735
C_ C_ 0.570727 0.170673 0.180314 -0.05681
C_ C_ 0.618028 0.160631 0.169599 -0.05681
C_ C_ 0.628243 0.16725 0.140574 -0.05681
C_ C_ 0.678306 0.158284 0.129511 -0.05681
C_ C_ 0.716222 0.137982 0.147786 -0.08735
C_ C_ 0.704258 0.128774 0.176193 -0.08735
C_ C_ 0.656086 0.143413 0.187792 -0.05681
C_ C_ 0.644137 0.136486 0.217896 0.44287
C_ C_ 0.562518 0.172459 0.209682 0.44287
C_ C_ 0.584403 0.151413 0.257603 0.18498
C_ C_ 0.545213 0.119258 0.265304 -0.08735
C_ C_ 0.528269 0.112549 0.293721 -0.08735
C_ C_ 0.556004 0.138853 0.315372 -0.08735
C_ C_ 0.597932 0.169617 0.308679 0.18498
C_ C_ 0.61203 0.178355 0.279877 -0.05681
C_ C_ 0.649445 0.213137 0.275199 -0.08735
C_ C_ 0.676859 0.235966 0.296653 -0.08735
C_ C_ 0.665074 0.222404 0.325635 0.1947
C_ C_ 0.766521 0.311414 0.154549 0.68181
C_ C_ 0.711257 0.312859 0.152367 -0.05681
C_ C_ 0.678247 0.301533 0.175695 -0.08735
C_ C_ 0.625033 0.307024 0.17315 -0.05681
C_ C_ 0.604712 0.318331 0.146275 -0.05681
C_ C_ 0.636405 0.327988 0.122704 -0.08735
C_ C_ 0.690659 0.328408 0.125845 -0.08735
C_ C_ 0.592761 0.295333 0.195076 -0.08735
C_ C_ 0.53907 0.300838 0.191394 -0.08735
C_ C_ 0.519425 0.309462 0.164211 -0.05681
C_ C_ 0.550515 0.317089 0.141934 -0.08735
C_ C_ 0.883917 0.214998 0.160251 0.68181
C_ C_ 0.863899 0.410384 0.153947 0.68181
C_ C_ 0.860346 0.467088 0.15052 -0.05681
C_ C_ 0.885388 -0.0012760000000000549 0.170564 -0.08735
C_ C_ 0.880855 0.0523079 0.16958 -0.05681
C_ C_ 0.859915 0.0752521 0.144515 -0.05681
C_ C_ 0.837185 0.0432464 0.123467 -0.08735
C_ C_ 0.871223 0.489963 0.122704 -0.08735
C_ C_ 0.907182 0.0823344 0.189672 -0.08735
C_ C_ 0.903388 0.134654 0.185837 -0.08735
C_ C_ 0.886452 0.157795 0.160798 -0.05681
C_ C_ 0.866111 0.127242 0.139648 -0.08735
C_ C_ 0.966171 0.324469 0.158679 0.68181
C_ C_ 0.897915 0.36505 0.236894 0.1947
C_ C_ 0.906868 0.381303 0.265226 -0.08735
C_ C_ 0.890248 0.348199 0.287983 -0.08735
C_ C_ 0.861576 0.304525 0.281947 -0.05681
C_ C_ 0.850671 0.292535 0.252922 0.18498
C_ C_ 0.819331 0.252944 0.245538 -0.08735
C_ C_ 0.796701 0.220767 0.266638 -0.08735
C_ C_ 0.808076 0.231423 0.295684 -0.08735
C_ C_ 0.839202 0.274771 0.303263 0.18498
C_ C_ 0.808191 0.302454 0.349456 0.44287
C_ C_ 0.894404 0.279461 0.343682 0.44287
C_ C_ 0.90325 0.28673 0.372625 -0.05681
C_ C_ 0.953375 0.281429 0.383433 -0.08735
C_ C_ 0.959528 0.291257 0.412926 -0.08735
C_ C_ 0.919302 0.308125 0.431978 -0.05681
C_ C_ 0.871276 0.312819 0.420727 -0.05681
C_ C_ 0.862773 0.302576 0.390038 -0.05681
C_ C_ 0.815022 0.31173 0.37857 -0.05681
C_ C_ 0.777026 0.33153 0.39676 -0.08735
C_ C_ 0.785692 0.342561 0.424841 -0.08735
C_ C_ 0.833117 0.330597 0.438016 -0.05681
C_ C_ 0.841196 0.336761 0.466976 0.44287
C_ C_ 0.92457 0.312602 0.461992 0.44287
C_ C_ 0.903295 0.335099 0.00976257 0.18498
C_ C_ 0.933888 0.373433 0.0171034 -0.08735
C_ C_ 0.938197 0.393342 0.0447437 -0.08735
C_ C_ 0.914299 0.367068 0.0680061 -0.08735
C_ C_ 0.885938 0.322929 0.0608918 0.18498
C_ C_ 0.878719 0.309161 0.031706 -0.05681
C_ C_ 0.853453 0.264575 0.0265317 -0.08735
C_ C_ 0.830406 0.23793 0.0497526 -0.08735
C_ C_ 0.837529 0.255049 0.0784478 0.1947
N_ N_ 0.622954 0.175251 0.475488 -0.29468
N_ N_ 0.64941 0.189534 0.0827228 -0.17154
N_ N_ 0.598088 0.156074 0.228107 -0.17154
N_ N_ 0.625697 0.190697 0.331115 -0.29468
N_ N_ 0.869019 0.322726 0.231788 -0.29468
N_ N_ 0.848263 0.287893 0.33245 -0.17154
N_ N_ 0.887616 0.328198 0.479521 -0.17154
N_ N_ 0.865686 0.296656 0.0831569 -0.29468
O_ O_ 0.702516 0.183209 0.427614 -0.58347
O_ O_ 0.691586 0.179366 0.380408 -0.58347
O_ O_ 0.61864 0.261479 0.432248 -0.58347
O_ O_ 0.623712 0.271074 0.385267 -0.58347
O_ O_ 0.623935 0.110467 0.420142 -0.58347
O_ O_ 0.612772 0.117452 0.373937 -0.58347
O_ O_ 0.552049 0.19025 0.42501 -0.58347
O_ O_ 0.540278 0.203357 0.378608 -0.58347
O_ O_ 0.564595 0.209063 0.0736159 -0.46727
O_ O_ 0.734306 0.173242 0.0902878 -0.46727
O_ O_ 0.518188 0.184518 0.22101 -0.46727
O_ O_ 0.675943 0.119812 0.236151 -0.46727
O_ O_ 0.787228 0.316076 0.179575 -0.58347
O_ O_ 0.793213 0.304652 0.132121 -0.58347
O_ O_ 0.869358 0.237919 0.182778 -0.58347
O_ O_ 0.883745 0.235797 0.13578 -0.58347
O_ O_ 0.864994 0.390518 0.178217 -0.58347
O_ O_ 0.856442 0.382074 0.132466 -0.58347
O_ O_ 0.940267 0.316513 0.181528 -0.58347
O_ O_ 0.947521 0.31966 0.133257 -0.58347
O_ O_ 0.929415 0.25495 0.328621 -0.46727
O_ O_ 0.76293 0.310467 0.33824 -0.46727
O_ O_ 0.970383 0.303132 0.472345 -0.46727
O_ O_ 0.805358 0.354683 0.483081 -0.46727
Zn Zn 0.628818 0.178628 0.879463 0.90689
Zn Zn 0.63917 0.177739 0.927642 0.90689
Zn Zn 0.878053 0.318103 0.631678 0.90689
Zn Zn 0.867664 0.324693 0.678791 0.90689
H_ H_ 0.802377 0.178059 0.948675 0.11455
H_ H_ 0.883428 0.148487 0.853007 0.11455
H_ H_ 0.790047 0.143786 0.85869 0.11455
H_ H_ 0.897661 0.178748 0.968423 0.11455
H_ H_ 0.983441 0.179159 0.96136 0.11455
H_ H_ 0.965739 0.162589 0.870906 0.11455
H_ H_ 0.645953 0.0047141 0.941233 0.11455
H_ H_ 0.664232 0.426389 0.848757 0.11455
H_ H_ 0.639727 0.0182187 0.849337 0.11455
H_ H_ 0.57922 0.424919 0.95741 0.11455
H_ H_ 0.580732 0.333205 0.955309 0.11455
H_ H_ 0.63506 0.342035 0.866991 0.11455
H_ H_ 0.593713 0.0968948 0.964335 0.11455
H_ H_ 0.572395 0.0796972 0.511013 0.11455
H_ H_ 0.608132 0.128766 0.552192 0.11455
H_ H_ 0.695413 0.246572 0.975856 0.11455
H_ H_ 0.70342 0.312289 0.507944 0.11455
H_ H_ 0.689594 0.290456 0.560356 0.11455
H_ H_ 0.504771 0.227583 0.622227 0.11455
H_ H_ 0.496249 0.205873 0.67538 0.11455
H_ H_ 0.745935 0.156527 0.62985 0.11455
H_ H_ 0.741035 0.147076 0.683857 0.11455
H_ H_ 0.579512 0.084625 0.748833 0.11455
H_ H_ 0.569258 0.0579644 0.799635 0.11455
H_ H_ 0.580408 0.12239 0.838655 0.11455
H_ H_ 0.670784 0.245527 0.757629 0.11455
H_ H_ 0.708186 0.289443 0.799059 0.11455
H_ H_ 0.693689 0.255535 0.84974 0.11455
H_ H_ 0.697504 0.306624 0.687874 0.11455
H_ H_ 0.630529 0.353521 0.594199 0.11455
H_ H_ 0.720264 0.341789 0.600777 0.11455
H_ H_ 0.617576 0.310183 0.709215 0.11455
H_ H_ 0.522411 0.31928 0.703272 0.11455
H_ H_ 0.548141 0.356253 0.613537 0.11455
H_ H_ 0.859223 0.493771 0.691043 0.11455
H_ H_ 0.84606 0.0728893 0.600852 0.11455
H_ H_ 0.854167 0.474313 0.600736 0.11455
H_ H_ 0.880698 0.0742804 0.718417 0.11455
H_ H_ 0.881549 0.168071 0.714155 0.11455
H_ H_ 0.86974 0.151689 0.621817 0.11455
H_ H_ 0.917331 0.394157 0.717971 0.11455
H_ H_ 0.930668 0.423097 0.765883 0.11455
H_ H_ 0.888269 0.374831 0.806965 0.11455
H_ H_ 0.80493 0.255985 0.720624 0.11455
H_ H_ 0.779507 0.196115 0.759497 0.11455
H_ H_ 0.808809 0.208634 0.806577 0.11455
H_ H_ 0.987253 0.281526 0.871109 0.11455
H_ H_ 0.0028399999999999537 0.291077 0.922 0.11455
H_ H_ 0.740492 0.337643 0.888653 0.11455
H_ H_ 0.758214 0.349956 0.939204 0.11455
H_ H_ 0.95097 0.394335 0.99832844 0.11455
H_ H_ 0.978767 0.417271 0.547716 0.11455
H_ H_ 0.938088 0.369545 0.587061 0.11455
H_ H_ 0.827964 0.261807 0.506901 0.11455
H_ H_ 0.810791 0.207181 0.552224 0.11455
H_ H_ 0.824436 0.245925 0.600467 0.11455
C_ C_ 0.733226 0.177464 0.90728 0.68181
C_ C_ 0.788474 0.171229 0.903547 -0.05681
C_ C_ 0.821287 0.17479 0.927404 -0.08735
C_ C_ 0.876204 0.171875 0.923296 -0.05681
C_ C_ 0.897516 0.170518 0.895636 -0.05681
C_ C_ 0.863562 0.160267 0.873051 -0.08735
C_ C_ 0.810764 0.158063 0.87661 -0.08735
C_ C_ 0.908935 0.179069 0.946099 -0.08735
C_ C_ 0.96119 0.171359 0.942097 -0.08735
C_ C_ 0.981624 0.166335 0.915182 -0.05681
C_ C_ 0.948986 0.166996 0.891277 -0.08735
C_ C_ 0.624544 0.276503 0.910863 0.68181
C_ C_ 0.646024 0.0779947 0.897809 0.68181
C_ C_ 0.649803 0.0222843 0.896071 -0.05681
C_ C_ 0.623476 0.490816 0.919466 -0.08735
C_ C_ 0.625131 0.438793 0.918939 -0.05681
C_ C_ 0.63659 0.414605 0.891805 -0.05681
C_ C_ 0.649837 0.44376 0.868329 -0.08735
C_ C_ 0.64858 0.495008 0.870879 -0.08735
C_ C_ 0.603433 0.408319 0.941432 -0.08735
C_ C_ 0.598607 0.357047 0.937684 -0.08735
C_ C_ 0.615955 0.332817 0.912519 -0.05681
C_ C_ 0.631031 0.361867 0.888999 -0.08735
C_ C_ 0.532888 0.173958 0.903684 0.68181
C_ C_ 0.605227 0.121193 0.982383 0.1947
C_ C_ 0.590607 0.115858 0.507768 -0.08735
C_ C_ 0.610398 0.142191 0.530631 -0.08735
C_ C_ 0.634919 0.189022 0.526437 -0.05681
C_ C_ 0.648406 0.200695 0.497561 0.18498
C_ C_ 0.679925 0.236267 0.99662 -0.08735
C_ C_ 0.689984 0.277706 0.514557 -0.08735
C_ C_ 0.675934 0.267079 0.543259 -0.08735
C_ C_ 0.648774 0.22164 0.549591 0.18498
C_ C_ 0.677188 0.1898 0.595151 0.44287
C_ C_ 0.592234 0.221076 0.592368 0.44287
C_ C_ 0.585058 0.213599 0.622667 -0.05681
C_ C_ 0.537888 0.220047 0.636188 -0.08735
C_ C_ 0.532011 0.205189 0.665525 -0.08735
C_ C_ 0.576486 0.194288 0.683173 -0.05681
C_ C_ 0.622611 0.189023 0.669039 -0.05681
C_ C_ 0.627479 0.200484 0.639142 -0.05681
C_ C_ 0.671311 0.185958 0.625519 -0.05681
C_ C_ 0.710226 0.162314 0.640989 -0.08735
C_ C_ 0.707825 0.160224 0.670855 -0.08735
C_ C_ 0.662212 0.170829 0.68529 -0.05681
C_ C_ 0.657294 0.16588 0.715503 0.44287
C_ C_ 0.572616 0.191394 0.713344 0.44287
C_ C_ 0.607147 0.16056 0.759042 0.18498
C_ C_ 0.592111 0.10994 0.766249 -0.08735
C_ C_ 0.583949 0.0947406 0.795246 -0.08735
C_ C_ 0.590137 0.131902 0.816163 -0.08735
C_ C_ 0.620526 0.173687 0.811617 0.18498
C_ C_ 0.630357 0.189122 0.782814 -0.05681
C_ C_ 0.659289 0.233306 0.778413 -0.08735
C_ C_ 0.682608 0.256327 0.802027 -0.08735
C_ C_ 0.671921 0.240956 0.830088 0.1947
C_ C_ 0.775036 0.324088 0.649496 0.68181
C_ C_ 0.718993 0.323791 0.64446 -0.05681
C_ C_ 0.685444 0.31195 0.667072 -0.08735
C_ C_ 0.633044 0.320974 0.664959 -0.05681
C_ C_ 0.614008 0.340332 0.638489 -0.05681
C_ C_ 0.645626 0.343971 0.614602 -0.08735
C_ C_ 0.697491 0.340133 0.618925 -0.08735
C_ C_ 0.600525 0.317794 0.68849 -0.08735
C_ C_ 0.548316 0.324277 0.683957 -0.08735
C_ C_ 0.526382 0.339664 0.657037 -0.05681
C_ C_ 0.560429 0.352174 0.63519 -0.08735
C_ C_ 0.879799 0.224187 0.662519 0.68181
C_ C_ 0.862978 0.420704 0.649115 0.68181
C_ C_ 0.86993 0.476297 0.645237 -0.05681
C_ C_ 0.864811 0.00804251 0.675027 -0.08735
C_ C_ 0.867193 0.0608378 0.673496 -0.05681
C_ C_ 0.86226 0.0836626 0.646199 -0.05681
C_ C_ 0.849211 0.0556293 0.621598 -0.08735
C_ C_ 0.865419 0.49964 0.617968 -0.08735
C_ C_ 0.874343 0.09194 0.697516 -0.08735
C_ C_ 0.876685 0.144432 0.694449 -0.08735
C_ C_ 0.872813 0.166914 0.666551 -0.05681
C_ C_ 0.865533 0.136884 0.643544 -0.08735
C_ C_ 0.971214 0.324671 0.658567 0.68181
C_ C_ 0.89781 0.374405 0.733205 0.1947
C_ C_ 0.90834 0.388758 0.761256 -0.08735
C_ C_ 0.886629 0.361183 0.784149 -0.08735
C_ C_ 0.85834 0.316183 0.77875 -0.05681
C_ C_ 0.847247 0.305435 0.749593 0.18498
C_ C_ 0.81646 0.264043 0.742379 -0.08735
C_ C_ 0.799284 0.231276 0.763974 -0.08735
C_ C_ 0.812683 0.239995 0.79211 -0.08735
C_ C_ 0.843526 0.281546 0.800334 0.18498
C_ C_ 0.811413 0.306807 0.848175 0.44287
C_ C_ 0.896885 0.284867 0.84265 0.44287
C_ C_ 0.905721 0.29351 0.87153 -0.05681
C_ C_ 0.954939 0.286444 0.884484 -0.08735
C_ C_ 0.963622 0.292673 0.91333 -0.08735
C_ C_ 0.923698 0.307585 0.931758 -0.05681
C_ C_ 0.875585 0.313627 0.919207 -0.05681
C_ C_ 0.86635 0.307856 0.890039 -0.05681
C_ C_ 0.819669 0.317293 0.877876 -0.05681
C_ C_ 0.779295 0.332557 0.896579 -0.08735
C_ C_ 0.786827 0.33314 0.926795 -0.08735
C_ C_ 0.834654 0.323028 0.938501 -0.05681
C_ C_ 0.846417 0.33632 0.967483 0.44287
C_ C_ 0.930836 0.306404 0.962346 0.44287
C_ C_ 0.896355 0.337968 0.509555 0.18498
C_ C_ 0.931498 0.375158 0.515347 -0.08735
C_ C_ 0.947284 0.387113 0.543441 -0.08735
C_ C_ 0.923961 0.36203 0.566612 -0.08735
C_ C_ 0.889804 0.323666 0.562448 0.18498
C_ C_ 0.877424 0.310039 0.533433 -0.05681
C_ C_ 0.838702 0.273102 0.529033 -0.08735
C_ C_ 0.82271 0.245738 0.553443 -0.08735
C_ C_ 0.836091 0.262379 0.580936 0.1947
N_ N_ 0.633396 0.163924 0.977464 -0.29468
N_ N_ 0.638822 0.210753 0.578726 -0.17154
N_ N_ 0.613946 0.176663 0.729369 -0.17154
N_ N_ 0.64074 0.199535 0.834185 -0.29468
N_ N_ 0.868604 0.333113 0.726937 -0.29468
N_ N_ 0.850819 0.29379 0.830274 -0.17154
N_ N_ 0.893442 0.326272 0.979149 -0.17154
N_ N_ 0.867552 0.30097 0.584592 -0.29468
O_ O_ 0.714791 0.177467 0.932077 -0.58347
O_ O_ 0.703471 0.173788 0.885953 -0.58347
O_ O_ 0.635992 0.251199 0.933536 -0.58347
O_ O_ 0.619703 0.254392 0.885709 -0.58347
O_ O_ 0.644648 0.101495 0.921389 -0.58347
O_ O_ 0.636452 0.100038 0.874916 -0.58347
O_ O_ 0.563328 0.178492 0.924771 -0.58347
O_ O_ 0.55087 0.177449 0.87832 -0.58347
O_ O_ 0.553316 0.225639 0.575337 -0.46727
O_ O_ 0.718861 0.171474 0.581015 -0.46727
O_ O_ 0.527013 0.18948 0.725416 -0.46727
O_ O_ 0.696055 0.151955 0.730956 -0.46727
O_ O_ 0.792802 0.313652 0.674505 -0.58347
O_ O_ 0.803871 0.319846 0.628384 -0.58347
O_ O_ 0.869611 0.249412 0.683947 -0.58347
O_ O_ 0.883905 0.243182 0.638019 -0.58347
O_ O_ 0.864206 0.40118 0.67409 -0.58347
O_ O_ 0.873312 0.393034 0.627608 -0.58347
O_ O_ 0.939603 0.329302 0.678576 -0.58347
O_ O_ 0.954773 0.317005 0.633477 -0.58347
O_ O_ 0.932764 0.26084 0.828306 -0.46727
O_ O_ 0.766936 0.314493 0.837652 -0.46727
O_ O_ 0.976617 0.299816 0.972944 -0.46727
O_ O_ 0.810938 0.353715 0.98411 -0.46727
Zn Zn 0.618684 0.693424 0.382894 0.90689
Zn Zn 0.63151 0.689154 0.43068 0.90689
Zn Zn 0.871835 0.809891 0.132968 0.90689
Zn Zn 0.863178 0.814579 0.180167 0.90689
H_ H_ 0.797186 0.69082 0.443557 0.11455
H_ H_ 0.863906 0.669963 0.343183 0.11455
H_ H_ 0.767339 0.664183 0.355281 0.11455
H_ H_ 0.885463 0.685223 0.461926 0.11455
H_ H_ 0.973682 0.685514 0.453417 0.11455
H_ H_ 0.949577 0.676321 0.360903 0.11455
H_ H_ 0.611557 0.520493 0.44413 0.11455
H_ H_ 0.601054 0.938332 0.344948 0.11455
H_ H_ 0.677013 0.536833 0.362991 0.11455
H_ H_ 0.622772 0.938285 0.463495 0.11455
H_ H_ 0.615467 0.846792 0.459444 0.11455
H_ H_ 0.621363 0.857853 0.369001 0.11455
H_ H_ 0.564167 0.62928 0.466827 0.11455
H_ H_ 0.571831 0.570556 0.0155463 0.11455
H_ H_ 0.606516 0.618079 0.0571037 0.11455
H_ H_ 0.691547 0.749611 0.47143 0.11455
H_ H_ 0.725865 0.792493 0.0127914 0.11455
H_ H_ 0.695552 0.777925 0.0602099 0.11455
H_ H_ 0.513405 0.698247 0.118816 0.11455
H_ H_ 0.501808 0.681758 0.170706 0.11455
H_ H_ 0.767426 0.666035 0.140245 0.11455
H_ H_ 0.752451 0.664567 0.188645 0.11455
H_ H_ 0.592337 0.583513 0.249957 0.11455
H_ H_ 0.575462 0.556935 0.300629 0.11455
H_ H_ 0.584789 0.619056 0.339599 0.11455
H_ H_ 0.658744 0.748548 0.256824 0.11455
H_ H_ 0.680628 0.802085 0.296495 0.11455
H_ H_ 0.660311 0.777813 0.347941 0.11455
H_ H_ 0.69741 0.805264 0.192416 0.11455
H_ H_ 0.627546 0.8276 0.0946372 0.11455
H_ H_ 0.721365 0.815778 0.1029 0.11455
H_ H_ 0.611628 0.80834 0.212485 0.11455
H_ H_ 0.523526 0.816762 0.206112 0.11455
H_ H_ 0.53983 0.816487 0.113296 0.11455
H_ H_ 0.905924 0.984387 0.187361 0.11455
H_ H_ 0.892744 0.555761 0.0993568 0.11455
H_ H_ 0.826745 0.965591 0.109305 0.11455
H_ H_ 0.853326 0.567368 0.214441 0.11455
H_ H_ 0.868074 0.657656 0.211375 0.11455
H_ H_ 0.89651 0.641901 0.120656 0.11455
H_ H_ 0.909212 0.888904 0.215542 0.11455
H_ H_ 0.935232 0.919605 0.264606 0.11455
H_ H_ 0.90328 0.868112 0.304115 0.11455
H_ H_ 0.821817 0.73632 0.225914 0.11455
H_ H_ 0.786326 0.686241 0.264336 0.11455
H_ H_ 0.801324 0.71636 0.31322 0.11455
H_ H_ 0.989613 0.804947 0.370515 0.11455
H_ H_ 0.00478665 0.811169 0.42194 0.11455
H_ H_ 0.739536 0.840239 0.390909 0.11455
H_ H_ 0.751544 0.848167 0.440887 0.11455
H_ H_ 0.934648 0.922259 0.498203 0.11455
H_ H_ 0.973142 0.916776 0.0488975 0.11455
H_ H_ 0.927229 0.874349 0.0882756 0.11455
H_ H_ 0.849316 0.742906 0.00886528 0.11455
H_ H_ 0.803484 0.705402 0.0505695 0.11455
H_ H_ 0.822057 0.734285 0.0983278 0.11455
C_ C_ 0.721478 0.685807 0.40347 0.68181
C_ C_ 0.777192 0.681465 0.398286 -0.05681
C_ C_ 0.81141 0.682079 0.421393 -0.08735
C_ C_ 0.863108 0.680495 0.416735 -0.05681
C_ C_ 0.882196 0.681599 0.388583 -0.05681
C_ C_ 0.847995 0.676801 0.364902 -0.08735
C_ C_ 0.794189 0.671295 0.370442 -0.08735
C_ C_ 0.897913 0.683834 0.440017 -0.08735
C_ C_ 0.949043 0.684707 0.435277 -0.08735
C_ C_ 0.968725 0.685551 0.407962 -0.05681
C_ C_ 0.934706 0.679948 0.384094 -0.08735
C_ C_ 0.617112 0.788848 0.411891 0.68181
C_ C_ 0.633467 0.593581 0.40217 0.68181
C_ C_ 0.635012 0.53719 0.399642 -0.05681
C_ C_ 0.624556 1.00518997 0.418286 -0.08735
C_ C_ 0.619413 0.952677 0.416852 -0.05681
C_ C_ 0.609697 0.927428 0.390183 -0.05681
C_ C_ 0.60164 0.955956 0.365307 -0.08735
C_ C_ 0.611066 1.00998957 0.36664 -0.08735
C_ C_ 0.624006 0.921625 0.441965 -0.08735
C_ C_ 0.620413 0.86883 0.440801 -0.08735
C_ C_ 0.616921 0.845534 0.413719 -0.05681
C_ C_ 0.61059 0.874396 0.3892 -0.08735
C_ C_ 0.525399 0.695329 0.405158 0.68181
C_ C_ 0.58512 0.646042 0.483828 0.1947
C_ C_ 0.59166 0.605585 0.0117347 -0.08735
C_ C_ 0.61302 0.630821 0.0345249 -0.08735
C_ C_ 0.641849 0.674535 0.0288981 -0.05681
C_ C_ 0.654277 0.687796 0.999827 0.18498
C_ C_ 0.679306 0.743156 0.49365 -0.08735
C_ C_ 0.698974 0.762813 0.0161426 -0.08735
C_ C_ 0.685911 0.751935 0.044482 -0.08735
C_ C_ 0.657959 0.708763 0.0509791 0.18498
C_ C_ 0.692299 0.686035 0.0982491 0.44287
C_ C_ 0.605114 0.704242 0.0921485 0.44287
C_ C_ 0.597306 0.692722 0.121388 -0.05681
C_ C_ 0.545206 0.69034 0.133176 -0.08735
C_ C_ 0.538345 0.685881 0.162412 -0.08735
C_ C_ 0.580486 0.681725 0.180568 -0.05681
C_ C_ 0.629417 0.67607 0.170121 -0.05681
C_ C_ 0.636929 0.681231 0.139715 -0.05681
C_ C_ 0.687017 0.678175 0.12855 -0.05681
C_ C_ 0.728131 0.668571 0.146756 -0.08735
C_ C_ 0.719135 0.669754 0.176103 -0.08735
C_ C_ 0.670297 0.673868 0.188371 -0.05681
C_ C_ 0.662615 0.673606 0.218825 0.44287
C_ C_ 0.574245 0.681081 0.211526 0.44287
C_ C_ 0.606419 0.662212 0.259121 0.18498
C_ C_ 0.588413 0.612475 0.26578 -0.08735
C_ C_ 0.580481 0.598243 0.295652 -0.08735
C_ C_ 0.588692 0.632854 0.317502 -0.08735
C_ C_ 0.606698 0.681242 0.311755 0.18498
C_ C_ 0.618179 0.695666 0.28278 -0.05681
C_ C_ 0.643673 0.740616 0.278718 -0.08735
C_ C_ 0.655416 0.771805 0.301442 -0.08735
C_ C_ 0.649347 0.75381 0.329787 0.1947
C_ C_ 0.771421 0.812712 0.15304 0.68181
C_ C_ 0.715745 0.814857 0.148217 -0.05681
C_ C_ 0.680984 0.811812 0.171625 -0.08735
C_ C_ 0.629234 0.809076 0.167498 -0.05681
C_ C_ 0.60875 0.816604 0.139816 -0.05681
C_ C_ 0.642165 0.819264 0.116255 -0.08735
C_ C_ 0.694309 0.817407 0.120939 -0.08735
C_ C_ 0.597345 0.808674 0.191223 -0.08735
C_ C_ 0.544861 0.80984 0.187676 -0.08735
C_ C_ 0.524219 0.816438 0.158971 -0.05681
C_ C_ 0.556309 0.815944 0.135238 -0.08735
C_ C_ 0.878277 0.713914 0.162611 0.68181
C_ C_ 0.865791 0.911068 0.153559 0.68181
C_ C_ 0.862235 0.967517 0.150698 -0.05681
C_ C_ 0.86245 0.497576 0.174291 -0.08735
C_ C_ 0.86926 0.551538 0.171152 -0.05681
C_ C_ 0.877213 0.573527 0.144221 -0.05681
C_ C_ 0.882903 0.541846 0.120284 -0.08735
C_ C_ 0.840417 0.989848 0.126112 -0.08735
C_ C_ 0.863316 0.583898 0.194273 -0.08735
C_ C_ 0.872203 0.635932 0.192815 -0.08735
C_ C_ 0.879202 0.657554 0.165826 -0.05681
C_ C_ 0.883452 0.626622 0.141114 -0.08735
C_ C_ 0.967217 0.818411 0.157771 0.68181
C_ C_ 0.897651 0.868418 0.233454 0.1947
C_ C_ 0.912887 0.883979 0.260397 -0.08735
C_ C_ 0.89404 0.855806 0.28317 -0.08735
C_ C_ 0.860701 0.813889 0.279099 -0.05681
C_ C_ 0.849627 0.799875 0.25082 0.18498
C_ C_ 0.822337 0.753861 0.245893 -0.08735
C_ C_ 0.80165 0.724679 0.268253 -0.08735
C_ C_ 0.81097 0.742686 0.29607 -0.08735
C_ C_ 0.839553 0.78645 0.301888 0.18498
C_ C_ 0.809683 0.809721 0.351466 0.44287
C_ C_ 0.896088 0.791976 0.344503 0.44287
C_ C_ 0.906905 0.810066 0.372938 -0.05681
C_ C_ 0.955318 0.81275 0.384979 -0.08735
C_ C_ 0.964306 0.814569 0.414713 -0.08735
C_ C_ 0.924622 0.824751 0.434235 -0.05681
C_ C_ 0.874914 0.829847 0.422236 -0.05681
C_ C_ 0.866741 0.818426 0.392253 -0.05681
C_ C_ 0.818061 0.819251 0.380328 -0.05681
C_ C_ 0.776614 0.831773 0.398726 -0.08735
C_ C_ 0.784525 0.840523 0.428431 -0.08735
C_ C_ 0.834137 0.840191 0.440332 -0.05681
C_ C_ 0.842746 0.850491 0.46908 0.44287
C_ C_ 0.928924 0.827876 0.464085 0.44287
C_ C_ 0.911981 0.824942 0.0110173 0.18498
C_ C_ 0.940052 0.868331 0.0164697 -0.08735
C_ C_ 0.948794 0.883843 0.0450198 -0.08735
C_ C_ 0.92331 0.860045 0.0680399 -0.08735
C_ C_ 0.893413 0.818186 0.0632391 0.18498
C_ C_ 0.88685 0.799603 0.0343666 -0.05681
C_ C_ 0.856997 0.757249 0.0300789 -0.08735
C_ C_ 0.829541 0.735622 0.0537089 -0.08735
C_ C_ 0.836542 0.755695 0.0808416 0.1947
N_ N_ 0.623472 0.677019 0.478109 -0.29468
N_ N_ 0.650748 0.695731 0.0809067 -0.17154
N_ N_ 0.615428 0.675758 0.229802 -0.17154
N_ N_ 0.626812 0.708913 0.33379 -0.29468
N_ N_ 0.868339 0.827917 0.228482 -0.29468
N_ N_ 0.849614 0.799804 0.33268 -0.17154
N_ N_ 0.888304 0.842313 0.480771 -0.17154
N_ N_ 0.871337 0.793258 0.0857869 -0.29468
O_ O_ 0.703928 0.680195 0.428232 -0.58347
O_ O_ 0.694483 0.698707 0.383082 -0.58347
O_ O_ 0.632084 0.763632 0.433271 -0.58347
O_ O_ 0.606131 0.767189 0.388758 -0.58347
O_ O_ 0.625876 0.610581 0.428005 -0.58347
O_ O_ 0.632695 0.620979 0.37992 -0.58347
O_ O_ 0.554103 0.691122 0.426672 -0.58347
O_ O_ 0.544604 0.68202 0.381128 -0.58347
O_ O_ 0.569879 0.725405 0.077091 -0.46727
O_ O_ 0.735877 0.673256 0.0860404 -0.46727
O_ O_ 0.528768 0.681192 0.22202 -0.46727
O_ O_ 0.701074 0.671258 0.236266 -0.46727
O_ O_ 0.789456 0.80422 0.178311 -0.58347
O_ O_ 0.799379 0.815094 0.131988 -0.58347
O_ O_ 0.876264 0.741168 0.184597 -0.58347
O_ O_ 0.872791 0.735694 0.138141 -0.58347
O_ O_ 0.853064 0.890154 0.17696 -0.58347
O_ O_ 0.873376 0.885327 0.131317 -0.58347
O_ O_ 0.93752 0.822716 0.180496 -0.58347
O_ O_ 0.94933 0.811569 0.132635 -0.58347
O_ O_ 0.927041 0.764755 0.328841 -0.46727
O_ O_ 0.764258 0.813848 0.340935 -0.46727
O_ O_ 0.971128 0.811367 0.476076 -0.46727
O_ O_ 0.805012 0.868339 0.484849 -0.46727
Zn Zn 0.637421 0.676418 0.880421 0.90689
Zn Zn 0.648821 0.671871 0.928137 0.90689
Zn Zn 0.873787 0.821998 0.633896 0.90689
Zn Zn 0.867526 0.826115 0.682261 0.90689
H_ H_ 0.81201 0.68612 0.943908 0.11455
H_ H_ 0.88553 0.645522 0.848194 0.11455
H_ H_ 0.798174 0.652902 0.854243 0.11455
H_ H_ 0.902749 0.677461 0.965089 0.11455
H_ H_ 0.994617 0.677045 0.95582 0.11455
H_ H_ 0.972447 0.642821 0.86787 0.11455
H_ H_ 0.609328 0.507608 0.93861 0.11455
H_ H_ 0.632075 0.929452 0.846241 0.11455
H_ H_ 0.654633 0.519664 0.851112 0.11455
H_ H_ 0.657275 0.922809 0.962449 0.11455
H_ H_ 0.641907 0.828591 0.958157 0.11455
H_ H_ 0.635075 0.843192 0.86676 0.11455
H_ H_ 0.587969 0.600793 0.965196 0.11455
H_ H_ 0.536175 0.611982 0.516255 0.11455
H_ H_ 0.583304 0.65549 0.55621 0.11455
H_ H_ 0.698031 0.735657 0.973454 0.11455
H_ H_ 0.737531 0.794997 0.508604 0.11455
H_ H_ 0.711229 0.78463 0.559644 0.11455
H_ H_ 0.515612 0.716372 0.626695 0.11455
H_ H_ 0.507703 0.711372 0.680194 0.11455
H_ H_ 0.76463 0.665656 0.628928 0.11455
H_ H_ 0.759313 0.650041 0.681832 0.11455
H_ H_ 0.578216 0.58601 0.747534 0.11455
H_ H_ 0.556684 0.56131 0.795491 0.11455
H_ H_ 0.579213 0.619725 0.837034 0.11455
H_ H_ 0.684273 0.734535 0.758002 0.11455
H_ H_ 0.713836 0.786033 0.799125 0.11455
H_ H_ 0.697819 0.75049 0.846484 0.11455
H_ H_ 0.697757 0.822509 0.699264 0.11455
H_ H_ 0.630057 0.850998 0.601805 0.11455
H_ H_ 0.723085 0.832099 0.607968 0.11455
H_ H_ 0.609831 0.817116 0.718029 0.11455
H_ H_ 0.515092 0.828787 0.708483 0.11455
H_ H_ 0.543361 0.831383 0.619065 0.11455
H_ H_ 0.866442 0.988512 0.697731 0.11455
H_ H_ 0.867762 0.56899 0.592402 0.11455
H_ H_ 0.830806 0.982841 0.605778 0.11455
H_ H_ 0.86389 0.574174 0.710675 0.11455
H_ H_ 0.884068 0.6633 0.709059 0.11455
H_ H_ 0.878168 0.658606 0.616427 0.11455
H_ H_ 0.918063 0.899051 0.719723 0.11455
H_ H_ 0.93085 0.922101 0.772382 0.11455
H_ H_ 0.897004 0.870076 0.809313 0.11455
H_ H_ 0.810599 0.75489 0.72318 0.11455
H_ H_ 0.781647 0.69568 0.761734 0.11455
H_ H_ 0.803234 0.715838 0.811457 0.11455
H_ H_ 0.985654 0.763349 0.869131 0.11455
H_ H_ 1.00676704 0.783231 0.921323 0.11455
H_ H_ 0.744074 0.813355 0.895222 0.11455
H_ H_ 0.758363 0.811193 0.946128 0.11455
H_ H_ 0.952671 0.894588 0.99947264 0.11455
H_ H_ 0.969402 0.936515 0.547106 0.11455
H_ H_ 0.926573 0.892384 0.588303 0.11455
H_ H_ 0.854526 0.760986 0.506628 0.11455
H_ H_ 0.81168 0.716916 0.548462 0.11455
H_ H_ 0.814969 0.75264 0.595762 0.11455
C_ C_ 0.741729 0.670696 0.904344 0.68181
C_ C_ 0.798576 0.664474 0.900502 -0.05681
C_ C_ 0.82955 0.674463 0.924016 -0.08735
C_ C_ 0.882629 0.669896 0.920735 -0.05681
C_ C_ 0.905027 0.65536 0.893094 -0.05681
C_ C_ 0.870541 0.64633 0.870064 -0.08735
C_ C_ 0.819755 0.651994 0.87358 -0.08735
C_ C_ 0.91659 0.67217 0.943383 -0.08735
C_ C_ 0.969531 0.675231 0.937927 -0.08735
C_ C_ 0.988242 0.673843 0.910386 -0.05681
C_ C_ 0.958064 0.654192 0.888424 -0.08735
C_ C_ 0.642906 0.774181 0.909615 0.68181
C_ C_ 0.63797 0.576609 0.897723 0.68181
C_ C_ 0.638459 0.519948 0.896072 -0.05681
C_ C_ 0.643984 -0.009241999999999972 0.920148 -0.08735
C_ C_ 0.64467 0.936932 0.917171 -0.05681
C_ C_ 0.643474 0.915801 0.890303 -0.05681
C_ C_ 0.640182 0.946488 0.865774 -0.08735
C_ C_ 0.648232 -0.001638999999999946 0.868753 -0.08735
C_ C_ 0.643877 0.906505 0.942222 -0.08735
C_ C_ 0.641265 0.852886 0.939756 -0.08735
C_ C_ 0.643274 0.83088 0.913638 -0.05681
C_ C_ 0.637872 0.862096 0.888611 -0.08735
C_ C_ 0.543505 0.672597 0.906079 0.68181
C_ C_ 0.60738 0.617408 0.98393 0.1947
C_ C_ 0.567125 0.639139 0.511 -0.08735
C_ C_ 0.59279 0.662162 0.533563 -0.08735
C_ C_ 0.633239 0.693835 0.529155 -0.05681
C_ C_ 0.647002 0.702785 0.499799 0.18498
C_ C_ 0.683439 0.729378 0.994337 -0.08735
C_ C_ 0.703944 0.771443 0.514954 -0.08735
C_ C_ 0.689546 0.763556 0.543298 -0.08735
C_ C_ 0.652764 0.726311 0.552044 0.18498
C_ C_ 0.68639 0.693699 0.596311 0.44287
C_ C_ 0.60427 0.728232 0.59676 0.44287
C_ C_ 0.595232 0.711041 0.626044 -0.05681
C_ C_ 0.548978 0.715825 0.640339 -0.08735
C_ C_ 0.546186 0.707196 0.670324 -0.08735
C_ C_ 0.588809 0.689409 0.685126 -0.05681
C_ C_ 0.633608 0.683826 0.670276 -0.05681
C_ C_ 0.636728 0.691798 0.640642 -0.05681
C_ C_ 0.684383 0.685876 0.62626 -0.05681
C_ C_ 0.729293 0.671596 0.641581 -0.08735
C_ C_ 0.725144 0.659593 0.670288 -0.08735
C_ C_ 0.678298 0.666871 0.685641 -0.05681
C_ C_ 0.675023 0.665045 0.715362 0.44287
C_ C_ 0.587033 0.680831 0.715321 0.44287
C_ C_ 0.625536 0.64731 0.759333 0.18498
C_ C_ 0.596955 0.603876 0.764772 -0.08735
C_ C_ 0.581797 0.592945 0.793009 -0.08735
C_ C_ 0.597189 0.623231 0.815627 -0.08735
C_ C_ 0.633444 0.662425 0.811763 0.18498
C_ C_ 0.643446 0.677633 0.783202 -0.05681
C_ C_ 0.668275 0.725436 0.778823 -0.08735
C_ C_ 0.685281 0.753569 0.802688 -0.08735
C_ C_ 0.676353 0.735135 0.830035 0.1947
C_ C_ 0.769245 0.814771 0.656275 0.68181
C_ C_ 0.713681 0.821654 0.653811 -0.05681
C_ C_ 0.680782 0.820318 0.67815 -0.08735
C_ C_ 0.629298 0.826959 0.673929 -0.05681
C_ C_ 0.609877 0.834279 0.645862 -0.05681
C_ C_ 0.643719 0.836768 0.622697 -0.08735
C_ C_ 0.696056 0.834257 0.626935 -0.08735
C_ C_ 0.595577 0.822811 0.696157 -0.08735
C_ C_ 0.542 0.824007 0.690454 -0.08735
C_ C_ 0.523787 0.832635 0.662586 -0.05681
C_ C_ 0.556356 0.837539 0.640858 -0.08735
C_ C_ 0.880907 0.724164 0.661477 0.68181
C_ C_ 0.856946 0.921276 0.651738 0.68181
C_ C_ 0.851692 0.977691 0.650683 -0.05681
C_ C_ 0.865622 0.508858 0.669405 -0.08735
C_ C_ 0.871535 0.56084 0.666358 -0.05681
C_ C_ 0.872414 0.584662 0.638657 -0.05681
C_ C_ 0.864527 0.551914 0.613983 -0.08735
C_ C_ 0.842175 1.00428 0.62521 -0.08735
C_ C_ 0.87435 0.5902 0.690532 -0.08735
C_ C_ 0.881982 0.640756 0.689723 -0.08735
C_ C_ 0.88235 0.666562 0.66248 -0.05681
C_ C_ 0.881254 0.637209 0.636872 -0.08735
C_ C_ 0.969985 0.835598 0.656989 0.68181
C_ C_ 0.89909 0.877305 0.737229 0.1947
C_ C_ 0.906511 0.890202 0.766611 -0.08735
C_ C_ 0.88966 0.857452 0.787913 -0.08735
C_ C_ 0.853663 0.818778 0.782031 -0.05681
C_ C_ 0.845678 0.806098 0.751781 0.18498
C_ C_ 0.81713 0.763278 0.744511 -0.08735
C_ C_ 0.801491 0.730184 0.767213 -0.08735
C_ C_ 0.813798 0.74143 0.795623 -0.08735
C_ C_ 0.839575 0.784505 0.803741 0.18498
C_ C_ 0.813652 0.807065 0.851763 0.44287
C_ C_ 0.89838 0.779563 0.844409 0.44287
C_ C_ 0.91192 0.788829 0.873058 -0.05681
C_ C_ 0.960418 0.780285 0.883743 -0.08735
C_ C_ 0.970394 0.786082 0.912577 -0.08735
C_ C_ 0.929658 0.801724 0.931982 -0.05681
C_ C_ 0.880049 0.807059 0.921856 -0.05681
C_ C_ 0.871149 0.799828 0.89191 -0.05681
C_ C_ 0.822706 0.803042 0.881525 -0.05681
C_ C_ 0.781338 0.806157 0.90191 -0.08735
C_ C_ 0.79005 0.808407 0.931717 -0.08735
C_ C_ 0.839499 0.813451 0.941541 -0.05681
C_ C_ 0.850914 0.825641 0.971176 0.44287
C_ C_ 0.93774 0.811975 0.961675 0.44287
C_ C_ 0.897074 0.853993 0.509885 0.18498
C_ C_ 0.923826 0.897799 0.516107 -0.08735
C_ C_ 0.943854 0.9055 0.544277 -0.08735
C_ C_ 0.925288 0.87765 0.566288 -0.08735
C_ C_ 0.894192 0.835661 0.561667 0.18498
C_ C_ 0.879207 0.822735 0.533254 -0.05681
C_ C_ 0.85391 0.777417 0.52846 -0.08735
C_ C_ 0.833344 0.750961 0.551614 -0.08735
C_ C_ 0.835327 0.771994 0.579391 0.1947
N_ N_ 0.635939 0.659684 0.977607 -0.29468
N_ N_ 0.647036 0.714382 0.582093 -0.17154
N_ N_ 0.629092 0.666777 0.730006 -0.17154
N_ N_ 0.645805 0.694114 0.833886 -0.29468
N_ N_ 0.867162 0.837851 0.730762 -0.29468
N_ N_ 0.85193 0.792578 0.833741 -0.17154
N_ N_ 0.898762 0.817867 0.981423 -0.17154
N_ N_ 0.868842 0.811916 0.5845 -0.29468
O_ O_ 0.721776 0.66943 0.928596 -0.58347
O_ O_ 0.714649 0.684707 0.88322 -0.58347
O_ O_ 0.653001 0.746048 0.931657 -0.58347
O_ O_ 0.632584 0.753011 0.885499 -0.58347
O_ O_ 0.634097 0.597258 0.921349 -0.58347
O_ O_ 0.648246 0.601439 0.87598 -0.58347
O_ O_ 0.574337 0.683055 0.925818 -0.58347
O_ O_ 0.562372 0.664267 0.880858 -0.58347
O_ O_ 0.572465 0.758605 0.582982 -0.46727
O_ O_ 0.726091 0.676635 0.581304 -0.46727
O_ O_ 0.542474 0.689488 0.728372 -0.46727
O_ O_ 0.716967 0.658651 0.731049 -0.46727
O_ O_ 0.790092 0.815156 0.682326 -0.58347
O_ O_ 0.797738 0.813208 0.633884 -0.58347
O_ O_ 0.881853 0.748969 0.684763 -0.58347
O_ O_ 0.884039 0.74642 0.637812 -0.58347
O_ O_ 0.860307 0.900087 0.675186 -0.58347
O_ O_ 0.863195 0.897601 0.629288 -0.58347
O_ O_ 0.94297 0.834051 0.679238 -0.58347
O_ O_ 0.949891 0.833497 0.631911 -0.58347
O_ O_ 0.931904 0.760494 0.827767 -0.46727
O_ O_ 0.767253 0.811853 0.843242 -0.46727
O_ O_ 0.984054 0.814225 0.970766 -0.46727
O_ O_ 0.816283 0.840249 0.988737 -0.46727
_cell_length_a 26.376
_cell_length_b 26.400000238300095
_cell_length_c 46.67800035477134
_cell_angle_alpha 90.00700052986613
_cell_angle_beta 89.99899961309502
_cell_angle_gamma 90.45000003183146
_symmetry_space_group_name_H-M         'P 1'
_symmetry_Int_Tables_number            1
loop_
_symmetry_equiv_pos_as_xyz
   'x, y, z'
                         
loop_
_atom_site_label
_atom_site_type_symbol
_atom_site_fract_x 
_atom_site_fract_y
_atom_site_fract_z
_atom_site_charge
Zn Zn 0.120441 0.182278 0.382067 0.90689
Zn Zn 0.132302 0.1771 0.430337 0.90689
Zn Zn 0.36912 0.312679 0.13421 0.90689
Zn Zn 0.361875 0.319957 0.183545 0.90689
H_ H_ 0.294188 0.190917 0.447495 0.11455
H_ H_ 0.359953 0.169581 0.347229 0.11455
H_ H_ 0.268636 0.179318 0.356893 0.11455
H_ H_ 0.382721 0.198852 0.463873 0.11455
H_ H_ 0.471923 0.189413 0.455224 0.11455
H_ H_ 0.447306 0.192475 0.363167 0.11455
H_ H_ 0.134904 0.00939018 0.445087 0.11455
H_ H_ 0.137158 0.428508 0.349408 0.11455
H_ H_ 0.146053 0.0270716 0.352286 0.11455
H_ H_ 0.101449 0.431188 0.466171 0.11455
H_ H_ 0.0918156 0.335861 0.460966 0.11455
H_ H_ 0.135716 0.347611 0.371275 0.11455
H_ H_ 0.0822625 0.102707 0.463709 0.11455
H_ H_ 0.0646636 0.0682498 0.0171012 0.11455
H_ H_ 0.0930571 0.122821 0.0579119 0.11455
H_ H_ 0.187794 0.244026 0.475483 0.11455
H_ H_ 0.215242 0.296492 0.0160831 0.11455
H_ H_ 0.160414 0.291577 0.0589588 0.11455
H_ H_ -0.00172551 0.207532 0.125836 0.11455
H_ H_ -0.006211999999999995 0.194631 0.178542 0.11455
H_ H_ 0.24627 0.164258 0.135557 0.11455
H_ H_ 0.243438 0.148683 0.184791 0.11455
H_ H_ 0.0830557 0.0602836 0.252507 0.11455
H_ H_ 0.0436844 0.0497102 0.301582 0.11455
H_ H_ 0.0640068 0.115206 0.338617 0.11455
H_ H_ 0.163226 0.224509 0.256302 0.11455
H_ H_ 0.177898 0.283857 0.296867 0.11455
H_ H_ 0.16381 0.258531 0.346589 0.11455
H_ H_ 0.192096 0.30061 0.195547 0.11455
H_ H_ 0.131704 0.356884 0.102581 0.11455
H_ H_ 0.216539 0.339732 0.110247 0.11455
H_ H_ 0.103483 0.288946 0.214217 0.11455
H_ H_ 0.0164495 0.30565 0.206054 0.11455
H_ H_ 0.0358723 0.336978 0.118508 0.11455
H_ H_ 0.385124 0.487335 0.194814 0.11455
H_ H_ 0.352366 0.0706546 0.100379 0.11455
H_ H_ 0.368234 0.478731 0.10209 0.11455
H_ H_ 0.415114 0.0725838 0.21356 0.11455
H_ H_ 0.400997 0.164746 0.211287 0.11455
H_ H_ 0.352969 0.152119 0.123952 0.11455
H_ H_ 0.404554 0.399588 0.219967 0.11455
H_ H_ 0.408124 0.433569 0.268592 0.11455
H_ H_ 0.365822 0.389767 0.307306 0.11455
H_ H_ 0.302553 0.254279 0.226551 0.11455
H_ H_ 0.268356 0.199801 0.266335 0.11455
H_ H_ 0.288587 0.226798 0.316199 0.11455
H_ H_ 0.471154 0.31258 0.370975 0.11455
H_ H_ 0.48211 0.329489 0.421956 0.11455
H_ H_ 0.217784 0.31605 0.393481 0.11455
H_ H_ 0.233342 0.342209 0.441682 0.11455
H_ H_ 0.406822 0.429324 0.501943 0.11455
H_ H_ 0.467711 0.42198 0.0500085 0.11455
H_ H_ 0.438157 0.368647 0.0918785 0.11455
H_ H_ 0.336595 0.252256 0.00946345 0.11455
H_ H_ 0.296967 0.21037 0.0516769 0.11455
H_ H_ 0.316864 0.241829 0.0992665 0.11455
C_ C_ 0.220814 0.188404 0.408027 0.68181
C_ C_ 0.276015 0.190159 0.40312 -0.05681
C_ C_ 0.30943 0.192588 0.426081 -0.08735
C_ C_ 0.362263 0.19185 0.42053 -0.05681
C_ C_ 0.380534 0.189701 0.391333 -0.05681
C_ C_ 0.347089 0.178596 0.368909 -0.08735
C_ C_ 0.297451 0.184922 0.374691 -0.08735
C_ C_ 0.395602 0.201627 0.442497 -0.08735
C_ C_ 0.448376 0.197371 0.437554 -0.08735
C_ C_ 0.46779 0.195904 0.409951 -0.05681
C_ C_ 0.433131 0.190022 0.385808 -0.08735
C_ C_ 0.116363 0.276449 0.413907 0.68181
C_ C_ 0.139289 0.0839802 0.400233 0.68181
C_ C_ 0.136585 0.0269264 0.39843 -0.05681
C_ C_ 0.115498 0.49661 0.420829 -0.08735
C_ C_ 0.11847 0.442249 0.420424 -0.05681
C_ C_ 0.126591 0.417113 0.394257 -0.05681
C_ C_ 0.135018 0.446246 0.369488 -0.08735
C_ C_ 0.135603 0.50128 0.370313 -0.08735
C_ C_ 0.105333 0.410573 0.445844 -0.08735
C_ C_ 0.100957 0.35814 0.442777 -0.08735
C_ C_ 0.110582 0.333306 0.415997 -0.05681
C_ C_ 0.122892 0.364275 0.391669 -0.08735
C_ C_ 0.0274745 0.165289 0.406096 0.68181
C_ C_ 0.0989943 0.121312 0.481987 0.1947
C_ C_ 0.0864625 0.101601 0.0134154 -0.08735
C_ C_ 0.104974 0.132374 0.0364092 -0.08735
C_ C_ 0.13299 0.175451 0.0307991 -0.05681
C_ C_ 0.152071 0.185307 1.00279582 0.18498
C_ C_ 0.17839 0.229091 0.497376 -0.08735
C_ C_ 0.191955 0.263854 0.0209735 -0.08735
C_ C_ 0.162475 0.25772 0.045313 -0.08735
C_ C_ 0.140203 0.211395 0.0537027 0.18498
C_ C_ 0.173652 0.189794 0.0999889 0.44287
C_ C_ 0.0882157 0.207255 0.096265 0.44287
C_ C_ 0.0796418 0.191405 0.124803 -0.05681
C_ C_ 0.0320409 0.196884 0.138201 -0.08735
C_ C_ 0.0267312 0.184463 0.167449 -0.08735
C_ C_ 0.0699669 0.173227 0.184436 -0.05681
C_ C_ 0.116931 0.166456 0.171798 -0.05681
C_ C_ 0.120505 0.178209 0.14205 -0.05681
C_ C_ 0.168679 0.176356 0.128225 -0.05681
C_ C_ 0.211507 0.170827 0.145191 -0.08735
C_ C_ 0.207224 0.154783 0.17291 -0.08735
C_ C_ 0.161813 0.158484 0.1875 -0.05681
C_ C_ 0.156352 0.14586 0.216789 0.44287
C_ C_ 0.0685796 0.167857 0.213702 0.44287
C_ C_ 0.103318 0.140755 0.259175 0.18498
C_ C_ 0.0813079 0.0935612 0.268182 -0.08735
C_ C_ 0.0582497 0.0884083 0.295796 -0.08735
C_ C_ 0.0718575 0.122116 0.316973 -0.08735
C_ C_ 0.101286 0.163065 0.310136 0.18498
C_ C_ 0.117765 0.173659 0.282396 -0.05681
C_ C_ 0.147532 0.217605 0.277739 -0.08735
C_ C_ 0.159573 0.249307 0.300926 -0.08735
C_ C_ 0.149673 0.233735 0.328582 0.1947
C_ C_ 0.267819 0.313377 0.157209 0.68181
C_ C_ 0.211853 0.313416 0.152956 -0.05681
C_ C_ 0.178797 0.302596 0.175209 -0.08735
C_ C_ 0.127462 0.31032 0.170954 -0.05681
C_ C_ 0.107561 0.320431 0.143229 -0.05681
C_ C_ 0.141982 0.338729 0.122576 -0.08735
C_ C_ 0.191619 0.330344 0.126921 -0.08735
C_ C_ 0.0926094 0.301898 0.193825 -0.08735
C_ C_ 0.0415506 0.309465 0.189825 -0.08735
C_ C_ 0.0217702 0.322093 0.16241 -0.05681
C_ C_ 0.0550947 0.328599 0.139228 -0.08735
C_ C_ 0.373403 0.220585 0.165834 0.68181
C_ C_ 0.368219 0.417353 0.15047 0.68181
C_ C_ 0.373554 0.474689 0.149881 -0.05681
C_ C_ 0.395124 0.00337495 0.169807 -0.08735
C_ C_ 0.393406 0.0579962 0.169926 -0.05681
C_ C_ 0.375945 0.0818262 0.144199 -0.05681
C_ C_ 0.360465 0.051281 0.120361 -0.08735
C_ C_ 0.365418 0.500133 0.123029 -0.08735
C_ C_ 0.404406 0.0890518 0.194195 -0.08735
C_ C_ 0.395131 0.14157 0.193006 -0.08735
C_ C_ 0.380321 0.16488 0.16711 -0.05681
C_ C_ 0.371893 0.135075 0.143057 -0.08735
C_ C_ 0.461913 0.31765 0.161659 0.68181
C_ C_ 0.381726 0.379473 0.236484 0.1947
C_ C_ 0.388601 0.398009 0.263569 -0.08735
C_ C_ 0.364608 0.374635 0.285955 -0.08735
C_ C_ 0.340925 0.327719 0.281305 -0.05681
C_ C_ 0.337742 0.30757 0.25331 0.18498
C_ C_ 0.306662 0.2661 0.247903 -0.08735
C_ C_ 0.293238 0.233286 0.27128 -0.08735
C_ C_ 0.295469 0.252195 0.299632 -0.08735
C_ C_ 0.319276 0.301008 0.304149 0.18498
C_ C_ 0.289882 0.324703 0.350673 0.44287
C_ C_ 0.378163 0.309478 0.343266 0.44287
C_ C_ 0.387891 0.316556 0.373124 -0.05681
C_ C_ 0.438009 0.321085 0.383899 -0.08735
C_ C_ 0.446205 0.328407 0.41338 -0.08735
C_ C_ 0.403692 0.330475 0.432794 -0.05681
C_ C_ 0.354119 0.327023 0.422283 -0.05681
C_ C_ 0.347104 0.319937 0.391961 -0.05681
C_ C_ 0.296819 0.320636 0.380918 -0.05681
C_ C_ 0.257025 0.324736 0.399963 -0.08735
C_ C_ 0.265488 0.337658 0.428337 -0.08735
C_ C_ 0.313344 0.33791 0.439882 -0.05681
C_ C_ 0.322423 0.345032 0.47032 0.44287
C_ C_ 0.411223 0.338609 0.463263 0.44287
C_ C_ 0.400612 0.335303 0.0109067 0.18498
C_ C_ 0.428101 0.379015 0.0175201 -0.08735
C_ C_ 0.440385 0.392349 0.0461385 -0.08735
C_ C_ 0.426954 0.361711 0.0689567 -0.08735
C_ C_ 0.392417 0.32172 0.0637393 0.18498
C_ C_ 0.378463 0.308024 0.0345687 -0.05681
C_ C_ 0.348535 0.264146 0.0302309 -0.08735
C_ C_ 0.322248 0.242974 0.0530281 -0.08735
C_ C_ 0.33403 0.259831 0.0807034 0.1947
N_ N_ 0.129875 0.160333 0.47763 -0.29468
N_ N_ 0.133498 0.202206 0.0840169 -0.17154
N_ N_ 0.111029 0.153166 0.229499 -0.17154
N_ N_ 0.11928 0.192487 0.333573 -0.29468
N_ N_ 0.360031 0.333321 0.231226 -0.29468
N_ N_ 0.329349 0.317836 0.333187 -0.17154
N_ N_ 0.370792 0.339745 0.481555 -0.17154
N_ N_ 0.366083 0.299467 0.0849815 -0.29468
O_ O_ 0.203266 0.181009 0.432482 -0.58347
O_ O_ 0.192808 0.197738 0.386336 -0.58347
O_ O_ 0.125147 0.251363 0.43747 -0.58347
O_ O_ 0.111865 0.254798 0.390329 -0.58347
O_ O_ 0.147843 0.104014 0.424319 -0.58347
O_ O_ 0.130149 0.1095 0.378204 -0.58347
O_ O_ 0.0560462 0.167186 0.427345 -0.58347
O_ O_ 0.0458654 0.167355 0.38109 -0.58347
O_ O_ 0.0497075 0.226699 0.0817173 -0.46727
O_ O_ 0.217791 0.18239 0.0873376 -0.46727
O_ O_ 0.0273002 0.17577 0.227909 -0.46727
O_ O_ 0.197322 0.137046 0.232854 -0.46727
O_ O_ 0.285552 0.305416 0.181648 -0.58347
O_ O_ 0.295695 0.317154 0.135235 -0.58347
O_ O_ 0.376763 0.248147 0.18776 -0.58347
O_ O_ 0.355441 0.239506 0.143389 -0.58347
O_ O_ 0.352423 0.396778 0.173565 -0.58347
O_ O_ 0.374829 0.390676 0.127681 -0.58347
O_ O_ 0.43628 0.334029 0.182426 -0.58347
O_ O_ 0.442397 0.307743 0.137545 -0.58347
O_ O_ 0.412766 0.296079 0.324548 -0.46727
O_ O_ 0.245218 0.325242 0.338936 -0.46727
O_ O_ 0.458246 0.339642 0.474154 -0.46727
O_ O_ 0.284797 0.361099 0.487448 -0.46727
Zn Zn 0.131759 0.176854 0.886545 0.90689
Zn Zn 0.141125 0.178634 0.934303 0.90689
Zn Zn 0.377088 0.317187 0.6311 0.90689
Zn Zn 0.368271 0.326441 0.679501 0.90689
H_ H_ 0.307715 0.158231 0.950147 0.11455
H_ H_ 0.366973 0.173986 0.848857 0.11455
H_ H_ 0.281553 0.182609 0.859628 0.11455
H_ H_ 0.396868 0.172702 0.965984 0.11455
H_ H_ 0.481552 0.190169 0.955522 0.11455
H_ H_ 0.454414 0.176024 0.866039 0.11455
H_ H_ 0.144295 0.0138857 0.94624 0.11455
H_ H_ 0.131806 0.431368 0.845527 0.11455
H_ H_ 0.155919 0.0245472 0.855926 0.11455
H_ H_ 0.149739 0.428264 0.964078 0.11455
H_ H_ 0.14792 0.335953 0.963726 0.11455
H_ H_ 0.136763 0.340438 0.871102 0.11455
H_ H_ 0.0818863 0.0990687 0.966585 0.11455
H_ H_ 0.0564696 0.0774094 0.513192 0.11455
H_ H_ 0.0944203 0.116825 0.553967 0.11455
H_ H_ 0.213716 0.225263 0.981185 0.11455
H_ H_ 0.217332 0.294043 0.516232 0.11455
H_ H_ 0.204621 0.271593 0.565347 0.11455
H_ H_ 0.0170785 0.204074 0.625302 0.11455
H_ H_ 0.00630654 0.194284 0.675586 0.11455
H_ H_ 0.267037 0.157466 0.639888 0.11455
H_ H_ 0.251688 0.140978 0.690397 0.11455
H_ H_ 0.0549511 0.0984361 0.751854 0.11455
H_ H_ 0.0312376 0.0758085 0.799109 0.11455
H_ H_ 0.0760546 0.112891 0.841307 0.11455
H_ H_ 0.167103 0.243548 0.761931 0.11455
H_ H_ 0.20236 0.284964 0.802405 0.11455
H_ H_ 0.19341 0.249996 0.852938 0.11455
H_ H_ 0.203004 0.288686 0.697747 0.11455
H_ H_ 0.133608 0.322862 0.601049 0.11455
H_ H_ 0.228098 0.32433 0.608761 0.11455
H_ H_ 0.114019 0.31196 0.71881 0.11455
H_ H_ 0.0230949 0.309044 0.709165 0.11455
H_ H_ 0.0500183 0.332719 0.61922 0.11455
H_ H_ 0.398053 0.492003 0.690778 0.11455
H_ H_ 0.409545 0.0758321 0.599016 0.11455
H_ H_ 0.332932 0.474782 0.604484 0.11455
H_ H_ 0.348251 0.0778872 0.713072 0.11455
H_ H_ 0.362417 0.170025 0.709683 0.11455
H_ H_ 0.412751 0.154956 0.621402 0.11455
H_ H_ 0.438944 0.388156 0.715258 0.11455
H_ H_ 0.462242 0.412604 0.762423 0.11455
H_ H_ 0.422826 0.365024 0.803924 0.11455
H_ H_ 0.313554 0.262763 0.723965 0.11455
H_ H_ 0.294442 0.201514 0.761799 0.11455
H_ H_ 0.319572 0.220503 0.811657 0.11455
H_ H_ 0.499929 0.294869 0.872925 0.11455
H_ H_ 0.505517 0.296353 0.923947 0.11455
H_ H_ 0.24803 0.327309 0.886676 0.11455
H_ H_ 0.258981 0.333344 0.936633 0.11455
H_ H_ 0.446948 0.397272 0.0005900000000000905 0.11455
H_ H_ 0.424748 0.451526 0.55326 0.11455
H_ H_ 0.40331 0.38928 0.590895 0.11455
H_ H_ 0.339188 0.258474 0.507736 0.11455
H_ H_ 0.311157 0.204591 0.548685 0.11455
H_ H_ 0.331786 0.230955 0.596428 0.11455
C_ C_ 0.234296 0.182874 0.910638 0.68181
C_ C_ 0.287929 0.173163 0.905144 -0.05681
C_ C_ 0.321685 0.161788 0.927496 -0.08735
C_ C_ 0.374241 0.161668 0.922539 -0.05681
C_ C_ 0.391966 0.167252 0.89307 -0.05681
C_ C_ 0.356858 0.177843 0.870909 -0.08735
C_ C_ 0.30606 0.18068 0.877194 -0.08735
C_ C_ 0.408099 0.175191 0.944136 -0.08735
C_ C_ 0.460747 0.173042 0.938849 -0.08735
C_ C_ 0.477196 0.172039 0.910382 -0.05681
C_ C_ 0.442572 0.164914 0.887333 -0.08735
C_ C_ 0.132127 0.275188 0.915367 0.68181
C_ C_ 0.143754 0.0826985 0.901639 0.68181
C_ C_ 0.148627 0.0270452 0.900039 -0.05681
C_ C_ 0.146487 0.493653 0.921043 -0.08735
C_ C_ 0.147556 0.440737 0.919555 -0.05681
C_ C_ 0.139134 0.414776 0.892653 -0.05681
C_ C_ 0.140309 0.446238 0.867626 -0.08735
C_ C_ 0.136828 0.497825 0.870415 -0.08735
C_ C_ 0.147872 0.410035 0.944463 -0.08735
C_ C_ 0.144159 0.358622 0.943164 -0.08735
C_ C_ 0.137 0.332783 0.916635 -0.05681
C_ C_ 0.136251 0.361863 0.890487 -0.08735
C_ C_ 0.0376581 0.171404 0.910663 0.68181
C_ C_ 0.101378 0.116683 0.984885 0.1947
C_ C_ 0.0813123 0.108924 0.509896 -0.08735
C_ C_ 0.101524 0.134065 0.533384 -0.08735
C_ C_ 0.138821 0.171959 0.53015 -0.05681
C_ C_ 0.151416 0.184715 0.501249 0.18498
C_ C_ 0.187913 0.225538 0.999651 -0.08735
C_ C_ 0.200355 0.257287 0.519696 -0.08735
C_ C_ 0.188866 0.246347 0.547205 -0.08735
C_ C_ 0.160155 0.202895 0.553561 0.18498
C_ C_ 0.193181 0.178906 0.599938 0.44287
C_ C_ 0.106563 0.200509 0.594563 0.44287
C_ C_ 0.0989754 0.196129 0.624538 -0.05681
C_ C_ 0.0504135 0.202167 0.63864 -0.08735
C_ C_ 0.0448033 0.19691 0.667332 -0.08735
C_ C_ 0.0843212 0.187593 0.684919 -0.05681
C_ C_ 0.131503 0.176614 0.672625 -0.05681
C_ C_ 0.138896 0.184155 0.642372 -0.05681
C_ C_ 0.187542 0.176853 0.630455 -0.05681
C_ C_ 0.229171 0.164317 0.648567 -0.08735
C_ C_ 0.221834 0.154497 0.678043 -0.08735
C_ C_ 0.17265 0.16479 0.691084 -0.05681
C_ C_ 0.164006 0.162803 0.721355 0.44287
C_ C_ 0.0784823 0.190444 0.715006 0.44287
C_ C_ 0.104777 0.161861 0.762415 0.18498
C_ C_ 0.0712868 0.120929 0.768803 -0.08735
C_ C_ 0.0556624 0.109434 0.796499 -0.08735
C_ C_ 0.0806221 0.130247 0.819802 -0.08735
C_ C_ 0.116201 0.170384 0.815709 0.18498
C_ C_ 0.123516 0.189594 0.786899 -0.05681
C_ C_ 0.161784 0.227424 0.783273 -0.08735
C_ C_ 0.182619 0.251275 0.806849 -0.08735
C_ C_ 0.17332 0.23301 0.835068 0.1947
C_ C_ 0.277407 0.312935 0.660635 0.68181
C_ C_ 0.221828 0.311784 0.654542 -0.05681
C_ C_ 0.188148 0.303814 0.677561 -0.08735
C_ C_ 0.134626 0.313181 0.674007 -0.05681
C_ C_ 0.114843 0.324871 0.645241 -0.05681
C_ C_ 0.14867 0.319535 0.622472 -0.08735
C_ C_ 0.201934 0.319594 0.626441 -0.08735
C_ C_ 0.100179 0.311477 0.696901 -0.08735
C_ C_ 0.0476947 0.31735 0.691596 -0.08735
C_ C_ 0.0278373 0.324618 0.663767 -0.05681
C_ C_ 0.0630013 0.326752 0.640703 -0.08735
C_ C_ 0.389921 0.225366 0.662195 0.68181
C_ C_ 0.361076 0.419589 0.651539 0.68181
C_ C_ 0.360763 0.47614 0.647599 -0.05681
C_ C_ 0.362779 0.0130795 0.670003 -0.08735
C_ C_ 0.372082 0.064936 0.668884 -0.05681
C_ C_ 0.394945 0.0856041 0.644652 -0.05681
C_ C_ 0.403871 0.0564888 0.619821 -0.08735
C_ C_ 0.346469 0.498288 0.621897 -0.08735
C_ C_ 0.366291 0.0947462 0.693593 -0.08735
C_ C_ 0.375665 0.147079 0.692927 -0.08735
C_ C_ 0.392562 0.169975 0.667731 -0.05681
C_ C_ 0.406358 0.137994 0.643457 -0.08735
C_ C_ 0.469229 0.331574 0.652417 0.68181
C_ C_ 0.420521 0.370964 0.732346 0.1947
C_ C_ 0.43896 0.379789 0.760444 -0.08735
C_ C_ 0.408261 0.361269 0.782761 -0.08735
C_ C_ 0.373198 0.323195 0.777301 -0.05681
C_ C_ 0.362649 0.310325 0.748222 0.18498
C_ C_ 0.330942 0.267955 0.743944 -0.08735
C_ C_ 0.31993 0.234179 0.766212 -0.08735
C_ C_ 0.332481 0.245457 0.794242 -0.08735
C_ C_ 0.356901 0.292105 0.800575 0.18498
C_ C_ 0.324134 0.312228 0.84766 0.44287
C_ C_ 0.411471 0.291434 0.843883 0.44287
C_ C_ 0.41762 0.298683 0.873681 -0.05681
C_ C_ 0.46636 0.299859 0.886229 -0.08735
C_ C_ 0.471851 0.301831 0.915702 -0.08735
C_ C_ 0.429259 0.309619 0.934442 -0.05681
C_ C_ 0.380803 0.31026 0.921726 -0.05681
C_ C_ 0.374867 0.303063 0.890823 -0.05681
C_ C_ 0.327335 0.307786 0.878631 -0.05681
C_ C_ 0.284852 0.320313 0.895443 -0.08735
C_ C_ 0.29283 0.323201 0.924414 -0.08735
C_ C_ 0.338766 0.318443 0.939453 -0.05681
C_ C_ 0.344557 0.32976 0.968148 0.44287
C_ C_ 0.431634 0.311361 0.964482 0.44287
C_ C_ 0.381139 0.353051 0.512 0.18498
C_ C_ 0.400119 0.402164 0.518499 -0.08735
C_ C_ 0.412933 0.414042 0.547011 -0.08735
C_ C_ 0.401791 0.378727 0.568944 -0.08735
C_ C_ 0.382508 0.3318 0.562881 0.18498
C_ C_ 0.370609 0.318231 0.534064 -0.05681
C_ C_ 0.343462 0.272147 0.52943 -0.08735
C_ C_ 0.329962 0.241526 0.552414 -0.08735
C_ C_ 0.340567 0.257692 0.580237 0.1947
N_ N_ 0.131537 0.158349 0.98038 -0.29468
N_ N_ 0.151735 0.19098 0.582778 -0.17154
N_ N_ 0.117249 0.175017 0.732515 -0.17154
N_ N_ 0.141176 0.192188 0.838434 -0.29468
N_ N_ 0.381085 0.339938 0.727091 -0.29468
N_ N_ 0.365507 0.304017 0.831202 -0.17154
N_ N_ 0.391644 0.323804 0.980801 -0.17154
N_ N_ 0.366736 0.30031 0.585368 -0.29468
O_ O_ 0.216848 0.180042 0.935407 -0.58347
O_ O_ 0.203609 0.181522 0.889853 -0.58347
O_ O_ 0.136182 0.251196 0.938723 -0.58347
O_ O_ 0.135277 0.250441 0.89262 -0.58347
O_ O_ 0.144469 0.104685 0.926505 -0.58347
O_ O_ 0.137716 0.107307 0.880233 -0.58347
O_ O_ 0.0654483 0.172585 0.931503 -0.58347
O_ O_ 0.0584791 0.173827 0.885748 -0.58347
O_ O_ 0.0716795 0.222428 0.580376 -0.46727
O_ O_ 0.236546 0.172157 0.58728 -0.46727
O_ O_ 0.0378893 0.211643 0.724613 -0.46727
O_ O_ 0.199753 0.147951 0.738607 -0.46727
O_ O_ 0.294415 0.327706 0.684043 -0.58347
O_ O_ 0.305617 0.30161 0.639389 -0.58347
O_ O_ 0.372474 0.251324 0.682772 -0.58347
O_ O_ 0.391961 0.244281 0.63757 -0.58347
O_ O_ 0.365351 0.401912 0.675949 -0.58347
O_ O_ 0.355511 0.390569 0.631144 -0.58347
O_ O_ 0.440304 0.32606 0.674328 -0.58347
O_ O_ 0.449243 0.336538 0.627741 -0.58347
O_ O_ 0.450986 0.277818 0.828888 -0.46727
O_ O_ 0.278793 0.318788 0.83534 -0.46727
O_ O_ 0.475421 0.306238 0.977061 -0.46727
O_ O_ 0.306045 0.342811 0.982689 -0.46727
Zn Zn 0.120787 0.682189 0.380941 0.90689
Zn Zn 0.126232 0.679429 0.428976 0.90689
Zn Zn 0.377081 0.815854 0.13284 0.90689
Zn Zn 0.363973 0.822236 0.180129 0.90689
H_ H_ 0.294818 0.693791 0.444096 0.11455
H_ H_ 0.365044 0.683277 0.34517 0.11455
H_ H_ 0.270816 0.671933 0.353819 0.11455
H_ H_ 0.382127 0.708137 0.462339 0.11455
H_ H_ 0.471297 0.710084 0.454868 0.11455
H_ H_ 0.452991 0.678669 0.365623 0.11455
H_ H_ 0.106682 0.515405 0.4409 0.11455
H_ H_ 0.133639 0.934855 0.346838 0.11455
H_ H_ 0.138302 0.522337 0.350169 0.11455
H_ H_ 0.137142 0.92498 0.466229 0.11455
H_ H_ 0.139875 0.834469 0.459651 0.11455
H_ H_ 0.124114 0.85098 0.36892 0.11455
H_ H_ 0.071785 0.612047 0.466481 0.11455
H_ H_ 0.101733 0.559698 0.0148229 0.11455
H_ H_ 0.11236 0.620409 0.0555718 0.11455
H_ H_ 0.1857 0.753983 0.469219 0.11455
H_ H_ 0.199341 0.809141 0.00881259 0.11455
H_ H_ 0.189272 0.786568 0.0616098 0.11455
H_ H_ 0.004350000000000076 0.699013 0.119587 0.11455
H_ H_ -0.00930299999999995 0.699452 0.171493 0.11455
H_ H_ 0.254986 0.675015 0.141125 0.11455
H_ H_ 0.242451 0.686051 0.188754 0.11455
H_ H_ 0.0348841 0.606711 0.247007 0.11455
H_ H_ 0.0136101 0.5866 0.295576 0.11455
H_ H_ 0.0580879 0.619656 0.335966 0.11455
H_ H_ 0.143193 0.757928 0.258283 0.11455
H_ H_ 0.180759 0.798203 0.301442 0.11455
H_ H_ 0.171235 0.757579 0.34975 0.11455
H_ H_ 0.195354 0.820008 0.198645 0.11455
H_ H_ 0.128729 0.823524 0.098473 0.11455
H_ H_ 0.220624 0.8268 0.106133 0.11455
H_ H_ 0.11311 0.814943 0.216334 0.11455
H_ H_ 0.0152586 0.808892 0.205302 0.11455
H_ H_ 0.0402883 0.82465 0.117781 0.11455
H_ H_ 0.412853 0.984367 0.187744 0.11455
H_ H_ 0.362588 0.570629 0.0989099 0.11455
H_ H_ 0.338856 0.977948 0.106457 0.11455
H_ H_ 0.363407 0.571879 0.217822 0.11455
H_ H_ 0.370696 0.66908 0.212215 0.11455
H_ H_ 0.36596 0.648867 0.121568 0.11455
H_ H_ 0.424527 0.893151 0.216435 0.11455
H_ H_ 0.42369 0.934024 0.263037 0.11455
H_ H_ 0.396754 0.880228 0.305451 0.11455
H_ H_ 0.297269 0.765159 0.220543 0.11455
H_ H_ 0.26594 0.712413 0.262463 0.11455
H_ H_ 0.300159 0.725758 0.313159 0.11455
H_ H_ 0.483966 0.804312 0.374746 0.11455
H_ H_ 0.493667 0.821716 0.425029 0.11455
H_ H_ 0.236241 0.855505 0.384912 0.11455
H_ H_ 0.240918 0.861945 0.437122 0.11455
H_ H_ 0.428506 0.932209 0.502569 0.11455
H_ H_ 0.439558 0.942566 0.0448918 0.11455
H_ H_ 0.434932 0.88145 0.085234 0.11455
H_ H_ 0.351035 0.74598 0.00951238 0.11455
H_ H_ 0.30155 0.710519 0.0545017 0.11455
H_ H_ 0.325098 0.739303 0.0998483 0.11455
C_ C_ 0.222799 0.683152 0.40343 0.68181
C_ C_ 0.278454 0.686963 0.399605 -0.05681
C_ C_ 0.311927 0.691164 0.422788 -0.08735
C_ C_ 0.36505 0.696494 0.417466 -0.05681
C_ C_ 0.383746 0.687066 0.390132 -0.05681
C_ C_ 0.351477 0.679623 0.367254 -0.08735
C_ C_ 0.297966 0.675895 0.372452 -0.08735
C_ C_ 0.39734 0.700839 0.441102 -0.08735
C_ C_ 0.448869 0.698647 0.437194 -0.08735
C_ C_ 0.469743 0.694955 0.409295 -0.05681
C_ C_ 0.43761 0.687511 0.386392 -0.08735
C_ C_ 0.121614 0.779501 0.41189 0.68181
C_ C_ 0.122932 0.582685 0.397187 0.68181
C_ C_ 0.128219 0.526388 0.39683 -0.05681
C_ C_ 0.137289 0.994977 0.42298 -0.08735
C_ C_ 0.13991 0.942156 0.419412 -0.05681
C_ C_ 0.136811 0.919826 0.392366 -0.05681
C_ C_ 0.137716 0.950288 0.368351 -0.08735
C_ C_ 0.142718 1.00348208 0.371741 -0.08735
C_ C_ 0.138421 0.910329 0.444184 -0.08735
C_ C_ 0.137448 0.858637 0.440877 -0.08735
C_ C_ 0.129404 0.836387 0.413536 -0.05681
C_ C_ 0.131585 0.866681 0.389254 -0.08735
C_ C_ 0.0252328 0.68151 0.404714 0.68181
C_ C_ 0.0914381 0.632411 0.483385 0.1947
C_ C_ 0.115167 0.598513 0.0119731 -0.08735
C_ C_ 0.12093 0.631761 0.0337149 -0.08735
C_ C_ 0.14339 0.680519 0.0285225 -0.05681
C_ C_ 0.151191 0.695035 0.999522 0.18498
C_ C_ 0.171136 0.745905 0.491297 -0.08735
C_ C_ 0.181989 0.776043 0.015952 -0.08735
C_ C_ 0.176314 0.761584 0.0439394 -0.08735
C_ C_ 0.151015 0.716169 0.05097 0.18498
C_ C_ 0.182724 0.697838 0.0983315 0.44287
C_ C_ 0.0930715 0.705967 0.0914052 0.44287
C_ C_ 0.0859885 0.698996 0.121781 -0.05681
C_ C_ 0.0366377 0.696722 0.132783 -0.08735
C_ C_ 0.0266799 0.691462 0.16189 -0.08735
C_ C_ 0.0683354 0.688087 0.180882 -0.05681
C_ C_ 0.118241 0.686798 0.168507 -0.05681
C_ C_ 0.126987 0.694048 0.139719 -0.05681
C_ C_ 0.17412 0.687586 0.127484 -0.05681
C_ C_ 0.21632 0.679999 0.146654 -0.08735
C_ C_ 0.208744 0.679099 0.175326 -0.08735
C_ C_ 0.15918 0.684347 0.186632 -0.05681
C_ C_ 0.148796 0.678031 0.217229 0.44287
C_ C_ 0.0614345 0.690861 0.209459 0.44287
C_ C_ 0.087074 0.669346 0.257951 0.18498
C_ C_ 0.0557881 0.626881 0.264496 -0.08735
C_ C_ 0.0391205 0.615625 0.29224 -0.08735
C_ C_ 0.061853 0.638625 0.315934 -0.08735
C_ C_ 0.0985709 0.67817 0.311 0.18498
C_ C_ 0.108103 0.696798 0.28252 -0.05681
C_ C_ 0.137447 0.740859 0.279255 -0.08735
C_ C_ 0.158807 0.764246 0.30336 -0.08735
C_ C_ 0.153393 0.740587 0.329924 0.1947
C_ C_ 0.270807 0.824933 0.157694 0.68181
C_ C_ 0.214901 0.823677 0.154074 -0.05681
C_ C_ 0.181794 0.820805 0.177131 -0.08735
C_ C_ 0.127708 0.818567 0.171706 -0.05681
C_ C_ 0.110117 0.822328 0.143807 -0.05681
C_ C_ 0.142011 0.824302 0.11998 -0.08735
C_ C_ 0.19499 0.825546 0.12604 -0.08735
C_ C_ 0.0958283 0.814104 0.195367 -0.08735
C_ C_ 0.0424479 0.817451 0.190067 -0.08735
C_ C_ 0.0237494 0.821549 0.161497 -0.05681
C_ C_ 0.0559551 0.823374 0.138894 -0.08735
C_ C_ 0.372131 0.720008 0.164335 0.68181
C_ C_ 0.369039 0.917774 0.150019 0.68181
C_ C_ 0.370413 0.974024 0.14844 -0.05681
C_ C_ 0.378903 0.504922 0.174855 -0.08735
C_ C_ 0.371133 0.557167 0.173037 -0.05681
C_ C_ 0.367136 0.581411 0.146156 -0.05681
C_ C_ 0.368922 0.553195 0.120807 -0.08735
C_ C_ 0.356207 -0.00029000000000001247 0.12319 -0.08735
C_ C_ 0.371187 0.588832 0.197086 -0.08735
C_ C_ 0.375857 0.642613 0.194175 -0.08735
C_ C_ 0.373341 0.665081 0.167088 -0.05681
C_ C_ 0.366903 0.631924 0.143358 -0.08735
C_ C_ 0.46839 0.818582 0.154868 0.68181
C_ C_ 0.401195 0.878411 0.233376 0.1947
C_ C_ 0.40567 0.898551 0.261311 -0.08735
C_ C_ 0.386447 0.869315 0.284015 -0.08735
C_ C_ 0.358961 0.824699 0.279339 -0.05681
C_ C_ 0.348217 0.811166 0.249906 0.18498
C_ C_ 0.312002 0.77197 0.243757 -0.08735
C_ C_ 0.291486 0.74348 0.266971 -0.08735
C_ C_ 0.310144 0.752796 0.295271 -0.08735
C_ C_ 0.337123 0.797102 0.301842 0.18498
C_ C_ 0.309498 0.827723 0.347669 0.44287
C_ C_ 0.395617 0.802842 0.345715 0.44287
C_ C_ 0.402286 0.814779 0.375316 -0.05681
C_ C_ 0.450879 0.816241 0.387245 -0.08735
C_ C_ 0.456703 0.82506 0.415787 -0.08735
C_ C_ 0.414315 0.833144 0.433418 -0.05681
C_ C_ 0.366107 0.83858 0.421051 -0.05681
C_ C_ 0.360013 0.830498 0.39105 -0.05681
C_ C_ 0.312285 0.832569 0.377959 -0.05681
C_ C_ 0.27158 0.849029 0.394994 -0.08735
C_ C_ 0.275059 0.856098 0.42497 -0.08735
C_ C_ 0.32537 0.851642 0.437673 -0.05681
C_ C_ 0.330435 0.859037 0.467064 0.44287
C_ C_ 0.418639 0.836383 0.463286 0.44287
C_ C_ 0.389039 0.840813 0.00936827 0.18498
C_ C_ 0.41336 0.887727 0.0136666 -0.08735
C_ C_ 0.429599 0.903149 0.041518 -0.08735
C_ C_ 0.416147 0.873924 0.0653364 -0.08735
C_ C_ 0.388019 0.828061 0.0614182 0.18498
C_ C_ 0.378622 0.80975 0.0334757 -0.05681
C_ C_ 0.348861 0.764556 0.03009 -0.08735
C_ C_ 0.33142 0.739492 0.0552628 -0.08735
C_ C_ 0.340125 0.759896 0.0825259 0.1947
N_ N_ 0.125813 0.670469 0.477466 -0.29468
N_ N_ 0.142496 0.704667 0.0803416 -0.17154
N_ N_ 0.0989364 0.678953 0.22812 -0.17154
N_ N_ 0.124234 0.69899 0.333417 -0.29468
N_ N_ 0.368819 0.839302 0.227838 -0.29468
N_ N_ 0.348756 0.808631 0.332734 -0.17154
N_ N_ 0.378623 0.853272 0.479697 -0.17154
N_ N_ 0.370389 0.800925 0.0851655 -0.29468
O_ O_ 0.203874 0.680815 0.428803 -0.58347
O_ O_ 0.193732 0.686396 0.382094 -0.58347
O_ O_ 0.12065 0.753125 0.434618 -0.58347
O_ O_ 0.112012 0.757871 0.388233 -0.58347
O_ O_ 0.122769 0.606696 0.42135 -0.58347
O_ O_ 0.12645 0.60766 0.374752 -0.58347
O_ O_ 0.0525767 0.681216 0.426616 -0.58347
O_ O_ 0.0466464 0.678877 0.380753 -0.58347
O_ O_ 0.0548803 0.718103 0.0755772 -0.46727
O_ O_ 0.229927 0.694869 0.0885896 -0.46727
O_ O_ 0.0161928 0.702948 0.21857 -0.46727
O_ O_ 0.187597 0.674543 0.234983 -0.46727
O_ O_ 0.289922 0.823914 0.181852 -0.58347
O_ O_ 0.299806 0.819354 0.136753 -0.58347
O_ O_ 0.367304 0.747355 0.18655 -0.58347
O_ O_ 0.381399 0.7401 0.140392 -0.58347
O_ O_ 0.363831 0.896924 0.174133 -0.58347
O_ O_ 0.370911 0.890003 0.128095 -0.58347
O_ O_ 0.441103 0.822668 0.176474 -0.58347
O_ O_ 0.449899 0.814663 0.130389 -0.58347
O_ O_ 0.433285 0.784608 0.329708 -0.46727
O_ O_ 0.267302 0.831187 0.33561 -0.46727
O_ O_ 0.46226 0.824721 0.475007 -0.46727
O_ O_ 0.292354 0.880598 0.481734 -0.46727
Zn Zn 0.137491 0.682853 0.880493 0.90689
Zn Zn 0.143007 0.675191 0.928411 0.90689
Zn Zn 0.376318 0.820174 0.631138 0.90689
Zn Zn 0.363184 0.830285 0.678606 0.90689
H_ H_ 0.315038 0.687258 0.942798 0.11455
H_ H_ 0.384008 0.665717 0.845519 0.11455
H_ H_ 0.291393 0.665201 0.851314 0.11455
H_ H_ 0.402312 0.684364 0.964469 0.11455
H_ H_ 0.493224 0.661442 0.9569 0.11455
H_ H_ 0.470699 0.672853 0.866636 0.11455
H_ H_ 0.14984 0.513465 0.942787 0.11455
H_ H_ 0.159468 0.932351 0.848936 0.11455
H_ H_ 0.1385 0.519151 0.850315 0.11455
H_ H_ 0.127719 0.924945 0.967824 0.11455
H_ H_ 0.123323 0.831202 0.962208 0.11455
H_ H_ 0.133083 0.851061 0.869977 0.11455
H_ H_ 0.109279 0.590424 0.965062 0.11455
H_ H_ 0.0699022 0.57906 0.513719 0.11455
H_ H_ 0.102359 0.631688 0.555089 0.11455
H_ H_ 0.190162 0.748865 0.973147 0.11455
H_ H_ 0.197785 0.814714 0.507558 0.11455
H_ H_ 0.186414 0.795915 0.556778 0.11455
H_ H_ 1.0106802 0.722562 0.624668 0.11455
H_ H_ 1.0033957 0.710567 0.675768 0.11455
H_ H_ 0.256277 0.672793 0.631218 0.11455
H_ H_ 0.253304 0.661025 0.679609 0.11455
H_ H_ 0.0958282 0.58553 0.747591 0.11455
H_ H_ 0.0703515 0.563048 0.799116 0.11455
H_ H_ 0.0841011 0.626591 0.836161 0.11455
H_ H_ 0.149939 0.765471 0.760343 0.11455
H_ H_ 0.205721 0.797181 0.798343 0.11455
H_ H_ 0.196051 0.761587 0.845508 0.11455
H_ H_ 0.196801 0.834176 0.697223 0.11455
H_ H_ 0.129923 0.847193 0.597918 0.11455
H_ H_ 0.222694 0.817162 0.606928 0.11455
H_ H_ 0.111915 0.828077 0.715089 0.11455
H_ H_ 0.018597 0.834988 0.707848 0.11455
H_ H_ 0.045318 0.827615 0.61521 0.11455
H_ H_ 0.354087 0.994028 0.690676 0.11455
H_ H_ 0.33734 0.567237 0.598831 0.11455
H_ H_ 0.39792 0.982179 0.603684 0.11455
H_ H_ 0.430191 0.576434 0.701794 0.11455
H_ H_ 0.410821 0.668093 0.704797 0.11455
H_ H_ 0.348179 0.65305 0.618062 0.11455
H_ H_ 0.420205 0.898418 0.715653 0.11455
H_ H_ 0.447628 0.920158 0.766091 0.11455
H_ H_ 0.40271 0.875486 0.806513 0.11455
H_ H_ 0.305488 0.758944 0.722618 0.11455
H_ H_ 0.278777 0.704167 0.761558 0.11455
H_ H_ 0.309212 0.715623 0.810251 0.11455
H_ H_ 0.487806 0.777726 0.87268 0.11455
H_ H_ 0.500584 0.790593 0.924493 0.11455
H_ H_ 0.240487 0.829907 0.886364 0.11455
H_ H_ 0.248003 0.81135 0.936245 0.11455
H_ H_ 0.42061 0.911569 0.995006 0.11455
H_ H_ 0.456863 0.946428 0.55164 0.11455
H_ H_ 0.432921 0.875666 0.587477 0.11455
H_ H_ 0.329333 0.778033 0.503223 0.11455
H_ H_ 0.293602 0.729552 0.543228 0.11455
H_ H_ 0.322751 0.743772 0.593147 0.11455
C_ C_ 0.240868 0.676117 0.904068 0.68181
C_ C_ 0.297487 0.673392 0.89911 -0.05681
C_ C_ 0.330436 0.672837 0.922445 -0.08735
C_ C_ 0.383975 0.673983 0.918242 -0.05681
C_ C_ 0.402273 0.666651 0.89041 -0.05681
C_ C_ 0.368582 0.662369 0.866279 -0.08735
C_ C_ 0.316758 0.66998 0.870356 -0.08735
C_ C_ 0.416736 0.672436 0.942734 -0.08735
C_ C_ 0.468563 0.669368 0.939142 -0.08735
C_ C_ 0.487931 0.6688 0.911197 -0.05681
C_ C_ 0.455884 0.666833 0.88806 -0.08735
C_ C_ 0.133415 0.776562 0.911526 0.68181
C_ C_ 0.141654 0.580992 0.899151 0.68181
C_ C_ 0.140699 0.523866 0.896044 -0.05681
C_ C_ 0.147703 0.995305 0.92546 -0.08735
C_ C_ 0.141759 0.940242 0.922864 -0.05681
C_ C_ 0.14228 0.916377 0.894754 -0.05681
C_ C_ 0.151231 0.948862 0.870764 -0.08735
C_ C_ 0.155649 0.00245487 0.873911 -0.08735
C_ C_ 0.133695 0.911217 0.946825 -0.08735
C_ C_ 0.131861 0.856382 0.942948 -0.08735
C_ C_ 0.133351 0.833688 0.915361 -0.05681
C_ C_ 0.133766 0.865056 0.89129 -0.08735
C_ C_ 0.0421068 0.67337 0.907078 0.68181
C_ C_ 0.123053 0.61444 0.983964 0.1947
C_ C_ 0.0870773 0.61529 0.510941 -0.08735
C_ C_ 0.109391 0.643753 0.533389 -0.08735
C_ C_ 0.131991 0.691489 0.528278 -0.05681
C_ C_ 0.143082 0.701167 0.498856 0.18498
C_ C_ 0.171929 0.741795 0.993366 -0.08735
C_ C_ 0.181874 0.779549 0.512775 -0.08735
C_ C_ 0.174042 0.770475 0.541335 -0.08735
C_ C_ 0.145919 0.72668 0.549247 0.18498
C_ C_ 0.180906 0.698321 0.59355 0.44287
C_ C_ 0.0941211 0.718354 0.591423 0.44287
C_ C_ 0.089203 0.709735 0.622233 -0.05681
C_ C_ 0.042603 0.711628 0.6368 -0.08735
C_ C_ 0.0398801 0.706017 0.666372 -0.08735
C_ C_ 0.0835039 0.70071 0.682439 -0.05681
C_ C_ 0.13047 0.695336 0.667808 -0.05681
C_ C_ 0.132044 0.697178 0.637999 -0.05681
C_ C_ 0.179361 0.692441 0.623629 -0.05681
C_ C_ 0.222557 0.682148 0.640446 -0.08735
C_ C_ 0.220311 0.674931 0.668984 -0.08735
C_ C_ 0.173096 0.682819 0.68459 -0.05681
C_ C_ 0.169096 0.675307 0.71426 0.44287
C_ C_ 0.0822029 0.694009 0.713244 0.44287
C_ C_ 0.120515 0.660887 0.757713 0.18498
C_ C_ 0.0992049 0.613639 0.765078 -0.08735
C_ C_ 0.0871533 0.598948 0.793606 -0.08735
C_ C_ 0.0979272 0.633338 0.814691 -0.08735
C_ C_ 0.125157 0.677169 0.810132 0.18498
C_ C_ 0.132763 0.694661 0.780984 -0.05681
C_ C_ 0.159159 0.740714 0.776969 -0.08735
C_ C_ 0.184913 0.762048 0.800835 -0.08735
C_ C_ 0.177564 0.74202 0.827957 0.1947
C_ C_ 0.27171 0.828795 0.657549 0.68181
C_ C_ 0.215735 0.832531 0.651805 -0.05681
C_ C_ 0.182356 0.833026 0.673839 -0.08735
C_ C_ 0.129366 0.828296 0.669661 -0.05681
C_ C_ 0.111326 0.83423 0.641806 -0.05681
C_ C_ 0.144571 0.837533 0.618337 -0.08735
C_ C_ 0.196563 0.828536 0.623167 -0.08735
C_ C_ 0.0974183 0.827268 0.694136 -0.08735
C_ C_ 0.0463171 0.834633 0.689153 -0.08735
C_ C_ 0.0254951 0.83856 0.661054 -0.05681
C_ C_ 0.0596508 0.832168 0.63755 -0.08735
C_ C_ 0.376945 0.723838 0.659011 0.68181
C_ C_ 0.36805 0.927094 0.649257 0.68181
C_ C_ 0.371409 0.983522 0.646472 -0.05681
C_ C_ 0.381494 0.506426 0.669348 -0.08735
C_ C_ 0.385323 0.560733 0.665568 -0.05681
C_ C_ 0.368893 0.583919 0.639522 -0.05681
C_ C_ 0.345997 0.550517 0.618686 -0.08735
C_ C_ 0.392137 1.00523567 0.621611 -0.08735
C_ C_ 0.405031 0.592757 0.686612 -0.08735
C_ C_ 0.400484 0.644625 0.686266 -0.08735
C_ C_ 0.378348 0.667522 0.661192 -0.05681
C_ C_ 0.364658 0.636756 0.637685 -0.08735
C_ C_ 0.468321 0.82685 0.656823 0.68181
C_ C_ 0.403184 0.876512 0.732965 0.1947
C_ C_ 0.418275 0.889237 0.761771 -0.08735
C_ C_ 0.394254 0.865386 0.784838 -0.08735
C_ C_ 0.362452 0.822206 0.778922 -0.05681
C_ C_ 0.351987 0.809721 0.750225 0.18498
C_ C_ 0.31659 0.770435 0.74393 -0.08735
C_ C_ 0.302688 0.7368 0.76616 -0.08735
C_ C_ 0.321408 0.741907 0.793698 -0.08735
C_ C_ 0.349647 0.786379 0.801363 0.18498
C_ C_ 0.318142 0.812975 0.847374 0.44287
C_ C_ 0.403477 0.785705 0.843865 0.44287
C_ C_ 0.411173 0.796915 0.873444 -0.05681
C_ C_ 0.455252 0.786844 0.886689 -0.08735
C_ C_ 0.463022 0.795935 0.916243 -0.08735
C_ C_ 0.419966 0.808002 0.933075 -0.05681
C_ C_ 0.372554 0.810208 0.920196 -0.05681
C_ C_ 0.368834 0.810327 0.890275 -0.05681
C_ C_ 0.321959 0.819225 0.877249 -0.05681
C_ C_ 0.277872 0.82028 0.895041 -0.08735
C_ C_ 0.281978 0.820369 0.924499 -0.08735
C_ C_ 0.329123 0.816892 0.938087 -0.05681
C_ C_ 0.335643 0.823957 0.966879 0.44287
C_ C_ 0.425103 0.813409 0.963406 0.44287
C_ C_ 0.384432 0.865325 0.510038 0.18498
C_ C_ 0.415626 0.907209 0.518493 -0.08735
C_ C_ 0.429767 0.915168 0.546623 -0.08735
C_ C_ 0.417617 0.875826 0.566456 -0.08735
C_ C_ 0.38115 0.839879 0.559908 0.18498
C_ C_ 0.365958 0.831786 0.530876 -0.05681
C_ C_ 0.335283 0.790447 0.524473 -0.08735
C_ C_ 0.322432 0.757954 0.547129 -0.08735
C_ C_ 0.336203 0.766947 0.575708 0.1947
N_ N_ 0.145511 0.660539 0.977768 -0.29468
N_ N_ 0.139896 0.713684 0.578759 -0.17154
N_ N_ 0.123512 0.678634 0.728552 -0.17154
N_ N_ 0.143814 0.704444 0.833025 -0.29468
N_ N_ 0.371597 0.837843 0.727975 -0.29468
N_ N_ 0.357806 0.796992 0.831742 -0.17154
N_ N_ 0.382513 0.822966 0.979055 -0.17154
N_ N_ 0.365369 0.808811 0.581591 -0.29468
O_ O_ 0.22129 0.685286 0.928729 -0.58347
O_ O_ 0.212506 0.676903 0.882444 -0.58347
O_ O_ 0.129206 0.748967 0.934142 -0.58347
O_ O_ 0.142885 0.756527 0.887236 -0.58347
O_ O_ 0.152043 0.599862 0.923157 -0.58347
O_ O_ 0.134686 0.608761 0.877409 -0.58347
O_ O_ 0.0713896 0.661777 0.928114 -0.58347
O_ O_ 0.0619743 0.689985 0.883963 -0.58347
O_ O_ 0.0538004 0.731573 0.576104 -0.46727
O_ O_ 0.225456 0.691648 0.580878 -0.46727
O_ O_ 0.038831 0.706279 0.726682 -0.46727
O_ O_ 0.209472 0.65814 0.72779 -0.46727
O_ O_ 0.289433 0.829338 0.682248 -0.58347
O_ O_ 0.301711 0.821398 0.636714 -0.58347
O_ O_ 0.365263 0.751364 0.680235 -0.58347
O_ O_ 0.374132 0.743538 0.634393 -0.58347
O_ O_ 0.360001 0.906282 0.674332 -0.58347
O_ O_ 0.374754 0.897603 0.626879 -0.58347
O_ O_ 0.438518 0.833089 0.677788 -0.58347
O_ O_ 0.450826 0.820949 0.631817 -0.58347
O_ O_ 0.442677 0.777429 0.827245 -0.46727
O_ O_ 0.273219 0.815082 0.835005 -0.46727
O_ O_ 0.469251 0.810857 0.97631 -0.46727
O_ O_ 0.294256 0.827788 0.983481 -0.46727
Zn Zn 0.614352 0.194103 0.3791 0.90689
Zn Zn 0.627133 0.189445 0.427011 0.90689
Zn Zn 0.871329 0.308567 0.131779 0.90689
Zn Zn 0.863845 0.315896 0.183032 0.90689
H_ H_ 0.795274 0.176903 0.443913 0.11455
H_ H_ 0.867134 0.149138 0.347016 0.11455
H_ H_ 0.770653 0.171009 0.352418 0.11455
H_ H_ 0.881093 0.18865 0.462111 0.11455
H_ H_ 0.973971 0.18115 0.457287 0.11455
H_ H_ 0.950462 0.16256 0.366438 0.11455
H_ H_ 0.63592 0.0239165 0.438822 0.11455
H_ H_ 0.668484 0.4476 0.353174 0.11455
H_ H_ 0.606429 0.0350804 0.34778 0.11455
H_ H_ 0.600626 0.438657 0.464106 0.11455
H_ H_ 0.604784 0.343015 0.460616 0.11455
H_ H_ 0.635068 0.359948 0.369562 0.11455
H_ H_ 0.569191 0.118532 0.462902 0.11455
H_ H_ 0.572055 0.0707658 0.0147978 0.11455
H_ H_ 0.620664 0.111853 0.0539803 0.11455
H_ H_ 0.690869 0.251183 0.471045 0.11455
H_ H_ 0.720141 0.29408 0.0173513 0.11455
H_ H_ 0.699286 0.267513 0.0677306 0.11455
H_ H_ 0.507642 0.1799 0.114048 0.11455
H_ H_ 0.493127 0.181803 0.169697 0.11455
H_ H_ 0.755237 0.132794 0.138916 0.11455
H_ H_ 0.732165 0.114998 0.190226 0.11455
H_ H_ 0.52512 0.0991731 0.249531 0.11455
H_ H_ 0.490573 0.0933247 0.296241 0.11455
H_ H_ 0.541798 0.13345 0.3371 0.11455
H_ H_ 0.652423 0.228702 0.253569 0.11455
H_ H_ 0.705821 0.263793 0.289649 0.11455
H_ H_ 0.685808 0.240638 0.342425 0.11455
H_ H_ 0.695057 0.294247 0.197711 0.11455
H_ H_ 0.619879 0.341504 0.103575 0.11455
H_ H_ 0.71308 0.349505 0.111024 0.11455
H_ H_ 0.606723 0.281863 0.214321 0.11455
H_ H_ 0.513793 0.294006 0.208478 0.11455
H_ H_ 0.536857 0.324161 0.120129 0.11455
H_ H_ 0.856075 0.480101 0.195425 0.11455
H_ H_ 0.814247 0.057878 0.105623 0.11455
H_ H_ 0.858379 0.466626 0.104036 0.11455
H_ H_ 0.918999 0.067663 0.210244 0.11455
H_ H_ 0.917902 0.157872 0.202623 0.11455
H_ H_ 0.847581 0.143795 0.120568 0.11455
H_ H_ 0.919058 0.382109 0.219415 0.11455
H_ H_ 0.931174 0.412086 0.268551 0.11455
H_ H_ 0.897734 0.362883 0.31031 0.11455
H_ H_ 0.811889 0.244366 0.223276 0.11455
H_ H_ 0.771061 0.188905 0.260116 0.11455
H_ H_ 0.788956 0.207143 0.31174 0.11455
H_ H_ 0.985092 0.265937 0.369438 0.11455
H_ H_ -0.002414999999999945 0.276896 0.422551 0.11455
H_ H_ 0.739859 0.343337 0.388075 0.11455
H_ H_ 0.75961 0.367984 0.436126 0.11455
H_ H_ 0.955179 0.391124 0.498135 0.11455
H_ H_ 0.958737 0.428983 0.0478203 0.11455
H_ H_ 0.927366 0.37456 0.0889956 0.11455
H_ H_ 0.841163 0.254733 0.00424324 0.11455
H_ H_ 0.810211 0.20437 0.0455644 0.11455
H_ H_ 0.818686 0.236217 0.0964019 0.11455
C_ C_ 0.720921 0.179747 0.402288 0.68181
C_ C_ 0.776882 0.173602 0.398848 -0.05681
C_ C_ 0.809779 0.170786 0.422098 -0.08735
C_ C_ 0.86295 0.164706 0.419501 -0.05681
C_ C_ 0.884793 0.163536 0.391035 -0.05681
C_ C_ 0.851057 0.162656 0.367532 -0.08735
C_ C_ 0.797562 0.172489 0.371159 -0.08735
C_ C_ 0.896003 0.172363 0.443264 -0.08735
C_ C_ 0.949433 0.168927 0.439288 -0.08735
C_ C_ 0.970731 0.162708 0.411739 -0.05681
C_ C_ 0.93685 0.160205 0.387888 -0.08735
C_ C_ 0.625763 0.290041 0.409786 0.68181
C_ C_ 0.622961 0.0897484 0.396228 0.68181
C_ C_ 0.619413 0.0336946 0.392713 -0.05681
C_ C_ 0.62038 0.504853 0.423531 -0.08735
C_ C_ 0.619122 0.451538 0.420412 -0.05681
C_ C_ 0.629972 0.430243 0.393225 -0.05681
C_ C_ 0.648743 0.461194 0.371611 -0.08735
C_ C_ 0.65199 0.513593 0.374891 -0.08735
C_ C_ 0.612175 0.421103 0.444378 -0.08735
C_ C_ 0.610365 0.367974 0.441726 -0.08735
C_ C_ 0.6204 0.34612 0.413818 -0.05681
C_ C_ 0.630822 0.375701 0.389927 -0.08735
C_ C_ 0.521629 0.197753 0.404237 0.68181
C_ C_ 0.59146 0.135193 0.479952 0.1947
C_ C_ 0.601513 0.100007 0.0101375 -0.08735
C_ C_ 0.620042 0.128597 0.0332382 -0.08735
C_ C_ 0.64292 0.173838 0.0299604 -0.05681
C_ C_ 0.652584 0.191007 1.0006512 0.18498
C_ C_ 0.676308 0.24523 0.492256 -0.08735
C_ C_ 0.696935 0.261501 0.0210727 -0.08735
C_ C_ 0.686279 0.247457 0.0490068 -0.08735
C_ C_ 0.660573 0.200916 0.0538567 0.18498
C_ C_ 0.688028 0.172365 0.100855 0.44287
C_ C_ 0.601262 0.197144 0.0926517 0.44287
C_ C_ 0.58893 0.182885 0.120827 -0.05681
C_ C_ 0.539343 0.17877 0.129703 -0.08735
C_ C_ 0.531174 0.176729 0.160238 -0.08735
C_ C_ 0.570727 0.170673 0.180314 -0.05681
C_ C_ 0.618028 0.160631 0.169599 -0.05681
C_ C_ 0.628243 0.16725 0.140574 -0.05681
C_ C_ 0.678306 0.158284 0.129511 -0.05681
C_ C_ 0.716222 0.137982 0.147786 -0.08735
C_ C_ 0.704258 0.128774 0.176193 -0.08735
C_ C_ 0.656086 0.143413 0.187792 -0.05681
C_ C_ 0.644137 0.136486 0.217896 0.44287
C_ C_ 0.562518 0.172459 0.209682 0.44287
C_ C_ 0.584403 0.151413 0.257603 0.18498
C_ C_ 0.545213 0.119258 0.265304 -0.08735
C_ C_ 0.528269 0.112549 0.293721 -0.08735
C_ C_ 0.556004 0.138853 0.315372 -0.08735
C_ C_ 0.597932 0.169617 0.308679 0.18498
C_ C_ 0.61203 0.178355 0.279877 -0.05681
C_ C_ 0.649445 0.213137 0.275199 -0.08735
C_ C_ 0.676859 0.235966 0.296653 -0.08735
C_ C_ 0.665074 0.222404 0.325635 0.1947
C_ C_ 0.766521 0.311414 0.154549 0.68181
C_ C_ 0.711257 0.312859 0.152367 -0.05681
C_ C_ 0.678247 0.301533 0.175695 -0.08735
C_ C_ 0.625033 0.307024 0.17315 -0.05681
C_ C_ 0.604712 0.318331 0.146275 -0.05681
C_ C_ 0.636405 0.327988 0.122704 -0.08735
C_ C_ 0.690659 0.328408 0.125845 -0.08735
C_ C_ 0.592761 0.295333 0.195076 -0.08735
C_ C_ 0.53907 0.300838 0.191394 -0.08735
C_ C_ 0.519425 0.309462 0.164211 -0.05681
C_ C_ 0.550515 0.317089 0.141934 -0.08735
C_ C_ 0.883917 0.214998 0.160251 0.68181
C_ C_ 0.863899 0.410384 0.153947 0.68181
C_ C_ 0.860346 0.467088 0.15052 -0.05681
C_ C_ 0.885388 -0.0012760000000000549 0.170564 -0.08735
C_ C_ 0.880855 0.0523079 0.16958 -0.05681
C_ C_ 0.859915 0.0752521 0.144515 -0.05681
C_ C_ 0.837185 0.0432464 0.123467 -0.08735
C_ C_ 0.871223 0.489963 0.122704 -0.08735
C_ C_ 0.907182 0.0823344 0.189672 -0.08735
C_ C_ 0.903388 0.134654 0.185837 -0.08735
C_ C_ 0.886452 0.157795 0.160798 -0.05681
C_ C_ 0.866111 0.127242 0.139648 -0.08735
C_ C_ 0.966171 0.324469 0.158679 0.68181
C_ C_ 0.897915 0.36505 0.236894 0.1947
C_ C_ 0.906868 0.381303 0.265226 -0.08735
C_ C_ 0.890248 0.348199 0.287983 -0.08735
C_ C_ 0.861576 0.304525 0.281947 -0.05681
C_ C_ 0.850671 0.292535 0.252922 0.18498
C_ C_ 0.819331 0.252944 0.245538 -0.08735
C_ C_ 0.796701 0.220767 0.266638 -0.08735
C_ C_ 0.808076 0.231423 0.295684 -0.08735
C_ C_ 0.839202 0.274771 0.303263 0.18498
C_ C_ 0.808191 0.302454 0.349456 0.44287
C_ C_ 0.894404 0.279461 0.343682 0.44287
C_ C_ 0.90325 0.28673 0.372625 -0.05681
C_ C_ 0.953375 0.281429 0.383433 -0.08735
C_ C_ 0.959528 0.291257 0.412926 -0.08735
C_ C_ 0.919302 0.308125 0.431978 -0.05681
C_ C_ 0.871276 0.312819 0.420727 -0.05681
C_ C_ 0.862773 0.302576 0.390038 -0.05681
C_ C_ 0.815022 0.31173 0.37857 -0.05681
C_ C_ 0.777026 0.33153 0.39676 -0.08735
C_ C_ 0.785692 0.342561 0.424841 -0.08735
C_ C_ 0.833117 0.330597 0.438016 -0.05681
C_ C_ 0.841196 0.336761 0.466976 0.44287
C_ C_ 0.92457 0.312602 0.461992 0.44287
C_ C_ 0.903295 0.335099 0.00976257 0.18498
C_ C_ 0.933888 0.373433 0.0171034 -0.08735
C_ C_ 0.938197 0.393342 0.0447437 -0.08735
C_ C_ 0.914299 0.367068 0.0680061 -0.08735
C_ C_ 0.885938 0.322929 0.0608918 0.18498
C_ C_ 0.878719 0.309161 0.031706 -0.05681
C_ C_ 0.853453 0.264575 0.0265317 -0.08735
C_ C_ 0.830406 0.23793 0.0497526 -0.08735
C_ C_ 0.837529 0.255049 0.0784478 0.1947
N_ N_ 0.622954 0.175251 0.475488 -0.29468
N_ N_ 0.64941 0.189534 0.0827228 -0.17154
N_ N_ 0.598088 0.156074 0.228107 -0.17154
N_ N_ 0.625697 0.190697 0.331115 -0.29468
N_ N_ 0.869019 0.322726 0.231788 -0.29468
N_ N_ 0.848263 0.287893 0.33245 -0.17154
N_ N_ 0.887616 0.328198 0.479521 -0.17154
N_ N_ 0.865686 0.296656 0.0831569 -0.29468
O_ O_ 0.702516 0.183209 0.427614 -0.58347
O_ O_ 0.691586 0.179366 0.380408 -0.58347
O_ O_ 0.61864 0.261479 0.432248 -0.58347
O_ O_ 0.623712 0.271074 0.385267 -0.58347
O_ O_ 0.623935 0.110467 0.420142 -0.58347
O_ O_ 0.612772 0.117452 0.373937 -0.58347
O_ O_ 0.552049 0.19025 0.42501 -0.58347
O_ O_ 0.540278 0.203357 0.378608 -0.58347
O_ O_ 0.564595 0.209063 0.0736159 -0.46727
O_ O_ 0.734306 0.173242 0.0902878 -0.46727
O_ O_ 0.518188 0.184518 0.22101 -0.46727
O_ O_ 0.675943 0.119812 0.236151 -0.46727
O_ O_ 0.787228 0.316076 0.179575 -0.58347
O_ O_ 0.793213 0.304652 0.132121 -0.58347
O_ O_ 0.869358 0.237919 0.182778 -0.58347
O_ O_ 0.883745 0.235797 0.13578 -0.58347
O_ O_ 0.864994 0.390518 0.178217 -0.58347
O_ O_ 0.856442 0.382074 0.132466 -0.58347
O_ O_ 0.940267 0.316513 0.181528 -0.58347
O_ O_ 0.947521 0.31966 0.133257 -0.58347
O_ O_ 0.929415 0.25495 0.328621 -0.46727
O_ O_ 0.76293 0.310467 0.33824 -0.46727
O_ O_ 0.970383 0.303132 0.472345 -0.46727
O_ O_ 0.805358 0.354683 0.483081 -0.46727
Zn Zn 0.628818 0.178628 0.879463 0.90689
Zn Zn 0.63917 0.177739 0.927642 0.90689
Zn Zn 0.878053 0.318103 0.631678 0.90689
Zn Zn 0.867664 0.324693 0.678791 0.90689
H_ H_ 0.802377 0.178059 0.948675 0.11455
H_ H_ 0.883428 0.148487 0.853007 0.11455
H_ H_ 0.790047 0.143786 0.85869 0.11455
H_ H_ 0.897661 0.178748 0.968423 0.11455
H_ H_ 0.983441 0.179159 0.96136 0.11455
H_ H_ 0.965739 0.162589 0.870906 0.11455
H_ H_ 0.645953 0.0047141 0.941233 0.11455
H_ H_ 0.664232 0.426389 0.848757 0.11455
H_ H_ 0.639727 0.0182187 0.849337 0.11455
H_ H_ 0.57922 0.424919 0.95741 0.11455
H_ H_ 0.580732 0.333205 0.955309 0.11455
H_ H_ 0.63506 0.342035 0.866991 0.11455
H_ H_ 0.593713 0.0968948 0.964335 0.11455
H_ H_ 0.572395 0.0796972 0.511013 0.11455
H_ H_ 0.608132 0.128766 0.552192 0.11455
H_ H_ 0.695413 0.246572 0.975856 0.11455
H_ H_ 0.70342 0.312289 0.507944 0.11455
H_ H_ 0.689594 0.290456 0.560356 0.11455
H_ H_ 0.504771 0.227583 0.622227 0.11455
H_ H_ 0.496249 0.205873 0.67538 0.11455
H_ H_ 0.745935 0.156527 0.62985 0.11455
H_ H_ 0.741035 0.147076 0.683857 0.11455
H_ H_ 0.579512 0.084625 0.748833 0.11455
H_ H_ 0.569258 0.0579644 0.799635 0.11455
H_ H_ 0.580408 0.12239 0.838655 0.11455
H_ H_ 0.670784 0.245527 0.757629 0.11455
H_ H_ 0.708186 0.289443 0.799059 0.11455
H_ H_ 0.693689 0.255535 0.84974 0.11455
H_ H_ 0.697504 0.306624 0.687874 0.11455
H_ H_ 0.630529 0.353521 0.594199 0.11455
H_ H_ 0.720264 0.341789 0.600777 0.11455
H_ H_ 0.617576 0.310183 0.709215 0.11455
H_ H_ 0.522411 0.31928 0.703272 0.11455
H_ H_ 0.548141 0.356253 0.613537 0.11455
H_ H_ 0.859223 0.493771 0.691043 0.11455
H_ H_ 0.84606 0.0728893 0.600852 0.11455
H_ H_ 0.854167 0.474313 0.600736 0.11455
H_ H_ 0.880698 0.0742804 0.718417 0.11455
H_ H_ 0.881549 0.168071 0.714155 0.11455
H_ H_ 0.86974 0.151689 0.621817 0.11455
H_ H_ 0.917331 0.394157 0.717971 0.11455
H_ H_ 0.930668 0.423097 0.765883 0.11455
H_ H_ 0.888269 0.374831 0.806965 0.11455
H_ H_ 0.80493 0.255985 0.720624 0.11455
H_ H_ 0.779507 0.196115 0.759497 0.11455
H_ H_ 0.808809 0.208634 0.806577 0.11455
H_ H_ 0.987253 0.281526 0.871109 0.11455
H_ H_ 0.0028399999999999537 0.291077 0.922 0.11455
H_ H_ 0.740492 0.337643 0.888653 0.11455
H_ H_ 0.758214 0.349956 0.939204 0.11455
H_ H_ 0.95097 0.394335 0.99832844 0.11455
H_ H_ 0.978767 0.417271 0.547716 0.11455
H_ H_ 0.938088 0.369545 0.587061 0.11455
H_ H_ 0.827964 0.261807 0.506901 0.11455
H_ H_ 0.810791 0.207181 0.552224 0.11455
H_ H_ 0.824436 0.245925 0.600467 0.11455
C_ C_ 0.733226 0.177464 0.90728 0.68181
C_ C_ 0.788474 0.171229 0.903547 -0.05681
C_ C_ 0.821287 0.17479 0.927404 -0.08735
C_ C_ 0.876204 0.171875 0.923296 -0.05681
C_ C_ 0.897516 0.170518 0.895636 -0.05681
C_ C_ 0.863562 0.160267 0.873051 -0.08735
C_ C_ 0.810764 0.158063 0.87661 -0.08735
C_ C_ 0.908935 0.179069 0.946099 -0.08735
C_ C_ 0.96119 0.171359 0.942097 -0.08735
C_ C_ 0.981624 0.166335 0.915182 -0.05681
C_ C_ 0.948986 0.166996 0.891277 -0.08735
C_ C_ 0.624544 0.276503 0.910863 0.68181
C_ C_ 0.646024 0.0779947 0.897809 0.68181
C_ C_ 0.649803 0.0222843 0.896071 -0.05681
C_ C_ 0.623476 0.490816 0.919466 -0.08735
C_ C_ 0.625131 0.438793 0.918939 -0.05681
C_ C_ 0.63659 0.414605 0.891805 -0.05681
C_ C_ 0.649837 0.44376 0.868329 -0.08735
C_ C_ 0.64858 0.495008 0.870879 -0.08735
C_ C_ 0.603433 0.408319 0.941432 -0.08735
C_ C_ 0.598607 0.357047 0.937684 -0.08735
C_ C_ 0.615955 0.332817 0.912519 -0.05681
C_ C_ 0.631031 0.361867 0.888999 -0.08735
C_ C_ 0.532888 0.173958 0.903684 0.68181
C_ C_ 0.605227 0.121193 0.982383 0.1947
C_ C_ 0.590607 0.115858 0.507768 -0.08735
C_ C_ 0.610398 0.142191 0.530631 -0.08735
C_ C_ 0.634919 0.189022 0.526437 -0.05681
C_ C_ 0.648406 0.200695 0.497561 0.18498
C_ C_ 0.679925 0.236267 0.99662 -0.08735
C_ C_ 0.689984 0.277706 0.514557 -0.08735
C_ C_ 0.675934 0.267079 0.543259 -0.08735
C_ C_ 0.648774 0.22164 0.549591 0.18498
C_ C_ 0.677188 0.1898 0.595151 0.44287
C_ C_ 0.592234 0.221076 0.592368 0.44287
C_ C_ 0.585058 0.213599 0.622667 -0.05681
C_ C_ 0.537888 0.220047 0.636188 -0.08735
C_ C_ 0.532011 0.205189 0.665525 -0.08735
C_ C_ 0.576486 0.194288 0.683173 -0.05681
C_ C_ 0.622611 0.189023 0.669039 -0.05681
C_ C_ 0.627479 0.200484 0.639142 -0.05681
C_ C_ 0.671311 0.185958 0.625519 -0.05681
C_ C_ 0.710226 0.162314 0.640989 -0.08735
C_ C_ 0.707825 0.160224 0.670855 -0.08735
C_ C_ 0.662212 0.170829 0.68529 -0.05681
C_ C_ 0.657294 0.16588 0.715503 0.44287
C_ C_ 0.572616 0.191394 0.713344 0.44287
C_ C_ 0.607147 0.16056 0.759042 0.18498
C_ C_ 0.592111 0.10994 0.766249 -0.08735
C_ C_ 0.583949 0.0947406 0.795246 -0.08735
C_ C_ 0.590137 0.131902 0.816163 -0.08735
C_ C_ 0.620526 0.173687 0.811617 0.18498
C_ C_ 0.630357 0.189122 0.782814 -0.05681
C_ C_ 0.659289 0.233306 0.778413 -0.08735
C_ C_ 0.682608 0.256327 0.802027 -0.08735
C_ C_ 0.671921 0.240956 0.830088 0.1947
C_ C_ 0.775036 0.324088 0.649496 0.68181
C_ C_ 0.718993 0.323791 0.64446 -0.05681
C_ C_ 0.685444 0.31195 0.667072 -0.08735
C_ C_ 0.633044 0.320974 0.664959 -0.05681
C_ C_ 0.614008 0.340332 0.638489 -0.05681
C_ C_ 0.645626 0.343971 0.614602 -0.08735
C_ C_ 0.697491 0.340133 0.618925 -0.08735
C_ C_ 0.600525 0.317794 0.68849 -0.08735
C_ C_ 0.548316 0.324277 0.683957 -0.08735
C_ C_ 0.526382 0.339664 0.657037 -0.05681
C_ C_ 0.560429 0.352174 0.63519 -0.08735
C_ C_ 0.879799 0.224187 0.662519 0.68181
C_ C_ 0.862978 0.420704 0.649115 0.68181
C_ C_ 0.86993 0.476297 0.645237 -0.05681
C_ C_ 0.864811 0.00804251 0.675027 -0.08735
C_ C_ 0.867193 0.0608378 0.673496 -0.05681
C_ C_ 0.86226 0.0836626 0.646199 -0.05681
C_ C_ 0.849211 0.0556293 0.621598 -0.08735
C_ C_ 0.865419 0.49964 0.617968 -0.08735
C_ C_ 0.874343 0.09194 0.697516 -0.08735
C_ C_ 0.876685 0.144432 0.694449 -0.08735
C_ C_ 0.872813 0.166914 0.666551 -0.05681
C_ C_ 0.865533 0.136884 0.643544 -0.08735
C_ C_ 0.971214 0.324671 0.658567 0.68181
C_ C_ 0.89781 0.374405 0.733205 0.1947
C_ C_ 0.90834 0.388758 0.761256 -0.08735
C_ C_ 0.886629 0.361183 0.784149 -0.08735
C_ C_ 0.85834 0.316183 0.77875 -0.05681
C_ C_ 0.847247 0.305435 0.749593 0.18498
C_ C_ 0.81646 0.264043 0.742379 -0.08735
C_ C_ 0.799284 0.231276 0.763974 -0.08735
C_ C_ 0.812683 0.239995 0.79211 -0.08735
C_ C_ 0.843526 0.281546 0.800334 0.18498
C_ C_ 0.811413 0.306807 0.848175 0.44287
C_ C_ 0.896885 0.284867 0.84265 0.44287
C_ C_ 0.905721 0.29351 0.87153 -0.05681
C_ C_ 0.954939 0.286444 0.884484 -0.08735
C_ C_ 0.963622 0.292673 0.91333 -0.08735
C_ C_ 0.923698 0.307585 0.931758 -0.05681
C_ C_ 0.875585 0.313627 0.919207 -0.05681
C_ C_ 0.86635 0.307856 0.890039 -0.05681
C_ C_ 0.819669 0.317293 0.877876 -0.05681
C_ C_ 0.779295 0.332557 0.896579 -0.08735
C_ C_ 0.786827 0.33314 0.926795 -0.08735
C_ C_ 0.834654 0.323028 0.938501 -0.05681
C_ C_ 0.846417 0.33632 0.967483 0.44287
C_ C_ 0.930836 0.306404 0.962346 0.44287
C_ C_ 0.896355 0.337968 0.509555 0.18498
C_ C_ 0.931498 0.375158 0.515347 -0.08735
C_ C_ 0.947284 0.387113 0.543441 -0.08735
C_ C_ 0.923961 0.36203 0.566612 -0.08735
C_ C_ 0.889804 0.323666 0.562448 0.18498
C_ C_ 0.877424 0.310039 0.533433 -0.05681
C_ C_ 0.838702 0.273102 0.529033 -0.08735
C_ C_ 0.82271 0.245738 0.553443 -0.08735
C_ C_ 0.836091 0.262379 0.580936 0.1947
N_ N_ 0.633396 0.163924 0.977464 -0.29468
N_ N_ 0.638822 0.210753 0.578726 -0.17154
N_ N_ 0.613946 0.176663 0.729369 -0.17154
N_ N_ 0.64074 0.199535 0.834185 -0.29468
N_ N_ 0.868604 0.333113 0.726937 -0.29468
N_ N_ 0.850819 0.29379 0.830274 -0.17154
N_ N_ 0.893442 0.326272 0.979149 -0.17154
N_ N_ 0.867552 0.30097 0.584592 -0.29468
O_ O_ 0.714791 0.177467 0.932077 -0.58347
O_ O_ 0.703471 0.173788 0.885953 -0.58347
O_ O_ 0.635992 0.251199 0.933536 -0.58347
O_ O_ 0.619703 0.254392 0.885709 -0.58347
O_ O_ 0.644648 0.101495 0.921389 -0.58347
O_ O_ 0.636452 0.100038 0.874916 -0.58347
O_ O_ 0.563328 0.178492 0.924771 -0.58347
O_ O_ 0.55087 0.177449 0.87832 -0.58347
O_ O_ 0.553316 0.225639 0.575337 -0.46727
O_ O_ 0.718861 0.171474 0.581015 -0.46727
O_ O_ 0.527013 0.18948 0.725416 -0.46727
O_ O_ 0.696055 0.151955 0.730956 -0.46727
O_ O_ 0.792802 0.313652 0.674505 -0.58347
O_ O_ 0.803871 0.319846 0.628384 -0.58347
O_ O_ 0.869611 0.249412 0.683947 -0.58347
O_ O_ 0.883905 0.243182 0.638019 -0.58347
O_ O_ 0.864206 0.40118 0.67409 -0.58347
O_ O_ 0.873312 0.393034 0.627608 -0.58347
O_ O_ 0.939603 0.329302 0.678576 -0.58347
O_ O_ 0.954773 0.317005 0.633477 -0.58347
O_ O_ 0.932764 0.26084 0.828306 -0.46727
O_ O_ 0.766936 0.314493 0.837652 -0.46727
O_ O_ 0.976617 0.299816 0.972944 -0.46727
O_ O_ 0.810938 0.353715 0.98411 -0.46727
Zn Zn 0.618684 0.693424 0.382894 0.90689
Zn Zn 0.63151 0.689154 0.43068 0.90689
Zn Zn 0.871835 0.809891 0.132968 0.90689
Zn Zn 0.863178 0.814579 0.180167 0.90689
H_ H_ 0.797186 0.69082 0.443557 0.11455
H_ H_ 0.863906 0.669963 0.343183 0.11455
H_ H_ 0.767339 0.664183 0.355281 0.11455
H_ H_ 0.885463 0.685223 0.461926 0.11455
H_ H_ 0.973682 0.685514 0.453417 0.11455
H_ H_ 0.949577 0.676321 0.360903 0.11455
H_ H_ 0.611557 0.520493 0.44413 0.11455
H_ H_ 0.601054 0.938332 0.344948 0.11455
H_ H_ 0.677013 0.536833 0.362991 0.11455
H_ H_ 0.622772 0.938285 0.463495 0.11455
H_ H_ 0.615467 0.846792 0.459444 0.11455
H_ H_ 0.621363 0.857853 0.369001 0.11455
H_ H_ 0.564167 0.62928 0.466827 0.11455
H_ H_ 0.571831 0.570556 0.0155463 0.11455
H_ H_ 0.606516 0.618079 0.0571037 0.11455
H_ H_ 0.691547 0.749611 0.47143 0.11455
H_ H_ 0.725865 0.792493 0.0127914 0.11455
H_ H_ 0.695552 0.777925 0.0602099 0.11455
H_ H_ 0.513405 0.698247 0.118816 0.11455
H_ H_ 0.501808 0.681758 0.170706 0.11455
H_ H_ 0.767426 0.666035 0.140245 0.11455
H_ H_ 0.752451 0.664567 0.188645 0.11455
H_ H_ 0.592337 0.583513 0.249957 0.11455
H_ H_ 0.575462 0.556935 0.300629 0.11455
H_ H_ 0.584789 0.619056 0.339599 0.11455
H_ H_ 0.658744 0.748548 0.256824 0.11455
H_ H_ 0.680628 0.802085 0.296495 0.11455
H_ H_ 0.660311 0.777813 0.347941 0.11455
H_ H_ 0.69741 0.805264 0.192416 0.11455
H_ H_ 0.627546 0.8276 0.0946372 0.11455
H_ H_ 0.721365 0.815778 0.1029 0.11455
H_ H_ 0.611628 0.80834 0.212485 0.11455
H_ H_ 0.523526 0.816762 0.206112 0.11455
H_ H_ 0.53983 0.816487 0.113296 0.11455
H_ H_ 0.905924 0.984387 0.187361 0.11455
H_ H_ 0.892744 0.555761 0.0993568 0.11455
H_ H_ 0.826745 0.965591 0.109305 0.11455
H_ H_ 0.853326 0.567368 0.214441 0.11455
H_ H_ 0.868074 0.657656 0.211375 0.11455
H_ H_ 0.89651 0.641901 0.120656 0.11455
H_ H_ 0.909212 0.888904 0.215542 0.11455
H_ H_ 0.935232 0.919605 0.264606 0.11455
H_ H_ 0.90328 0.868112 0.304115 0.11455
H_ H_ 0.821817 0.73632 0.225914 0.11455
H_ H_ 0.786326 0.686241 0.264336 0.11455
H_ H_ 0.801324 0.71636 0.31322 0.11455
H_ H_ 0.989613 0.804947 0.370515 0.11455
H_ H_ 0.00478665 0.811169 0.42194 0.11455
H_ H_ 0.739536 0.840239 0.390909 0.11455
H_ H_ 0.751544 0.848167 0.440887 0.11455
H_ H_ 0.934648 0.922259 0.498203 0.11455
H_ H_ 0.973142 0.916776 0.0488975 0.11455
H_ H_ 0.927229 0.874349 0.0882756 0.11455
H_ H_ 0.849316 0.742906 0.00886528 0.11455
H_ H_ 0.803484 0.705402 0.0505695 0.11455
H_ H_ 0.822057 0.734285 0.0983278 0.11455
C_ C_ 0.721478 0.685807 0.40347 0.68181
C_ C_ 0.777192 0.681465 0.398286 -0.05681
C_ C_ 0.81141 0.682079 0.421393 -0.08735
C_ C_ 0.863108 0.680495 0.416735 -0.05681
C_ C_ 0.882196 0.681599 0.388583 -0.05681
C_ C_ 0.847995 0.676801 0.364902 -0.08735
C_ C_ 0.794189 0.671295 0.370442 -0.08735
C_ C_ 0.897913 0.683834 0.440017 -0.08735
C_ C_ 0.949043 0.684707 0.435277 -0.08735
C_ C_ 0.968725 0.685551 0.407962 -0.05681
C_ C_ 0.934706 0.679948 0.384094 -0.08735
C_ C_ 0.617112 0.788848 0.411891 0.68181
C_ C_ 0.633467 0.593581 0.40217 0.68181
C_ C_ 0.635012 0.53719 0.399642 -0.05681
C_ C_ 0.624556 1.00518997 0.418286 -0.08735
C_ C_ 0.619413 0.952677 0.416852 -0.05681
C_ C_ 0.609697 0.927428 0.390183 -0.05681
C_ C_ 0.60164 0.955956 0.365307 -0.08735
C_ C_ 0.611066 1.00998957 0.36664 -0.08735
C_ C_ 0.624006 0.921625 0.441965 -0.08735
C_ C_ 0.620413 0.86883 0.440801 -0.08735
C_ C_ 0.616921 0.845534 0.413719 -0.05681
C_ C_ 0.61059 0.874396 0.3892 -0.08735
C_ C_ 0.525399 0.695329 0.405158 0.68181
C_ C_ 0.58512 0.646042 0.483828 0.1947
C_ C_ 0.59166 0.605585 0.0117347 -0.08735
C_ C_ 0.61302 0.630821 0.0345249 -0.08735
C_ C_ 0.641849 0.674535 0.0288981 -0.05681
C_ C_ 0.654277 0.687796 0.999827 0.18498
C_ C_ 0.679306 0.743156 0.49365 -0.08735
C_ C_ 0.698974 0.762813 0.0161426 -0.08735
C_ C_ 0.685911 0.751935 0.044482 -0.08735
C_ C_ 0.657959 0.708763 0.0509791 0.18498
C_ C_ 0.692299 0.686035 0.0982491 0.44287
C_ C_ 0.605114 0.704242 0.0921485 0.44287
C_ C_ 0.597306 0.692722 0.121388 -0.05681
C_ C_ 0.545206 0.69034 0.133176 -0.08735
C_ C_ 0.538345 0.685881 0.162412 -0.08735
C_ C_ 0.580486 0.681725 0.180568 -0.05681
C_ C_ 0.629417 0.67607 0.170121 -0.05681
C_ C_ 0.636929 0.681231 0.139715 -0.05681
C_ C_ 0.687017 0.678175 0.12855 -0.05681
C_ C_ 0.728131 0.668571 0.146756 -0.08735
C_ C_ 0.719135 0.669754 0.176103 -0.08735
C_ C_ 0.670297 0.673868 0.188371 -0.05681
C_ C_ 0.662615 0.673606 0.218825 0.44287
C_ C_ 0.574245 0.681081 0.211526 0.44287
C_ C_ 0.606419 0.662212 0.259121 0.18498
C_ C_ 0.588413 0.612475 0.26578 -0.08735
C_ C_ 0.580481 0.598243 0.295652 -0.08735
C_ C_ 0.588692 0.632854 0.317502 -0.08735
C_ C_ 0.606698 0.681242 0.311755 0.18498
C_ C_ 0.618179 0.695666 0.28278 -0.05681
C_ C_ 0.643673 0.740616 0.278718 -0.08735
C_ C_ 0.655416 0.771805 0.301442 -0.08735
C_ C_ 0.649347 0.75381 0.329787 0.1947
C_ C_ 0.771421 0.812712 0.15304 0.68181
C_ C_ 0.715745 0.814857 0.148217 -0.05681
C_ C_ 0.680984 0.811812 0.171625 -0.08735
C_ C_ 0.629234 0.809076 0.167498 -0.05681
C_ C_ 0.60875 0.816604 0.139816 -0.05681
C_ C_ 0.642165 0.819264 0.116255 -0.08735
C_ C_ 0.694309 0.817407 0.120939 -0.08735
C_ C_ 0.597345 0.808674 0.191223 -0.08735
C_ C_ 0.544861 0.80984 0.187676 -0.08735
C_ C_ 0.524219 0.816438 0.158971 -0.05681
C_ C_ 0.556309 0.815944 0.135238 -0.08735
C_ C_ 0.878277 0.713914 0.162611 0.68181
C_ C_ 0.865791 0.911068 0.153559 0.68181
C_ C_ 0.862235 0.967517 0.150698 -0.05681
C_ C_ 0.86245 0.497576 0.174291 -0.08735
C_ C_ 0.86926 0.551538 0.171152 -0.05681
C_ C_ 0.877213 0.573527 0.144221 -0.05681
C_ C_ 0.882903 0.541846 0.120284 -0.08735
C_ C_ 0.840417 0.989848 0.126112 -0.08735
C_ C_ 0.863316 0.583898 0.194273 -0.08735
C_ C_ 0.872203 0.635932 0.192815 -0.08735
C_ C_ 0.879202 0.657554 0.165826 -0.05681
C_ C_ 0.883452 0.626622 0.141114 -0.08735
C_ C_ 0.967217 0.818411 0.157771 0.68181
C_ C_ 0.897651 0.868418 0.233454 0.1947
C_ C_ 0.912887 0.883979 0.260397 -0.08735
C_ C_ 0.89404 0.855806 0.28317 -0.08735
C_ C_ 0.860701 0.813889 0.279099 -0.05681
C_ C_ 0.849627 0.799875 0.25082 0.18498
C_ C_ 0.822337 0.753861 0.245893 -0.08735
C_ C_ 0.80165 0.724679 0.268253 -0.08735
C_ C_ 0.81097 0.742686 0.29607 -0.08735
C_ C_ 0.839553 0.78645 0.301888 0.18498
C_ C_ 0.809683 0.809721 0.351466 0.44287
C_ C_ 0.896088 0.791976 0.344503 0.44287
C_ C_ 0.906905 0.810066 0.372938 -0.05681
C_ C_ 0.955318 0.81275 0.384979 -0.08735
C_ C_ 0.964306 0.814569 0.414713 -0.08735
C_ C_ 0.924622 0.824751 0.434235 -0.05681
C_ C_ 0.874914 0.829847 0.422236 -0.05681
C_ C_ 0.866741 0.818426 0.392253 -0.05681
C_ C_ 0.818061 0.819251 0.380328 -0.05681
C_ C_ 0.776614 0.831773 0.398726 -0.08735
C_ C_ 0.784525 0.840523 0.428431 -0.08735
C_ C_ 0.834137 0.840191 0.440332 -0.05681
C_ C_ 0.842746 0.850491 0.46908 0.44287
C_ C_ 0.928924 0.827876 0.464085 0.44287
C_ C_ 0.911981 0.824942 0.0110173 0.18498
C_ C_ 0.940052 0.868331 0.0164697 -0.08735
C_ C_ 0.948794 0.883843 0.0450198 -0.08735
C_ C_ 0.92331 0.860045 0.0680399 -0.08735
C_ C_ 0.893413 0.818186 0.0632391 0.18498
C_ C_ 0.88685 0.799603 0.0343666 -0.05681
C_ C_ 0.856997 0.757249 0.0300789 -0.08735
C_ C_ 0.829541 0.735622 0.0537089 -0.08735
C_ C_ 0.836542 0.755695 0.0808416 0.1947
N_ N_ 0.623472 0.677019 0.478109 -0.29468
N_ N_ 0.650748 0.695731 0.0809067 -0.17154
N_ N_ 0.615428 0.675758 0.229802 -0.17154
N_ N_ 0.626812 0.708913 0.33379 -0.29468
N_ N_ 0.868339 0.827917 0.228482 -0.29468
N_ N_ 0.849614 0.799804 0.33268 -0.17154
N_ N_ 0.888304 0.842313 0.480771 -0.17154
N_ N_ 0.871337 0.793258 0.0857869 -0.29468
O_ O_ 0.703928 0.680195 0.428232 -0.58347
O_ O_ 0.694483 0.698707 0.383082 -0.58347
O_ O_ 0.632084 0.763632 0.433271 -0.58347
O_ O_ 0.606131 0.767189 0.388758 -0.58347
O_ O_ 0.625876 0.610581 0.428005 -0.58347
O_ O_ 0.632695 0.620979 0.37992 -0.58347
O_ O_ 0.554103 0.691122 0.426672 -0.58347
O_ O_ 0.544604 0.68202 0.381128 -0.58347
O_ O_ 0.569879 0.725405 0.077091 -0.46727
O_ O_ 0.735877 0.673256 0.0860404 -0.46727
O_ O_ 0.528768 0.681192 0.22202 -0.46727
O_ O_ 0.701074 0.671258 0.236266 -0.46727
O_ O_ 0.789456 0.80422 0.178311 -0.58347
O_ O_ 0.799379 0.815094 0.131988 -0.58347
O_ O_ 0.876264 0.741168 0.184597 -0.58347
O_ O_ 0.872791 0.735694 0.138141 -0.58347
O_ O_ 0.853064 0.890154 0.17696 -0.58347
O_ O_ 0.873376 0.885327 0.131317 -0.58347
O_ O_ 0.93752 0.822716 0.180496 -0.58347
O_ O_ 0.94933 0.811569 0.132635 -0.58347
O_ O_ 0.927041 0.764755 0.328841 -0.46727
O_ O_ 0.764258 0.813848 0.340935 -0.46727
O_ O_ 0.971128 0.811367 0.476076 -0.46727
O_ O_ 0.805012 0.868339 0.484849 -0.46727
Zn Zn 0.637421 0.676418 0.880421 0.90689
Zn Zn 0.648821 0.671871 0.928137 0.90689
Zn Zn 0.873787 0.821998 0.633896 0.90689
Zn Zn 0.867526 0.826115 0.682261 0.90689
H_ H_ 0.81201 0.68612 0.943908 0.11455
H_ H_ 0.88553 0.645522 0.848194 0.11455
H_ H_ 0.798174 0.652902 0.854243 0.11455
H_ H_ 0.902749 0.677461 0.965089 0.11455
H_ H_ 0.994617 0.677045 0.95582 0.11455
H_ H_ 0.972447 0.642821 0.86787 0.11455
H_ H_ 0.609328 0.507608 0.93861 0.11455
H_ H_ 0.632075 0.929452 0.846241 0.11455
H_ H_ 0.654633 0.519664 0.851112 0.11455
H_ H_ 0.657275 0.922809 0.962449 0.11455
H_ H_ 0.641907 0.828591 0.958157 0.11455
H_ H_ 0.635075 0.843192 0.86676 0.11455
H_ H_ 0.587969 0.600793 0.965196 0.11455
H_ H_ 0.536175 0.611982 0.516255 0.11455
H_ H_ 0.583304 0.65549 0.55621 0.11455
H_ H_ 0.698031 0.735657 0.973454 0.11455
H_ H_ 0.737531 0.794997 0.508604 0.11455
H_ H_ 0.711229 0.78463 0.559644 0.11455
H_ H_ 0.515612 0.716372 0.626695 0.11455
H_ H_ 0.507703 0.711372 0.680194 0.11455
H_ H_ 0.76463 0.665656 0.628928 0.11455
H_ H_ 0.759313 0.650041 0.681832 0.11455
H_ H_ 0.578216 0.58601 0.747534 0.11455
H_ H_ 0.556684 0.56131 0.795491 0.11455
H_ H_ 0.579213 0.619725 0.837034 0.11455
H_ H_ 0.684273 0.734535 0.758002 0.11455
H_ H_ 0.713836 0.786033 0.799125 0.11455
H_ H_ 0.697819 0.75049 0.846484 0.11455
H_ H_ 0.697757 0.822509 0.699264 0.11455
H_ H_ 0.630057 0.850998 0.601805 0.11455
H_ H_ 0.723085 0.832099 0.607968 0.11455
H_ H_ 0.609831 0.817116 0.718029 0.11455
H_ H_ 0.515092 0.828787 0.708483 0.11455
H_ H_ 0.543361 0.831383 0.619065 0.11455
H_ H_ 0.866442 0.988512 0.697731 0.11455
H_ H_ 0.867762 0.56899 0.592402 0.11455
H_ H_ 0.830806 0.982841 0.605778 0.11455
H_ H_ 0.86389 0.574174 0.710675 0.11455
H_ H_ 0.884068 0.6633 0.709059 0.11455
H_ H_ 0.878168 0.658606 0.616427 0.11455
H_ H_ 0.918063 0.899051 0.719723 0.11455
H_ H_ 0.93085 0.922101 0.772382 0.11455
H_ H_ 0.897004 0.870076 0.809313 0.11455
H_ H_ 0.810599 0.75489 0.72318 0.11455
H_ H_ 0.781647 0.69568 0.761734 0.11455
H_ H_ 0.803234 0.715838 0.811457 0.11455
H_ H_ 0.985654 0.763349 0.869131 0.11455
H_ H_ 1.00676704 0.783231 0.921323 0.11455
H_ H_ 0.744074 0.813355 0.895222 0.11455
H_ H_ 0.758363 0.811193 0.946128 0.11455
H_ H_ 0.952671 0.894588 0.99947264 0.11455
H_ H_ 0.969402 0.936515 0.547106 0.11455
H_ H_ 0.926573 0.892384 0.588303 0.11455
H_ H_ 0.854526 0.760986 0.506628 0.11455
H_ H_ 0.81168 0.716916 0.548462 0.11455
H_ H_ 0.814969 0.75264 0.595762 0.11455
C_ C_ 0.741729 0.670696 0.904344 0.68181
C_ C_ 0.798576 0.664474 0.900502 -0.05681
C_ C_ 0.82955 0.674463 0.924016 -0.08735
C_ C_ 0.882629 0.669896 0.920735 -0.05681
C_ C_ 0.905027 0.65536 0.893094 -0.05681
C_ C_ 0.870541 0.64633 0.870064 -0.08735
C_ C_ 0.819755 0.651994 0.87358 -0.08735
C_ C_ 0.91659 0.67217 0.943383 -0.08735
C_ C_ 0.969531 0.675231 0.937927 -0.08735
C_ C_ 0.988242 0.673843 0.910386 -0.05681
C_ C_ 0.958064 0.654192 0.888424 -0.08735
C_ C_ 0.642906 0.774181 0.909615 0.68181
C_ C_ 0.63797 0.576609 0.897723 0.68181
C_ C_ 0.638459 0.519948 0.896072 -0.05681
C_ C_ 0.643984 -0.009241999999999972 0.920148 -0.08735
C_ C_ 0.64467 0.936932 0.917171 -0.05681
C_ C_ 0.643474 0.915801 0.890303 -0.05681
C_ C_ 0.640182 0.946488 0.865774 -0.08735
C_ C_ 0.648232 -0.001638999999999946 0.868753 -0.08735
C_ C_ 0.643877 0.906505 0.942222 -0.08735
C_ C_ 0.641265 0.852886 0.939756 -0.08735
C_ C_ 0.643274 0.83088 0.913638 -0.05681
C_ C_ 0.637872 0.862096 0.888611 -0.08735
C_ C_ 0.543505 0.672597 0.906079 0.68181
C_ C_ 0.60738 0.617408 0.98393 0.1947
C_ C_ 0.567125 0.639139 0.511 -0.08735
C_ C_ 0.59279 0.662162 0.533563 -0.08735
C_ C_ 0.633239 0.693835 0.529155 -0.05681
C_ C_ 0.647002 0.702785 0.499799 0.18498
C_ C_ 0.683439 0.729378 0.994337 -0.08735
C_ C_ 0.703944 0.771443 0.514954 -0.08735
C_ C_ 0.689546 0.763556 0.543298 -0.08735
C_ C_ 0.652764 0.726311 0.552044 0.18498
C_ C_ 0.68639 0.693699 0.596311 0.44287
C_ C_ 0.60427 0.728232 0.59676 0.44287
C_ C_ 0.595232 0.711041 0.626044 -0.05681
C_ C_ 0.548978 0.715825 0.640339 -0.08735
C_ C_ 0.546186 0.707196 0.670324 -0.08735
C_ C_ 0.588809 0.689409 0.685126 -0.05681
C_ C_ 0.633608 0.683826 0.670276 -0.05681
C_ C_ 0.636728 0.691798 0.640642 -0.05681
C_ C_ 0.684383 0.685876 0.62626 -0.05681
C_ C_ 0.729293 0.671596 0.641581 -0.08735
C_ C_ 0.725144 0.659593 0.670288 -0.08735
C_ C_ 0.678298 0.666871 0.685641 -0.05681
C_ C_ 0.675023 0.665045 0.715362 0.44287
C_ C_ 0.587033 0.680831 0.715321 0.44287
C_ C_ 0.625536 0.64731 0.759333 0.18498
C_ C_ 0.596955 0.603876 0.764772 -0.08735
C_ C_ 0.581797 0.592945 0.793009 -0.08735
C_ C_ 0.597189 0.623231 0.815627 -0.08735
C_ C_ 0.633444 0.662425 0.811763 0.18498
C_ C_ 0.643446 0.677633 0.783202 -0.05681
C_ C_ 0.668275 0.725436 0.778823 -0.08735
C_ C_ 0.685281 0.753569 0.802688 -0.08735
C_ C_ 0.676353 0.735135 0.830035 0.1947
C_ C_ 0.769245 0.814771 0.656275 0.68181
C_ C_ 0.713681 0.821654 0.653811 -0.05681
C_ C_ 0.680782 0.820318 0.67815 -0.08735
C_ C_ 0.629298 0.826959 0.673929 -0.05681
C_ C_ 0.609877 0.834279 0.645862 -0.05681
C_ C_ 0.643719 0.836768 0.622697 -0.08735
C_ C_ 0.696056 0.834257 0.626935 -0.08735
C_ C_ 0.595577 0.822811 0.696157 -0.08735
C_ C_ 0.542 0.824007 0.690454 -0.08735
C_ C_ 0.523787 0.832635 0.662586 -0.05681
C_ C_ 0.556356 0.837539 0.640858 -0.08735
C_ C_ 0.880907 0.724164 0.661477 0.68181
C_ C_ 0.856946 0.921276 0.651738 0.68181
C_ C_ 0.851692 0.977691 0.650683 -0.05681
C_ C_ 0.865622 0.508858 0.669405 -0.08735
C_ C_ 0.871535 0.56084 0.666358 -0.05681
C_ C_ 0.872414 0.584662 0.638657 -0.05681
C_ C_ 0.864527 0.551914 0.613983 -0.08735
C_ C_ 0.842175 1.00428 0.62521 -0.08735
C_ C_ 0.87435 0.5902 0.690532 -0.08735
C_ C_ 0.881982 0.640756 0.689723 -0.08735
C_ C_ 0.88235 0.666562 0.66248 -0.05681
C_ C_ 0.881254 0.637209 0.636872 -0.08735
C_ C_ 0.969985 0.835598 0.656989 0.68181
C_ C_ 0.89909 0.877305 0.737229 0.1947
C_ C_ 0.906511 0.890202 0.766611 -0.08735
C_ C_ 0.88966 0.857452 0.787913 -0.08735
C_ C_ 0.853663 0.818778 0.782031 -0.05681
C_ C_ 0.845678 0.806098 0.751781 0.18498
C_ C_ 0.81713 0.763278 0.744511 -0.08735
C_ C_ 0.801491 0.730184 0.767213 -0.08735
C_ C_ 0.813798 0.74143 0.795623 -0.08735
C_ C_ 0.839575 0.784505 0.803741 0.18498
C_ C_ 0.813652 0.807065 0.851763 0.44287
C_ C_ 0.89838 0.779563 0.844409 0.44287
C_ C_ 0.91192 0.788829 0.873058 -0.05681
C_ C_ 0.960418 0.780285 0.883743 -0.08735
C_ C_ 0.970394 0.786082 0.912577 -0.08735
C_ C_ 0.929658 0.801724 0.931982 -0.05681
C_ C_ 0.880049 0.807059 0.921856 -0.05681
C_ C_ 0.871149 0.799828 0.89191 -0.05681
C_ C_ 0.822706 0.803042 0.881525 -0.05681
C_ C_ 0.781338 0.806157 0.90191 -0.08735
C_ C_ 0.79005 0.808407 0.931717 -0.08735
C_ C_ 0.839499 0.813451 0.941541 -0.05681
C_ C_ 0.850914 0.825641 0.971176 0.44287
C_ C_ 0.93774 0.811975 0.961675 0.44287
C_ C_ 0.897074 0.853993 0.509885 0.18498
C_ C_ 0.923826 0.897799 0.516107 -0.08735
C_ C_ 0.943854 0.9055 0.544277 -0.08735
C_ C_ 0.925288 0.87765 0.566288 -0.08735
C_ C_ 0.894192 0.835661 0.561667 0.18498
C_ C_ 0.879207 0.822735 0.533254 -0.05681
C_ C_ 0.85391 0.777417 0.52846 -0.08735
C_ C_ 0.833344 0.750961 0.551614 -0.08735
C_ C_ 0.835327 0.771994 0.579391 0.1947
N_ N_ 0.635939 0.659684 0.977607 -0.29468
N_ N_ 0.647036 0.714382 0.582093 -0.17154
N_ N_ 0.629092 0.666777 0.730006 -0.17154
N_ N_ 0.645805 0.694114 0.833886 -0.29468
N_ N_ 0.867162 0.837851 0.730762 -0.29468
N_ N_ 0.85193 0.792578 0.833741 -0.17154
N_ N_ 0.898762 0.817867 0.981423 -0.17154
N_ N_ 0.868842 0.811916 0.5845 -0.29468
O_ O_ 0.721776 0.66943 0.928596 -0.58347
O_ O_ 0.714649 0.684707 0.88322 -0.58347
O_ O_ 0.653001 0.746048 0.931657 -0.58347
O_ O_ 0.632584 0.753011 0.885499 -0.58347
O_ O_ 0.634097 0.597258 0.921349 -0.58347
O_ O_ 0.648246 0.601439 0.87598 -0.58347
O_ O_ 0.574337 0.683055 0.925818 -0.58347
O_ O_ 0.562372 0.664267 0.880858 -0.58347
O_ O_ 0.572465 0.758605 0.582982 -0.46727
O_ O_ 0.726091 0.676635 0.581304 -0.46727
O_ O_ 0.542474 0.689488 0.728372 -0.46727
O_ O_ 0.716967 0.658651 0.731049 -0.46727
O_ O_ 0.790092 0.815156 0.682326 -0.58347
O_ O_ 0.797738 0.813208 0.633884 -0.58347
O_ O_ 0.881853 0.748969 0.684763 -0.58347
O_ O_ 0.884039 0.74642 0.637812 -0.58347
O_ O_ 0.860307 0.900087 0.675186 -0.58347
O_ O_ 0.863195 0.897601 0.629288 -0.58347
O_ O_ 0.94297 0.834051 0.679238 -0.58347
O_ O_ 0.949891 0.833497 0.631911 -0.58347
O_ O_ 0.931904 0.760494 0.827767 -0.46727
O_ O_ 0.767253 0.811853 0.843242 -0.46727
O_ O_ 0.984054 0.814225 0.970766 -0.46727
O_ O_ 0.816283 0.840249 0.988737 -0.46727
