_cell_length_a 26.376
_cell_length_b 26.400000238300095
_cell_length_c 46.67800035477134
_cell_angle_alpha 90.00700052986613
_cell_angle_beta 89.99899961309502
_cell_angle_gamma 90.45000003183146
_symmetry_space_group_name_H-M         'P 1'
_symmetry_Int_Tables_number            1
loop_
_symmetry_equiv_pos_as_xyz
   'x, y, z'
                         
loop_
_atom_site_label
_atom_site_type_symbol
_atom_site_fract_x 
_atom_site_fract_y
_atom_site_fract_z
_atom_site_charge
Zn Zn 0.131474 0.186713 0.383216 0.90689
Zn Zn 0.14864 0.1811 0.429793 0.90689
Zn Zn 0.38482 0.313813 0.128565 0.90689
Zn Zn 0.374884 0.32169 0.177105 0.90689
H_ H_ 0.312547 0.177441 0.445964 0.11455
H_ H_ 0.381771 0.185989 0.347281 0.11455
H_ H_ 0.291947 0.186159 0.355901 0.11455
H_ H_ 0.398707 0.166091 0.464134 0.11455
H_ H_ 0.484869 0.148276 0.455982 0.11455
H_ H_ 0.473309 0.171503 0.365936 0.11455
H_ H_ 0.154609 0.0180877 0.443959 0.11455
H_ H_ 0.0964115 0.440231 0.351802 0.11455
H_ H_ 0.148385 0.0270037 0.354227 0.11455
H_ H_ 0.163315 0.432162 0.464535 0.11455
H_ H_ 0.159437 0.337344 0.461335 0.11455
H_ H_ 0.116122 0.349925 0.372279 0.11455
H_ H_ 0.091061 0.11264 0.460396 0.11455
H_ H_ 0.0605647 0.0813176 0.0121794 0.11455
H_ H_ 0.0911503 0.133114 0.05374 0.11455
H_ H_ 0.205424 0.245374 0.475954 0.11455
H_ H_ 0.186168 0.316073 0.00867872 0.11455
H_ H_ 0.177843 0.293422 0.0589185 0.11455
H_ H_ 0.00468031 0.194647 0.122685 0.11455
H_ H_ -0.00611043 0.184336 0.173481 0.11455
H_ H_ 0.256878 0.187789 0.135672 0.11455
H_ H_ 0.249955 0.172178 0.187202 0.11455
H_ H_ 0.0803886 0.0780042 0.250245 0.11455
H_ H_ 0.0564081 0.0568411 0.300456 0.11455
H_ H_ 0.0733381 0.117543 0.338917 0.11455
H_ H_ 0.168996 0.238451 0.2578 0.11455
H_ H_ 0.189803 0.294057 0.297572 0.11455
H_ H_ 0.192479 0.252911 0.344737 0.11455
H_ H_ 0.207416 0.304501 0.198259 0.11455
H_ H_ 0.132875 0.333823 0.0993059 0.11455
H_ H_ 0.225351 0.333583 0.103651 0.11455
H_ H_ 0.117629 0.312467 0.214929 0.11455
H_ H_ 0.0256431 0.309836 0.210445 0.11455
H_ H_ 0.046111 0.325458 0.117709 0.11455
H_ H_ 0.349894 0.488352 0.189905 0.11455
H_ H_ 0.385587 0.0642303 0.0935 0.11455
H_ H_ 0.399685 0.471014 0.103656 0.11455
H_ H_ 0.369405 0.0730683 0.21315 0.11455
H_ H_ 0.380179 0.16347 0.207583 0.11455
H_ H_ 0.387618 0.148814 0.11422 0.11455
H_ H_ 0.4386 0.389813 0.210234 0.11455
H_ H_ 0.44717 0.423789 0.260234 0.11455
H_ H_ 0.40763 0.375549 0.300657 0.11455
H_ H_ 0.323571 0.254669 0.215275 0.11455
H_ H_ 0.281769 0.209278 0.254068 0.11455
H_ H_ 0.307083 0.220575 0.302733 0.11455
H_ H_ 0.486591 0.304094 0.367441 0.11455
H_ H_ 0.501502 0.30725 0.419743 0.11455
H_ H_ 0.235693 0.319853 0.382326 0.11455
H_ H_ 0.243102 0.30562 0.435764 0.11455
H_ H_ 0.419437 0.408749 0.497718 0.11455
H_ H_ 0.463445 0.438068 0.046001 0.11455
H_ H_ 0.438131 0.378988 0.0849553 0.11455
H_ H_ 0.349709 0.252322 0.00552141 0.11455
H_ H_ 0.305854 0.220502 0.0451488 0.11455
H_ H_ 0.316052 0.248974 0.0941039 0.11455
C_ C_ 0.237949 0.184332 0.406043 0.68181
C_ C_ 0.294784 0.183536 0.400627 -0.05681
C_ C_ 0.327045 0.176136 0.423564 -0.08735
C_ C_ 0.380243 0.171374 0.418558 -0.05681
C_ C_ 0.402414 0.176632 0.390541 -0.05681
C_ C_ 0.368539 0.179248 0.367823 -0.08735
C_ C_ 0.31525 0.182461 0.372704 -0.08735
C_ C_ 0.413026 0.164222 0.441712 -0.08735
C_ C_ 0.463938 0.156169 0.436348 -0.08735
C_ C_ 0.488086 0.166109 0.409428 -0.05681
C_ C_ 0.457172 0.175307 0.386997 -0.08735
C_ C_ 0.140401 0.279601 0.413307 0.68181
C_ C_ 0.14631 0.0857715 0.401525 0.68181
C_ C_ 0.1427 0.0294665 0.399998 -0.05681
C_ C_ 0.140924 0.497092 0.424528 -0.08735
C_ C_ 0.132485 0.443839 0.42348 -0.05681
C_ C_ 0.116526 0.421447 0.397609 -0.05681
C_ C_ 0.108223 0.452177 0.373602 -0.08735
C_ C_ 0.112352 0.50663 0.37495 -0.08735
C_ C_ 0.147546 0.412674 0.445946 -0.08735
C_ C_ 0.150167 0.360134 0.442197 -0.08735
C_ C_ 0.138763 0.337489 0.41631 -0.05681
C_ C_ 0.122464 0.368456 0.393101 -0.08735
C_ C_ 0.0428277 0.183627 0.40642 0.68181
C_ C_ 0.103079 0.133058 0.478849 0.1947
C_ C_ 0.0837975 0.116207 0.00963675 -0.08735
C_ C_ 0.105891 0.14211 0.0325999 -0.08735
C_ C_ 0.132628 0.186557 0.0287096 -0.05681
C_ C_ 0.147811 0.197786 1.00029 0.18498
C_ C_ 0.191023 0.233644 0.497854 -0.08735
C_ C_ 0.18339 0.276938 0.0146697 -0.08735
C_ C_ 0.174926 0.264562 0.0434397 -0.08735
C_ C_ 0.150122 0.21947 0.05106 0.18498
C_ C_ 0.184174 0.206498 0.0986652 0.44287
C_ C_ 0.0947942 0.211501 0.0927448 0.44287
C_ C_ 0.0872833 0.197895 0.122422 -0.05681
C_ C_ 0.0388134 0.192585 0.134879 -0.08735
C_ C_ 0.0310591 0.181152 0.164108 -0.08735
C_ C_ 0.0760592 0.174214 0.181993 -0.05681
C_ C_ 0.124024 0.182843 0.169472 -0.05681
C_ C_ 0.129595 0.191663 0.139885 -0.05681
C_ C_ 0.17804 0.190697 0.127378 -0.05681
C_ C_ 0.22018 0.188513 0.145614 -0.08735
C_ C_ 0.215149 0.179035 0.17422 -0.08735
C_ C_ 0.166405 0.174427 0.186598 -0.05681
C_ C_ 0.163152 0.161626 0.216748 0.44287
C_ C_ 0.0739775 0.167991 0.212697 0.44287
C_ C_ 0.108292 0.150354 0.260119 0.18498
C_ C_ 0.0893921 0.102161 0.266993 -0.08735
C_ C_ 0.0769649 0.0922174 0.295775 -0.08735
C_ C_ 0.0875945 0.127729 0.318009 -0.08735
C_ C_ 0.115486 0.170659 0.31201 0.18498
C_ C_ 0.121576 0.185488 0.282021 -0.05681
C_ C_ 0.151404 0.230086 0.277788 -0.08735
C_ C_ 0.166939 0.259729 0.301013 -0.08735
C_ C_ 0.165248 0.239862 0.327706 0.1947
C_ C_ 0.27974 0.311711 0.153372 0.68181
C_ C_ 0.223928 0.316912 0.150146 -0.05681
C_ C_ 0.190298 0.310702 0.175409 -0.08735
C_ C_ 0.136404 0.310727 0.170886 -0.05681
C_ C_ 0.116711 0.313829 0.142814 -0.05681
C_ C_ 0.150124 0.324673 0.119464 -0.08735
C_ C_ 0.20208 0.324952 0.122846 -0.08735
C_ C_ 0.104139 0.304926 0.193561 -0.08735
C_ C_ 0.0511617 0.311331 0.18986 -0.08735
C_ C_ 0.0309825 0.314994 0.162095 -0.05681
C_ C_ 0.0646421 0.31493 0.137967 -0.08735
C_ C_ 0.382592 0.220892 0.157345 0.68181
C_ C_ 0.371905 0.415912 0.149683 0.68181
C_ C_ 0.37707 0.472504 0.147677 -0.05681
C_ C_ 0.359051 0.00702983 0.16802 -0.08735
C_ C_ 0.371017 0.0592162 0.166121 -0.05681
C_ C_ 0.381378 0.0803048 0.138459 -0.05681
C_ C_ 0.3819 0.0477602 0.115059 -0.08735
C_ C_ 0.396992 0.493243 0.122467 -0.08735
C_ C_ 0.373408 0.090152 0.19083 -0.08735
C_ C_ 0.377994 0.141662 0.1874 -0.08735
C_ C_ 0.383567 0.16486 0.160219 -0.05681
C_ C_ 0.386576 0.132152 0.135678 -0.08735
C_ C_ 0.476897 0.322504 0.149897 0.68181
C_ C_ 0.416709 0.37399 0.228077 0.1947
C_ C_ 0.426964 0.388124 0.256632 -0.08735
C_ C_ 0.402425 0.361799 0.27887 -0.08735
C_ C_ 0.369896 0.320582 0.273176 -0.05681
C_ C_ 0.360294 0.307958 0.244121 0.18498
C_ C_ 0.327309 0.268422 0.237312 -0.08735
C_ C_ 0.30456 0.240133 0.259744 -0.08735
C_ C_ 0.314056 0.251338 0.288083 -0.08735
C_ C_ 0.345929 0.290699 0.295533 0.18498
C_ C_ 0.311426 0.308427 0.343329 0.44287
C_ C_ 0.399127 0.294212 0.339095 0.44287
C_ C_ 0.406884 0.299463 0.369121 -0.05681
C_ C_ 0.453632 0.305918 0.380892 -0.08735
C_ C_ 0.461091 0.307353 0.410954 -0.08735
C_ C_ 0.418811 0.303809 0.429836 -0.05681
C_ C_ 0.369768 0.306401 0.417901 -0.05681
C_ C_ 0.364981 0.306934 0.387039 -0.05681
C_ C_ 0.316992 0.310561 0.374393 -0.05681
C_ C_ 0.273243 0.315708 0.392719 -0.08735
C_ C_ 0.278308 0.30863 0.422674 -0.08735
C_ C_ 0.328117 0.3128 0.43508 -0.05681
C_ C_ 0.334776 0.324613 0.465216 0.44287
C_ C_ 0.424092 0.307718 0.460841 0.44287
C_ C_ 0.390885 0.355746 0.0062179 0.18498
C_ C_ 0.422415 0.397073 0.0137289 -0.08735
C_ C_ 0.439014 0.405514 0.0416921 -0.08735
C_ C_ 0.427294 0.371544 0.0631094 -0.08735
C_ C_ 0.393849 0.332371 0.0580724 0.18498
C_ C_ 0.377347 0.322535 0.0291565 -0.05681
C_ C_ 0.347168 0.278052 0.0242131 -0.08735
C_ C_ 0.325585 0.25422 0.0493464 -0.08735
C_ C_ 0.333531 0.271284 0.076568 0.1947
N_ N_ 0.142411 0.167122 0.477217 -0.29468
N_ N_ 0.1423 0.209622 0.0807259 -0.17154
N_ N_ 0.116343 0.165364 0.230528 -0.17154
N_ N_ 0.133519 0.201712 0.333364 -0.29468
N_ N_ 0.384199 0.336011 0.223701 -0.29468
N_ N_ 0.353196 0.299975 0.326524 -0.17154
N_ N_ 0.382727 0.323032 0.477326 -0.17154
N_ N_ 0.371544 0.305987 0.0806644 -0.29468
O_ O_ 0.221229 0.180341 0.432327 -0.58347
O_ O_ 0.206589 0.194985 0.385932 -0.58347
O_ O_ 0.149863 0.253413 0.435435 -0.58347
O_ O_ 0.129519 0.259513 0.389437 -0.58347
O_ O_ 0.156555 0.10609 0.425115 -0.58347
O_ O_ 0.139831 0.111547 0.378992 -0.58347
O_ O_ 0.072966 0.18397 0.427901 -0.58347
O_ O_ 0.059727 0.178369 0.382067 -0.58347
O_ O_ 0.0555536 0.216991 0.0764757 -0.46727
O_ O_ 0.228994 0.20374 0.0876979 -0.46727
O_ O_ 0.0284457 0.175729 0.22509 -0.46727
O_ O_ 0.204945 0.154869 0.232519 -0.46727
O_ O_ 0.300358 0.31442 0.17798 -0.58347
O_ O_ 0.308332 0.315299 0.131293 -0.58347
O_ O_ 0.383077 0.24731 0.180536 -0.58347
O_ O_ 0.378998 0.238749 0.13238 -0.58347
O_ O_ 0.367226 0.394282 0.173432 -0.58347
O_ O_ 0.381923 0.388769 0.128179 -0.58347
O_ O_ 0.44736 0.328274 0.171033 -0.58347
O_ O_ 0.460398 0.314006 0.124805 -0.58347
O_ O_ 0.437313 0.274435 0.323849 -0.46727
O_ O_ 0.266788 0.316274 0.332529 -0.46727
O_ O_ 0.469885 0.302554 0.47258 -0.46727
O_ O_ 0.295444 0.329083 0.482166 -0.46727
Zn Zn 0.128098 0.191469 0.882425 0.90689
Zn Zn 0.132463 0.178153 0.929927 0.90689
Zn Zn 0.367543 0.30423 0.629444 0.90689
Zn Zn 0.354439 0.317225 0.677697 0.90689
H_ H_ 0.302468 0.200746 0.943449 0.11455
H_ H_ 0.376452 0.149146 0.851677 0.11455
H_ H_ 0.282399 0.143955 0.859623 0.11455
H_ H_ 0.390751 0.200353 0.966504 0.11455
H_ H_ 0.477566 0.194757 0.960982 0.11455
H_ H_ 0.458676 0.151252 0.871893 0.11455
H_ H_ 0.154113 0.00973008 0.938544 0.11455
H_ H_ 0.163758 0.4385 0.854119 0.11455
H_ H_ 0.113234 0.0295955 0.849761 0.11455
H_ H_ 0.0690372 0.426847 0.95988 0.11455
H_ H_ 0.0889491 0.338556 0.957049 0.11455
H_ H_ 0.132863 0.347761 0.870316 0.11455
H_ H_ 0.0857534 0.107923 0.965293 0.11455
H_ H_ 0.0605879 0.0843769 0.506798 0.11455
H_ H_ 0.0993922 0.124931 0.551974 0.11455
H_ H_ 0.193512 0.246809 0.973823 0.11455
H_ H_ 0.23203 0.293185 0.521297 0.11455
H_ H_ 0.216384 0.258671 0.568063 0.11455
H_ H_ 0.00923178 0.211881 0.619992 0.11455
H_ H_ 0.0010099999999999554 0.22059 0.674025 0.11455
H_ H_ 0.25805 0.143075 0.64149 0.11455
H_ H_ 0.243893 0.149299 0.690353 0.11455
H_ H_ 0.0391247 0.108869 0.749806 0.11455
H_ H_ 0.0206437 0.0906599 0.799821 0.11455
H_ H_ 0.0515043 0.148284 0.839576 0.11455
H_ H_ 0.158311 0.25082 0.754068 0.11455
H_ H_ 0.204417 0.289824 0.796304 0.11455
H_ H_ 0.184042 0.264406 0.844835 0.11455
H_ H_ 0.188583 0.325986 0.69458 0.11455
H_ H_ 0.113621 0.312821 0.597726 0.11455
H_ H_ 0.207228 0.306567 0.60398 0.11455
H_ H_ 0.105579 0.334471 0.715828 0.11455
H_ H_ 0.0136503 0.32008 0.709873 0.11455
H_ H_ 0.0285289 0.324974 0.618083 0.11455
H_ H_ 0.341122 0.481853 0.687685 0.11455
H_ H_ 0.382541 0.0556094 0.596062 0.11455
H_ H_ 0.373515 0.466546 0.599144 0.11455
H_ H_ 0.32615 0.0631395 0.708833 0.11455
H_ H_ 0.355239 0.150483 0.70866 0.11455
H_ H_ 0.372678 0.140614 0.618839 0.11455
H_ H_ 0.402752 0.399611 0.713468 0.11455
H_ H_ 0.42068 0.42675 0.762022 0.11455
H_ H_ 0.394946 0.369474 0.80398 0.11455
H_ H_ 0.297783 0.256786 0.720862 0.11455
H_ H_ 0.280174 0.194703 0.762666 0.11455
H_ H_ 0.293847 0.225553 0.80983 0.11455
H_ H_ 0.486337 0.276356 0.872295 0.11455
H_ H_ 0.498543 0.297281 0.922937 0.11455
H_ H_ 0.240041 0.353934 0.882198 0.11455
H_ H_ 0.250825 0.361136 0.934073 0.11455
H_ H_ 0.431192 0.42675 -0.0024880000000000457 0.11455
H_ H_ 0.446101 0.427646 0.546644 0.11455
H_ H_ 0.423406 0.368046 0.585631 0.11455
H_ H_ 0.339328 0.246197 0.504048 0.11455
H_ H_ 0.301582 0.198246 0.545506 0.11455
H_ H_ 0.31341 0.230759 0.592966 0.11455
C_ C_ 0.228306 0.183 0.903891 0.68181
C_ C_ 0.284053 0.182824 0.899745 -0.05681
C_ C_ 0.316926 0.188577 0.923877 -0.08735
C_ C_ 0.370284 0.184381 0.921026 -0.05681
C_ C_ 0.391833 0.173617 0.894216 -0.05681
C_ C_ 0.35938 0.166558 0.870653 -0.08735
C_ C_ 0.306616 0.166188 0.874591 -0.08735
C_ C_ 0.404579 0.196412 0.9442 -0.08735
C_ C_ 0.455068 0.187855 0.941284 -0.08735
C_ C_ 0.475637 0.173807 0.914838 -0.05681
C_ C_ 0.444573 0.168136 0.890989 -0.08735
C_ C_ 0.121376 0.282026 0.911692 0.68181
C_ C_ 0.133691 0.0833819 0.897765 0.68181
C_ C_ 0.129425 0.0255301 0.89547 -0.05681
C_ C_ 0.104867 0.497424 0.920079 -0.08735
C_ C_ 0.104922 0.444658 0.918305 -0.05681
C_ C_ 0.121552 0.421346 0.892792 -0.05681
C_ C_ 0.138902 0.452984 0.870436 -0.08735
C_ C_ 0.141744 0.505433 0.872724 -0.08735
C_ C_ 0.0874264 0.411891 0.940347 -0.08735
C_ C_ 0.0963832 0.361016 0.939326 -0.08735
C_ C_ 0.119417 0.337357 0.915494 -0.05681
C_ C_ 0.123252 0.367823 0.890699 -0.08735
C_ C_ 0.0309403 0.182154 0.909643 0.68181
C_ C_ 0.0988076 0.129719 0.983144 0.1947
C_ C_ 0.0864357 0.117424 0.505352 -0.08735
C_ C_ 0.10602 0.141229 0.531042 -0.08735
C_ C_ 0.138233 0.181551 0.528686 -0.05681
C_ C_ 0.15634 0.195815 0.500536 0.18498
C_ C_ 0.175765 0.240436 0.994008 -0.08735
C_ C_ 0.208209 0.259906 0.52209 -0.08735
C_ C_ 0.195584 0.244593 0.549792 -0.08735
C_ C_ 0.155189 0.208979 0.553329 0.18498
C_ C_ 0.185619 0.177166 0.599797 0.44287
C_ C_ 0.0989986 0.199953 0.592638 0.44287
C_ C_ 0.0901909 0.195056 0.621904 -0.05681
C_ C_ 0.0429372 0.208676 0.633932 -0.08735
C_ C_ 0.0362766 0.20976 0.66456 -0.08735
C_ C_ 0.0774618 0.197719 0.681469 -0.05681
C_ C_ 0.122705 0.183698 0.670171 -0.05681
C_ C_ 0.130257 0.182913 0.639717 -0.05681
C_ C_ 0.178512 0.172249 0.629236 -0.05681
C_ C_ 0.219133 0.157247 0.647616 -0.08735
C_ C_ 0.207396 0.153742 0.676295 -0.08735
C_ C_ 0.161397 0.169 0.688259 -0.05681
C_ C_ 0.151909 0.163522 0.717304 0.44287
C_ C_ 0.0698787 0.194364 0.711445 0.44287
C_ C_ 0.0971292 0.162191 0.758692 0.18498
C_ C_ 0.0608748 0.127298 0.766573 -0.08735
C_ C_ 0.0475371 0.118998 0.795501 -0.08735
C_ C_ 0.0664619 0.150668 0.817664 -0.08735
C_ C_ 0.105489 0.183907 0.812 0.18498
C_ C_ 0.117735 0.193921 0.781533 -0.05681
C_ C_ 0.149989 0.237137 0.775913 -0.08735
C_ C_ 0.174303 0.26152 0.799139 -0.08735
C_ C_ 0.16458 0.246424 0.827263 0.1947
C_ C_ 0.262273 0.308523 0.652632 0.68181
C_ C_ 0.20469 0.315707 0.649773 -0.05681
C_ C_ 0.171664 0.325219 0.673391 -0.08735
C_ C_ 0.11898 0.328429 0.670184 -0.05681
C_ C_ 0.0985503 0.325674 0.64211 -0.05681
C_ C_ 0.130462 0.315938 0.618713 -0.08735
C_ C_ 0.183223 0.313739 0.622458 -0.08735
C_ C_ 0.0884868 0.330168 0.694216 -0.08735
C_ C_ 0.0362257 0.325964 0.690385 -0.08735
C_ C_ 0.0146584 0.331106 0.662526 -0.05681
C_ C_ 0.0456279 0.3311 0.638836 -0.08735
C_ C_ 0.361094 0.211466 0.659392 0.68181
C_ C_ 0.357981 0.410418 0.647891 0.68181
C_ C_ 0.354366 0.467632 0.643897 -0.05681
C_ C_ 0.336242 -0.004711000000000021 0.667395 -0.08735
C_ C_ 0.340676 0.0495838 0.665125 -0.05681
C_ C_ 0.360245 0.0727849 0.640419 -0.05681
C_ C_ 0.366593 0.041342 0.616312 -0.08735
C_ C_ 0.360151 0.489896 0.617127 -0.08735
C_ C_ 0.334927 0.080441 0.688827 -0.08735
C_ C_ 0.348431 0.130783 0.688307 -0.08735
C_ C_ 0.359576 0.154483 0.662111 -0.05681
C_ C_ 0.363922 0.125437 0.638453 -0.08735
C_ C_ 0.458873 0.31299 0.654618 0.68181
C_ C_ 0.387307 0.376562 0.730048 0.1947
C_ C_ 0.398047 0.392133 0.758493 -0.08735
C_ C_ 0.383947 0.36103 0.781012 -0.08735
C_ C_ 0.356357 0.317111 0.775541 -0.05681
C_ C_ 0.345621 0.302744 0.746554 0.18498
C_ C_ 0.315632 0.25906 0.741692 -0.08735
C_ C_ 0.306182 0.225113 0.764331 -0.08735
C_ C_ 0.313875 0.242265 0.79294 -0.08735
C_ C_ 0.339396 0.285442 0.797882 0.18498
C_ C_ 0.312348 0.316914 0.84473 0.44287
C_ C_ 0.396906 0.288773 0.840467 0.44287
C_ C_ 0.403844 0.29307 0.869929 -0.05681
C_ C_ 0.452333 0.287877 0.883364 -0.08735
C_ C_ 0.461075 0.307969 0.911225 -0.08735
C_ C_ 0.418964 0.31883 0.929265 -0.05681
C_ C_ 0.371599 0.322812 0.916516 -0.05681
C_ C_ 0.363704 0.31473 0.88595 -0.05681
C_ C_ 0.315943 0.321132 0.874562 -0.05681
C_ C_ 0.275014 0.339351 0.891221 -0.08735
C_ C_ 0.282315 0.346052 0.920757 -0.08735
C_ C_ 0.330952 0.34126 0.933843 -0.05681
C_ C_ 0.338215 0.351568 0.963249 0.44287
C_ C_ 0.423063 0.324028 0.960323 0.44287
C_ C_ 0.387006 0.33533 0.507216 0.18498
C_ C_ 0.405594 0.382801 0.514337 -0.08735
C_ C_ 0.426667 0.39206 0.5414 -0.08735
C_ C_ 0.41097 0.361959 0.563852 -0.08735
C_ C_ 0.383149 0.318152 0.558814 0.18498
C_ C_ 0.37376 0.302883 0.529764 -0.05681
C_ C_ 0.347797 0.257558 0.52585 -0.08735
C_ C_ 0.32867 0.230211 0.54897 -0.08735
C_ C_ 0.336843 0.247159 0.576612 0.1947
N_ N_ 0.131285 0.167802 0.978687 -0.29468
N_ N_ 0.145823 0.192588 0.581803 -0.17154
N_ N_ 0.105396 0.172599 0.728498 -0.17154
N_ N_ 0.130203 0.20884 0.833751 -0.29468
N_ N_ 0.360473 0.332082 0.724186 -0.29468
N_ N_ 0.35119 0.297479 0.828476 -0.17154
N_ N_ 0.383076 0.342554 0.976603 -0.17154
N_ N_ 0.36352 0.290493 0.580559 -0.29468
O_ O_ 0.208638 0.179169 0.929193 -0.58347
O_ O_ 0.200927 0.183796 0.882144 -0.58347
O_ O_ 0.122618 0.252602 0.933177 -0.58347
O_ O_ 0.130801 0.264454 0.88689 -0.58347
O_ O_ 0.140985 0.10289 0.922399 -0.58347
O_ O_ 0.123141 0.11269 0.876121 -0.58347
O_ O_ 0.0586889 0.16761 0.930297 -0.58347
O_ O_ 0.052598 0.198472 0.886443 -0.58347
O_ O_ 0.0630001 0.215445 0.576222 -0.46727
O_ O_ 0.23193 0.169031 0.588308 -0.46727
O_ O_ 0.0290263 0.20655 0.724606 -0.46727
O_ O_ 0.186479 0.143163 0.734237 -0.46727
O_ O_ 0.280932 0.311446 0.677733 -0.58347
O_ O_ 0.291373 0.301804 0.631115 -0.58347
O_ O_ 0.35647 0.238747 0.681487 -0.58347
O_ O_ 0.369736 0.231751 0.635384 -0.58347
O_ O_ 0.348562 0.391666 0.67195 -0.58347
O_ O_ 0.362459 0.38306 0.626038 -0.58347
O_ O_ 0.429823 0.321196 0.675939 -0.58347
O_ O_ 0.439677 0.303183 0.630132 -0.58347
O_ O_ 0.434996 0.273139 0.823668 -0.46727
O_ O_ 0.266588 0.32518 0.831228 -0.46727
O_ O_ 0.465805 0.313012 0.97309 -0.46727
O_ O_ 0.298492 0.360713 0.978649 -0.46727
Zn Zn 0.135141 0.687627 0.384068 0.90689
Zn Zn 0.144812 0.679021 0.431691 0.90689
Zn Zn 0.381845 0.811849 0.131403 0.90689
Zn Zn 0.373055 0.821785 0.179882 0.90689
H_ H_ 0.309873 0.693223 0.442714 0.11455
H_ H_ 0.384249 0.665734 0.348522 0.11455
H_ H_ 0.29102 0.653805 0.354579 0.11455
H_ H_ 0.39779 0.689418 0.464593 0.11455
H_ H_ 0.491088 0.691482 0.456928 0.11455
H_ H_ 0.46697 0.680194 0.366404 0.11455
H_ H_ 0.15392 0.516192 0.444603 0.11455
H_ H_ 0.1497 0.931322 0.35113 0.11455
H_ H_ 0.109087 0.527355 0.354944 0.11455
H_ H_ 0.141544 0.93148 0.468454 0.11455
H_ H_ 0.146357 0.837603 0.464732 0.11455
H_ H_ 0.148913 0.850916 0.37458 0.11455
H_ H_ 0.0970926 0.611681 0.468242 0.11455
H_ H_ 0.0597753 0.583472 0.0224258 0.11455
H_ H_ 0.0989713 0.631951 0.0620341 0.11455
H_ H_ 0.204306 0.750521 0.475847 0.11455
H_ H_ 0.221602 0.799337 0.0126606 0.11455
H_ H_ 0.210974 0.7779 0.0649212 0.11455
H_ H_ 0.0250571 0.714959 0.127711 0.11455
H_ H_ 0.0123981 0.700195 0.178332 0.11455
H_ H_ 0.27139 0.651009 0.13939 0.11455
H_ H_ 0.253313 0.628441 0.190126 0.11455
H_ H_ 0.0879828 0.578531 0.252012 0.11455
H_ H_ 0.065011 0.554508 0.302828 0.11455
H_ H_ 0.0835269 0.617285 0.340782 0.11455
H_ H_ 0.168279 0.744071 0.258196 0.11455
H_ H_ 0.195473 0.793591 0.297739 0.11455
H_ H_ 0.18345 0.768021 0.346782 0.11455
H_ H_ 0.201417 0.800175 0.196388 0.11455
H_ H_ 0.132655 0.830079 0.0962709 0.11455
H_ H_ 0.229531 0.830553 0.10569 0.11455
H_ H_ 0.116729 0.809661 0.214441 0.11455
H_ H_ 0.0259766 0.815174 0.207119 0.11455
H_ H_ 0.0453664 0.821994 0.114513 0.11455
H_ H_ 0.350475 0.988163 0.189148 0.11455
H_ H_ 0.422587 0.564074 0.100692 0.11455
H_ H_ 0.391629 0.971031 0.0997113 0.11455
H_ H_ 0.352128 0.571426 0.212777 0.11455
H_ H_ 0.355049 0.665706 0.207621 0.11455
H_ H_ 0.411531 0.647736 0.122569 0.11455
H_ H_ 0.432297 0.890518 0.215116 0.11455
H_ H_ 0.451437 0.915626 0.262997 0.11455
H_ H_ 0.400324 0.882961 0.30425 0.11455
H_ H_ 0.310308 0.760218 0.224082 0.11455
H_ H_ 0.285695 0.70085 0.26323 0.11455
H_ H_ 0.298356 0.729144 0.312429 0.11455
H_ H_ 0.487897 0.804455 0.369873 0.11455
H_ H_ 0.498415 0.802435 0.421137 0.11455
H_ H_ 0.235831 0.832338 0.388889 0.11455
H_ H_ 0.247784 0.834771 0.442499 0.11455
H_ H_ 0.441738 0.895269 0.501836 0.11455
H_ H_ 0.430437 0.942317 0.0448358 0.11455
H_ H_ 0.414888 0.889698 0.0845308 0.11455
H_ H_ 0.36223 0.736754 0.0077088 0.11455
H_ H_ 0.333747 0.689942 0.0503452 0.11455
H_ H_ 0.325148 0.729288 0.0950622 0.11455
C_ C_ 0.23748 0.677324 0.40215 0.68181
C_ C_ 0.294147 0.679543 0.398854 -0.05681
C_ C_ 0.326398 0.690104 0.421944 -0.08735
C_ C_ 0.38108 0.693132 0.418906 -0.05681
C_ C_ 0.399176 0.685282 0.391297 -0.05681
C_ C_ 0.367771 0.673754 0.368639 -0.08735
C_ C_ 0.315098 0.670225 0.371683 -0.08735
C_ C_ 0.41277 0.695035 0.442154 -0.08735
C_ C_ 0.465476 0.690251 0.437688 -0.08735
C_ C_ 0.484771 0.682272 0.410759 -0.05681
C_ C_ 0.451656 0.681849 0.38749 -0.08735
C_ C_ 0.138141 0.781962 0.416576 0.68181
C_ C_ 0.134584 0.58463 0.401935 0.68181
C_ C_ 0.130161 0.528874 0.400177 -0.05681
C_ C_ 0.147504 0.999515 0.424889 -0.08735
C_ C_ 0.141925 0.945363 0.42294 -0.05681
C_ C_ 0.142879 0.921124 0.396532 -0.05681
C_ C_ 0.146041 0.95066 0.372167 -0.08735
C_ C_ 0.141796 1.0041732 0.372782 -0.08735
C_ C_ 0.137994 0.916158 0.447017 -0.08735
C_ C_ 0.138448 0.861312 0.445703 -0.08735
C_ C_ 0.138756 0.838391 0.419033 -0.05681
C_ C_ 0.140935 0.868138 0.39461 -0.08735
C_ C_ 0.0401999 0.68574 0.410843 0.68181
C_ C_ 0.114738 0.630677 0.485355 0.1947
C_ C_ 0.0855322 0.611747 0.0167347 -0.08735
C_ C_ 0.105086 0.641058 0.0392737 -0.08735
C_ C_ 0.139072 0.68153 0.0333332 -0.05681
C_ C_ 0.147843 0.692776 1.00356323 0.18498
C_ C_ 0.19104 0.745186 0.497674 -0.08735
C_ C_ 0.203658 0.762963 0.0191094 -0.08735
C_ C_ 0.193271 0.752519 0.0475471 -0.08735
C_ C_ 0.162748 0.711552 0.0555908 0.18498
C_ C_ 0.198875 0.686444 0.102059 0.44287
C_ C_ 0.112269 0.705271 0.0990213 0.44287
C_ C_ 0.104361 0.695345 0.128177 -0.05681
C_ C_ 0.05817 0.702966 0.140718 -0.08735
C_ C_ 0.0500597 0.690778 0.170248 -0.08735
C_ C_ 0.0934595 0.683539 0.186601 -0.05681
C_ C_ 0.139935 0.675383 0.173636 -0.05681
C_ C_ 0.146237 0.684902 0.144194 -0.05681
C_ C_ 0.194698 0.679031 0.131352 -0.05681
C_ C_ 0.236515 0.662149 0.148333 -0.08735
C_ C_ 0.229662 0.652775 0.178905 -0.08735
C_ C_ 0.180764 0.660243 0.191731 -0.05681
C_ C_ 0.174182 0.65375 0.221224 0.44287
C_ C_ 0.0887622 0.678286 0.216357 0.44287
C_ C_ 0.121327 0.648307 0.261454 0.18498
C_ C_ 0.0964247 0.60391 0.268841 -0.08735
C_ C_ 0.0870325 0.590865 0.297337 -0.08735
C_ C_ 0.096694 0.625161 0.320018 -0.08735
C_ C_ 0.124713 0.670129 0.314012 0.18498
C_ C_ 0.134336 0.681841 0.284455 -0.05681
C_ C_ 0.158667 0.728719 0.278786 -0.08735
C_ C_ 0.174876 0.758821 0.301822 -0.08735
C_ C_ 0.165651 0.745372 0.329952 0.1947
C_ C_ 0.278804 0.804359 0.155923 0.68181
C_ C_ 0.22159 0.809271 0.15007 -0.05681
C_ C_ 0.187534 0.808238 0.173752 -0.08735
C_ C_ 0.13558 0.811109 0.169436 -0.05681
C_ C_ 0.116431 0.815472 0.140822 -0.05681
C_ C_ 0.150131 0.820468 0.117337 -0.08735
C_ C_ 0.203015 0.823682 0.122418 -0.08735
C_ C_ 0.102642 0.80575 0.192614 -0.08735
C_ C_ 0.0514107 0.816274 0.188237 -0.08735
C_ C_ 0.0303723 0.822 0.160581 -0.05681
C_ C_ 0.0632942 0.820159 0.136366 -0.08735
C_ C_ 0.380091 0.716877 0.160375 0.68181
C_ C_ 0.366915 0.916259 0.149062 0.68181
C_ C_ 0.372959 0.973063 0.144984 -0.05681
C_ C_ 0.369556 0.503841 0.170623 -0.08735
C_ C_ 0.384725 0.555518 0.170541 -0.05681
C_ C_ 0.398145 0.578316 0.144553 -0.05681
C_ C_ 0.409968 0.547765 0.120792 -0.08735
C_ C_ 0.38336 -0.005469999999999975 0.118361 -0.08735
C_ C_ 0.368067 0.58738 0.193201 -0.08735
C_ C_ 0.366247 0.641119 0.190135 -0.08735
C_ C_ 0.377892 0.662257 0.162999 -0.05681
C_ C_ 0.401032 0.630819 0.142314 -0.08735
C_ C_ 0.476019 0.827074 0.155473 0.68181
C_ C_ 0.415226 0.868858 0.231841 0.1947
C_ C_ 0.420497 0.888035 0.258588 -0.08735
C_ C_ 0.395862 0.867545 0.282428 -0.08735
C_ C_ 0.360809 0.827253 0.278232 -0.05681
C_ C_ 0.357895 0.807038 0.249231 0.18498
C_ C_ 0.325215 0.765579 0.244337 -0.08735
C_ C_ 0.306379 0.736682 0.267131 -0.08735
C_ C_ 0.309234 0.756515 0.294898 -0.08735
C_ C_ 0.339854 0.799035 0.301608 0.18498
C_ C_ 0.310271 0.822155 0.348166 0.44287
C_ C_ 0.39616 0.805707 0.342235 0.44287
C_ C_ 0.406105 0.811508 0.371506 -0.05681
C_ C_ 0.454761 0.813032 0.382538 -0.08735
C_ C_ 0.461641 0.812982 0.412262 -0.08735
C_ C_ 0.420845 0.81464 0.431844 -0.05681
C_ C_ 0.370836 0.818094 0.421021 -0.05681
C_ C_ 0.364294 0.817266 0.390652 -0.05681
C_ C_ 0.315779 0.822152 0.378936 -0.05681
C_ C_ 0.273312 0.825564 0.39769 -0.08735
C_ C_ 0.280562 0.825594 0.427981 -0.08735
C_ C_ 0.329047 0.822853 0.439222 -0.05681
C_ C_ 0.339336 0.830906 0.468911 0.44287
C_ C_ 0.427922 0.814561 0.462704 0.44287
C_ C_ 0.390324 0.836991 0.0093857 0.18498
C_ C_ 0.405965 0.889141 0.0129051 -0.08735
C_ C_ 0.421034 0.903291 0.0403308 -0.08735
C_ C_ 0.410466 0.870055 0.0641955 -0.08735
C_ C_ 0.387949 0.822613 0.060966 0.18498
C_ C_ 0.38204 0.804668 0.0321576 -0.05681
C_ C_ 0.362214 0.75511 0.028948 -0.08735
C_ C_ 0.349792 0.727504 0.0534341 -0.08735
C_ C_ 0.345486 0.749522 0.079357 0.1947
N_ N_ 0.145706 0.671086 0.480308 -0.29468
N_ N_ 0.158151 0.702096 0.0863426 -0.17154
N_ N_ 0.127522 0.660974 0.232665 -0.17154
N_ N_ 0.137014 0.702508 0.336346 -0.29468
N_ N_ 0.379863 0.831936 0.226403 -0.29468
N_ N_ 0.349593 0.81396 0.331024 -0.17154
N_ N_ 0.386978 0.822245 0.480274 -0.17154
N_ N_ 0.373013 0.793472 0.083575 -0.29468
O_ O_ 0.217294 0.678622 0.426791 -0.58347
O_ O_ 0.21053 0.685235 0.380761 -0.58347
O_ O_ 0.138664 0.752822 0.438274 -0.58347
O_ O_ 0.139226 0.761283 0.392436 -0.58347
O_ O_ 0.144268 0.604224 0.425983 -0.58347
O_ O_ 0.132665 0.611586 0.37946 -0.58347
O_ O_ 0.0695115 0.674781 0.432327 -0.58347
O_ O_ 0.0595887 0.68982 0.386578 -0.58347
O_ O_ 0.0746384 0.725654 0.0846981 -0.46727
O_ O_ 0.241721 0.675702 0.0897498 -0.46727
O_ O_ 0.0499246 0.697818 0.228912 -0.46727
O_ O_ 0.212118 0.642291 0.238436 -0.46727
O_ O_ 0.296946 0.822157 0.178929 -0.58347
O_ O_ 0.307977 0.795335 0.134618 -0.58347
O_ O_ 0.365738 0.74343 0.181606 -0.58347
O_ O_ 0.399726 0.738908 0.139032 -0.58347
O_ O_ 0.37622 0.898001 0.173613 -0.58347
O_ O_ 0.362075 0.885926 0.12777 -0.58347
O_ O_ 0.447934 0.82139 0.177608 -0.58347
O_ O_ 0.458086 0.827959 0.130248 -0.58347
O_ O_ 0.433522 0.788403 0.325918 -0.46727
O_ O_ 0.265354 0.835214 0.337425 -0.46727
O_ O_ 0.474955 0.808204 0.47281 -0.46727
O_ O_ 0.305511 0.85218 0.486478 -0.46727
Zn Zn 0.117368 0.683853 0.883743 0.90689
Zn Zn 0.129995 0.673485 0.931854 0.90689
Zn Zn 0.362937 0.806396 0.631167 0.90689
Zn Zn 0.354434 0.812234 0.679463 0.90689
H_ H_ 0.294459 0.701516 0.944828 0.11455
H_ H_ 0.363374 0.677569 0.847998 0.11455
H_ H_ 0.273182 0.678989 0.855948 0.11455
H_ H_ 0.386918 0.682278 0.96485 0.11455
H_ H_ 0.474049 0.678092 0.957744 0.11455
H_ H_ 0.455195 0.68915 0.867027 0.11455
H_ H_ 0.0924337 0.512924 0.93936 0.11455
H_ H_ 0.10446 0.932825 0.84686 0.11455
H_ H_ 0.163144 0.528185 0.858006 0.11455
H_ H_ 0.16867 0.924417 0.960809 0.11455
H_ H_ 0.152487 0.83769 0.957402 0.11455
H_ H_ 0.0953215 0.845456 0.868988 0.11455
H_ H_ 0.0834278 0.597818 0.970478 0.11455
H_ H_ 0.0838582 0.581509 0.518462 0.11455
H_ H_ 0.112999 0.635308 0.557915 0.11455
H_ H_ 0.193917 0.741029 0.976328 0.11455
H_ H_ 0.220632 0.814926 0.516341 0.11455
H_ H_ 0.179624 0.799882 0.563823 0.11455
H_ H_ 1.0196124 0.71841 0.627978 0.11455
H_ H_ 1.0116663 0.707016 0.678827 0.11455
H_ H_ 0.264826 0.648458 0.636665 0.11455
H_ H_ 0.254794 0.638067 0.690366 0.11455
H_ H_ 0.0946531 0.571714 0.749621 0.11455
H_ H_ 0.0659453 0.544886 0.79767 0.11455
H_ H_ 0.0755292 0.603165 0.838914 0.11455
H_ H_ 0.136545 0.747456 0.760003 0.11455
H_ H_ 0.167327 0.794216 0.801469 0.11455
H_ H_ 0.160903 0.760657 0.8492 0.11455
H_ H_ 0.184219 0.806859 0.694477 0.11455
H_ H_ 0.119516 0.852789 0.598805 0.11455
H_ H_ 0.206477 0.82834 0.603436 0.11455
H_ H_ 0.0992491 0.817974 0.71579 0.11455
H_ H_ 0.0105573 0.826091 0.707894 0.11455
H_ H_ 0.031881 0.833286 0.615919 0.11455
H_ H_ 0.323152 0.979186 0.686416 0.11455
H_ H_ 0.368628 0.561888 0.594108 0.11455
H_ H_ 0.380297 0.963717 0.601882 0.11455
H_ H_ 0.349839 0.565684 0.712177 0.11455
H_ H_ 0.36595 0.657683 0.708183 0.11455
H_ H_ 0.370009 0.64742 0.617877 0.11455
H_ H_ 0.411298 0.890542 0.713814 0.11455
H_ H_ 0.430293 0.917938 0.760963 0.11455
H_ H_ 0.400029 0.873575 0.803089 0.11455
H_ H_ 0.3079 0.743467 0.7275 0.11455
H_ H_ 0.269376 0.703171 0.768165 0.11455
H_ H_ 0.312819 0.715117 0.815011 0.11455
H_ H_ 0.494846 0.810558 0.874108 0.11455
H_ H_ 0.504207 0.805644 0.923226 0.11455
H_ H_ 0.240497 0.845647 0.886072 0.11455
H_ H_ 0.253963 0.854792 0.937206 0.11455
H_ H_ 0.413137 0.914184 0.994617 0.11455
H_ H_ 0.453197 0.91814 0.551715 0.11455
H_ H_ 0.421017 0.865617 0.589602 0.11455
H_ H_ 0.329768 0.750806 0.505268 0.11455
H_ H_ 0.285019 0.707006 0.544989 0.11455
H_ H_ 0.311373 0.729702 0.595956 0.11455
C_ C_ 0.222524 0.685483 0.905749 0.68181
C_ C_ 0.276621 0.686306 0.901071 -0.05681
C_ C_ 0.309681 0.683667 0.925352 -0.08735
C_ C_ 0.362166 0.686272 0.920525 -0.05681
C_ C_ 0.382213 0.68516 0.891326 -0.05681
C_ C_ 0.350639 0.685796 0.869684 -0.08735
C_ C_ 0.298168 0.681985 0.873616 -0.08735
C_ C_ 0.397282 0.679867 0.942599 -0.08735
C_ C_ 0.449249 0.680138 0.938443 -0.08735
C_ C_ 0.469698 0.682073 0.910424 -0.05681
C_ C_ 0.435686 0.686193 0.887024 -0.08735
C_ C_ 0.119475 0.777725 0.912612 0.68181
C_ C_ 0.125576 0.583386 0.901894 0.68181
C_ C_ 0.123633 0.527836 0.897502 -0.05681
C_ C_ 0.145081 0.994913 0.917905 -0.08735
C_ C_ 0.138905 0.940768 0.917169 -0.05681
C_ C_ 0.120739 0.917625 0.891018 -0.05681
C_ C_ 0.113981 0.949441 0.866668 -0.08735
C_ C_ 0.117377 0.00357587 0.869304 -0.08735
C_ C_ 0.154262 0.909247 0.940164 -0.08735
C_ C_ 0.14658 0.856604 0.937782 -0.08735
C_ C_ 0.125872 0.833544 0.912048 -0.05681
C_ C_ 0.113629 0.862393 0.888537 -0.08735
C_ C_ 0.0276492 0.666313 0.912065 0.68181
C_ C_ 0.0972334 0.623564 0.988103 0.1947
C_ C_ 0.100678 0.618554 0.513477 -0.08735
C_ C_ 0.121199 0.645812 0.536238 -0.08735
C_ C_ 0.14957 0.689703 0.530704 -0.05681
C_ C_ 0.161507 0.702209 0.502237 0.18498
C_ C_ 0.179885 0.733259 0.997204 -0.08735
C_ C_ 0.200999 0.779818 0.52038 -0.08735
C_ C_ 0.181045 0.770739 0.547711 -0.08735
C_ C_ 0.161462 0.721277 0.554254 0.18498
C_ C_ 0.194492 0.691439 0.59999 0.44287
C_ C_ 0.107443 0.714309 0.597097 0.44287
C_ C_ 0.102981 0.706907 0.626954 -0.05681
C_ C_ 0.0555982 0.712047 0.640188 -0.08735
C_ C_ 0.0495936 0.703017 0.670132 -0.08735
C_ C_ 0.0894836 0.68413 0.686463 -0.05681
C_ C_ 0.136636 0.675401 0.672658 -0.05681
C_ C_ 0.143037 0.689833 0.643196 -0.05681
C_ C_ 0.189902 0.683216 0.63024 -0.05681
C_ C_ 0.231803 0.663509 0.646528 -0.08735
C_ C_ 0.225271 0.656718 0.676983 -0.08735
C_ C_ 0.177948 0.661275 0.689642 -0.05681
C_ C_ 0.172294 0.65554 0.71898 0.44287
C_ C_ 0.0860773 0.677234 0.715851 0.44287
C_ C_ 0.116038 0.646136 0.761465 0.18498
C_ C_ 0.0973204 0.597963 0.766751 -0.08735
C_ C_ 0.0837396 0.582251 0.794436 -0.08735
C_ C_ 0.0924606 0.613313 0.818323 -0.08735
C_ C_ 0.116181 0.660818 0.813896 0.18498
C_ C_ 0.123675 0.678453 0.784917 -0.05681
C_ C_ 0.140399 0.727395 0.780842 -0.08735
C_ C_ 0.150737 0.756838 0.804187 -0.08735
C_ C_ 0.145036 0.738238 0.831267 0.1947
C_ C_ 0.261491 0.811718 0.653506 0.68181
C_ C_ 0.204301 0.816374 0.649675 -0.05681
C_ C_ 0.171254 0.819317 0.674363 -0.08735
C_ C_ 0.119156 0.824204 0.670194 -0.05681
C_ C_ 0.098432 0.832774 0.642515 -0.05681
C_ C_ 0.133395 0.844055 0.619701 -0.08735
C_ C_ 0.184619 0.831404 0.622922 -0.08735
C_ C_ 0.0855613 0.821196 0.693473 -0.08735
C_ C_ 0.0323627 0.827437 0.689622 -0.08735
C_ C_ 0.0121484 0.832089 0.661727 -0.05681
C_ C_ 0.0454018 0.83099 0.638039 -0.08735
C_ C_ 0.366498 0.713762 0.66105 0.68181
C_ C_ 0.348233 0.909871 0.647749 0.68181
C_ C_ 0.343762 0.965736 0.643893 -0.05681
C_ C_ 0.350031 0.498083 0.66797 -0.08735
C_ C_ 0.35958 0.550953 0.66655 -0.05681
C_ C_ 0.359889 0.574345 0.639523 -0.05681
C_ C_ 0.362525 0.543663 0.614683 -0.08735
C_ C_ 0.360183 0.9883 0.617943 -0.08735
C_ C_ 0.362515 0.580616 0.692148 -0.08735
C_ C_ 0.363235 0.632848 0.68989 -0.08735
C_ C_ 0.364177 0.658134 0.662937 -0.05681
C_ C_ 0.362527 0.627765 0.637464 -0.08735
C_ C_ 0.458319 0.823317 0.652194 0.68181
C_ C_ 0.394742 0.868221 0.730828 0.1947
C_ C_ 0.40625 0.886444 0.75887 -0.08735
C_ C_ 0.390816 0.858908 0.782139 -0.08735
C_ C_ 0.364068 0.814639 0.778836 -0.05681
C_ C_ 0.353863 0.795901 0.750365 0.18498
C_ C_ 0.326458 0.752049 0.746945 -0.08735
C_ C_ 0.303943 0.72636 0.770464 -0.08735
C_ C_ 0.322162 0.738097 0.797626 -0.08735
C_ C_ 0.349721 0.784142 0.802673 0.18498
C_ C_ 0.313671 0.813542 0.848799 0.44287
C_ C_ 0.403083 0.802359 0.843711 0.44287
C_ C_ 0.411018 0.812422 0.872589 -0.05681
C_ C_ 0.459621 0.812983 0.885145 -0.08735
C_ C_ 0.464805 0.814174 0.91491 -0.08735
C_ C_ 0.421715 0.814212 0.932623 -0.05681
C_ C_ 0.373206 0.817864 0.92082 -0.05681
C_ C_ 0.368421 0.817757 0.890903 -0.05681
C_ C_ 0.320345 0.823186 0.877721 -0.05681
C_ C_ 0.279235 0.839562 0.894794 -0.08735
C_ C_ 0.284905 0.841453 0.925451 -0.08735
C_ C_ 0.32976 0.828376 0.937981 -0.05681
C_ C_ 0.335808 0.82515 0.968469 0.44287
C_ C_ 0.424152 0.811532 0.963745 0.44287
C_ C_ 0.393359 0.832908 0.510648 0.18498
C_ C_ 0.418984 0.875797 0.51838 -0.08735
C_ C_ 0.427801 0.887703 0.546994 -0.08735
C_ C_ 0.407897 0.859768 0.568309 -0.08735
C_ C_ 0.376132 0.818238 0.56077 0.18498
C_ C_ 0.369914 0.803377 0.532378 -0.05681
C_ C_ 0.340305 0.759702 0.527534 -0.08735
C_ C_ 0.314993 0.734677 0.549585 -0.08735
C_ C_ 0.327751 0.748157 0.577365 0.1947
N_ N_ 0.130826 0.662184 0.981455 -0.29468
N_ N_ 0.152738 0.706408 0.584135 -0.17154
N_ N_ 0.125242 0.659277 0.731588 -0.17154
N_ N_ 0.124896 0.69205 0.836036 -0.29468
N_ N_ 0.367333 0.824592 0.72686 -0.29468
N_ N_ 0.355228 0.80278 0.832051 -0.17154
N_ N_ 0.383771 0.820164 0.980599 -0.17154
N_ N_ 0.357404 0.788725 0.582472 -0.29468
O_ O_ 0.203899 0.668336 0.927953 -0.58347
O_ O_ 0.193855 0.699708 0.885895 -0.58347
O_ O_ 0.135609 0.751117 0.932251 -0.58347
O_ O_ 0.103711 0.755656 0.890174 -0.58347
O_ O_ 0.127038 0.601012 0.928121 -0.58347
O_ O_ 0.133388 0.612915 0.881077 -0.58347
O_ O_ 0.0558141 0.67786 0.932418 -0.58347
O_ O_ 0.0459032 0.665415 0.886499 -0.58347
O_ O_ 0.0666521 0.730421 0.58268 -0.46727
O_ O_ 0.230314 0.668582 0.585823 -0.46727
O_ O_ 0.0403062 0.676139 0.727287 -0.46727
O_ O_ 0.212425 0.645727 0.735052 -0.46727
O_ O_ 0.278939 0.803316 0.678224 -0.58347
O_ O_ 0.288423 0.807922 0.630793 -0.58347
O_ O_ 0.366967 0.742457 0.682654 -0.58347
O_ O_ 0.368677 0.733774 0.637168 -0.58347
O_ O_ 0.34713 0.887633 0.671934 -0.58347
O_ O_ 0.358058 0.883629 0.626156 -0.58347
O_ O_ 0.430252 0.824235 0.674602 -0.58347
O_ O_ 0.439327 0.811283 0.627553 -0.58347
O_ O_ 0.443724 0.797499 0.828001 -0.46727
O_ O_ 0.267018 0.81119 0.838299 -0.46727
O_ O_ 0.466353 0.797998 0.975517 -0.46727
O_ O_ 0.296955 0.830238 0.985472 -0.46727
Zn Zn 0.636324 0.177688 0.382103 0.90689
Zn Zn 0.642153 0.169214 0.4295 0.90689
Zn Zn 0.883585 0.323294 0.133801 0.90689
Zn Zn 0.874548 0.331902 0.181655 0.90689
H_ H_ 0.81649 0.171326 0.447408 0.11455
H_ H_ 0.886375 0.197134 0.349384 0.11455
H_ H_ 0.791991 0.202785 0.357822 0.11455
H_ H_ 0.900001 0.169284 0.465755 0.11455
H_ H_ 0.994413 0.175703 0.456741 0.11455
H_ H_ 0.969316 0.197692 0.365053 0.11455
H_ H_ 0.633868 0.0100138 0.438524 0.11455
H_ H_ 0.632922 0.419784 0.350584 0.11455
H_ H_ 0.667522 0.0173569 0.350055 0.11455
H_ H_ 0.598276 0.419553 0.465353 0.11455
H_ H_ 0.601488 0.327427 0.461701 0.11455
H_ H_ 0.616077 0.339926 0.37206 0.11455
H_ H_ 0.591053 0.0941794 0.462814 0.11455
H_ H_ 0.579152 0.0814234 0.0212362 0.11455
H_ H_ 0.622113 0.126596 0.0618487 0.11455
H_ H_ 0.701275 0.232667 0.476601 0.11455
H_ H_ 0.714495 0.317308 0.0155375 0.11455
H_ H_ 0.705997 0.287575 0.0655702 0.11455
H_ H_ 0.517388 0.199104 0.119777 0.11455
H_ H_ 0.504443 0.192377 0.175028 0.11455
H_ H_ 0.766272 0.185641 0.144455 0.11455
H_ H_ 0.750189 0.169285 0.197609 0.11455
H_ H_ 0.556865 0.0948394 0.247916 0.11455
H_ H_ 0.53413 0.0671181 0.29615 0.11455
H_ H_ 0.56672 0.115381 0.338712 0.11455
H_ H_ 0.644471 0.252615 0.262682 0.11455
H_ H_ 0.693383 0.288885 0.300978 0.11455
H_ H_ 0.677605 0.25295 0.348574 0.11455
H_ H_ 0.703286 0.314028 0.193465 0.11455
H_ H_ 0.64221 0.354563 0.0972282 0.11455
H_ H_ 0.733099 0.356305 0.10769 0.11455
H_ H_ 0.614899 0.297834 0.210545 0.11455
H_ H_ 0.522443 0.304826 0.201727 0.11455
H_ H_ 0.559411 0.337039 0.112138 0.11455
H_ H_ 0.855855 0.495424 0.193798 0.11455
H_ H_ 0.833789 0.0741336 0.105207 0.11455
H_ H_ 0.912258 0.483091 0.10808 0.11455
H_ H_ 0.89476 0.0779096 0.218816 0.11455
H_ H_ 0.900341 0.172234 0.212184 0.11455
H_ H_ 0.851826 0.159031 0.125216 0.11455
H_ H_ 0.937942 0.396209 0.219756 0.11455
H_ H_ 0.941684 0.438041 0.267022 0.11455
H_ H_ 0.895288 0.398062 0.306856 0.11455
H_ H_ 0.806842 0.274608 0.224943 0.11455
H_ H_ 0.787758 0.214774 0.264726 0.11455
H_ H_ 0.806341 0.239585 0.31328 0.11455
H_ H_ 0.976655 0.323157 0.376737 0.11455
H_ H_ -0.02335699999999996 0.31422 0.43058 0.11455
H_ H_ 0.724645 0.35543 0.387709 0.11455
H_ H_ 0.732344 0.349601 0.438038 0.11455
H_ H_ 0.904681 0.429049 0.498924 0.11455
H_ H_ 0.966411 0.441551 0.0458633 0.11455
H_ H_ 0.931421 0.394776 0.087521 0.11455
H_ H_ 0.843296 0.256484 0.0101632 0.11455
H_ H_ 0.804831 0.220371 0.0536949 0.11455
H_ H_ 0.832951 0.248584 0.0998849 0.11455
C_ C_ 0.737121 0.185275 0.405797 0.68181
C_ C_ 0.793534 0.185956 0.402186 -0.05681
C_ C_ 0.828238 0.182361 0.426089 -0.08735
C_ C_ 0.881795 0.185808 0.421498 -0.05681
C_ C_ 0.902102 0.189224 0.393741 -0.05681
C_ C_ 0.868825 0.192046 0.370668 -0.08735
C_ C_ 0.815545 0.196017 0.375009 -0.08735
C_ C_ 0.916358 0.175926 0.443526 -0.08735
C_ C_ 0.969086 0.174311 0.438773 -0.08735
C_ C_ 0.987788 0.184829 0.410761 -0.05681
C_ C_ 0.955416 0.191933 0.388238 -0.08735
C_ C_ 0.631628 0.26956 0.415508 0.68181
C_ C_ 0.649126 0.0773392 0.39731 0.68181
C_ C_ 0.653398 0.0202151 0.395314 -0.05681
C_ C_ 0.633903 0.486518 0.424136 -0.08735
C_ C_ 0.626704 0.432381 0.421612 -0.05681
C_ C_ 0.632094 0.40887 0.395092 -0.05681
C_ C_ 0.635595 0.438997 0.370983 -0.08735
C_ C_ 0.637137 0.492562 0.372628 -0.08735
C_ C_ 0.617263 0.401255 0.44722 -0.08735
C_ C_ 0.618764 0.348393 0.444837 -0.08735
C_ C_ 0.625034 0.325639 0.417884 -0.05681
C_ C_ 0.625235 0.35635 0.39278 -0.08735
C_ C_ 0.543292 0.171016 0.407282 0.68181
C_ C_ 0.607467 0.113947 0.480651 0.1947
C_ C_ 0.595446 0.118081 0.0173904 -0.08735
C_ C_ 0.622983 0.142681 0.0399226 -0.08735
C_ C_ 0.648923 0.188102 0.0337816 -0.05681
C_ C_ 0.650685 0.203924 1.00478093 0.18498
C_ C_ 0.679053 0.22776 0.496342 -0.08735
C_ C_ 0.699461 0.279039 0.0198255 -0.08735
C_ C_ 0.690404 0.26485 0.048866 -0.08735
C_ C_ 0.668791 0.218874 0.056367 0.18498
C_ C_ 0.697095 0.197797 0.104058 0.44287
C_ C_ 0.608523 0.211606 0.0965492 0.44287
C_ C_ 0.597521 0.197393 0.124984 -0.05681
C_ C_ 0.54747 0.196081 0.135118 -0.08735
C_ C_ 0.540363 0.185193 0.164836 -0.08735
C_ C_ 0.582312 0.178027 0.183856 -0.05681
C_ C_ 0.631309 0.169905 0.17255 -0.05681
C_ C_ 0.639277 0.183954 0.143732 -0.05681
C_ C_ 0.687618 0.181311 0.132868 -0.05681
C_ C_ 0.729746 0.175475 0.152222 -0.08735
C_ C_ 0.719183 0.170707 0.182499 -0.08735
C_ C_ 0.672153 0.165891 0.191548 -0.05681
C_ C_ 0.662943 0.165723 0.222237 0.44287
C_ C_ 0.575854 0.180752 0.214213 0.44287
C_ C_ 0.60431 0.157092 0.261257 0.18498
C_ C_ 0.573877 0.113743 0.26646 -0.08735
C_ C_ 0.559423 0.100161 0.293571 -0.08735
C_ C_ 0.577034 0.128518 0.316616 -0.08735
C_ C_ 0.611078 0.166346 0.312581 0.18498
C_ C_ 0.619445 0.185831 0.284525 -0.05681
C_ C_ 0.643636 0.232992 0.281991 -0.08735
C_ C_ 0.664572 0.257061 0.304873 -0.08735
C_ C_ 0.660264 0.234498 0.33131 0.1947
C_ C_ 0.779355 0.326553 0.155702 0.68181
C_ C_ 0.726025 0.326976 0.151135 -0.05681
C_ C_ 0.690433 0.313324 0.172955 -0.08735
C_ C_ 0.638891 0.317327 0.167532 -0.05681
C_ C_ 0.621517 0.32453 0.139063 -0.05681
C_ C_ 0.656882 0.338875 0.117618 -0.08735
C_ C_ 0.708461 0.339571 0.123812 -0.08735
C_ C_ 0.603198 0.313896 0.189885 -0.08735
C_ C_ 0.551201 0.309191 0.183987 -0.08735
C_ C_ 0.533883 0.317422 0.155597 -0.05681
C_ C_ 0.570625 0.324782 0.132701 -0.08735
C_ C_ 0.882766 0.227722 0.163949 0.68181
C_ C_ 0.882138 0.425185 0.152719 0.68181
C_ C_ 0.881685 0.481343 0.14941 -0.05681
C_ C_ 0.87682 0.00974421 0.175846 -0.08735
C_ C_ 0.879023 0.0636023 0.174207 -0.05681
C_ C_ 0.867897 0.0864332 0.146897 -0.05681
C_ C_ 0.848067 0.0564674 0.124082 -0.08735
C_ C_ 0.891446 0.504976 0.122718 -0.08735
C_ C_ 0.891691 0.0943613 0.197532 -0.08735
C_ C_ 0.890574 0.148194 0.193908 -0.08735
C_ C_ 0.882706 0.171755 0.167402 -0.05681
C_ C_ 0.866371 0.141249 0.144173 -0.08735
C_ C_ 0.975924 0.323041 0.157542 0.68181
C_ C_ 0.908867 0.386053 0.235453 0.1947
C_ C_ 0.915054 0.405797 0.263042 -0.08735
C_ C_ 0.886969 0.386365 0.286394 -0.08735
C_ C_ 0.858416 0.340507 0.280405 -0.05681
C_ C_ 0.848971 0.326237 0.251429 0.18498
C_ C_ 0.819396 0.28308 0.246472 -0.08735
C_ C_ 0.808438 0.250132 0.268857 -0.08735
C_ C_ 0.816505 0.265695 0.296789 -0.08735
C_ C_ 0.838989 0.310422 0.303521 0.18498
C_ C_ 0.801891 0.335611 0.349094 0.44287
C_ C_ 0.891155 0.324757 0.346142 0.44287
C_ C_ 0.897463 0.334 0.375509 -0.05681
C_ C_ 0.944688 0.325373 0.389235 -0.08735
C_ C_ 0.944177 0.319441 0.418662 -0.08735
C_ C_ 0.899641 0.323825 0.435481 -0.05681
C_ C_ 0.856154 0.340906 0.422661 -0.05681
C_ C_ 0.852546 0.337606 0.392101 -0.05681
C_ C_ 0.804843 0.340659 0.378787 -0.05681
C_ C_ 0.762445 0.346813 0.396414 -0.08735
C_ C_ 0.766382 0.35055 0.425016 -0.08735
C_ C_ 0.811532 0.346705 0.439443 -0.05681
C_ C_ 0.817296 0.353393 0.468675 0.44287
C_ C_ 0.902855 0.325669 0.465522 0.44287
C_ C_ 0.898884 0.348331 0.00963378 0.18498
C_ C_ 0.929086 0.39286 0.0143425 -0.08735
C_ C_ 0.942827 0.40819 0.0429648 -0.08735
C_ C_ 0.92114 0.382154 0.0665241 -0.08735
C_ C_ 0.892242 0.337863 0.0620726 0.18498
C_ C_ 0.882029 0.319077 0.033735 -0.05681
C_ C_ 0.851267 0.273527 0.0307715 -0.08735
C_ C_ 0.83051 0.254322 0.0544154 -0.08735
C_ C_ 0.846966 0.269914 0.0814169 0.1947
N_ N_ 0.638649 0.153669 0.476821 -0.29468
N_ N_ 0.657355 0.208745 0.085985 -0.17154
N_ N_ 0.616318 0.172797 0.23267 -0.17154
N_ N_ 0.632806 0.191124 0.33569 -0.29468
N_ N_ 0.879305 0.346886 0.229974 -0.29468
N_ N_ 0.844976 0.326968 0.333375 -0.17154
N_ N_ 0.862395 0.345448 0.481162 -0.17154
N_ N_ 0.875386 0.311834 0.0860821 -0.29468
O_ O_ 0.717425 0.180199 0.430531 -0.58347
O_ O_ 0.708609 0.18457 0.383628 -0.58347
O_ O_ 0.634725 0.240767 0.436501 -0.58347
O_ O_ 0.632261 0.252246 0.390654 -0.58347
O_ O_ 0.65355 0.0978507 0.421516 -0.58347
O_ O_ 0.639698 0.103956 0.37493 -0.58347
O_ O_ 0.570058 0.161698 0.429199 -0.58347
O_ O_ 0.563195 0.172682 0.382944 -0.58347
O_ O_ 0.572538 0.220673 0.0776724 -0.46727
O_ O_ 0.744528 0.202601 0.0946706 -0.46727
O_ O_ 0.529799 0.173989 0.224299 -0.46727
O_ O_ 0.70224 0.153717 0.23885 -0.46727
O_ O_ 0.796917 0.337224 0.180169 -0.58347
O_ O_ 0.80873 0.323191 0.135052 -0.58347
O_ O_ 0.878847 0.253525 0.186314 -0.58347
O_ O_ 0.881986 0.248618 0.139613 -0.58347
O_ O_ 0.874941 0.406535 0.177094 -0.58347
O_ O_ 0.888332 0.397372 0.13157 -0.58347
O_ O_ 0.9497 0.329716 0.180928 -0.58347
O_ O_ 0.954589 0.32274 0.133178 -0.58347
O_ O_ 0.932456 0.31578 0.33017 -0.46727
O_ O_ 0.757152 0.330614 0.33636 -0.46727
O_ O_ 0.941205 0.305758 0.47802 -0.46727
O_ O_ 0.779418 0.36773 0.485251 -0.46727
Zn Zn 0.623434 0.186914 0.8853 0.90689
Zn Zn 0.634225 0.184443 0.93397 0.90689
Zn Zn 0.861974 0.31525 0.633489 0.90689
Zn Zn 0.853986 0.318628 0.681721 0.90689
H_ H_ 0.796852 0.199616 0.946927 0.11455
H_ H_ 0.868801 0.16305 0.852866 0.11455
H_ H_ 0.778359 0.166847 0.857486 0.11455
H_ H_ 0.884468 0.197107 0.967583 0.11455
H_ H_ 0.980446 0.200908 0.958385 0.11455
H_ H_ 0.955088 0.163683 0.870282 0.11455
H_ H_ 0.641838 0.0181612 0.94731 0.11455
H_ H_ 0.66682 0.436294 0.851406 0.11455
H_ H_ 0.623392 0.026451 0.854396 0.11455
H_ H_ 0.602873 0.432165 0.965346 0.11455
H_ H_ 0.590513 0.342235 0.956561 0.11455
H_ H_ 0.642275 0.352225 0.871612 0.11455
H_ H_ 0.578461 0.116258 0.973046 0.11455
H_ H_ 0.578852 0.0608114 0.510763 0.11455
H_ H_ 0.603255 0.112494 0.555184 0.11455
H_ H_ 0.690519 0.257379 0.976951 0.11455
H_ H_ 0.717059 0.292772 0.513893 0.11455
H_ H_ 0.683987 0.267002 0.565717 0.11455
H_ H_ 0.514878 0.209907 0.626239 0.11455
H_ H_ 0.505718 0.200678 0.678275 0.11455
H_ H_ 0.754121 0.126276 0.635229 0.11455
H_ H_ 0.748555 0.131549 0.688235 0.11455
H_ H_ 0.583117 0.0745103 0.750272 0.11455
H_ H_ 0.572223 0.0426268 0.799864 0.11455
H_ H_ 0.590206 0.102335 0.839493 0.11455
H_ H_ 0.64298 0.240726 0.758817 0.11455
H_ H_ 0.660836 0.297623 0.800472 0.11455
H_ H_ 0.66439 0.261696 0.849164 0.11455
H_ H_ 0.686254 0.319678 0.695524 0.11455
H_ H_ 0.618535 0.307196 0.596597 0.11455
H_ H_ 0.712568 0.297405 0.606405 0.11455
H_ H_ 0.598637 0.309005 0.713276 0.11455
H_ H_ 0.509998 0.320562 0.705181 0.11455
H_ H_ 0.535782 0.325354 0.616107 0.11455
H_ H_ 0.879744 0.484965 0.692554 0.11455
H_ H_ 0.843131 0.0684994 0.598951 0.11455
H_ H_ 0.818155 0.473605 0.609261 0.11455
H_ H_ 0.893534 0.0707204 0.712279 0.11455
H_ H_ 0.88246 0.161993 0.710763 0.11455
H_ H_ 0.851205 0.149399 0.620097 0.11455
H_ H_ 0.925282 0.383155 0.717288 0.11455
H_ H_ 0.943305 0.408659 0.766606 0.11455
H_ H_ 0.897055 0.371665 0.805768 0.11455
H_ H_ 0.791882 0.259968 0.724673 0.11455
H_ H_ 0.764149 0.207479 0.764093 0.11455
H_ H_ 0.790132 0.223532 0.812316 0.11455
H_ H_ 0.983191 0.28472 0.871021 0.11455
H_ H_ -0.0009299999999999864 0.302458 0.921251 0.11455
H_ H_ 0.737688 0.340121 0.891218 0.11455
H_ H_ 0.747609 0.332148 0.942174 0.11455
H_ H_ 0.942629 0.415402 0.997598 0.11455
H_ H_ 0.928044 0.44964 0.547099 0.11455
H_ H_ 0.918285 0.392438 0.587149 0.11455
H_ H_ 0.834308 0.257661 0.509015 0.11455
H_ H_ 0.821078 0.202151 0.548806 0.11455
H_ H_ 0.823079 0.240929 0.59655 0.11455
C_ C_ 0.723706 0.188572 0.908692 0.68181
C_ C_ 0.779462 0.183785 0.903393 -0.05681
C_ C_ 0.812583 0.190446 0.926383 -0.08735
C_ C_ 0.866098 0.184987 0.923279 -0.05681
C_ C_ 0.886297 0.176834 0.895874 -0.05681
C_ C_ 0.854149 0.168303 0.873667 -0.08735
C_ C_ 0.800424 0.169525 0.876921 -0.08735
C_ C_ 0.900996 0.191648 0.945876 -0.08735
C_ C_ 0.953948 0.192292 0.941494 -0.08735
C_ C_ 0.974679 0.182939 0.913876 -0.05681
C_ C_ 0.940674 0.171856 0.892257 -0.08735
C_ C_ 0.621864 0.285305 0.913667 0.68181
C_ C_ 0.632568 0.0877362 0.902395 0.68181
C_ C_ 0.630484 0.030546 0.901885 -0.05681
C_ C_ 0.625803 0.501186 0.921582 -0.08735
C_ C_ 0.62182 0.446371 0.920262 -0.05681
C_ C_ 0.632384 0.422703 0.892669 -0.05681
C_ C_ 0.65157 0.453369 0.87068 -0.08735
C_ C_ 0.652707 0.505883 0.871574 -0.08735
C_ C_ 0.605587 0.41692 0.943994 -0.08735
C_ C_ 0.608223 0.364878 0.941118 -0.08735
C_ C_ 0.621705 0.341206 0.915546 -0.05681
C_ C_ 0.631849 0.370689 0.890482 -0.08735
C_ C_ 0.531403 0.174647 0.909739 0.68181
C_ C_ 0.604062 0.130527 0.98886 0.1947
C_ C_ 0.59364 0.0985027 0.507841 -0.08735
C_ C_ 0.610161 0.124306 0.532866 -0.08735
C_ C_ 0.635291 0.170998 0.529108 -0.05681
C_ C_ 0.65034 0.184246 0.500455 0.18498
C_ C_ 0.678129 0.249189 0.997897 -0.08735
C_ C_ 0.688634 0.262206 0.519213 -0.08735
C_ C_ 0.675068 0.246864 0.547546 -0.08735
C_ C_ 0.653836 0.199154 0.552369 0.18498
C_ C_ 0.683252 0.165304 0.597538 0.44287
C_ C_ 0.601702 0.202591 0.595501 0.44287
C_ C_ 0.593554 0.192187 0.625363 -0.05681
C_ C_ 0.546983 0.197933 0.638255 -0.08735
C_ C_ 0.541372 0.188856 0.667507 -0.08735
C_ C_ 0.583446 0.178758 0.684649 -0.05681
C_ C_ 0.630281 0.168633 0.671579 -0.05681
C_ C_ 0.634046 0.173694 0.641184 -0.05681
C_ C_ 0.677827 0.158841 0.627908 -0.05681
C_ C_ 0.721678 0.142744 0.645269 -0.08735
C_ C_ 0.718232 0.14213 0.674646 -0.08735
C_ C_ 0.673192 0.15766 0.688014 -0.05681
C_ C_ 0.668354 0.157693 0.719315 0.44287
C_ C_ 0.581028 0.179374 0.716286 0.44287
C_ C_ 0.611338 0.145732 0.761395 0.18498
C_ C_ 0.596695 0.0959055 0.767872 -0.08735
C_ C_ 0.589523 0.0802372 0.796714 -0.08735
C_ C_ 0.59749 0.112699 0.819035 -0.08735
C_ C_ 0.617843 0.160206 0.814534 0.18498
C_ C_ 0.624367 0.177609 0.784842 -0.05681
C_ C_ 0.640865 0.226753 0.78075 -0.08735
C_ C_ 0.649557 0.258937 0.804607 -0.08735
C_ C_ 0.642975 0.241674 0.831756 0.1947
C_ C_ 0.759462 0.3132 0.657051 0.68181
C_ C_ 0.705105 0.305514 0.652831 -0.05681
C_ C_ 0.671001 0.30749 0.675079 -0.08735
C_ C_ 0.618796 0.312034 0.66968 -0.05681
C_ C_ 0.598776 0.311136 0.641149 -0.05681
C_ C_ 0.634057 0.310425 0.618761 -0.08735
C_ C_ 0.686197 0.302608 0.62447 -0.08735
C_ C_ 0.584816 0.312372 0.691895 -0.08735
C_ C_ 0.533139 0.314402 0.686722 -0.08735
C_ C_ 0.513575 0.318779 0.659523 -0.05681
C_ C_ 0.547407 0.315865 0.637096 -0.08735
C_ C_ 0.864996 0.220595 0.663849 0.68181
C_ C_ 0.851928 0.4165 0.653346 0.68181
C_ C_ 0.846884 0.473065 0.651068 -0.05681
C_ C_ 0.874808 0.00195122 0.670812 -0.08735
C_ C_ 0.879216 0.0555192 0.667928 -0.05681
C_ C_ 0.86526 0.0789869 0.642718 -0.05681
C_ C_ 0.852034 0.0502761 0.61861 -0.08735
C_ C_ 0.822877 0.496605 0.627973 -0.08735
C_ C_ 0.885512 0.0859239 0.692291 -0.08735
C_ C_ 0.878289 0.139884 0.691448 -0.08735
C_ C_ 0.866041 0.163346 0.665905 -0.05681
C_ C_ 0.864455 0.132656 0.640571 -0.08735
C_ C_ 0.959212 0.326437 0.658971 0.68181
C_ C_ 0.90247 0.368081 0.733083 0.1947
C_ C_ 0.913684 0.382301 0.761639 -0.08735
C_ C_ 0.892186 0.35794 0.784349 -0.08735
C_ C_ 0.860588 0.315839 0.77958 -0.05681
C_ C_ 0.844284 0.306302 0.751147 0.18498
C_ C_ 0.807601 0.268974 0.745572 -0.08735
C_ C_ 0.792517 0.23725 0.767865 -0.08735
C_ C_ 0.8066 0.246899 0.79598 -0.08735
C_ C_ 0.834546 0.290845 0.802761 0.18498
C_ C_ 0.80593 0.314282 0.850561 0.44287
C_ C_ 0.892756 0.291837 0.844874 0.44287
C_ C_ 0.903283 0.300869 0.873949 -0.05681
C_ C_ 0.95088 0.29515 0.88495 -0.08735
C_ C_ 0.960324 0.3039 0.914349 -0.08735
C_ C_ 0.920243 0.314238 0.932964 -0.05681
C_ C_ 0.871408 0.32062 0.921879 -0.05681
C_ C_ 0.863466 0.313324 0.892168 -0.05681
C_ C_ 0.813282 0.314569 0.880755 -0.05681
C_ C_ 0.773349 0.324682 0.899622 -0.08735
C_ C_ 0.782106 0.330459 0.92829 -0.08735
C_ C_ 0.830843 0.325592 0.940281 -0.05681
C_ C_ 0.838282 0.332983 0.968888 0.44287
C_ C_ 0.925665 0.319367 0.963049 0.44287
C_ C_ 0.870934 0.356838 0.510528 0.18498
C_ C_ 0.893678 0.404336 0.516515 -0.08735
C_ C_ 0.906035 0.417726 0.544728 -0.08735
C_ C_ 0.898383 0.383729 0.566459 -0.08735
C_ C_ 0.872291 0.339188 0.562072 0.18498
C_ C_ 0.860529 0.32183 0.533844 -0.05681
C_ C_ 0.843508 0.271912 0.529833 -0.08735
C_ C_ 0.834137 0.241696 0.552903 -0.08735
C_ C_ 0.841959 0.259696 0.580152 0.1947
N_ N_ 0.629793 0.174648 0.982829 -0.29468
N_ N_ 0.643671 0.185401 0.581749 -0.17154
N_ N_ 0.620581 0.160932 0.731967 -0.17154
N_ N_ 0.626837 0.193362 0.837466 -0.29468
N_ N_ 0.865076 0.330988 0.728281 -0.29468
N_ N_ 0.845447 0.302346 0.832947 -0.17154
N_ N_ 0.887029 0.332588 0.97952 -0.17154
N_ N_ 0.860135 0.308686 0.585002 -0.29468
O_ O_ 0.706336 0.177621 0.933236 -0.58347
O_ O_ 0.695167 0.200012 0.888053 -0.58347
O_ O_ 0.633478 0.258936 0.935638 -0.58347
O_ O_ 0.609175 0.263013 0.890998 -0.58347
O_ O_ 0.632439 0.110253 0.925852 -0.58347
O_ O_ 0.637271 0.114279 0.879708 -0.58347
O_ O_ 0.561198 0.179675 0.930813 -0.58347
O_ O_ 0.54777 0.173225 0.884765 -0.58347
O_ O_ 0.562371 0.221595 0.580764 -0.46727
O_ O_ 0.723941 0.146118 0.58417 -0.46727
O_ O_ 0.537275 0.189113 0.73003 -0.46727
O_ O_ 0.705701 0.138905 0.735024 -0.46727
O_ O_ 0.778362 0.318606 0.681948 -0.58347
O_ O_ 0.787897 0.30612 0.635353 -0.58347
O_ O_ 0.847386 0.245495 0.68472 -0.58347
O_ O_ 0.868391 0.239936 0.63914 -0.58347
O_ O_ 0.860979 0.394599 0.676564 -0.58347
O_ O_ 0.854386 0.39117 0.629851 -0.58347
O_ O_ 0.931203 0.32205 0.68187 -0.58347
O_ O_ 0.938279 0.322337 0.63419 -0.58347
O_ O_ 0.929106 0.276203 0.827808 -0.46727
O_ O_ 0.759935 0.319376 0.83936 -0.46727
O_ O_ 0.97042 0.312742 0.974417 -0.46727
O_ O_ 0.803091 0.349045 0.985528 -0.46727
Zn Zn 0.63179 0.676613 0.381494 0.90689
Zn Zn 0.638889 0.671843 0.431473 0.90689
Zn Zn 0.882914 0.8246 0.134037 0.90689
Zn Zn 0.874205 0.824386 0.180963 0.90689
H_ H_ 0.809293 0.700385 0.446499 0.11455
H_ H_ 0.878983 0.676397 0.349079 0.11455
H_ H_ 0.787266 0.680029 0.354926 0.11455
H_ H_ 0.893508 0.690195 0.465868 0.11455
H_ H_ 0.985344 0.69076 0.459929 0.11455
H_ H_ 0.96631 0.690558 0.368697 0.11455
H_ H_ 0.632956 0.50431 0.444626 0.11455
H_ H_ 0.659203 0.925398 0.345464 0.11455
H_ H_ 0.638854 0.517568 0.353036 0.11455
H_ H_ 0.621908 0.928281 0.462463 0.11455
H_ H_ 0.611297 0.830822 0.460943 0.11455
H_ H_ 0.649495 0.841787 0.370495 0.11455
H_ H_ 0.588778 0.599076 0.467345 0.11455
H_ H_ 0.561146 0.586733 0.014281 0.11455
H_ H_ 0.593415 0.637189 0.0546252 0.11455
H_ H_ 0.69752 0.743774 0.473069 0.11455
H_ H_ 0.715223 0.805752 0.00830382 0.11455
H_ H_ 0.697325 0.789289 0.0584336 0.11455
H_ H_ 0.508605 0.695552 0.121612 0.11455
H_ H_ 0.50318 0.684246 0.176723 0.11455
H_ H_ 0.761473 0.675449 0.128974 0.11455
H_ H_ 0.758064 0.682097 0.181245 0.11455
H_ H_ 0.580586 0.585473 0.24207 0.11455
H_ H_ 0.555005 0.560462 0.291845 0.11455
H_ H_ 0.581172 0.610276 0.333762 0.11455
H_ H_ 0.665409 0.745377 0.25815 0.11455
H_ H_ 0.695381 0.789972 0.301788 0.11455
H_ H_ 0.675453 0.751707 0.348255 0.11455
H_ H_ 0.706592 0.786612 0.192285 0.11455
H_ H_ 0.639784 0.855535 0.100023 0.11455
H_ H_ 0.731751 0.864972 0.113232 0.11455
H_ H_ 0.613718 0.781572 0.210333 0.11455
H_ H_ 0.525537 0.788704 0.200152 0.11455
H_ H_ 0.55384 0.850078 0.11771 0.11455
H_ H_ 0.889134 0.989065 0.195077 0.11455
H_ H_ 0.890937 0.574777 0.09857 0.11455
H_ H_ 0.829516 0.981654 0.110732 0.11455
H_ H_ 0.862633 0.581262 0.214537 0.11455
H_ H_ 0.874582 0.673272 0.211774 0.11455
H_ H_ 0.889691 0.660899 0.119622 0.11455
H_ H_ 0.917227 0.905915 0.21875 0.11455
H_ H_ 0.929837 0.931721 0.266666 0.11455
H_ H_ 0.900555 0.880361 0.308446 0.11455
H_ H_ 0.819885 0.756131 0.221163 0.11455
H_ H_ 0.790215 0.696289 0.25945 0.11455
H_ H_ 0.797373 0.725868 0.308396 0.11455
H_ H_ 0.99258 0.811979 0.37493 0.11455
H_ H_ -0.000638119 0.82514 0.426807 0.11455
H_ H_ 0.739541 0.816151 0.383082 0.11455
H_ H_ 0.745321 0.833656 0.437279 0.11455
H_ H_ 0.931234 0.904419 0.497296 0.11455
H_ H_ 0.949144 0.94349 0.0420912 0.11455
H_ H_ 0.923737 0.896561 0.0836137 0.11455
H_ H_ 0.832598 0.753632 0.00940573 0.11455
H_ H_ 0.808793 0.711473 0.0533888 0.11455
H_ H_ 0.838931 0.741765 0.0999348 0.11455
C_ C_ 0.734892 0.682909 0.405125 0.68181
C_ C_ 0.790779 0.693424 0.401503 -0.05681
C_ C_ 0.824063 0.699057 0.42456 -0.08735
C_ C_ 0.876948 0.691884 0.421137 -0.05681
C_ C_ 0.898805 0.688627 0.393757 -0.05681
C_ C_ 0.865196 0.686422 0.369913 -0.08735
C_ C_ 0.812026 0.684022 0.374695 -0.08735
C_ C_ 0.909577 0.688086 0.444196 -0.08735
C_ C_ 0.962798 0.687223 0.44089 -0.08735
C_ C_ 0.984536 0.688435 0.413691 -0.05681
C_ C_ 0.951191 0.688252 0.390045 -0.08735
C_ C_ 0.625922 0.77391 0.412183 0.68181
C_ C_ 0.639382 0.573611 0.40232 0.68181
C_ C_ 0.638276 0.51705 0.399788 -0.05681
C_ C_ 0.642156 0.991855 0.419623 -0.08735
C_ C_ 0.637388 0.937748 0.418075 -0.05681
C_ C_ 0.647935 0.912388 0.391682 -0.05681
C_ C_ 0.656914 0.942463 0.366686 -0.08735
C_ C_ 0.65479 0.996171 0.36829 -0.08735
C_ C_ 0.625164 0.909218 0.442769 -0.08735
C_ C_ 0.619742 0.855208 0.441453 -0.08735
C_ C_ 0.630917 0.83051 0.414865 -0.05681
C_ C_ 0.646725 0.859655 0.390559 -0.08735
C_ C_ 0.541019 0.676373 0.406141 0.68181
C_ C_ 0.601123 0.624141 0.483906 0.1947
C_ C_ 0.58731 0.616297 0.0100781 -0.08735
C_ C_ 0.604297 0.647492 0.0337448 -0.08735
C_ C_ 0.638331 0.687081 0.0283876 -0.05681
C_ C_ 0.651652 0.697502 0.998651 0.18498
C_ C_ 0.676286 0.739837 0.493429 -0.08735
C_ C_ 0.691549 0.774377 0.0128431 -0.08735
C_ C_ 0.678406 0.766088 0.0417881 -0.08735
C_ C_ 0.650301 0.722041 0.0497445 0.18498
C_ C_ 0.685943 0.691483 0.0947522 0.44287
C_ C_ 0.597308 0.711049 0.0912342 0.44287
C_ C_ 0.590314 0.69402 0.120514 -0.05681
C_ C_ 0.542887 0.692494 0.133981 -0.08735
C_ C_ 0.538663 0.69046 0.163427 -0.08735
C_ C_ 0.581501 0.682403 0.180419 -0.05681
C_ C_ 0.630252 0.679393 0.167391 -0.05681
C_ C_ 0.633729 0.682708 0.136784 -0.05681
C_ C_ 0.681957 0.682974 0.124437 -0.05681
C_ C_ 0.725577 0.680911 0.140835 -0.08735
C_ C_ 0.721434 0.678798 0.170308 -0.08735
C_ C_ 0.672899 0.679677 0.184592 -0.05681
C_ C_ 0.668032 0.675581 0.214876 0.44287
C_ C_ 0.577524 0.674722 0.20995 0.44287
C_ C_ 0.617625 0.653292 0.256106 0.18498
C_ C_ 0.595405 0.605129 0.261277 -0.08735
C_ C_ 0.578579 0.592035 0.288632 -0.08735
C_ C_ 0.595692 0.619226 0.313135 -0.08735
C_ C_ 0.617536 0.665446 0.309184 0.18498
C_ C_ 0.628669 0.683063 0.280665 -0.05681
C_ C_ 0.655233 0.72991 0.278273 -0.08735
C_ C_ 0.672363 0.754665 0.303154 -0.08735
C_ C_ 0.664071 0.732083 0.329059 0.1947
C_ C_ 0.779165 0.821068 0.156191 0.68181
C_ C_ 0.723464 0.825066 0.151961 -0.05681
C_ C_ 0.689896 0.805554 0.172814 -0.08735
C_ C_ 0.637271 0.81361 0.16845 -0.05681
C_ C_ 0.617763 0.831674 0.141942 -0.05681
C_ C_ 0.65198 0.84831 0.121119 -0.08735
C_ C_ 0.705038 0.848995 0.126907 -0.08735
C_ C_ 0.603034 0.801083 0.190449 -0.08735
C_ C_ 0.552182 0.807442 0.185107 -0.08735
C_ C_ 0.531911 0.823746 0.159063 -0.05681
C_ C_ 0.566583 0.837606 0.137929 -0.08735
C_ C_ 0.891338 0.730391 0.164873 0.68181
C_ C_ 0.86878 0.922112 0.152521 0.68181
C_ C_ 0.864971 0.980109 0.151989 -0.05681
C_ C_ 0.871196 0.512526 0.173501 -0.08735
C_ C_ 0.879585 0.566997 0.170805 -0.05681
C_ C_ 0.882133 0.589939 0.143303 -0.05681
C_ C_ 0.88835 0.558567 0.119545 -0.08735
C_ C_ 0.845299 1.0041071 0.127809 -0.08735
C_ C_ 0.875311 0.596866 0.194539 -0.08735
C_ C_ 0.878953 0.648779 0.192705 -0.08735
C_ C_ 0.883492 0.674963 0.166279 -0.05681
C_ C_ 0.887631 0.644132 0.141328 -0.08735
C_ C_ 0.973939 0.826297 0.156992 0.68181
C_ C_ 0.904204 0.881507 0.235539 0.1947
C_ C_ 0.909899 0.897089 0.264077 -0.08735
C_ C_ 0.89161 0.869963 0.28593 -0.08735
C_ C_ 0.872306 0.820282 0.279649 -0.05681
C_ C_ 0.864636 0.80367 0.250434 0.18498
C_ C_ 0.830058 0.7638 0.244232 -0.08735
C_ C_ 0.811648 0.731807 0.265727 -0.08735
C_ C_ 0.821262 0.743595 0.293856 -0.08735
C_ C_ 0.853111 0.786558 0.301821 0.18498
C_ C_ 0.817165 0.812543 0.346697 0.44287
C_ C_ 0.904586 0.802891 0.3443 0.44287
C_ C_ 0.910677 0.815383 0.373779 -0.05681
C_ C_ 0.960293 0.816643 0.387632 -0.08735
C_ C_ 0.963217 0.823768 0.417177 -0.08735
C_ C_ 0.919047 0.820307 0.433305 -0.05681
C_ C_ 0.870904 0.820964 0.42048 -0.05681
C_ C_ 0.867289 0.818017 0.390734 -0.05681
C_ C_ 0.818618 0.818159 0.376777 -0.05681
C_ C_ 0.775497 0.822702 0.393786 -0.08735
C_ C_ 0.779504 0.827633 0.424183 -0.08735
C_ C_ 0.825866 0.823262 0.437607 -0.05681
C_ C_ 0.831999 0.827755 0.468437 0.44287
C_ C_ 0.922423 0.817955 0.462949 0.44287
C_ C_ 0.891426 0.846686 0.0070597 0.18498
C_ C_ 0.914224 0.894198 0.0115955 -0.08735
C_ C_ 0.925058 0.910256 0.0391589 -0.08735
C_ C_ 0.908597 0.885192 0.0628008 -0.08735
C_ C_ 0.886638 0.836257 0.0598375 0.18498
C_ C_ 0.874676 0.815989 0.0311857 -0.05681
C_ C_ 0.847086 0.770274 0.0288894 -0.08735
C_ C_ 0.833651 0.744887 0.0542167 -0.08735
C_ C_ 0.84771 0.76431 0.0813687 0.1947
N_ N_ 0.632438 0.664008 0.477952 -0.29468
N_ N_ 0.644569 0.709753 0.0794951 -0.17154
N_ N_ 0.621258 0.672964 0.226932 -0.17154
N_ N_ 0.639142 0.689431 0.331871 -0.29468
N_ N_ 0.879851 0.836126 0.229135 -0.29468
N_ N_ 0.858233 0.801122 0.331732 -0.17154
N_ N_ 0.879522 0.831076 0.479046 -0.17154
N_ N_ 0.874832 0.808406 0.0846092 -0.29468
O_ O_ 0.717272 0.675814 0.429709 -0.58347
O_ O_ 0.707045 0.684023 0.383479 -0.58347
O_ O_ 0.63358 0.747222 0.434874 -0.58347
O_ O_ 0.626567 0.752854 0.388447 -0.58347
O_ O_ 0.644057 0.594908 0.426062 -0.58347
O_ O_ 0.640091 0.600537 0.381462 -0.58347
O_ O_ 0.568624 0.66522 0.427731 -0.58347
O_ O_ 0.560196 0.670709 0.381571 -0.58347
O_ O_ 0.558348 0.722557 0.0751563 -0.46727
O_ O_ 0.730493 0.692106 0.0818987 -0.46727
O_ O_ 0.53358 0.671322 0.22266 -0.46727
O_ O_ 0.70864 0.662714 0.229817 -0.46727
O_ O_ 0.797622 0.81687 0.180825 -0.58347
O_ O_ 0.809839 0.828429 0.136233 -0.58347
O_ O_ 0.898074 0.754943 0.187876 -0.58347
O_ O_ 0.881128 0.754085 0.142469 -0.58347
O_ O_ 0.862252 0.8976 0.175898 -0.58347
O_ O_ 0.885728 0.900291 0.130429 -0.58347
O_ O_ 0.948885 0.836682 0.178465 -0.58347
O_ O_ 0.954373 0.825501 0.132372 -0.58347
O_ O_ 0.946842 0.799387 0.328239 -0.46727
O_ O_ 0.774123 0.822175 0.334064 -0.46727
O_ O_ 0.966054 0.810771 0.475635 -0.46727
O_ O_ 0.793713 0.838212 0.485245 -0.46727
Zn Zn 0.622382 0.688995 0.880609 0.90689
Zn Zn 0.630044 0.680589 0.928527 0.90689
Zn Zn 0.864928 0.81402 0.631093 0.90689
Zn Zn 0.855178 0.819266 0.678882 0.90689
H_ H_ 0.794468 0.683475 0.944925 0.11455
H_ H_ 0.873627 0.645335 0.850974 0.11455
H_ H_ 0.780247 0.651019 0.856209 0.11455
H_ H_ 0.881349 0.681446 0.968821 0.11455
H_ H_ 0.974577 0.688526 0.961948 0.11455
H_ H_ 0.958576 0.649236 0.872425 0.11455
H_ H_ 0.614906 0.522437 0.940414 0.11455
H_ H_ 0.62065 0.937298 0.851646 0.11455
H_ H_ 0.678459 0.522874 0.857802 0.11455
H_ H_ 0.641741 0.936511 0.967828 0.11455
H_ H_ 0.637931 0.838635 0.964569 0.11455
H_ H_ 0.625717 0.857072 0.87548 0.11455
H_ H_ 0.575015 0.614449 0.96418 0.11455
H_ H_ 0.565865 0.578573 0.514982 0.11455
H_ H_ 0.59904 0.625776 0.556291 0.11455
H_ H_ 0.697112 0.743753 0.970885 0.11455
H_ H_ 0.722366 0.798463 0.512457 0.11455
H_ H_ 0.691297 0.786052 0.562107 0.11455
H_ H_ 0.496712 0.70202 0.620461 0.11455
H_ H_ 0.486297 0.689715 0.671357 0.11455
H_ H_ 0.752659 0.678764 0.637767 0.11455
H_ H_ 0.735303 0.648315 0.688158 0.11455
H_ H_ 0.556125 0.586168 0.749498 0.11455
H_ H_ 0.525501 0.572807 0.799982 0.11455
H_ H_ 0.56471 0.62615 0.837453 0.11455
H_ H_ 0.663486 0.736613 0.756496 0.11455
H_ H_ 0.697874 0.779975 0.794693 0.11455
H_ H_ 0.672252 0.763018 0.845034 0.11455
H_ H_ 0.689707 0.801725 0.692878 0.11455
H_ H_ 0.624861 0.834249 0.595476 0.11455
H_ H_ 0.714399 0.830949 0.60427 0.11455
H_ H_ 0.600807 0.807309 0.711564 0.11455
H_ H_ 0.5088 0.80993 0.70245 0.11455
H_ H_ 0.536781 0.837427 0.613566 0.11455
H_ H_ 0.880464 0.986772 0.690863 0.11455
H_ H_ 0.820631 0.563233 0.603575 0.11455
H_ H_ 0.845969 0.973541 0.60157 0.11455
H_ H_ 0.884213 0.572596 0.717187 0.11455
H_ H_ 0.893592 0.663086 0.710097 0.11455
H_ H_ 0.838037 0.646301 0.622738 0.11455
H_ H_ 0.905812 0.902193 0.716985 0.11455
H_ H_ 0.902373 0.933865 0.768293 0.11455
H_ H_ 0.869134 0.885893 0.806481 0.11455
H_ H_ 0.797227 0.761277 0.720852 0.11455
H_ H_ 0.772942 0.699194 0.761692 0.11455
H_ H_ 0.790702 0.718981 0.808434 0.11455
H_ H_ 0.96857 0.765409 0.87364 0.11455
H_ H_ 0.984344 0.786082 0.92182 0.11455
H_ H_ 0.726153 0.83627 0.885387 0.11455
H_ H_ 0.737171 0.850138 0.939441 0.11455
H_ H_ 0.925384 0.916803 0.993565 0.11455
H_ H_ 0.947533 0.931454 0.547752 0.11455
H_ H_ 0.926235 0.873206 0.585574 0.11455
H_ H_ 0.83152 0.750424 0.505288 0.11455
H_ H_ 0.799644 0.704273 0.547467 0.11455
H_ H_ 0.813667 0.73453 0.594949 0.11455
C_ C_ 0.726678 0.681897 0.902076 0.68181
C_ C_ 0.782537 0.670598 0.900268 -0.05681
C_ C_ 0.812316 0.672737 0.925551 -0.08735
C_ C_ 0.865266 0.664854 0.92374 -0.05681
C_ C_ 0.887125 0.651444 0.896367 -0.05681
C_ C_ 0.854657 0.647252 0.87233 -0.08735
C_ C_ 0.80309 0.653149 0.875444 -0.08735
C_ C_ 0.897796 0.673379 0.947844 -0.08735
C_ C_ 0.950807 0.66965 0.94446 -0.08735
C_ C_ 0.973055 0.662044 0.916815 -0.05681
C_ C_ 0.942328 0.653483 0.893632 -0.08735
C_ C_ 0.624932 0.784452 0.91473 0.68181
C_ C_ 0.632352 0.587724 0.897009 0.68181
C_ C_ 0.63771 0.530565 0.89679 -0.05681
C_ C_ 0.636084 0.00082046 0.926316 -0.08735
C_ C_ 0.631067 0.947961 0.924196 -0.05681
C_ C_ 0.628608 0.925606 0.897846 -0.05681
C_ C_ 0.63058 0.95523 0.873024 -0.08735
C_ C_ 0.629177 0.00631478 0.874621 -0.08735
C_ C_ 0.63559 0.917546 0.948327 -0.08735
C_ C_ 0.629951 0.863695 0.946481 -0.08735
C_ C_ 0.628326 0.841157 0.918464 -0.05681
C_ C_ 0.62451 0.873467 0.895288 -0.08735
C_ C_ 0.52492 0.68691 0.907161 0.68181
C_ C_ 0.596086 0.630485 0.982669 0.1947
C_ C_ 0.594235 0.606502 0.511793 -0.08735
C_ C_ 0.611696 0.635447 0.535148 -0.08735
C_ C_ 0.636624 0.682838 0.528645 -0.05681
C_ C_ 0.651793 0.692667 0.49945 0.18498
C_ C_ 0.684476 0.7382 0.992504 -0.08735
C_ C_ 0.693338 0.769044 0.516791 -0.08735
C_ C_ 0.675799 0.762292 0.544837 -0.08735
C_ C_ 0.648853 0.716464 0.551237 0.18498
C_ C_ 0.678874 0.692349 0.598106 0.44287
C_ C_ 0.589598 0.705564 0.591896 0.44287
C_ C_ 0.580012 0.693946 0.62151 -0.05681
C_ C_ 0.530269 0.697917 0.633642 -0.08735
C_ C_ 0.522971 0.689524 0.662583 -0.08735
C_ C_ 0.564851 0.681831 0.681854 -0.05681
C_ C_ 0.61522 0.679074 0.670141 -0.05681
C_ C_ 0.623446 0.683181 0.639526 -0.05681
C_ C_ 0.672848 0.681693 0.627043 -0.05681
C_ C_ 0.714021 0.673141 0.645905 -0.08735
C_ C_ 0.705514 0.664087 0.675181 -0.08735
C_ C_ 0.657357 0.667458 0.687374 -0.05681
C_ C_ 0.649242 0.657781 0.7163 0.44287
C_ C_ 0.561824 0.677264 0.712344 0.44287
C_ C_ 0.594879 0.656153 0.759463 0.18498
C_ C_ 0.568276 0.613142 0.766769 -0.08735
C_ C_ 0.551019 0.605514 0.795119 -0.08735
C_ C_ 0.57235 0.635374 0.816469 -0.08735
C_ C_ 0.605153 0.67502 0.810739 0.18498
C_ C_ 0.617213 0.68598 0.781527 -0.05681
C_ C_ 0.652133 0.72538 0.777303 -0.08735
C_ C_ 0.673504 0.749966 0.799102 -0.08735
C_ C_ 0.661525 0.738918 0.828435 0.1947
C_ C_ 0.762694 0.808649 0.653066 0.68181
C_ C_ 0.707009 0.814707 0.649294 -0.05681
C_ C_ 0.674352 0.808989 0.672003 -0.08735
C_ C_ 0.621401 0.811753 0.667087 -0.05681
C_ C_ 0.601711 0.825319 0.639557 -0.05681
C_ C_ 0.636916 0.831787 0.616863 -0.08735
C_ C_ 0.688905 0.827154 0.621456 -0.08735
C_ C_ 0.586808 0.807549 0.690346 -0.08735
C_ C_ 0.533361 0.815674 0.684707 -0.08735
C_ C_ 0.515936 0.824006 0.657313 -0.05681
C_ C_ 0.550292 0.825495 0.634336 -0.08735
C_ C_ 0.865012 0.719114 0.661808 0.68181
C_ C_ 0.858935 0.916146 0.648064 0.68181
C_ C_ 0.858052 0.973668 0.646749 -0.05681
C_ C_ 0.864142 0.502407 0.673284 -0.08735
C_ C_ 0.864891 0.555145 0.671657 -0.05681
C_ C_ 0.85012 0.577227 0.646242 -0.05681
C_ C_ 0.833251 0.546652 0.623098 -0.08735
C_ C_ 0.851154 0.997797 0.619751 -0.08735
C_ C_ 0.876831 0.586087 0.695429 -0.08735
C_ C_ 0.879023 0.639845 0.692392 -0.08735
C_ C_ 0.866745 0.663091 0.666146 -0.05681
C_ C_ 0.848688 0.631173 0.643772 -0.08735
C_ C_ 0.955873 0.823004 0.657478 0.68181
C_ C_ 0.888968 0.877698 0.734189 0.1947
C_ C_ 0.891778 0.895286 0.762953 -0.08735
C_ C_ 0.868378 0.869108 0.78459 -0.08735
C_ C_ 0.846818 0.821851 0.777515 -0.05681
C_ C_ 0.838553 0.807724 0.748516 0.18498
C_ C_ 0.809893 0.765049 0.741656 -0.08735
C_ C_ 0.795754 0.73117 0.764486 -0.08735
C_ C_ 0.804629 0.744312 0.793072 -0.08735
C_ C_ 0.828589 0.789104 0.80008 0.18498
C_ C_ 0.798161 0.810765 0.847459 0.44287
C_ C_ 0.885692 0.791204 0.8424 0.44287
C_ C_ 0.89201 0.797107 0.871472 -0.05681
C_ C_ 0.9383 0.788474 0.884199 -0.08735
C_ C_ 0.945932 0.796572 0.912973 -0.08735
C_ C_ 0.905455 0.811176 0.931145 -0.05681
C_ C_ 0.856982 0.815571 0.920213 -0.05681
C_ C_ 0.851412 0.814119 0.888769 -0.05681
C_ C_ 0.802823 0.818858 0.877282 -0.05681
C_ C_ 0.762569 0.830514 0.895634 -0.08735
C_ C_ 0.767875 0.838147 0.925163 -0.08735
C_ C_ 0.81728 0.83167 0.938025 -0.05681
C_ C_ 0.830179 0.838465 0.968821 0.44287
C_ C_ 0.916117 0.817611 0.960169 0.44287
C_ C_ 0.885866 0.841578 0.508827 0.18498
C_ C_ 0.913463 0.886469 0.514971 -0.08735
C_ C_ 0.926476 0.897481 0.542855 -0.08735
C_ C_ 0.909234 0.867445 0.565618 -0.08735
C_ C_ 0.878001 0.825474 0.561262 0.18498
C_ C_ 0.872699 0.808217 0.532076 -0.05681
C_ C_ 0.842122 0.763095 0.526437 -0.08735
C_ C_ 0.821782 0.737768 0.549876 -0.08735
C_ C_ 0.832376 0.754507 0.577722 0.1947
N_ N_ 0.627455 0.669976 0.976917 -0.29468
N_ N_ 0.638411 0.703653 0.581654 -0.17154
N_ N_ 0.601803 0.66329 0.728628 -0.17154
N_ N_ 0.626122 0.702798 0.833258 -0.29468
N_ N_ 0.85844 0.836809 0.72658 -0.29468
N_ N_ 0.837505 0.798828 0.831174 -0.17154
N_ N_ 0.877989 0.831938 0.978222 -0.17154
N_ N_ 0.858817 0.797676 0.58293 -0.29468
O_ O_ 0.704733 0.678733 0.926644 -0.58347
O_ O_ 0.700023 0.686539 0.880009 -0.58347
O_ O_ 0.632532 0.756682 0.935357 -0.58347
O_ O_ 0.627816 0.763438 0.889997 -0.58347
O_ O_ 0.63108 0.609217 0.921291 -0.58347
O_ O_ 0.623748 0.611923 0.874136 -0.58347
O_ O_ 0.554228 0.686741 0.928956 -0.58347
O_ O_ 0.54544 0.692004 0.882431 -0.58347
O_ O_ 0.553331 0.726379 0.575881 -0.46727
O_ O_ 0.725382 0.695867 0.586315 -0.46727
O_ O_ 0.517862 0.678145 0.723857 -0.46727
O_ O_ 0.686323 0.640357 0.732383 -0.46727
O_ O_ 0.782807 0.814889 0.677042 -0.58347
O_ O_ 0.789085 0.80971 0.630223 -0.58347
O_ O_ 0.856889 0.745139 0.683313 -0.58347
O_ O_ 0.865069 0.739471 0.636918 -0.58347
O_ O_ 0.851365 0.894339 0.672998 -0.58347
O_ O_ 0.866289 0.888862 0.626675 -0.58347
O_ O_ 0.927421 0.82503 0.678972 -0.58347
O_ O_ 0.938787 0.813317 0.633335 -0.58347
O_ O_ 0.924423 0.779818 0.825204 -0.46727
O_ O_ 0.756435 0.823564 0.834112 -0.46727
O_ O_ 0.962978 0.811987 0.970317 -0.46727
O_ O_ 0.794567 0.855852 0.986913 -0.46727
_cell_length_a 26.376
_cell_length_b 26.400000238300095
_cell_length_c 46.67800035477134
_cell_angle_alpha 90.00700052986613
_cell_angle_beta 89.99899961309502
_cell_angle_gamma 90.45000003183146
_symmetry_space_group_name_H-M         'P 1'
_symmetry_Int_Tables_number            1
loop_
_symmetry_equiv_pos_as_xyz
   'x, y, z'
                         
loop_
_atom_site_label
_atom_site_type_symbol
_atom_site_fract_x 
_atom_site_fract_y
_atom_site_fract_z
_atom_site_charge
Zn Zn 0.131474 0.186713 0.383216 0.90689
Zn Zn 0.14864 0.1811 0.429793 0.90689
Zn Zn 0.38482 0.313813 0.128565 0.90689
Zn Zn 0.374884 0.32169 0.177105 0.90689
H_ H_ 0.312547 0.177441 0.445964 0.11455
H_ H_ 0.381771 0.185989 0.347281 0.11455
H_ H_ 0.291947 0.186159 0.355901 0.11455
H_ H_ 0.398707 0.166091 0.464134 0.11455
H_ H_ 0.484869 0.148276 0.455982 0.11455
H_ H_ 0.473309 0.171503 0.365936 0.11455
H_ H_ 0.154609 0.0180877 0.443959 0.11455
H_ H_ 0.0964115 0.440231 0.351802 0.11455
H_ H_ 0.148385 0.0270037 0.354227 0.11455
H_ H_ 0.163315 0.432162 0.464535 0.11455
H_ H_ 0.159437 0.337344 0.461335 0.11455
H_ H_ 0.116122 0.349925 0.372279 0.11455
H_ H_ 0.091061 0.11264 0.460396 0.11455
H_ H_ 0.0605647 0.0813176 0.0121794 0.11455
H_ H_ 0.0911503 0.133114 0.05374 0.11455
H_ H_ 0.205424 0.245374 0.475954 0.11455
H_ H_ 0.186168 0.316073 0.00867872 0.11455
H_ H_ 0.177843 0.293422 0.0589185 0.11455
H_ H_ 0.00468031 0.194647 0.122685 0.11455
H_ H_ -0.00611043 0.184336 0.173481 0.11455
H_ H_ 0.256878 0.187789 0.135672 0.11455
H_ H_ 0.249955 0.172178 0.187202 0.11455
H_ H_ 0.0803886 0.0780042 0.250245 0.11455
H_ H_ 0.0564081 0.0568411 0.300456 0.11455
H_ H_ 0.0733381 0.117543 0.338917 0.11455
H_ H_ 0.168996 0.238451 0.2578 0.11455
H_ H_ 0.189803 0.294057 0.297572 0.11455
H_ H_ 0.192479 0.252911 0.344737 0.11455
H_ H_ 0.207416 0.304501 0.198259 0.11455
H_ H_ 0.132875 0.333823 0.0993059 0.11455
H_ H_ 0.225351 0.333583 0.103651 0.11455
H_ H_ 0.117629 0.312467 0.214929 0.11455
H_ H_ 0.0256431 0.309836 0.210445 0.11455
H_ H_ 0.046111 0.325458 0.117709 0.11455
H_ H_ 0.349894 0.488352 0.189905 0.11455
H_ H_ 0.385587 0.0642303 0.0935 0.11455
H_ H_ 0.399685 0.471014 0.103656 0.11455
H_ H_ 0.369405 0.0730683 0.21315 0.11455
H_ H_ 0.380179 0.16347 0.207583 0.11455
H_ H_ 0.387618 0.148814 0.11422 0.11455
H_ H_ 0.4386 0.389813 0.210234 0.11455
H_ H_ 0.44717 0.423789 0.260234 0.11455
H_ H_ 0.40763 0.375549 0.300657 0.11455
H_ H_ 0.323571 0.254669 0.215275 0.11455
H_ H_ 0.281769 0.209278 0.254068 0.11455
H_ H_ 0.307083 0.220575 0.302733 0.11455
H_ H_ 0.486591 0.304094 0.367441 0.11455
H_ H_ 0.501502 0.30725 0.419743 0.11455
H_ H_ 0.235693 0.319853 0.382326 0.11455
H_ H_ 0.243102 0.30562 0.435764 0.11455
H_ H_ 0.419437 0.408749 0.497718 0.11455
H_ H_ 0.463445 0.438068 0.046001 0.11455
H_ H_ 0.438131 0.378988 0.0849553 0.11455
H_ H_ 0.349709 0.252322 0.00552141 0.11455
H_ H_ 0.305854 0.220502 0.0451488 0.11455
H_ H_ 0.316052 0.248974 0.0941039 0.11455
C_ C_ 0.237949 0.184332 0.406043 0.68181
C_ C_ 0.294784 0.183536 0.400627 -0.05681
C_ C_ 0.327045 0.176136 0.423564 -0.08735
C_ C_ 0.380243 0.171374 0.418558 -0.05681
C_ C_ 0.402414 0.176632 0.390541 -0.05681
C_ C_ 0.368539 0.179248 0.367823 -0.08735
C_ C_ 0.31525 0.182461 0.372704 -0.08735
C_ C_ 0.413026 0.164222 0.441712 -0.08735
C_ C_ 0.463938 0.156169 0.436348 -0.08735
C_ C_ 0.488086 0.166109 0.409428 -0.05681
C_ C_ 0.457172 0.175307 0.386997 -0.08735
C_ C_ 0.140401 0.279601 0.413307 0.68181
C_ C_ 0.14631 0.0857715 0.401525 0.68181
C_ C_ 0.1427 0.0294665 0.399998 -0.05681
C_ C_ 0.140924 0.497092 0.424528 -0.08735
C_ C_ 0.132485 0.443839 0.42348 -0.05681
C_ C_ 0.116526 0.421447 0.397609 -0.05681
C_ C_ 0.108223 0.452177 0.373602 -0.08735
C_ C_ 0.112352 0.50663 0.37495 -0.08735
C_ C_ 0.147546 0.412674 0.445946 -0.08735
C_ C_ 0.150167 0.360134 0.442197 -0.08735
C_ C_ 0.138763 0.337489 0.41631 -0.05681
C_ C_ 0.122464 0.368456 0.393101 -0.08735
C_ C_ 0.0428277 0.183627 0.40642 0.68181
C_ C_ 0.103079 0.133058 0.478849 0.1947
C_ C_ 0.0837975 0.116207 0.00963675 -0.08735
C_ C_ 0.105891 0.14211 0.0325999 -0.08735
C_ C_ 0.132628 0.186557 0.0287096 -0.05681
C_ C_ 0.147811 0.197786 1.00029 0.18498
C_ C_ 0.191023 0.233644 0.497854 -0.08735
C_ C_ 0.18339 0.276938 0.0146697 -0.08735
C_ C_ 0.174926 0.264562 0.0434397 -0.08735
C_ C_ 0.150122 0.21947 0.05106 0.18498
C_ C_ 0.184174 0.206498 0.0986652 0.44287
C_ C_ 0.0947942 0.211501 0.0927448 0.44287
C_ C_ 0.0872833 0.197895 0.122422 -0.05681
C_ C_ 0.0388134 0.192585 0.134879 -0.08735
C_ C_ 0.0310591 0.181152 0.164108 -0.08735
C_ C_ 0.0760592 0.174214 0.181993 -0.05681
C_ C_ 0.124024 0.182843 0.169472 -0.05681
C_ C_ 0.129595 0.191663 0.139885 -0.05681
C_ C_ 0.17804 0.190697 0.127378 -0.05681
C_ C_ 0.22018 0.188513 0.145614 -0.08735
C_ C_ 0.215149 0.179035 0.17422 -0.08735
C_ C_ 0.166405 0.174427 0.186598 -0.05681
C_ C_ 0.163152 0.161626 0.216748 0.44287
C_ C_ 0.0739775 0.167991 0.212697 0.44287
C_ C_ 0.108292 0.150354 0.260119 0.18498
C_ C_ 0.0893921 0.102161 0.266993 -0.08735
C_ C_ 0.0769649 0.0922174 0.295775 -0.08735
C_ C_ 0.0875945 0.127729 0.318009 -0.08735
C_ C_ 0.115486 0.170659 0.31201 0.18498
C_ C_ 0.121576 0.185488 0.282021 -0.05681
C_ C_ 0.151404 0.230086 0.277788 -0.08735
C_ C_ 0.166939 0.259729 0.301013 -0.08735
C_ C_ 0.165248 0.239862 0.327706 0.1947
C_ C_ 0.27974 0.311711 0.153372 0.68181
C_ C_ 0.223928 0.316912 0.150146 -0.05681
C_ C_ 0.190298 0.310702 0.175409 -0.08735
C_ C_ 0.136404 0.310727 0.170886 -0.05681
C_ C_ 0.116711 0.313829 0.142814 -0.05681
C_ C_ 0.150124 0.324673 0.119464 -0.08735
C_ C_ 0.20208 0.324952 0.122846 -0.08735
C_ C_ 0.104139 0.304926 0.193561 -0.08735
C_ C_ 0.0511617 0.311331 0.18986 -0.08735
C_ C_ 0.0309825 0.314994 0.162095 -0.05681
C_ C_ 0.0646421 0.31493 0.137967 -0.08735
C_ C_ 0.382592 0.220892 0.157345 0.68181
C_ C_ 0.371905 0.415912 0.149683 0.68181
C_ C_ 0.37707 0.472504 0.147677 -0.05681
C_ C_ 0.359051 0.00702983 0.16802 -0.08735
C_ C_ 0.371017 0.0592162 0.166121 -0.05681
C_ C_ 0.381378 0.0803048 0.138459 -0.05681
C_ C_ 0.3819 0.0477602 0.115059 -0.08735
C_ C_ 0.396992 0.493243 0.122467 -0.08735
C_ C_ 0.373408 0.090152 0.19083 -0.08735
C_ C_ 0.377994 0.141662 0.1874 -0.08735
C_ C_ 0.383567 0.16486 0.160219 -0.05681
C_ C_ 0.386576 0.132152 0.135678 -0.08735
C_ C_ 0.476897 0.322504 0.149897 0.68181
C_ C_ 0.416709 0.37399 0.228077 0.1947
C_ C_ 0.426964 0.388124 0.256632 -0.08735
C_ C_ 0.402425 0.361799 0.27887 -0.08735
C_ C_ 0.369896 0.320582 0.273176 -0.05681
C_ C_ 0.360294 0.307958 0.244121 0.18498
C_ C_ 0.327309 0.268422 0.237312 -0.08735
C_ C_ 0.30456 0.240133 0.259744 -0.08735
C_ C_ 0.314056 0.251338 0.288083 -0.08735
C_ C_ 0.345929 0.290699 0.295533 0.18498
C_ C_ 0.311426 0.308427 0.343329 0.44287
C_ C_ 0.399127 0.294212 0.339095 0.44287
C_ C_ 0.406884 0.299463 0.369121 -0.05681
C_ C_ 0.453632 0.305918 0.380892 -0.08735
C_ C_ 0.461091 0.307353 0.410954 -0.08735
C_ C_ 0.418811 0.303809 0.429836 -0.05681
C_ C_ 0.369768 0.306401 0.417901 -0.05681
C_ C_ 0.364981 0.306934 0.387039 -0.05681
C_ C_ 0.316992 0.310561 0.374393 -0.05681
C_ C_ 0.273243 0.315708 0.392719 -0.08735
C_ C_ 0.278308 0.30863 0.422674 -0.08735
C_ C_ 0.328117 0.3128 0.43508 -0.05681
C_ C_ 0.334776 0.324613 0.465216 0.44287
C_ C_ 0.424092 0.307718 0.460841 0.44287
C_ C_ 0.390885 0.355746 0.0062179 0.18498
C_ C_ 0.422415 0.397073 0.0137289 -0.08735
C_ C_ 0.439014 0.405514 0.0416921 -0.08735
C_ C_ 0.427294 0.371544 0.0631094 -0.08735
C_ C_ 0.393849 0.332371 0.0580724 0.18498
C_ C_ 0.377347 0.322535 0.0291565 -0.05681
C_ C_ 0.347168 0.278052 0.0242131 -0.08735
C_ C_ 0.325585 0.25422 0.0493464 -0.08735
C_ C_ 0.333531 0.271284 0.076568 0.1947
N_ N_ 0.142411 0.167122 0.477217 -0.29468
N_ N_ 0.1423 0.209622 0.0807259 -0.17154
N_ N_ 0.116343 0.165364 0.230528 -0.17154
N_ N_ 0.133519 0.201712 0.333364 -0.29468
N_ N_ 0.384199 0.336011 0.223701 -0.29468
N_ N_ 0.353196 0.299975 0.326524 -0.17154
N_ N_ 0.382727 0.323032 0.477326 -0.17154
N_ N_ 0.371544 0.305987 0.0806644 -0.29468
O_ O_ 0.221229 0.180341 0.432327 -0.58347
O_ O_ 0.206589 0.194985 0.385932 -0.58347
O_ O_ 0.149863 0.253413 0.435435 -0.58347
O_ O_ 0.129519 0.259513 0.389437 -0.58347
O_ O_ 0.156555 0.10609 0.425115 -0.58347
O_ O_ 0.139831 0.111547 0.378992 -0.58347
O_ O_ 0.072966 0.18397 0.427901 -0.58347
O_ O_ 0.059727 0.178369 0.382067 -0.58347
O_ O_ 0.0555536 0.216991 0.0764757 -0.46727
O_ O_ 0.228994 0.20374 0.0876979 -0.46727
O_ O_ 0.0284457 0.175729 0.22509 -0.46727
O_ O_ 0.204945 0.154869 0.232519 -0.46727
O_ O_ 0.300358 0.31442 0.17798 -0.58347
O_ O_ 0.308332 0.315299 0.131293 -0.58347
O_ O_ 0.383077 0.24731 0.180536 -0.58347
O_ O_ 0.378998 0.238749 0.13238 -0.58347
O_ O_ 0.367226 0.394282 0.173432 -0.58347
O_ O_ 0.381923 0.388769 0.128179 -0.58347
O_ O_ 0.44736 0.328274 0.171033 -0.58347
O_ O_ 0.460398 0.314006 0.124805 -0.58347
O_ O_ 0.437313 0.274435 0.323849 -0.46727
O_ O_ 0.266788 0.316274 0.332529 -0.46727
O_ O_ 0.469885 0.302554 0.47258 -0.46727
O_ O_ 0.295444 0.329083 0.482166 -0.46727
Zn Zn 0.128098 0.191469 0.882425 0.90689
Zn Zn 0.132463 0.178153 0.929927 0.90689
Zn Zn 0.367543 0.30423 0.629444 0.90689
Zn Zn 0.354439 0.317225 0.677697 0.90689
H_ H_ 0.302468 0.200746 0.943449 0.11455
H_ H_ 0.376452 0.149146 0.851677 0.11455
H_ H_ 0.282399 0.143955 0.859623 0.11455
H_ H_ 0.390751 0.200353 0.966504 0.11455
H_ H_ 0.477566 0.194757 0.960982 0.11455
H_ H_ 0.458676 0.151252 0.871893 0.11455
H_ H_ 0.154113 0.00973008 0.938544 0.11455
H_ H_ 0.163758 0.4385 0.854119 0.11455
H_ H_ 0.113234 0.0295955 0.849761 0.11455
H_ H_ 0.0690372 0.426847 0.95988 0.11455
H_ H_ 0.0889491 0.338556 0.957049 0.11455
H_ H_ 0.132863 0.347761 0.870316 0.11455
H_ H_ 0.0857534 0.107923 0.965293 0.11455
H_ H_ 0.0605879 0.0843769 0.506798 0.11455
H_ H_ 0.0993922 0.124931 0.551974 0.11455
H_ H_ 0.193512 0.246809 0.973823 0.11455
H_ H_ 0.23203 0.293185 0.521297 0.11455
H_ H_ 0.216384 0.258671 0.568063 0.11455
H_ H_ 0.00923178 0.211881 0.619992 0.11455
H_ H_ 0.0010099999999999554 0.22059 0.674025 0.11455
H_ H_ 0.25805 0.143075 0.64149 0.11455
H_ H_ 0.243893 0.149299 0.690353 0.11455
H_ H_ 0.0391247 0.108869 0.749806 0.11455
H_ H_ 0.0206437 0.0906599 0.799821 0.11455
H_ H_ 0.0515043 0.148284 0.839576 0.11455
H_ H_ 0.158311 0.25082 0.754068 0.11455
H_ H_ 0.204417 0.289824 0.796304 0.11455
H_ H_ 0.184042 0.264406 0.844835 0.11455
H_ H_ 0.188583 0.325986 0.69458 0.11455
H_ H_ 0.113621 0.312821 0.597726 0.11455
H_ H_ 0.207228 0.306567 0.60398 0.11455
H_ H_ 0.105579 0.334471 0.715828 0.11455
H_ H_ 0.0136503 0.32008 0.709873 0.11455
H_ H_ 0.0285289 0.324974 0.618083 0.11455
H_ H_ 0.341122 0.481853 0.687685 0.11455
H_ H_ 0.382541 0.0556094 0.596062 0.11455
H_ H_ 0.373515 0.466546 0.599144 0.11455
H_ H_ 0.32615 0.0631395 0.708833 0.11455
H_ H_ 0.355239 0.150483 0.70866 0.11455
H_ H_ 0.372678 0.140614 0.618839 0.11455
H_ H_ 0.402752 0.399611 0.713468 0.11455
H_ H_ 0.42068 0.42675 0.762022 0.11455
H_ H_ 0.394946 0.369474 0.80398 0.11455
H_ H_ 0.297783 0.256786 0.720862 0.11455
H_ H_ 0.280174 0.194703 0.762666 0.11455
H_ H_ 0.293847 0.225553 0.80983 0.11455
H_ H_ 0.486337 0.276356 0.872295 0.11455
H_ H_ 0.498543 0.297281 0.922937 0.11455
H_ H_ 0.240041 0.353934 0.882198 0.11455
H_ H_ 0.250825 0.361136 0.934073 0.11455
H_ H_ 0.431192 0.42675 -0.0024880000000000457 0.11455
H_ H_ 0.446101 0.427646 0.546644 0.11455
H_ H_ 0.423406 0.368046 0.585631 0.11455
H_ H_ 0.339328 0.246197 0.504048 0.11455
H_ H_ 0.301582 0.198246 0.545506 0.11455
H_ H_ 0.31341 0.230759 0.592966 0.11455
C_ C_ 0.228306 0.183 0.903891 0.68181
C_ C_ 0.284053 0.182824 0.899745 -0.05681
C_ C_ 0.316926 0.188577 0.923877 -0.08735
C_ C_ 0.370284 0.184381 0.921026 -0.05681
C_ C_ 0.391833 0.173617 0.894216 -0.05681
C_ C_ 0.35938 0.166558 0.870653 -0.08735
C_ C_ 0.306616 0.166188 0.874591 -0.08735
C_ C_ 0.404579 0.196412 0.9442 -0.08735
C_ C_ 0.455068 0.187855 0.941284 -0.08735
C_ C_ 0.475637 0.173807 0.914838 -0.05681
C_ C_ 0.444573 0.168136 0.890989 -0.08735
C_ C_ 0.121376 0.282026 0.911692 0.68181
C_ C_ 0.133691 0.0833819 0.897765 0.68181
C_ C_ 0.129425 0.0255301 0.89547 -0.05681
C_ C_ 0.104867 0.497424 0.920079 -0.08735
C_ C_ 0.104922 0.444658 0.918305 -0.05681
C_ C_ 0.121552 0.421346 0.892792 -0.05681
C_ C_ 0.138902 0.452984 0.870436 -0.08735
C_ C_ 0.141744 0.505433 0.872724 -0.08735
C_ C_ 0.0874264 0.411891 0.940347 -0.08735
C_ C_ 0.0963832 0.361016 0.939326 -0.08735
C_ C_ 0.119417 0.337357 0.915494 -0.05681
C_ C_ 0.123252 0.367823 0.890699 -0.08735
C_ C_ 0.0309403 0.182154 0.909643 0.68181
C_ C_ 0.0988076 0.129719 0.983144 0.1947
C_ C_ 0.0864357 0.117424 0.505352 -0.08735
C_ C_ 0.10602 0.141229 0.531042 -0.08735
C_ C_ 0.138233 0.181551 0.528686 -0.05681
C_ C_ 0.15634 0.195815 0.500536 0.18498
C_ C_ 0.175765 0.240436 0.994008 -0.08735
C_ C_ 0.208209 0.259906 0.52209 -0.08735
C_ C_ 0.195584 0.244593 0.549792 -0.08735
C_ C_ 0.155189 0.208979 0.553329 0.18498
C_ C_ 0.185619 0.177166 0.599797 0.44287
C_ C_ 0.0989986 0.199953 0.592638 0.44287
C_ C_ 0.0901909 0.195056 0.621904 -0.05681
C_ C_ 0.0429372 0.208676 0.633932 -0.08735
C_ C_ 0.0362766 0.20976 0.66456 -0.08735
C_ C_ 0.0774618 0.197719 0.681469 -0.05681
C_ C_ 0.122705 0.183698 0.670171 -0.05681
C_ C_ 0.130257 0.182913 0.639717 -0.05681
C_ C_ 0.178512 0.172249 0.629236 -0.05681
C_ C_ 0.219133 0.157247 0.647616 -0.08735
C_ C_ 0.207396 0.153742 0.676295 -0.08735
C_ C_ 0.161397 0.169 0.688259 -0.05681
C_ C_ 0.151909 0.163522 0.717304 0.44287
C_ C_ 0.0698787 0.194364 0.711445 0.44287
C_ C_ 0.0971292 0.162191 0.758692 0.18498
C_ C_ 0.0608748 0.127298 0.766573 -0.08735
C_ C_ 0.0475371 0.118998 0.795501 -0.08735
C_ C_ 0.0664619 0.150668 0.817664 -0.08735
C_ C_ 0.105489 0.183907 0.812 0.18498
C_ C_ 0.117735 0.193921 0.781533 -0.05681
C_ C_ 0.149989 0.237137 0.775913 -0.08735
C_ C_ 0.174303 0.26152 0.799139 -0.08735
C_ C_ 0.16458 0.246424 0.827263 0.1947
C_ C_ 0.262273 0.308523 0.652632 0.68181
C_ C_ 0.20469 0.315707 0.649773 -0.05681
C_ C_ 0.171664 0.325219 0.673391 -0.08735
C_ C_ 0.11898 0.328429 0.670184 -0.05681
C_ C_ 0.0985503 0.325674 0.64211 -0.05681
C_ C_ 0.130462 0.315938 0.618713 -0.08735
C_ C_ 0.183223 0.313739 0.622458 -0.08735
C_ C_ 0.0884868 0.330168 0.694216 -0.08735
C_ C_ 0.0362257 0.325964 0.690385 -0.08735
C_ C_ 0.0146584 0.331106 0.662526 -0.05681
C_ C_ 0.0456279 0.3311 0.638836 -0.08735
C_ C_ 0.361094 0.211466 0.659392 0.68181
C_ C_ 0.357981 0.410418 0.647891 0.68181
C_ C_ 0.354366 0.467632 0.643897 -0.05681
C_ C_ 0.336242 -0.004711000000000021 0.667395 -0.08735
C_ C_ 0.340676 0.0495838 0.665125 -0.05681
C_ C_ 0.360245 0.0727849 0.640419 -0.05681
C_ C_ 0.366593 0.041342 0.616312 -0.08735
C_ C_ 0.360151 0.489896 0.617127 -0.08735
C_ C_ 0.334927 0.080441 0.688827 -0.08735
C_ C_ 0.348431 0.130783 0.688307 -0.08735
C_ C_ 0.359576 0.154483 0.662111 -0.05681
C_ C_ 0.363922 0.125437 0.638453 -0.08735
C_ C_ 0.458873 0.31299 0.654618 0.68181
C_ C_ 0.387307 0.376562 0.730048 0.1947
C_ C_ 0.398047 0.392133 0.758493 -0.08735
C_ C_ 0.383947 0.36103 0.781012 -0.08735
C_ C_ 0.356357 0.317111 0.775541 -0.05681
C_ C_ 0.345621 0.302744 0.746554 0.18498
C_ C_ 0.315632 0.25906 0.741692 -0.08735
C_ C_ 0.306182 0.225113 0.764331 -0.08735
C_ C_ 0.313875 0.242265 0.79294 -0.08735
C_ C_ 0.339396 0.285442 0.797882 0.18498
C_ C_ 0.312348 0.316914 0.84473 0.44287
C_ C_ 0.396906 0.288773 0.840467 0.44287
C_ C_ 0.403844 0.29307 0.869929 -0.05681
C_ C_ 0.452333 0.287877 0.883364 -0.08735
C_ C_ 0.461075 0.307969 0.911225 -0.08735
C_ C_ 0.418964 0.31883 0.929265 -0.05681
C_ C_ 0.371599 0.322812 0.916516 -0.05681
C_ C_ 0.363704 0.31473 0.88595 -0.05681
C_ C_ 0.315943 0.321132 0.874562 -0.05681
C_ C_ 0.275014 0.339351 0.891221 -0.08735
C_ C_ 0.282315 0.346052 0.920757 -0.08735
C_ C_ 0.330952 0.34126 0.933843 -0.05681
C_ C_ 0.338215 0.351568 0.963249 0.44287
C_ C_ 0.423063 0.324028 0.960323 0.44287
C_ C_ 0.387006 0.33533 0.507216 0.18498
C_ C_ 0.405594 0.382801 0.514337 -0.08735
C_ C_ 0.426667 0.39206 0.5414 -0.08735
C_ C_ 0.41097 0.361959 0.563852 -0.08735
C_ C_ 0.383149 0.318152 0.558814 0.18498
C_ C_ 0.37376 0.302883 0.529764 -0.05681
C_ C_ 0.347797 0.257558 0.52585 -0.08735
C_ C_ 0.32867 0.230211 0.54897 -0.08735
C_ C_ 0.336843 0.247159 0.576612 0.1947
N_ N_ 0.131285 0.167802 0.978687 -0.29468
N_ N_ 0.145823 0.192588 0.581803 -0.17154
N_ N_ 0.105396 0.172599 0.728498 -0.17154
N_ N_ 0.130203 0.20884 0.833751 -0.29468
N_ N_ 0.360473 0.332082 0.724186 -0.29468
N_ N_ 0.35119 0.297479 0.828476 -0.17154
N_ N_ 0.383076 0.342554 0.976603 -0.17154
N_ N_ 0.36352 0.290493 0.580559 -0.29468
O_ O_ 0.208638 0.179169 0.929193 -0.58347
O_ O_ 0.200927 0.183796 0.882144 -0.58347
O_ O_ 0.122618 0.252602 0.933177 -0.58347
O_ O_ 0.130801 0.264454 0.88689 -0.58347
O_ O_ 0.140985 0.10289 0.922399 -0.58347
O_ O_ 0.123141 0.11269 0.876121 -0.58347
O_ O_ 0.0586889 0.16761 0.930297 -0.58347
O_ O_ 0.052598 0.198472 0.886443 -0.58347
O_ O_ 0.0630001 0.215445 0.576222 -0.46727
O_ O_ 0.23193 0.169031 0.588308 -0.46727
O_ O_ 0.0290263 0.20655 0.724606 -0.46727
O_ O_ 0.186479 0.143163 0.734237 -0.46727
O_ O_ 0.280932 0.311446 0.677733 -0.58347
O_ O_ 0.291373 0.301804 0.631115 -0.58347
O_ O_ 0.35647 0.238747 0.681487 -0.58347
O_ O_ 0.369736 0.231751 0.635384 -0.58347
O_ O_ 0.348562 0.391666 0.67195 -0.58347
O_ O_ 0.362459 0.38306 0.626038 -0.58347
O_ O_ 0.429823 0.321196 0.675939 -0.58347
O_ O_ 0.439677 0.303183 0.630132 -0.58347
O_ O_ 0.434996 0.273139 0.823668 -0.46727
O_ O_ 0.266588 0.32518 0.831228 -0.46727
O_ O_ 0.465805 0.313012 0.97309 -0.46727
O_ O_ 0.298492 0.360713 0.978649 -0.46727
Zn Zn 0.135141 0.687627 0.384068 0.90689
Zn Zn 0.144812 0.679021 0.431691 0.90689
Zn Zn 0.381845 0.811849 0.131403 0.90689
Zn Zn 0.373055 0.821785 0.179882 0.90689
H_ H_ 0.309873 0.693223 0.442714 0.11455
H_ H_ 0.384249 0.665734 0.348522 0.11455
H_ H_ 0.29102 0.653805 0.354579 0.11455
H_ H_ 0.39779 0.689418 0.464593 0.11455
H_ H_ 0.491088 0.691482 0.456928 0.11455
H_ H_ 0.46697 0.680194 0.366404 0.11455
H_ H_ 0.15392 0.516192 0.444603 0.11455
H_ H_ 0.1497 0.931322 0.35113 0.11455
H_ H_ 0.109087 0.527355 0.354944 0.11455
H_ H_ 0.141544 0.93148 0.468454 0.11455
H_ H_ 0.146357 0.837603 0.464732 0.11455
H_ H_ 0.148913 0.850916 0.37458 0.11455
H_ H_ 0.0970926 0.611681 0.468242 0.11455
H_ H_ 0.0597753 0.583472 0.0224258 0.11455
H_ H_ 0.0989713 0.631951 0.0620341 0.11455
H_ H_ 0.204306 0.750521 0.475847 0.11455
H_ H_ 0.221602 0.799337 0.0126606 0.11455
H_ H_ 0.210974 0.7779 0.0649212 0.11455
H_ H_ 0.0250571 0.714959 0.127711 0.11455
H_ H_ 0.0123981 0.700195 0.178332 0.11455
H_ H_ 0.27139 0.651009 0.13939 0.11455
H_ H_ 0.253313 0.628441 0.190126 0.11455
H_ H_ 0.0879828 0.578531 0.252012 0.11455
H_ H_ 0.065011 0.554508 0.302828 0.11455
H_ H_ 0.0835269 0.617285 0.340782 0.11455
H_ H_ 0.168279 0.744071 0.258196 0.11455
H_ H_ 0.195473 0.793591 0.297739 0.11455
H_ H_ 0.18345 0.768021 0.346782 0.11455
H_ H_ 0.201417 0.800175 0.196388 0.11455
H_ H_ 0.132655 0.830079 0.0962709 0.11455
H_ H_ 0.229531 0.830553 0.10569 0.11455
H_ H_ 0.116729 0.809661 0.214441 0.11455
H_ H_ 0.0259766 0.815174 0.207119 0.11455
H_ H_ 0.0453664 0.821994 0.114513 0.11455
H_ H_ 0.350475 0.988163 0.189148 0.11455
H_ H_ 0.422587 0.564074 0.100692 0.11455
H_ H_ 0.391629 0.971031 0.0997113 0.11455
H_ H_ 0.352128 0.571426 0.212777 0.11455
H_ H_ 0.355049 0.665706 0.207621 0.11455
H_ H_ 0.411531 0.647736 0.122569 0.11455
H_ H_ 0.432297 0.890518 0.215116 0.11455
H_ H_ 0.451437 0.915626 0.262997 0.11455
H_ H_ 0.400324 0.882961 0.30425 0.11455
H_ H_ 0.310308 0.760218 0.224082 0.11455
H_ H_ 0.285695 0.70085 0.26323 0.11455
H_ H_ 0.298356 0.729144 0.312429 0.11455
H_ H_ 0.487897 0.804455 0.369873 0.11455
H_ H_ 0.498415 0.802435 0.421137 0.11455
H_ H_ 0.235831 0.832338 0.388889 0.11455
H_ H_ 0.247784 0.834771 0.442499 0.11455
H_ H_ 0.441738 0.895269 0.501836 0.11455
H_ H_ 0.430437 0.942317 0.0448358 0.11455
H_ H_ 0.414888 0.889698 0.0845308 0.11455
H_ H_ 0.36223 0.736754 0.0077088 0.11455
H_ H_ 0.333747 0.689942 0.0503452 0.11455
H_ H_ 0.325148 0.729288 0.0950622 0.11455
C_ C_ 0.23748 0.677324 0.40215 0.68181
C_ C_ 0.294147 0.679543 0.398854 -0.05681
C_ C_ 0.326398 0.690104 0.421944 -0.08735
C_ C_ 0.38108 0.693132 0.418906 -0.05681
C_ C_ 0.399176 0.685282 0.391297 -0.05681
C_ C_ 0.367771 0.673754 0.368639 -0.08735
C_ C_ 0.315098 0.670225 0.371683 -0.08735
C_ C_ 0.41277 0.695035 0.442154 -0.08735
C_ C_ 0.465476 0.690251 0.437688 -0.08735
C_ C_ 0.484771 0.682272 0.410759 -0.05681
C_ C_ 0.451656 0.681849 0.38749 -0.08735
C_ C_ 0.138141 0.781962 0.416576 0.68181
C_ C_ 0.134584 0.58463 0.401935 0.68181
C_ C_ 0.130161 0.528874 0.400177 -0.05681
C_ C_ 0.147504 0.999515 0.424889 -0.08735
C_ C_ 0.141925 0.945363 0.42294 -0.05681
C_ C_ 0.142879 0.921124 0.396532 -0.05681
C_ C_ 0.146041 0.95066 0.372167 -0.08735
C_ C_ 0.141796 1.0041732 0.372782 -0.08735
C_ C_ 0.137994 0.916158 0.447017 -0.08735
C_ C_ 0.138448 0.861312 0.445703 -0.08735
C_ C_ 0.138756 0.838391 0.419033 -0.05681
C_ C_ 0.140935 0.868138 0.39461 -0.08735
C_ C_ 0.0401999 0.68574 0.410843 0.68181
C_ C_ 0.114738 0.630677 0.485355 0.1947
C_ C_ 0.0855322 0.611747 0.0167347 -0.08735
C_ C_ 0.105086 0.641058 0.0392737 -0.08735
C_ C_ 0.139072 0.68153 0.0333332 -0.05681
C_ C_ 0.147843 0.692776 1.00356323 0.18498
C_ C_ 0.19104 0.745186 0.497674 -0.08735
C_ C_ 0.203658 0.762963 0.0191094 -0.08735
C_ C_ 0.193271 0.752519 0.0475471 -0.08735
C_ C_ 0.162748 0.711552 0.0555908 0.18498
C_ C_ 0.198875 0.686444 0.102059 0.44287
C_ C_ 0.112269 0.705271 0.0990213 0.44287
C_ C_ 0.104361 0.695345 0.128177 -0.05681
C_ C_ 0.05817 0.702966 0.140718 -0.08735
C_ C_ 0.0500597 0.690778 0.170248 -0.08735
C_ C_ 0.0934595 0.683539 0.186601 -0.05681
C_ C_ 0.139935 0.675383 0.173636 -0.05681
C_ C_ 0.146237 0.684902 0.144194 -0.05681
C_ C_ 0.194698 0.679031 0.131352 -0.05681
C_ C_ 0.236515 0.662149 0.148333 -0.08735
C_ C_ 0.229662 0.652775 0.178905 -0.08735
C_ C_ 0.180764 0.660243 0.191731 -0.05681
C_ C_ 0.174182 0.65375 0.221224 0.44287
C_ C_ 0.0887622 0.678286 0.216357 0.44287
C_ C_ 0.121327 0.648307 0.261454 0.18498
C_ C_ 0.0964247 0.60391 0.268841 -0.08735
C_ C_ 0.0870325 0.590865 0.297337 -0.08735
C_ C_ 0.096694 0.625161 0.320018 -0.08735
C_ C_ 0.124713 0.670129 0.314012 0.18498
C_ C_ 0.134336 0.681841 0.284455 -0.05681
C_ C_ 0.158667 0.728719 0.278786 -0.08735
C_ C_ 0.174876 0.758821 0.301822 -0.08735
C_ C_ 0.165651 0.745372 0.329952 0.1947
C_ C_ 0.278804 0.804359 0.155923 0.68181
C_ C_ 0.22159 0.809271 0.15007 -0.05681
C_ C_ 0.187534 0.808238 0.173752 -0.08735
C_ C_ 0.13558 0.811109 0.169436 -0.05681
C_ C_ 0.116431 0.815472 0.140822 -0.05681
C_ C_ 0.150131 0.820468 0.117337 -0.08735
C_ C_ 0.203015 0.823682 0.122418 -0.08735
C_ C_ 0.102642 0.80575 0.192614 -0.08735
C_ C_ 0.0514107 0.816274 0.188237 -0.08735
C_ C_ 0.0303723 0.822 0.160581 -0.05681
C_ C_ 0.0632942 0.820159 0.136366 -0.08735
C_ C_ 0.380091 0.716877 0.160375 0.68181
C_ C_ 0.366915 0.916259 0.149062 0.68181
C_ C_ 0.372959 0.973063 0.144984 -0.05681
C_ C_ 0.369556 0.503841 0.170623 -0.08735
C_ C_ 0.384725 0.555518 0.170541 -0.05681
C_ C_ 0.398145 0.578316 0.144553 -0.05681
C_ C_ 0.409968 0.547765 0.120792 -0.08735
C_ C_ 0.38336 -0.005469999999999975 0.118361 -0.08735
C_ C_ 0.368067 0.58738 0.193201 -0.08735
C_ C_ 0.366247 0.641119 0.190135 -0.08735
C_ C_ 0.377892 0.662257 0.162999 -0.05681
C_ C_ 0.401032 0.630819 0.142314 -0.08735
C_ C_ 0.476019 0.827074 0.155473 0.68181
C_ C_ 0.415226 0.868858 0.231841 0.1947
C_ C_ 0.420497 0.888035 0.258588 -0.08735
C_ C_ 0.395862 0.867545 0.282428 -0.08735
C_ C_ 0.360809 0.827253 0.278232 -0.05681
C_ C_ 0.357895 0.807038 0.249231 0.18498
C_ C_ 0.325215 0.765579 0.244337 -0.08735
C_ C_ 0.306379 0.736682 0.267131 -0.08735
C_ C_ 0.309234 0.756515 0.294898 -0.08735
C_ C_ 0.339854 0.799035 0.301608 0.18498
C_ C_ 0.310271 0.822155 0.348166 0.44287
C_ C_ 0.39616 0.805707 0.342235 0.44287
C_ C_ 0.406105 0.811508 0.371506 -0.05681
C_ C_ 0.454761 0.813032 0.382538 -0.08735
C_ C_ 0.461641 0.812982 0.412262 -0.08735
C_ C_ 0.420845 0.81464 0.431844 -0.05681
C_ C_ 0.370836 0.818094 0.421021 -0.05681
C_ C_ 0.364294 0.817266 0.390652 -0.05681
C_ C_ 0.315779 0.822152 0.378936 -0.05681
C_ C_ 0.273312 0.825564 0.39769 -0.08735
C_ C_ 0.280562 0.825594 0.427981 -0.08735
C_ C_ 0.329047 0.822853 0.439222 -0.05681
C_ C_ 0.339336 0.830906 0.468911 0.44287
C_ C_ 0.427922 0.814561 0.462704 0.44287
C_ C_ 0.390324 0.836991 0.0093857 0.18498
C_ C_ 0.405965 0.889141 0.0129051 -0.08735
C_ C_ 0.421034 0.903291 0.0403308 -0.08735
C_ C_ 0.410466 0.870055 0.0641955 -0.08735
C_ C_ 0.387949 0.822613 0.060966 0.18498
C_ C_ 0.38204 0.804668 0.0321576 -0.05681
C_ C_ 0.362214 0.75511 0.028948 -0.08735
C_ C_ 0.349792 0.727504 0.0534341 -0.08735
C_ C_ 0.345486 0.749522 0.079357 0.1947
N_ N_ 0.145706 0.671086 0.480308 -0.29468
N_ N_ 0.158151 0.702096 0.0863426 -0.17154
N_ N_ 0.127522 0.660974 0.232665 -0.17154
N_ N_ 0.137014 0.702508 0.336346 -0.29468
N_ N_ 0.379863 0.831936 0.226403 -0.29468
N_ N_ 0.349593 0.81396 0.331024 -0.17154
N_ N_ 0.386978 0.822245 0.480274 -0.17154
N_ N_ 0.373013 0.793472 0.083575 -0.29468
O_ O_ 0.217294 0.678622 0.426791 -0.58347
O_ O_ 0.21053 0.685235 0.380761 -0.58347
O_ O_ 0.138664 0.752822 0.438274 -0.58347
O_ O_ 0.139226 0.761283 0.392436 -0.58347
O_ O_ 0.144268 0.604224 0.425983 -0.58347
O_ O_ 0.132665 0.611586 0.37946 -0.58347
O_ O_ 0.0695115 0.674781 0.432327 -0.58347
O_ O_ 0.0595887 0.68982 0.386578 -0.58347
O_ O_ 0.0746384 0.725654 0.0846981 -0.46727
O_ O_ 0.241721 0.675702 0.0897498 -0.46727
O_ O_ 0.0499246 0.697818 0.228912 -0.46727
O_ O_ 0.212118 0.642291 0.238436 -0.46727
O_ O_ 0.296946 0.822157 0.178929 -0.58347
O_ O_ 0.307977 0.795335 0.134618 -0.58347
O_ O_ 0.365738 0.74343 0.181606 -0.58347
O_ O_ 0.399726 0.738908 0.139032 -0.58347
O_ O_ 0.37622 0.898001 0.173613 -0.58347
O_ O_ 0.362075 0.885926 0.12777 -0.58347
O_ O_ 0.447934 0.82139 0.177608 -0.58347
O_ O_ 0.458086 0.827959 0.130248 -0.58347
O_ O_ 0.433522 0.788403 0.325918 -0.46727
O_ O_ 0.265354 0.835214 0.337425 -0.46727
O_ O_ 0.474955 0.808204 0.47281 -0.46727
O_ O_ 0.305511 0.85218 0.486478 -0.46727
Zn Zn 0.117368 0.683853 0.883743 0.90689
Zn Zn 0.129995 0.673485 0.931854 0.90689
Zn Zn 0.362937 0.806396 0.631167 0.90689
Zn Zn 0.354434 0.812234 0.679463 0.90689
H_ H_ 0.294459 0.701516 0.944828 0.11455
H_ H_ 0.363374 0.677569 0.847998 0.11455
H_ H_ 0.273182 0.678989 0.855948 0.11455
H_ H_ 0.386918 0.682278 0.96485 0.11455
H_ H_ 0.474049 0.678092 0.957744 0.11455
H_ H_ 0.455195 0.68915 0.867027 0.11455
H_ H_ 0.0924337 0.512924 0.93936 0.11455
H_ H_ 0.10446 0.932825 0.84686 0.11455
H_ H_ 0.163144 0.528185 0.858006 0.11455
H_ H_ 0.16867 0.924417 0.960809 0.11455
H_ H_ 0.152487 0.83769 0.957402 0.11455
H_ H_ 0.0953215 0.845456 0.868988 0.11455
H_ H_ 0.0834278 0.597818 0.970478 0.11455
H_ H_ 0.0838582 0.581509 0.518462 0.11455
H_ H_ 0.112999 0.635308 0.557915 0.11455
H_ H_ 0.193917 0.741029 0.976328 0.11455
H_ H_ 0.220632 0.814926 0.516341 0.11455
H_ H_ 0.179624 0.799882 0.563823 0.11455
H_ H_ 1.0196124 0.71841 0.627978 0.11455
H_ H_ 1.0116663 0.707016 0.678827 0.11455
H_ H_ 0.264826 0.648458 0.636665 0.11455
H_ H_ 0.254794 0.638067 0.690366 0.11455
H_ H_ 0.0946531 0.571714 0.749621 0.11455
H_ H_ 0.0659453 0.544886 0.79767 0.11455
H_ H_ 0.0755292 0.603165 0.838914 0.11455
H_ H_ 0.136545 0.747456 0.760003 0.11455
H_ H_ 0.167327 0.794216 0.801469 0.11455
H_ H_ 0.160903 0.760657 0.8492 0.11455
H_ H_ 0.184219 0.806859 0.694477 0.11455
H_ H_ 0.119516 0.852789 0.598805 0.11455
H_ H_ 0.206477 0.82834 0.603436 0.11455
H_ H_ 0.0992491 0.817974 0.71579 0.11455
H_ H_ 0.0105573 0.826091 0.707894 0.11455
H_ H_ 0.031881 0.833286 0.615919 0.11455
H_ H_ 0.323152 0.979186 0.686416 0.11455
H_ H_ 0.368628 0.561888 0.594108 0.11455
H_ H_ 0.380297 0.963717 0.601882 0.11455
H_ H_ 0.349839 0.565684 0.712177 0.11455
H_ H_ 0.36595 0.657683 0.708183 0.11455
H_ H_ 0.370009 0.64742 0.617877 0.11455
H_ H_ 0.411298 0.890542 0.713814 0.11455
H_ H_ 0.430293 0.917938 0.760963 0.11455
H_ H_ 0.400029 0.873575 0.803089 0.11455
H_ H_ 0.3079 0.743467 0.7275 0.11455
H_ H_ 0.269376 0.703171 0.768165 0.11455
H_ H_ 0.312819 0.715117 0.815011 0.11455
H_ H_ 0.494846 0.810558 0.874108 0.11455
H_ H_ 0.504207 0.805644 0.923226 0.11455
H_ H_ 0.240497 0.845647 0.886072 0.11455
H_ H_ 0.253963 0.854792 0.937206 0.11455
H_ H_ 0.413137 0.914184 0.994617 0.11455
H_ H_ 0.453197 0.91814 0.551715 0.11455
H_ H_ 0.421017 0.865617 0.589602 0.11455
H_ H_ 0.329768 0.750806 0.505268 0.11455
H_ H_ 0.285019 0.707006 0.544989 0.11455
H_ H_ 0.311373 0.729702 0.595956 0.11455
C_ C_ 0.222524 0.685483 0.905749 0.68181
C_ C_ 0.276621 0.686306 0.901071 -0.05681
C_ C_ 0.309681 0.683667 0.925352 -0.08735
C_ C_ 0.362166 0.686272 0.920525 -0.05681
C_ C_ 0.382213 0.68516 0.891326 -0.05681
C_ C_ 0.350639 0.685796 0.869684 -0.08735
C_ C_ 0.298168 0.681985 0.873616 -0.08735
C_ C_ 0.397282 0.679867 0.942599 -0.08735
C_ C_ 0.449249 0.680138 0.938443 -0.08735
C_ C_ 0.469698 0.682073 0.910424 -0.05681
C_ C_ 0.435686 0.686193 0.887024 -0.08735
C_ C_ 0.119475 0.777725 0.912612 0.68181
C_ C_ 0.125576 0.583386 0.901894 0.68181
C_ C_ 0.123633 0.527836 0.897502 -0.05681
C_ C_ 0.145081 0.994913 0.917905 -0.08735
C_ C_ 0.138905 0.940768 0.917169 -0.05681
C_ C_ 0.120739 0.917625 0.891018 -0.05681
C_ C_ 0.113981 0.949441 0.866668 -0.08735
C_ C_ 0.117377 0.00357587 0.869304 -0.08735
C_ C_ 0.154262 0.909247 0.940164 -0.08735
C_ C_ 0.14658 0.856604 0.937782 -0.08735
C_ C_ 0.125872 0.833544 0.912048 -0.05681
C_ C_ 0.113629 0.862393 0.888537 -0.08735
C_ C_ 0.0276492 0.666313 0.912065 0.68181
C_ C_ 0.0972334 0.623564 0.988103 0.1947
C_ C_ 0.100678 0.618554 0.513477 -0.08735
C_ C_ 0.121199 0.645812 0.536238 -0.08735
C_ C_ 0.14957 0.689703 0.530704 -0.05681
C_ C_ 0.161507 0.702209 0.502237 0.18498
C_ C_ 0.179885 0.733259 0.997204 -0.08735
C_ C_ 0.200999 0.779818 0.52038 -0.08735
C_ C_ 0.181045 0.770739 0.547711 -0.08735
C_ C_ 0.161462 0.721277 0.554254 0.18498
C_ C_ 0.194492 0.691439 0.59999 0.44287
C_ C_ 0.107443 0.714309 0.597097 0.44287
C_ C_ 0.102981 0.706907 0.626954 -0.05681
C_ C_ 0.0555982 0.712047 0.640188 -0.08735
C_ C_ 0.0495936 0.703017 0.670132 -0.08735
C_ C_ 0.0894836 0.68413 0.686463 -0.05681
C_ C_ 0.136636 0.675401 0.672658 -0.05681
C_ C_ 0.143037 0.689833 0.643196 -0.05681
C_ C_ 0.189902 0.683216 0.63024 -0.05681
C_ C_ 0.231803 0.663509 0.646528 -0.08735
C_ C_ 0.225271 0.656718 0.676983 -0.08735
C_ C_ 0.177948 0.661275 0.689642 -0.05681
C_ C_ 0.172294 0.65554 0.71898 0.44287
C_ C_ 0.0860773 0.677234 0.715851 0.44287
C_ C_ 0.116038 0.646136 0.761465 0.18498
C_ C_ 0.0973204 0.597963 0.766751 -0.08735
C_ C_ 0.0837396 0.582251 0.794436 -0.08735
C_ C_ 0.0924606 0.613313 0.818323 -0.08735
C_ C_ 0.116181 0.660818 0.813896 0.18498
C_ C_ 0.123675 0.678453 0.784917 -0.05681
C_ C_ 0.140399 0.727395 0.780842 -0.08735
C_ C_ 0.150737 0.756838 0.804187 -0.08735
C_ C_ 0.145036 0.738238 0.831267 0.1947
C_ C_ 0.261491 0.811718 0.653506 0.68181
C_ C_ 0.204301 0.816374 0.649675 -0.05681
C_ C_ 0.171254 0.819317 0.674363 -0.08735
C_ C_ 0.119156 0.824204 0.670194 -0.05681
C_ C_ 0.098432 0.832774 0.642515 -0.05681
C_ C_ 0.133395 0.844055 0.619701 -0.08735
C_ C_ 0.184619 0.831404 0.622922 -0.08735
C_ C_ 0.0855613 0.821196 0.693473 -0.08735
C_ C_ 0.0323627 0.827437 0.689622 -0.08735
C_ C_ 0.0121484 0.832089 0.661727 -0.05681
C_ C_ 0.0454018 0.83099 0.638039 -0.08735
C_ C_ 0.366498 0.713762 0.66105 0.68181
C_ C_ 0.348233 0.909871 0.647749 0.68181
C_ C_ 0.343762 0.965736 0.643893 -0.05681
C_ C_ 0.350031 0.498083 0.66797 -0.08735
C_ C_ 0.35958 0.550953 0.66655 -0.05681
C_ C_ 0.359889 0.574345 0.639523 -0.05681
C_ C_ 0.362525 0.543663 0.614683 -0.08735
C_ C_ 0.360183 0.9883 0.617943 -0.08735
C_ C_ 0.362515 0.580616 0.692148 -0.08735
C_ C_ 0.363235 0.632848 0.68989 -0.08735
C_ C_ 0.364177 0.658134 0.662937 -0.05681
C_ C_ 0.362527 0.627765 0.637464 -0.08735
C_ C_ 0.458319 0.823317 0.652194 0.68181
C_ C_ 0.394742 0.868221 0.730828 0.1947
C_ C_ 0.40625 0.886444 0.75887 -0.08735
C_ C_ 0.390816 0.858908 0.782139 -0.08735
C_ C_ 0.364068 0.814639 0.778836 -0.05681
C_ C_ 0.353863 0.795901 0.750365 0.18498
C_ C_ 0.326458 0.752049 0.746945 -0.08735
C_ C_ 0.303943 0.72636 0.770464 -0.08735
C_ C_ 0.322162 0.738097 0.797626 -0.08735
C_ C_ 0.349721 0.784142 0.802673 0.18498
C_ C_ 0.313671 0.813542 0.848799 0.44287
C_ C_ 0.403083 0.802359 0.843711 0.44287
C_ C_ 0.411018 0.812422 0.872589 -0.05681
C_ C_ 0.459621 0.812983 0.885145 -0.08735
C_ C_ 0.464805 0.814174 0.91491 -0.08735
C_ C_ 0.421715 0.814212 0.932623 -0.05681
C_ C_ 0.373206 0.817864 0.92082 -0.05681
C_ C_ 0.368421 0.817757 0.890903 -0.05681
C_ C_ 0.320345 0.823186 0.877721 -0.05681
C_ C_ 0.279235 0.839562 0.894794 -0.08735
C_ C_ 0.284905 0.841453 0.925451 -0.08735
C_ C_ 0.32976 0.828376 0.937981 -0.05681
C_ C_ 0.335808 0.82515 0.968469 0.44287
C_ C_ 0.424152 0.811532 0.963745 0.44287
C_ C_ 0.393359 0.832908 0.510648 0.18498
C_ C_ 0.418984 0.875797 0.51838 -0.08735
C_ C_ 0.427801 0.887703 0.546994 -0.08735
C_ C_ 0.407897 0.859768 0.568309 -0.08735
C_ C_ 0.376132 0.818238 0.56077 0.18498
C_ C_ 0.369914 0.803377 0.532378 -0.05681
C_ C_ 0.340305 0.759702 0.527534 -0.08735
C_ C_ 0.314993 0.734677 0.549585 -0.08735
C_ C_ 0.327751 0.748157 0.577365 0.1947
N_ N_ 0.130826 0.662184 0.981455 -0.29468
N_ N_ 0.152738 0.706408 0.584135 -0.17154
N_ N_ 0.125242 0.659277 0.731588 -0.17154
N_ N_ 0.124896 0.69205 0.836036 -0.29468
N_ N_ 0.367333 0.824592 0.72686 -0.29468
N_ N_ 0.355228 0.80278 0.832051 -0.17154
N_ N_ 0.383771 0.820164 0.980599 -0.17154
N_ N_ 0.357404 0.788725 0.582472 -0.29468
O_ O_ 0.203899 0.668336 0.927953 -0.58347
O_ O_ 0.193855 0.699708 0.885895 -0.58347
O_ O_ 0.135609 0.751117 0.932251 -0.58347
O_ O_ 0.103711 0.755656 0.890174 -0.58347
O_ O_ 0.127038 0.601012 0.928121 -0.58347
O_ O_ 0.133388 0.612915 0.881077 -0.58347
O_ O_ 0.0558141 0.67786 0.932418 -0.58347
O_ O_ 0.0459032 0.665415 0.886499 -0.58347
O_ O_ 0.0666521 0.730421 0.58268 -0.46727
O_ O_ 0.230314 0.668582 0.585823 -0.46727
O_ O_ 0.0403062 0.676139 0.727287 -0.46727
O_ O_ 0.212425 0.645727 0.735052 -0.46727
O_ O_ 0.278939 0.803316 0.678224 -0.58347
O_ O_ 0.288423 0.807922 0.630793 -0.58347
O_ O_ 0.366967 0.742457 0.682654 -0.58347
O_ O_ 0.368677 0.733774 0.637168 -0.58347
O_ O_ 0.34713 0.887633 0.671934 -0.58347
O_ O_ 0.358058 0.883629 0.626156 -0.58347
O_ O_ 0.430252 0.824235 0.674602 -0.58347
O_ O_ 0.439327 0.811283 0.627553 -0.58347
O_ O_ 0.443724 0.797499 0.828001 -0.46727
O_ O_ 0.267018 0.81119 0.838299 -0.46727
O_ O_ 0.466353 0.797998 0.975517 -0.46727
O_ O_ 0.296955 0.830238 0.985472 -0.46727
Zn Zn 0.636324 0.177688 0.382103 0.90689
Zn Zn 0.642153 0.169214 0.4295 0.90689
Zn Zn 0.883585 0.323294 0.133801 0.90689
Zn Zn 0.874548 0.331902 0.181655 0.90689
H_ H_ 0.81649 0.171326 0.447408 0.11455
H_ H_ 0.886375 0.197134 0.349384 0.11455
H_ H_ 0.791991 0.202785 0.357822 0.11455
H_ H_ 0.900001 0.169284 0.465755 0.11455
H_ H_ 0.994413 0.175703 0.456741 0.11455
H_ H_ 0.969316 0.197692 0.365053 0.11455
H_ H_ 0.633868 0.0100138 0.438524 0.11455
H_ H_ 0.632922 0.419784 0.350584 0.11455
H_ H_ 0.667522 0.0173569 0.350055 0.11455
H_ H_ 0.598276 0.419553 0.465353 0.11455
H_ H_ 0.601488 0.327427 0.461701 0.11455
H_ H_ 0.616077 0.339926 0.37206 0.11455
H_ H_ 0.591053 0.0941794 0.462814 0.11455
H_ H_ 0.579152 0.0814234 0.0212362 0.11455
H_ H_ 0.622113 0.126596 0.0618487 0.11455
H_ H_ 0.701275 0.232667 0.476601 0.11455
H_ H_ 0.714495 0.317308 0.0155375 0.11455
H_ H_ 0.705997 0.287575 0.0655702 0.11455
H_ H_ 0.517388 0.199104 0.119777 0.11455
H_ H_ 0.504443 0.192377 0.175028 0.11455
H_ H_ 0.766272 0.185641 0.144455 0.11455
H_ H_ 0.750189 0.169285 0.197609 0.11455
H_ H_ 0.556865 0.0948394 0.247916 0.11455
H_ H_ 0.53413 0.0671181 0.29615 0.11455
H_ H_ 0.56672 0.115381 0.338712 0.11455
H_ H_ 0.644471 0.252615 0.262682 0.11455
H_ H_ 0.693383 0.288885 0.300978 0.11455
H_ H_ 0.677605 0.25295 0.348574 0.11455
H_ H_ 0.703286 0.314028 0.193465 0.11455
H_ H_ 0.64221 0.354563 0.0972282 0.11455
H_ H_ 0.733099 0.356305 0.10769 0.11455
H_ H_ 0.614899 0.297834 0.210545 0.11455
H_ H_ 0.522443 0.304826 0.201727 0.11455
H_ H_ 0.559411 0.337039 0.112138 0.11455
H_ H_ 0.855855 0.495424 0.193798 0.11455
H_ H_ 0.833789 0.0741336 0.105207 0.11455
H_ H_ 0.912258 0.483091 0.10808 0.11455
H_ H_ 0.89476 0.0779096 0.218816 0.11455
H_ H_ 0.900341 0.172234 0.212184 0.11455
H_ H_ 0.851826 0.159031 0.125216 0.11455
H_ H_ 0.937942 0.396209 0.219756 0.11455
H_ H_ 0.941684 0.438041 0.267022 0.11455
H_ H_ 0.895288 0.398062 0.306856 0.11455
H_ H_ 0.806842 0.274608 0.224943 0.11455
H_ H_ 0.787758 0.214774 0.264726 0.11455
H_ H_ 0.806341 0.239585 0.31328 0.11455
H_ H_ 0.976655 0.323157 0.376737 0.11455
H_ H_ -0.02335699999999996 0.31422 0.43058 0.11455
H_ H_ 0.724645 0.35543 0.387709 0.11455
H_ H_ 0.732344 0.349601 0.438038 0.11455
H_ H_ 0.904681 0.429049 0.498924 0.11455
H_ H_ 0.966411 0.441551 0.0458633 0.11455
H_ H_ 0.931421 0.394776 0.087521 0.11455
H_ H_ 0.843296 0.256484 0.0101632 0.11455
H_ H_ 0.804831 0.220371 0.0536949 0.11455
H_ H_ 0.832951 0.248584 0.0998849 0.11455
C_ C_ 0.737121 0.185275 0.405797 0.68181
C_ C_ 0.793534 0.185956 0.402186 -0.05681
C_ C_ 0.828238 0.182361 0.426089 -0.08735
C_ C_ 0.881795 0.185808 0.421498 -0.05681
C_ C_ 0.902102 0.189224 0.393741 -0.05681
C_ C_ 0.868825 0.192046 0.370668 -0.08735
C_ C_ 0.815545 0.196017 0.375009 -0.08735
C_ C_ 0.916358 0.175926 0.443526 -0.08735
C_ C_ 0.969086 0.174311 0.438773 -0.08735
C_ C_ 0.987788 0.184829 0.410761 -0.05681
C_ C_ 0.955416 0.191933 0.388238 -0.08735
C_ C_ 0.631628 0.26956 0.415508 0.68181
C_ C_ 0.649126 0.0773392 0.39731 0.68181
C_ C_ 0.653398 0.0202151 0.395314 -0.05681
C_ C_ 0.633903 0.486518 0.424136 -0.08735
C_ C_ 0.626704 0.432381 0.421612 -0.05681
C_ C_ 0.632094 0.40887 0.395092 -0.05681
C_ C_ 0.635595 0.438997 0.370983 -0.08735
C_ C_ 0.637137 0.492562 0.372628 -0.08735
C_ C_ 0.617263 0.401255 0.44722 -0.08735
C_ C_ 0.618764 0.348393 0.444837 -0.08735
C_ C_ 0.625034 0.325639 0.417884 -0.05681
C_ C_ 0.625235 0.35635 0.39278 -0.08735
C_ C_ 0.543292 0.171016 0.407282 0.68181
C_ C_ 0.607467 0.113947 0.480651 0.1947
C_ C_ 0.595446 0.118081 0.0173904 -0.08735
C_ C_ 0.622983 0.142681 0.0399226 -0.08735
C_ C_ 0.648923 0.188102 0.0337816 -0.05681
C_ C_ 0.650685 0.203924 1.00478093 0.18498
C_ C_ 0.679053 0.22776 0.496342 -0.08735
C_ C_ 0.699461 0.279039 0.0198255 -0.08735
C_ C_ 0.690404 0.26485 0.048866 -0.08735
C_ C_ 0.668791 0.218874 0.056367 0.18498
C_ C_ 0.697095 0.197797 0.104058 0.44287
C_ C_ 0.608523 0.211606 0.0965492 0.44287
C_ C_ 0.597521 0.197393 0.124984 -0.05681
C_ C_ 0.54747 0.196081 0.135118 -0.08735
C_ C_ 0.540363 0.185193 0.164836 -0.08735
C_ C_ 0.582312 0.178027 0.183856 -0.05681
C_ C_ 0.631309 0.169905 0.17255 -0.05681
C_ C_ 0.639277 0.183954 0.143732 -0.05681
C_ C_ 0.687618 0.181311 0.132868 -0.05681
C_ C_ 0.729746 0.175475 0.152222 -0.08735
C_ C_ 0.719183 0.170707 0.182499 -0.08735
C_ C_ 0.672153 0.165891 0.191548 -0.05681
C_ C_ 0.662943 0.165723 0.222237 0.44287
C_ C_ 0.575854 0.180752 0.214213 0.44287
C_ C_ 0.60431 0.157092 0.261257 0.18498
C_ C_ 0.573877 0.113743 0.26646 -0.08735
C_ C_ 0.559423 0.100161 0.293571 -0.08735
C_ C_ 0.577034 0.128518 0.316616 -0.08735
C_ C_ 0.611078 0.166346 0.312581 0.18498
C_ C_ 0.619445 0.185831 0.284525 -0.05681
C_ C_ 0.643636 0.232992 0.281991 -0.08735
C_ C_ 0.664572 0.257061 0.304873 -0.08735
C_ C_ 0.660264 0.234498 0.33131 0.1947
C_ C_ 0.779355 0.326553 0.155702 0.68181
C_ C_ 0.726025 0.326976 0.151135 -0.05681
C_ C_ 0.690433 0.313324 0.172955 -0.08735
C_ C_ 0.638891 0.317327 0.167532 -0.05681
C_ C_ 0.621517 0.32453 0.139063 -0.05681
C_ C_ 0.656882 0.338875 0.117618 -0.08735
C_ C_ 0.708461 0.339571 0.123812 -0.08735
C_ C_ 0.603198 0.313896 0.189885 -0.08735
C_ C_ 0.551201 0.309191 0.183987 -0.08735
C_ C_ 0.533883 0.317422 0.155597 -0.05681
C_ C_ 0.570625 0.324782 0.132701 -0.08735
C_ C_ 0.882766 0.227722 0.163949 0.68181
C_ C_ 0.882138 0.425185 0.152719 0.68181
C_ C_ 0.881685 0.481343 0.14941 -0.05681
C_ C_ 0.87682 0.00974421 0.175846 -0.08735
C_ C_ 0.879023 0.0636023 0.174207 -0.05681
C_ C_ 0.867897 0.0864332 0.146897 -0.05681
C_ C_ 0.848067 0.0564674 0.124082 -0.08735
C_ C_ 0.891446 0.504976 0.122718 -0.08735
C_ C_ 0.891691 0.0943613 0.197532 -0.08735
C_ C_ 0.890574 0.148194 0.193908 -0.08735
C_ C_ 0.882706 0.171755 0.167402 -0.05681
C_ C_ 0.866371 0.141249 0.144173 -0.08735
C_ C_ 0.975924 0.323041 0.157542 0.68181
C_ C_ 0.908867 0.386053 0.235453 0.1947
C_ C_ 0.915054 0.405797 0.263042 -0.08735
C_ C_ 0.886969 0.386365 0.286394 -0.08735
C_ C_ 0.858416 0.340507 0.280405 -0.05681
C_ C_ 0.848971 0.326237 0.251429 0.18498
C_ C_ 0.819396 0.28308 0.246472 -0.08735
C_ C_ 0.808438 0.250132 0.268857 -0.08735
C_ C_ 0.816505 0.265695 0.296789 -0.08735
C_ C_ 0.838989 0.310422 0.303521 0.18498
C_ C_ 0.801891 0.335611 0.349094 0.44287
C_ C_ 0.891155 0.324757 0.346142 0.44287
C_ C_ 0.897463 0.334 0.375509 -0.05681
C_ C_ 0.944688 0.325373 0.389235 -0.08735
C_ C_ 0.944177 0.319441 0.418662 -0.08735
C_ C_ 0.899641 0.323825 0.435481 -0.05681
C_ C_ 0.856154 0.340906 0.422661 -0.05681
C_ C_ 0.852546 0.337606 0.392101 -0.05681
C_ C_ 0.804843 0.340659 0.378787 -0.05681
C_ C_ 0.762445 0.346813 0.396414 -0.08735
C_ C_ 0.766382 0.35055 0.425016 -0.08735
C_ C_ 0.811532 0.346705 0.439443 -0.05681
C_ C_ 0.817296 0.353393 0.468675 0.44287
C_ C_ 0.902855 0.325669 0.465522 0.44287
C_ C_ 0.898884 0.348331 0.00963378 0.18498
C_ C_ 0.929086 0.39286 0.0143425 -0.08735
C_ C_ 0.942827 0.40819 0.0429648 -0.08735
C_ C_ 0.92114 0.382154 0.0665241 -0.08735
C_ C_ 0.892242 0.337863 0.0620726 0.18498
C_ C_ 0.882029 0.319077 0.033735 -0.05681
C_ C_ 0.851267 0.273527 0.0307715 -0.08735
C_ C_ 0.83051 0.254322 0.0544154 -0.08735
C_ C_ 0.846966 0.269914 0.0814169 0.1947
N_ N_ 0.638649 0.153669 0.476821 -0.29468
N_ N_ 0.657355 0.208745 0.085985 -0.17154
N_ N_ 0.616318 0.172797 0.23267 -0.17154
N_ N_ 0.632806 0.191124 0.33569 -0.29468
N_ N_ 0.879305 0.346886 0.229974 -0.29468
N_ N_ 0.844976 0.326968 0.333375 -0.17154
N_ N_ 0.862395 0.345448 0.481162 -0.17154
N_ N_ 0.875386 0.311834 0.0860821 -0.29468
O_ O_ 0.717425 0.180199 0.430531 -0.58347
O_ O_ 0.708609 0.18457 0.383628 -0.58347
O_ O_ 0.634725 0.240767 0.436501 -0.58347
O_ O_ 0.632261 0.252246 0.390654 -0.58347
O_ O_ 0.65355 0.0978507 0.421516 -0.58347
O_ O_ 0.639698 0.103956 0.37493 -0.58347
O_ O_ 0.570058 0.161698 0.429199 -0.58347
O_ O_ 0.563195 0.172682 0.382944 -0.58347
O_ O_ 0.572538 0.220673 0.0776724 -0.46727
O_ O_ 0.744528 0.202601 0.0946706 -0.46727
O_ O_ 0.529799 0.173989 0.224299 -0.46727
O_ O_ 0.70224 0.153717 0.23885 -0.46727
O_ O_ 0.796917 0.337224 0.180169 -0.58347
O_ O_ 0.80873 0.323191 0.135052 -0.58347
O_ O_ 0.878847 0.253525 0.186314 -0.58347
O_ O_ 0.881986 0.248618 0.139613 -0.58347
O_ O_ 0.874941 0.406535 0.177094 -0.58347
O_ O_ 0.888332 0.397372 0.13157 -0.58347
O_ O_ 0.9497 0.329716 0.180928 -0.58347
O_ O_ 0.954589 0.32274 0.133178 -0.58347
O_ O_ 0.932456 0.31578 0.33017 -0.46727
O_ O_ 0.757152 0.330614 0.33636 -0.46727
O_ O_ 0.941205 0.305758 0.47802 -0.46727
O_ O_ 0.779418 0.36773 0.485251 -0.46727
Zn Zn 0.623434 0.186914 0.8853 0.90689
Zn Zn 0.634225 0.184443 0.93397 0.90689
Zn Zn 0.861974 0.31525 0.633489 0.90689
Zn Zn 0.853986 0.318628 0.681721 0.90689
H_ H_ 0.796852 0.199616 0.946927 0.11455
H_ H_ 0.868801 0.16305 0.852866 0.11455
H_ H_ 0.778359 0.166847 0.857486 0.11455
H_ H_ 0.884468 0.197107 0.967583 0.11455
H_ H_ 0.980446 0.200908 0.958385 0.11455
H_ H_ 0.955088 0.163683 0.870282 0.11455
H_ H_ 0.641838 0.0181612 0.94731 0.11455
H_ H_ 0.66682 0.436294 0.851406 0.11455
H_ H_ 0.623392 0.026451 0.854396 0.11455
H_ H_ 0.602873 0.432165 0.965346 0.11455
H_ H_ 0.590513 0.342235 0.956561 0.11455
H_ H_ 0.642275 0.352225 0.871612 0.11455
H_ H_ 0.578461 0.116258 0.973046 0.11455
H_ H_ 0.578852 0.0608114 0.510763 0.11455
H_ H_ 0.603255 0.112494 0.555184 0.11455
H_ H_ 0.690519 0.257379 0.976951 0.11455
H_ H_ 0.717059 0.292772 0.513893 0.11455
H_ H_ 0.683987 0.267002 0.565717 0.11455
H_ H_ 0.514878 0.209907 0.626239 0.11455
H_ H_ 0.505718 0.200678 0.678275 0.11455
H_ H_ 0.754121 0.126276 0.635229 0.11455
H_ H_ 0.748555 0.131549 0.688235 0.11455
H_ H_ 0.583117 0.0745103 0.750272 0.11455
H_ H_ 0.572223 0.0426268 0.799864 0.11455
H_ H_ 0.590206 0.102335 0.839493 0.11455
H_ H_ 0.64298 0.240726 0.758817 0.11455
H_ H_ 0.660836 0.297623 0.800472 0.11455
H_ H_ 0.66439 0.261696 0.849164 0.11455
H_ H_ 0.686254 0.319678 0.695524 0.11455
H_ H_ 0.618535 0.307196 0.596597 0.11455
H_ H_ 0.712568 0.297405 0.606405 0.11455
H_ H_ 0.598637 0.309005 0.713276 0.11455
H_ H_ 0.509998 0.320562 0.705181 0.11455
H_ H_ 0.535782 0.325354 0.616107 0.11455
H_ H_ 0.879744 0.484965 0.692554 0.11455
H_ H_ 0.843131 0.0684994 0.598951 0.11455
H_ H_ 0.818155 0.473605 0.609261 0.11455
H_ H_ 0.893534 0.0707204 0.712279 0.11455
H_ H_ 0.88246 0.161993 0.710763 0.11455
H_ H_ 0.851205 0.149399 0.620097 0.11455
H_ H_ 0.925282 0.383155 0.717288 0.11455
H_ H_ 0.943305 0.408659 0.766606 0.11455
H_ H_ 0.897055 0.371665 0.805768 0.11455
H_ H_ 0.791882 0.259968 0.724673 0.11455
H_ H_ 0.764149 0.207479 0.764093 0.11455
H_ H_ 0.790132 0.223532 0.812316 0.11455
H_ H_ 0.983191 0.28472 0.871021 0.11455
H_ H_ -0.0009299999999999864 0.302458 0.921251 0.11455
H_ H_ 0.737688 0.340121 0.891218 0.11455
H_ H_ 0.747609 0.332148 0.942174 0.11455
H_ H_ 0.942629 0.415402 0.997598 0.11455
H_ H_ 0.928044 0.44964 0.547099 0.11455
H_ H_ 0.918285 0.392438 0.587149 0.11455
H_ H_ 0.834308 0.257661 0.509015 0.11455
H_ H_ 0.821078 0.202151 0.548806 0.11455
H_ H_ 0.823079 0.240929 0.59655 0.11455
C_ C_ 0.723706 0.188572 0.908692 0.68181
C_ C_ 0.779462 0.183785 0.903393 -0.05681
C_ C_ 0.812583 0.190446 0.926383 -0.08735
C_ C_ 0.866098 0.184987 0.923279 -0.05681
C_ C_ 0.886297 0.176834 0.895874 -0.05681
C_ C_ 0.854149 0.168303 0.873667 -0.08735
C_ C_ 0.800424 0.169525 0.876921 -0.08735
C_ C_ 0.900996 0.191648 0.945876 -0.08735
C_ C_ 0.953948 0.192292 0.941494 -0.08735
C_ C_ 0.974679 0.182939 0.913876 -0.05681
C_ C_ 0.940674 0.171856 0.892257 -0.08735
C_ C_ 0.621864 0.285305 0.913667 0.68181
C_ C_ 0.632568 0.0877362 0.902395 0.68181
C_ C_ 0.630484 0.030546 0.901885 -0.05681
C_ C_ 0.625803 0.501186 0.921582 -0.08735
C_ C_ 0.62182 0.446371 0.920262 -0.05681
C_ C_ 0.632384 0.422703 0.892669 -0.05681
C_ C_ 0.65157 0.453369 0.87068 -0.08735
C_ C_ 0.652707 0.505883 0.871574 -0.08735
C_ C_ 0.605587 0.41692 0.943994 -0.08735
C_ C_ 0.608223 0.364878 0.941118 -0.08735
C_ C_ 0.621705 0.341206 0.915546 -0.05681
C_ C_ 0.631849 0.370689 0.890482 -0.08735
C_ C_ 0.531403 0.174647 0.909739 0.68181
C_ C_ 0.604062 0.130527 0.98886 0.1947
C_ C_ 0.59364 0.0985027 0.507841 -0.08735
C_ C_ 0.610161 0.124306 0.532866 -0.08735
C_ C_ 0.635291 0.170998 0.529108 -0.05681
C_ C_ 0.65034 0.184246 0.500455 0.18498
C_ C_ 0.678129 0.249189 0.997897 -0.08735
C_ C_ 0.688634 0.262206 0.519213 -0.08735
C_ C_ 0.675068 0.246864 0.547546 -0.08735
C_ C_ 0.653836 0.199154 0.552369 0.18498
C_ C_ 0.683252 0.165304 0.597538 0.44287
C_ C_ 0.601702 0.202591 0.595501 0.44287
C_ C_ 0.593554 0.192187 0.625363 -0.05681
C_ C_ 0.546983 0.197933 0.638255 -0.08735
C_ C_ 0.541372 0.188856 0.667507 -0.08735
C_ C_ 0.583446 0.178758 0.684649 -0.05681
C_ C_ 0.630281 0.168633 0.671579 -0.05681
C_ C_ 0.634046 0.173694 0.641184 -0.05681
C_ C_ 0.677827 0.158841 0.627908 -0.05681
C_ C_ 0.721678 0.142744 0.645269 -0.08735
C_ C_ 0.718232 0.14213 0.674646 -0.08735
C_ C_ 0.673192 0.15766 0.688014 -0.05681
C_ C_ 0.668354 0.157693 0.719315 0.44287
C_ C_ 0.581028 0.179374 0.716286 0.44287
C_ C_ 0.611338 0.145732 0.761395 0.18498
C_ C_ 0.596695 0.0959055 0.767872 -0.08735
C_ C_ 0.589523 0.0802372 0.796714 -0.08735
C_ C_ 0.59749 0.112699 0.819035 -0.08735
C_ C_ 0.617843 0.160206 0.814534 0.18498
C_ C_ 0.624367 0.177609 0.784842 -0.05681
C_ C_ 0.640865 0.226753 0.78075 -0.08735
C_ C_ 0.649557 0.258937 0.804607 -0.08735
C_ C_ 0.642975 0.241674 0.831756 0.1947
C_ C_ 0.759462 0.3132 0.657051 0.68181
C_ C_ 0.705105 0.305514 0.652831 -0.05681
C_ C_ 0.671001 0.30749 0.675079 -0.08735
C_ C_ 0.618796 0.312034 0.66968 -0.05681
C_ C_ 0.598776 0.311136 0.641149 -0.05681
C_ C_ 0.634057 0.310425 0.618761 -0.08735
C_ C_ 0.686197 0.302608 0.62447 -0.08735
C_ C_ 0.584816 0.312372 0.691895 -0.08735
C_ C_ 0.533139 0.314402 0.686722 -0.08735
C_ C_ 0.513575 0.318779 0.659523 -0.05681
C_ C_ 0.547407 0.315865 0.637096 -0.08735
C_ C_ 0.864996 0.220595 0.663849 0.68181
C_ C_ 0.851928 0.4165 0.653346 0.68181
C_ C_ 0.846884 0.473065 0.651068 -0.05681
C_ C_ 0.874808 0.00195122 0.670812 -0.08735
C_ C_ 0.879216 0.0555192 0.667928 -0.05681
C_ C_ 0.86526 0.0789869 0.642718 -0.05681
C_ C_ 0.852034 0.0502761 0.61861 -0.08735
C_ C_ 0.822877 0.496605 0.627973 -0.08735
C_ C_ 0.885512 0.0859239 0.692291 -0.08735
C_ C_ 0.878289 0.139884 0.691448 -0.08735
C_ C_ 0.866041 0.163346 0.665905 -0.05681
C_ C_ 0.864455 0.132656 0.640571 -0.08735
C_ C_ 0.959212 0.326437 0.658971 0.68181
C_ C_ 0.90247 0.368081 0.733083 0.1947
C_ C_ 0.913684 0.382301 0.761639 -0.08735
C_ C_ 0.892186 0.35794 0.784349 -0.08735
C_ C_ 0.860588 0.315839 0.77958 -0.05681
C_ C_ 0.844284 0.306302 0.751147 0.18498
C_ C_ 0.807601 0.268974 0.745572 -0.08735
C_ C_ 0.792517 0.23725 0.767865 -0.08735
C_ C_ 0.8066 0.246899 0.79598 -0.08735
C_ C_ 0.834546 0.290845 0.802761 0.18498
C_ C_ 0.80593 0.314282 0.850561 0.44287
C_ C_ 0.892756 0.291837 0.844874 0.44287
C_ C_ 0.903283 0.300869 0.873949 -0.05681
C_ C_ 0.95088 0.29515 0.88495 -0.08735
C_ C_ 0.960324 0.3039 0.914349 -0.08735
C_ C_ 0.920243 0.314238 0.932964 -0.05681
C_ C_ 0.871408 0.32062 0.921879 -0.05681
C_ C_ 0.863466 0.313324 0.892168 -0.05681
C_ C_ 0.813282 0.314569 0.880755 -0.05681
C_ C_ 0.773349 0.324682 0.899622 -0.08735
C_ C_ 0.782106 0.330459 0.92829 -0.08735
C_ C_ 0.830843 0.325592 0.940281 -0.05681
C_ C_ 0.838282 0.332983 0.968888 0.44287
C_ C_ 0.925665 0.319367 0.963049 0.44287
C_ C_ 0.870934 0.356838 0.510528 0.18498
C_ C_ 0.893678 0.404336 0.516515 -0.08735
C_ C_ 0.906035 0.417726 0.544728 -0.08735
C_ C_ 0.898383 0.383729 0.566459 -0.08735
C_ C_ 0.872291 0.339188 0.562072 0.18498
C_ C_ 0.860529 0.32183 0.533844 -0.05681
C_ C_ 0.843508 0.271912 0.529833 -0.08735
C_ C_ 0.834137 0.241696 0.552903 -0.08735
C_ C_ 0.841959 0.259696 0.580152 0.1947
N_ N_ 0.629793 0.174648 0.982829 -0.29468
N_ N_ 0.643671 0.185401 0.581749 -0.17154
N_ N_ 0.620581 0.160932 0.731967 -0.17154
N_ N_ 0.626837 0.193362 0.837466 -0.29468
N_ N_ 0.865076 0.330988 0.728281 -0.29468
N_ N_ 0.845447 0.302346 0.832947 -0.17154
N_ N_ 0.887029 0.332588 0.97952 -0.17154
N_ N_ 0.860135 0.308686 0.585002 -0.29468
O_ O_ 0.706336 0.177621 0.933236 -0.58347
O_ O_ 0.695167 0.200012 0.888053 -0.58347
O_ O_ 0.633478 0.258936 0.935638 -0.58347
O_ O_ 0.609175 0.263013 0.890998 -0.58347
O_ O_ 0.632439 0.110253 0.925852 -0.58347
O_ O_ 0.637271 0.114279 0.879708 -0.58347
O_ O_ 0.561198 0.179675 0.930813 -0.58347
O_ O_ 0.54777 0.173225 0.884765 -0.58347
O_ O_ 0.562371 0.221595 0.580764 -0.46727
O_ O_ 0.723941 0.146118 0.58417 -0.46727
O_ O_ 0.537275 0.189113 0.73003 -0.46727
O_ O_ 0.705701 0.138905 0.735024 -0.46727
O_ O_ 0.778362 0.318606 0.681948 -0.58347
O_ O_ 0.787897 0.30612 0.635353 -0.58347
O_ O_ 0.847386 0.245495 0.68472 -0.58347
O_ O_ 0.868391 0.239936 0.63914 -0.58347
O_ O_ 0.860979 0.394599 0.676564 -0.58347
O_ O_ 0.854386 0.39117 0.629851 -0.58347
O_ O_ 0.931203 0.32205 0.68187 -0.58347
O_ O_ 0.938279 0.322337 0.63419 -0.58347
O_ O_ 0.929106 0.276203 0.827808 -0.46727
O_ O_ 0.759935 0.319376 0.83936 -0.46727
O_ O_ 0.97042 0.312742 0.974417 -0.46727
O_ O_ 0.803091 0.349045 0.985528 -0.46727
Zn Zn 0.63179 0.676613 0.381494 0.90689
Zn Zn 0.638889 0.671843 0.431473 0.90689
Zn Zn 0.882914 0.8246 0.134037 0.90689
Zn Zn 0.874205 0.824386 0.180963 0.90689
H_ H_ 0.809293 0.700385 0.446499 0.11455
H_ H_ 0.878983 0.676397 0.349079 0.11455
H_ H_ 0.787266 0.680029 0.354926 0.11455
H_ H_ 0.893508 0.690195 0.465868 0.11455
H_ H_ 0.985344 0.69076 0.459929 0.11455
H_ H_ 0.96631 0.690558 0.368697 0.11455
H_ H_ 0.632956 0.50431 0.444626 0.11455
H_ H_ 0.659203 0.925398 0.345464 0.11455
H_ H_ 0.638854 0.517568 0.353036 0.11455
H_ H_ 0.621908 0.928281 0.462463 0.11455
H_ H_ 0.611297 0.830822 0.460943 0.11455
H_ H_ 0.649495 0.841787 0.370495 0.11455
H_ H_ 0.588778 0.599076 0.467345 0.11455
H_ H_ 0.561146 0.586733 0.014281 0.11455
H_ H_ 0.593415 0.637189 0.0546252 0.11455
H_ H_ 0.69752 0.743774 0.473069 0.11455
H_ H_ 0.715223 0.805752 0.00830382 0.11455
H_ H_ 0.697325 0.789289 0.0584336 0.11455
H_ H_ 0.508605 0.695552 0.121612 0.11455
H_ H_ 0.50318 0.684246 0.176723 0.11455
H_ H_ 0.761473 0.675449 0.128974 0.11455
H_ H_ 0.758064 0.682097 0.181245 0.11455
H_ H_ 0.580586 0.585473 0.24207 0.11455
H_ H_ 0.555005 0.560462 0.291845 0.11455
H_ H_ 0.581172 0.610276 0.333762 0.11455
H_ H_ 0.665409 0.745377 0.25815 0.11455
H_ H_ 0.695381 0.789972 0.301788 0.11455
H_ H_ 0.675453 0.751707 0.348255 0.11455
H_ H_ 0.706592 0.786612 0.192285 0.11455
H_ H_ 0.639784 0.855535 0.100023 0.11455
H_ H_ 0.731751 0.864972 0.113232 0.11455
H_ H_ 0.613718 0.781572 0.210333 0.11455
H_ H_ 0.525537 0.788704 0.200152 0.11455
H_ H_ 0.55384 0.850078 0.11771 0.11455
H_ H_ 0.889134 0.989065 0.195077 0.11455
H_ H_ 0.890937 0.574777 0.09857 0.11455
H_ H_ 0.829516 0.981654 0.110732 0.11455
H_ H_ 0.862633 0.581262 0.214537 0.11455
H_ H_ 0.874582 0.673272 0.211774 0.11455
H_ H_ 0.889691 0.660899 0.119622 0.11455
H_ H_ 0.917227 0.905915 0.21875 0.11455
H_ H_ 0.929837 0.931721 0.266666 0.11455
H_ H_ 0.900555 0.880361 0.308446 0.11455
H_ H_ 0.819885 0.756131 0.221163 0.11455
H_ H_ 0.790215 0.696289 0.25945 0.11455
H_ H_ 0.797373 0.725868 0.308396 0.11455
H_ H_ 0.99258 0.811979 0.37493 0.11455
H_ H_ -0.000638119 0.82514 0.426807 0.11455
H_ H_ 0.739541 0.816151 0.383082 0.11455
H_ H_ 0.745321 0.833656 0.437279 0.11455
H_ H_ 0.931234 0.904419 0.497296 0.11455
H_ H_ 0.949144 0.94349 0.0420912 0.11455
H_ H_ 0.923737 0.896561 0.0836137 0.11455
H_ H_ 0.832598 0.753632 0.00940573 0.11455
H_ H_ 0.808793 0.711473 0.0533888 0.11455
H_ H_ 0.838931 0.741765 0.0999348 0.11455
C_ C_ 0.734892 0.682909 0.405125 0.68181
C_ C_ 0.790779 0.693424 0.401503 -0.05681
C_ C_ 0.824063 0.699057 0.42456 -0.08735
C_ C_ 0.876948 0.691884 0.421137 -0.05681
C_ C_ 0.898805 0.688627 0.393757 -0.05681
C_ C_ 0.865196 0.686422 0.369913 -0.08735
C_ C_ 0.812026 0.684022 0.374695 -0.08735
C_ C_ 0.909577 0.688086 0.444196 -0.08735
C_ C_ 0.962798 0.687223 0.44089 -0.08735
C_ C_ 0.984536 0.688435 0.413691 -0.05681
C_ C_ 0.951191 0.688252 0.390045 -0.08735
C_ C_ 0.625922 0.77391 0.412183 0.68181
C_ C_ 0.639382 0.573611 0.40232 0.68181
C_ C_ 0.638276 0.51705 0.399788 -0.05681
C_ C_ 0.642156 0.991855 0.419623 -0.08735
C_ C_ 0.637388 0.937748 0.418075 -0.05681
C_ C_ 0.647935 0.912388 0.391682 -0.05681
C_ C_ 0.656914 0.942463 0.366686 -0.08735
C_ C_ 0.65479 0.996171 0.36829 -0.08735
C_ C_ 0.625164 0.909218 0.442769 -0.08735
C_ C_ 0.619742 0.855208 0.441453 -0.08735
C_ C_ 0.630917 0.83051 0.414865 -0.05681
C_ C_ 0.646725 0.859655 0.390559 -0.08735
C_ C_ 0.541019 0.676373 0.406141 0.68181
C_ C_ 0.601123 0.624141 0.483906 0.1947
C_ C_ 0.58731 0.616297 0.0100781 -0.08735
C_ C_ 0.604297 0.647492 0.0337448 -0.08735
C_ C_ 0.638331 0.687081 0.0283876 -0.05681
C_ C_ 0.651652 0.697502 0.998651 0.18498
C_ C_ 0.676286 0.739837 0.493429 -0.08735
C_ C_ 0.691549 0.774377 0.0128431 -0.08735
C_ C_ 0.678406 0.766088 0.0417881 -0.08735
C_ C_ 0.650301 0.722041 0.0497445 0.18498
C_ C_ 0.685943 0.691483 0.0947522 0.44287
C_ C_ 0.597308 0.711049 0.0912342 0.44287
C_ C_ 0.590314 0.69402 0.120514 -0.05681
C_ C_ 0.542887 0.692494 0.133981 -0.08735
C_ C_ 0.538663 0.69046 0.163427 -0.08735
C_ C_ 0.581501 0.682403 0.180419 -0.05681
C_ C_ 0.630252 0.679393 0.167391 -0.05681
C_ C_ 0.633729 0.682708 0.136784 -0.05681
C_ C_ 0.681957 0.682974 0.124437 -0.05681
C_ C_ 0.725577 0.680911 0.140835 -0.08735
C_ C_ 0.721434 0.678798 0.170308 -0.08735
C_ C_ 0.672899 0.679677 0.184592 -0.05681
C_ C_ 0.668032 0.675581 0.214876 0.44287
C_ C_ 0.577524 0.674722 0.20995 0.44287
C_ C_ 0.617625 0.653292 0.256106 0.18498
C_ C_ 0.595405 0.605129 0.261277 -0.08735
C_ C_ 0.578579 0.592035 0.288632 -0.08735
C_ C_ 0.595692 0.619226 0.313135 -0.08735
C_ C_ 0.617536 0.665446 0.309184 0.18498
C_ C_ 0.628669 0.683063 0.280665 -0.05681
C_ C_ 0.655233 0.72991 0.278273 -0.08735
C_ C_ 0.672363 0.754665 0.303154 -0.08735
C_ C_ 0.664071 0.732083 0.329059 0.1947
C_ C_ 0.779165 0.821068 0.156191 0.68181
C_ C_ 0.723464 0.825066 0.151961 -0.05681
C_ C_ 0.689896 0.805554 0.172814 -0.08735
C_ C_ 0.637271 0.81361 0.16845 -0.05681
C_ C_ 0.617763 0.831674 0.141942 -0.05681
C_ C_ 0.65198 0.84831 0.121119 -0.08735
C_ C_ 0.705038 0.848995 0.126907 -0.08735
C_ C_ 0.603034 0.801083 0.190449 -0.08735
C_ C_ 0.552182 0.807442 0.185107 -0.08735
C_ C_ 0.531911 0.823746 0.159063 -0.05681
C_ C_ 0.566583 0.837606 0.137929 -0.08735
C_ C_ 0.891338 0.730391 0.164873 0.68181
C_ C_ 0.86878 0.922112 0.152521 0.68181
C_ C_ 0.864971 0.980109 0.151989 -0.05681
C_ C_ 0.871196 0.512526 0.173501 -0.08735
C_ C_ 0.879585 0.566997 0.170805 -0.05681
C_ C_ 0.882133 0.589939 0.143303 -0.05681
C_ C_ 0.88835 0.558567 0.119545 -0.08735
C_ C_ 0.845299 1.0041071 0.127809 -0.08735
C_ C_ 0.875311 0.596866 0.194539 -0.08735
C_ C_ 0.878953 0.648779 0.192705 -0.08735
C_ C_ 0.883492 0.674963 0.166279 -0.05681
C_ C_ 0.887631 0.644132 0.141328 -0.08735
C_ C_ 0.973939 0.826297 0.156992 0.68181
C_ C_ 0.904204 0.881507 0.235539 0.1947
C_ C_ 0.909899 0.897089 0.264077 -0.08735
C_ C_ 0.89161 0.869963 0.28593 -0.08735
C_ C_ 0.872306 0.820282 0.279649 -0.05681
C_ C_ 0.864636 0.80367 0.250434 0.18498
C_ C_ 0.830058 0.7638 0.244232 -0.08735
C_ C_ 0.811648 0.731807 0.265727 -0.08735
C_ C_ 0.821262 0.743595 0.293856 -0.08735
C_ C_ 0.853111 0.786558 0.301821 0.18498
C_ C_ 0.817165 0.812543 0.346697 0.44287
C_ C_ 0.904586 0.802891 0.3443 0.44287
C_ C_ 0.910677 0.815383 0.373779 -0.05681
C_ C_ 0.960293 0.816643 0.387632 -0.08735
C_ C_ 0.963217 0.823768 0.417177 -0.08735
C_ C_ 0.919047 0.820307 0.433305 -0.05681
C_ C_ 0.870904 0.820964 0.42048 -0.05681
C_ C_ 0.867289 0.818017 0.390734 -0.05681
C_ C_ 0.818618 0.818159 0.376777 -0.05681
C_ C_ 0.775497 0.822702 0.393786 -0.08735
C_ C_ 0.779504 0.827633 0.424183 -0.08735
C_ C_ 0.825866 0.823262 0.437607 -0.05681
C_ C_ 0.831999 0.827755 0.468437 0.44287
C_ C_ 0.922423 0.817955 0.462949 0.44287
C_ C_ 0.891426 0.846686 0.0070597 0.18498
C_ C_ 0.914224 0.894198 0.0115955 -0.08735
C_ C_ 0.925058 0.910256 0.0391589 -0.08735
C_ C_ 0.908597 0.885192 0.0628008 -0.08735
C_ C_ 0.886638 0.836257 0.0598375 0.18498
C_ C_ 0.874676 0.815989 0.0311857 -0.05681
C_ C_ 0.847086 0.770274 0.0288894 -0.08735
C_ C_ 0.833651 0.744887 0.0542167 -0.08735
C_ C_ 0.84771 0.76431 0.0813687 0.1947
N_ N_ 0.632438 0.664008 0.477952 -0.29468
N_ N_ 0.644569 0.709753 0.0794951 -0.17154
N_ N_ 0.621258 0.672964 0.226932 -0.17154
N_ N_ 0.639142 0.689431 0.331871 -0.29468
N_ N_ 0.879851 0.836126 0.229135 -0.29468
N_ N_ 0.858233 0.801122 0.331732 -0.17154
N_ N_ 0.879522 0.831076 0.479046 -0.17154
N_ N_ 0.874832 0.808406 0.0846092 -0.29468
O_ O_ 0.717272 0.675814 0.429709 -0.58347
O_ O_ 0.707045 0.684023 0.383479 -0.58347
O_ O_ 0.63358 0.747222 0.434874 -0.58347
O_ O_ 0.626567 0.752854 0.388447 -0.58347
O_ O_ 0.644057 0.594908 0.426062 -0.58347
O_ O_ 0.640091 0.600537 0.381462 -0.58347
O_ O_ 0.568624 0.66522 0.427731 -0.58347
O_ O_ 0.560196 0.670709 0.381571 -0.58347
O_ O_ 0.558348 0.722557 0.0751563 -0.46727
O_ O_ 0.730493 0.692106 0.0818987 -0.46727
O_ O_ 0.53358 0.671322 0.22266 -0.46727
O_ O_ 0.70864 0.662714 0.229817 -0.46727
O_ O_ 0.797622 0.81687 0.180825 -0.58347
O_ O_ 0.809839 0.828429 0.136233 -0.58347
O_ O_ 0.898074 0.754943 0.187876 -0.58347
O_ O_ 0.881128 0.754085 0.142469 -0.58347
O_ O_ 0.862252 0.8976 0.175898 -0.58347
O_ O_ 0.885728 0.900291 0.130429 -0.58347
O_ O_ 0.948885 0.836682 0.178465 -0.58347
O_ O_ 0.954373 0.825501 0.132372 -0.58347
O_ O_ 0.946842 0.799387 0.328239 -0.46727
O_ O_ 0.774123 0.822175 0.334064 -0.46727
O_ O_ 0.966054 0.810771 0.475635 -0.46727
O_ O_ 0.793713 0.838212 0.485245 -0.46727
Zn Zn 0.622382 0.688995 0.880609 0.90689
Zn Zn 0.630044 0.680589 0.928527 0.90689
Zn Zn 0.864928 0.81402 0.631093 0.90689
Zn Zn 0.855178 0.819266 0.678882 0.90689
H_ H_ 0.794468 0.683475 0.944925 0.11455
H_ H_ 0.873627 0.645335 0.850974 0.11455
H_ H_ 0.780247 0.651019 0.856209 0.11455
H_ H_ 0.881349 0.681446 0.968821 0.11455
H_ H_ 0.974577 0.688526 0.961948 0.11455
H_ H_ 0.958576 0.649236 0.872425 0.11455
H_ H_ 0.614906 0.522437 0.940414 0.11455
H_ H_ 0.62065 0.937298 0.851646 0.11455
H_ H_ 0.678459 0.522874 0.857802 0.11455
H_ H_ 0.641741 0.936511 0.967828 0.11455
H_ H_ 0.637931 0.838635 0.964569 0.11455
H_ H_ 0.625717 0.857072 0.87548 0.11455
H_ H_ 0.575015 0.614449 0.96418 0.11455
H_ H_ 0.565865 0.578573 0.514982 0.11455
H_ H_ 0.59904 0.625776 0.556291 0.11455
H_ H_ 0.697112 0.743753 0.970885 0.11455
H_ H_ 0.722366 0.798463 0.512457 0.11455
H_ H_ 0.691297 0.786052 0.562107 0.11455
H_ H_ 0.496712 0.70202 0.620461 0.11455
H_ H_ 0.486297 0.689715 0.671357 0.11455
H_ H_ 0.752659 0.678764 0.637767 0.11455
H_ H_ 0.735303 0.648315 0.688158 0.11455
H_ H_ 0.556125 0.586168 0.749498 0.11455
H_ H_ 0.525501 0.572807 0.799982 0.11455
H_ H_ 0.56471 0.62615 0.837453 0.11455
H_ H_ 0.663486 0.736613 0.756496 0.11455
H_ H_ 0.697874 0.779975 0.794693 0.11455
H_ H_ 0.672252 0.763018 0.845034 0.11455
H_ H_ 0.689707 0.801725 0.692878 0.11455
H_ H_ 0.624861 0.834249 0.595476 0.11455
H_ H_ 0.714399 0.830949 0.60427 0.11455
H_ H_ 0.600807 0.807309 0.711564 0.11455
H_ H_ 0.5088 0.80993 0.70245 0.11455
H_ H_ 0.536781 0.837427 0.613566 0.11455
H_ H_ 0.880464 0.986772 0.690863 0.11455
H_ H_ 0.820631 0.563233 0.603575 0.11455
H_ H_ 0.845969 0.973541 0.60157 0.11455
H_ H_ 0.884213 0.572596 0.717187 0.11455
H_ H_ 0.893592 0.663086 0.710097 0.11455
H_ H_ 0.838037 0.646301 0.622738 0.11455
H_ H_ 0.905812 0.902193 0.716985 0.11455
H_ H_ 0.902373 0.933865 0.768293 0.11455
H_ H_ 0.869134 0.885893 0.806481 0.11455
H_ H_ 0.797227 0.761277 0.720852 0.11455
H_ H_ 0.772942 0.699194 0.761692 0.11455
H_ H_ 0.790702 0.718981 0.808434 0.11455
H_ H_ 0.96857 0.765409 0.87364 0.11455
H_ H_ 0.984344 0.786082 0.92182 0.11455
H_ H_ 0.726153 0.83627 0.885387 0.11455
H_ H_ 0.737171 0.850138 0.939441 0.11455
H_ H_ 0.925384 0.916803 0.993565 0.11455
H_ H_ 0.947533 0.931454 0.547752 0.11455
H_ H_ 0.926235 0.873206 0.585574 0.11455
H_ H_ 0.83152 0.750424 0.505288 0.11455
H_ H_ 0.799644 0.704273 0.547467 0.11455
H_ H_ 0.813667 0.73453 0.594949 0.11455
C_ C_ 0.726678 0.681897 0.902076 0.68181
C_ C_ 0.782537 0.670598 0.900268 -0.05681
C_ C_ 0.812316 0.672737 0.925551 -0.08735
C_ C_ 0.865266 0.664854 0.92374 -0.05681
C_ C_ 0.887125 0.651444 0.896367 -0.05681
C_ C_ 0.854657 0.647252 0.87233 -0.08735
C_ C_ 0.80309 0.653149 0.875444 -0.08735
C_ C_ 0.897796 0.673379 0.947844 -0.08735
C_ C_ 0.950807 0.66965 0.94446 -0.08735
C_ C_ 0.973055 0.662044 0.916815 -0.05681
C_ C_ 0.942328 0.653483 0.893632 -0.08735
C_ C_ 0.624932 0.784452 0.91473 0.68181
C_ C_ 0.632352 0.587724 0.897009 0.68181
C_ C_ 0.63771 0.530565 0.89679 -0.05681
C_ C_ 0.636084 0.00082046 0.926316 -0.08735
C_ C_ 0.631067 0.947961 0.924196 -0.05681
C_ C_ 0.628608 0.925606 0.897846 -0.05681
C_ C_ 0.63058 0.95523 0.873024 -0.08735
C_ C_ 0.629177 0.00631478 0.874621 -0.08735
C_ C_ 0.63559 0.917546 0.948327 -0.08735
C_ C_ 0.629951 0.863695 0.946481 -0.08735
C_ C_ 0.628326 0.841157 0.918464 -0.05681
C_ C_ 0.62451 0.873467 0.895288 -0.08735
C_ C_ 0.52492 0.68691 0.907161 0.68181
C_ C_ 0.596086 0.630485 0.982669 0.1947
C_ C_ 0.594235 0.606502 0.511793 -0.08735
C_ C_ 0.611696 0.635447 0.535148 -0.08735
C_ C_ 0.636624 0.682838 0.528645 -0.05681
C_ C_ 0.651793 0.692667 0.49945 0.18498
C_ C_ 0.684476 0.7382 0.992504 -0.08735
C_ C_ 0.693338 0.769044 0.516791 -0.08735
C_ C_ 0.675799 0.762292 0.544837 -0.08735
C_ C_ 0.648853 0.716464 0.551237 0.18498
C_ C_ 0.678874 0.692349 0.598106 0.44287
C_ C_ 0.589598 0.705564 0.591896 0.44287
C_ C_ 0.580012 0.693946 0.62151 -0.05681
C_ C_ 0.530269 0.697917 0.633642 -0.08735
C_ C_ 0.522971 0.689524 0.662583 -0.08735
C_ C_ 0.564851 0.681831 0.681854 -0.05681
C_ C_ 0.61522 0.679074 0.670141 -0.05681
C_ C_ 0.623446 0.683181 0.639526 -0.05681
C_ C_ 0.672848 0.681693 0.627043 -0.05681
C_ C_ 0.714021 0.673141 0.645905 -0.08735
C_ C_ 0.705514 0.664087 0.675181 -0.08735
C_ C_ 0.657357 0.667458 0.687374 -0.05681
C_ C_ 0.649242 0.657781 0.7163 0.44287
C_ C_ 0.561824 0.677264 0.712344 0.44287
C_ C_ 0.594879 0.656153 0.759463 0.18498
C_ C_ 0.568276 0.613142 0.766769 -0.08735
C_ C_ 0.551019 0.605514 0.795119 -0.08735
C_ C_ 0.57235 0.635374 0.816469 -0.08735
C_ C_ 0.605153 0.67502 0.810739 0.18498
C_ C_ 0.617213 0.68598 0.781527 -0.05681
C_ C_ 0.652133 0.72538 0.777303 -0.08735
C_ C_ 0.673504 0.749966 0.799102 -0.08735
C_ C_ 0.661525 0.738918 0.828435 0.1947
C_ C_ 0.762694 0.808649 0.653066 0.68181
C_ C_ 0.707009 0.814707 0.649294 -0.05681
C_ C_ 0.674352 0.808989 0.672003 -0.08735
C_ C_ 0.621401 0.811753 0.667087 -0.05681
C_ C_ 0.601711 0.825319 0.639557 -0.05681
C_ C_ 0.636916 0.831787 0.616863 -0.08735
C_ C_ 0.688905 0.827154 0.621456 -0.08735
C_ C_ 0.586808 0.807549 0.690346 -0.08735
C_ C_ 0.533361 0.815674 0.684707 -0.08735
C_ C_ 0.515936 0.824006 0.657313 -0.05681
C_ C_ 0.550292 0.825495 0.634336 -0.08735
C_ C_ 0.865012 0.719114 0.661808 0.68181
C_ C_ 0.858935 0.916146 0.648064 0.68181
C_ C_ 0.858052 0.973668 0.646749 -0.05681
C_ C_ 0.864142 0.502407 0.673284 -0.08735
C_ C_ 0.864891 0.555145 0.671657 -0.05681
C_ C_ 0.85012 0.577227 0.646242 -0.05681
C_ C_ 0.833251 0.546652 0.623098 -0.08735
C_ C_ 0.851154 0.997797 0.619751 -0.08735
C_ C_ 0.876831 0.586087 0.695429 -0.08735
C_ C_ 0.879023 0.639845 0.692392 -0.08735
C_ C_ 0.866745 0.663091 0.666146 -0.05681
C_ C_ 0.848688 0.631173 0.643772 -0.08735
C_ C_ 0.955873 0.823004 0.657478 0.68181
C_ C_ 0.888968 0.877698 0.734189 0.1947
C_ C_ 0.891778 0.895286 0.762953 -0.08735
C_ C_ 0.868378 0.869108 0.78459 -0.08735
C_ C_ 0.846818 0.821851 0.777515 -0.05681
C_ C_ 0.838553 0.807724 0.748516 0.18498
C_ C_ 0.809893 0.765049 0.741656 -0.08735
C_ C_ 0.795754 0.73117 0.764486 -0.08735
C_ C_ 0.804629 0.744312 0.793072 -0.08735
C_ C_ 0.828589 0.789104 0.80008 0.18498
C_ C_ 0.798161 0.810765 0.847459 0.44287
C_ C_ 0.885692 0.791204 0.8424 0.44287
C_ C_ 0.89201 0.797107 0.871472 -0.05681
C_ C_ 0.9383 0.788474 0.884199 -0.08735
C_ C_ 0.945932 0.796572 0.912973 -0.08735
C_ C_ 0.905455 0.811176 0.931145 -0.05681
C_ C_ 0.856982 0.815571 0.920213 -0.05681
C_ C_ 0.851412 0.814119 0.888769 -0.05681
C_ C_ 0.802823 0.818858 0.877282 -0.05681
C_ C_ 0.762569 0.830514 0.895634 -0.08735
C_ C_ 0.767875 0.838147 0.925163 -0.08735
C_ C_ 0.81728 0.83167 0.938025 -0.05681
C_ C_ 0.830179 0.838465 0.968821 0.44287
C_ C_ 0.916117 0.817611 0.960169 0.44287
C_ C_ 0.885866 0.841578 0.508827 0.18498
C_ C_ 0.913463 0.886469 0.514971 -0.08735
C_ C_ 0.926476 0.897481 0.542855 -0.08735
C_ C_ 0.909234 0.867445 0.565618 -0.08735
C_ C_ 0.878001 0.825474 0.561262 0.18498
C_ C_ 0.872699 0.808217 0.532076 -0.05681
C_ C_ 0.842122 0.763095 0.526437 -0.08735
C_ C_ 0.821782 0.737768 0.549876 -0.08735
C_ C_ 0.832376 0.754507 0.577722 0.1947
N_ N_ 0.627455 0.669976 0.976917 -0.29468
N_ N_ 0.638411 0.703653 0.581654 -0.17154
N_ N_ 0.601803 0.66329 0.728628 -0.17154
N_ N_ 0.626122 0.702798 0.833258 -0.29468
N_ N_ 0.85844 0.836809 0.72658 -0.29468
N_ N_ 0.837505 0.798828 0.831174 -0.17154
N_ N_ 0.877989 0.831938 0.978222 -0.17154
N_ N_ 0.858817 0.797676 0.58293 -0.29468
O_ O_ 0.704733 0.678733 0.926644 -0.58347
O_ O_ 0.700023 0.686539 0.880009 -0.58347
O_ O_ 0.632532 0.756682 0.935357 -0.58347
O_ O_ 0.627816 0.763438 0.889997 -0.58347
O_ O_ 0.63108 0.609217 0.921291 -0.58347
O_ O_ 0.623748 0.611923 0.874136 -0.58347
O_ O_ 0.554228 0.686741 0.928956 -0.58347
O_ O_ 0.54544 0.692004 0.882431 -0.58347
O_ O_ 0.553331 0.726379 0.575881 -0.46727
O_ O_ 0.725382 0.695867 0.586315 -0.46727
O_ O_ 0.517862 0.678145 0.723857 -0.46727
O_ O_ 0.686323 0.640357 0.732383 -0.46727
O_ O_ 0.782807 0.814889 0.677042 -0.58347
O_ O_ 0.789085 0.80971 0.630223 -0.58347
O_ O_ 0.856889 0.745139 0.683313 -0.58347
O_ O_ 0.865069 0.739471 0.636918 -0.58347
O_ O_ 0.851365 0.894339 0.672998 -0.58347
O_ O_ 0.866289 0.888862 0.626675 -0.58347
O_ O_ 0.927421 0.82503 0.678972 -0.58347
O_ O_ 0.938787 0.813317 0.633335 -0.58347
O_ O_ 0.924423 0.779818 0.825204 -0.46727
O_ O_ 0.756435 0.823564 0.834112 -0.46727
O_ O_ 0.962978 0.811987 0.970317 -0.46727
O_ O_ 0.794567 0.855852 0.986913 -0.46727
