_cell_length_a 26.376
_cell_length_b 26.400000238300095
_cell_length_c 46.67800035477134
_cell_angle_alpha 90.00700052986613
_cell_angle_beta 89.99899961309502
_cell_angle_gamma 90.45000003183146
_symmetry_space_group_name_H-M         'P 1'
_symmetry_Int_Tables_number            1
loop_
_symmetry_equiv_pos_as_xyz
   'x, y, z'
                         
loop_
_atom_site_label
_atom_site_type_symbol
_atom_site_fract_x 
_atom_site_fract_y
_atom_site_fract_z
_atom_site_charge
Zn Zn 0.135542 0.177252 0.380965 0.90689
Zn Zn 0.149969 0.17483 0.427708 0.90689
Zn Zn 0.36398 0.314545 0.132057 0.90689
Zn Zn 0.355806 0.320538 0.181372 0.90689
H_ H_ 0.313139 0.21698 0.439433 0.11455
H_ H_ 0.382052 0.160545 0.344925 0.11455
H_ H_ 0.291413 0.171703 0.352 0.11455
H_ H_ 0.396589 0.218936 0.459362 0.11455
H_ H_ 0.486689 0.198839 0.456051 0.11455
H_ H_ 0.469627 0.163063 0.365698 0.11455
H_ H_ 0.134737 0.0154587 0.437325 0.11455
H_ H_ 0.0973637 0.435797 0.35114 0.11455
H_ H_ 0.151462 0.0247272 0.346648 0.11455
H_ H_ 0.155315 0.424812 0.46591 0.11455
H_ H_ 0.143789 0.332348 0.461243 0.11455
H_ H_ 0.108896 0.349241 0.371745 0.11455
H_ H_ 0.111484 0.0956765 0.463473 0.11455
H_ H_ 0.0800341 0.0746511 0.0171841 0.11455
H_ H_ 0.112668 0.119283 0.0537831 0.11455
H_ H_ 0.201478 0.248037 0.47149 0.11455
H_ H_ 0.203925 0.311158 0.0165619 0.11455
H_ H_ 0.185358 0.281938 0.0650889 0.11455
H_ H_ 0.00664694 0.203484 0.122768 0.11455
H_ H_ -0.008417000000000008 0.186205 0.17727 0.11455
H_ H_ 0.256381 0.163627 0.134554 0.11455
H_ H_ 0.241514 0.142672 0.186374 0.11455
H_ H_ 0.0794368 0.0672386 0.249592 0.11455
H_ H_ 0.0574596 0.0527931 0.298512 0.11455
H_ H_ 0.0762872 0.109855 0.339041 0.11455
H_ H_ 0.158252 0.234283 0.255172 0.11455
H_ H_ 0.197807 0.28179 0.294829 0.11455
H_ H_ 0.18289 0.255585 0.346403 0.11455
H_ H_ 0.190603 0.295812 0.196299 0.11455
H_ H_ 0.118604 0.327076 0.0982296 0.11455
H_ H_ 0.212572 0.308064 0.10628 0.11455
H_ H_ 0.100237 0.31269 0.217516 0.11455
H_ H_ 0.00803701 0.315026 0.203949 0.11455
H_ H_ 0.0358225 0.316417 0.114789 0.11455
H_ H_ 0.357153 0.487393 0.19517 0.11455
H_ H_ 0.385522 0.0630115 0.0974715 0.11455
H_ H_ 0.359767 0.471394 0.102216 0.11455
H_ H_ 0.328685 0.0739695 0.212363 0.11455
H_ H_ 0.341913 0.168221 0.209694 0.11455
H_ H_ 0.386364 0.15113 0.121039 0.11455
H_ H_ 0.401311 0.399909 0.216683 0.11455
H_ H_ 0.41436 0.430977 0.26502 0.11455
H_ H_ 0.396794 0.378659 0.307436 0.11455
H_ H_ 0.306459 0.25418 0.225357 0.11455
H_ H_ 0.274554 0.201293 0.263153 0.11455
H_ H_ 0.281379 0.234474 0.313031 0.11455
H_ H_ 0.483396 0.286492 0.376082 0.11455
H_ H_ 0.500188 0.315874 0.424842 0.11455
H_ H_ 0.239781 0.361077 0.391752 0.11455
H_ H_ 0.250572 0.355726 0.444691 0.11455
H_ H_ 0.424956 0.429206 0.502356 0.11455
H_ H_ 0.422294 0.448012 0.0524874 0.11455
H_ H_ 0.413704 0.380871 0.0864545 0.11455
H_ H_ 0.316941 0.265453 0.00750327 0.11455
H_ H_ 0.290249 0.211505 0.0477641 0.11455
H_ H_ 0.320663 0.231413 0.0970926 0.11455
C_ C_ 0.239013 0.188219 0.401302 0.68181
C_ C_ 0.295515 0.189931 0.397245 -0.05681
C_ C_ 0.328064 0.203035 0.41966 -0.08735
C_ C_ 0.379082 0.190943 0.417755 -0.05681
C_ C_ 0.400355 0.174295 0.390374 -0.05681
C_ C_ 0.367311 0.167218 0.367437 -0.08735
C_ C_ 0.315816 0.16974 0.37194 -0.08735
C_ C_ 0.411069 0.198322 0.441367 -0.08735
C_ C_ 0.463282 0.189919 0.438017 -0.08735
C_ C_ 0.48416 0.179349 0.411014 -0.05681
C_ C_ 0.454141 0.171172 0.387012 -0.08735
C_ C_ 0.13355 0.274315 0.41086 0.68181
C_ C_ 0.156456 0.0793359 0.393924 0.68181
C_ C_ 0.148265 0.0233543 0.392 -0.05681
C_ C_ 0.144232 0.491867 0.423473 -0.08735
C_ C_ 0.1405 0.439163 0.42134 -0.05681
C_ C_ 0.129755 0.417853 0.394364 -0.05681
C_ C_ 0.118298 0.449097 0.371228 -0.08735
C_ C_ 0.124451 0.501911 0.373625 -0.08735
C_ C_ 0.148567 0.406099 0.444585 -0.08735
C_ C_ 0.143985 0.353842 0.441858 -0.08735
C_ C_ 0.13159 0.332491 0.415072 -0.05681
C_ C_ 0.120029 0.365156 0.392448 -0.08735
C_ C_ 0.0439817 0.17198 0.409856 0.68181
C_ C_ 0.131348 0.112951 0.480017 0.1947
C_ C_ 0.100984 0.107575 0.0112905 -0.08735
C_ C_ 0.117041 0.135816 0.0329139 -0.08735
C_ C_ 0.134998 0.184179 0.0276587 -0.05681
C_ C_ 0.146516 0.199637 0.999356 0.18498
C_ C_ 0.200339 0.231591 0.492883 -0.08735
C_ C_ 0.185299 0.275663 0.0185571 -0.08735
C_ C_ 0.176139 0.259303 0.0463472 -0.08735
C_ C_ 0.152174 0.211516 0.0515692 0.18498
C_ C_ 0.182298 0.184185 0.0980639 0.44287
C_ C_ 0.0931826 0.200086 0.0930541 0.44287
C_ C_ 0.0864156 0.188135 0.122352 -0.05681
C_ C_ 0.0390083 0.194699 0.136321 -0.08735
C_ C_ 0.0301029 0.187564 0.166867 -0.08735
C_ C_ 0.0720256 0.174537 0.183528 -0.05681
C_ C_ 0.120646 0.170428 0.170202 -0.05681
C_ C_ 0.12781 0.178789 0.140255 -0.05681
C_ C_ 0.176553 0.176508 0.127946 -0.05681
C_ C_ 0.219485 0.171608 0.14485 -0.08735
C_ C_ 0.212663 0.161066 0.174464 -0.08735
C_ C_ 0.164061 0.163001 0.186884 -0.05681
C_ C_ 0.157955 0.154264 0.216113 0.44287
C_ C_ 0.0704614 0.171426 0.213018 0.44287
C_ C_ 0.107324 0.145693 0.259391 0.18498
C_ C_ 0.0897616 0.0975344 0.266411 -0.08735
C_ C_ 0.0745149 0.0876197 0.294905 -0.08735
C_ C_ 0.0850043 0.121224 0.316922 -0.08735
C_ C_ 0.116047 0.162365 0.311079 0.18498
C_ C_ 0.122603 0.179501 0.282068 -0.05681
C_ C_ 0.154536 0.220535 0.276853 -0.08735
C_ C_ 0.171119 0.250499 0.299741 -0.08735
C_ C_ 0.158179 0.238849 0.328547 0.1947
C_ C_ 0.263881 0.303496 0.155835 0.68181
C_ C_ 0.207743 0.299395 0.151911 -0.05681
C_ C_ 0.176244 0.299025 0.174726 -0.08735
C_ C_ 0.122441 0.306114 0.170514 -0.05681
C_ C_ 0.102813 0.308489 0.14185 -0.05681
C_ C_ 0.135228 0.315448 0.119168 -0.08735
C_ C_ 0.18794 0.308029 0.12375 -0.08735
C_ C_ 0.0863408 0.304114 0.194399 -0.08735
C_ C_ 0.0351577 0.313479 0.18811 -0.08735
C_ C_ 0.016909 0.312612 0.159933 -0.05681
C_ C_ 0.050638 0.314101 0.137232 -0.08735
C_ C_ 0.37313 0.222151 0.162315 0.68181
C_ C_ 0.354186 0.416468 0.152258 0.68181
C_ C_ 0.354127 0.472115 0.148523 -0.05681
C_ C_ 0.335354 0.00773295 0.169766 -0.08735
C_ C_ 0.342994 0.0604833 0.168672 -0.05681
C_ C_ 0.359438 0.0824869 0.142644 -0.05681
C_ C_ 0.370254 0.0495407 0.118364 -0.08735
C_ C_ 0.354477 0.494986 0.121299 -0.08735
C_ C_ 0.336529 0.0930916 0.192535 -0.08735
C_ C_ 0.346981 0.145084 0.191189 -0.08735
C_ C_ 0.368986 0.166043 0.165985 -0.05681
C_ C_ 0.373033 0.135348 0.14094 -0.08735
C_ C_ 0.457077 0.318748 0.157947 0.68181
C_ C_ 0.387675 0.377125 0.234374 0.1947
C_ C_ 0.397425 0.394431 0.262124 -0.08735
C_ C_ 0.390946 0.363389 0.286127 -0.08735
C_ C_ 0.356589 0.320559 0.281737 -0.05681
C_ C_ 0.345998 0.304076 0.252103 0.18498
C_ C_ 0.314783 0.262875 0.247443 -0.08735
C_ C_ 0.296814 0.23226 0.268877 -0.08735
C_ C_ 0.306293 0.249156 0.298236 -0.08735
C_ C_ 0.33479 0.292651 0.305074 0.18498
C_ C_ 0.308111 0.325141 0.352248 0.44287
C_ C_ 0.392619 0.294462 0.347987 0.44287
C_ C_ 0.403354 0.30953 0.375949 -0.05681
C_ C_ 0.452595 0.303504 0.388108 -0.08735
C_ C_ 0.463444 0.316967 0.416502 -0.08735
C_ C_ 0.42197 0.326096 0.43556 -0.05681
C_ C_ 0.374266 0.335758 0.423364 -0.05681
C_ C_ 0.364591 0.325285 0.393863 -0.05681
C_ C_ 0.314674 0.333363 0.382439 -0.05681
C_ C_ 0.273352 0.344588 0.400606 -0.08735
C_ C_ 0.282126 0.348009 0.43019 -0.08735
C_ C_ 0.332002 0.342476 0.441828 -0.05681
C_ C_ 0.341884 0.342045 0.471913 0.44287
C_ C_ 0.428825 0.328519 0.465553 0.44287
C_ C_ 0.369383 0.35489 0.011262 0.18498
C_ C_ 0.388469 0.403462 0.0201562 -0.08735
C_ C_ 0.407829 0.411192 0.0466486 -0.08735
C_ C_ 0.401221 0.374535 0.0665088 -0.08735
C_ C_ 0.371769 0.330861 0.0616901 0.18498
C_ C_ 0.357504 0.319638 0.0337667 -0.05681
C_ C_ 0.332314 0.275487 0.0289405 -0.08735
C_ C_ 0.316537 0.24332 0.0509832 -0.08735
C_ C_ 0.330021 0.257771 0.0793636 0.1947
N_ N_ 0.153516 0.158319 0.475048 -0.29468
N_ N_ 0.14122 0.194398 0.081802 -0.17154
N_ N_ 0.112306 0.158362 0.229164 -0.17154
N_ N_ 0.131256 0.194251 0.333627 -0.29468
N_ N_ 0.361864 0.333053 0.22898 -0.29468
N_ N_ 0.346382 0.305904 0.335015 -0.17154
N_ N_ 0.388724 0.341713 0.483019 -0.17154
N_ N_ 0.358816 0.299187 0.0838844 -0.29468
O_ O_ 0.220858 0.177922 0.426753 -0.58347
O_ O_ 0.210607 0.192927 0.380441 -0.58347
O_ O_ 0.150024 0.248696 0.430531 -0.58347
O_ O_ 0.121731 0.252687 0.387795 -0.58347
O_ O_ 0.157037 0.0996286 0.418773 -0.58347
O_ O_ 0.146271 0.10647 0.371059 -0.58347
O_ O_ 0.0723476 0.167761 0.431146 -0.58347
O_ O_ 0.06279 0.164089 0.384914 -0.58347
O_ O_ 0.0533162 0.209924 0.076405 -0.46727
O_ O_ 0.226901 0.182246 0.0867011 -0.46727
O_ O_ 0.0280373 0.176619 0.226114 -0.46727
O_ O_ 0.197153 0.150742 0.233107 -0.46727
O_ O_ 0.28367 0.304501 0.180097 -0.58347
O_ O_ 0.291638 0.307566 0.133782 -0.58347
O_ O_ 0.375888 0.24966 0.184602 -0.58347
O_ O_ 0.364541 0.242453 0.138273 -0.58347
O_ O_ 0.345662 0.396909 0.176621 -0.58347
O_ O_ 0.360723 0.389562 0.129772 -0.58347
O_ O_ 0.43024 0.335196 0.177438 -0.58347
O_ O_ 0.439484 0.312535 0.133219 -0.58347
O_ O_ 0.424591 0.268654 0.332286 -0.46727
O_ O_ 0.261768 0.330933 0.342188 -0.46727
O_ O_ 0.474828 0.326687 0.476367 -0.46727
O_ O_ 0.301989 0.34796 0.489969 -0.46727
Zn Zn 0.12824 0.197616 0.88131 0.90689
Zn Zn 0.135623 0.182707 0.928203 0.90689
Zn Zn 0.388313 0.314331 0.636143 0.90689
Zn Zn 0.377042 0.324647 0.68273 0.90689
H_ H_ 0.301639 0.205585 0.944956 0.11455
H_ H_ 0.366222 0.132863 0.854236 0.11455
H_ H_ 0.277354 0.155509 0.860297 0.11455
H_ H_ 0.387797 0.198073 0.96369 0.11455
H_ H_ 0.480727 0.196308 0.956011 0.11455
H_ H_ 0.456977 0.142132 0.870819 0.11455
H_ H_ 0.102987 0.0258983 0.935933 0.11455
H_ H_ 0.0872453 0.447357 0.850654 0.11455
H_ H_ 0.148164 0.0312109 0.849447 0.11455
H_ H_ 0.125008 0.43359 0.96456 0.11455
H_ H_ 0.111325 0.34137 0.962878 0.11455
H_ H_ 0.0962689 0.355411 0.870355 0.11455
H_ H_ 0.0971217 0.0991323 0.965078 0.11455
H_ H_ 0.111519 0.0570329 0.510903 0.11455
H_ H_ 0.154735 0.102387 0.551547 0.11455
H_ H_ 0.183383 0.258733 0.974027 0.11455
H_ H_ 0.224041 0.302301 0.509035 0.11455
H_ H_ 0.214103 0.27509 0.559067 0.11455
H_ H_ 0.0256174 0.189193 0.614115 0.11455
H_ H_ 0.00441484 0.189406 0.667357 0.11455
H_ H_ 0.275561 0.183719 0.642026 0.11455
H_ H_ 0.254406 0.161472 0.690921 0.11455
H_ H_ 0.0763095 0.100912 0.743352 0.11455
H_ H_ 0.052842 0.0746207 0.794571 0.11455
H_ H_ 0.0818205 0.124876 0.833179 0.11455
H_ H_ 0.161082 0.259212 0.75469 0.11455
H_ H_ 0.186157 0.309789 0.795336 0.11455
H_ H_ 0.180253 0.269984 0.845111 0.11455
H_ H_ 0.205117 0.322371 0.698867 0.11455
H_ H_ 0.136414 0.323556 0.598415 0.11455
H_ H_ 0.22779 0.328553 0.60711 0.11455
H_ H_ 0.116706 0.335131 0.715457 0.11455
H_ H_ 0.0276876 0.319292 0.707152 0.11455
H_ H_ 0.0532417 0.331506 0.615224 0.11455
H_ H_ 0.356993 0.488619 0.692872 0.11455
H_ H_ 0.366627 0.0682309 0.59957 0.11455
H_ H_ 0.415472 0.480203 0.609478 0.11455
H_ H_ 0.392495 0.0696129 0.713973 0.11455
H_ H_ 0.398378 0.160942 0.710562 0.11455
H_ H_ 0.383205 0.150932 0.619683 0.11455
H_ H_ 0.424824 0.395659 0.723697 0.11455
H_ H_ 0.42767 0.420633 0.771918 0.11455
H_ H_ 0.392771 0.36685 0.810296 0.11455
H_ H_ 0.3093 0.254104 0.722808 0.11455
H_ H_ 0.273335 0.202448 0.759495 0.11455
H_ H_ 0.279575 0.22294 0.810921 0.11455
H_ H_ 0.472976 0.296754 0.878054 0.11455
H_ H_ 0.481125 0.323292 0.928694 0.11455
H_ H_ 0.219235 0.328485 0.886278 0.11455
H_ H_ 0.227496 0.336085 0.939371 0.11455
H_ H_ 0.383754 0.435393 0.006520000000000081 0.11455
H_ H_ 0.453229 0.451582 0.553568 0.11455
H_ H_ 0.432282 0.394077 0.59245 0.11455
H_ H_ 0.351296 0.264114 0.509985 0.11455
H_ H_ 0.340847 0.205185 0.548238 0.11455
H_ H_ 0.341809 0.235111 0.598856 0.11455
C_ C_ 0.22997 0.203545 0.902523 0.68181
C_ C_ 0.285297 0.189473 0.900586 -0.05681
C_ C_ 0.319108 0.199993 0.923485 -0.08735
C_ C_ 0.371288 0.187288 0.920142 -0.05681
C_ C_ 0.389647 0.165613 0.895466 -0.05681
C_ C_ 0.355511 0.153074 0.873616 -0.08735
C_ C_ 0.304542 0.164151 0.875448 -0.08735
C_ C_ 0.404383 0.189679 0.943189 -0.08735
C_ C_ 0.455992 0.184731 0.939141 -0.08735
C_ C_ 0.475792 0.176297 0.91174 -0.05681
C_ C_ 0.442554 0.157148 0.891504 -0.08735
C_ C_ 0.111398 0.285256 0.911876 0.68181
C_ C_ 0.139704 0.092358 0.89793 0.68181
C_ C_ 0.130753 0.0356392 0.893778 -0.05681
C_ C_ 0.135851 0.500424 0.921738 -0.08735
C_ C_ 0.127344 0.444877 0.91913 -0.05681
C_ C_ 0.112195 0.425099 0.892975 -0.05681
C_ C_ 0.101941 0.460005 0.870267 -0.08735
C_ C_ 0.109849 0.511495 0.872774 -0.08735
C_ C_ 0.127937 0.414836 0.944132 -0.08735
C_ C_ 0.116615 0.362765 0.942288 -0.08735
C_ C_ 0.108395 0.340715 0.915431 -0.05681
C_ C_ 0.102471 0.373131 0.890821 -0.08735
C_ C_ 0.0337793 0.181579 0.905621 0.68181
C_ C_ 0.114259 0.121464 0.982152 0.1947
C_ C_ 0.130585 0.0925859 0.507991 -0.08735
C_ C_ 0.149621 0.120473 0.530746 -0.08735
C_ C_ 0.167322 0.16966 0.52643 -0.05681
C_ C_ 0.172283 0.186839 0.497815 0.18498
C_ C_ 0.171447 0.246125 0.995649 -0.08735
C_ C_ 0.211331 0.264548 0.514139 -0.08735
C_ C_ 0.203474 0.251222 0.542995 -0.08735
C_ C_ 0.179251 0.204638 0.549363 0.18498
C_ C_ 0.203891 0.188331 0.59844 0.44287
C_ C_ 0.116694 0.197433 0.588284 0.44287
C_ C_ 0.105397 0.197392 0.618329 -0.05681
C_ C_ 0.0552293 0.196531 0.628996 -0.08735
C_ C_ 0.0440741 0.189701 0.65859 -0.08735
C_ C_ 0.0850913 0.192807 0.678231 -0.05681
C_ C_ 0.135799 0.190072 0.667905 -0.05681
C_ C_ 0.146448 0.193438 0.637602 -0.05681
C_ C_ 0.196334 0.190452 0.628408 -0.05681
C_ C_ 0.236088 0.186787 0.649191 -0.08735
C_ C_ 0.22717 0.179144 0.67724 -0.08735
C_ C_ 0.177823 0.186244 0.687303 -0.05681
C_ C_ 0.166649 0.179574 0.715981 0.44287
C_ C_ 0.0809454 0.196988 0.709054 0.44287
C_ C_ 0.107686 0.172553 0.756934 0.18498
C_ C_ 0.0786966 0.12757 0.76176 -0.08735
C_ C_ 0.0734273 0.110383 0.789782 -0.08735
C_ C_ 0.0902357 0.137495 0.812574 -0.08735
C_ C_ 0.118601 0.180996 0.807856 0.18498
C_ C_ 0.129537 0.199458 0.780116 -0.05681
C_ C_ 0.155681 0.244796 0.775748 -0.08735
C_ C_ 0.17474 0.270209 0.79925 -0.08735
C_ C_ 0.160167 0.25517 0.8268 0.1947
C_ C_ 0.2821 0.314456 0.657673 0.68181
C_ C_ 0.2252 0.321036 0.653531 -0.05681
C_ C_ 0.190852 0.324493 0.67659 -0.08735
C_ C_ 0.137109 0.32709 0.671361 -0.05681
C_ C_ 0.118694 0.326677 0.643111 -0.05681
C_ C_ 0.151752 0.322821 0.620349 -0.08735
C_ C_ 0.204091 0.322498 0.625213 -0.08735
C_ C_ 0.103244 0.336324 0.694085 -0.08735
C_ C_ 0.0521278 0.32876 0.689315 -0.08735
C_ C_ 0.0333928 0.335958 0.661611 -0.05681
C_ C_ 0.0664679 0.333515 0.638016 -0.08735
C_ C_ 0.39097 0.220589 0.662877 0.68181
C_ C_ 0.375598 0.419594 0.653791 0.68181
C_ C_ 0.379325 0.476767 0.650426 -0.05681
C_ C_ 0.380947 0.00286221 0.672121 -0.08735
C_ C_ 0.383966 0.0561942 0.670152 -0.05681
C_ C_ 0.378772 0.0809771 0.642753 -0.05681
C_ C_ 0.36969 0.0522291 0.619622 -0.08735
C_ C_ 0.394244 0.499015 0.625504 -0.08735
C_ C_ 0.393507 0.0859718 0.693454 -0.08735
C_ C_ 0.39519 0.138618 0.691473 -0.08735
C_ C_ 0.386715 0.162801 0.665017 -0.05681
C_ C_ 0.385452 0.134213 0.639796 -0.08735
C_ C_ 0.47964 0.322602 0.660651 0.68181
C_ C_ 0.40379 0.372275 0.738814 0.1947
C_ C_ 0.411099 0.384527 0.76695 -0.08735
C_ C_ 0.387999 0.357418 0.788876 -0.08735
C_ C_ 0.357191 0.31651 0.783182 -0.05681
C_ C_ 0.351831 0.30345 0.75274 0.18498
C_ C_ 0.317371 0.263788 0.745598 -0.08735
C_ C_ 0.295209 0.23412 0.766629 -0.08735
C_ C_ 0.301473 0.244928 0.795702 -0.08735
C_ C_ 0.333745 0.287036 0.804525 0.18498
C_ C_ 0.296647 0.310666 0.850702 0.44287
C_ C_ 0.3834 0.284466 0.848549 0.44287
C_ C_ 0.390168 0.300109 0.878546 -0.05681
C_ C_ 0.439332 0.301876 0.891224 -0.08735
C_ C_ 0.442765 0.319908 0.919357 -0.08735
C_ C_ 0.40279 0.328922 0.935715 -0.05681
C_ C_ 0.352743 0.32964 0.922707 -0.05681
C_ C_ 0.346897 0.313787 0.893904 -0.05681
C_ C_ 0.300476 0.318105 0.880991 -0.05681
C_ C_ 0.257314 0.328675 0.897066 -0.08735
C_ C_ 0.260894 0.332828 0.927233 -0.08735
C_ C_ 0.308958 0.333153 0.941074 -0.05681
C_ C_ 0.315779 0.341708 0.970138 0.44287
C_ C_ 0.404321 0.332328 0.965626 0.44287
C_ C_ 0.396029 0.356789 0.51369 0.18498
C_ C_ 0.413713 0.406297 0.520137 -0.08735
C_ C_ 0.428121 0.419881 0.548381 -0.08735
C_ C_ 0.414791 0.387096 0.57155 -0.08735
C_ C_ 0.390394 0.338226 0.566885 0.18498
C_ C_ 0.380537 0.32374 0.537411 -0.05681
C_ C_ 0.361088 0.276183 0.531644 -0.08735
C_ C_ 0.353329 0.241786 0.553842 -0.08735
C_ C_ 0.360766 0.258415 0.582844 0.1947
N_ N_ 0.137693 0.167646 0.976645 -0.29468
N_ N_ 0.164934 0.193326 0.579017 -0.17154
N_ N_ 0.119731 0.18515 0.72699 -0.17154
N_ N_ 0.133765 0.210901 0.830803 -0.29468
N_ N_ 0.372926 0.333263 0.731813 -0.29468
N_ N_ 0.339024 0.295338 0.835021 -0.17154
N_ N_ 0.36248 0.341528 0.981651 -0.17154
N_ N_ 0.379828 0.305965 0.589044 -0.29468
O_ O_ 0.209611 0.199606 0.926863 -0.58347
O_ O_ 0.20216 0.205456 0.879587 -0.58347
O_ O_ 0.118912 0.256665 0.933014 -0.58347
O_ O_ 0.117312 0.268622 0.886232 -0.58347
O_ O_ 0.144743 0.109952 0.923454 -0.58347
O_ O_ 0.137797 0.121247 0.876581 -0.58347
O_ O_ 0.0614821 0.168287 0.926591 -0.58347
O_ O_ 0.0555067 0.185384 0.881609 -0.58347
O_ O_ 0.0806817 0.19948 0.569464 -0.46727
O_ O_ 0.250927 0.178135 0.588466 -0.46727
O_ O_ 0.0348031 0.201073 0.719441 -0.46727
O_ O_ 0.20194 0.167049 0.733118 -0.46727
O_ O_ 0.301803 0.327568 0.681695 -0.58347
O_ O_ 0.311978 0.306751 0.637327 -0.58347
O_ O_ 0.377265 0.246986 0.683681 -0.58347
O_ O_ 0.401079 0.239999 0.639307 -0.58347
O_ O_ 0.377246 0.400653 0.677948 -0.58347
O_ O_ 0.375606 0.391041 0.632822 -0.58347
O_ O_ 0.451581 0.325612 0.682652 -0.58347
O_ O_ 0.460384 0.326275 0.635638 -0.58347
O_ O_ 0.422415 0.271804 0.832935 -0.46727
O_ O_ 0.253489 0.32143 0.837777 -0.46727
O_ O_ 0.448817 0.336943 0.978319 -0.46727
O_ O_ 0.278216 0.347625 0.987401 -0.46727
Zn Zn 0.127589 0.681736 0.382632 0.90689
Zn Zn 0.134396 0.675024 0.429541 0.90689
Zn Zn 0.365309 0.81209 0.131547 0.90689
Zn Zn 0.349118 0.820469 0.18126 0.90689
H_ H_ 0.304683 0.704931 0.442463 0.11455
H_ H_ 0.3678 0.640656 0.350542 0.11455
H_ H_ 0.277199 0.662161 0.354922 0.11455
H_ H_ 0.392544 0.698424 0.462044 0.11455
H_ H_ 0.479891 0.684349 0.457193 0.11455
H_ H_ 0.452778 0.650945 0.366395 0.11455
H_ H_ 0.147893 0.50648 0.444405 0.11455
H_ H_ 0.146493 0.92815 0.343281 0.11455
H_ H_ 0.118069 0.523334 0.35451 0.11455
H_ H_ 0.1293 0.928019 0.460289 0.11455
H_ H_ 0.12777 0.836227 0.455852 0.11455
H_ H_ 0.126233 0.846049 0.36377 0.11455
H_ H_ 0.0783357 0.60884 0.468241 0.11455
H_ H_ 0.0549416 0.584179 0.0111958 0.11455
H_ H_ 0.0878569 0.634208 0.0531901 0.11455
H_ H_ 0.198787 0.74088 0.474148 0.11455
H_ H_ 0.216118 0.806838 0.0166394 0.11455
H_ H_ 0.192172 0.781307 0.0660781 0.11455
H_ H_ 0.014353 0.707198 0.129402 0.11455
H_ H_ 0.00804696 0.698662 0.17958 0.11455
H_ H_ 0.264576 0.668242 0.136384 0.11455
H_ H_ 0.254564 0.638154 0.188879 0.11455
H_ H_ 0.0746575 0.563189 0.250924 0.11455
H_ H_ 0.044788 0.553867 0.299196 0.11455
H_ H_ 0.0639976 0.614713 0.338542 0.11455
H_ H_ 0.173605 0.718062 0.253347 0.11455
H_ H_ 0.20292 0.769502 0.290877 0.11455
H_ H_ 0.175231 0.752465 0.343477 0.11455
H_ H_ 0.187262 0.798223 0.195171 0.11455
H_ H_ 0.11778 0.830191 0.0975477 0.11455
H_ H_ 0.210003 0.829641 0.105552 0.11455
H_ H_ 0.095662 0.807743 0.21558 0.11455
H_ H_ 0.0056535 0.815564 0.206246 0.11455
H_ H_ 0.0349544 0.840016 0.116135 0.11455
H_ H_ 0.32505 0.991062 0.188656 0.11455
H_ H_ 0.369798 0.567015 0.0995639 0.11455
H_ H_ 0.375837 0.974503 0.102088 0.11455
H_ H_ 0.380775 0.571188 0.215344 0.11455
H_ H_ 0.393398 0.661491 0.210356 0.11455
H_ H_ 0.38361 0.648207 0.122325 0.11455
H_ H_ 0.39843 0.893017 0.217465 0.11455
H_ H_ 0.41249 0.919623 0.270441 0.11455
H_ H_ 0.373973 0.875421 0.307509 0.11455
H_ H_ 0.300479 0.746675 0.223221 0.11455
H_ H_ 0.279776 0.686817 0.263689 0.11455
H_ H_ 0.314343 0.700722 0.312288 0.11455
H_ H_ 0.482174 0.779608 0.369971 0.11455
H_ H_ 0.49807 0.787954 0.424287 0.11455
H_ H_ 0.234762 0.822877 0.389809 0.11455
H_ H_ 0.248173 0.834686 0.440652 0.11455
H_ H_ 0.421988 0.904806 0.498657 0.11455
H_ H_ 0.457655 0.925124 0.0465418 0.11455
H_ H_ 0.437322 0.870325 0.086022 0.11455
H_ H_ 0.326671 0.760681 0.00751341 0.11455
H_ H_ 0.283646 0.719663 0.0474913 0.11455
H_ H_ 0.310206 0.741763 0.0971751 0.11455
C_ C_ 0.228538 0.681676 0.404364 0.68181
C_ C_ 0.28467 0.681187 0.399385 -0.05681
C_ C_ 0.318943 0.689905 0.421937 -0.08735
C_ C_ 0.370202 0.682657 0.419281 -0.05681
C_ C_ 0.389594 0.667574 0.392479 -0.05681
C_ C_ 0.355149 0.659792 0.370009 -0.08735
C_ C_ 0.302841 0.665894 0.373283 -0.08735
C_ C_ 0.403684 0.688865 0.44181 -0.08735
C_ C_ 0.456068 0.682983 0.439188 -0.08735
C_ C_ 0.475801 0.670628 0.411178 -0.05681
C_ C_ 0.442118 0.66311 0.388564 -0.08735
C_ C_ 0.124596 0.778803 0.407567 0.68181
C_ C_ 0.133799 0.579177 0.40217 0.68181
C_ C_ 0.135082 0.523727 0.400036 -0.05681
C_ C_ 0.140619 0.993357 0.417099 -0.08735
C_ C_ 0.136538 0.940191 0.414726 -0.05681
C_ C_ 0.137088 0.916647 0.387372 -0.05681
C_ C_ 0.144495 0.946557 0.362855 -0.08735
C_ C_ 0.150168 0.999974 0.365507 -0.08735
C_ C_ 0.125509 0.913202 0.438843 -0.08735
C_ C_ 0.125457 0.858291 0.436622 -0.08735
C_ C_ 0.121757 0.834226 0.40974 -0.05681
C_ C_ 0.123853 0.864869 0.384976 -0.08735
C_ C_ 0.0316539 0.665548 0.406792 0.68181
C_ C_ 0.100545 0.626549 0.48385 0.1947
C_ C_ 0.0780329 0.61963 0.00890049 -0.08735
C_ C_ 0.0972142 0.644892 0.032203 -0.08735
C_ C_ 0.128487 0.687578 0.029008 -0.05681
C_ C_ 0.139021 0.704161 1.00016 0.18498
C_ C_ 0.185179 0.734602 0.495436 -0.08735
C_ C_ 0.185986 0.77645 0.0196022 -0.08735
C_ C_ 0.174928 0.759451 0.0477227 -0.08735
C_ C_ 0.151972 0.712116 0.0526828 0.18498
C_ C_ 0.185479 0.676858 0.09813 0.44287
C_ C_ 0.0996475 0.70205 0.0967481 0.44287
C_ C_ 0.0942975 0.688777 0.126504 -0.05681
C_ C_ 0.0487368 0.696522 0.14088 -0.08735
C_ C_ 0.0431321 0.685252 0.169297 -0.08735
C_ C_ 0.0833225 0.668951 0.185446 -0.05681
C_ C_ 0.129229 0.65893 0.171837 -0.05681
C_ C_ 0.135137 0.670656 0.142148 -0.05681
C_ C_ 0.182067 0.666234 0.128505 -0.05681
C_ C_ 0.225907 0.658135 0.145838 -0.08735
C_ C_ 0.220144 0.644295 0.175292 -0.08735
C_ C_ 0.172352 0.641912 0.187545 -0.05681
C_ C_ 0.16544 0.635036 0.216876 0.44287
C_ C_ 0.0787617 0.658331 0.215229 0.44287
C_ C_ 0.113688 0.633671 0.260636 0.18498
C_ C_ 0.0879813 0.588117 0.268093 -0.08735
C_ C_ 0.0719348 0.580775 0.295742 -0.08735
C_ C_ 0.0834945 0.616852 0.317771 -0.08735
C_ C_ 0.110756 0.659453 0.310452 0.18498
C_ C_ 0.128114 0.666957 0.28191 -0.05681
C_ C_ 0.156556 0.710018 0.275223 -0.08735
C_ C_ 0.173561 0.74022 0.297284 -0.08735
C_ C_ 0.161537 0.729311 0.325954 0.1947
C_ C_ 0.258451 0.806499 0.156726 0.68181
C_ C_ 0.203488 0.809512 0.151465 -0.05681
C_ C_ 0.17009 0.808051 0.174549 -0.08735
C_ C_ 0.118145 0.815239 0.169849 -0.05681
C_ C_ 0.0976271 0.818607 0.141549 -0.05681
C_ C_ 0.133678 0.823761 0.118469 -0.08735
C_ C_ 0.184354 0.822345 0.124344 -0.08735
C_ C_ 0.0842961 0.814303 0.192721 -0.08735
C_ C_ 0.0311051 0.814175 0.188028 -0.08735
C_ C_ 0.0116475 0.817841 0.159699 -0.05681
C_ C_ 0.0467904 0.824834 0.137104 -0.08735
C_ C_ 0.367758 0.719819 0.163252 0.68181
C_ C_ 0.350273 0.918012 0.148955 0.68181
C_ C_ 0.351233 0.974227 0.146683 -0.05681
C_ C_ 0.358274 0.50316 0.174081 -0.08735
C_ C_ 0.365092 0.55762 0.17139 -0.05681
C_ C_ 0.363412 0.57989 0.144155 -0.05681
C_ C_ 0.359732 0.549627 0.119216 -0.08735
C_ C_ 0.366174 -0.0034570000000000434 0.120879 -0.08735
C_ C_ 0.372299 0.58767 0.194933 -0.08735
C_ C_ 0.377855 0.641145 0.192148 -0.08735
C_ C_ 0.370054 0.664114 0.16533 -0.05681
C_ C_ 0.369907 0.632398 0.141483 -0.08735
C_ C_ 0.457234 0.818925 0.159122 0.68181
C_ C_ 0.384222 0.871208 0.235051 0.1947
C_ C_ 0.393962 0.886558 0.263879 -0.08735
C_ C_ 0.372997 0.861221 0.286035 -0.08735
C_ C_ 0.347658 0.814983 0.280806 -0.05681
C_ C_ 0.340656 0.799365 0.25222 0.18498
C_ C_ 0.31484 0.75477 0.246128 -0.08735
C_ C_ 0.300372 0.721596 0.26762 -0.08735
C_ C_ 0.31614 0.731232 0.295799 -0.08735
C_ C_ 0.335307 0.781337 0.303472 0.18498
C_ C_ 0.305394 0.80466 0.35051 0.44287
C_ C_ 0.39353 0.785386 0.345538 0.44287
C_ C_ 0.40428 0.800491 0.373775 -0.05681
C_ C_ 0.452524 0.794595 0.384186 -0.08735
C_ C_ 0.462117 0.798531 0.414619 -0.08735
C_ C_ 0.419761 0.812388 0.433039 -0.05681
C_ C_ 0.370771 0.817858 0.421825 -0.05681
C_ C_ 0.364323 0.815673 0.391618 -0.05681
C_ C_ 0.313624 0.815031 0.380453 -0.05681
C_ C_ 0.273048 0.825403 0.398316 -0.08735
C_ C_ 0.280728 0.829084 0.427634 -0.08735
C_ C_ 0.328442 0.825476 0.440248 -0.05681
C_ C_ 0.340181 0.829493 0.470562 0.44287
C_ C_ 0.425293 0.807189 0.463917 0.44287
C_ C_ 0.37706 0.84922 0.0101271 0.18498
C_ C_ 0.403964 0.891998 0.0164879 -0.08735
C_ C_ 0.429238 0.895267 0.0430415 -0.08735
C_ C_ 0.415109 0.865982 0.0664943 -0.08735
C_ C_ 0.377729 0.828797 0.0621842 0.18498
C_ C_ 0.361271 0.818186 0.0335519 -0.05681
C_ C_ 0.332077 0.775186 0.028656 -0.08735
C_ C_ 0.310134 0.750285 0.0507833 -0.08735
C_ C_ 0.322822 0.764536 0.0803404 0.1947
N_ N_ 0.126621 0.669527 0.47835 -0.29468
N_ N_ 0.146078 0.695518 0.0827441 -0.17154
N_ N_ 0.119721 0.645268 0.230582 -0.17154
N_ N_ 0.127608 0.691841 0.332476 -0.29468
N_ N_ 0.352936 0.831189 0.230301 -0.29468
N_ N_ 0.344833 0.788433 0.334068 -0.17154
N_ N_ 0.386195 0.818316 0.481359 -0.17154
N_ N_ 0.35618 0.803026 0.085309 -0.29468
O_ O_ 0.20996 0.674395 0.427857 -0.58347
O_ O_ 0.20016 0.695094 0.383456 -0.58347
O_ O_ 0.138273 0.754702 0.429919 -0.58347
O_ O_ 0.110116 0.754387 0.384865 -0.58347
O_ O_ 0.132963 0.599862 0.426393 -0.58347
O_ O_ 0.134717 0.607168 0.380023 -0.58347
O_ O_ 0.0591791 0.670389 0.429009 -0.58347
O_ O_ 0.05261 0.662044 0.381871 -0.58347
O_ O_ 0.06064 0.72596 0.0834769 -0.46727
O_ O_ 0.226315 0.663145 0.0847748 -0.46727
O_ O_ 0.0396876 0.677371 0.229187 -0.46727
O_ O_ 0.206578 0.618468 0.231989 -0.46727
O_ O_ 0.276909 0.816003 0.18094 -0.58347
O_ O_ 0.286892 0.804757 0.135518 -0.58347
O_ O_ 0.359588 0.746934 0.185303 -0.58347
O_ O_ 0.369045 0.740713 0.138663 -0.58347
O_ O_ 0.344248 0.896304 0.172543 -0.58347
O_ O_ 0.357814 0.890344 0.126778 -0.58347
O_ O_ 0.425757 0.825409 0.179867 -0.58347
O_ O_ 0.439545 0.813945 0.133376 -0.58347
O_ O_ 0.431296 0.774934 0.327877 -0.46727
O_ O_ 0.257867 0.798735 0.341582 -0.46727
O_ O_ 0.47058 0.800106 0.475619 -0.46727
O_ O_ 0.303844 0.839725 0.490094 -0.46727
Zn Zn 0.122927 0.694228 0.881553 0.90689
Zn Zn 0.133096 0.684235 0.929788 0.90689
Zn Zn 0.377802 0.818925 0.632887 0.90689
Zn Zn 0.370343 0.822319 0.68167 0.90689
H_ H_ 0.303882 0.701563 0.946888 0.11455
H_ H_ 0.365126 0.660161 0.85097 0.11455
H_ H_ 0.279385 0.675554 0.857965 0.11455
H_ H_ 0.395626 0.725283 0.961996 0.11455
H_ H_ 0.485636 0.714492 0.953073 0.11455
H_ H_ 0.455322 0.690146 0.865405 0.11455
H_ H_ 0.159405 0.513308 0.94088 0.11455
H_ H_ 0.150328 0.939914 0.845525 0.11455
H_ H_ 0.0979218 0.538405 0.855689 0.11455
H_ H_ 0.0826174 0.94347 0.955921 0.11455
H_ H_ 0.0902738 0.843661 0.954084 0.11455
H_ H_ 0.143779 0.861833 0.865318 0.11455
H_ H_ 0.0755849 0.609762 0.964203 0.11455
H_ H_ 0.0705993 0.576378 0.515032 0.11455
H_ H_ 0.116283 0.618864 0.554936 0.11455
H_ H_ 0.181061 0.759045 0.974563 0.11455
H_ H_ 0.230895 0.796189 0.514006 0.11455
H_ H_ 0.211028 0.768811 0.565908 0.11455
H_ H_ 1.0163723 0.705854 0.624803 0.11455
H_ H_ 0.9999170117 0.696724 0.672925 0.11455
H_ H_ 0.267093 0.680043 0.641291 0.11455
H_ H_ 0.251674 0.676181 0.69159 0.11455
H_ H_ 0.0664485 0.587712 0.752152 0.11455
H_ H_ 0.0379624 0.575153 0.801091 0.11455
H_ H_ 0.0632109 0.629865 0.840349 0.11455
H_ H_ 0.16552 0.745094 0.757504 0.11455
H_ H_ 0.190288 0.797466 0.798901 0.11455
H_ H_ 0.189434 0.757967 0.848203 0.11455
H_ H_ 0.202928 0.816725 0.697854 0.11455
H_ H_ 0.137348 0.834151 0.597817 0.11455
H_ H_ 0.22692 0.830447 0.607157 0.11455
H_ H_ 0.115307 0.796861 0.714834 0.11455
H_ H_ 0.0221258 0.806012 0.707701 0.11455
H_ H_ 0.0494792 0.821504 0.617904 0.11455
H_ H_ 0.394813 0.984886 0.69112 0.11455
H_ H_ 0.418144 0.567089 0.605593 0.11455
H_ H_ 0.346065 0.981122 0.604168 0.11455
H_ H_ 0.335059 0.572674 0.715735 0.11455
H_ H_ 0.341048 0.668575 0.710759 0.11455
H_ H_ 0.410813 0.652997 0.629901 0.11455
H_ H_ 0.428719 0.904199 0.716056 0.11455
H_ H_ 0.428195 0.942252 0.763015 0.11455
H_ H_ 0.391678 0.891464 0.803904 0.11455
H_ H_ 0.309411 0.764474 0.722337 0.11455
H_ H_ 0.291201 0.704697 0.76191 0.11455
H_ H_ 0.314601 0.726745 0.810345 0.11455
H_ H_ 0.4861 0.80753 0.876772 0.11455
H_ H_ 0.486585 0.81495 0.928731 0.11455
H_ H_ 0.22949 0.836744 0.881555 0.11455
H_ H_ 0.23425 0.841655 0.934168 0.11455
H_ H_ 0.420007 0.913325 0.999379 0.11455
H_ H_ 0.463712 0.922058 0.545649 0.11455
H_ H_ 0.443035 0.871394 0.586659 0.11455
H_ H_ 0.349015 0.737902 0.510988 0.11455
H_ H_ 0.30486 0.705319 0.552015 0.11455
H_ H_ 0.325408 0.735703 0.601814 0.11455
C_ C_ 0.228751 0.692456 0.907004 0.68181
C_ C_ 0.283731 0.694712 0.90295 -0.05681
C_ C_ 0.317002 0.705054 0.925295 -0.08735
C_ C_ 0.370818 0.699072 0.920711 -0.05681
C_ C_ 0.38877 0.685803 0.892967 -0.05681
C_ C_ 0.352123 0.673883 0.871913 -0.08735
C_ C_ 0.303293 0.677665 0.876838 -0.08735
C_ C_ 0.405406 0.706903 0.942336 -0.08735
C_ C_ 0.457688 0.69955 0.937503 -0.08735
C_ C_ 0.475311 0.68447 0.91123 -0.05681
C_ C_ 0.440905 0.683052 0.888004 -0.08735
C_ C_ 0.119905 0.788388 0.908825 0.68181
C_ C_ 0.13514 0.588478 0.902104 0.68181
C_ C_ 0.128652 0.531582 0.89882 -0.05681
C_ C_ 0.118494 1.00648991 0.917534 -0.08735
C_ C_ 0.117177 0.95183 0.91558 -0.05681
C_ C_ 0.130669 0.928862 0.889273 -0.05681
C_ C_ 0.137539 0.959779 0.864894 -0.08735
C_ C_ 0.139855 0.0118908 0.867547 -0.08735
C_ C_ 0.100523 0.921628 0.938521 -0.08735
C_ C_ 0.103857 0.868008 0.936436 -0.08735
C_ C_ 0.120305 0.844817 0.910889 -0.05681
C_ C_ 0.134314 0.875814 0.886745 -0.08735
C_ C_ 0.0294041 0.683374 0.908376 0.68181
C_ C_ 0.098483 0.629788 0.982466 0.1947
C_ C_ 0.0920204 0.610925 0.511929 -0.08735
C_ C_ 0.116018 0.636108 0.533654 -0.08735
C_ C_ 0.138719 0.683525 0.529123 -0.05681
C_ C_ 0.147661 0.696626 0.500037 0.18498
C_ C_ 0.169485 0.74751 0.995803 -0.08735
C_ C_ 0.206318 0.762967 0.518186 -0.08735
C_ C_ 0.191877 0.750154 0.546635 -0.08735
C_ C_ 0.158322 0.71183 0.552668 0.18498
C_ C_ 0.19145 0.678691 0.598741 0.44287
C_ C_ 0.104081 0.697753 0.593927 0.44287
C_ C_ 0.0956305 0.689367 0.623694 -0.05681
C_ C_ 0.0488818 0.697047 0.636321 -0.08735
C_ C_ 0.0389925 0.690064 0.664726 -0.08735
C_ C_ 0.0818169 0.682203 0.684269 -0.05681
C_ C_ 0.130822 0.677137 0.671835 -0.05681
C_ C_ 0.13812 0.68099 0.64127 -0.05681
C_ C_ 0.186666 0.676792 0.629329 -0.05681
C_ C_ 0.22776 0.676656 0.648329 -0.08735
C_ C_ 0.219635 0.673273 0.678018 -0.08735
C_ C_ 0.171732 0.674656 0.689861 -0.05681
C_ C_ 0.164328 0.667733 0.719839 0.44287
C_ C_ 0.0757007 0.677926 0.714046 0.44287
C_ C_ 0.106739 0.65909 0.76149 0.18498
C_ C_ 0.0781851 0.615081 0.768652 -0.08735
C_ C_ 0.0631473 0.605686 0.79653 -0.08735
C_ C_ 0.0800463 0.635018 0.819088 -0.08735
C_ C_ 0.111466 0.677261 0.813304 0.18498
C_ C_ 0.119297 0.694148 0.784306 -0.05681
C_ C_ 0.153031 0.735349 0.778879 -0.08735
C_ C_ 0.171227 0.762137 0.802491 -0.08735
C_ C_ 0.167879 0.741851 0.829984 0.1947
C_ C_ 0.276516 0.828797 0.656521 0.68181
C_ C_ 0.222429 0.827393 0.652793 -0.05681
C_ C_ 0.189046 0.821503 0.676298 -0.08735
C_ C_ 0.137002 0.818571 0.672083 -0.05681
C_ C_ 0.117354 0.824489 0.643211 -0.05681
C_ C_ 0.150326 0.834696 0.620771 -0.08735
C_ C_ 0.201985 0.834797 0.625867 -0.08735
C_ C_ 0.10211 0.806627 0.693625 -0.08735
C_ C_ 0.0494929 0.810804 0.68883 -0.08735
C_ C_ 0.0288551 0.822015 0.66114 -0.05681
C_ C_ 0.0627383 0.822851 0.638594 -0.08735
C_ C_ 0.379975 0.723736 0.66726 0.68181
C_ C_ 0.373692 0.917799 0.648236 0.68181
C_ C_ 0.36989 0.97361 0.646945 -0.05681
C_ C_ 0.366614 0.506802 0.674283 -0.08735
C_ C_ 0.369012 0.561224 0.672843 -0.05681
C_ C_ 0.384022 0.581849 0.647427 -0.05681
C_ C_ 0.396307 0.552849 0.623737 -0.08735
C_ C_ 0.363193 0.999527 0.621869 -0.08735
C_ C_ 0.349692 0.590253 0.69571 -0.08735
C_ C_ 0.353061 0.643676 0.693228 -0.08735
C_ C_ 0.376794 0.667047 0.669688 -0.05681
C_ C_ 0.393642 0.635198 0.64701 -0.08735
C_ C_ 0.473852 0.823501 0.659344 0.68181
C_ C_ 0.406035 0.885955 0.731685 0.1947
C_ C_ 0.411498 0.903516 0.759693 -0.08735
C_ C_ 0.390254 0.875244 0.782495 -0.08735
C_ C_ 0.36063 0.831256 0.777331 -0.05681
C_ C_ 0.351691 0.818536 0.748083 0.18498
C_ C_ 0.324667 0.773901 0.742393 -0.08735
C_ C_ 0.309887 0.741152 0.76538 -0.08735
C_ C_ 0.325895 0.75283 0.79362 -0.08735
C_ C_ 0.342171 0.80224 0.800651 0.18498
C_ C_ 0.306807 0.823981 0.847118 0.44287
C_ C_ 0.396251 0.808425 0.843879 0.44287
C_ C_ 0.40298 0.821406 0.874076 -0.05681
C_ C_ 0.449483 0.815246 0.888141 -0.08735
C_ C_ 0.452399 0.821452 0.9176 -0.08735
C_ C_ 0.408702 0.82838 0.933942 -0.05681
C_ C_ 0.362374 0.83263 0.919874 -0.05681
C_ C_ 0.357863 0.826136 0.890516 -0.05681
C_ C_ 0.310165 0.831422 0.877132 -0.05681
C_ C_ 0.267492 0.836922 0.893229 -0.08735
C_ C_ 0.270735 0.842577 0.922996 -0.08735
C_ C_ 0.318964 0.838542 0.936559 -0.05681
C_ C_ 0.324049 0.845347 0.966891 0.44287
C_ C_ 0.410711 0.827908 0.964399 0.44287
C_ C_ 0.397117 0.830097 0.510959 0.18498
C_ C_ 0.418535 0.878886 0.515907 -0.08735
C_ C_ 0.433475 0.893915 0.543696 -0.08735
C_ C_ 0.428096 0.859457 0.565841 -0.08735
C_ C_ 0.399475 0.814413 0.563503 0.18498
C_ C_ 0.382958 0.79965 0.534672 -0.05681
C_ C_ 0.355066 0.755565 0.53101 -0.08735
C_ C_ 0.333178 0.733047 0.555367 -0.08735
C_ C_ 0.340711 0.753611 0.582873 0.1947
N_ N_ 0.12243 0.674336 0.977379 -0.29468
N_ N_ 0.151021 0.69173 0.581998 -0.17154
N_ N_ 0.117833 0.669645 0.731601 -0.17154
N_ N_ 0.133737 0.704145 0.83505 -0.29468
N_ N_ 0.374399 0.847168 0.725901 -0.29468
N_ N_ 0.348229 0.813556 0.830835 -0.17154
N_ N_ 0.368079 0.836314 0.980006 -0.17154
N_ N_ 0.375915 0.79372 0.586684 -0.29468
O_ O_ 0.209089 0.690954 0.93162 -0.58347
O_ O_ 0.199424 0.695286 0.8852 -0.58347
O_ O_ 0.127682 0.761042 0.930612 -0.58347
O_ O_ 0.118996 0.768459 0.884594 -0.58347
O_ O_ 0.140651 0.608135 0.927003 -0.58347
O_ O_ 0.12624 0.617321 0.880881 -0.58347
O_ O_ 0.0579816 0.675757 0.929061 -0.58347
O_ O_ 0.0474699 0.693133 0.883861 -0.58347
O_ O_ 0.066104 0.706723 0.576629 -0.46727
O_ O_ 0.23509 0.683337 0.587312 -0.46727
O_ O_ 0.0324821 0.687741 0.72598 -0.46727
O_ O_ 0.203494 0.661873 0.73672 -0.46727
O_ O_ 0.295816 0.818197 0.681009 -0.58347
O_ O_ 0.304404 0.829741 0.634273 -0.58347
O_ O_ 0.381493 0.750555 0.689054 -0.58347
O_ O_ 0.373461 0.744157 0.642545 -0.58347
O_ O_ 0.362435 0.896411 0.672033 -0.58347
O_ O_ 0.385511 0.892287 0.626961 -0.58347
O_ O_ 0.443699 0.829776 0.680133 -0.58347
O_ O_ 0.454023 0.813172 0.635507 -0.58347
O_ O_ 0.434907 0.793586 0.828336 -0.46727
O_ O_ 0.262223 0.824996 0.835007 -0.46727
O_ O_ 0.455894 0.816368 0.977533 -0.46727
O_ O_ 0.283665 0.852975 0.982382 -0.46727
Zn Zn 0.637342 0.182039 0.384181 0.90689
Zn Zn 0.645932 0.183889 0.432627 0.90689
Zn Zn 0.868485 0.310898 0.129464 0.90689
Zn Zn 0.856604 0.315117 0.176354 0.90689
H_ H_ 0.810924 0.192204 0.447565 0.11455
H_ H_ 0.886135 0.169056 0.351118 0.11455
H_ H_ 0.792889 0.161106 0.355874 0.11455
H_ H_ 0.895246 0.179066 0.467829 0.11455
H_ H_ 0.993248 0.173367 0.460701 0.11455
H_ H_ 0.966925 0.176434 0.369579 0.11455
H_ H_ 0.61895 0.012678 0.443573 0.11455
H_ H_ 0.609163 0.437457 0.348404 0.11455
H_ H_ 0.663664 0.0299618 0.354483 0.11455
H_ H_ 0.659305 0.437629 0.463822 0.11455
H_ H_ 0.643341 0.345852 0.462896 0.11455
H_ H_ 0.613131 0.352523 0.370505 0.11455
H_ H_ 0.600219 0.106093 0.465261 0.11455
H_ H_ 0.550919 0.0869151 0.0106167 0.11455
H_ H_ 0.600559 0.113026 0.0503813 0.11455
H_ H_ 0.711165 0.24122 0.474148 0.11455
H_ H_ 0.697477 0.310733 0.0173316 0.11455
H_ H_ 0.691008 0.273439 0.0664416 0.11455
H_ H_ 0.508175 0.192854 0.122979 0.11455
H_ H_ 0.501656 0.205757 0.172826 0.11455
H_ H_ 0.75784 0.17182 0.136994 0.11455
H_ H_ 0.750988 0.148716 0.18744 0.11455
H_ H_ 0.561298 0.101931 0.249415 0.11455
H_ H_ 0.552405 0.0697144 0.299389 0.11455
H_ H_ 0.580125 0.124959 0.33994 0.11455
H_ H_ 0.681747 0.243214 0.259131 0.11455
H_ H_ 0.712871 0.285744 0.301016 0.11455
H_ H_ 0.696339 0.256688 0.349346 0.11455
H_ H_ 0.685875 0.321952 0.198038 0.11455
H_ H_ 0.622882 0.32168 0.0975074 0.11455
H_ H_ 0.714509 0.324439 0.106779 0.11455
H_ H_ 0.597851 0.319436 0.215357 0.11455
H_ H_ 0.509801 0.317435 0.206451 0.11455
H_ H_ 0.535616 0.321012 0.11714 0.11455
H_ H_ 0.854509 0.480734 0.188784 0.11455
H_ H_ 0.859083 0.0630252 0.0981536 0.11455
H_ H_ 0.891094 0.470627 0.100396 0.11455
H_ H_ 0.855706 0.0669447 0.216813 0.11455
H_ H_ 0.851998 0.161104 0.21108 0.11455
H_ H_ 0.85875 0.145472 0.119689 0.11455
H_ H_ 0.91035 0.395175 0.209344 0.11455
H_ H_ 0.928224 0.425071 0.256528 0.11455
H_ H_ 0.896615 0.382012 0.301563 0.11455
H_ H_ 0.800826 0.24875 0.224671 0.11455
H_ H_ 0.785927 0.195546 0.265765 0.11455
H_ H_ 0.832561 0.210216 0.311548 0.11455
H_ H_ 1.0022138 0.298608 0.370889 0.11455
H_ H_ 0.0117103 0.28853 0.423525 0.11455
H_ H_ 0.748085 0.307801 0.387268 0.11455
H_ H_ 0.762088 0.326811 0.439544 0.11455
H_ H_ 0.965548 0.387849 0.499142 0.11455
H_ H_ 0.944305 0.427958 0.0492947 0.11455
H_ H_ 0.930416 0.363458 0.0852158 0.11455
H_ H_ 0.822717 0.254942 0.00738236 0.11455
H_ H_ 0.780054 0.21271 0.0491858 0.11455
H_ H_ 0.801691 0.240337 0.0975327 0.11455
C_ C_ 0.740056 0.182387 0.407437 0.68181
C_ C_ 0.794846 0.177696 0.402735 -0.05681
C_ C_ 0.827637 0.18664 0.426226 -0.08735
C_ C_ 0.881176 0.180568 0.423129 -0.05681
C_ C_ 0.90131 0.174158 0.395315 -0.05681
C_ C_ 0.868869 0.174239 0.371893 -0.08735
C_ C_ 0.816348 0.168242 0.375573 -0.08735
C_ C_ 0.914078 0.177546 0.447139 -0.08735
C_ C_ 0.966889 0.176961 0.442658 -0.08735
C_ C_ 0.987138 0.175006 0.414397 -0.05681
C_ C_ 0.953806 0.176566 0.39091 -0.08735
C_ C_ 0.63443 0.282706 0.413937 0.68181
C_ C_ 0.647425 0.0853921 0.402408 0.68181
C_ C_ 0.649187 0.0279065 0.400518 -0.05681
C_ C_ 0.651931 0.499872 0.418425 -0.08735
C_ C_ 0.641633 0.447521 0.41889 -0.05681
C_ C_ 0.632969 0.423971 0.392686 -0.05681
C_ C_ 0.616678 0.454993 0.368826 -0.08735
C_ C_ 0.623911 0.508096 0.369468 -0.08735
C_ C_ 0.651522 0.418101 0.443681 -0.08735
C_ C_ 0.645342 0.364831 0.441839 -0.08735
C_ C_ 0.638809 0.341115 0.415221 -0.05681
C_ C_ 0.63158 0.371255 0.389908 -0.08735
C_ C_ 0.542209 0.183105 0.408334 0.68181
C_ C_ 0.61174 0.129322 0.482958 0.1947
C_ C_ 0.577183 0.117751 0.00762717 -0.08735
C_ C_ 0.60521 0.132679 0.0303908 -0.08735
C_ C_ 0.640122 0.172449 0.0272938 -0.05681
C_ C_ 0.649572 0.194569 0.999113 0.18498
C_ C_ 0.695818 0.233696 0.494758 -0.08735
C_ C_ 0.684868 0.270123 0.0196297 -0.08735
C_ C_ 0.680065 0.250699 0.0479813 -0.08735
C_ C_ 0.653485 0.203418 0.0520544 0.18498
C_ C_ 0.683671 0.169745 0.0965767 0.44287
C_ C_ 0.598246 0.195222 0.0939901 0.44287
C_ C_ 0.591592 0.190202 0.12338 -0.05681
C_ C_ 0.54379 0.197162 0.135927 -0.08735
C_ C_ 0.540364 0.198964 0.165856 -0.08735
C_ C_ 0.582658 0.191855 0.183599 -0.05681
C_ C_ 0.629784 0.182065 0.170667 -0.05681
C_ C_ 0.632733 0.178114 0.140262 -0.05681
C_ C_ 0.679785 0.168592 0.128177 -0.05681
C_ C_ 0.72254 0.164149 0.145872 -0.08735
C_ C_ 0.716585 0.157598 0.174857 -0.08735
C_ C_ 0.667933 0.164539 0.187611 -0.05681
C_ C_ 0.662608 0.164272 0.218061 0.44287
C_ C_ 0.578192 0.194927 0.213802 0.44287
C_ C_ 0.610429 0.1642 0.260581 0.18498
C_ C_ 0.581467 0.119009 0.266647 -0.08735
C_ C_ 0.574436 0.102284 0.295278 -0.08735
C_ C_ 0.591093 0.132879 0.317581 -0.08735
C_ C_ 0.623825 0.173628 0.312947 0.18498
C_ C_ 0.634268 0.190853 0.284724 -0.05681
C_ C_ 0.668606 0.230738 0.280658 -0.08735
C_ C_ 0.693485 0.250889 0.3039 -0.08735
C_ C_ 0.681507 0.235757 0.331934 0.1947
C_ C_ 0.762264 0.315899 0.154995 0.68181
C_ C_ 0.707956 0.32062 0.15253 -0.05681
C_ C_ 0.6725 0.32116 0.176132 -0.08735
C_ C_ 0.620163 0.321244 0.170556 -0.05681
C_ C_ 0.60133 0.319075 0.14264 -0.05681
C_ C_ 0.637135 0.322259 0.119913 -0.08735
C_ C_ 0.688047 0.320783 0.124434 -0.08735
C_ C_ 0.584877 0.323327 0.193564 -0.08735
C_ C_ 0.53276 0.325353 0.188493 -0.08735
C_ C_ 0.513343 0.321718 0.160847 -0.05681
C_ C_ 0.549182 0.318507 0.138249 -0.08735
C_ C_ 0.865673 0.214554 0.161328 0.68181
C_ C_ 0.86172 0.411383 0.146274 0.68181
C_ C_ 0.869403 0.468722 0.144697 -0.05681
C_ C_ 0.850589 -0.0014239999999999808 0.174297 -0.08735
C_ C_ 0.855231 0.0517076 0.171655 -0.05681
C_ C_ 0.855892 0.0743389 0.144209 -0.05681
C_ C_ 0.856026 0.0444246 0.119232 -0.08735
C_ C_ 0.880834 0.493788 0.119218 -0.08735
C_ C_ 0.856116 0.0834795 0.195658 -0.08735
C_ C_ 0.858804 0.136151 0.193106 -0.08735
C_ C_ 0.867095 0.15907 0.16478 -0.05681
C_ C_ 0.859303 0.128442 0.141352 -0.08735
C_ C_ 0.9621 0.312491 0.153626 0.68181
C_ C_ 0.895029 0.373739 0.227772 0.1947
C_ C_ 0.908822 0.390786 0.255084 -0.08735
C_ C_ 0.895634 0.363258 0.279949 -0.08735
C_ C_ 0.868114 0.319732 0.276926 -0.05681
C_ C_ 0.848543 0.304738 0.248732 0.18498
C_ C_ 0.814862 0.262185 0.245592 -0.08735
C_ C_ 0.810341 0.227203 0.268654 -0.08735
C_ C_ 0.831955 0.238084 0.295282 -0.08735
C_ C_ 0.856786 0.285016 0.299658 0.18498
C_ C_ 0.821905 0.304287 0.347457 0.44287
C_ C_ 0.912333 0.300548 0.34099 0.44287
C_ C_ 0.919114 0.299307 0.371983 -0.05681
C_ C_ 0.967323 0.296696 0.385366 -0.08735
C_ C_ 0.973466 0.295094 0.414952 -0.08735
C_ C_ 0.930515 0.304046 0.432194 -0.05681
C_ C_ 0.883483 0.31335 0.419472 -0.05681
C_ C_ 0.876591 0.307604 0.389714 -0.05681
C_ C_ 0.826482 0.309376 0.37767 -0.05681
C_ C_ 0.784859 0.316171 0.395174 -0.08735
C_ C_ 0.793123 0.322692 0.425318 -0.08735
C_ C_ 0.843093 0.325278 0.437411 -0.05681
C_ C_ 0.850947 0.331259 0.466505 0.44287
C_ C_ 0.936323 0.308364 0.462446 0.44287
C_ C_ 0.878252 0.341686 0.00815808 0.18498
C_ C_ 0.908792 0.385037 0.0153984 -0.08735
C_ C_ 0.921225 0.395004 0.0437962 -0.08735
C_ C_ 0.908642 0.361397 0.0650964 -0.08735
C_ C_ 0.872955 0.324637 0.0609568 0.18498
C_ C_ 0.860492 0.310032 0.031733 -0.05681
C_ C_ 0.828752 0.267805 0.0283476 -0.08735
C_ C_ 0.811656 0.238769 0.0525296 -0.08735
C_ C_ 0.822279 0.257711 0.0790751 0.1947
N_ N_ 0.645238 0.168254 0.478322 -0.29468
N_ N_ 0.645417 0.185985 0.0814115 -0.17154
N_ N_ 0.617134 0.176972 0.230115 -0.17154
N_ N_ 0.643371 0.19991 0.335856 -0.29468
N_ N_ 0.864755 0.3299 0.224722 -0.29468
N_ N_ 0.863293 0.29918 0.329505 -0.17154
N_ N_ 0.897019 0.322323 0.479283 -0.17154
N_ N_ 0.860732 0.29212 0.0827091 -0.29468
O_ O_ 0.720628 0.186554 0.431357 -0.58347
O_ O_ 0.711787 0.180935 0.384984 -0.58347
O_ O_ 0.635964 0.257824 0.43657 -0.58347
O_ O_ 0.640177 0.259469 0.390368 -0.58347
O_ O_ 0.652 0.108861 0.425888 -0.58347
O_ O_ 0.634605 0.10949 0.380771 -0.58347
O_ O_ 0.569078 0.179914 0.429865 -0.58347
O_ O_ 0.563307 0.187129 0.383642 -0.58347
O_ O_ 0.556182 0.197378 0.0777137 -0.46727
O_ O_ 0.729231 0.166784 0.0846339 -0.46727
O_ O_ 0.538774 0.219726 0.224878 -0.46727
O_ O_ 0.701457 0.1489 0.233957 -0.46727
O_ O_ 0.781954 0.305408 0.178803 -0.58347
O_ O_ 0.792372 0.320903 0.133078 -0.58347
O_ O_ 0.869882 0.241429 0.183149 -0.58347
O_ O_ 0.863624 0.234651 0.137075 -0.58347
O_ O_ 0.851529 0.392016 0.170265 -0.58347
O_ O_ 0.877906 0.384468 0.12592 -0.58347
O_ O_ 0.93202 0.327889 0.172277 -0.58347
O_ O_ 0.945367 0.298339 0.129316 -0.58347
O_ O_ 0.951131 0.294525 0.32409 -0.46727
O_ O_ 0.777639 0.307507 0.33499 -0.46727
O_ O_ 0.979334 0.295899 0.474344 -0.46727
O_ O_ 0.81414 0.344432 0.483149 -0.46727
Zn Zn 0.622336 0.188197 0.880884 0.90689
Zn Zn 0.63584 0.188064 0.929362 0.90689
Zn Zn 0.88466 0.31067 0.631538 0.90689
Zn Zn 0.875831 0.318206 0.679087 0.90689
H_ H_ 0.809134 0.199544 0.943347 0.11455
H_ H_ 0.871804 0.167558 0.843789 0.11455
H_ H_ 0.781197 0.17902 0.8526 0.11455
H_ H_ 0.887393 0.186679 0.962185 0.11455
H_ H_ 0.980549 0.195583 0.954528 0.11455
H_ H_ 0.958924 0.156986 0.866145 0.11455
H_ H_ 0.629577 0.0198862 0.943645 0.11455
H_ H_ 0.639304 0.442725 0.846959 0.11455
H_ H_ 0.609559 0.0334365 0.853021 0.11455
H_ H_ 0.620193 0.42728 0.964731 0.11455
H_ H_ 0.620379 0.338505 0.958898 0.11455
H_ H_ 0.618673 0.352485 0.866135 0.11455
H_ H_ 0.57677 0.116544 0.961851 0.11455
H_ H_ 0.574077 0.0820514 0.514508 0.11455
H_ H_ 0.619884 0.12761 0.555515 0.11455
H_ H_ 0.672061 0.261624 0.975266 0.11455
H_ H_ 0.729235 0.300359 0.509039 0.11455
H_ H_ 0.706596 0.288399 0.560017 0.11455
H_ H_ 0.517741 0.208191 0.619074 0.11455
H_ H_ 0.503823 0.205163 0.671409 0.11455
H_ H_ 0.772564 0.185732 0.638392 0.11455
H_ H_ 0.756953 0.17944 0.691527 0.11455
H_ H_ 0.586921 0.0835167 0.747298 0.11455
H_ H_ 0.565728 0.0664525 0.797484 0.11455
H_ H_ 0.57671 0.120649 0.836237 0.11455
H_ H_ 0.667007 0.255125 0.757381 0.11455
H_ H_ 0.689977 0.30021 0.799606 0.11455
H_ H_ 0.666337 0.270334 0.850236 0.11455
H_ H_ 0.710781 0.32235 0.697262 0.11455
H_ H_ 0.636683 0.334274 0.600839 0.11455
H_ H_ 0.728261 0.316485 0.607594 0.11455
H_ H_ 0.626068 0.321443 0.715534 0.11455
H_ H_ 0.534634 0.31124 0.710075 0.11455
H_ H_ 0.55043 0.344555 0.618985 0.11455
H_ H_ 0.905879 0.48186 0.690858 0.11455
H_ H_ 0.889494 0.0598571 0.597926 0.11455
H_ H_ 0.88097 0.469282 0.60064 0.11455
H_ H_ 0.858431 0.0643505 0.715569 0.11455
H_ H_ 0.868168 0.15808 0.710237 0.11455
H_ H_ 0.886007 0.14484 0.621456 0.11455
H_ H_ 0.932599 0.383632 0.717538 0.11455
H_ H_ 0.93814 0.421121 0.767007 0.11455
H_ H_ 0.87754 0.390514 0.80303 0.11455
H_ H_ 0.817764 0.251367 0.721955 0.11455
H_ H_ 0.771981 0.206328 0.760193 0.11455
H_ H_ 0.792351 0.229933 0.810233 0.11455
H_ H_ 0.975027 0.291571 0.87326 0.11455
H_ H_ -0.015144999999999964 0.293643 0.924448 0.11455
H_ H_ 0.724487 0.336336 0.88694 0.11455
H_ H_ 0.738276 0.36109 0.937079 0.11455
H_ H_ 0.911355 0.418167 0.999844 0.11455
H_ H_ 0.985379 0.411742 0.549132 0.11455
H_ H_ 0.942301 0.360917 0.588317 0.11455
H_ H_ 0.840303 0.25437 0.503997 0.11455
H_ H_ 0.807466 0.207536 0.545473 0.11455
H_ H_ 0.818964 0.239735 0.593146 0.11455
C_ C_ 0.730035 0.190284 0.90418 0.68181
C_ C_ 0.78857 0.184843 0.898315 -0.05681
C_ C_ 0.822234 0.187083 0.92187 -0.08735
C_ C_ 0.872743 0.178926 0.917587 -0.05681
C_ C_ 0.891771 0.169749 0.889685 -0.05681
C_ C_ 0.858754 0.170969 0.866206 -0.08735
C_ C_ 0.80775 0.181411 0.870255 -0.08735
C_ C_ 0.903676 0.183197 0.941324 -0.08735
C_ C_ 0.955844 0.181021 0.937463 -0.08735
C_ C_ 0.976929 0.17596 0.910007 -0.05681
C_ C_ 0.945893 0.168498 0.886744 -0.08735
C_ C_ 0.624119 0.285934 0.909867 0.68181
C_ C_ 0.637135 0.090171 0.898502 0.68181
C_ C_ 0.623703 0.0340461 0.897806 -0.05681
C_ C_ 0.620217 0.498057 0.9217 -0.08735
C_ C_ 0.622917 0.445009 0.918341 -0.05681
C_ C_ 0.620139 0.424724 0.891014 -0.05681
C_ C_ 0.631597 0.45669 0.867579 -0.08735
C_ C_ 0.639099 0.509593 0.870872 -0.08735
C_ C_ 0.621253 0.412731 0.94313 -0.08735
C_ C_ 0.615577 0.361708 0.939217 -0.08735
C_ C_ 0.620951 0.340461 0.911714 -0.05681
C_ C_ 0.62155 0.369763 0.886736 -0.08735
C_ C_ 0.531064 0.182532 0.906534 0.68181
C_ C_ 0.593264 0.132501 0.980022 0.1947
C_ C_ 0.598928 0.114319 0.511464 -0.08735
C_ C_ 0.621988 0.140355 0.5338 -0.08735
C_ C_ 0.649235 0.184901 0.528978 -0.05681
C_ C_ 0.661686 0.19737 0.5001 0.18498
C_ C_ 0.673954 0.240232 0.995041 -0.08735
C_ C_ 0.709867 0.264933 0.516477 -0.08735
C_ C_ 0.69719 0.257207 0.544879 -0.08735
C_ C_ 0.668975 0.215816 0.551413 0.18498
C_ C_ 0.696311 0.188378 0.597984 0.44287
C_ C_ 0.610114 0.20582 0.592286 0.44287
C_ C_ 0.600296 0.199432 0.622396 -0.05681
C_ C_ 0.55003 0.204355 0.633684 -0.08735
C_ C_ 0.541633 0.199179 0.662619 -0.08735
C_ C_ 0.584161 0.195774 0.681511 -0.05681
C_ C_ 0.633787 0.18793 0.670174 -0.05681
C_ C_ 0.641596 0.189469 0.64019 -0.05681
C_ C_ 0.692336 0.189149 0.628423 -0.05681
C_ C_ 0.732912 0.180379 0.645553 -0.08735
C_ C_ 0.724686 0.178421 0.676422 -0.08735
C_ C_ 0.67491 0.178042 0.687754 -0.05681
C_ C_ 0.666484 0.169234 0.716043 0.44287
C_ C_ 0.578055 0.186553 0.71095 0.44287
C_ C_ 0.612843 0.162267 0.75725 0.18498
C_ C_ 0.587935 0.116842 0.763404 -0.08735
C_ C_ 0.571351 0.10652 0.791252 -0.08735
C_ C_ 0.582864 0.136145 0.814368 -0.08735
C_ C_ 0.608011 0.182157 0.810161 0.18498
C_ C_ 0.621973 0.196756 0.780953 -0.05681
C_ C_ 0.655254 0.239054 0.778088 -0.08735
C_ C_ 0.666779 0.267547 0.802281 -0.08735
C_ C_ 0.65403 0.250806 0.830745 0.1947
C_ C_ 0.781222 0.314464 0.655535 0.68181
C_ C_ 0.725284 0.318661 0.651995 -0.05681
C_ C_ 0.693478 0.326776 0.675475 -0.08735
C_ C_ 0.641535 0.328894 0.671493 -0.05681
C_ C_ 0.618726 0.329973 0.644025 -0.05681
C_ C_ 0.652095 0.33006 0.621208 -0.08735
C_ C_ 0.704645 0.326959 0.62436 -0.08735
C_ C_ 0.609551 0.326359 0.694411 -0.08735
C_ C_ 0.55653 0.325301 0.692712 -0.08735
C_ C_ 0.534836 0.32812 0.664196 -0.05681
C_ C_ 0.566647 0.334867 0.640354 -0.08735
C_ C_ 0.876678 0.21362 0.662084 0.68181
C_ C_ 0.882793 0.413374 0.648915 0.68181
C_ C_ 0.884982 0.471292 0.64696 -0.05681
C_ C_ 0.860113 -0.0007819999999999494 0.670215 -0.08735
C_ C_ 0.863086 0.0522399 0.66884 -0.05681
C_ C_ 0.868552 0.0757901 0.641602 -0.05681
C_ C_ 0.874367 0.0444574 0.617365 -0.08735
C_ C_ 0.883221 0.492412 0.619673 -0.08735
C_ C_ 0.861764 0.0817381 0.693811 -0.08735
C_ C_ 0.865855 0.135059 0.690912 -0.08735
C_ C_ 0.867926 0.157385 0.664052 -0.05681
C_ C_ 0.873592 0.127881 0.639643 -0.08735
C_ C_ 0.980684 0.322708 0.657999 0.68181
C_ C_ 0.912622 0.367823 0.734521 0.1947
C_ C_ 0.916543 0.385973 0.76353 -0.08735
C_ C_ 0.884623 0.36653 0.784499 -0.08735
C_ C_ 0.855272 0.321949 0.778707 -0.05681
C_ C_ 0.849312 0.308364 0.749245 0.18498
C_ C_ 0.82137 0.264779 0.743873 -0.08735
C_ C_ 0.796124 0.238714 0.765894 -0.08735
C_ C_ 0.79958 0.255187 0.793453 -0.08735
C_ C_ 0.831324 0.294757 0.800267 0.18498
C_ C_ 0.799689 0.319731 0.84683 0.44287
C_ C_ 0.883289 0.288379 0.843044 0.44287
C_ C_ 0.89265 0.296213 0.872659 -0.05681
C_ C_ 0.94148 0.295299 0.885557 -0.08735
C_ C_ 0.946737 0.297957 0.915231 -0.08735
C_ C_ 0.904868 0.311573 0.931811 -0.05681
C_ C_ 0.857962 0.320091 0.919635 -0.05681
C_ C_ 0.851053 0.314168 0.889547 -0.05681
C_ C_ 0.804298 0.325647 0.876593 -0.05681
C_ C_ 0.763497 0.339548 0.894426 -0.08735
C_ C_ 0.770355 0.347163 0.924501 -0.08735
C_ C_ 0.816996 0.339529 0.936868 -0.05681
C_ C_ 0.826427 0.342249 0.965979 0.44287
C_ C_ 0.911746 0.316375 0.961812 0.44287
C_ C_ 0.907449 0.333034 0.50954 0.18498
C_ C_ 0.94566 0.369406 0.516712 -0.08735
C_ C_ 0.960833 0.376368 0.544839 -0.08735
C_ C_ 0.935128 0.350706 0.56653 -0.08735
C_ C_ 0.894232 0.319122 0.560712 0.18498
C_ C_ 0.880725 0.309007 0.531245 -0.05681
C_ C_ 0.850555 0.267657 0.525557 -0.08735
C_ C_ 0.831872 0.239271 0.548877 -0.08735
C_ C_ 0.841523 0.254759 0.576968 0.1947
N_ N_ 0.630759 0.167704 0.975966 -0.29468
N_ N_ 0.657848 0.204729 0.580916 -0.17154
N_ N_ 0.619517 0.176599 0.727578 -0.17154
N_ N_ 0.621387 0.211048 0.834032 -0.29468
N_ N_ 0.87991 0.330016 0.72826 -0.29468
N_ N_ 0.839572 0.305023 0.830635 -0.17154
N_ N_ 0.871403 0.330114 0.977976 -0.17154
N_ N_ 0.872521 0.29364 0.582656 -0.29468
O_ O_ 0.712445 0.191077 0.929695 -0.58347
O_ O_ 0.701314 0.196031 0.881757 -0.58347
O_ O_ 0.638346 0.25983 0.930634 -0.58347
O_ O_ 0.607956 0.262465 0.887816 -0.58347
O_ O_ 0.639206 0.113751 0.922813 -0.58347
O_ O_ 0.634335 0.115317 0.875857 -0.58347
O_ O_ 0.55835 0.184029 0.928252 -0.58347
O_ O_ 0.549383 0.179699 0.881291 -0.58347
O_ O_ 0.571895 0.219368 0.576233 -0.46727
O_ O_ 0.73995 0.182275 0.586795 -0.46727
O_ O_ 0.534218 0.194135 0.722099 -0.46727
O_ O_ 0.705771 0.156902 0.73263 -0.46727
O_ O_ 0.803272 0.323296 0.679242 -0.58347
O_ O_ 0.807566 0.304817 0.633001 -0.58347
O_ O_ 0.871325 0.241536 0.683593 -0.58347
O_ O_ 0.883624 0.233976 0.636956 -0.58347
O_ O_ 0.878791 0.393089 0.673752 -0.58347
O_ O_ 0.878007 0.386602 0.626404 -0.58347
O_ O_ 0.95195 0.315043 0.679091 -0.58347
O_ O_ 0.96154 0.315151 0.632911 -0.58347
O_ O_ 0.92049 0.274097 0.826594 -0.46727
O_ O_ 0.757761 0.334557 0.834623 -0.46727
O_ O_ 0.955507 0.306961 0.972152 -0.46727
O_ O_ 0.785266 0.347953 0.982388 -0.46727
Zn Zn 0.622846 0.689447 0.380065 0.90689
Zn Zn 0.637288 0.680211 0.428829 0.90689
Zn Zn 0.863894 0.808356 0.132475 0.90689
Zn Zn 0.854988 0.814261 0.179239 0.90689
H_ H_ 0.804338 0.686951 0.44244 0.11455
H_ H_ 0.874965 0.672328 0.346563 0.11455
H_ H_ 0.78366 0.688905 0.354089 0.11455
H_ H_ 0.88748 0.706744 0.460445 0.11455
H_ H_ 0.979761 0.697581 0.455859 0.11455
H_ H_ 0.95562 0.661124 0.365363 0.11455
H_ H_ 0.676479 0.517973 0.435044 0.11455
H_ H_ 0.653122 0.934823 0.348153 0.11455
H_ H_ 0.610257 0.527026 0.351643 0.11455
H_ H_ 0.616188 0.929017 0.465383 0.11455
H_ H_ 0.606757 0.838964 0.457599 0.11455
H_ H_ 0.627194 0.853464 0.367684 0.11455
H_ H_ 0.593559 0.60674 0.4625 0.11455
H_ H_ 0.551818 0.587054 0.01516 0.11455
H_ H_ 0.593551 0.631858 0.0570698 0.11455
H_ H_ 0.66511 0.762828 0.47457 0.11455
H_ H_ 0.714256 0.804982 0.0148585 0.11455
H_ H_ 0.690459 0.776565 0.0662448 0.11455
H_ H_ 0.501063 0.705833 0.127372 0.11455
H_ H_ 0.497313 0.684982 0.17889 0.11455
H_ H_ 0.755478 0.67532 0.132135 0.11455
H_ H_ 0.748877 0.649562 0.18217 0.11455
H_ H_ 0.572294 0.576676 0.251568 0.11455
H_ H_ 0.546875 0.557456 0.301727 0.11455
H_ H_ 0.567885 0.625745 0.338269 0.11455
H_ H_ 0.651406 0.738065 0.252968 0.11455
H_ H_ 0.677411 0.796179 0.294216 0.11455
H_ H_ 0.670286 0.769117 0.342977 0.11455
H_ H_ 0.684354 0.800531 0.199617 0.11455
H_ H_ 0.61656 0.846357 0.103692 0.11455
H_ H_ 0.70841 0.828906 0.109877 0.11455
H_ H_ 0.594149 0.794373 0.218382 0.11455
H_ H_ 0.5015 0.788081 0.207934 0.11455
H_ H_ 0.529482 0.847475 0.123146 0.11455
H_ H_ 0.853063 0.978551 0.195363 0.11455
H_ H_ 0.892308 0.562573 0.094008 0.11455
H_ H_ 0.852166 0.970585 0.102204 0.11455
H_ H_ 0.857156 0.567727 0.213229 0.11455
H_ H_ 0.850249 0.65626 0.205263 0.11455
H_ H_ 0.910914 0.645223 0.121819 0.11455
H_ H_ 0.9182 0.892687 0.211844 0.11455
H_ H_ 0.930026 0.9292 0.261447 0.11455
H_ H_ 0.902436 0.876711 0.302786 0.11455
H_ H_ 0.803706 0.757525 0.22237 0.11455
H_ H_ 0.792783 0.696486 0.26081 0.11455
H_ H_ 0.803691 0.722574 0.310607 0.11455
H_ H_ 0.990003 0.796451 0.369805 0.11455
H_ H_ 0.00048000000000003595 0.796082 0.420737 0.11455
H_ H_ 0.737948 0.819754 0.388301 0.11455
H_ H_ 0.748293 0.831311 0.4399 0.11455
H_ H_ 0.933824 0.910298 0.500011 0.11455
H_ H_ 0.965769 0.921915 0.0503662 0.11455
H_ H_ 0.913563 0.882258 0.0893017 0.11455
H_ H_ 0.83208 0.762373 0.00501024 0.11455
H_ H_ 0.799245 0.710811 0.0432883 0.11455
H_ H_ 0.808415 0.740736 0.0933594 0.11455
C_ C_ 0.729776 0.690963 0.402576 0.68181
C_ C_ 0.785219 0.685037 0.399024 -0.05681
C_ C_ 0.818142 0.686946 0.422294 -0.08735
C_ C_ 0.870807 0.686254 0.417774 -0.05681
C_ C_ 0.8907 0.677168 0.390246 -0.05681
C_ C_ 0.859019 0.677643 0.367755 -0.08735
C_ C_ 0.806254 0.681193 0.371469 -0.08735
C_ C_ 0.903249 0.696413 0.440328 -0.08735
C_ C_ 0.955769 0.687893 0.436357 -0.08735
C_ C_ 0.976965 0.671 0.409916 -0.05681
C_ C_ 0.943803 0.671576 0.385953 -0.08735
C_ C_ 0.617029 0.782824 0.409877 0.68181
C_ C_ 0.63891 0.588861 0.397282 0.68181
C_ C_ 0.642259 0.531949 0.39513 -0.05681
C_ C_ 0.627105 0.996076 0.422559 -0.08735
C_ C_ 0.628343 0.943722 0.420016 -0.05681
C_ C_ 0.640481 0.922253 0.393584 -0.05681
C_ C_ 0.652186 0.952852 0.368919 -0.08735
C_ C_ 0.658985 1.00603082 0.373049 -0.08735
C_ C_ 0.62451 0.913001 0.443999 -0.08735
C_ C_ 0.619792 0.860524 0.440308 -0.08735
C_ C_ 0.625509 0.836581 0.413205 -0.05681
C_ C_ 0.63793 0.867979 0.388693 -0.08735
C_ C_ 0.531925 0.673625 0.405513 0.68181
C_ C_ 0.61585 0.622482 0.478609 0.1947
C_ C_ 0.577867 0.619091 0.0124043 -0.08735
C_ C_ 0.601181 0.643032 0.0351927 -0.08735
C_ C_ 0.626772 0.686966 0.0295556 -0.05681
C_ C_ 0.640825 0.700016 1.00176091 0.18498
C_ C_ 0.673378 0.746709 0.494506 -0.08735
C_ C_ 0.686207 0.773022 0.020055 -0.08735
C_ C_ 0.673205 0.760685 0.0481481 -0.08735
C_ C_ 0.643235 0.717999 0.0530659 0.18498
C_ C_ 0.677563 0.690496 0.097509 0.44287
C_ C_ 0.5885 0.700357 0.0951486 0.44287
C_ C_ 0.581831 0.685781 0.123549 -0.05681
C_ C_ 0.534129 0.689172 0.137587 -0.08735
C_ C_ 0.531725 0.681528 0.16719 -0.08735
C_ C_ 0.575895 0.672805 0.183377 -0.05681
C_ C_ 0.6227 0.666714 0.169551 -0.05681
C_ C_ 0.625361 0.675044 0.139177 -0.05681
C_ C_ 0.674466 0.677994 0.126527 -0.05681
C_ C_ 0.71875 0.66974 0.142748 -0.08735
C_ C_ 0.714546 0.659257 0.171678 -0.08735
C_ C_ 0.66793 0.655123 0.185563 -0.05681
C_ C_ 0.664334 0.647136 0.21529 0.44287
C_ C_ 0.574348 0.666009 0.212706 0.44287
C_ C_ 0.611037 0.644799 0.259886 0.18498
C_ C_ 0.58412 0.602162 0.268035 -0.08735
C_ C_ 0.571511 0.590233 0.296172 -0.08735
C_ C_ 0.585705 0.62458 0.317957 -0.08735
C_ C_ 0.617947 0.666252 0.311346 0.18498
C_ C_ 0.62858 0.680042 0.282464 -0.05681
C_ C_ 0.650145 0.726434 0.275599 -0.08735
C_ C_ 0.659049 0.760407 0.298233 -0.08735
C_ C_ 0.654593 0.745091 0.326123 0.1947
C_ C_ 0.757996 0.802469 0.158586 0.68181
C_ C_ 0.702893 0.812793 0.156233 -0.05681
C_ C_ 0.669764 0.807262 0.179412 -0.08735
C_ C_ 0.616105 0.81229 0.175894 -0.05681
C_ C_ 0.597929 0.830056 0.149236 -0.05681
C_ C_ 0.63043 0.834542 0.125485 -0.08735
C_ C_ 0.68264 0.825549 0.129304 -0.08735
C_ C_ 0.580285 0.805495 0.197924 -0.08735
C_ C_ 0.527408 0.804993 0.192174 -0.08735
C_ C_ 0.511122 0.819672 0.165511 -0.05681
C_ C_ 0.545743 0.837668 0.144618 -0.08735
C_ C_ 0.876949 0.714717 0.160484 0.68181
C_ C_ 0.852851 0.913448 0.150789 0.68181
C_ C_ 0.852278 0.970315 0.149068 -0.05681
C_ C_ 0.866196 0.497679 0.169611 -0.08735
C_ C_ 0.873851 0.550175 0.167741 -0.05681
C_ C_ 0.881766 0.574208 0.140592 -0.05681
C_ C_ 0.889417 0.544436 0.115903 -0.08735
C_ C_ 0.852134 0.993771 0.121937 -0.08735
C_ C_ 0.86513 0.581585 0.191598 -0.08735
C_ C_ 0.863826 0.633861 0.18806 -0.08735
C_ C_ 0.87819 0.658347 0.162003 -0.05681
C_ C_ 0.890316 0.627724 0.13876 -0.08735
C_ C_ 0.956265 0.817473 0.154162 0.68181
C_ C_ 0.899349 0.876422 0.229995 0.1947
C_ C_ 0.908232 0.895309 0.257693 -0.08735
C_ C_ 0.891012 0.86644 0.28181 -0.08735
C_ C_ 0.861608 0.822138 0.277345 -0.05681
C_ C_ 0.848302 0.809703 0.248014 0.18498
C_ C_ 0.820844 0.76542 0.243462 -0.08735
C_ C_ 0.809147 0.732949 0.266441 -0.08735
C_ C_ 0.822634 0.745133 0.29428 -0.08735
C_ C_ 0.846223 0.790631 0.300046 0.18498
C_ C_ 0.811462 0.811013 0.348147 0.44287
C_ C_ 0.901633 0.804477 0.341556 0.44287
C_ C_ 0.907771 0.809782 0.371355 -0.05681
C_ C_ 0.956781 0.804446 0.383266 -0.08735
C_ C_ 0.963053 0.807493 0.412941 -0.08735
C_ C_ 0.922789 0.820982 0.431979 -0.05681
C_ C_ 0.872295 0.826037 0.42001 -0.05681
C_ C_ 0.865747 0.822936 0.389604 -0.05681
C_ C_ 0.817574 0.821702 0.378867 -0.05681
C_ C_ 0.775679 0.826972 0.397258 -0.08735
C_ C_ 0.781944 0.828606 0.426634 -0.08735
C_ C_ 0.831428 0.829851 0.438341 -0.05681
C_ C_ 0.839466 0.830226 0.468652 0.44287
C_ C_ 0.927419 0.823233 0.461779 0.44287
C_ C_ 0.886713 0.850928 0.0104237 0.18498
C_ C_ 0.919274 0.890186 0.0186177 -0.08735
C_ C_ 0.931387 0.900295 0.0471652 -0.08735
C_ C_ 0.912913 0.869963 0.0682177 -0.08735
C_ C_ 0.879369 0.829174 0.0618336 0.18498
C_ C_ 0.869194 0.818288 0.0326053 -0.05681
C_ C_ 0.840068 0.774506 0.0270862 -0.08735
C_ C_ 0.82549 0.741258 0.0489373 -0.08735
C_ C_ 0.830522 0.759259 0.0769759 0.1947
N_ N_ 0.63802 0.669257 0.475795 -0.29468
N_ N_ 0.634682 0.699189 0.0821519 -0.17154
N_ N_ 0.617276 0.653178 0.22899 -0.17154
N_ N_ 0.633162 0.698759 0.332525 -0.29468
N_ N_ 0.869335 0.834552 0.225252 -0.29468
N_ N_ 0.852478 0.803773 0.330097 -0.17154
N_ N_ 0.887569 0.830084 0.479803 -0.17154
N_ N_ 0.858022 0.801517 0.083133 -0.29468
O_ O_ 0.711595 0.690927 0.427771 -0.58347
O_ O_ 0.699531 0.692974 0.381279 -0.58347
O_ O_ 0.624567 0.754397 0.430826 -0.58347
O_ O_ 0.617378 0.76489 0.384373 -0.58347
O_ O_ 0.648772 0.60785 0.421398 -0.58347
O_ O_ 0.634495 0.616507 0.3757 -0.58347
O_ O_ 0.56144 0.667877 0.426893 -0.58347
O_ O_ 0.550579 0.680347 0.380368 -0.58347
O_ O_ 0.552273 0.720392 0.080094 -0.46727
O_ O_ 0.719852 0.683977 0.0834767 -0.46727
O_ O_ 0.527603 0.661733 0.225291 -0.46727
O_ O_ 0.706149 0.643814 0.230196 -0.46727
O_ O_ 0.777676 0.810342 0.182827 -0.58347
O_ O_ 0.785446 0.808968 0.135691 -0.58347
O_ O_ 0.873892 0.741065 0.183047 -0.58347
O_ O_ 0.868599 0.733633 0.137103 -0.58347
O_ O_ 0.848075 0.890673 0.174822 -0.58347
O_ O_ 0.859925 0.886656 0.128804 -0.58347
O_ O_ 0.928311 0.826431 0.175151 -0.58347
O_ O_ 0.93908 0.804629 0.130477 -0.58347
O_ O_ 0.940814 0.786173 0.326714 -0.46727
O_ O_ 0.765377 0.808165 0.337304 -0.46727
O_ O_ 0.972766 0.812929 0.473061 -0.46727
O_ O_ 0.798182 0.834751 0.485149 -0.46727
Zn Zn 0.619087 0.691528 0.883429 0.90689
Zn Zn 0.633679 0.682245 0.931059 0.90689
Zn Zn 0.878861 0.809985 0.632175 0.90689
Zn Zn 0.870891 0.816156 0.680426 0.90689
H_ H_ 0.80005 0.67765 0.948848 0.11455
H_ H_ 0.86542 0.672643 0.849044 0.11455
H_ H_ 0.774432 0.670715 0.855784 0.11455
H_ H_ 0.886391 0.680763 0.964666 0.11455
H_ H_ 0.976446 0.676328 0.95562 0.11455
H_ H_ 0.953795 0.681757 0.865194 0.11455
H_ H_ 0.614931 0.514697 0.942354 0.11455
H_ H_ 0.581453 0.940836 0.852045 0.11455
H_ H_ 0.637468 0.534214 0.851378 0.11455
H_ H_ 0.645209 0.936874 0.963803 0.11455
H_ H_ 0.635794 0.843807 0.959677 0.11455
H_ H_ 0.585389 0.859225 0.872575 0.11455
H_ H_ 0.569762 0.615795 0.965491 0.11455
H_ H_ 0.592814 0.562479 0.505679 0.11455
H_ H_ 0.62738 0.606934 0.551232 0.11455
H_ H_ 0.681798 0.754559 0.975371 0.11455
H_ H_ 0.706352 0.812638 0.513131 0.11455
H_ H_ 0.688785 0.781084 0.562718 0.11455
H_ H_ 0.518172 0.697165 0.620935 0.11455
H_ H_ 0.506668 0.693453 0.673006 0.11455
H_ H_ 0.771997 0.65949 0.640357 0.11455
H_ H_ 0.760172 0.663006 0.690679 0.11455
H_ H_ 0.575282 0.582133 0.749498 0.11455
H_ H_ 0.553415 0.562006 0.795346 0.11455
H_ H_ 0.565159 0.621463 0.835945 0.11455
H_ H_ 0.657423 0.748284 0.756959 0.11455
H_ H_ 0.679306 0.804765 0.800037 0.11455
H_ H_ 0.667275 0.767696 0.847424 0.11455
H_ H_ 0.701485 0.817686 0.698109 0.11455
H_ H_ 0.627674 0.817868 0.600276 0.11455
H_ H_ 0.721749 0.821368 0.604902 0.11455
H_ H_ 0.614261 0.825966 0.717636 0.11455
H_ H_ 0.524907 0.817833 0.709433 0.11455
H_ H_ 0.545852 0.824819 0.618869 0.11455
H_ H_ 0.852734 0.982724 0.690904 0.11455
H_ H_ 0.892959 0.563894 0.597487 0.11455
H_ H_ 0.892557 0.966319 0.60383 0.11455
H_ H_ 0.895284 0.566978 0.715739 0.11455
H_ H_ 0.897374 0.656832 0.71124 0.11455
H_ H_ 0.895562 0.644189 0.620312 0.11455
H_ H_ 0.917616 0.89477 0.713811 0.11455
H_ H_ 0.939057 0.920655 0.763851 0.11455
H_ H_ 0.89816 0.881779 0.802815 0.11455
H_ H_ 0.810303 0.753133 0.724182 0.11455
H_ H_ 0.777044 0.706399 0.763682 0.11455
H_ H_ 0.801191 0.727561 0.813575 0.11455
H_ H_ 0.983553 0.802025 0.872106 0.11455
H_ H_ 0.994426 0.799482 0.92357 0.11455
H_ H_ 0.736667 0.851348 0.886046 0.11455
H_ H_ 0.741562 0.841085 0.938699 0.11455
H_ H_ 0.941633 0.909472 1.00196 0.11455
H_ H_ 0.979431 0.915711 0.54757 0.11455
H_ H_ 0.953089 0.859325 0.587012 0.11455
H_ H_ 0.83298 0.756479 0.50761 0.11455
H_ H_ 0.812285 0.702076 0.550073 0.11455
H_ H_ 0.826981 0.737572 0.599427 0.11455
C_ C_ 0.724222 0.684478 0.908576 0.68181
C_ C_ 0.779972 0.678854 0.902834 -0.05681
C_ C_ 0.813466 0.675756 0.926117 -0.08735
C_ C_ 0.867548 0.679903 0.920652 -0.05681
C_ C_ 0.885225 0.681663 0.891878 -0.05681
C_ C_ 0.851047 0.679897 0.869246 -0.08735
C_ C_ 0.799576 0.676854 0.873482 -0.08735
C_ C_ 0.901684 0.679195 0.943226 -0.08735
C_ C_ 0.953065 0.679071 0.938253 -0.08735
C_ C_ 0.97255 0.677634 0.910625 -0.05681
C_ C_ 0.938559 0.680925 0.887021 -0.08735
C_ C_ 0.614524 0.785015 0.912312 0.68181
C_ C_ 0.633508 0.587163 0.902455 0.68181
C_ C_ 0.630269 0.530777 0.898242 -0.05681
C_ C_ 0.62433 0.00437317 0.923446 -0.08735
C_ C_ 0.616007 0.952141 0.92043 -0.05681
C_ C_ 0.600562 0.92893 0.894295 -0.05681
C_ C_ 0.596384 0.957876 0.870312 -0.08735
C_ C_ 0.609036 0.0105285 0.872022 -0.08735
C_ C_ 0.626197 0.920066 0.944015 -0.08735
C_ C_ 0.621836 0.867538 0.94213 -0.08735
C_ C_ 0.612002 0.843334 0.915748 -0.05681
C_ C_ 0.595159 0.876246 0.893721 -0.08735
C_ C_ 0.528739 0.68168 0.905899 0.68181
C_ C_ 0.590137 0.63312 0.984366 0.1947
C_ C_ 0.613994 0.598563 0.505443 -0.08735
C_ C_ 0.632028 0.626097 0.53021 -0.08735
C_ C_ 0.654013 0.674247 0.527539 -0.05681
C_ C_ 0.659808 0.6941 0.498234 0.18498
C_ C_ 0.671992 0.742461 0.997694 -0.08735
C_ C_ 0.690792 0.774573 0.517337 -0.08735
C_ C_ 0.684682 0.756653 0.545726 -0.08735
C_ C_ 0.665662 0.706828 0.551506 0.18498
C_ C_ 0.697557 0.678653 0.598621 0.44287
C_ C_ 0.607558 0.692085 0.592133 0.44287
C_ C_ 0.599351 0.684617 0.622458 -0.05681
C_ C_ 0.552228 0.693097 0.633722 -0.08735
C_ C_ 0.544658 0.689912 0.663386 -0.08735
C_ C_ 0.587043 0.684601 0.682611 -0.05681
C_ C_ 0.634416 0.677704 0.670148 -0.05681
C_ C_ 0.643016 0.67991 0.640434 -0.05681
C_ C_ 0.691912 0.670869 0.628693 -0.05681
C_ C_ 0.735434 0.669269 0.647671 -0.08735
C_ C_ 0.726904 0.670019 0.67728 -0.08735
C_ C_ 0.676664 0.668498 0.688417 -0.05681
C_ C_ 0.665752 0.659418 0.718823 0.44287
C_ C_ 0.581839 0.685812 0.712809 0.44287
C_ C_ 0.610816 0.656885 0.760322 0.18498
C_ C_ 0.586348 0.608295 0.766137 -0.08735
C_ C_ 0.578837 0.593631 0.793769 -0.08735
C_ C_ 0.588765 0.627805 0.817388 -0.08735
C_ C_ 0.612654 0.673922 0.812389 0.18498
C_ C_ 0.625666 0.687322 0.784205 -0.05681
C_ C_ 0.653953 0.734346 0.779612 -0.08735
C_ C_ 0.662671 0.766173 0.802983 -0.08735
C_ C_ 0.654846 0.747225 0.830291 0.1947
C_ C_ 0.775108 0.806971 0.655416 0.68181
C_ C_ 0.719366 0.810188 0.651813 -0.05681
C_ C_ 0.68638 0.819439 0.676577 -0.08735
C_ C_ 0.634036 0.818877 0.672209 -0.05681
C_ C_ 0.614583 0.817506 0.644332 -0.05681
C_ C_ 0.645743 0.814324 0.620918 -0.08735
C_ C_ 0.698654 0.817349 0.624277 -0.08735
C_ C_ 0.60199 0.824507 0.69568 -0.08735
C_ C_ 0.550361 0.823947 0.691275 -0.08735
C_ C_ 0.529776 0.823244 0.663517 -0.05681
C_ C_ 0.560982 0.822561 0.639805 -0.08735
C_ C_ 0.885714 0.715755 0.663863 0.68181
C_ C_ 0.870713 0.912782 0.64867 0.68181
C_ C_ 0.869444 0.969264 0.647175 -0.05681
C_ C_ 0.890794 0.50075 0.672058 -0.08735
C_ C_ 0.891611 0.55358 0.669079 -0.05681
C_ C_ 0.884386 0.576588 0.642499 -0.05681
C_ C_ 0.883695 0.543904 0.617002 -0.08735
C_ C_ 0.878864 0.992006 0.620044 -0.08735
C_ C_ 0.896193 0.582184 0.69394 -0.08735
C_ C_ 0.897165 0.635643 0.691869 -0.08735
C_ C_ 0.890233 0.658785 0.665477 -0.05681
C_ C_ 0.889154 0.628267 0.640864 -0.08735
C_ C_ 0.973669 0.820101 0.657258 0.68181
C_ C_ 0.904081 0.873521 0.733439 0.1947
C_ C_ 0.910535 0.891944 0.760157 -0.08735
C_ C_ 0.888391 0.867885 0.783184 -0.08735
C_ C_ 0.863655 0.823193 0.779101 -0.05681
C_ C_ 0.856909 0.805558 0.75053 0.18498
C_ C_ 0.827471 0.760793 0.745952 -0.08735
C_ C_ 0.80314 0.735414 0.768561 -0.08735
C_ C_ 0.8125 0.751632 0.796406 -0.08735
C_ C_ 0.841801 0.794843 0.802885 0.18498
C_ C_ 0.80905 0.825074 0.848168 0.44287
C_ C_ 0.893988 0.797217 0.844256 0.44287
C_ C_ 0.90187 0.801022 0.874128 -0.05681
C_ C_ 0.95157 0.801049 0.885701 -0.08735
C_ C_ 0.957488 0.806048 0.915637 -0.08735
C_ C_ 0.914591 0.811376 0.934017 -0.05681
C_ C_ 0.865766 0.815598 0.922145 -0.05681
C_ C_ 0.859662 0.811655 0.892408 -0.05681
C_ C_ 0.811784 0.820876 0.879346 -0.05681
C_ C_ 0.772276 0.835439 0.89671 -0.08735
C_ C_ 0.776032 0.834625 0.926209 -0.08735
C_ C_ 0.823811 0.826647 0.938874 -0.05681
C_ C_ 0.83123 0.837335 0.968829 0.44287
C_ C_ 0.9191 0.823972 0.962425 0.44287
C_ C_ 0.894953 0.839744 0.51051 0.18498
C_ C_ 0.927686 0.880999 0.517399 -0.08735
C_ C_ 0.951823 0.885079 0.544263 -0.08735
C_ C_ 0.939457 0.853232 0.566257 -0.08735
C_ C_ 0.899706 0.817131 0.561773 0.18498
C_ C_ 0.881373 0.807393 0.533306 -0.05681
C_ C_ 0.844897 0.768773 0.528927 -0.08735
C_ C_ 0.835655 0.737485 0.552425 -0.08735
C_ C_ 0.843602 0.756806 0.580254 0.1947
N_ N_ 0.623183 0.672188 0.979456 -0.29468
N_ N_ 0.656914 0.691619 0.581339 -0.17154
N_ N_ 0.620202 0.672841 0.730424 -0.17154
N_ N_ 0.628469 0.701658 0.834719 -0.29468
N_ N_ 0.878578 0.831349 0.728734 -0.29468
N_ N_ 0.849414 0.810282 0.832058 -0.17154
N_ N_ 0.879646 0.83618 0.979987 -0.17154
N_ N_ 0.874863 0.796257 0.584446 -0.29468
O_ O_ 0.70712 0.685986 0.933567 -0.58347
O_ O_ 0.694786 0.690597 0.887956 -0.58347
O_ O_ 0.623408 0.756075 0.933255 -0.58347
O_ O_ 0.608789 0.766518 0.888572 -0.58347
O_ O_ 0.6349 0.607594 0.927047 -0.58347
O_ O_ 0.628845 0.615644 0.881041 -0.58347
O_ O_ 0.557877 0.681121 0.928177 -0.58347
O_ O_ 0.546065 0.686026 0.881053 -0.58347
O_ O_ 0.567502 0.701807 0.576155 -0.46727
O_ O_ 0.742982 0.677709 0.587626 -0.46727
O_ O_ 0.539161 0.699213 0.724014 -0.46727
O_ O_ 0.702579 0.646872 0.736794 -0.46727
O_ O_ 0.793501 0.805822 0.680276 -0.58347
O_ O_ 0.803253 0.811475 0.633124 -0.58347
O_ O_ 0.879886 0.741466 0.686615 -0.58347
O_ O_ 0.886594 0.737817 0.639317 -0.58347
O_ O_ 0.862696 0.891781 0.67287 -0.58347
O_ O_ 0.874478 0.882948 0.626623 -0.58347
O_ O_ 0.945149 0.822377 0.679499 -0.58347
O_ O_ 0.95498 0.812433 0.632049 -0.58347
O_ O_ 0.931974 0.782171 0.827226 -0.46727
O_ O_ 0.764941 0.833843 0.836739 -0.46727
O_ O_ 0.966426 0.823563 0.973945 -0.46727
O_ O_ 0.7938 0.855694 0.984267 -0.46727
_cell_length_a 26.376
_cell_length_b 26.400000238300095
_cell_length_c 46.67800035477134
_cell_angle_alpha 90.00700052986613
_cell_angle_beta 89.99899961309502
_cell_angle_gamma 90.45000003183146
_symmetry_space_group_name_H-M         'P 1'
_symmetry_Int_Tables_number            1
loop_
_symmetry_equiv_pos_as_xyz
   'x, y, z'
                         
loop_
_atom_site_label
_atom_site_type_symbol
_atom_site_fract_x 
_atom_site_fract_y
_atom_site_fract_z
_atom_site_charge
Zn Zn 0.135542 0.177252 0.380965 0.90689
Zn Zn 0.149969 0.17483 0.427708 0.90689
Zn Zn 0.36398 0.314545 0.132057 0.90689
Zn Zn 0.355806 0.320538 0.181372 0.90689
H_ H_ 0.313139 0.21698 0.439433 0.11455
H_ H_ 0.382052 0.160545 0.344925 0.11455
H_ H_ 0.291413 0.171703 0.352 0.11455
H_ H_ 0.396589 0.218936 0.459362 0.11455
H_ H_ 0.486689 0.198839 0.456051 0.11455
H_ H_ 0.469627 0.163063 0.365698 0.11455
H_ H_ 0.134737 0.0154587 0.437325 0.11455
H_ H_ 0.0973637 0.435797 0.35114 0.11455
H_ H_ 0.151462 0.0247272 0.346648 0.11455
H_ H_ 0.155315 0.424812 0.46591 0.11455
H_ H_ 0.143789 0.332348 0.461243 0.11455
H_ H_ 0.108896 0.349241 0.371745 0.11455
H_ H_ 0.111484 0.0956765 0.463473 0.11455
H_ H_ 0.0800341 0.0746511 0.0171841 0.11455
H_ H_ 0.112668 0.119283 0.0537831 0.11455
H_ H_ 0.201478 0.248037 0.47149 0.11455
H_ H_ 0.203925 0.311158 0.0165619 0.11455
H_ H_ 0.185358 0.281938 0.0650889 0.11455
H_ H_ 0.00664694 0.203484 0.122768 0.11455
H_ H_ -0.008417000000000008 0.186205 0.17727 0.11455
H_ H_ 0.256381 0.163627 0.134554 0.11455
H_ H_ 0.241514 0.142672 0.186374 0.11455
H_ H_ 0.0794368 0.0672386 0.249592 0.11455
H_ H_ 0.0574596 0.0527931 0.298512 0.11455
H_ H_ 0.0762872 0.109855 0.339041 0.11455
H_ H_ 0.158252 0.234283 0.255172 0.11455
H_ H_ 0.197807 0.28179 0.294829 0.11455
H_ H_ 0.18289 0.255585 0.346403 0.11455
H_ H_ 0.190603 0.295812 0.196299 0.11455
H_ H_ 0.118604 0.327076 0.0982296 0.11455
H_ H_ 0.212572 0.308064 0.10628 0.11455
H_ H_ 0.100237 0.31269 0.217516 0.11455
H_ H_ 0.00803701 0.315026 0.203949 0.11455
H_ H_ 0.0358225 0.316417 0.114789 0.11455
H_ H_ 0.357153 0.487393 0.19517 0.11455
H_ H_ 0.385522 0.0630115 0.0974715 0.11455
H_ H_ 0.359767 0.471394 0.102216 0.11455
H_ H_ 0.328685 0.0739695 0.212363 0.11455
H_ H_ 0.341913 0.168221 0.209694 0.11455
H_ H_ 0.386364 0.15113 0.121039 0.11455
H_ H_ 0.401311 0.399909 0.216683 0.11455
H_ H_ 0.41436 0.430977 0.26502 0.11455
H_ H_ 0.396794 0.378659 0.307436 0.11455
H_ H_ 0.306459 0.25418 0.225357 0.11455
H_ H_ 0.274554 0.201293 0.263153 0.11455
H_ H_ 0.281379 0.234474 0.313031 0.11455
H_ H_ 0.483396 0.286492 0.376082 0.11455
H_ H_ 0.500188 0.315874 0.424842 0.11455
H_ H_ 0.239781 0.361077 0.391752 0.11455
H_ H_ 0.250572 0.355726 0.444691 0.11455
H_ H_ 0.424956 0.429206 0.502356 0.11455
H_ H_ 0.422294 0.448012 0.0524874 0.11455
H_ H_ 0.413704 0.380871 0.0864545 0.11455
H_ H_ 0.316941 0.265453 0.00750327 0.11455
H_ H_ 0.290249 0.211505 0.0477641 0.11455
H_ H_ 0.320663 0.231413 0.0970926 0.11455
C_ C_ 0.239013 0.188219 0.401302 0.68181
C_ C_ 0.295515 0.189931 0.397245 -0.05681
C_ C_ 0.328064 0.203035 0.41966 -0.08735
C_ C_ 0.379082 0.190943 0.417755 -0.05681
C_ C_ 0.400355 0.174295 0.390374 -0.05681
C_ C_ 0.367311 0.167218 0.367437 -0.08735
C_ C_ 0.315816 0.16974 0.37194 -0.08735
C_ C_ 0.411069 0.198322 0.441367 -0.08735
C_ C_ 0.463282 0.189919 0.438017 -0.08735
C_ C_ 0.48416 0.179349 0.411014 -0.05681
C_ C_ 0.454141 0.171172 0.387012 -0.08735
C_ C_ 0.13355 0.274315 0.41086 0.68181
C_ C_ 0.156456 0.0793359 0.393924 0.68181
C_ C_ 0.148265 0.0233543 0.392 -0.05681
C_ C_ 0.144232 0.491867 0.423473 -0.08735
C_ C_ 0.1405 0.439163 0.42134 -0.05681
C_ C_ 0.129755 0.417853 0.394364 -0.05681
C_ C_ 0.118298 0.449097 0.371228 -0.08735
C_ C_ 0.124451 0.501911 0.373625 -0.08735
C_ C_ 0.148567 0.406099 0.444585 -0.08735
C_ C_ 0.143985 0.353842 0.441858 -0.08735
C_ C_ 0.13159 0.332491 0.415072 -0.05681
C_ C_ 0.120029 0.365156 0.392448 -0.08735
C_ C_ 0.0439817 0.17198 0.409856 0.68181
C_ C_ 0.131348 0.112951 0.480017 0.1947
C_ C_ 0.100984 0.107575 0.0112905 -0.08735
C_ C_ 0.117041 0.135816 0.0329139 -0.08735
C_ C_ 0.134998 0.184179 0.0276587 -0.05681
C_ C_ 0.146516 0.199637 0.999356 0.18498
C_ C_ 0.200339 0.231591 0.492883 -0.08735
C_ C_ 0.185299 0.275663 0.0185571 -0.08735
C_ C_ 0.176139 0.259303 0.0463472 -0.08735
C_ C_ 0.152174 0.211516 0.0515692 0.18498
C_ C_ 0.182298 0.184185 0.0980639 0.44287
C_ C_ 0.0931826 0.200086 0.0930541 0.44287
C_ C_ 0.0864156 0.188135 0.122352 -0.05681
C_ C_ 0.0390083 0.194699 0.136321 -0.08735
C_ C_ 0.0301029 0.187564 0.166867 -0.08735
C_ C_ 0.0720256 0.174537 0.183528 -0.05681
C_ C_ 0.120646 0.170428 0.170202 -0.05681
C_ C_ 0.12781 0.178789 0.140255 -0.05681
C_ C_ 0.176553 0.176508 0.127946 -0.05681
C_ C_ 0.219485 0.171608 0.14485 -0.08735
C_ C_ 0.212663 0.161066 0.174464 -0.08735
C_ C_ 0.164061 0.163001 0.186884 -0.05681
C_ C_ 0.157955 0.154264 0.216113 0.44287
C_ C_ 0.0704614 0.171426 0.213018 0.44287
C_ C_ 0.107324 0.145693 0.259391 0.18498
C_ C_ 0.0897616 0.0975344 0.266411 -0.08735
C_ C_ 0.0745149 0.0876197 0.294905 -0.08735
C_ C_ 0.0850043 0.121224 0.316922 -0.08735
C_ C_ 0.116047 0.162365 0.311079 0.18498
C_ C_ 0.122603 0.179501 0.282068 -0.05681
C_ C_ 0.154536 0.220535 0.276853 -0.08735
C_ C_ 0.171119 0.250499 0.299741 -0.08735
C_ C_ 0.158179 0.238849 0.328547 0.1947
C_ C_ 0.263881 0.303496 0.155835 0.68181
C_ C_ 0.207743 0.299395 0.151911 -0.05681
C_ C_ 0.176244 0.299025 0.174726 -0.08735
C_ C_ 0.122441 0.306114 0.170514 -0.05681
C_ C_ 0.102813 0.308489 0.14185 -0.05681
C_ C_ 0.135228 0.315448 0.119168 -0.08735
C_ C_ 0.18794 0.308029 0.12375 -0.08735
C_ C_ 0.0863408 0.304114 0.194399 -0.08735
C_ C_ 0.0351577 0.313479 0.18811 -0.08735
C_ C_ 0.016909 0.312612 0.159933 -0.05681
C_ C_ 0.050638 0.314101 0.137232 -0.08735
C_ C_ 0.37313 0.222151 0.162315 0.68181
C_ C_ 0.354186 0.416468 0.152258 0.68181
C_ C_ 0.354127 0.472115 0.148523 -0.05681
C_ C_ 0.335354 0.00773295 0.169766 -0.08735
C_ C_ 0.342994 0.0604833 0.168672 -0.05681
C_ C_ 0.359438 0.0824869 0.142644 -0.05681
C_ C_ 0.370254 0.0495407 0.118364 -0.08735
C_ C_ 0.354477 0.494986 0.121299 -0.08735
C_ C_ 0.336529 0.0930916 0.192535 -0.08735
C_ C_ 0.346981 0.145084 0.191189 -0.08735
C_ C_ 0.368986 0.166043 0.165985 -0.05681
C_ C_ 0.373033 0.135348 0.14094 -0.08735
C_ C_ 0.457077 0.318748 0.157947 0.68181
C_ C_ 0.387675 0.377125 0.234374 0.1947
C_ C_ 0.397425 0.394431 0.262124 -0.08735
C_ C_ 0.390946 0.363389 0.286127 -0.08735
C_ C_ 0.356589 0.320559 0.281737 -0.05681
C_ C_ 0.345998 0.304076 0.252103 0.18498
C_ C_ 0.314783 0.262875 0.247443 -0.08735
C_ C_ 0.296814 0.23226 0.268877 -0.08735
C_ C_ 0.306293 0.249156 0.298236 -0.08735
C_ C_ 0.33479 0.292651 0.305074 0.18498
C_ C_ 0.308111 0.325141 0.352248 0.44287
C_ C_ 0.392619 0.294462 0.347987 0.44287
C_ C_ 0.403354 0.30953 0.375949 -0.05681
C_ C_ 0.452595 0.303504 0.388108 -0.08735
C_ C_ 0.463444 0.316967 0.416502 -0.08735
C_ C_ 0.42197 0.326096 0.43556 -0.05681
C_ C_ 0.374266 0.335758 0.423364 -0.05681
C_ C_ 0.364591 0.325285 0.393863 -0.05681
C_ C_ 0.314674 0.333363 0.382439 -0.05681
C_ C_ 0.273352 0.344588 0.400606 -0.08735
C_ C_ 0.282126 0.348009 0.43019 -0.08735
C_ C_ 0.332002 0.342476 0.441828 -0.05681
C_ C_ 0.341884 0.342045 0.471913 0.44287
C_ C_ 0.428825 0.328519 0.465553 0.44287
C_ C_ 0.369383 0.35489 0.011262 0.18498
C_ C_ 0.388469 0.403462 0.0201562 -0.08735
C_ C_ 0.407829 0.411192 0.0466486 -0.08735
C_ C_ 0.401221 0.374535 0.0665088 -0.08735
C_ C_ 0.371769 0.330861 0.0616901 0.18498
C_ C_ 0.357504 0.319638 0.0337667 -0.05681
C_ C_ 0.332314 0.275487 0.0289405 -0.08735
C_ C_ 0.316537 0.24332 0.0509832 -0.08735
C_ C_ 0.330021 0.257771 0.0793636 0.1947
N_ N_ 0.153516 0.158319 0.475048 -0.29468
N_ N_ 0.14122 0.194398 0.081802 -0.17154
N_ N_ 0.112306 0.158362 0.229164 -0.17154
N_ N_ 0.131256 0.194251 0.333627 -0.29468
N_ N_ 0.361864 0.333053 0.22898 -0.29468
N_ N_ 0.346382 0.305904 0.335015 -0.17154
N_ N_ 0.388724 0.341713 0.483019 -0.17154
N_ N_ 0.358816 0.299187 0.0838844 -0.29468
O_ O_ 0.220858 0.177922 0.426753 -0.58347
O_ O_ 0.210607 0.192927 0.380441 -0.58347
O_ O_ 0.150024 0.248696 0.430531 -0.58347
O_ O_ 0.121731 0.252687 0.387795 -0.58347
O_ O_ 0.157037 0.0996286 0.418773 -0.58347
O_ O_ 0.146271 0.10647 0.371059 -0.58347
O_ O_ 0.0723476 0.167761 0.431146 -0.58347
O_ O_ 0.06279 0.164089 0.384914 -0.58347
O_ O_ 0.0533162 0.209924 0.076405 -0.46727
O_ O_ 0.226901 0.182246 0.0867011 -0.46727
O_ O_ 0.0280373 0.176619 0.226114 -0.46727
O_ O_ 0.197153 0.150742 0.233107 -0.46727
O_ O_ 0.28367 0.304501 0.180097 -0.58347
O_ O_ 0.291638 0.307566 0.133782 -0.58347
O_ O_ 0.375888 0.24966 0.184602 -0.58347
O_ O_ 0.364541 0.242453 0.138273 -0.58347
O_ O_ 0.345662 0.396909 0.176621 -0.58347
O_ O_ 0.360723 0.389562 0.129772 -0.58347
O_ O_ 0.43024 0.335196 0.177438 -0.58347
O_ O_ 0.439484 0.312535 0.133219 -0.58347
O_ O_ 0.424591 0.268654 0.332286 -0.46727
O_ O_ 0.261768 0.330933 0.342188 -0.46727
O_ O_ 0.474828 0.326687 0.476367 -0.46727
O_ O_ 0.301989 0.34796 0.489969 -0.46727
Zn Zn 0.12824 0.197616 0.88131 0.90689
Zn Zn 0.135623 0.182707 0.928203 0.90689
Zn Zn 0.388313 0.314331 0.636143 0.90689
Zn Zn 0.377042 0.324647 0.68273 0.90689
H_ H_ 0.301639 0.205585 0.944956 0.11455
H_ H_ 0.366222 0.132863 0.854236 0.11455
H_ H_ 0.277354 0.155509 0.860297 0.11455
H_ H_ 0.387797 0.198073 0.96369 0.11455
H_ H_ 0.480727 0.196308 0.956011 0.11455
H_ H_ 0.456977 0.142132 0.870819 0.11455
H_ H_ 0.102987 0.0258983 0.935933 0.11455
H_ H_ 0.0872453 0.447357 0.850654 0.11455
H_ H_ 0.148164 0.0312109 0.849447 0.11455
H_ H_ 0.125008 0.43359 0.96456 0.11455
H_ H_ 0.111325 0.34137 0.962878 0.11455
H_ H_ 0.0962689 0.355411 0.870355 0.11455
H_ H_ 0.0971217 0.0991323 0.965078 0.11455
H_ H_ 0.111519 0.0570329 0.510903 0.11455
H_ H_ 0.154735 0.102387 0.551547 0.11455
H_ H_ 0.183383 0.258733 0.974027 0.11455
H_ H_ 0.224041 0.302301 0.509035 0.11455
H_ H_ 0.214103 0.27509 0.559067 0.11455
H_ H_ 0.0256174 0.189193 0.614115 0.11455
H_ H_ 0.00441484 0.189406 0.667357 0.11455
H_ H_ 0.275561 0.183719 0.642026 0.11455
H_ H_ 0.254406 0.161472 0.690921 0.11455
H_ H_ 0.0763095 0.100912 0.743352 0.11455
H_ H_ 0.052842 0.0746207 0.794571 0.11455
H_ H_ 0.0818205 0.124876 0.833179 0.11455
H_ H_ 0.161082 0.259212 0.75469 0.11455
H_ H_ 0.186157 0.309789 0.795336 0.11455
H_ H_ 0.180253 0.269984 0.845111 0.11455
H_ H_ 0.205117 0.322371 0.698867 0.11455
H_ H_ 0.136414 0.323556 0.598415 0.11455
H_ H_ 0.22779 0.328553 0.60711 0.11455
H_ H_ 0.116706 0.335131 0.715457 0.11455
H_ H_ 0.0276876 0.319292 0.707152 0.11455
H_ H_ 0.0532417 0.331506 0.615224 0.11455
H_ H_ 0.356993 0.488619 0.692872 0.11455
H_ H_ 0.366627 0.0682309 0.59957 0.11455
H_ H_ 0.415472 0.480203 0.609478 0.11455
H_ H_ 0.392495 0.0696129 0.713973 0.11455
H_ H_ 0.398378 0.160942 0.710562 0.11455
H_ H_ 0.383205 0.150932 0.619683 0.11455
H_ H_ 0.424824 0.395659 0.723697 0.11455
H_ H_ 0.42767 0.420633 0.771918 0.11455
H_ H_ 0.392771 0.36685 0.810296 0.11455
H_ H_ 0.3093 0.254104 0.722808 0.11455
H_ H_ 0.273335 0.202448 0.759495 0.11455
H_ H_ 0.279575 0.22294 0.810921 0.11455
H_ H_ 0.472976 0.296754 0.878054 0.11455
H_ H_ 0.481125 0.323292 0.928694 0.11455
H_ H_ 0.219235 0.328485 0.886278 0.11455
H_ H_ 0.227496 0.336085 0.939371 0.11455
H_ H_ 0.383754 0.435393 0.006520000000000081 0.11455
H_ H_ 0.453229 0.451582 0.553568 0.11455
H_ H_ 0.432282 0.394077 0.59245 0.11455
H_ H_ 0.351296 0.264114 0.509985 0.11455
H_ H_ 0.340847 0.205185 0.548238 0.11455
H_ H_ 0.341809 0.235111 0.598856 0.11455
C_ C_ 0.22997 0.203545 0.902523 0.68181
C_ C_ 0.285297 0.189473 0.900586 -0.05681
C_ C_ 0.319108 0.199993 0.923485 -0.08735
C_ C_ 0.371288 0.187288 0.920142 -0.05681
C_ C_ 0.389647 0.165613 0.895466 -0.05681
C_ C_ 0.355511 0.153074 0.873616 -0.08735
C_ C_ 0.304542 0.164151 0.875448 -0.08735
C_ C_ 0.404383 0.189679 0.943189 -0.08735
C_ C_ 0.455992 0.184731 0.939141 -0.08735
C_ C_ 0.475792 0.176297 0.91174 -0.05681
C_ C_ 0.442554 0.157148 0.891504 -0.08735
C_ C_ 0.111398 0.285256 0.911876 0.68181
C_ C_ 0.139704 0.092358 0.89793 0.68181
C_ C_ 0.130753 0.0356392 0.893778 -0.05681
C_ C_ 0.135851 0.500424 0.921738 -0.08735
C_ C_ 0.127344 0.444877 0.91913 -0.05681
C_ C_ 0.112195 0.425099 0.892975 -0.05681
C_ C_ 0.101941 0.460005 0.870267 -0.08735
C_ C_ 0.109849 0.511495 0.872774 -0.08735
C_ C_ 0.127937 0.414836 0.944132 -0.08735
C_ C_ 0.116615 0.362765 0.942288 -0.08735
C_ C_ 0.108395 0.340715 0.915431 -0.05681
C_ C_ 0.102471 0.373131 0.890821 -0.08735
C_ C_ 0.0337793 0.181579 0.905621 0.68181
C_ C_ 0.114259 0.121464 0.982152 0.1947
C_ C_ 0.130585 0.0925859 0.507991 -0.08735
C_ C_ 0.149621 0.120473 0.530746 -0.08735
C_ C_ 0.167322 0.16966 0.52643 -0.05681
C_ C_ 0.172283 0.186839 0.497815 0.18498
C_ C_ 0.171447 0.246125 0.995649 -0.08735
C_ C_ 0.211331 0.264548 0.514139 -0.08735
C_ C_ 0.203474 0.251222 0.542995 -0.08735
C_ C_ 0.179251 0.204638 0.549363 0.18498
C_ C_ 0.203891 0.188331 0.59844 0.44287
C_ C_ 0.116694 0.197433 0.588284 0.44287
C_ C_ 0.105397 0.197392 0.618329 -0.05681
C_ C_ 0.0552293 0.196531 0.628996 -0.08735
C_ C_ 0.0440741 0.189701 0.65859 -0.08735
C_ C_ 0.0850913 0.192807 0.678231 -0.05681
C_ C_ 0.135799 0.190072 0.667905 -0.05681
C_ C_ 0.146448 0.193438 0.637602 -0.05681
C_ C_ 0.196334 0.190452 0.628408 -0.05681
C_ C_ 0.236088 0.186787 0.649191 -0.08735
C_ C_ 0.22717 0.179144 0.67724 -0.08735
C_ C_ 0.177823 0.186244 0.687303 -0.05681
C_ C_ 0.166649 0.179574 0.715981 0.44287
C_ C_ 0.0809454 0.196988 0.709054 0.44287
C_ C_ 0.107686 0.172553 0.756934 0.18498
C_ C_ 0.0786966 0.12757 0.76176 -0.08735
C_ C_ 0.0734273 0.110383 0.789782 -0.08735
C_ C_ 0.0902357 0.137495 0.812574 -0.08735
C_ C_ 0.118601 0.180996 0.807856 0.18498
C_ C_ 0.129537 0.199458 0.780116 -0.05681
C_ C_ 0.155681 0.244796 0.775748 -0.08735
C_ C_ 0.17474 0.270209 0.79925 -0.08735
C_ C_ 0.160167 0.25517 0.8268 0.1947
C_ C_ 0.2821 0.314456 0.657673 0.68181
C_ C_ 0.2252 0.321036 0.653531 -0.05681
C_ C_ 0.190852 0.324493 0.67659 -0.08735
C_ C_ 0.137109 0.32709 0.671361 -0.05681
C_ C_ 0.118694 0.326677 0.643111 -0.05681
C_ C_ 0.151752 0.322821 0.620349 -0.08735
C_ C_ 0.204091 0.322498 0.625213 -0.08735
C_ C_ 0.103244 0.336324 0.694085 -0.08735
C_ C_ 0.0521278 0.32876 0.689315 -0.08735
C_ C_ 0.0333928 0.335958 0.661611 -0.05681
C_ C_ 0.0664679 0.333515 0.638016 -0.08735
C_ C_ 0.39097 0.220589 0.662877 0.68181
C_ C_ 0.375598 0.419594 0.653791 0.68181
C_ C_ 0.379325 0.476767 0.650426 -0.05681
C_ C_ 0.380947 0.00286221 0.672121 -0.08735
C_ C_ 0.383966 0.0561942 0.670152 -0.05681
C_ C_ 0.378772 0.0809771 0.642753 -0.05681
C_ C_ 0.36969 0.0522291 0.619622 -0.08735
C_ C_ 0.394244 0.499015 0.625504 -0.08735
C_ C_ 0.393507 0.0859718 0.693454 -0.08735
C_ C_ 0.39519 0.138618 0.691473 -0.08735
C_ C_ 0.386715 0.162801 0.665017 -0.05681
C_ C_ 0.385452 0.134213 0.639796 -0.08735
C_ C_ 0.47964 0.322602 0.660651 0.68181
C_ C_ 0.40379 0.372275 0.738814 0.1947
C_ C_ 0.411099 0.384527 0.76695 -0.08735
C_ C_ 0.387999 0.357418 0.788876 -0.08735
C_ C_ 0.357191 0.31651 0.783182 -0.05681
C_ C_ 0.351831 0.30345 0.75274 0.18498
C_ C_ 0.317371 0.263788 0.745598 -0.08735
C_ C_ 0.295209 0.23412 0.766629 -0.08735
C_ C_ 0.301473 0.244928 0.795702 -0.08735
C_ C_ 0.333745 0.287036 0.804525 0.18498
C_ C_ 0.296647 0.310666 0.850702 0.44287
C_ C_ 0.3834 0.284466 0.848549 0.44287
C_ C_ 0.390168 0.300109 0.878546 -0.05681
C_ C_ 0.439332 0.301876 0.891224 -0.08735
C_ C_ 0.442765 0.319908 0.919357 -0.08735
C_ C_ 0.40279 0.328922 0.935715 -0.05681
C_ C_ 0.352743 0.32964 0.922707 -0.05681
C_ C_ 0.346897 0.313787 0.893904 -0.05681
C_ C_ 0.300476 0.318105 0.880991 -0.05681
C_ C_ 0.257314 0.328675 0.897066 -0.08735
C_ C_ 0.260894 0.332828 0.927233 -0.08735
C_ C_ 0.308958 0.333153 0.941074 -0.05681
C_ C_ 0.315779 0.341708 0.970138 0.44287
C_ C_ 0.404321 0.332328 0.965626 0.44287
C_ C_ 0.396029 0.356789 0.51369 0.18498
C_ C_ 0.413713 0.406297 0.520137 -0.08735
C_ C_ 0.428121 0.419881 0.548381 -0.08735
C_ C_ 0.414791 0.387096 0.57155 -0.08735
C_ C_ 0.390394 0.338226 0.566885 0.18498
C_ C_ 0.380537 0.32374 0.537411 -0.05681
C_ C_ 0.361088 0.276183 0.531644 -0.08735
C_ C_ 0.353329 0.241786 0.553842 -0.08735
C_ C_ 0.360766 0.258415 0.582844 0.1947
N_ N_ 0.137693 0.167646 0.976645 -0.29468
N_ N_ 0.164934 0.193326 0.579017 -0.17154
N_ N_ 0.119731 0.18515 0.72699 -0.17154
N_ N_ 0.133765 0.210901 0.830803 -0.29468
N_ N_ 0.372926 0.333263 0.731813 -0.29468
N_ N_ 0.339024 0.295338 0.835021 -0.17154
N_ N_ 0.36248 0.341528 0.981651 -0.17154
N_ N_ 0.379828 0.305965 0.589044 -0.29468
O_ O_ 0.209611 0.199606 0.926863 -0.58347
O_ O_ 0.20216 0.205456 0.879587 -0.58347
O_ O_ 0.118912 0.256665 0.933014 -0.58347
O_ O_ 0.117312 0.268622 0.886232 -0.58347
O_ O_ 0.144743 0.109952 0.923454 -0.58347
O_ O_ 0.137797 0.121247 0.876581 -0.58347
O_ O_ 0.0614821 0.168287 0.926591 -0.58347
O_ O_ 0.0555067 0.185384 0.881609 -0.58347
O_ O_ 0.0806817 0.19948 0.569464 -0.46727
O_ O_ 0.250927 0.178135 0.588466 -0.46727
O_ O_ 0.0348031 0.201073 0.719441 -0.46727
O_ O_ 0.20194 0.167049 0.733118 -0.46727
O_ O_ 0.301803 0.327568 0.681695 -0.58347
O_ O_ 0.311978 0.306751 0.637327 -0.58347
O_ O_ 0.377265 0.246986 0.683681 -0.58347
O_ O_ 0.401079 0.239999 0.639307 -0.58347
O_ O_ 0.377246 0.400653 0.677948 -0.58347
O_ O_ 0.375606 0.391041 0.632822 -0.58347
O_ O_ 0.451581 0.325612 0.682652 -0.58347
O_ O_ 0.460384 0.326275 0.635638 -0.58347
O_ O_ 0.422415 0.271804 0.832935 -0.46727
O_ O_ 0.253489 0.32143 0.837777 -0.46727
O_ O_ 0.448817 0.336943 0.978319 -0.46727
O_ O_ 0.278216 0.347625 0.987401 -0.46727
Zn Zn 0.127589 0.681736 0.382632 0.90689
Zn Zn 0.134396 0.675024 0.429541 0.90689
Zn Zn 0.365309 0.81209 0.131547 0.90689
Zn Zn 0.349118 0.820469 0.18126 0.90689
H_ H_ 0.304683 0.704931 0.442463 0.11455
H_ H_ 0.3678 0.640656 0.350542 0.11455
H_ H_ 0.277199 0.662161 0.354922 0.11455
H_ H_ 0.392544 0.698424 0.462044 0.11455
H_ H_ 0.479891 0.684349 0.457193 0.11455
H_ H_ 0.452778 0.650945 0.366395 0.11455
H_ H_ 0.147893 0.50648 0.444405 0.11455
H_ H_ 0.146493 0.92815 0.343281 0.11455
H_ H_ 0.118069 0.523334 0.35451 0.11455
H_ H_ 0.1293 0.928019 0.460289 0.11455
H_ H_ 0.12777 0.836227 0.455852 0.11455
H_ H_ 0.126233 0.846049 0.36377 0.11455
H_ H_ 0.0783357 0.60884 0.468241 0.11455
H_ H_ 0.0549416 0.584179 0.0111958 0.11455
H_ H_ 0.0878569 0.634208 0.0531901 0.11455
H_ H_ 0.198787 0.74088 0.474148 0.11455
H_ H_ 0.216118 0.806838 0.0166394 0.11455
H_ H_ 0.192172 0.781307 0.0660781 0.11455
H_ H_ 0.014353 0.707198 0.129402 0.11455
H_ H_ 0.00804696 0.698662 0.17958 0.11455
H_ H_ 0.264576 0.668242 0.136384 0.11455
H_ H_ 0.254564 0.638154 0.188879 0.11455
H_ H_ 0.0746575 0.563189 0.250924 0.11455
H_ H_ 0.044788 0.553867 0.299196 0.11455
H_ H_ 0.0639976 0.614713 0.338542 0.11455
H_ H_ 0.173605 0.718062 0.253347 0.11455
H_ H_ 0.20292 0.769502 0.290877 0.11455
H_ H_ 0.175231 0.752465 0.343477 0.11455
H_ H_ 0.187262 0.798223 0.195171 0.11455
H_ H_ 0.11778 0.830191 0.0975477 0.11455
H_ H_ 0.210003 0.829641 0.105552 0.11455
H_ H_ 0.095662 0.807743 0.21558 0.11455
H_ H_ 0.0056535 0.815564 0.206246 0.11455
H_ H_ 0.0349544 0.840016 0.116135 0.11455
H_ H_ 0.32505 0.991062 0.188656 0.11455
H_ H_ 0.369798 0.567015 0.0995639 0.11455
H_ H_ 0.375837 0.974503 0.102088 0.11455
H_ H_ 0.380775 0.571188 0.215344 0.11455
H_ H_ 0.393398 0.661491 0.210356 0.11455
H_ H_ 0.38361 0.648207 0.122325 0.11455
H_ H_ 0.39843 0.893017 0.217465 0.11455
H_ H_ 0.41249 0.919623 0.270441 0.11455
H_ H_ 0.373973 0.875421 0.307509 0.11455
H_ H_ 0.300479 0.746675 0.223221 0.11455
H_ H_ 0.279776 0.686817 0.263689 0.11455
H_ H_ 0.314343 0.700722 0.312288 0.11455
H_ H_ 0.482174 0.779608 0.369971 0.11455
H_ H_ 0.49807 0.787954 0.424287 0.11455
H_ H_ 0.234762 0.822877 0.389809 0.11455
H_ H_ 0.248173 0.834686 0.440652 0.11455
H_ H_ 0.421988 0.904806 0.498657 0.11455
H_ H_ 0.457655 0.925124 0.0465418 0.11455
H_ H_ 0.437322 0.870325 0.086022 0.11455
H_ H_ 0.326671 0.760681 0.00751341 0.11455
H_ H_ 0.283646 0.719663 0.0474913 0.11455
H_ H_ 0.310206 0.741763 0.0971751 0.11455
C_ C_ 0.228538 0.681676 0.404364 0.68181
C_ C_ 0.28467 0.681187 0.399385 -0.05681
C_ C_ 0.318943 0.689905 0.421937 -0.08735
C_ C_ 0.370202 0.682657 0.419281 -0.05681
C_ C_ 0.389594 0.667574 0.392479 -0.05681
C_ C_ 0.355149 0.659792 0.370009 -0.08735
C_ C_ 0.302841 0.665894 0.373283 -0.08735
C_ C_ 0.403684 0.688865 0.44181 -0.08735
C_ C_ 0.456068 0.682983 0.439188 -0.08735
C_ C_ 0.475801 0.670628 0.411178 -0.05681
C_ C_ 0.442118 0.66311 0.388564 -0.08735
C_ C_ 0.124596 0.778803 0.407567 0.68181
C_ C_ 0.133799 0.579177 0.40217 0.68181
C_ C_ 0.135082 0.523727 0.400036 -0.05681
C_ C_ 0.140619 0.993357 0.417099 -0.08735
C_ C_ 0.136538 0.940191 0.414726 -0.05681
C_ C_ 0.137088 0.916647 0.387372 -0.05681
C_ C_ 0.144495 0.946557 0.362855 -0.08735
C_ C_ 0.150168 0.999974 0.365507 -0.08735
C_ C_ 0.125509 0.913202 0.438843 -0.08735
C_ C_ 0.125457 0.858291 0.436622 -0.08735
C_ C_ 0.121757 0.834226 0.40974 -0.05681
C_ C_ 0.123853 0.864869 0.384976 -0.08735
C_ C_ 0.0316539 0.665548 0.406792 0.68181
C_ C_ 0.100545 0.626549 0.48385 0.1947
C_ C_ 0.0780329 0.61963 0.00890049 -0.08735
C_ C_ 0.0972142 0.644892 0.032203 -0.08735
C_ C_ 0.128487 0.687578 0.029008 -0.05681
C_ C_ 0.139021 0.704161 1.00016 0.18498
C_ C_ 0.185179 0.734602 0.495436 -0.08735
C_ C_ 0.185986 0.77645 0.0196022 -0.08735
C_ C_ 0.174928 0.759451 0.0477227 -0.08735
C_ C_ 0.151972 0.712116 0.0526828 0.18498
C_ C_ 0.185479 0.676858 0.09813 0.44287
C_ C_ 0.0996475 0.70205 0.0967481 0.44287
C_ C_ 0.0942975 0.688777 0.126504 -0.05681
C_ C_ 0.0487368 0.696522 0.14088 -0.08735
C_ C_ 0.0431321 0.685252 0.169297 -0.08735
C_ C_ 0.0833225 0.668951 0.185446 -0.05681
C_ C_ 0.129229 0.65893 0.171837 -0.05681
C_ C_ 0.135137 0.670656 0.142148 -0.05681
C_ C_ 0.182067 0.666234 0.128505 -0.05681
C_ C_ 0.225907 0.658135 0.145838 -0.08735
C_ C_ 0.220144 0.644295 0.175292 -0.08735
C_ C_ 0.172352 0.641912 0.187545 -0.05681
C_ C_ 0.16544 0.635036 0.216876 0.44287
C_ C_ 0.0787617 0.658331 0.215229 0.44287
C_ C_ 0.113688 0.633671 0.260636 0.18498
C_ C_ 0.0879813 0.588117 0.268093 -0.08735
C_ C_ 0.0719348 0.580775 0.295742 -0.08735
C_ C_ 0.0834945 0.616852 0.317771 -0.08735
C_ C_ 0.110756 0.659453 0.310452 0.18498
C_ C_ 0.128114 0.666957 0.28191 -0.05681
C_ C_ 0.156556 0.710018 0.275223 -0.08735
C_ C_ 0.173561 0.74022 0.297284 -0.08735
C_ C_ 0.161537 0.729311 0.325954 0.1947
C_ C_ 0.258451 0.806499 0.156726 0.68181
C_ C_ 0.203488 0.809512 0.151465 -0.05681
C_ C_ 0.17009 0.808051 0.174549 -0.08735
C_ C_ 0.118145 0.815239 0.169849 -0.05681
C_ C_ 0.0976271 0.818607 0.141549 -0.05681
C_ C_ 0.133678 0.823761 0.118469 -0.08735
C_ C_ 0.184354 0.822345 0.124344 -0.08735
C_ C_ 0.0842961 0.814303 0.192721 -0.08735
C_ C_ 0.0311051 0.814175 0.188028 -0.08735
C_ C_ 0.0116475 0.817841 0.159699 -0.05681
C_ C_ 0.0467904 0.824834 0.137104 -0.08735
C_ C_ 0.367758 0.719819 0.163252 0.68181
C_ C_ 0.350273 0.918012 0.148955 0.68181
C_ C_ 0.351233 0.974227 0.146683 -0.05681
C_ C_ 0.358274 0.50316 0.174081 -0.08735
C_ C_ 0.365092 0.55762 0.17139 -0.05681
C_ C_ 0.363412 0.57989 0.144155 -0.05681
C_ C_ 0.359732 0.549627 0.119216 -0.08735
C_ C_ 0.366174 -0.0034570000000000434 0.120879 -0.08735
C_ C_ 0.372299 0.58767 0.194933 -0.08735
C_ C_ 0.377855 0.641145 0.192148 -0.08735
C_ C_ 0.370054 0.664114 0.16533 -0.05681
C_ C_ 0.369907 0.632398 0.141483 -0.08735
C_ C_ 0.457234 0.818925 0.159122 0.68181
C_ C_ 0.384222 0.871208 0.235051 0.1947
C_ C_ 0.393962 0.886558 0.263879 -0.08735
C_ C_ 0.372997 0.861221 0.286035 -0.08735
C_ C_ 0.347658 0.814983 0.280806 -0.05681
C_ C_ 0.340656 0.799365 0.25222 0.18498
C_ C_ 0.31484 0.75477 0.246128 -0.08735
C_ C_ 0.300372 0.721596 0.26762 -0.08735
C_ C_ 0.31614 0.731232 0.295799 -0.08735
C_ C_ 0.335307 0.781337 0.303472 0.18498
C_ C_ 0.305394 0.80466 0.35051 0.44287
C_ C_ 0.39353 0.785386 0.345538 0.44287
C_ C_ 0.40428 0.800491 0.373775 -0.05681
C_ C_ 0.452524 0.794595 0.384186 -0.08735
C_ C_ 0.462117 0.798531 0.414619 -0.08735
C_ C_ 0.419761 0.812388 0.433039 -0.05681
C_ C_ 0.370771 0.817858 0.421825 -0.05681
C_ C_ 0.364323 0.815673 0.391618 -0.05681
C_ C_ 0.313624 0.815031 0.380453 -0.05681
C_ C_ 0.273048 0.825403 0.398316 -0.08735
C_ C_ 0.280728 0.829084 0.427634 -0.08735
C_ C_ 0.328442 0.825476 0.440248 -0.05681
C_ C_ 0.340181 0.829493 0.470562 0.44287
C_ C_ 0.425293 0.807189 0.463917 0.44287
C_ C_ 0.37706 0.84922 0.0101271 0.18498
C_ C_ 0.403964 0.891998 0.0164879 -0.08735
C_ C_ 0.429238 0.895267 0.0430415 -0.08735
C_ C_ 0.415109 0.865982 0.0664943 -0.08735
C_ C_ 0.377729 0.828797 0.0621842 0.18498
C_ C_ 0.361271 0.818186 0.0335519 -0.05681
C_ C_ 0.332077 0.775186 0.028656 -0.08735
C_ C_ 0.310134 0.750285 0.0507833 -0.08735
C_ C_ 0.322822 0.764536 0.0803404 0.1947
N_ N_ 0.126621 0.669527 0.47835 -0.29468
N_ N_ 0.146078 0.695518 0.0827441 -0.17154
N_ N_ 0.119721 0.645268 0.230582 -0.17154
N_ N_ 0.127608 0.691841 0.332476 -0.29468
N_ N_ 0.352936 0.831189 0.230301 -0.29468
N_ N_ 0.344833 0.788433 0.334068 -0.17154
N_ N_ 0.386195 0.818316 0.481359 -0.17154
N_ N_ 0.35618 0.803026 0.085309 -0.29468
O_ O_ 0.20996 0.674395 0.427857 -0.58347
O_ O_ 0.20016 0.695094 0.383456 -0.58347
O_ O_ 0.138273 0.754702 0.429919 -0.58347
O_ O_ 0.110116 0.754387 0.384865 -0.58347
O_ O_ 0.132963 0.599862 0.426393 -0.58347
O_ O_ 0.134717 0.607168 0.380023 -0.58347
O_ O_ 0.0591791 0.670389 0.429009 -0.58347
O_ O_ 0.05261 0.662044 0.381871 -0.58347
O_ O_ 0.06064 0.72596 0.0834769 -0.46727
O_ O_ 0.226315 0.663145 0.0847748 -0.46727
O_ O_ 0.0396876 0.677371 0.229187 -0.46727
O_ O_ 0.206578 0.618468 0.231989 -0.46727
O_ O_ 0.276909 0.816003 0.18094 -0.58347
O_ O_ 0.286892 0.804757 0.135518 -0.58347
O_ O_ 0.359588 0.746934 0.185303 -0.58347
O_ O_ 0.369045 0.740713 0.138663 -0.58347
O_ O_ 0.344248 0.896304 0.172543 -0.58347
O_ O_ 0.357814 0.890344 0.126778 -0.58347
O_ O_ 0.425757 0.825409 0.179867 -0.58347
O_ O_ 0.439545 0.813945 0.133376 -0.58347
O_ O_ 0.431296 0.774934 0.327877 -0.46727
O_ O_ 0.257867 0.798735 0.341582 -0.46727
O_ O_ 0.47058 0.800106 0.475619 -0.46727
O_ O_ 0.303844 0.839725 0.490094 -0.46727
Zn Zn 0.122927 0.694228 0.881553 0.90689
Zn Zn 0.133096 0.684235 0.929788 0.90689
Zn Zn 0.377802 0.818925 0.632887 0.90689
Zn Zn 0.370343 0.822319 0.68167 0.90689
H_ H_ 0.303882 0.701563 0.946888 0.11455
H_ H_ 0.365126 0.660161 0.85097 0.11455
H_ H_ 0.279385 0.675554 0.857965 0.11455
H_ H_ 0.395626 0.725283 0.961996 0.11455
H_ H_ 0.485636 0.714492 0.953073 0.11455
H_ H_ 0.455322 0.690146 0.865405 0.11455
H_ H_ 0.159405 0.513308 0.94088 0.11455
H_ H_ 0.150328 0.939914 0.845525 0.11455
H_ H_ 0.0979218 0.538405 0.855689 0.11455
H_ H_ 0.0826174 0.94347 0.955921 0.11455
H_ H_ 0.0902738 0.843661 0.954084 0.11455
H_ H_ 0.143779 0.861833 0.865318 0.11455
H_ H_ 0.0755849 0.609762 0.964203 0.11455
H_ H_ 0.0705993 0.576378 0.515032 0.11455
H_ H_ 0.116283 0.618864 0.554936 0.11455
H_ H_ 0.181061 0.759045 0.974563 0.11455
H_ H_ 0.230895 0.796189 0.514006 0.11455
H_ H_ 0.211028 0.768811 0.565908 0.11455
H_ H_ 1.0163723 0.705854 0.624803 0.11455
H_ H_ 0.9999170117 0.696724 0.672925 0.11455
H_ H_ 0.267093 0.680043 0.641291 0.11455
H_ H_ 0.251674 0.676181 0.69159 0.11455
H_ H_ 0.0664485 0.587712 0.752152 0.11455
H_ H_ 0.0379624 0.575153 0.801091 0.11455
H_ H_ 0.0632109 0.629865 0.840349 0.11455
H_ H_ 0.16552 0.745094 0.757504 0.11455
H_ H_ 0.190288 0.797466 0.798901 0.11455
H_ H_ 0.189434 0.757967 0.848203 0.11455
H_ H_ 0.202928 0.816725 0.697854 0.11455
H_ H_ 0.137348 0.834151 0.597817 0.11455
H_ H_ 0.22692 0.830447 0.607157 0.11455
H_ H_ 0.115307 0.796861 0.714834 0.11455
H_ H_ 0.0221258 0.806012 0.707701 0.11455
H_ H_ 0.0494792 0.821504 0.617904 0.11455
H_ H_ 0.394813 0.984886 0.69112 0.11455
H_ H_ 0.418144 0.567089 0.605593 0.11455
H_ H_ 0.346065 0.981122 0.604168 0.11455
H_ H_ 0.335059 0.572674 0.715735 0.11455
H_ H_ 0.341048 0.668575 0.710759 0.11455
H_ H_ 0.410813 0.652997 0.629901 0.11455
H_ H_ 0.428719 0.904199 0.716056 0.11455
H_ H_ 0.428195 0.942252 0.763015 0.11455
H_ H_ 0.391678 0.891464 0.803904 0.11455
H_ H_ 0.309411 0.764474 0.722337 0.11455
H_ H_ 0.291201 0.704697 0.76191 0.11455
H_ H_ 0.314601 0.726745 0.810345 0.11455
H_ H_ 0.4861 0.80753 0.876772 0.11455
H_ H_ 0.486585 0.81495 0.928731 0.11455
H_ H_ 0.22949 0.836744 0.881555 0.11455
H_ H_ 0.23425 0.841655 0.934168 0.11455
H_ H_ 0.420007 0.913325 0.999379 0.11455
H_ H_ 0.463712 0.922058 0.545649 0.11455
H_ H_ 0.443035 0.871394 0.586659 0.11455
H_ H_ 0.349015 0.737902 0.510988 0.11455
H_ H_ 0.30486 0.705319 0.552015 0.11455
H_ H_ 0.325408 0.735703 0.601814 0.11455
C_ C_ 0.228751 0.692456 0.907004 0.68181
C_ C_ 0.283731 0.694712 0.90295 -0.05681
C_ C_ 0.317002 0.705054 0.925295 -0.08735
C_ C_ 0.370818 0.699072 0.920711 -0.05681
C_ C_ 0.38877 0.685803 0.892967 -0.05681
C_ C_ 0.352123 0.673883 0.871913 -0.08735
C_ C_ 0.303293 0.677665 0.876838 -0.08735
C_ C_ 0.405406 0.706903 0.942336 -0.08735
C_ C_ 0.457688 0.69955 0.937503 -0.08735
C_ C_ 0.475311 0.68447 0.91123 -0.05681
C_ C_ 0.440905 0.683052 0.888004 -0.08735
C_ C_ 0.119905 0.788388 0.908825 0.68181
C_ C_ 0.13514 0.588478 0.902104 0.68181
C_ C_ 0.128652 0.531582 0.89882 -0.05681
C_ C_ 0.118494 1.00648991 0.917534 -0.08735
C_ C_ 0.117177 0.95183 0.91558 -0.05681
C_ C_ 0.130669 0.928862 0.889273 -0.05681
C_ C_ 0.137539 0.959779 0.864894 -0.08735
C_ C_ 0.139855 0.0118908 0.867547 -0.08735
C_ C_ 0.100523 0.921628 0.938521 -0.08735
C_ C_ 0.103857 0.868008 0.936436 -0.08735
C_ C_ 0.120305 0.844817 0.910889 -0.05681
C_ C_ 0.134314 0.875814 0.886745 -0.08735
C_ C_ 0.0294041 0.683374 0.908376 0.68181
C_ C_ 0.098483 0.629788 0.982466 0.1947
C_ C_ 0.0920204 0.610925 0.511929 -0.08735
C_ C_ 0.116018 0.636108 0.533654 -0.08735
C_ C_ 0.138719 0.683525 0.529123 -0.05681
C_ C_ 0.147661 0.696626 0.500037 0.18498
C_ C_ 0.169485 0.74751 0.995803 -0.08735
C_ C_ 0.206318 0.762967 0.518186 -0.08735
C_ C_ 0.191877 0.750154 0.546635 -0.08735
C_ C_ 0.158322 0.71183 0.552668 0.18498
C_ C_ 0.19145 0.678691 0.598741 0.44287
C_ C_ 0.104081 0.697753 0.593927 0.44287
C_ C_ 0.0956305 0.689367 0.623694 -0.05681
C_ C_ 0.0488818 0.697047 0.636321 -0.08735
C_ C_ 0.0389925 0.690064 0.664726 -0.08735
C_ C_ 0.0818169 0.682203 0.684269 -0.05681
C_ C_ 0.130822 0.677137 0.671835 -0.05681
C_ C_ 0.13812 0.68099 0.64127 -0.05681
C_ C_ 0.186666 0.676792 0.629329 -0.05681
C_ C_ 0.22776 0.676656 0.648329 -0.08735
C_ C_ 0.219635 0.673273 0.678018 -0.08735
C_ C_ 0.171732 0.674656 0.689861 -0.05681
C_ C_ 0.164328 0.667733 0.719839 0.44287
C_ C_ 0.0757007 0.677926 0.714046 0.44287
C_ C_ 0.106739 0.65909 0.76149 0.18498
C_ C_ 0.0781851 0.615081 0.768652 -0.08735
C_ C_ 0.0631473 0.605686 0.79653 -0.08735
C_ C_ 0.0800463 0.635018 0.819088 -0.08735
C_ C_ 0.111466 0.677261 0.813304 0.18498
C_ C_ 0.119297 0.694148 0.784306 -0.05681
C_ C_ 0.153031 0.735349 0.778879 -0.08735
C_ C_ 0.171227 0.762137 0.802491 -0.08735
C_ C_ 0.167879 0.741851 0.829984 0.1947
C_ C_ 0.276516 0.828797 0.656521 0.68181
C_ C_ 0.222429 0.827393 0.652793 -0.05681
C_ C_ 0.189046 0.821503 0.676298 -0.08735
C_ C_ 0.137002 0.818571 0.672083 -0.05681
C_ C_ 0.117354 0.824489 0.643211 -0.05681
C_ C_ 0.150326 0.834696 0.620771 -0.08735
C_ C_ 0.201985 0.834797 0.625867 -0.08735
C_ C_ 0.10211 0.806627 0.693625 -0.08735
C_ C_ 0.0494929 0.810804 0.68883 -0.08735
C_ C_ 0.0288551 0.822015 0.66114 -0.05681
C_ C_ 0.0627383 0.822851 0.638594 -0.08735
C_ C_ 0.379975 0.723736 0.66726 0.68181
C_ C_ 0.373692 0.917799 0.648236 0.68181
C_ C_ 0.36989 0.97361 0.646945 -0.05681
C_ C_ 0.366614 0.506802 0.674283 -0.08735
C_ C_ 0.369012 0.561224 0.672843 -0.05681
C_ C_ 0.384022 0.581849 0.647427 -0.05681
C_ C_ 0.396307 0.552849 0.623737 -0.08735
C_ C_ 0.363193 0.999527 0.621869 -0.08735
C_ C_ 0.349692 0.590253 0.69571 -0.08735
C_ C_ 0.353061 0.643676 0.693228 -0.08735
C_ C_ 0.376794 0.667047 0.669688 -0.05681
C_ C_ 0.393642 0.635198 0.64701 -0.08735
C_ C_ 0.473852 0.823501 0.659344 0.68181
C_ C_ 0.406035 0.885955 0.731685 0.1947
C_ C_ 0.411498 0.903516 0.759693 -0.08735
C_ C_ 0.390254 0.875244 0.782495 -0.08735
C_ C_ 0.36063 0.831256 0.777331 -0.05681
C_ C_ 0.351691 0.818536 0.748083 0.18498
C_ C_ 0.324667 0.773901 0.742393 -0.08735
C_ C_ 0.309887 0.741152 0.76538 -0.08735
C_ C_ 0.325895 0.75283 0.79362 -0.08735
C_ C_ 0.342171 0.80224 0.800651 0.18498
C_ C_ 0.306807 0.823981 0.847118 0.44287
C_ C_ 0.396251 0.808425 0.843879 0.44287
C_ C_ 0.40298 0.821406 0.874076 -0.05681
C_ C_ 0.449483 0.815246 0.888141 -0.08735
C_ C_ 0.452399 0.821452 0.9176 -0.08735
C_ C_ 0.408702 0.82838 0.933942 -0.05681
C_ C_ 0.362374 0.83263 0.919874 -0.05681
C_ C_ 0.357863 0.826136 0.890516 -0.05681
C_ C_ 0.310165 0.831422 0.877132 -0.05681
C_ C_ 0.267492 0.836922 0.893229 -0.08735
C_ C_ 0.270735 0.842577 0.922996 -0.08735
C_ C_ 0.318964 0.838542 0.936559 -0.05681
C_ C_ 0.324049 0.845347 0.966891 0.44287
C_ C_ 0.410711 0.827908 0.964399 0.44287
C_ C_ 0.397117 0.830097 0.510959 0.18498
C_ C_ 0.418535 0.878886 0.515907 -0.08735
C_ C_ 0.433475 0.893915 0.543696 -0.08735
C_ C_ 0.428096 0.859457 0.565841 -0.08735
C_ C_ 0.399475 0.814413 0.563503 0.18498
C_ C_ 0.382958 0.79965 0.534672 -0.05681
C_ C_ 0.355066 0.755565 0.53101 -0.08735
C_ C_ 0.333178 0.733047 0.555367 -0.08735
C_ C_ 0.340711 0.753611 0.582873 0.1947
N_ N_ 0.12243 0.674336 0.977379 -0.29468
N_ N_ 0.151021 0.69173 0.581998 -0.17154
N_ N_ 0.117833 0.669645 0.731601 -0.17154
N_ N_ 0.133737 0.704145 0.83505 -0.29468
N_ N_ 0.374399 0.847168 0.725901 -0.29468
N_ N_ 0.348229 0.813556 0.830835 -0.17154
N_ N_ 0.368079 0.836314 0.980006 -0.17154
N_ N_ 0.375915 0.79372 0.586684 -0.29468
O_ O_ 0.209089 0.690954 0.93162 -0.58347
O_ O_ 0.199424 0.695286 0.8852 -0.58347
O_ O_ 0.127682 0.761042 0.930612 -0.58347
O_ O_ 0.118996 0.768459 0.884594 -0.58347
O_ O_ 0.140651 0.608135 0.927003 -0.58347
O_ O_ 0.12624 0.617321 0.880881 -0.58347
O_ O_ 0.0579816 0.675757 0.929061 -0.58347
O_ O_ 0.0474699 0.693133 0.883861 -0.58347
O_ O_ 0.066104 0.706723 0.576629 -0.46727
O_ O_ 0.23509 0.683337 0.587312 -0.46727
O_ O_ 0.0324821 0.687741 0.72598 -0.46727
O_ O_ 0.203494 0.661873 0.73672 -0.46727
O_ O_ 0.295816 0.818197 0.681009 -0.58347
O_ O_ 0.304404 0.829741 0.634273 -0.58347
O_ O_ 0.381493 0.750555 0.689054 -0.58347
O_ O_ 0.373461 0.744157 0.642545 -0.58347
O_ O_ 0.362435 0.896411 0.672033 -0.58347
O_ O_ 0.385511 0.892287 0.626961 -0.58347
O_ O_ 0.443699 0.829776 0.680133 -0.58347
O_ O_ 0.454023 0.813172 0.635507 -0.58347
O_ O_ 0.434907 0.793586 0.828336 -0.46727
O_ O_ 0.262223 0.824996 0.835007 -0.46727
O_ O_ 0.455894 0.816368 0.977533 -0.46727
O_ O_ 0.283665 0.852975 0.982382 -0.46727
Zn Zn 0.637342 0.182039 0.384181 0.90689
Zn Zn 0.645932 0.183889 0.432627 0.90689
Zn Zn 0.868485 0.310898 0.129464 0.90689
Zn Zn 0.856604 0.315117 0.176354 0.90689
H_ H_ 0.810924 0.192204 0.447565 0.11455
H_ H_ 0.886135 0.169056 0.351118 0.11455
H_ H_ 0.792889 0.161106 0.355874 0.11455
H_ H_ 0.895246 0.179066 0.467829 0.11455
H_ H_ 0.993248 0.173367 0.460701 0.11455
H_ H_ 0.966925 0.176434 0.369579 0.11455
H_ H_ 0.61895 0.012678 0.443573 0.11455
H_ H_ 0.609163 0.437457 0.348404 0.11455
H_ H_ 0.663664 0.0299618 0.354483 0.11455
H_ H_ 0.659305 0.437629 0.463822 0.11455
H_ H_ 0.643341 0.345852 0.462896 0.11455
H_ H_ 0.613131 0.352523 0.370505 0.11455
H_ H_ 0.600219 0.106093 0.465261 0.11455
H_ H_ 0.550919 0.0869151 0.0106167 0.11455
H_ H_ 0.600559 0.113026 0.0503813 0.11455
H_ H_ 0.711165 0.24122 0.474148 0.11455
H_ H_ 0.697477 0.310733 0.0173316 0.11455
H_ H_ 0.691008 0.273439 0.0664416 0.11455
H_ H_ 0.508175 0.192854 0.122979 0.11455
H_ H_ 0.501656 0.205757 0.172826 0.11455
H_ H_ 0.75784 0.17182 0.136994 0.11455
H_ H_ 0.750988 0.148716 0.18744 0.11455
H_ H_ 0.561298 0.101931 0.249415 0.11455
H_ H_ 0.552405 0.0697144 0.299389 0.11455
H_ H_ 0.580125 0.124959 0.33994 0.11455
H_ H_ 0.681747 0.243214 0.259131 0.11455
H_ H_ 0.712871 0.285744 0.301016 0.11455
H_ H_ 0.696339 0.256688 0.349346 0.11455
H_ H_ 0.685875 0.321952 0.198038 0.11455
H_ H_ 0.622882 0.32168 0.0975074 0.11455
H_ H_ 0.714509 0.324439 0.106779 0.11455
H_ H_ 0.597851 0.319436 0.215357 0.11455
H_ H_ 0.509801 0.317435 0.206451 0.11455
H_ H_ 0.535616 0.321012 0.11714 0.11455
H_ H_ 0.854509 0.480734 0.188784 0.11455
H_ H_ 0.859083 0.0630252 0.0981536 0.11455
H_ H_ 0.891094 0.470627 0.100396 0.11455
H_ H_ 0.855706 0.0669447 0.216813 0.11455
H_ H_ 0.851998 0.161104 0.21108 0.11455
H_ H_ 0.85875 0.145472 0.119689 0.11455
H_ H_ 0.91035 0.395175 0.209344 0.11455
H_ H_ 0.928224 0.425071 0.256528 0.11455
H_ H_ 0.896615 0.382012 0.301563 0.11455
H_ H_ 0.800826 0.24875 0.224671 0.11455
H_ H_ 0.785927 0.195546 0.265765 0.11455
H_ H_ 0.832561 0.210216 0.311548 0.11455
H_ H_ 1.0022138 0.298608 0.370889 0.11455
H_ H_ 0.0117103 0.28853 0.423525 0.11455
H_ H_ 0.748085 0.307801 0.387268 0.11455
H_ H_ 0.762088 0.326811 0.439544 0.11455
H_ H_ 0.965548 0.387849 0.499142 0.11455
H_ H_ 0.944305 0.427958 0.0492947 0.11455
H_ H_ 0.930416 0.363458 0.0852158 0.11455
H_ H_ 0.822717 0.254942 0.00738236 0.11455
H_ H_ 0.780054 0.21271 0.0491858 0.11455
H_ H_ 0.801691 0.240337 0.0975327 0.11455
C_ C_ 0.740056 0.182387 0.407437 0.68181
C_ C_ 0.794846 0.177696 0.402735 -0.05681
C_ C_ 0.827637 0.18664 0.426226 -0.08735
C_ C_ 0.881176 0.180568 0.423129 -0.05681
C_ C_ 0.90131 0.174158 0.395315 -0.05681
C_ C_ 0.868869 0.174239 0.371893 -0.08735
C_ C_ 0.816348 0.168242 0.375573 -0.08735
C_ C_ 0.914078 0.177546 0.447139 -0.08735
C_ C_ 0.966889 0.176961 0.442658 -0.08735
C_ C_ 0.987138 0.175006 0.414397 -0.05681
C_ C_ 0.953806 0.176566 0.39091 -0.08735
C_ C_ 0.63443 0.282706 0.413937 0.68181
C_ C_ 0.647425 0.0853921 0.402408 0.68181
C_ C_ 0.649187 0.0279065 0.400518 -0.05681
C_ C_ 0.651931 0.499872 0.418425 -0.08735
C_ C_ 0.641633 0.447521 0.41889 -0.05681
C_ C_ 0.632969 0.423971 0.392686 -0.05681
C_ C_ 0.616678 0.454993 0.368826 -0.08735
C_ C_ 0.623911 0.508096 0.369468 -0.08735
C_ C_ 0.651522 0.418101 0.443681 -0.08735
C_ C_ 0.645342 0.364831 0.441839 -0.08735
C_ C_ 0.638809 0.341115 0.415221 -0.05681
C_ C_ 0.63158 0.371255 0.389908 -0.08735
C_ C_ 0.542209 0.183105 0.408334 0.68181
C_ C_ 0.61174 0.129322 0.482958 0.1947
C_ C_ 0.577183 0.117751 0.00762717 -0.08735
C_ C_ 0.60521 0.132679 0.0303908 -0.08735
C_ C_ 0.640122 0.172449 0.0272938 -0.05681
C_ C_ 0.649572 0.194569 0.999113 0.18498
C_ C_ 0.695818 0.233696 0.494758 -0.08735
C_ C_ 0.684868 0.270123 0.0196297 -0.08735
C_ C_ 0.680065 0.250699 0.0479813 -0.08735
C_ C_ 0.653485 0.203418 0.0520544 0.18498
C_ C_ 0.683671 0.169745 0.0965767 0.44287
C_ C_ 0.598246 0.195222 0.0939901 0.44287
C_ C_ 0.591592 0.190202 0.12338 -0.05681
C_ C_ 0.54379 0.197162 0.135927 -0.08735
C_ C_ 0.540364 0.198964 0.165856 -0.08735
C_ C_ 0.582658 0.191855 0.183599 -0.05681
C_ C_ 0.629784 0.182065 0.170667 -0.05681
C_ C_ 0.632733 0.178114 0.140262 -0.05681
C_ C_ 0.679785 0.168592 0.128177 -0.05681
C_ C_ 0.72254 0.164149 0.145872 -0.08735
C_ C_ 0.716585 0.157598 0.174857 -0.08735
C_ C_ 0.667933 0.164539 0.187611 -0.05681
C_ C_ 0.662608 0.164272 0.218061 0.44287
C_ C_ 0.578192 0.194927 0.213802 0.44287
C_ C_ 0.610429 0.1642 0.260581 0.18498
C_ C_ 0.581467 0.119009 0.266647 -0.08735
C_ C_ 0.574436 0.102284 0.295278 -0.08735
C_ C_ 0.591093 0.132879 0.317581 -0.08735
C_ C_ 0.623825 0.173628 0.312947 0.18498
C_ C_ 0.634268 0.190853 0.284724 -0.05681
C_ C_ 0.668606 0.230738 0.280658 -0.08735
C_ C_ 0.693485 0.250889 0.3039 -0.08735
C_ C_ 0.681507 0.235757 0.331934 0.1947
C_ C_ 0.762264 0.315899 0.154995 0.68181
C_ C_ 0.707956 0.32062 0.15253 -0.05681
C_ C_ 0.6725 0.32116 0.176132 -0.08735
C_ C_ 0.620163 0.321244 0.170556 -0.05681
C_ C_ 0.60133 0.319075 0.14264 -0.05681
C_ C_ 0.637135 0.322259 0.119913 -0.08735
C_ C_ 0.688047 0.320783 0.124434 -0.08735
C_ C_ 0.584877 0.323327 0.193564 -0.08735
C_ C_ 0.53276 0.325353 0.188493 -0.08735
C_ C_ 0.513343 0.321718 0.160847 -0.05681
C_ C_ 0.549182 0.318507 0.138249 -0.08735
C_ C_ 0.865673 0.214554 0.161328 0.68181
C_ C_ 0.86172 0.411383 0.146274 0.68181
C_ C_ 0.869403 0.468722 0.144697 -0.05681
C_ C_ 0.850589 -0.0014239999999999808 0.174297 -0.08735
C_ C_ 0.855231 0.0517076 0.171655 -0.05681
C_ C_ 0.855892 0.0743389 0.144209 -0.05681
C_ C_ 0.856026 0.0444246 0.119232 -0.08735
C_ C_ 0.880834 0.493788 0.119218 -0.08735
C_ C_ 0.856116 0.0834795 0.195658 -0.08735
C_ C_ 0.858804 0.136151 0.193106 -0.08735
C_ C_ 0.867095 0.15907 0.16478 -0.05681
C_ C_ 0.859303 0.128442 0.141352 -0.08735
C_ C_ 0.9621 0.312491 0.153626 0.68181
C_ C_ 0.895029 0.373739 0.227772 0.1947
C_ C_ 0.908822 0.390786 0.255084 -0.08735
C_ C_ 0.895634 0.363258 0.279949 -0.08735
C_ C_ 0.868114 0.319732 0.276926 -0.05681
C_ C_ 0.848543 0.304738 0.248732 0.18498
C_ C_ 0.814862 0.262185 0.245592 -0.08735
C_ C_ 0.810341 0.227203 0.268654 -0.08735
C_ C_ 0.831955 0.238084 0.295282 -0.08735
C_ C_ 0.856786 0.285016 0.299658 0.18498
C_ C_ 0.821905 0.304287 0.347457 0.44287
C_ C_ 0.912333 0.300548 0.34099 0.44287
C_ C_ 0.919114 0.299307 0.371983 -0.05681
C_ C_ 0.967323 0.296696 0.385366 -0.08735
C_ C_ 0.973466 0.295094 0.414952 -0.08735
C_ C_ 0.930515 0.304046 0.432194 -0.05681
C_ C_ 0.883483 0.31335 0.419472 -0.05681
C_ C_ 0.876591 0.307604 0.389714 -0.05681
C_ C_ 0.826482 0.309376 0.37767 -0.05681
C_ C_ 0.784859 0.316171 0.395174 -0.08735
C_ C_ 0.793123 0.322692 0.425318 -0.08735
C_ C_ 0.843093 0.325278 0.437411 -0.05681
C_ C_ 0.850947 0.331259 0.466505 0.44287
C_ C_ 0.936323 0.308364 0.462446 0.44287
C_ C_ 0.878252 0.341686 0.00815808 0.18498
C_ C_ 0.908792 0.385037 0.0153984 -0.08735
C_ C_ 0.921225 0.395004 0.0437962 -0.08735
C_ C_ 0.908642 0.361397 0.0650964 -0.08735
C_ C_ 0.872955 0.324637 0.0609568 0.18498
C_ C_ 0.860492 0.310032 0.031733 -0.05681
C_ C_ 0.828752 0.267805 0.0283476 -0.08735
C_ C_ 0.811656 0.238769 0.0525296 -0.08735
C_ C_ 0.822279 0.257711 0.0790751 0.1947
N_ N_ 0.645238 0.168254 0.478322 -0.29468
N_ N_ 0.645417 0.185985 0.0814115 -0.17154
N_ N_ 0.617134 0.176972 0.230115 -0.17154
N_ N_ 0.643371 0.19991 0.335856 -0.29468
N_ N_ 0.864755 0.3299 0.224722 -0.29468
N_ N_ 0.863293 0.29918 0.329505 -0.17154
N_ N_ 0.897019 0.322323 0.479283 -0.17154
N_ N_ 0.860732 0.29212 0.0827091 -0.29468
O_ O_ 0.720628 0.186554 0.431357 -0.58347
O_ O_ 0.711787 0.180935 0.384984 -0.58347
O_ O_ 0.635964 0.257824 0.43657 -0.58347
O_ O_ 0.640177 0.259469 0.390368 -0.58347
O_ O_ 0.652 0.108861 0.425888 -0.58347
O_ O_ 0.634605 0.10949 0.380771 -0.58347
O_ O_ 0.569078 0.179914 0.429865 -0.58347
O_ O_ 0.563307 0.187129 0.383642 -0.58347
O_ O_ 0.556182 0.197378 0.0777137 -0.46727
O_ O_ 0.729231 0.166784 0.0846339 -0.46727
O_ O_ 0.538774 0.219726 0.224878 -0.46727
O_ O_ 0.701457 0.1489 0.233957 -0.46727
O_ O_ 0.781954 0.305408 0.178803 -0.58347
O_ O_ 0.792372 0.320903 0.133078 -0.58347
O_ O_ 0.869882 0.241429 0.183149 -0.58347
O_ O_ 0.863624 0.234651 0.137075 -0.58347
O_ O_ 0.851529 0.392016 0.170265 -0.58347
O_ O_ 0.877906 0.384468 0.12592 -0.58347
O_ O_ 0.93202 0.327889 0.172277 -0.58347
O_ O_ 0.945367 0.298339 0.129316 -0.58347
O_ O_ 0.951131 0.294525 0.32409 -0.46727
O_ O_ 0.777639 0.307507 0.33499 -0.46727
O_ O_ 0.979334 0.295899 0.474344 -0.46727
O_ O_ 0.81414 0.344432 0.483149 -0.46727
Zn Zn 0.622336 0.188197 0.880884 0.90689
Zn Zn 0.63584 0.188064 0.929362 0.90689
Zn Zn 0.88466 0.31067 0.631538 0.90689
Zn Zn 0.875831 0.318206 0.679087 0.90689
H_ H_ 0.809134 0.199544 0.943347 0.11455
H_ H_ 0.871804 0.167558 0.843789 0.11455
H_ H_ 0.781197 0.17902 0.8526 0.11455
H_ H_ 0.887393 0.186679 0.962185 0.11455
H_ H_ 0.980549 0.195583 0.954528 0.11455
H_ H_ 0.958924 0.156986 0.866145 0.11455
H_ H_ 0.629577 0.0198862 0.943645 0.11455
H_ H_ 0.639304 0.442725 0.846959 0.11455
H_ H_ 0.609559 0.0334365 0.853021 0.11455
H_ H_ 0.620193 0.42728 0.964731 0.11455
H_ H_ 0.620379 0.338505 0.958898 0.11455
H_ H_ 0.618673 0.352485 0.866135 0.11455
H_ H_ 0.57677 0.116544 0.961851 0.11455
H_ H_ 0.574077 0.0820514 0.514508 0.11455
H_ H_ 0.619884 0.12761 0.555515 0.11455
H_ H_ 0.672061 0.261624 0.975266 0.11455
H_ H_ 0.729235 0.300359 0.509039 0.11455
H_ H_ 0.706596 0.288399 0.560017 0.11455
H_ H_ 0.517741 0.208191 0.619074 0.11455
H_ H_ 0.503823 0.205163 0.671409 0.11455
H_ H_ 0.772564 0.185732 0.638392 0.11455
H_ H_ 0.756953 0.17944 0.691527 0.11455
H_ H_ 0.586921 0.0835167 0.747298 0.11455
H_ H_ 0.565728 0.0664525 0.797484 0.11455
H_ H_ 0.57671 0.120649 0.836237 0.11455
H_ H_ 0.667007 0.255125 0.757381 0.11455
H_ H_ 0.689977 0.30021 0.799606 0.11455
H_ H_ 0.666337 0.270334 0.850236 0.11455
H_ H_ 0.710781 0.32235 0.697262 0.11455
H_ H_ 0.636683 0.334274 0.600839 0.11455
H_ H_ 0.728261 0.316485 0.607594 0.11455
H_ H_ 0.626068 0.321443 0.715534 0.11455
H_ H_ 0.534634 0.31124 0.710075 0.11455
H_ H_ 0.55043 0.344555 0.618985 0.11455
H_ H_ 0.905879 0.48186 0.690858 0.11455
H_ H_ 0.889494 0.0598571 0.597926 0.11455
H_ H_ 0.88097 0.469282 0.60064 0.11455
H_ H_ 0.858431 0.0643505 0.715569 0.11455
H_ H_ 0.868168 0.15808 0.710237 0.11455
H_ H_ 0.886007 0.14484 0.621456 0.11455
H_ H_ 0.932599 0.383632 0.717538 0.11455
H_ H_ 0.93814 0.421121 0.767007 0.11455
H_ H_ 0.87754 0.390514 0.80303 0.11455
H_ H_ 0.817764 0.251367 0.721955 0.11455
H_ H_ 0.771981 0.206328 0.760193 0.11455
H_ H_ 0.792351 0.229933 0.810233 0.11455
H_ H_ 0.975027 0.291571 0.87326 0.11455
H_ H_ -0.015144999999999964 0.293643 0.924448 0.11455
H_ H_ 0.724487 0.336336 0.88694 0.11455
H_ H_ 0.738276 0.36109 0.937079 0.11455
H_ H_ 0.911355 0.418167 0.999844 0.11455
H_ H_ 0.985379 0.411742 0.549132 0.11455
H_ H_ 0.942301 0.360917 0.588317 0.11455
H_ H_ 0.840303 0.25437 0.503997 0.11455
H_ H_ 0.807466 0.207536 0.545473 0.11455
H_ H_ 0.818964 0.239735 0.593146 0.11455
C_ C_ 0.730035 0.190284 0.90418 0.68181
C_ C_ 0.78857 0.184843 0.898315 -0.05681
C_ C_ 0.822234 0.187083 0.92187 -0.08735
C_ C_ 0.872743 0.178926 0.917587 -0.05681
C_ C_ 0.891771 0.169749 0.889685 -0.05681
C_ C_ 0.858754 0.170969 0.866206 -0.08735
C_ C_ 0.80775 0.181411 0.870255 -0.08735
C_ C_ 0.903676 0.183197 0.941324 -0.08735
C_ C_ 0.955844 0.181021 0.937463 -0.08735
C_ C_ 0.976929 0.17596 0.910007 -0.05681
C_ C_ 0.945893 0.168498 0.886744 -0.08735
C_ C_ 0.624119 0.285934 0.909867 0.68181
C_ C_ 0.637135 0.090171 0.898502 0.68181
C_ C_ 0.623703 0.0340461 0.897806 -0.05681
C_ C_ 0.620217 0.498057 0.9217 -0.08735
C_ C_ 0.622917 0.445009 0.918341 -0.05681
C_ C_ 0.620139 0.424724 0.891014 -0.05681
C_ C_ 0.631597 0.45669 0.867579 -0.08735
C_ C_ 0.639099 0.509593 0.870872 -0.08735
C_ C_ 0.621253 0.412731 0.94313 -0.08735
C_ C_ 0.615577 0.361708 0.939217 -0.08735
C_ C_ 0.620951 0.340461 0.911714 -0.05681
C_ C_ 0.62155 0.369763 0.886736 -0.08735
C_ C_ 0.531064 0.182532 0.906534 0.68181
C_ C_ 0.593264 0.132501 0.980022 0.1947
C_ C_ 0.598928 0.114319 0.511464 -0.08735
C_ C_ 0.621988 0.140355 0.5338 -0.08735
C_ C_ 0.649235 0.184901 0.528978 -0.05681
C_ C_ 0.661686 0.19737 0.5001 0.18498
C_ C_ 0.673954 0.240232 0.995041 -0.08735
C_ C_ 0.709867 0.264933 0.516477 -0.08735
C_ C_ 0.69719 0.257207 0.544879 -0.08735
C_ C_ 0.668975 0.215816 0.551413 0.18498
C_ C_ 0.696311 0.188378 0.597984 0.44287
C_ C_ 0.610114 0.20582 0.592286 0.44287
C_ C_ 0.600296 0.199432 0.622396 -0.05681
C_ C_ 0.55003 0.204355 0.633684 -0.08735
C_ C_ 0.541633 0.199179 0.662619 -0.08735
C_ C_ 0.584161 0.195774 0.681511 -0.05681
C_ C_ 0.633787 0.18793 0.670174 -0.05681
C_ C_ 0.641596 0.189469 0.64019 -0.05681
C_ C_ 0.692336 0.189149 0.628423 -0.05681
C_ C_ 0.732912 0.180379 0.645553 -0.08735
C_ C_ 0.724686 0.178421 0.676422 -0.08735
C_ C_ 0.67491 0.178042 0.687754 -0.05681
C_ C_ 0.666484 0.169234 0.716043 0.44287
C_ C_ 0.578055 0.186553 0.71095 0.44287
C_ C_ 0.612843 0.162267 0.75725 0.18498
C_ C_ 0.587935 0.116842 0.763404 -0.08735
C_ C_ 0.571351 0.10652 0.791252 -0.08735
C_ C_ 0.582864 0.136145 0.814368 -0.08735
C_ C_ 0.608011 0.182157 0.810161 0.18498
C_ C_ 0.621973 0.196756 0.780953 -0.05681
C_ C_ 0.655254 0.239054 0.778088 -0.08735
C_ C_ 0.666779 0.267547 0.802281 -0.08735
C_ C_ 0.65403 0.250806 0.830745 0.1947
C_ C_ 0.781222 0.314464 0.655535 0.68181
C_ C_ 0.725284 0.318661 0.651995 -0.05681
C_ C_ 0.693478 0.326776 0.675475 -0.08735
C_ C_ 0.641535 0.328894 0.671493 -0.05681
C_ C_ 0.618726 0.329973 0.644025 -0.05681
C_ C_ 0.652095 0.33006 0.621208 -0.08735
C_ C_ 0.704645 0.326959 0.62436 -0.08735
C_ C_ 0.609551 0.326359 0.694411 -0.08735
C_ C_ 0.55653 0.325301 0.692712 -0.08735
C_ C_ 0.534836 0.32812 0.664196 -0.05681
C_ C_ 0.566647 0.334867 0.640354 -0.08735
C_ C_ 0.876678 0.21362 0.662084 0.68181
C_ C_ 0.882793 0.413374 0.648915 0.68181
C_ C_ 0.884982 0.471292 0.64696 -0.05681
C_ C_ 0.860113 -0.0007819999999999494 0.670215 -0.08735
C_ C_ 0.863086 0.0522399 0.66884 -0.05681
C_ C_ 0.868552 0.0757901 0.641602 -0.05681
C_ C_ 0.874367 0.0444574 0.617365 -0.08735
C_ C_ 0.883221 0.492412 0.619673 -0.08735
C_ C_ 0.861764 0.0817381 0.693811 -0.08735
C_ C_ 0.865855 0.135059 0.690912 -0.08735
C_ C_ 0.867926 0.157385 0.664052 -0.05681
C_ C_ 0.873592 0.127881 0.639643 -0.08735
C_ C_ 0.980684 0.322708 0.657999 0.68181
C_ C_ 0.912622 0.367823 0.734521 0.1947
C_ C_ 0.916543 0.385973 0.76353 -0.08735
C_ C_ 0.884623 0.36653 0.784499 -0.08735
C_ C_ 0.855272 0.321949 0.778707 -0.05681
C_ C_ 0.849312 0.308364 0.749245 0.18498
C_ C_ 0.82137 0.264779 0.743873 -0.08735
C_ C_ 0.796124 0.238714 0.765894 -0.08735
C_ C_ 0.79958 0.255187 0.793453 -0.08735
C_ C_ 0.831324 0.294757 0.800267 0.18498
C_ C_ 0.799689 0.319731 0.84683 0.44287
C_ C_ 0.883289 0.288379 0.843044 0.44287
C_ C_ 0.89265 0.296213 0.872659 -0.05681
C_ C_ 0.94148 0.295299 0.885557 -0.08735
C_ C_ 0.946737 0.297957 0.915231 -0.08735
C_ C_ 0.904868 0.311573 0.931811 -0.05681
C_ C_ 0.857962 0.320091 0.919635 -0.05681
C_ C_ 0.851053 0.314168 0.889547 -0.05681
C_ C_ 0.804298 0.325647 0.876593 -0.05681
C_ C_ 0.763497 0.339548 0.894426 -0.08735
C_ C_ 0.770355 0.347163 0.924501 -0.08735
C_ C_ 0.816996 0.339529 0.936868 -0.05681
C_ C_ 0.826427 0.342249 0.965979 0.44287
C_ C_ 0.911746 0.316375 0.961812 0.44287
C_ C_ 0.907449 0.333034 0.50954 0.18498
C_ C_ 0.94566 0.369406 0.516712 -0.08735
C_ C_ 0.960833 0.376368 0.544839 -0.08735
C_ C_ 0.935128 0.350706 0.56653 -0.08735
C_ C_ 0.894232 0.319122 0.560712 0.18498
C_ C_ 0.880725 0.309007 0.531245 -0.05681
C_ C_ 0.850555 0.267657 0.525557 -0.08735
C_ C_ 0.831872 0.239271 0.548877 -0.08735
C_ C_ 0.841523 0.254759 0.576968 0.1947
N_ N_ 0.630759 0.167704 0.975966 -0.29468
N_ N_ 0.657848 0.204729 0.580916 -0.17154
N_ N_ 0.619517 0.176599 0.727578 -0.17154
N_ N_ 0.621387 0.211048 0.834032 -0.29468
N_ N_ 0.87991 0.330016 0.72826 -0.29468
N_ N_ 0.839572 0.305023 0.830635 -0.17154
N_ N_ 0.871403 0.330114 0.977976 -0.17154
N_ N_ 0.872521 0.29364 0.582656 -0.29468
O_ O_ 0.712445 0.191077 0.929695 -0.58347
O_ O_ 0.701314 0.196031 0.881757 -0.58347
O_ O_ 0.638346 0.25983 0.930634 -0.58347
O_ O_ 0.607956 0.262465 0.887816 -0.58347
O_ O_ 0.639206 0.113751 0.922813 -0.58347
O_ O_ 0.634335 0.115317 0.875857 -0.58347
O_ O_ 0.55835 0.184029 0.928252 -0.58347
O_ O_ 0.549383 0.179699 0.881291 -0.58347
O_ O_ 0.571895 0.219368 0.576233 -0.46727
O_ O_ 0.73995 0.182275 0.586795 -0.46727
O_ O_ 0.534218 0.194135 0.722099 -0.46727
O_ O_ 0.705771 0.156902 0.73263 -0.46727
O_ O_ 0.803272 0.323296 0.679242 -0.58347
O_ O_ 0.807566 0.304817 0.633001 -0.58347
O_ O_ 0.871325 0.241536 0.683593 -0.58347
O_ O_ 0.883624 0.233976 0.636956 -0.58347
O_ O_ 0.878791 0.393089 0.673752 -0.58347
O_ O_ 0.878007 0.386602 0.626404 -0.58347
O_ O_ 0.95195 0.315043 0.679091 -0.58347
O_ O_ 0.96154 0.315151 0.632911 -0.58347
O_ O_ 0.92049 0.274097 0.826594 -0.46727
O_ O_ 0.757761 0.334557 0.834623 -0.46727
O_ O_ 0.955507 0.306961 0.972152 -0.46727
O_ O_ 0.785266 0.347953 0.982388 -0.46727
Zn Zn 0.622846 0.689447 0.380065 0.90689
Zn Zn 0.637288 0.680211 0.428829 0.90689
Zn Zn 0.863894 0.808356 0.132475 0.90689
Zn Zn 0.854988 0.814261 0.179239 0.90689
H_ H_ 0.804338 0.686951 0.44244 0.11455
H_ H_ 0.874965 0.672328 0.346563 0.11455
H_ H_ 0.78366 0.688905 0.354089 0.11455
H_ H_ 0.88748 0.706744 0.460445 0.11455
H_ H_ 0.979761 0.697581 0.455859 0.11455
H_ H_ 0.95562 0.661124 0.365363 0.11455
H_ H_ 0.676479 0.517973 0.435044 0.11455
H_ H_ 0.653122 0.934823 0.348153 0.11455
H_ H_ 0.610257 0.527026 0.351643 0.11455
H_ H_ 0.616188 0.929017 0.465383 0.11455
H_ H_ 0.606757 0.838964 0.457599 0.11455
H_ H_ 0.627194 0.853464 0.367684 0.11455
H_ H_ 0.593559 0.60674 0.4625 0.11455
H_ H_ 0.551818 0.587054 0.01516 0.11455
H_ H_ 0.593551 0.631858 0.0570698 0.11455
H_ H_ 0.66511 0.762828 0.47457 0.11455
H_ H_ 0.714256 0.804982 0.0148585 0.11455
H_ H_ 0.690459 0.776565 0.0662448 0.11455
H_ H_ 0.501063 0.705833 0.127372 0.11455
H_ H_ 0.497313 0.684982 0.17889 0.11455
H_ H_ 0.755478 0.67532 0.132135 0.11455
H_ H_ 0.748877 0.649562 0.18217 0.11455
H_ H_ 0.572294 0.576676 0.251568 0.11455
H_ H_ 0.546875 0.557456 0.301727 0.11455
H_ H_ 0.567885 0.625745 0.338269 0.11455
H_ H_ 0.651406 0.738065 0.252968 0.11455
H_ H_ 0.677411 0.796179 0.294216 0.11455
H_ H_ 0.670286 0.769117 0.342977 0.11455
H_ H_ 0.684354 0.800531 0.199617 0.11455
H_ H_ 0.61656 0.846357 0.103692 0.11455
H_ H_ 0.70841 0.828906 0.109877 0.11455
H_ H_ 0.594149 0.794373 0.218382 0.11455
H_ H_ 0.5015 0.788081 0.207934 0.11455
H_ H_ 0.529482 0.847475 0.123146 0.11455
H_ H_ 0.853063 0.978551 0.195363 0.11455
H_ H_ 0.892308 0.562573 0.094008 0.11455
H_ H_ 0.852166 0.970585 0.102204 0.11455
H_ H_ 0.857156 0.567727 0.213229 0.11455
H_ H_ 0.850249 0.65626 0.205263 0.11455
H_ H_ 0.910914 0.645223 0.121819 0.11455
H_ H_ 0.9182 0.892687 0.211844 0.11455
H_ H_ 0.930026 0.9292 0.261447 0.11455
H_ H_ 0.902436 0.876711 0.302786 0.11455
H_ H_ 0.803706 0.757525 0.22237 0.11455
H_ H_ 0.792783 0.696486 0.26081 0.11455
H_ H_ 0.803691 0.722574 0.310607 0.11455
H_ H_ 0.990003 0.796451 0.369805 0.11455
H_ H_ 0.00048000000000003595 0.796082 0.420737 0.11455
H_ H_ 0.737948 0.819754 0.388301 0.11455
H_ H_ 0.748293 0.831311 0.4399 0.11455
H_ H_ 0.933824 0.910298 0.500011 0.11455
H_ H_ 0.965769 0.921915 0.0503662 0.11455
H_ H_ 0.913563 0.882258 0.0893017 0.11455
H_ H_ 0.83208 0.762373 0.00501024 0.11455
H_ H_ 0.799245 0.710811 0.0432883 0.11455
H_ H_ 0.808415 0.740736 0.0933594 0.11455
C_ C_ 0.729776 0.690963 0.402576 0.68181
C_ C_ 0.785219 0.685037 0.399024 -0.05681
C_ C_ 0.818142 0.686946 0.422294 -0.08735
C_ C_ 0.870807 0.686254 0.417774 -0.05681
C_ C_ 0.8907 0.677168 0.390246 -0.05681
C_ C_ 0.859019 0.677643 0.367755 -0.08735
C_ C_ 0.806254 0.681193 0.371469 -0.08735
C_ C_ 0.903249 0.696413 0.440328 -0.08735
C_ C_ 0.955769 0.687893 0.436357 -0.08735
C_ C_ 0.976965 0.671 0.409916 -0.05681
C_ C_ 0.943803 0.671576 0.385953 -0.08735
C_ C_ 0.617029 0.782824 0.409877 0.68181
C_ C_ 0.63891 0.588861 0.397282 0.68181
C_ C_ 0.642259 0.531949 0.39513 -0.05681
C_ C_ 0.627105 0.996076 0.422559 -0.08735
C_ C_ 0.628343 0.943722 0.420016 -0.05681
C_ C_ 0.640481 0.922253 0.393584 -0.05681
C_ C_ 0.652186 0.952852 0.368919 -0.08735
C_ C_ 0.658985 1.00603082 0.373049 -0.08735
C_ C_ 0.62451 0.913001 0.443999 -0.08735
C_ C_ 0.619792 0.860524 0.440308 -0.08735
C_ C_ 0.625509 0.836581 0.413205 -0.05681
C_ C_ 0.63793 0.867979 0.388693 -0.08735
C_ C_ 0.531925 0.673625 0.405513 0.68181
C_ C_ 0.61585 0.622482 0.478609 0.1947
C_ C_ 0.577867 0.619091 0.0124043 -0.08735
C_ C_ 0.601181 0.643032 0.0351927 -0.08735
C_ C_ 0.626772 0.686966 0.0295556 -0.05681
C_ C_ 0.640825 0.700016 1.00176091 0.18498
C_ C_ 0.673378 0.746709 0.494506 -0.08735
C_ C_ 0.686207 0.773022 0.020055 -0.08735
C_ C_ 0.673205 0.760685 0.0481481 -0.08735
C_ C_ 0.643235 0.717999 0.0530659 0.18498
C_ C_ 0.677563 0.690496 0.097509 0.44287
C_ C_ 0.5885 0.700357 0.0951486 0.44287
C_ C_ 0.581831 0.685781 0.123549 -0.05681
C_ C_ 0.534129 0.689172 0.137587 -0.08735
C_ C_ 0.531725 0.681528 0.16719 -0.08735
C_ C_ 0.575895 0.672805 0.183377 -0.05681
C_ C_ 0.6227 0.666714 0.169551 -0.05681
C_ C_ 0.625361 0.675044 0.139177 -0.05681
C_ C_ 0.674466 0.677994 0.126527 -0.05681
C_ C_ 0.71875 0.66974 0.142748 -0.08735
C_ C_ 0.714546 0.659257 0.171678 -0.08735
C_ C_ 0.66793 0.655123 0.185563 -0.05681
C_ C_ 0.664334 0.647136 0.21529 0.44287
C_ C_ 0.574348 0.666009 0.212706 0.44287
C_ C_ 0.611037 0.644799 0.259886 0.18498
C_ C_ 0.58412 0.602162 0.268035 -0.08735
C_ C_ 0.571511 0.590233 0.296172 -0.08735
C_ C_ 0.585705 0.62458 0.317957 -0.08735
C_ C_ 0.617947 0.666252 0.311346 0.18498
C_ C_ 0.62858 0.680042 0.282464 -0.05681
C_ C_ 0.650145 0.726434 0.275599 -0.08735
C_ C_ 0.659049 0.760407 0.298233 -0.08735
C_ C_ 0.654593 0.745091 0.326123 0.1947
C_ C_ 0.757996 0.802469 0.158586 0.68181
C_ C_ 0.702893 0.812793 0.156233 -0.05681
C_ C_ 0.669764 0.807262 0.179412 -0.08735
C_ C_ 0.616105 0.81229 0.175894 -0.05681
C_ C_ 0.597929 0.830056 0.149236 -0.05681
C_ C_ 0.63043 0.834542 0.125485 -0.08735
C_ C_ 0.68264 0.825549 0.129304 -0.08735
C_ C_ 0.580285 0.805495 0.197924 -0.08735
C_ C_ 0.527408 0.804993 0.192174 -0.08735
C_ C_ 0.511122 0.819672 0.165511 -0.05681
C_ C_ 0.545743 0.837668 0.144618 -0.08735
C_ C_ 0.876949 0.714717 0.160484 0.68181
C_ C_ 0.852851 0.913448 0.150789 0.68181
C_ C_ 0.852278 0.970315 0.149068 -0.05681
C_ C_ 0.866196 0.497679 0.169611 -0.08735
C_ C_ 0.873851 0.550175 0.167741 -0.05681
C_ C_ 0.881766 0.574208 0.140592 -0.05681
C_ C_ 0.889417 0.544436 0.115903 -0.08735
C_ C_ 0.852134 0.993771 0.121937 -0.08735
C_ C_ 0.86513 0.581585 0.191598 -0.08735
C_ C_ 0.863826 0.633861 0.18806 -0.08735
C_ C_ 0.87819 0.658347 0.162003 -0.05681
C_ C_ 0.890316 0.627724 0.13876 -0.08735
C_ C_ 0.956265 0.817473 0.154162 0.68181
C_ C_ 0.899349 0.876422 0.229995 0.1947
C_ C_ 0.908232 0.895309 0.257693 -0.08735
C_ C_ 0.891012 0.86644 0.28181 -0.08735
C_ C_ 0.861608 0.822138 0.277345 -0.05681
C_ C_ 0.848302 0.809703 0.248014 0.18498
C_ C_ 0.820844 0.76542 0.243462 -0.08735
C_ C_ 0.809147 0.732949 0.266441 -0.08735
C_ C_ 0.822634 0.745133 0.29428 -0.08735
C_ C_ 0.846223 0.790631 0.300046 0.18498
C_ C_ 0.811462 0.811013 0.348147 0.44287
C_ C_ 0.901633 0.804477 0.341556 0.44287
C_ C_ 0.907771 0.809782 0.371355 -0.05681
C_ C_ 0.956781 0.804446 0.383266 -0.08735
C_ C_ 0.963053 0.807493 0.412941 -0.08735
C_ C_ 0.922789 0.820982 0.431979 -0.05681
C_ C_ 0.872295 0.826037 0.42001 -0.05681
C_ C_ 0.865747 0.822936 0.389604 -0.05681
C_ C_ 0.817574 0.821702 0.378867 -0.05681
C_ C_ 0.775679 0.826972 0.397258 -0.08735
C_ C_ 0.781944 0.828606 0.426634 -0.08735
C_ C_ 0.831428 0.829851 0.438341 -0.05681
C_ C_ 0.839466 0.830226 0.468652 0.44287
C_ C_ 0.927419 0.823233 0.461779 0.44287
C_ C_ 0.886713 0.850928 0.0104237 0.18498
C_ C_ 0.919274 0.890186 0.0186177 -0.08735
C_ C_ 0.931387 0.900295 0.0471652 -0.08735
C_ C_ 0.912913 0.869963 0.0682177 -0.08735
C_ C_ 0.879369 0.829174 0.0618336 0.18498
C_ C_ 0.869194 0.818288 0.0326053 -0.05681
C_ C_ 0.840068 0.774506 0.0270862 -0.08735
C_ C_ 0.82549 0.741258 0.0489373 -0.08735
C_ C_ 0.830522 0.759259 0.0769759 0.1947
N_ N_ 0.63802 0.669257 0.475795 -0.29468
N_ N_ 0.634682 0.699189 0.0821519 -0.17154
N_ N_ 0.617276 0.653178 0.22899 -0.17154
N_ N_ 0.633162 0.698759 0.332525 -0.29468
N_ N_ 0.869335 0.834552 0.225252 -0.29468
N_ N_ 0.852478 0.803773 0.330097 -0.17154
N_ N_ 0.887569 0.830084 0.479803 -0.17154
N_ N_ 0.858022 0.801517 0.083133 -0.29468
O_ O_ 0.711595 0.690927 0.427771 -0.58347
O_ O_ 0.699531 0.692974 0.381279 -0.58347
O_ O_ 0.624567 0.754397 0.430826 -0.58347
O_ O_ 0.617378 0.76489 0.384373 -0.58347
O_ O_ 0.648772 0.60785 0.421398 -0.58347
O_ O_ 0.634495 0.616507 0.3757 -0.58347
O_ O_ 0.56144 0.667877 0.426893 -0.58347
O_ O_ 0.550579 0.680347 0.380368 -0.58347
O_ O_ 0.552273 0.720392 0.080094 -0.46727
O_ O_ 0.719852 0.683977 0.0834767 -0.46727
O_ O_ 0.527603 0.661733 0.225291 -0.46727
O_ O_ 0.706149 0.643814 0.230196 -0.46727
O_ O_ 0.777676 0.810342 0.182827 -0.58347
O_ O_ 0.785446 0.808968 0.135691 -0.58347
O_ O_ 0.873892 0.741065 0.183047 -0.58347
O_ O_ 0.868599 0.733633 0.137103 -0.58347
O_ O_ 0.848075 0.890673 0.174822 -0.58347
O_ O_ 0.859925 0.886656 0.128804 -0.58347
O_ O_ 0.928311 0.826431 0.175151 -0.58347
O_ O_ 0.93908 0.804629 0.130477 -0.58347
O_ O_ 0.940814 0.786173 0.326714 -0.46727
O_ O_ 0.765377 0.808165 0.337304 -0.46727
O_ O_ 0.972766 0.812929 0.473061 -0.46727
O_ O_ 0.798182 0.834751 0.485149 -0.46727
Zn Zn 0.619087 0.691528 0.883429 0.90689
Zn Zn 0.633679 0.682245 0.931059 0.90689
Zn Zn 0.878861 0.809985 0.632175 0.90689
Zn Zn 0.870891 0.816156 0.680426 0.90689
H_ H_ 0.80005 0.67765 0.948848 0.11455
H_ H_ 0.86542 0.672643 0.849044 0.11455
H_ H_ 0.774432 0.670715 0.855784 0.11455
H_ H_ 0.886391 0.680763 0.964666 0.11455
H_ H_ 0.976446 0.676328 0.95562 0.11455
H_ H_ 0.953795 0.681757 0.865194 0.11455
H_ H_ 0.614931 0.514697 0.942354 0.11455
H_ H_ 0.581453 0.940836 0.852045 0.11455
H_ H_ 0.637468 0.534214 0.851378 0.11455
H_ H_ 0.645209 0.936874 0.963803 0.11455
H_ H_ 0.635794 0.843807 0.959677 0.11455
H_ H_ 0.585389 0.859225 0.872575 0.11455
H_ H_ 0.569762 0.615795 0.965491 0.11455
H_ H_ 0.592814 0.562479 0.505679 0.11455
H_ H_ 0.62738 0.606934 0.551232 0.11455
H_ H_ 0.681798 0.754559 0.975371 0.11455
H_ H_ 0.706352 0.812638 0.513131 0.11455
H_ H_ 0.688785 0.781084 0.562718 0.11455
H_ H_ 0.518172 0.697165 0.620935 0.11455
H_ H_ 0.506668 0.693453 0.673006 0.11455
H_ H_ 0.771997 0.65949 0.640357 0.11455
H_ H_ 0.760172 0.663006 0.690679 0.11455
H_ H_ 0.575282 0.582133 0.749498 0.11455
H_ H_ 0.553415 0.562006 0.795346 0.11455
H_ H_ 0.565159 0.621463 0.835945 0.11455
H_ H_ 0.657423 0.748284 0.756959 0.11455
H_ H_ 0.679306 0.804765 0.800037 0.11455
H_ H_ 0.667275 0.767696 0.847424 0.11455
H_ H_ 0.701485 0.817686 0.698109 0.11455
H_ H_ 0.627674 0.817868 0.600276 0.11455
H_ H_ 0.721749 0.821368 0.604902 0.11455
H_ H_ 0.614261 0.825966 0.717636 0.11455
H_ H_ 0.524907 0.817833 0.709433 0.11455
H_ H_ 0.545852 0.824819 0.618869 0.11455
H_ H_ 0.852734 0.982724 0.690904 0.11455
H_ H_ 0.892959 0.563894 0.597487 0.11455
H_ H_ 0.892557 0.966319 0.60383 0.11455
H_ H_ 0.895284 0.566978 0.715739 0.11455
H_ H_ 0.897374 0.656832 0.71124 0.11455
H_ H_ 0.895562 0.644189 0.620312 0.11455
H_ H_ 0.917616 0.89477 0.713811 0.11455
H_ H_ 0.939057 0.920655 0.763851 0.11455
H_ H_ 0.89816 0.881779 0.802815 0.11455
H_ H_ 0.810303 0.753133 0.724182 0.11455
H_ H_ 0.777044 0.706399 0.763682 0.11455
H_ H_ 0.801191 0.727561 0.813575 0.11455
H_ H_ 0.983553 0.802025 0.872106 0.11455
H_ H_ 0.994426 0.799482 0.92357 0.11455
H_ H_ 0.736667 0.851348 0.886046 0.11455
H_ H_ 0.741562 0.841085 0.938699 0.11455
H_ H_ 0.941633 0.909472 1.00196 0.11455
H_ H_ 0.979431 0.915711 0.54757 0.11455
H_ H_ 0.953089 0.859325 0.587012 0.11455
H_ H_ 0.83298 0.756479 0.50761 0.11455
H_ H_ 0.812285 0.702076 0.550073 0.11455
H_ H_ 0.826981 0.737572 0.599427 0.11455
C_ C_ 0.724222 0.684478 0.908576 0.68181
C_ C_ 0.779972 0.678854 0.902834 -0.05681
C_ C_ 0.813466 0.675756 0.926117 -0.08735
C_ C_ 0.867548 0.679903 0.920652 -0.05681
C_ C_ 0.885225 0.681663 0.891878 -0.05681
C_ C_ 0.851047 0.679897 0.869246 -0.08735
C_ C_ 0.799576 0.676854 0.873482 -0.08735
C_ C_ 0.901684 0.679195 0.943226 -0.08735
C_ C_ 0.953065 0.679071 0.938253 -0.08735
C_ C_ 0.97255 0.677634 0.910625 -0.05681
C_ C_ 0.938559 0.680925 0.887021 -0.08735
C_ C_ 0.614524 0.785015 0.912312 0.68181
C_ C_ 0.633508 0.587163 0.902455 0.68181
C_ C_ 0.630269 0.530777 0.898242 -0.05681
C_ C_ 0.62433 0.00437317 0.923446 -0.08735
C_ C_ 0.616007 0.952141 0.92043 -0.05681
C_ C_ 0.600562 0.92893 0.894295 -0.05681
C_ C_ 0.596384 0.957876 0.870312 -0.08735
C_ C_ 0.609036 0.0105285 0.872022 -0.08735
C_ C_ 0.626197 0.920066 0.944015 -0.08735
C_ C_ 0.621836 0.867538 0.94213 -0.08735
C_ C_ 0.612002 0.843334 0.915748 -0.05681
C_ C_ 0.595159 0.876246 0.893721 -0.08735
C_ C_ 0.528739 0.68168 0.905899 0.68181
C_ C_ 0.590137 0.63312 0.984366 0.1947
C_ C_ 0.613994 0.598563 0.505443 -0.08735
C_ C_ 0.632028 0.626097 0.53021 -0.08735
C_ C_ 0.654013 0.674247 0.527539 -0.05681
C_ C_ 0.659808 0.6941 0.498234 0.18498
C_ C_ 0.671992 0.742461 0.997694 -0.08735
C_ C_ 0.690792 0.774573 0.517337 -0.08735
C_ C_ 0.684682 0.756653 0.545726 -0.08735
C_ C_ 0.665662 0.706828 0.551506 0.18498
C_ C_ 0.697557 0.678653 0.598621 0.44287
C_ C_ 0.607558 0.692085 0.592133 0.44287
C_ C_ 0.599351 0.684617 0.622458 -0.05681
C_ C_ 0.552228 0.693097 0.633722 -0.08735
C_ C_ 0.544658 0.689912 0.663386 -0.08735
C_ C_ 0.587043 0.684601 0.682611 -0.05681
C_ C_ 0.634416 0.677704 0.670148 -0.05681
C_ C_ 0.643016 0.67991 0.640434 -0.05681
C_ C_ 0.691912 0.670869 0.628693 -0.05681
C_ C_ 0.735434 0.669269 0.647671 -0.08735
C_ C_ 0.726904 0.670019 0.67728 -0.08735
C_ C_ 0.676664 0.668498 0.688417 -0.05681
C_ C_ 0.665752 0.659418 0.718823 0.44287
C_ C_ 0.581839 0.685812 0.712809 0.44287
C_ C_ 0.610816 0.656885 0.760322 0.18498
C_ C_ 0.586348 0.608295 0.766137 -0.08735
C_ C_ 0.578837 0.593631 0.793769 -0.08735
C_ C_ 0.588765 0.627805 0.817388 -0.08735
C_ C_ 0.612654 0.673922 0.812389 0.18498
C_ C_ 0.625666 0.687322 0.784205 -0.05681
C_ C_ 0.653953 0.734346 0.779612 -0.08735
C_ C_ 0.662671 0.766173 0.802983 -0.08735
C_ C_ 0.654846 0.747225 0.830291 0.1947
C_ C_ 0.775108 0.806971 0.655416 0.68181
C_ C_ 0.719366 0.810188 0.651813 -0.05681
C_ C_ 0.68638 0.819439 0.676577 -0.08735
C_ C_ 0.634036 0.818877 0.672209 -0.05681
C_ C_ 0.614583 0.817506 0.644332 -0.05681
C_ C_ 0.645743 0.814324 0.620918 -0.08735
C_ C_ 0.698654 0.817349 0.624277 -0.08735
C_ C_ 0.60199 0.824507 0.69568 -0.08735
C_ C_ 0.550361 0.823947 0.691275 -0.08735
C_ C_ 0.529776 0.823244 0.663517 -0.05681
C_ C_ 0.560982 0.822561 0.639805 -0.08735
C_ C_ 0.885714 0.715755 0.663863 0.68181
C_ C_ 0.870713 0.912782 0.64867 0.68181
C_ C_ 0.869444 0.969264 0.647175 -0.05681
C_ C_ 0.890794 0.50075 0.672058 -0.08735
C_ C_ 0.891611 0.55358 0.669079 -0.05681
C_ C_ 0.884386 0.576588 0.642499 -0.05681
C_ C_ 0.883695 0.543904 0.617002 -0.08735
C_ C_ 0.878864 0.992006 0.620044 -0.08735
C_ C_ 0.896193 0.582184 0.69394 -0.08735
C_ C_ 0.897165 0.635643 0.691869 -0.08735
C_ C_ 0.890233 0.658785 0.665477 -0.05681
C_ C_ 0.889154 0.628267 0.640864 -0.08735
C_ C_ 0.973669 0.820101 0.657258 0.68181
C_ C_ 0.904081 0.873521 0.733439 0.1947
C_ C_ 0.910535 0.891944 0.760157 -0.08735
C_ C_ 0.888391 0.867885 0.783184 -0.08735
C_ C_ 0.863655 0.823193 0.779101 -0.05681
C_ C_ 0.856909 0.805558 0.75053 0.18498
C_ C_ 0.827471 0.760793 0.745952 -0.08735
C_ C_ 0.80314 0.735414 0.768561 -0.08735
C_ C_ 0.8125 0.751632 0.796406 -0.08735
C_ C_ 0.841801 0.794843 0.802885 0.18498
C_ C_ 0.80905 0.825074 0.848168 0.44287
C_ C_ 0.893988 0.797217 0.844256 0.44287
C_ C_ 0.90187 0.801022 0.874128 -0.05681
C_ C_ 0.95157 0.801049 0.885701 -0.08735
C_ C_ 0.957488 0.806048 0.915637 -0.08735
C_ C_ 0.914591 0.811376 0.934017 -0.05681
C_ C_ 0.865766 0.815598 0.922145 -0.05681
C_ C_ 0.859662 0.811655 0.892408 -0.05681
C_ C_ 0.811784 0.820876 0.879346 -0.05681
C_ C_ 0.772276 0.835439 0.89671 -0.08735
C_ C_ 0.776032 0.834625 0.926209 -0.08735
C_ C_ 0.823811 0.826647 0.938874 -0.05681
C_ C_ 0.83123 0.837335 0.968829 0.44287
C_ C_ 0.9191 0.823972 0.962425 0.44287
C_ C_ 0.894953 0.839744 0.51051 0.18498
C_ C_ 0.927686 0.880999 0.517399 -0.08735
C_ C_ 0.951823 0.885079 0.544263 -0.08735
C_ C_ 0.939457 0.853232 0.566257 -0.08735
C_ C_ 0.899706 0.817131 0.561773 0.18498
C_ C_ 0.881373 0.807393 0.533306 -0.05681
C_ C_ 0.844897 0.768773 0.528927 -0.08735
C_ C_ 0.835655 0.737485 0.552425 -0.08735
C_ C_ 0.843602 0.756806 0.580254 0.1947
N_ N_ 0.623183 0.672188 0.979456 -0.29468
N_ N_ 0.656914 0.691619 0.581339 -0.17154
N_ N_ 0.620202 0.672841 0.730424 -0.17154
N_ N_ 0.628469 0.701658 0.834719 -0.29468
N_ N_ 0.878578 0.831349 0.728734 -0.29468
N_ N_ 0.849414 0.810282 0.832058 -0.17154
N_ N_ 0.879646 0.83618 0.979987 -0.17154
N_ N_ 0.874863 0.796257 0.584446 -0.29468
O_ O_ 0.70712 0.685986 0.933567 -0.58347
O_ O_ 0.694786 0.690597 0.887956 -0.58347
O_ O_ 0.623408 0.756075 0.933255 -0.58347
O_ O_ 0.608789 0.766518 0.888572 -0.58347
O_ O_ 0.6349 0.607594 0.927047 -0.58347
O_ O_ 0.628845 0.615644 0.881041 -0.58347
O_ O_ 0.557877 0.681121 0.928177 -0.58347
O_ O_ 0.546065 0.686026 0.881053 -0.58347
O_ O_ 0.567502 0.701807 0.576155 -0.46727
O_ O_ 0.742982 0.677709 0.587626 -0.46727
O_ O_ 0.539161 0.699213 0.724014 -0.46727
O_ O_ 0.702579 0.646872 0.736794 -0.46727
O_ O_ 0.793501 0.805822 0.680276 -0.58347
O_ O_ 0.803253 0.811475 0.633124 -0.58347
O_ O_ 0.879886 0.741466 0.686615 -0.58347
O_ O_ 0.886594 0.737817 0.639317 -0.58347
O_ O_ 0.862696 0.891781 0.67287 -0.58347
O_ O_ 0.874478 0.882948 0.626623 -0.58347
O_ O_ 0.945149 0.822377 0.679499 -0.58347
O_ O_ 0.95498 0.812433 0.632049 -0.58347
O_ O_ 0.931974 0.782171 0.827226 -0.46727
O_ O_ 0.764941 0.833843 0.836739 -0.46727
O_ O_ 0.966426 0.823563 0.973945 -0.46727
O_ O_ 0.7938 0.855694 0.984267 -0.46727
