_cell_length_a 26.376
_cell_length_b 26.400000238300095
_cell_length_c 46.67800035477134
_cell_angle_alpha 90.00700052986613
_cell_angle_beta 89.99899961309502
_cell_angle_gamma 90.45000003183146
_symmetry_space_group_name_H-M         'P 1'
_symmetry_Int_Tables_number            1
loop_
_symmetry_equiv_pos_as_xyz
   'x, y, z'
                         
loop_
_atom_site_label
_atom_site_type_symbol
_atom_site_fract_x 
_atom_site_fract_y
_atom_site_fract_z
_atom_site_charge
Zn Zn 0.114158 0.193024 0.382872 0.90689
Zn Zn 0.124034 0.189069 0.431589 0.90689
Zn Zn 0.372025 0.3253 0.132513 0.90689
Zn Zn 0.366296 0.326591 0.180316 0.90689
H_ H_ 0.291042 0.21158 0.446631 0.11455
H_ H_ 0.353622 0.143837 0.35656 0.11455
H_ H_ 0.264982 0.159209 0.362056 0.11455
H_ H_ 0.379181 0.201281 0.466667 0.11455
H_ H_ 0.470524 0.19444 0.459232 0.11455
H_ H_ 0.43951 0.160501 0.368575 0.11455
H_ H_ 0.138622 0.0260274 0.438492 0.11455
H_ H_ 0.167973 0.443126 0.35516 0.11455
H_ H_ 0.0799038 0.0320956 0.352576 0.11455
H_ H_ 0.0952507 0.439767 0.463337 0.11455
H_ H_ 0.0970868 0.34506 0.460635 0.11455
H_ H_ 0.149783 0.360257 0.37487 0.11455
H_ H_ 0.0623695 0.128961 0.468244 0.11455
H_ H_ 0.115396 0.0568406 0.0125802 0.11455
H_ H_ 0.13882 0.110566 0.054646 0.11455
H_ H_ 0.185324 0.252997 0.475283 0.11455
H_ H_ 0.225114 0.306643 0.0179076 0.11455
H_ H_ 0.203396 0.276356 0.0642368 0.11455
H_ H_ 0.0137758 0.179042 0.117281 0.11455
H_ H_ -0.0012419999999999654 0.192309 0.167345 0.11455
H_ H_ 0.267237 0.181836 0.141198 0.11455
H_ H_ 0.250647 0.175966 0.19124 0.11455
H_ H_ 0.0596175 0.0996284 0.248037 0.11455
H_ H_ 0.0134686 0.0880681 0.294698 0.11455
H_ H_ 0.0472341 0.140475 0.335041 0.11455
H_ H_ 0.163919 0.249451 0.258132 0.11455
H_ H_ 0.197601 0.286077 0.303996 0.11455
H_ H_ 0.167803 0.263977 0.349828 0.11455
H_ H_ 0.199145 0.315722 0.193671 0.11455
H_ H_ 0.123077 0.350728 0.0974649 0.11455
H_ H_ 0.21542 0.338397 0.102529 0.11455
H_ H_ 0.115177 0.298027 0.212708 0.11455
H_ H_ 0.0199518 0.289355 0.20584 0.11455
H_ H_ 0.0398154 0.342662 0.118577 0.11455
H_ H_ 0.38629 0.493018 0.190742 0.11455
H_ H_ 0.394236 0.0697772 0.0994351 0.11455
H_ H_ 0.357188 0.47903 0.100518 0.11455
H_ H_ 0.335948 0.0808651 0.211723 0.11455
H_ H_ 0.338836 0.171511 0.207589 0.11455
H_ H_ 0.399063 0.154757 0.122722 0.11455
H_ H_ 0.410737 0.404198 0.21623 0.11455
H_ H_ 0.422085 0.431362 0.267233 0.11455
H_ H_ 0.395249 0.37769 0.307329 0.11455
H_ H_ 0.312242 0.257106 0.222228 0.11455
H_ H_ 0.288348 0.201753 0.257184 0.11455
H_ H_ 0.32141 0.209929 0.309139 0.11455
H_ H_ 0.492428 0.286357 0.372352 0.11455
H_ H_ 0.503555 0.3017 0.424353 0.11455
H_ H_ 0.241941 0.31492 0.386093 0.11455
H_ H_ 0.251019 0.330923 0.438025 0.11455
H_ H_ 0.436438 0.409209 0.496569 0.11455
H_ H_ 0.463248 0.432249 0.041726 0.11455
H_ H_ 0.428774 0.383428 0.0855392 0.11455
H_ H_ 0.343187 0.250668 0.00980834 0.11455
H_ H_ 0.31369 0.206145 0.050546 0.11455
H_ H_ 0.311438 0.255787 0.0975488 0.11455
C_ C_ 0.216218 0.192287 0.40946 0.68181
C_ C_ 0.271315 0.192021 0.40366 -0.05681
C_ C_ 0.305836 0.200741 0.425964 -0.08735
C_ C_ 0.358258 0.195091 0.42234 -0.05681
C_ C_ 0.375352 0.178153 0.395624 -0.05681
C_ C_ 0.34125 0.165805 0.374165 -0.08735
C_ C_ 0.289278 0.171702 0.377205 -0.08735
C_ C_ 0.393392 0.19794 0.444699 -0.08735
C_ C_ 0.444033 0.189045 0.4407 -0.08735
C_ C_ 0.460568 0.179143 0.412959 -0.05681
C_ C_ 0.426976 0.166418 0.39074 -0.08735
C_ C_ 0.123644 0.288116 0.415232 0.68181
C_ C_ 0.113356 0.0927584 0.39913 0.68181
C_ C_ 0.102309 0.0371835 0.397685 -0.05681
C_ C_ 0.129016 0.505537 0.425084 -0.08735
C_ C_ 0.12111 0.452323 0.421291 -0.05681
C_ C_ 0.133764 0.429352 0.395651 -0.05681
C_ C_ 0.149701 0.459724 0.372546 -0.08735
C_ C_ 0.150963 0.511956 0.375005 -0.08735
C_ C_ 0.106791 0.420409 0.444705 -0.08735
C_ C_ 0.105996 0.36855 0.442268 -0.08735
C_ C_ 0.123679 0.344547 0.41743 -0.05681
C_ C_ 0.133379 0.377124 0.393766 -0.08735
C_ C_ 0.0213007 0.190946 0.408555 0.68181
C_ C_ 0.0866151 0.138576 0.48489 0.1947
C_ C_ 0.132545 0.0948366 0.00904828 -0.08735
C_ C_ 0.144684 0.124315 0.0326134 -0.08735
C_ C_ 0.157458 0.176336 0.02915 -0.05681
C_ C_ 0.167009 0.193846 1.000429921 0.18498
C_ C_ 0.180511 0.238487 0.496007 -0.08735
C_ C_ 0.206062 0.26878 0.0197644 -0.08735
C_ C_ 0.193069 0.252649 0.0467932 -0.08735
C_ C_ 0.162816 0.210738 0.0517947 0.18498
C_ C_ 0.194947 0.183115 0.0979053 0.44287
C_ C_ 0.106089 0.194668 0.0915967 0.44287
C_ C_ 0.0963179 0.181373 0.120229 -0.05681
C_ C_ 0.0458396 0.17999 0.131408 -0.08735
C_ C_ 0.0358829 0.181761 0.161016 -0.08735
C_ C_ 0.0776812 0.179659 0.180148 -0.05681
C_ C_ 0.126955 0.175512 0.168915 -0.05681
C_ C_ 0.137265 0.178225 0.139142 -0.05681
C_ C_ 0.187706 0.177747 0.129241 -0.05681
C_ C_ 0.228173 0.178074 0.149285 -0.08735
C_ C_ 0.218574 0.173679 0.177488 -0.08735
C_ C_ 0.168666 0.174927 0.188505 -0.05681
C_ C_ 0.158616 0.16876 0.217746 0.44287
C_ C_ 0.0727116 0.187045 0.210615 0.44287
C_ C_ 0.0994514 0.165585 0.258347 0.18498
C_ C_ 0.0676279 0.122628 0.265133 -0.08735
C_ C_ 0.0431456 0.118447 0.29106 -0.08735
C_ C_ 0.0645265 0.143192 0.314801 -0.08735
C_ C_ 0.0996538 0.183755 0.311059 0.18498
C_ C_ 0.116899 0.195963 0.282732 -0.05681
C_ C_ 0.146867 0.238514 0.280067 -0.08735
C_ C_ 0.164631 0.264862 0.304774 -0.08735
C_ C_ 0.149377 0.247967 0.330782 0.1947
C_ C_ 0.270724 0.321613 0.150643 0.68181
C_ C_ 0.212616 0.321476 0.147754 -0.05681
C_ C_ 0.180831 0.313262 0.172032 -0.08735
C_ C_ 0.127738 0.316782 0.16915 -0.05681
C_ C_ 0.105803 0.329432 0.142418 -0.05681
C_ C_ 0.137899 0.337384 0.118531 -0.08735
C_ C_ 0.191385 0.333709 0.122214 -0.08735
C_ C_ 0.0971658 0.3039 0.191842 -0.08735
C_ C_ 0.0442583 0.307436 0.189998 -0.08735
C_ C_ 0.0230213 0.31695 0.162133 -0.05681
C_ C_ 0.0521908 0.331906 0.139718 -0.08735
C_ C_ 0.377473 0.227174 0.16276 0.68181
C_ C_ 0.370894 0.423725 0.147691 0.68181
C_ C_ 0.371585 0.479634 0.146231 -0.05681
C_ C_ 0.363859 0.00968291 0.171734 -0.08735
C_ C_ 0.363049 0.0636834 0.169945 -0.05681
C_ C_ 0.379757 0.0860059 0.144083 -0.05681
C_ C_ 0.393605 0.0552998 0.120106 -0.08735
C_ C_ 0.369868 0.502228 0.1188 -0.08735
C_ C_ 0.345744 0.0955573 0.191752 -0.08735
C_ C_ 0.34756 0.148905 0.188119 -0.08735
C_ C_ 0.368576 0.171909 0.163789 -0.05681
C_ C_ 0.379569 0.140675 0.140962 -0.08735
C_ C_ 0.468241 0.325393 0.161104 0.68181
C_ C_ 0.392395 0.384361 0.233491 0.1947
C_ C_ 0.404162 0.39586 0.261929 -0.08735
C_ C_ 0.385278 0.368246 0.284876 -0.08735
C_ C_ 0.362869 0.322437 0.278233 -0.05681
C_ C_ 0.352507 0.308626 0.249648 0.18498
C_ C_ 0.324245 0.264743 0.242967 -0.08735
C_ C_ 0.315533 0.230499 0.263899 -0.08735
C_ C_ 0.331701 0.23696 0.291923 -0.08735
C_ C_ 0.352592 0.285417 0.300097 0.18498
C_ C_ 0.315073 0.307643 0.346823 0.44287
C_ C_ 0.401222 0.283292 0.344084 0.44287
C_ C_ 0.410239 0.297451 0.372926 -0.05681
C_ C_ 0.460809 0.298783 0.385974 -0.08735
C_ C_ 0.467311 0.306104 0.41563 -0.08735
C_ C_ 0.423641 0.315866 0.432329 -0.05681
C_ C_ 0.375375 0.32178 0.419595 -0.05681
C_ C_ 0.36887 0.314219 0.389566 -0.05681
C_ C_ 0.319552 0.314538 0.37681 -0.05681
C_ C_ 0.278143 0.322891 0.39501 -0.08735
C_ C_ 0.28426 0.330352 0.424896 -0.08735
C_ C_ 0.333694 0.328238 0.43733 -0.05681
C_ C_ 0.338792 0.330007 0.467463 0.44287
C_ C_ 0.427631 0.320781 0.462233 0.44287
C_ C_ 0.397124 0.341352 0.0063191 0.18498
C_ C_ 0.417057 0.390506 0.010819 -0.08735
C_ C_ 0.435547 0.401076 0.0387549 -0.08735
C_ C_ 0.420536 0.371728 0.0633131 -0.08735
C_ C_ 0.388641 0.331649 0.0597366 0.18498
C_ C_ 0.380374 0.31311 0.0312819 -0.05681
C_ C_ 0.357375 0.264091 0.0296638 -0.08735
C_ C_ 0.336598 0.240846 0.0545611 -0.08735
C_ C_ 0.336431 0.268536 0.0806482 0.1947
N_ N_ 0.121606 0.175512 0.479324 -0.29468
N_ N_ 0.154058 0.192749 0.0808273 -0.17154
N_ N_ 0.111673 0.175917 0.228469 -0.17154
N_ N_ 0.118237 0.208147 0.334934 -0.29468
N_ N_ 0.369028 0.338345 0.228184 -0.29468
N_ N_ 0.356143 0.295448 0.330412 -0.17154
N_ N_ 0.385868 0.328589 0.480283 -0.17154
N_ N_ 0.366948 0.309006 0.0833367 -0.29468
O_ O_ 0.199255 0.184477 0.433885 -0.58347
O_ O_ 0.186835 0.204693 0.389033 -0.58347
O_ O_ 0.122789 0.261516 0.4377 -0.58347
O_ O_ 0.112999 0.269229 0.391872 -0.58347
O_ O_ 0.123143 0.11439 0.422888 -0.58347
O_ O_ 0.120265 0.118768 0.376603 -0.58347
O_ O_ 0.0481304 0.195981 0.430616 -0.58347
O_ O_ 0.0417907 0.184472 0.384364 -0.58347
O_ O_ 0.0685852 0.197778 0.0740009 -0.46727
O_ O_ 0.24109 0.177806 0.0872664 -0.46727
O_ O_ 0.0276499 0.195624 0.220618 -0.46727
O_ O_ 0.197768 0.157236 0.23475 -0.46727
O_ O_ 0.28948 0.314607 0.175426 -0.58347
O_ O_ 0.29723 0.325089 0.12848 -0.58347
O_ O_ 0.374958 0.251345 0.18536 -0.58347
O_ O_ 0.375216 0.249871 0.139284 -0.58347
O_ O_ 0.364842 0.404129 0.170941 -0.58347
O_ O_ 0.368113 0.397957 0.124891 -0.58347
O_ O_ 0.440056 0.329586 0.1829 -0.58347
O_ O_ 0.449708 0.327697 0.136824 -0.58347
O_ O_ 0.437398 0.260566 0.328642 -0.46727
O_ O_ 0.269151 0.314917 0.33505 -0.46727
O_ O_ 0.471801 0.315913 0.473856 -0.46727
O_ O_ 0.297598 0.335673 0.483653 -0.46727
Zn Zn 0.137287 0.178579 0.88165 0.90689
Zn Zn 0.147063 0.179312 0.928879 0.90689
Zn Zn 0.374809 0.319221 0.632806 0.90689
Zn Zn 0.364448 0.326562 0.67948 0.90689
H_ H_ 0.310286 0.178593 0.944172 0.11455
H_ H_ 0.384632 0.162371 0.847081 0.11455
H_ H_ 0.292518 0.15742 0.854248 0.11455
H_ H_ 0.397577 0.19028 0.961338 0.11455
H_ H_ 0.489539 0.18155 0.956975 0.11455
H_ H_ 0.467703 0.157328 0.865085 0.11455
H_ H_ 0.149631 0.0104038 0.939257 0.11455
H_ H_ 0.142187 0.424056 0.845442 0.11455
H_ H_ 0.143338 0.0211583 0.846691 0.11455
H_ H_ 0.171161 0.424295 0.963171 0.11455
H_ H_ 0.153037 0.335759 0.960346 0.11455
H_ H_ 0.135024 0.341409 0.869401 0.11455
H_ H_ 0.11067 0.0958623 0.964873 0.11455
H_ H_ 0.0498101 0.0917732 0.516931 0.11455
H_ H_ 0.104468 0.126949 0.556699 0.11455
H_ H_ 0.200413 0.251767 0.97485 0.11455
H_ H_ 0.234893 0.29173 0.513512 0.11455
H_ H_ 0.219481 0.263698 0.563243 0.11455
H_ H_ 0.014918 0.218986 0.62151 0.11455
H_ H_ 0.000127827 0.192331 0.672201 0.11455
H_ H_ 0.253483 0.148489 0.636803 0.11455
H_ H_ 0.238003 0.139295 0.692541 0.11455
H_ H_ 0.0414875 0.102058 0.752762 0.11455
H_ H_ 0.0302323 0.0729276 0.801853 0.11455
H_ H_ 0.0688028 0.121823 0.839297 0.11455
H_ H_ 0.143548 0.257389 0.756793 0.11455
H_ H_ 0.176424 0.303745 0.80001 0.11455
H_ H_ 0.184572 0.255801 0.845739 0.11455
H_ H_ 0.195485 0.32215 0.695084 0.11455
H_ H_ 0.130236 0.330071 0.596558 0.11455
H_ H_ 0.220017 0.327314 0.603734 0.11455
H_ H_ 0.113795 0.336496 0.713788 0.11455
H_ H_ 0.0263527 0.306719 0.706212 0.11455
H_ H_ 0.0424279 0.331195 0.616829 0.11455
H_ H_ 0.379345 0.491974 0.69675 0.11455
H_ H_ 0.306052 0.0691737 0.605028 0.11455
H_ H_ 0.36985 0.476881 0.601873 0.11455
H_ H_ 0.423191 0.0733394 0.704016 0.11455
H_ H_ 0.418536 0.163986 0.700416 0.11455
H_ H_ 0.343943 0.155405 0.618111 0.11455
H_ H_ 0.416412 0.392341 0.720574 0.11455
H_ H_ 0.433364 0.413758 0.767991 0.11455
H_ H_ 0.390112 0.364896 0.809773 0.11455
H_ H_ 0.308444 0.251466 0.719915 0.11455
H_ H_ 0.268326 0.198494 0.757442 0.11455
H_ H_ 0.299557 0.2073 0.807656 0.11455
H_ H_ 0.485159 0.271858 0.871557 0.11455
H_ H_ 0.497176 0.292161 0.922886 0.11455
H_ H_ 0.238163 0.3213 0.887884 0.11455
H_ H_ 0.250818 0.329691 0.939632 0.11455
H_ H_ 0.431492 0.41355 -0.007866999999999957 0.11455
H_ H_ 0.45275 0.43799 0.545139 0.11455
H_ H_ 0.428289 0.387077 0.58838 0.11455
H_ H_ 0.337365 0.256742 0.508715 0.11455
H_ H_ 0.332847 0.194634 0.550602 0.11455
H_ H_ 0.327275 0.240343 0.597218 0.11455
C_ C_ 0.239539 0.182382 0.903098 0.68181
C_ C_ 0.29573 0.171269 0.900148 -0.05681
C_ C_ 0.328631 0.172048 0.922787 -0.08735
C_ C_ 0.379937 0.161348 0.919464 -0.05681
C_ C_ 0.400038 0.162369 0.892044 -0.05681
C_ C_ 0.369435 0.161486 0.869349 -0.08735
C_ C_ 0.317184 0.161833 0.873562 -0.08735
C_ C_ 0.412343 0.169911 0.942384 -0.08735
C_ C_ 0.465948 0.17447 0.93843 -0.08735
C_ C_ 0.486231 0.170672 0.911055 -0.05681
C_ C_ 0.45276 0.163855 0.887277 -0.08735
C_ C_ 0.13995 0.276582 0.912169 0.68181
C_ C_ 0.150207 0.0788331 0.894467 0.68181
C_ C_ 0.150535 0.0214411 0.893141 -0.05681
C_ C_ 0.162067 0.491033 0.920576 -0.08735
C_ C_ 0.1559 0.438463 0.919109 -0.05681
C_ C_ 0.146818 0.414996 0.89144 -0.05681
C_ C_ 0.141992 0.44525 0.866523 -0.08735
C_ C_ 0.150808 0.498277 0.868546 -0.08735
C_ C_ 0.159366 0.408236 0.94336 -0.08735
C_ C_ 0.145528 0.356126 0.941833 -0.08735
C_ C_ 0.141804 0.333137 0.915132 -0.05681
C_ C_ 0.139727 0.361896 0.889975 -0.08735
C_ C_ 0.0432365 0.175492 0.910807 0.68181
C_ C_ 0.127578 0.118171 0.982888 0.1947
C_ C_ 0.0780133 0.122137 0.512579 -0.08735
C_ C_ 0.104554 0.143064 0.535457 -0.08735
C_ C_ 0.137812 0.184828 0.53095 -0.05681
C_ C_ 0.147442 0.198728 0.501638 0.18498
C_ C_ 0.189099 0.241511 0.996245 -0.08735
C_ C_ 0.207724 0.261037 0.518568 -0.08735
C_ C_ 0.198067 0.247546 0.547214 -0.08735
C_ C_ 0.160589 0.212155 0.553964 0.18498
C_ C_ 0.190432 0.182425 0.60132 0.44287
C_ C_ 0.106291 0.213979 0.594622 0.44287
C_ C_ 0.0970635 0.206739 0.623893 -0.05681
C_ C_ 0.0460422 0.206694 0.635605 -0.08735
C_ C_ 0.0370686 0.194541 0.663805 -0.08735
C_ C_ 0.0771566 0.196063 0.683039 -0.05681
C_ C_ 0.12528 0.186757 0.672215 -0.05681
C_ C_ 0.13763 0.195584 0.642516 -0.05681
C_ C_ 0.184411 0.181942 0.63147 -0.05681
C_ C_ 0.221454 0.164542 0.649789 -0.08735
C_ C_ 0.213752 0.15867 0.679809 -0.08735
C_ C_ 0.165048 0.169543 0.690632 -0.05681
C_ C_ 0.155454 0.164584 0.720697 0.44287
C_ C_ 0.0694468 0.191938 0.713695 0.44287
C_ C_ 0.0968413 0.16218 0.760492 0.18498
C_ C_ 0.0655341 0.119055 0.767827 -0.08735
C_ C_ 0.0580061 0.102062 0.796137 -0.08735
C_ C_ 0.0816111 0.12948 0.817586 -0.08735
C_ C_ 0.111863 0.172107 0.811334 0.18498
C_ C_ 0.114138 0.193729 0.782936 -0.05681
C_ C_ 0.140066 0.241286 0.777933 -0.08735
C_ C_ 0.161389 0.266839 0.802147 -0.08735
C_ C_ 0.162991 0.239172 0.82828 0.1947
C_ C_ 0.273771 0.319213 0.655158 0.68181
C_ C_ 0.217611 0.327393 0.65054 -0.05681
C_ C_ 0.183641 0.325466 0.673302 -0.08735
C_ C_ 0.132526 0.331872 0.668888 -0.05681
C_ C_ 0.10962 0.332873 0.640389 -0.05681
C_ C_ 0.143131 0.332644 0.617709 -0.08735
C_ C_ 0.197038 0.327767 0.622345 -0.08735
C_ C_ 0.0997312 0.327464 0.692424 -0.08735
C_ C_ 0.0468837 0.324226 0.688399 -0.08735
C_ C_ 0.0251613 0.328738 0.661383 -0.05681
C_ C_ 0.0575383 0.335997 0.637674 -0.08735
C_ C_ 0.377102 0.224581 0.66008 0.68181
C_ C_ 0.375316 0.4194 0.653654 0.68181
C_ C_ 0.375448 0.476495 0.650535 -0.05681
C_ C_ 0.381992 0.00573472 0.666101 -0.08735
C_ C_ 0.383938 0.0592854 0.663751 -0.05681
C_ C_ 0.358972 0.0824175 0.641225 -0.05681
C_ C_ 0.329214 0.0526535 0.622323 -0.08735
C_ C_ 0.376738 0.497078 0.622681 -0.08735
C_ C_ 0.407526 0.0898684 0.685231 -0.08735
C_ C_ 0.406747 0.142413 0.681718 -0.08735
C_ C_ 0.380225 0.167428 0.660296 -0.05681
C_ C_ 0.359625 0.136882 0.638255 -0.08735
C_ C_ 0.465844 0.326976 0.659121 0.68181
C_ C_ 0.397985 0.368566 0.735857 0.1947
C_ C_ 0.407798 0.381383 0.764651 -0.08735
C_ C_ 0.385644 0.353834 0.786841 -0.08735
C_ C_ 0.356763 0.309644 0.779602 -0.05681
C_ C_ 0.349754 0.298021 0.749454 0.18498
C_ C_ 0.319321 0.25707 0.741996 -0.08735
C_ C_ 0.296591 0.22858 0.763549 -0.08735
C_ C_ 0.309817 0.234392 0.79202 -0.08735
C_ C_ 0.338852 0.275353 0.800516 0.18498
C_ C_ 0.309962 0.297914 0.849026 0.44287
C_ C_ 0.394963 0.277055 0.843329 0.44287
C_ C_ 0.404638 0.288184 0.873042 -0.05681
C_ C_ 0.453408 0.283875 0.884773 -0.08735
C_ C_ 0.461004 0.294893 0.913446 -0.08735
C_ C_ 0.421493 0.306372 0.931087 -0.05681
C_ C_ 0.373026 0.307259 0.919772 -0.05681
C_ C_ 0.365015 0.302022 0.89029 -0.05681
C_ C_ 0.315213 0.303636 0.879316 -0.05681
C_ C_ 0.27436 0.315485 0.896491 -0.08735
C_ C_ 0.282052 0.317854 0.925594 -0.08735
C_ C_ 0.331108 0.316522 0.937771 -0.05681
C_ C_ 0.338758 0.326442 0.966985 0.44287
C_ C_ 0.427962 0.311162 0.96087 0.44287
C_ C_ 0.393121 0.343497 0.509258 0.18498
C_ C_ 0.420544 0.387641 0.514391 -0.08735
C_ C_ 0.427143 0.406128 0.542178 -0.08735
C_ C_ 0.413064 0.37818 0.566357 -0.08735
C_ C_ 0.389026 0.330175 0.561481 0.18498
C_ C_ 0.374892 0.315027 0.532493 -0.05681
C_ C_ 0.351407 0.268068 0.52894 -0.08735
C_ C_ 0.346498 0.235485 0.552718 -0.08735
C_ C_ 0.348631 0.257584 0.580029 0.1947
N_ N_ 0.149609 0.164341 0.977477 -0.29468
N_ N_ 0.151645 0.199362 0.583931 -0.17154
N_ N_ 0.107791 0.174559 0.731149 -0.17154
N_ N_ 0.129166 0.200103 0.833021 -0.29468
N_ N_ 0.37232 0.326423 0.728024 -0.29468
N_ N_ 0.348821 0.284288 0.831765 -0.17154
N_ N_ 0.387157 0.325153 0.977915 -0.17154
N_ N_ 0.369697 0.30295 0.584959 -0.29468
O_ O_ 0.220114 0.18633 0.92796 -0.58347
O_ O_ 0.211987 0.18185 0.880404 -0.58347
O_ O_ 0.14313 0.251187 0.934601 -0.58347
O_ O_ 0.130555 0.253398 0.888951 -0.58347
O_ O_ 0.151726 0.101246 0.917746 -0.58347
O_ O_ 0.139083 0.103602 0.872407 -0.58347
O_ O_ 0.0740244 0.174215 0.930985 -0.58347
O_ O_ 0.0618846 0.17905 0.885958 -0.58347
O_ O_ 0.0719466 0.231506 0.577783 -0.46727
O_ O_ 0.235981 0.173179 0.591162 -0.46727
O_ O_ 0.020665 0.194549 0.724103 -0.46727
O_ O_ 0.189349 0.147164 0.738296 -0.46727
O_ O_ 0.291889 0.323645 0.680109 -0.58347
O_ O_ 0.30268 0.315272 0.633908 -0.58347
O_ O_ 0.364486 0.249351 0.681877 -0.58347
O_ O_ 0.378748 0.24587 0.637237 -0.58347
O_ O_ 0.367746 0.399922 0.677494 -0.58347
O_ O_ 0.370374 0.394395 0.630845 -0.58347
O_ O_ 0.436384 0.322032 0.681198 -0.58347
O_ O_ 0.446418 0.326367 0.634076 -0.58347
O_ O_ 0.433287 0.261597 0.828311 -0.46727
O_ O_ 0.26462 0.30473 0.836552 -0.46727
O_ O_ 0.472055 0.306775 0.972571 -0.46727
O_ O_ 0.301147 0.339538 0.982648 -0.46727
Zn Zn 0.120262 0.693455 0.381246 0.90689
Zn Zn 0.132722 0.692987 0.428697 0.90689
Zn Zn 0.371416 0.821895 0.129511 0.90689
Zn Zn 0.36284 0.828212 0.178198 0.90689
H_ H_ 0.298475 0.703015 0.446444 0.11455
H_ H_ 0.368887 0.682632 0.349387 0.11455
H_ H_ 0.276075 0.689689 0.356212 0.11455
H_ H_ 0.387282 0.699891 0.466485 0.11455
H_ H_ 0.478354 0.695899 0.459298 0.11455
H_ H_ 0.451909 0.682077 0.366152 0.11455
H_ H_ 0.129085 0.52097 0.447039 0.11455
H_ H_ 0.0767064 0.937503 0.350031 0.11455
H_ H_ 0.168636 0.536097 0.357682 0.11455
H_ H_ 0.142447 0.939822 0.460967 0.11455
H_ H_ 0.1405 0.848559 0.458187 0.11455
H_ H_ 0.0790365 0.86302 0.372 0.11455
H_ H_ 0.0836952 0.612138 0.464859 0.11455
H_ H_ 0.0748422 0.575275 0.0154325 0.11455
H_ H_ 0.107768 0.629076 0.0555126 0.11455
H_ H_ 0.179674 0.763867 0.475384 0.11455
H_ H_ 0.228035 0.80086 0.00751209 0.11455
H_ H_ 0.198043 0.79095 0.0586983 0.11455
H_ H_ 0.00871407 0.706942 0.119998 0.11455
H_ H_ -0.0022170000000000245 0.711434 0.17366 0.11455
H_ H_ 0.246719 0.640649 0.135191 0.11455
H_ H_ 0.235564 0.631236 0.185941 0.11455
H_ H_ 0.0673894 0.584197 0.249547 0.11455
H_ H_ 0.0460888 0.560486 0.300398 0.11455
H_ H_ 0.068328 0.619466 0.338529 0.11455
H_ H_ 0.142561 0.744872 0.254768 0.11455
H_ H_ 0.177216 0.796609 0.292733 0.11455
H_ H_ 0.174295 0.764417 0.343212 0.11455
H_ H_ 0.191603 0.80941 0.191471 0.11455
H_ H_ 0.122031 0.839451 0.0949092 0.11455
H_ H_ 0.216552 0.841039 0.102532 0.11455
H_ H_ 0.108455 0.818937 0.2123 0.11455
H_ H_ 0.0181404 0.820266 0.207463 0.11455
H_ H_ 0.0398343 0.843741 0.117705 0.11455
H_ H_ 0.346108 0.992448 0.189765 0.11455
H_ H_ 0.368116 0.570422 0.0954733 0.11455
H_ H_ 0.398509 0.978177 0.103663 0.11455
H_ H_ 0.36636 0.577591 0.213984 0.11455
H_ H_ 0.372313 0.668081 0.210045 0.11455
H_ H_ 0.372171 0.654007 0.117869 0.11455
H_ H_ 0.412393 0.906034 0.215891 0.11455
H_ H_ 0.438744 0.923511 0.267231 0.11455
H_ H_ 0.395957 0.874846 0.306106 0.11455
H_ H_ 0.298816 0.76048 0.219068 0.11455
H_ H_ 0.268419 0.707827 0.259819 0.11455
H_ H_ 0.28107 0.739281 0.310643 0.11455
H_ H_ 0.475152 0.783607 0.371364 0.11455
H_ H_ 0.493073 0.800011 0.422644 0.11455
H_ H_ 0.236815 0.86855 0.384559 0.11455
H_ H_ 0.25052 0.88656 0.434846 0.11455
H_ H_ 0.434734 0.9181 0.498393 0.11455
H_ H_ 0.461698 0.929338 0.0410569 0.11455
H_ H_ 0.438167 0.881925 0.0830247 0.11455
H_ H_ 0.360306 0.743754 0.00722832 0.11455
H_ H_ 0.299077 0.714136 0.0449969 0.11455
H_ H_ 0.307316 0.754787 0.0934503 0.11455
C_ C_ 0.22282 0.69931 0.405566 0.68181
C_ C_ 0.280077 0.691101 0.401132 -0.05681
C_ C_ 0.313061 0.695551 0.424962 -0.08735
C_ C_ 0.367002 0.690382 0.420844 -0.05681
C_ C_ 0.38706 0.684984 0.393363 -0.05681
C_ C_ 0.353192 0.687089 0.369872 -0.08735
C_ C_ 0.299828 0.686393 0.374462 -0.08735
C_ C_ 0.400128 0.690622 0.444842 -0.08735
C_ C_ 0.452745 0.685673 0.440366 -0.08735
C_ C_ 0.473118 0.681369 0.412687 -0.05681
C_ C_ 0.439593 0.679373 0.388314 -0.08735
C_ C_ 0.11253 0.790284 0.411013 0.68181
C_ C_ 0.136865 0.593535 0.401717 0.68181
C_ C_ 0.139212 0.536375 0.400682 -0.05681
C_ C_ 0.120042 1.00624057 0.41995 -0.08735
C_ C_ 0.113346 0.953495 0.418953 -0.05681
C_ C_ 0.0957262 0.930719 0.393962 -0.05681
C_ C_ 0.0858766 0.959576 0.369358 -0.08735
C_ C_ 0.0869721 1.0111169 0.371724 -0.08735
C_ C_ 0.127657 0.922569 0.441844 -0.08735
C_ C_ 0.126572 0.870081 0.439805 -0.08735
C_ C_ 0.10994 0.846215 0.413625 -0.05681
C_ C_ 0.0935871 0.877394 0.392168 -0.08735
C_ C_ 0.027815 0.68801 0.40866 0.68181
C_ C_ 0.101264 0.632302 0.480869 0.1947
C_ C_ 0.103917 0.602021 0.0123865 -0.08735
C_ C_ 0.119362 0.637186 0.0332799 -0.08735
C_ C_ 0.144763 0.681372 0.0283894 -0.05681
C_ C_ 0.158327 0.690661 0.99971 0.18498
C_ C_ 0.17534 0.747457 0.49645 -0.08735
C_ C_ 0.202814 0.769829 0.0137124 -0.08735
C_ C_ 0.189728 0.760478 0.0425087 -0.08735
C_ C_ 0.158108 0.71854 0.0505684 0.18498
C_ C_ 0.184732 0.691495 0.098296 0.44287
C_ C_ 0.100273 0.714285 0.0918239 0.44287
C_ C_ 0.0892884 0.708474 0.121789 -0.05681
C_ C_ 0.0403051 0.713398 0.134055 -0.08735
C_ C_ 0.0344993 0.712278 0.163779 -0.08735
C_ C_ 0.074218 0.695484 0.182281 -0.05681
C_ C_ 0.123103 0.688868 0.16986 -0.05681
C_ C_ 0.130753 0.696513 0.140259 -0.05681
C_ C_ 0.176163 0.683504 0.128256 -0.05681
C_ C_ 0.212212 0.658139 0.144974 -0.08735
C_ C_ 0.20851 0.655136 0.174324 -0.08735
C_ C_ 0.162571 0.670738 0.186885 -0.05681
C_ C_ 0.154978 0.667868 0.21699 0.44287
C_ C_ 0.0656167 0.684379 0.211705 0.44287
C_ C_ 0.0953414 0.657435 0.258517 0.18498
C_ C_ 0.0740234 0.612819 0.265514 -0.08735
C_ C_ 0.0610516 0.599679 0.294854 -0.08735
C_ C_ 0.0739802 0.633434 0.316627 -0.08735
C_ C_ 0.107885 0.67266 0.310698 0.18498
C_ C_ 0.112502 0.68904 0.281603 -0.05681
C_ C_ 0.137185 0.733719 0.275531 -0.08735
C_ C_ 0.160909 0.76103 0.296706 -0.08735
C_ C_ 0.155959 0.743897 0.325151 0.1947
C_ C_ 0.267037 0.828867 0.15254 0.68181
C_ C_ 0.212638 0.824444 0.147646 -0.05681
C_ C_ 0.177863 0.818082 0.170824 -0.08735
C_ C_ 0.126471 0.823518 0.167709 -0.05681
C_ C_ 0.104685 0.829155 0.141086 -0.05681
C_ C_ 0.137534 0.834347 0.116527 -0.08735
C_ C_ 0.190745 0.831573 0.120677 -0.08735
C_ C_ 0.0943145 0.820564 0.191209 -0.08735
C_ C_ 0.0432776 0.82694 0.189295 -0.08735
C_ C_ 0.0194833 0.83353 0.161674 -0.05681
C_ C_ 0.0525982 0.836427 0.138073 -0.08735
C_ C_ 0.369071 0.72617 0.161944 0.68181
C_ C_ 0.375049 0.925112 0.148566 0.68181
C_ C_ 0.377792 0.980457 0.147908 -0.05681
C_ C_ 0.38172 0.509644 0.170472 -0.08735
C_ C_ 0.379106 0.562278 0.168839 -0.05681
C_ C_ 0.377775 0.584806 0.14096 -0.05681
C_ C_ 0.373494 0.554455 0.116478 -0.08735
C_ C_ 0.389792 0.00208667 0.122085 -0.08735
C_ C_ 0.37585 0.593665 0.19355 -0.08735
C_ C_ 0.378666 0.645678 0.190657 -0.08735
C_ C_ 0.371344 0.669022 0.163561 -0.05681
C_ C_ 0.370062 0.637357 0.138782 -0.08735
C_ C_ 0.466266 0.820678 0.159194 0.68181
C_ C_ 0.397205 0.881808 0.232878 0.1947
C_ C_ 0.412317 0.891335 0.261057 -0.08735
C_ C_ 0.389034 0.863434 0.283575 -0.08735
C_ C_ 0.352624 0.824172 0.277265 -0.05681
C_ C_ 0.347168 0.808128 0.24792 0.18498
C_ C_ 0.313357 0.768781 0.241749 -0.08735
C_ C_ 0.291276 0.740524 0.264033 -0.08735
C_ C_ 0.301042 0.755376 0.293346 -0.08735
C_ C_ 0.331351 0.79598 0.300156 0.18498
C_ C_ 0.302312 0.819184 0.348257 0.44287
C_ C_ 0.389108 0.802135 0.341164 0.44287
C_ C_ 0.399299 0.815637 0.370303 -0.05681
C_ C_ 0.44856 0.805294 0.383521 -0.08735
C_ C_ 0.456697 0.811797 0.413372 -0.08735
C_ C_ 0.413576 0.822488 0.431517 -0.05681
C_ C_ 0.366897 0.835673 0.418797 -0.05681
C_ C_ 0.359014 0.83024 0.389234 -0.05681
C_ C_ 0.311254 0.834118 0.377538 -0.05681
C_ C_ 0.270644 0.853004 0.395051 -0.08735
C_ C_ 0.280676 0.866404 0.423337 -0.08735
C_ C_ 0.3276 0.850742 0.436279 -0.05681
C_ C_ 0.33519 0.859614 0.465141 0.44287
C_ C_ 0.419594 0.829319 0.461863 0.44287
C_ C_ 0.402207 0.834111 0.00686286 0.18498
C_ C_ 0.42466 0.880167 0.0113468 -0.08735
C_ C_ 0.433896 0.899355 0.0386003 -0.08735
C_ C_ 0.417949 0.873526 0.0629195 -0.08735
C_ C_ 0.387974 0.829639 0.0584928 0.18498
C_ C_ 0.381273 0.808437 0.0307253 -0.05681
C_ C_ 0.356834 0.762511 0.0280011 -0.08735
C_ C_ 0.325135 0.745995 0.0497672 -0.08735
C_ C_ 0.332075 0.76641 0.0772814 0.1947
N_ N_ 0.124273 0.677979 0.476891 -0.29468
N_ N_ 0.148428 0.70686 0.0809769 -0.17154
N_ N_ 0.106158 0.672384 0.22881 -0.17154
N_ N_ 0.131882 0.699377 0.33166 -0.29468
N_ N_ 0.365486 0.840817 0.226309 -0.29468
N_ N_ 0.341206 0.807372 0.329822 -0.17154
N_ N_ 0.378827 0.840471 0.478873 -0.17154
N_ N_ 0.364564 0.806513 0.0819866 -0.29468
O_ O_ 0.203146 0.700147 0.430269 -0.58347
O_ O_ 0.19523 0.697573 0.383244 -0.58347
O_ O_ 0.124646 0.763329 0.432317 -0.58347
O_ O_ 0.115708 0.770917 0.386231 -0.58347
O_ O_ 0.141087 0.617522 0.425839 -0.58347
O_ O_ 0.124735 0.619466 0.37906 -0.58347
O_ O_ 0.0560405 0.684245 0.430378 -0.58347
O_ O_ 0.0466898 0.690844 0.383779 -0.58347
O_ O_ 0.0651318 0.729457 0.0735345 -0.46727
O_ O_ 0.229157 0.681893 0.0886013 -0.46727
O_ O_ 0.0194698 0.687393 0.222659 -0.46727
O_ O_ 0.194014 0.665492 0.234976 -0.46727
O_ O_ 0.285338 0.82191 0.177616 -0.58347
O_ O_ 0.294925 0.826523 0.130671 -0.58347
O_ O_ 0.370375 0.753598 0.184209 -0.58347
O_ O_ 0.362019 0.747536 0.138043 -0.58347
O_ O_ 0.365067 0.902899 0.172956 -0.58347
O_ O_ 0.375877 0.898679 0.125178 -0.58347
O_ O_ 0.437011 0.831881 0.180465 -0.58347
O_ O_ 0.446359 0.815482 0.134664 -0.58347
O_ O_ 0.426029 0.786802 0.324532 -0.46727
O_ O_ 0.257596 0.821884 0.337622 -0.46727
O_ O_ 0.465747 0.824743 0.472952 -0.46727
O_ O_ 0.299907 0.883361 0.480361 -0.46727
Zn Zn 0.13154 0.677788 0.883252 0.90689
Zn Zn 0.140477 0.675489 0.931294 0.90689
Zn Zn 0.378153 0.819347 0.628569 0.90689
Zn Zn 0.364742 0.820178 0.67972 0.90689
H_ H_ 0.306434 0.695987 0.949015 0.11455
H_ H_ 0.373938 0.660428 0.852704 0.11455
H_ H_ 0.281923 0.654875 0.860387 0.11455
H_ H_ 0.395613 0.680442 0.968579 0.11455
H_ H_ 0.485756 0.672319 0.959191 0.11455
H_ H_ 0.459127 0.650499 0.870061 0.11455
H_ H_ 0.170776 0.507325 0.941139 0.11455
H_ H_ 0.130353 0.925586 0.844881 0.11455
H_ H_ 0.155865 0.518531 0.849381 0.11455
H_ H_ 0.164963 0.92808 0.960827 0.11455
H_ H_ 0.148241 0.838768 0.960801 0.11455
H_ H_ 0.122085 0.84356 0.87095 0.11455
H_ H_ 0.0848245 0.602115 0.966687 0.11455
H_ H_ 0.0676927 0.581055 0.511061 0.11455
H_ H_ 0.104517 0.623621 0.554605 0.11455
H_ H_ 0.200576 0.742249 0.970701 0.11455
H_ H_ 0.205013 0.812937 0.517022 0.11455
H_ H_ 0.196446 0.781538 0.564312 0.11455
H_ H_ 1.0138847 0.728794 0.626017 0.11455
H_ H_ 1.00505955 0.709553 0.676699 0.11455
H_ H_ 0.251977 0.639169 0.633848 0.11455
H_ H_ 0.248291 0.638355 0.68647 0.11455
H_ H_ 0.0820595 0.575161 0.75341 0.11455
H_ H_ 0.0517649 0.557094 0.803022 0.11455
H_ H_ 0.0816911 0.615776 0.841235 0.11455
H_ H_ 0.167213 0.732411 0.756416 0.11455
H_ H_ 0.200823 0.786789 0.79893 0.11455
H_ H_ 0.18227 0.758262 0.847779 0.11455
H_ H_ 0.199758 0.784842 0.689861 0.11455
H_ H_ 0.129928 0.852416 0.597714 0.11455
H_ H_ 0.222104 0.839605 0.602454 0.11455
H_ H_ 0.11229 0.802 0.712944 0.11455
H_ H_ 0.0213098 0.808458 0.706247 0.11455
H_ H_ 0.0417944 0.851603 0.617772 0.11455
H_ H_ 0.395576 0.987134 0.685163 0.11455
H_ H_ 0.384984 0.562684 0.597448 0.11455
H_ H_ 0.313993 0.980358 0.605579 0.11455
H_ H_ 0.398083 0.576899 0.716163 0.11455
H_ H_ 0.409086 0.669778 0.709542 0.11455
H_ H_ 0.390189 0.655355 0.618785 0.11455
H_ H_ 0.394287 0.905794 0.716547 0.11455
H_ H_ 0.411427 0.929444 0.76877 0.11455
H_ H_ 0.395442 0.87237 0.805107 0.11455
H_ H_ 0.305553 0.747713 0.719028 0.11455
H_ H_ 0.2886 0.685541 0.75719 0.11455
H_ H_ 0.312909 0.708227 0.808834 0.11455
H_ H_ 0.497204 0.782861 0.869926 0.11455
H_ H_ 0.50616 0.790893 0.920949 0.11455
H_ H_ 0.243315 0.830582 0.885066 0.11455
H_ H_ 0.256108 0.835765 0.939322 0.11455
H_ H_ 0.443561 0.899057 0.993681 0.11455
H_ H_ 0.460879 0.933186 0.550475 0.11455
H_ H_ 0.432949 0.872016 0.589185 0.11455
H_ H_ 0.324324 0.776552 0.505373 0.11455
H_ H_ 0.286235 0.728307 0.548651 0.11455
H_ H_ 0.31352 0.747068 0.595567 0.11455
C_ C_ 0.235545 0.687594 0.907789 0.68181
C_ C_ 0.288015 0.679581 0.904232 -0.05681
C_ C_ 0.321659 0.686574 0.926952 -0.08735
C_ C_ 0.373896 0.679511 0.923592 -0.05681
C_ C_ 0.393124 0.665033 0.896342 -0.05681
C_ C_ 0.359165 0.661063 0.873738 -0.08735
C_ C_ 0.307604 0.662518 0.87822 -0.08735
C_ C_ 0.409042 0.673696 0.947097 -0.08735
C_ C_ 0.460563 0.672596 0.941541 -0.08735
C_ C_ 0.479711 0.662506 0.913371 -0.05681
C_ C_ 0.446149 0.664594 0.890313 -0.08735
C_ C_ 0.127803 0.775892 0.913656 0.68181
C_ C_ 0.158469 0.578678 0.898517 0.68181
C_ C_ 0.157789 0.521086 0.895771 -0.05681
C_ C_ 0.149472 0.990663 0.918698 -0.08735
C_ C_ 0.145033 0.940034 0.917428 -0.05681
C_ C_ 0.134711 0.917863 0.891061 -0.05681
C_ C_ 0.135381 0.944933 0.866192 -0.08735
C_ C_ 0.144407 -0.0027009999999999534 0.866939 -0.08735
C_ C_ 0.152351 0.910224 0.941386 -0.08735
C_ C_ 0.146431 0.859549 0.941317 -0.08735
C_ C_ 0.133567 0.832879 0.915293 -0.05681
C_ C_ 0.130216 0.863492 0.890611 -0.08735
C_ C_ 0.0382144 0.674139 0.906398 0.68181
C_ C_ 0.110968 0.619027 0.983981 0.1947
C_ C_ 0.0936284 0.613049 0.508592 -0.08735
C_ C_ 0.110288 0.638608 0.533412 -0.08735
C_ C_ 0.134133 0.685159 0.529141 -0.05681
C_ C_ 0.142586 0.705512 0.50026 0.18498
C_ C_ 0.188157 0.733383 0.992875 -0.08735
C_ C_ 0.188443 0.775293 0.520161 -0.08735
C_ C_ 0.175726 0.760755 0.547152 -0.08735
C_ C_ 0.152673 0.713354 0.55225 0.18498
C_ C_ 0.185456 0.683196 0.597719 0.44287
C_ C_ 0.0997187 0.708699 0.595042 0.44287
C_ C_ 0.0929016 0.700909 0.624927 -0.05681
C_ C_ 0.0455405 0.709055 0.638064 -0.08735
C_ C_ 0.0398591 0.697484 0.667897 -0.08735
C_ C_ 0.0796127 0.68214 0.684309 -0.05681
C_ C_ 0.127116 0.673054 0.671233 -0.05681
C_ C_ 0.132142 0.682122 0.641023 -0.05681
C_ C_ 0.179062 0.673235 0.627843 -0.05681
C_ C_ 0.217499 0.651046 0.645192 -0.08735
C_ C_ 0.217155 0.653786 0.674509 -0.08735
C_ C_ 0.170194 0.659161 0.688162 -0.05681
C_ C_ 0.163308 0.64726 0.717319 0.44287
C_ C_ 0.0780805 0.678549 0.71438 0.44287
C_ C_ 0.110391 0.647791 0.760808 0.18498
C_ C_ 0.087142 0.602328 0.769164 -0.08735
C_ C_ 0.0755325 0.590147 0.797746 -0.08735
C_ C_ 0.093662 0.621497 0.818788 -0.08735
C_ C_ 0.121093 0.665839 0.812778 0.18498
C_ C_ 0.128268 0.679524 0.783128 -0.05681
C_ C_ 0.156402 0.72504 0.777871 -0.08735
C_ C_ 0.181554 0.750137 0.801728 -0.08735
C_ C_ 0.168938 0.735054 0.829719 0.1947
C_ C_ 0.272099 0.810166 0.65173 0.68181
C_ C_ 0.216264 0.812905 0.648536 -0.05681
C_ C_ 0.183847 0.802694 0.670858 -0.08735
C_ C_ 0.128728 0.813035 0.667446 -0.05681
C_ C_ 0.109747 0.828716 0.640324 -0.05681
C_ C_ 0.14429 0.839041 0.617545 -0.08735
C_ C_ 0.196013 0.827514 0.621071 -0.08735
C_ C_ 0.0970882 0.809429 0.691542 -0.08735
C_ C_ 0.0442515 0.815729 0.687663 -0.08735
C_ C_ 0.0230558 0.826268 0.660839 -0.05681
C_ C_ 0.0568929 0.832362 0.637274 -0.08735
C_ C_ 0.388619 0.721957 0.662463 0.68181
C_ C_ 0.360679 0.918853 0.646189 0.68181
C_ C_ 0.360798 0.975952 0.644807 -0.05681
C_ C_ 0.378519 0.509096 0.674568 -0.08735
C_ C_ 0.388371 0.56121 0.671372 -0.05681
C_ C_ 0.388602 0.580548 0.643482 -0.05681
C_ C_ 0.384391 0.548625 0.619188 -0.08735
C_ C_ 0.334283 1.0015877 0.622098 -0.08735
C_ C_ 0.401315 0.592137 0.695438 -0.08735
C_ C_ 0.407106 0.643691 0.691415 -0.08735
C_ C_ 0.397096 0.665452 0.663878 -0.05681
C_ C_ 0.392469 0.634334 0.639678 -0.08735
C_ C_ 0.469212 0.832568 0.657571 0.68181
C_ C_ 0.383658 0.881274 0.733178 0.1947
C_ C_ 0.395626 0.894006 0.762368 -0.08735
C_ C_ 0.384536 0.85999 0.783737 -0.08735
C_ C_ 0.358 0.814507 0.777274 -0.05681
C_ C_ 0.345795 0.801887 0.748246 0.18498
C_ C_ 0.320013 0.755432 0.740566 -0.08735
C_ C_ 0.308136 0.720844 0.762188 -0.08735
C_ C_ 0.323026 0.731805 0.790668 -0.08735
C_ C_ 0.345967 0.777902 0.799123 0.18498
C_ C_ 0.315437 0.804978 0.845942 0.44287
C_ C_ 0.402275 0.782351 0.840628 0.44287
C_ C_ 0.412276 0.791475 0.869714 -0.05681
C_ C_ 0.463052 0.789104 0.881993 -0.08735
C_ C_ 0.468618 0.79383 0.91165 -0.08735
C_ C_ 0.426589 0.80119 0.930175 -0.05681
C_ C_ 0.378614 0.807927 0.918549 -0.05681
C_ C_ 0.369693 0.802551 0.888409 -0.05681
C_ C_ 0.321301 0.809836 0.876164 -0.05681
C_ C_ 0.280351 0.823255 0.895315 -0.08735
C_ C_ 0.288385 0.828818 0.92477 -0.08735
C_ C_ 0.337862 0.823258 0.936534 -0.05681
C_ C_ 0.346528 0.830601 0.966374 0.44287
C_ C_ 0.432377 0.804234 0.960131 0.44287
C_ C_ 0.386142 0.853374 0.509017 0.18498
C_ C_ 0.416859 0.896363 0.515944 -0.08735
C_ C_ 0.434061 0.903115 0.545157 -0.08735
C_ C_ 0.420911 0.869645 0.567301 -0.08735
C_ C_ 0.388063 0.82941 0.561065 0.18498
C_ C_ 0.373238 0.819403 0.532088 -0.05681
C_ C_ 0.33891 0.780633 0.52747 -0.08735
C_ C_ 0.315223 0.757534 0.551686 -0.08735
C_ C_ 0.327662 0.770195 0.57886 0.1947
N_ N_ 0.139038 0.659834 0.978406 -0.29468
N_ N_ 0.146033 0.700553 0.582552 -0.17154
N_ N_ 0.117776 0.660893 0.730369 -0.17154
N_ N_ 0.136883 0.694831 0.835092 -0.29468
N_ N_ 0.361827 0.835724 0.727652 -0.29468
N_ N_ 0.35589 0.791122 0.829149 -0.17154
N_ N_ 0.392354 0.817692 0.977904 -0.17154
N_ N_ 0.3671 0.801994 0.583854 -0.29468
O_ O_ 0.213803 0.681404 0.931528 -0.58347
O_ O_ 0.207262 0.695029 0.886166 -0.58347
O_ O_ 0.13336 0.750421 0.936633 -0.58347
O_ O_ 0.121741 0.753395 0.889368 -0.58347
O_ O_ 0.154256 0.59558 0.9235 -0.58347
O_ O_ 0.147025 0.604939 0.877238 -0.58347
O_ O_ 0.0655223 0.673156 0.929302 -0.58347
O_ O_ 0.0578311 0.669219 0.880776 -0.58347
O_ O_ 0.0606526 0.718322 0.578502 -0.46727
O_ O_ 0.228618 0.674074 0.586312 -0.46727
O_ O_ 0.0361473 0.690176 0.728941 -0.46727
O_ O_ 0.202142 0.635145 0.733141 -0.46727
O_ O_ 0.29274 0.809216 0.676903 -0.58347
O_ O_ 0.301485 0.81275 0.629507 -0.58347
O_ O_ 0.378748 0.746668 0.685375 -0.58347
O_ O_ 0.386927 0.744317 0.638221 -0.58347
O_ O_ 0.353599 0.895035 0.669063 -0.58347
O_ O_ 0.369216 0.891668 0.624032 -0.58347
O_ O_ 0.438211 0.832684 0.679021 -0.58347
O_ O_ 0.451933 0.829971 0.632841 -0.58347
O_ O_ 0.440758 0.769536 0.823786 -0.46727
O_ O_ 0.26915 0.810169 0.8351 -0.46727
O_ O_ 0.478118 0.798354 0.971427 -0.46727
O_ O_ 0.309484 0.844157 0.983 -0.46727
Zn Zn 0.613721 0.186109 0.3805 0.90689
Zn Zn 0.624102 0.182441 0.429066 0.90689
Zn Zn 0.874595 0.31184 0.132664 0.90689
Zn Zn 0.862533 0.322967 0.180535 0.90689
H_ H_ 0.793874 0.195939 0.445726 0.11455
H_ H_ 0.866603 0.17753 0.349544 0.11455
H_ H_ 0.772774 0.167007 0.356364 0.11455
H_ H_ 0.878419 0.193871 0.466971 0.11455
H_ H_ 0.967937 0.199322 0.457664 0.11455
H_ H_ 0.949568 0.17927 0.36885 0.11455
H_ H_ 0.652638 0.0141344 0.438263 0.11455
H_ H_ 0.648309 0.434607 0.348659 0.11455
H_ H_ 0.586789 0.0285141 0.353779 0.11455
H_ H_ 0.623706 0.422297 0.466786 0.11455
H_ H_ 0.616624 0.33467 0.460109 0.11455
H_ H_ 0.609741 0.353567 0.369298 0.11455
H_ H_ 0.565432 0.116437 0.467495 0.11455
H_ H_ 0.577184 0.0676389 0.0128155 0.11455
H_ H_ 0.606796 0.112638 0.0541194 0.11455
H_ H_ 0.677959 0.253957 0.47202 0.11455
H_ H_ 0.744017 0.285933 0.0177813 0.11455
H_ H_ 0.720016 0.254403 0.0671225 0.11455
H_ H_ 0.510773 0.188664 0.118785 0.11455
H_ H_ 0.497493 0.197492 0.170251 0.11455
H_ H_ 0.760049 0.173533 0.146671 0.11455
H_ H_ 0.744391 0.162854 0.195831 0.11455
H_ H_ 0.547952 0.0888811 0.250237 0.11455
H_ H_ 0.52447 0.0682715 0.299946 0.11455
H_ H_ 0.546833 0.12596 0.338079 0.11455
H_ H_ 0.63926 0.245006 0.255053 0.11455
H_ H_ 0.676822 0.295039 0.294008 0.11455
H_ H_ 0.664096 0.261153 0.344856 0.11455
H_ H_ 0.698443 0.292107 0.198049 0.11455
H_ H_ 0.62744 0.30422 0.101818 0.11455
H_ H_ 0.716542 0.301732 0.107397 0.11455
H_ H_ 0.612189 0.313299 0.219206 0.11455
H_ H_ 0.517286 0.326064 0.211344 0.11455
H_ H_ 0.539829 0.3138 0.120905 0.11455
H_ H_ 0.892042 0.485603 0.195083 0.11455
H_ H_ 0.905211 0.0602084 0.0979509 0.11455
H_ H_ 0.842441 0.472488 0.108111 0.11455
H_ H_ 0.853114 0.071745 0.213448 0.11455
H_ H_ 0.864527 0.162366 0.209084 0.11455
H_ H_ 0.899509 0.147296 0.118126 0.11455
H_ H_ 0.920006 0.377891 0.215955 0.11455
H_ H_ 0.934039 0.417649 0.265071 0.11455
H_ H_ 0.902502 0.368615 0.305255 0.11455
H_ H_ 0.795789 0.257152 0.224549 0.11455
H_ H_ 0.764887 0.205322 0.263539 0.11455
H_ H_ 0.789958 0.223416 0.314365 0.11455
H_ H_ 0.976365 0.294661 0.377383 0.11455
H_ H_ -0.011875999999999998 0.299271 0.427211 0.11455
H_ H_ 0.725773 0.322595 0.390734 0.11455
H_ H_ 0.735651 0.334927 0.441181 0.11455
H_ H_ 0.917129 0.414368 0.500282 0.11455
H_ H_ 0.939463 0.434872 0.0457117 0.11455
H_ H_ 0.922921 0.379873 0.0861837 0.11455
H_ H_ 0.853249 0.237761 0.00664818 0.11455
H_ H_ 0.81565 0.197205 0.0518848 0.11455
H_ H_ 0.822656 0.234432 0.0985161 0.11455
C_ C_ 0.719706 0.180758 0.404807 0.68181
C_ C_ 0.775401 0.180835 0.401484 -0.05681
C_ C_ 0.807712 0.19098 0.424611 -0.08735
C_ C_ 0.859683 0.186421 0.421505 -0.05681
C_ C_ 0.880962 0.180206 0.392914 -0.05681
C_ C_ 0.848008 0.179319 0.370069 -0.08735
C_ C_ 0.795981 0.173487 0.374389 -0.08735
C_ C_ 0.891156 0.191127 0.445615 -0.08735
C_ C_ 0.943259 0.189905 0.440614 -0.08735
C_ C_ 0.964943 0.183974 0.412824 -0.05681
C_ C_ 0.93285 0.178122 0.389398 -0.08735
C_ C_ 0.616938 0.278674 0.411358 0.68181
C_ C_ 0.619945 0.0869442 0.396924 0.68181
C_ C_ 0.622632 0.0284692 0.395007 -0.05681
C_ C_ 0.628993 0.492928 0.425608 -0.08735
C_ C_ 0.626733 0.440537 0.421301 -0.05681
C_ C_ 0.630994 0.419582 0.39361 -0.05681
C_ C_ 0.637015 0.451556 0.36981 -0.08735
C_ C_ 0.638947 0.504313 0.373571 -0.08735
C_ C_ 0.62329 0.407411 0.444905 -0.08735
C_ C_ 0.618587 0.355873 0.440774 -0.08735
C_ C_ 0.622298 0.335578 0.413562 -0.05681
C_ C_ 0.622514 0.367756 0.38949 -0.08735
C_ C_ 0.519287 0.182838 0.407523 0.68181
C_ C_ 0.589212 0.131316 0.483985 0.1947
C_ C_ 0.602296 0.100964 0.0103256 -0.08735
C_ C_ 0.624519 0.122555 0.0341849 -0.08735
C_ C_ 0.654924 0.16493 0.0299541 -0.05681
C_ C_ 0.667213 0.180427 1.00176492 0.18498
C_ C_ 0.670367 0.242109 0.493875 -0.08735
C_ C_ 0.718059 0.251982 0.0210871 -0.08735
C_ C_ 0.706191 0.234815 0.0486556 -0.08735
C_ C_ 0.671413 0.195085 0.0540499 0.18498
C_ C_ 0.694663 0.17051 0.101074 0.44287
C_ C_ 0.609087 0.1929 0.0934709 0.44287
C_ C_ 0.59639 0.183098 0.12199 -0.05681
C_ C_ 0.543356 0.182285 0.13208 -0.08735
C_ C_ 0.53541 0.188152 0.162445 -0.08735
C_ C_ 0.575248 0.181653 0.182473 -0.05681
C_ C_ 0.622792 0.170337 0.171594 -0.05681
C_ C_ 0.633486 0.176183 0.14169 -0.05681
C_ C_ 0.683757 0.170949 0.131041 -0.05681
C_ C_ 0.722836 0.161511 0.151085 -0.08735
C_ C_ 0.712739 0.162253 0.180386 -0.08735
C_ C_ 0.662757 0.161317 0.191058 -0.05681
C_ C_ 0.651359 0.151861 0.220322 0.44287
C_ C_ 0.565706 0.173529 0.212729 0.44287
C_ C_ 0.593193 0.152208 0.261531 0.18498
C_ C_ 0.562589 0.111657 0.268186 -0.08735
C_ C_ 0.553532 0.0969198 0.296525 -0.08735
C_ C_ 0.563904 0.131418 0.31805 -0.08735
C_ C_ 0.591471 0.176292 0.312682 0.18498
C_ C_ 0.608262 0.186049 0.284142 -0.05681
C_ C_ 0.635735 0.231152 0.276748 -0.08735
C_ C_ 0.652255 0.262282 0.29936 -0.08735
C_ C_ 0.642029 0.245804 0.327763 0.1947
C_ C_ 0.770142 0.306812 0.158445 0.68181
C_ C_ 0.715598 0.305352 0.153294 -0.05681
C_ C_ 0.680848 0.301831 0.176644 -0.08735
C_ C_ 0.630218 0.311359 0.173772 -0.05681
C_ C_ 0.610237 0.313222 0.146464 -0.05681
C_ C_ 0.642071 0.312456 0.121695 -0.08735
C_ C_ 0.693309 0.307055 0.126203 -0.08735
C_ C_ 0.595932 0.310874 0.197504 -0.08735
C_ C_ 0.543494 0.318235 0.193793 -0.08735
C_ C_ 0.523371 0.324432 0.166395 -0.05681
C_ C_ 0.557425 0.318298 0.143096 -0.08735
C_ C_ 0.875967 0.219046 0.16068 0.68181
C_ C_ 0.861987 0.416102 0.153802 0.68181
C_ C_ 0.862443 0.47347 0.151821 -0.05681
C_ C_ 0.861758 0.0043481 0.171826 -0.08735
C_ C_ 0.867992 0.0565475 0.168565 -0.05681
C_ C_ 0.885281 0.0786462 0.142 -0.05681
C_ C_ 0.893135 0.0452222 0.119021 -0.08735
C_ C_ 0.856073 0.495694 0.125265 -0.08735
C_ C_ 0.865179 0.087634 0.192286 -0.08735
C_ C_ 0.872671 0.140273 0.189892 -0.08735
C_ C_ 0.885407 0.162533 0.163806 -0.05681
C_ C_ 0.892258 0.130514 0.139556 -0.08735
C_ C_ 0.966833 0.316007 0.156082 0.68181
C_ C_ 0.897692 0.365782 0.234045 0.1947
C_ C_ 0.910332 0.382373 0.261391 -0.08735
C_ C_ 0.889134 0.357671 0.284577 -0.08735
C_ C_ 0.853825 0.316714 0.281156 -0.05681
C_ C_ 0.838738 0.306089 0.252638 0.18498
C_ C_ 0.807081 0.266394 0.246934 -0.08735
C_ C_ 0.789825 0.235951 0.269258 -0.08735
C_ C_ 0.805835 0.245339 0.298382 -0.08735
C_ C_ 0.836587 0.287017 0.305037 0.18498
C_ C_ 0.801375 0.31316 0.350195 0.44287
C_ C_ 0.889978 0.301622 0.345848 0.44287
C_ C_ 0.897051 0.310856 0.375539 -0.05681
C_ C_ 0.943909 0.300929 0.388465 -0.08735
C_ C_ 0.951395 0.307954 0.418103 -0.08735
C_ C_ 0.909508 0.314697 0.434939 -0.05681
C_ C_ 0.860429 0.317347 0.423133 -0.05681
C_ C_ 0.855324 0.316523 0.392856 -0.05681
C_ C_ 0.806583 0.317301 0.380224 -0.05681
C_ C_ 0.763281 0.323313 0.397992 -0.08735
C_ C_ 0.770491 0.33138 0.428024 -0.08735
C_ C_ 0.818181 0.330179 0.441031 -0.05681
C_ C_ 0.823435 0.329912 0.471088 0.44287
C_ C_ 0.913292 0.321414 0.465104 0.44287
C_ C_ 0.895589 0.331142 0.00765216 0.18498
C_ C_ 0.920337 0.379851 0.0117671 -0.08735
C_ C_ 0.930976 0.395925 0.0408619 -0.08735
C_ C_ 0.919924 0.363362 0.0647499 -0.08735
C_ C_ 0.885913 0.321999 0.0599691 0.18498
C_ C_ 0.880438 0.302911 0.0317403 -0.05681
C_ C_ 0.860413 0.253559 0.0284737 -0.08735
C_ C_ 0.837885 0.230107 0.0525162 -0.08735
C_ C_ 0.840825 0.253296 0.0795479 0.1947
N_ N_ 0.617874 0.173818 0.478745 -0.29468
N_ N_ 0.657435 0.183598 0.0832333 -0.17154
N_ N_ 0.603711 0.16166 0.231741 -0.17154
N_ N_ 0.61431 0.203231 0.333507 -0.29468
N_ N_ 0.865431 0.326295 0.229869 -0.29468
N_ N_ 0.842963 0.301292 0.334387 -0.17154
N_ N_ 0.871689 0.328878 0.482041 -0.17154
N_ N_ 0.87007 0.294848 0.0833146 -0.29468
O_ O_ 0.702616 0.175224 0.430371 -0.58347
O_ O_ 0.690958 0.190918 0.383514 -0.58347
O_ O_ 0.634872 0.251936 0.431114 -0.58347
O_ O_ 0.603656 0.258132 0.388507 -0.58347
O_ O_ 0.618938 0.1083 0.420993 -0.58347
O_ O_ 0.623384 0.114214 0.374761 -0.58347
O_ O_ 0.548131 0.190015 0.428052 -0.58347
O_ O_ 0.538153 0.181911 0.381724 -0.58347
O_ O_ 0.571593 0.202386 0.0757401 -0.46727
O_ O_ 0.74095 0.171082 0.0928168 -0.46727
O_ O_ 0.519381 0.179534 0.22187 -0.46727
O_ O_ 0.687446 0.137611 0.23713 -0.46727
O_ O_ 0.787574 0.323169 0.182125 -0.58347
O_ O_ 0.799231 0.30209 0.136993 -0.58347
O_ O_ 0.860538 0.246484 0.180415 -0.58347
O_ O_ 0.887055 0.240316 0.136877 -0.58347
O_ O_ 0.865187 0.397189 0.178045 -0.58347
O_ O_ 0.862414 0.387419 0.131358 -0.58347
O_ O_ 0.938249 0.317663 0.177661 -0.58347
O_ O_ 0.948289 0.323324 0.130736 -0.58347
O_ O_ 0.929915 0.286255 0.329917 -0.46727
O_ O_ 0.756826 0.315164 0.337685 -0.46727
O_ O_ 0.956979 0.309023 0.477345 -0.46727
O_ O_ 0.785282 0.331719 0.488301 -0.46727
Zn Zn 0.641224 0.174792 0.881675 0.90689
Zn Zn 0.643555 0.168268 0.930349 0.90689
Zn Zn 0.870358 0.310604 0.633951 0.90689
Zn Zn 0.864027 0.322433 0.678966 0.90689
H_ H_ 0.812902 0.175741 0.945208 0.11455
H_ H_ 0.886944 0.162346 0.849611 0.11455
H_ H_ 0.795477 0.181695 0.854823 0.11455
H_ H_ 0.900518 0.18405 0.966298 0.11455
H_ H_ 0.988409 0.167962 0.961199 0.11455
H_ H_ 0.971046 0.168805 0.868755 0.11455
H_ H_ 0.655947 0.00069558 0.944432 0.11455
H_ H_ 0.603476 0.435066 0.850517 0.11455
H_ H_ 0.646813 0.0147304 0.851204 0.11455
H_ H_ 0.659984 0.417492 0.965886 0.11455
H_ H_ 0.643254 0.323611 0.961923 0.11455
H_ H_ 0.621123 0.341344 0.871236 0.11455
H_ H_ 0.593361 0.10203 0.966365 0.11455
H_ H_ 0.554716 0.0852447 0.515461 0.11455
H_ H_ 0.582694 0.136897 0.55453 0.11455
H_ H_ 0.701394 0.242707 0.977429 0.11455
H_ H_ 0.701655 0.310898 0.512534 0.11455
H_ H_ 0.693058 0.286014 0.561039 0.11455
H_ H_ 0.514129 0.214566 0.625995 0.11455
H_ H_ 0.504659 0.195331 0.676469 0.11455
H_ H_ 0.764273 0.179693 0.635197 0.11455
H_ H_ 0.758849 0.163728 0.685674 0.11455
H_ H_ 0.591079 0.0819938 0.750788 0.11455
H_ H_ 0.568543 0.0586414 0.80088 0.11455
H_ H_ 0.585022 0.118569 0.841168 0.11455
H_ H_ 0.674277 0.244487 0.760051 0.11455
H_ H_ 0.694706 0.297316 0.800388 0.11455
H_ H_ 0.692049 0.258614 0.848779 0.11455
H_ H_ 0.696339 0.282231 0.68921 0.11455
H_ H_ 0.629272 0.365923 0.603405 0.11455
H_ H_ 0.719905 0.342658 0.607622 0.11455
H_ H_ 0.609326 0.294957 0.714513 0.11455
H_ H_ 0.517891 0.29512 0.706279 0.11455
H_ H_ 0.543669 0.343012 0.618927 0.11455
H_ H_ 0.86177 0.486372 0.691559 0.11455
H_ H_ 0.882489 0.0625972 0.597038 0.11455
H_ H_ 0.84946 0.473822 0.600117 0.11455
H_ H_ 0.842725 0.0711921 0.714251 0.11455
H_ H_ 0.860219 0.163151 0.709893 0.11455
H_ H_ 0.884506 0.147568 0.619429 0.11455
H_ H_ 0.910682 0.397388 0.717961 0.11455
H_ H_ 0.923758 0.424818 0.767021 0.11455
H_ H_ 0.889728 0.378081 0.806812 0.11455
H_ H_ 0.814084 0.250304 0.722752 0.11455
H_ H_ 0.783356 0.194375 0.761539 0.11455
H_ H_ 0.783786 0.224092 0.81093 0.11455
H_ H_ 0.982545 0.282016 0.867748 0.11455
H_ H_ -0.0063389999999999835 0.296839 0.920579 0.11455
H_ H_ 0.736202 0.351361 0.888872 0.11455
H_ H_ 0.743532 0.335176 0.939814 0.11455
H_ H_ 0.922848 0.403927 0.994287 0.11455
H_ H_ 0.933066 0.433498 0.549114 0.11455
H_ H_ 0.914179 0.376989 0.588409 0.11455
H_ H_ 0.834415 0.247413 0.508473 0.11455
H_ H_ 0.803948 0.196751 0.548464 0.11455
H_ H_ 0.820976 0.228531 0.596463 0.11455
C_ C_ 0.740372 0.180186 0.902641 0.68181
C_ C_ 0.79825 0.178647 0.900688 -0.05681
C_ C_ 0.827913 0.1712 0.924633 -0.08735
C_ C_ 0.880053 0.170839 0.920929 -0.05681
C_ C_ 0.90149 0.166276 0.893222 -0.05681
C_ C_ 0.869876 0.165076 0.869934 -0.08735
C_ C_ 0.820095 0.172222 0.872878 -0.08735
C_ C_ 0.911828 0.170096 0.945559 -0.08735
C_ C_ 0.965908 0.166248 0.941519 -0.08735
C_ C_ 0.987061 0.167352 0.91459 -0.05681
C_ C_ 0.953972 0.167639 0.889883 -0.08735
C_ C_ 0.630453 0.270707 0.912888 0.68181
C_ C_ 0.655653 0.0723742 0.898676 0.68181
C_ C_ 0.656941 0.01595 0.896863 -0.05681
C_ C_ 0.647518 0.487303 0.924419 -0.08735
C_ C_ 0.643445 0.434229 0.921227 -0.05681
C_ C_ 0.630455 0.413623 0.894098 -0.05681
C_ C_ 0.625445 0.446639 0.870003 -0.08735
C_ C_ 0.632484 0.499138 0.873267 -0.08735
C_ C_ 0.647484 0.402476 0.94521 -0.08735
C_ C_ 0.639589 0.348311 0.943759 -0.08735
C_ C_ 0.633337 0.327368 0.916512 -0.05681
C_ C_ 0.62717 0.35974 0.892607 -0.08735
C_ C_ 0.5436 0.168234 0.907557 0.68181
C_ C_ 0.615761 0.114309 0.982954 0.1947
C_ C_ 0.584065 0.112721 0.5109 -0.08735
C_ C_ 0.603214 0.140577 0.534067 -0.08735
C_ C_ 0.631853 0.185796 0.529033 -0.05681
C_ C_ 0.640753 0.199594 0.499921 0.18498
C_ C_ 0.697377 0.224363 0.997821 -0.08735
C_ C_ 0.683708 0.274075 0.51689 -0.08735
C_ C_ 0.677406 0.260311 0.545302 -0.08735
C_ C_ 0.648052 0.218802 0.552347 0.18498
C_ C_ 0.687648 0.193655 0.597334 0.44287
C_ C_ 0.599354 0.209722 0.595621 0.44287
C_ C_ 0.594752 0.20328 0.624896 -0.05681
C_ C_ 0.547789 0.207457 0.638539 -0.08735
C_ C_ 0.542299 0.19606 0.667571 -0.08735
C_ C_ 0.584538 0.18512 0.684514 -0.05681
C_ C_ 0.633086 0.183848 0.670361 -0.05681
C_ C_ 0.637427 0.195722 0.641441 -0.05681
C_ C_ 0.683748 0.186928 0.62727 -0.05681
C_ C_ 0.726247 0.182393 0.645034 -0.08735
C_ C_ 0.72329 0.17312 0.674238 -0.08735
C_ C_ 0.675601 0.17608 0.687753 -0.05681
C_ C_ 0.671183 0.16676 0.717337 0.44287
C_ C_ 0.581395 0.182155 0.715397 0.44287
C_ C_ 0.619224 0.155268 0.761184 0.18498
C_ C_ 0.600744 0.106278 0.767574 -0.08735
C_ C_ 0.592524 0.0901292 0.796975 -0.08735
C_ C_ 0.601154 0.125031 0.82023 -0.08735
C_ C_ 0.626266 0.169645 0.81439 0.18498
C_ C_ 0.63268 0.18646 0.784653 -0.05681
C_ C_ 0.661969 0.231428 0.780833 -0.08735
C_ C_ 0.67905 0.260111 0.804591 -0.08735
C_ C_ 0.671694 0.24146 0.830888 0.1947
C_ C_ 0.769087 0.312203 0.654896 0.68181
C_ C_ 0.71421 0.320392 0.651341 -0.05681
C_ C_ 0.681724 0.309418 0.674472 -0.08735
C_ C_ 0.630554 0.319746 0.672199 -0.05681
C_ C_ 0.611215 0.339199 0.646711 -0.05681
C_ C_ 0.644177 0.347287 0.623033 -0.08735
C_ C_ 0.695673 0.341235 0.626986 -0.08735
C_ C_ 0.595991 0.311281 0.695029 -0.08735
C_ C_ 0.542739 0.313244 0.689656 -0.08735
C_ C_ 0.523077 0.326419 0.663478 -0.05681
C_ C_ 0.557029 0.338977 0.641138 -0.08735
C_ C_ 0.881432 0.217583 0.662308 0.68181
C_ C_ 0.85163 0.413795 0.64826 0.68181
C_ C_ 0.854055 0.472296 0.645591 -0.05681
C_ C_ 0.86258 0.00398315 0.672027 -0.08735
C_ C_ 0.857903 0.055302 0.670024 -0.05681
C_ C_ 0.865725 0.0782914 0.642073 -0.05681
C_ C_ 0.869591 0.0467911 0.617775 -0.08735
C_ C_ 0.853642 0.497266 0.618747 -0.08735
C_ C_ 0.854335 0.0867533 0.693949 -0.08735
C_ C_ 0.862726 0.139122 0.691392 -0.08735
C_ C_ 0.871774 0.162311 0.664806 -0.05681
C_ C_ 0.871596 0.130364 0.640039 -0.08735
C_ C_ 0.967659 0.326421 0.658212 0.68181
C_ C_ 0.890612 0.378906 0.734602 0.1947
C_ C_ 0.896871 0.395026 0.762441 -0.08735
C_ C_ 0.87684 0.366419 0.784932 -0.08735
C_ C_ 0.849846 0.321822 0.77937 -0.05681
C_ C_ 0.841836 0.307649 0.750285 0.18498
C_ C_ 0.815713 0.262861 0.744314 -0.08735
C_ C_ 0.797819 0.231115 0.76624 -0.08735
C_ C_ 0.805649 0.243937 0.795296 -0.08735
C_ C_ 0.830686 0.289608 0.802311 0.18498
C_ C_ 0.804097 0.318775 0.849133 0.44287
C_ C_ 0.88835 0.290237 0.84232 0.44287
C_ C_ 0.901306 0.300238 0.871463 -0.05681
C_ C_ 0.950732 0.290366 0.88248 -0.08735
C_ C_ 0.956276 0.296899 0.9118 -0.08735
C_ C_ 0.913793 0.297057 0.930936 -0.05681
C_ C_ 0.865293 0.310037 0.920227 -0.05681
C_ C_ 0.859355 0.309826 0.890019 -0.05681
C_ C_ 0.812685 0.325539 0.878995 -0.05681
C_ C_ 0.772429 0.339779 0.897731 -0.08735
C_ C_ 0.776946 0.33591 0.927182 -0.08735
C_ C_ 0.825465 0.322814 0.938556 -0.05681
C_ C_ 0.833461 0.323846 0.968105 0.44287
C_ C_ 0.920572 0.300193 0.961439 0.44287
C_ C_ 0.882243 0.341631 0.510691 0.18498
C_ C_ 0.902874 0.389299 0.517165 -0.08735
C_ C_ 0.918557 0.398739 0.545162 -0.08735
C_ C_ 0.906974 0.366664 0.567093 -0.08735
C_ C_ 0.87808 0.323146 0.561945 0.18498
C_ C_ 0.869462 0.307259 0.533644 -0.05681
C_ C_ 0.843711 0.261416 0.529182 -0.08735
C_ C_ 0.824244 0.2335 0.551697 -0.08735
C_ C_ 0.83664 0.250539 0.579817 0.1947
N_ N_ 0.646859 0.154966 0.978161 -0.29468
N_ N_ 0.645216 0.204245 0.582294 -0.17154
N_ N_ 0.624927 0.172321 0.731474 -0.17154
N_ N_ 0.643938 0.198984 0.836076 -0.29468
N_ N_ 0.861681 0.335907 0.72845 -0.29468
N_ N_ 0.84144 0.300836 0.831529 -0.17154
N_ N_ 0.882012 0.315032 0.978423 -0.17154
N_ N_ 0.862268 0.295205 0.584766 -0.29468
O_ O_ 0.716992 0.171022 0.925774 -0.58347
O_ O_ 0.714443 0.192065 0.880511 -0.58347
O_ O_ 0.641871 0.24232 0.933659 -0.58347
O_ O_ 0.631115 0.250944 0.887004 -0.58347
O_ O_ 0.642935 0.091954 0.921781 -0.58347
O_ O_ 0.658073 0.0990928 0.875681 -0.58347
O_ O_ 0.570045 0.158804 0.929754 -0.58347
O_ O_ 0.562501 0.164435 0.882892 -0.58347
O_ O_ 0.558743 0.21528 0.580696 -0.46727
O_ O_ 0.729379 0.182175 0.5837 -0.46727
O_ O_ 0.537344 0.176655 0.727349 -0.46727
O_ O_ 0.712476 0.153587 0.732597 -0.46727
O_ O_ 0.792228 0.319598 0.679175 -0.58347
O_ O_ 0.795113 0.296452 0.634246 -0.58347
O_ O_ 0.866635 0.24708 0.683031 -0.58347
O_ O_ 0.886677 0.235658 0.638147 -0.58347
O_ O_ 0.862684 0.395861 0.67197 -0.58347
O_ O_ 0.850454 0.386356 0.625991 -0.58347
O_ O_ 0.940329 0.32406 0.679577 -0.58347
O_ O_ 0.947812 0.320926 0.633065 -0.58347
O_ O_ 0.924311 0.273263 0.825268 -0.46727
O_ O_ 0.757457 0.324974 0.839116 -0.46727
O_ O_ 0.966107 0.293116 0.972814 -0.46727
O_ O_ 0.798202 0.342581 0.985492 -0.46727
Zn Zn 0.620648 0.688346 0.380961 0.90689
Zn Zn 0.631453 0.678803 0.428447 0.90689
Zn Zn 0.869244 0.81326 0.132223 0.90689
Zn Zn 0.859473 0.822419 0.180523 0.90689
H_ H_ 0.7974 0.691183 0.44543 0.11455
H_ H_ 0.872817 0.654601 0.349891 0.11455
H_ H_ 0.777775 0.673555 0.352714 0.11455
H_ H_ 0.881287 0.70104 0.46502 0.11455
H_ H_ 0.974006 0.687586 0.45696 0.11455
H_ H_ 0.952137 0.666808 0.366904 0.11455
H_ H_ 0.632059 0.507881 0.447342 0.11455
H_ H_ 0.581801 0.937471 0.348684 0.11455
H_ H_ 0.642674 0.529593 0.354495 0.11455
H_ H_ 0.659999 0.930921 0.459377 0.11455
H_ H_ 0.641862 0.83777 0.458742 0.11455
H_ H_ 0.593526 0.852201 0.36862 0.11455
H_ H_ 0.578414 0.608826 0.463173 0.11455
H_ H_ 0.568818 0.575659 0.0169201 0.11455
H_ H_ 0.615473 0.620492 0.057248 0.11455
H_ H_ 0.688098 0.743324 0.469897 0.11455
H_ H_ 0.716553 0.800692 0.00892538 0.11455
H_ H_ 0.694062 0.782935 0.060449 0.11455
H_ H_ 0.513398 0.712439 0.123231 0.11455
H_ H_ 0.496817 0.697903 0.171443 0.11455
H_ H_ 0.765682 0.688809 0.141225 0.11455
H_ H_ 0.750337 0.670179 0.194148 0.11455
H_ H_ 0.558048 0.583096 0.250083 0.11455
H_ H_ 0.538151 0.56611 0.299251 0.11455
H_ H_ 0.56848 0.616025 0.339141 0.11455
H_ H_ 0.658848 0.73923 0.254755 0.11455
H_ H_ 0.696536 0.785966 0.295457 0.11455
H_ H_ 0.685729 0.754379 0.344653 0.11455
H_ H_ 0.695554 0.811118 0.197115 0.11455
H_ H_ 0.62275 0.833392 0.100049 0.11455
H_ H_ 0.711219 0.818097 0.104414 0.11455
H_ H_ 0.610387 0.826785 0.216974 0.11455
H_ H_ 0.5177 0.816338 0.210693 0.11455
H_ H_ 0.537592 0.817578 0.120229 0.11455
H_ H_ 0.850119 0.988754 0.191836 0.11455
H_ H_ 0.840987 0.562967 0.102728 0.11455
H_ H_ 0.878339 0.97317 0.101963 0.11455
H_ H_ 0.898087 0.570727 0.216185 0.11455
H_ H_ 0.912171 0.663233 0.20734 0.11455
H_ H_ 0.838783 0.648946 0.125805 0.11455
H_ H_ 0.901733 0.903801 0.215128 0.11455
H_ H_ 0.930634 0.926141 0.262785 0.11455
H_ H_ 0.898171 0.882132 0.305497 0.11455
H_ H_ 0.807031 0.756378 0.227927 0.11455
H_ H_ 0.801105 0.693292 0.263602 0.11455
H_ H_ 0.83616 0.713208 0.311758 0.11455
H_ H_ 0.989832 0.797143 0.371028 0.11455
H_ H_ 0.00270389 0.79561 0.424316 0.11455
H_ H_ 0.737694 0.82919 0.388369 0.11455
H_ H_ 0.753634 0.842497 0.439398 0.11455
H_ H_ 0.934624 0.912426 0.501216 0.11455
H_ H_ 0.978834 0.923748 0.0539314 0.11455
H_ H_ 0.93132 0.87581 0.0945813 0.11455
H_ H_ 0.857758 0.750152 0.00895746 0.11455
H_ H_ 0.813488 0.710763 0.0458424 0.11455
H_ H_ 0.830676 0.732616 0.0965481 0.11455
C_ C_ 0.72608 0.683181 0.404987 0.68181
C_ C_ 0.781193 0.681043 0.400096 -0.05681
C_ C_ 0.813862 0.688359 0.42325 -0.08735
C_ C_ 0.865763 0.685596 0.420134 -0.05681
C_ C_ 0.887004 0.679998 0.392489 -0.05681
C_ C_ 0.854455 0.668698 0.368998 -0.08735
C_ C_ 0.801616 0.670951 0.372504 -0.08735
C_ C_ 0.896401 0.690537 0.443648 -0.08735
C_ C_ 0.950375 0.683415 0.439375 -0.08735
C_ C_ 0.972627 0.681565 0.411374 -0.05681
C_ C_ 0.939608 0.67865 0.388305 -0.08735
C_ C_ 0.620676 0.782126 0.409767 0.68181
C_ C_ 0.62549 0.582537 0.40372 0.68181
C_ C_ 0.631555 0.526308 0.400267 -0.05681
C_ C_ 0.63356 0.997415 0.41894 -0.08735
C_ C_ 0.627284 0.942816 0.417368 -0.05681
C_ C_ 0.612379 0.920237 0.391848 -0.05681
C_ C_ 0.595349 0.952718 0.369351 -0.08735
C_ C_ 0.600428 1.00460128 0.371454 -0.08735
C_ C_ 0.640148 0.912864 0.44128 -0.08735
C_ C_ 0.631878 0.861533 0.439708 -0.08735
C_ C_ 0.621993 0.836327 0.411953 -0.05681
C_ C_ 0.60774 0.86889 0.389179 -0.08735
C_ C_ 0.529427 0.681466 0.408268 0.68181
C_ C_ 0.593496 0.629274 0.48012 0.1947
C_ C_ 0.595125 0.605711 0.0121361 -0.08735
C_ C_ 0.619322 0.632102 0.0352336 -0.08735
C_ C_ 0.642004 0.678555 0.0285435 -0.05681
C_ C_ 0.650452 0.691385 0.999004 0.18498
C_ C_ 0.680019 0.73424 0.492063 -0.08735
C_ C_ 0.694961 0.767579 0.0135197 -0.08735
C_ C_ 0.68231 0.757058 0.0430657 -0.08735
C_ C_ 0.658211 0.710293 0.0508272 0.18498
C_ C_ 0.690818 0.691642 0.0992814 0.44287
C_ C_ 0.600827 0.702363 0.0936014 0.44287
C_ C_ 0.593888 0.694139 0.123263 -0.05681
C_ C_ 0.544909 0.698426 0.136164 -0.08735
C_ C_ 0.536896 0.69353 0.165 -0.08735
C_ C_ 0.577326 0.683941 0.183718 -0.05681
C_ C_ 0.627977 0.679353 0.172293 -0.05681
C_ C_ 0.636084 0.686256 0.141419 -0.05681
C_ C_ 0.684801 0.68428 0.130416 -0.05681
C_ C_ 0.727943 0.678545 0.148876 -0.08735
C_ C_ 0.719411 0.670254 0.178693 -0.08735
C_ C_ 0.668612 0.664549 0.189751 -0.05681
C_ C_ 0.659273 0.654773 0.218554 0.44287
C_ C_ 0.57418 0.681382 0.213907 0.44287
C_ C_ 0.604622 0.650585 0.260137 0.18498
C_ C_ 0.575494 0.607974 0.266463 -0.08735
C_ C_ 0.562381 0.597644 0.294932 -0.08735
C_ C_ 0.578527 0.628221 0.317321 -0.08735
C_ C_ 0.61162 0.668987 0.312337 0.18498
C_ C_ 0.62311 0.682251 0.282766 -0.05681
C_ C_ 0.654077 0.724386 0.276435 -0.08735
C_ C_ 0.671764 0.754008 0.299394 -0.08735
C_ C_ 0.66304 0.737811 0.327515 0.1947
C_ C_ 0.766007 0.812421 0.154584 0.68181
C_ C_ 0.710949 0.81223 0.150447 -0.05681
C_ C_ 0.679331 0.816833 0.175223 -0.08735
C_ C_ 0.627466 0.819466 0.172112 -0.05681
C_ C_ 0.605661 0.823601 0.144116 -0.05681
C_ C_ 0.636877 0.823844 0.120777 -0.08735
C_ C_ 0.689913 0.816885 0.122987 -0.08735
C_ C_ 0.595414 0.817656 0.195368 -0.08735
C_ C_ 0.54131 0.813706 0.192545 -0.08735
C_ C_ 0.520516 0.81799 0.163832 -0.05681
C_ C_ 0.553185 0.823322 0.140401 -0.08735
C_ C_ 0.872515 0.720365 0.164284 0.68181
C_ C_ 0.853721 0.915971 0.148788 0.68181
C_ C_ 0.865637 0.972308 0.147068 -0.05681
C_ C_ 0.874994 0.503325 0.17528 -0.08735
C_ C_ 0.874623 0.556533 0.172498 -0.05681
C_ C_ 0.856711 0.57907 0.146951 -0.05681
C_ C_ 0.843292 0.546495 0.123186 -0.08735
C_ C_ 0.881559 0.993468 0.121172 -0.08735
C_ C_ 0.888811 0.587898 0.19527 -0.08735
C_ C_ 0.892077 0.641384 0.191294 -0.08735
C_ C_ 0.871845 0.662944 0.167484 -0.05681
C_ C_ 0.851389 0.631643 0.146065 -0.08735
C_ C_ 0.964308 0.828683 0.158981 0.68181
C_ C_ 0.889003 0.881825 0.233375 0.1947
C_ C_ 0.90126 0.896961 0.26036 -0.08735
C_ C_ 0.886263 0.869351 0.283962 -0.08735
C_ C_ 0.858344 0.824422 0.279902 -0.05681
C_ C_ 0.847876 0.809626 0.251711 0.18498
C_ C_ 0.824666 0.761799 0.247157 -0.08735
C_ C_ 0.821803 0.727221 0.267915 -0.08735
C_ C_ 0.831526 0.741318 0.296194 -0.08735
C_ C_ 0.846486 0.790668 0.302257 0.18498
C_ C_ 0.813721 0.804989 0.350029 0.44287
C_ C_ 0.90227 0.806765 0.343672 0.44287
C_ C_ 0.91077 0.814355 0.373032 -0.05681
C_ C_ 0.957408 0.803891 0.384772 -0.08735
C_ C_ 0.966133 0.805989 0.415209 -0.08735
C_ C_ 0.923484 0.819162 0.432883 -0.05681
C_ C_ 0.875705 0.823607 0.420579 -0.05681
C_ C_ 0.868399 0.81831 0.390995 -0.05681
C_ C_ 0.819877 0.817094 0.379165 -0.05681
C_ C_ 0.777448 0.826969 0.396752 -0.08735
C_ C_ 0.784646 0.83365 0.42595 -0.08735
C_ C_ 0.832852 0.830819 0.437984 -0.05681
C_ C_ 0.839084 0.835775 0.46779 0.44287
C_ C_ 0.929079 0.823509 0.462855 0.44287
C_ C_ 0.906848 0.844099 0.0124563 0.18498
C_ C_ 0.940005 0.884782 0.0202523 -0.08735
C_ C_ 0.953092 0.892329 0.0489632 -0.08735
C_ C_ 0.924175 0.868269 0.071388 -0.08735
C_ C_ 0.892491 0.828601 0.0643607 0.18498
C_ C_ 0.885935 0.81407 0.0342923 -0.05681
C_ C_ 0.854714 0.771512 0.0284558 -0.08735
C_ C_ 0.83679 0.742491 0.0509522 -0.08735
C_ C_ 0.843245 0.758241 0.0801744 0.1947
N_ N_ 0.625716 0.669232 0.476436 -0.29468
N_ N_ 0.649241 0.698592 0.0815693 -0.17154
N_ N_ 0.614435 0.662416 0.230561 -0.17154
N_ N_ 0.628021 0.69999 0.334167 -0.29468
N_ N_ 0.862036 0.837986 0.229507 -0.29468
N_ N_ 0.855181 0.80266 0.332899 -0.17154
N_ N_ 0.886613 0.831755 0.480231 -0.17154
N_ N_ 0.86924 0.802068 0.0857667 -0.29468
O_ O_ 0.708033 0.681879 0.43055 -0.58347
O_ O_ 0.697313 0.685177 0.383387 -0.58347
O_ O_ 0.623925 0.755505 0.432081 -0.58347
O_ O_ 0.630817 0.763683 0.386009 -0.58347
O_ O_ 0.64123 0.604377 0.42583 -0.58347
O_ O_ 0.617394 0.608505 0.381445 -0.58347
O_ O_ 0.559841 0.668052 0.428746 -0.58347
O_ O_ 0.546871 0.697573 0.384529 -0.58347
O_ O_ 0.562223 0.712851 0.0762195 -0.46727
O_ O_ 0.738088 0.699528 0.0883693 -0.46727
O_ O_ 0.529642 0.690195 0.227436 -0.46727
O_ O_ 0.693266 0.634703 0.23559 -0.46727
O_ O_ 0.78482 0.811175 0.179514 -0.58347
O_ O_ 0.79568 0.813258 0.133497 -0.58347
O_ O_ 0.874228 0.746588 0.186241 -0.58347
O_ O_ 0.872366 0.740003 0.13951 -0.58347
O_ O_ 0.844895 0.895624 0.173158 -0.58347
O_ O_ 0.869856 0.886594 0.128835 -0.58347
O_ O_ 0.935306 0.835695 0.179377 -0.58347
O_ O_ 0.943962 0.81329 0.134948 -0.58347
O_ O_ 0.938862 0.804941 0.323936 -0.46727
O_ O_ 0.767306 0.808008 0.338127 -0.46727
O_ O_ 0.970276 0.806818 0.474902 -0.46727
O_ O_ 0.798204 0.843124 0.48292 -0.46727
Zn Zn 0.629704 0.677129 0.88286 0.90689
Zn Zn 0.643556 0.670755 0.929748 0.90689
Zn Zn 0.873329 0.812967 0.633011 0.90689
Zn Zn 0.869047 0.823266 0.68246 0.90689
H_ H_ 0.812141 0.687723 0.947994 0.11455
H_ H_ 0.873789 0.673792 0.847465 0.11455
H_ H_ 0.784376 0.668904 0.85699 0.11455
H_ H_ 0.90101 0.687141 0.965562 0.11455
H_ H_ 0.98958 0.684861 0.956027 0.11455
H_ H_ 0.962402 0.665957 0.866142 0.11455
H_ H_ 0.66484 0.502644 0.94368 0.11455
H_ H_ 0.650048 0.924906 0.845546 0.11455
H_ H_ 0.629126 0.523246 0.855628 0.11455
H_ H_ 0.634422 0.921574 0.963942 0.11455
H_ H_ 0.63102 0.830381 0.960064 0.11455
H_ H_ 0.637074 0.841702 0.868088 0.11455
H_ H_ 0.586224 0.596339 0.967503 0.11455
H_ H_ 0.56014 0.579056 0.511218 0.11455
H_ H_ 0.604029 0.613567 0.550541 0.11455
H_ H_ 0.694105 0.739663 0.970468 0.11455
H_ H_ 0.738302 0.783003 0.51046 0.11455
H_ H_ 0.712002 0.767015 0.559541 0.11455
H_ H_ 0.514448 0.715224 0.619986 0.11455
H_ H_ 0.499741 0.697061 0.668984 0.11455
H_ H_ 0.762022 0.671566 0.634201 0.11455
H_ H_ 0.749649 0.665904 0.687455 0.11455
H_ H_ 0.569024 0.592555 0.741778 0.11455
H_ H_ 0.553941 0.557584 0.78924 0.11455
H_ H_ 0.581615 0.604478 0.833461 0.11455
H_ H_ 0.661635 0.744807 0.759101 0.11455
H_ H_ 0.693401 0.790949 0.803211 0.11455
H_ H_ 0.674162 0.752025 0.847145 0.11455
H_ H_ 0.693076 0.829745 0.700136 0.11455
H_ H_ 0.632082 0.832629 0.599654 0.11455
H_ H_ 0.722144 0.836394 0.609859 0.11455
H_ H_ 0.607712 0.823421 0.718477 0.11455
H_ H_ 0.514508 0.826241 0.708056 0.11455
H_ H_ 0.54356 0.831866 0.617577 0.11455
H_ H_ 0.858561 0.984821 0.693234 0.11455
H_ H_ 0.857933 0.568529 0.596618 0.11455
H_ H_ 0.876317 0.970813 0.600885 0.11455
H_ H_ 0.891921 0.570202 0.712532 0.11455
H_ H_ 0.894161 0.659659 0.7117 0.11455
H_ H_ 0.864544 0.652742 0.619556 0.11455
H_ H_ 0.920138 0.898221 0.717828 0.11455
H_ H_ 0.942397 0.922864 0.766788 0.11455
H_ H_ 0.901184 0.87794 0.8105 0.11455
H_ H_ 0.81077 0.759582 0.725478 0.11455
H_ H_ 0.772351 0.708672 0.762873 0.11455
H_ H_ 0.793911 0.727398 0.814971 0.11455
H_ H_ 0.994772 0.785292 0.87531 0.11455
H_ H_ 1.00313335 0.791615 0.927226 0.11455
H_ H_ 0.743633 0.835196 0.891841 0.11455
H_ H_ 0.762857 0.86418 0.942054 0.11455
H_ H_ 0.961334 0.902445 1.00347286 0.11455
H_ H_ 0.956845 0.934583 0.548646 0.11455
H_ H_ 0.924913 0.878345 0.590583 0.11455
H_ H_ 0.832607 0.763614 0.507369 0.11455
H_ H_ 0.801742 0.714547 0.546523 0.11455
H_ H_ 0.818041 0.738278 0.59641 0.11455
C_ C_ 0.733576 0.684191 0.907779 0.68181
C_ C_ 0.788779 0.685453 0.903171 -0.05681
C_ C_ 0.824648 0.686079 0.925838 -0.08735
C_ C_ 0.875613 0.679682 0.92085 -0.05681
C_ C_ 0.8958 0.676959 0.892192 -0.05681
C_ C_ 0.86067 0.675342 0.869741 -0.08735
C_ C_ 0.8081 0.678719 0.875174 -0.08735
C_ C_ 0.911954 0.680244 0.944049 -0.08735
C_ C_ 0.963009 0.683899 0.937757 -0.08735
C_ C_ 0.981915 0.677348 0.910437 -0.05681
C_ C_ 0.948528 0.673462 0.887777 -0.08735
C_ C_ 0.629205 0.771541 0.910085 0.68181
C_ C_ 0.644059 0.576487 0.90282 0.68181
C_ C_ 0.638861 0.52022 0.900733 -0.05681
C_ C_ 0.651653 -0.015496999999999983 0.921648 -0.08735
C_ C_ 0.636621 0.934394 0.919855 -0.05681
C_ C_ 0.639951 0.909933 0.893298 -0.05681
C_ C_ 0.650432 0.939571 0.86828 -0.08735
C_ C_ 0.654104 -0.007963000000000053 0.869934 -0.08735
C_ C_ 0.628185 0.904415 0.944037 -0.08735
C_ C_ 0.627392 0.850941 0.940532 -0.08735
C_ C_ 0.6268 0.828467 0.913707 -0.05681
C_ C_ 0.632404 0.859332 0.889248 -0.08735
C_ C_ 0.534728 0.668096 0.907315 0.68181
C_ C_ 0.603005 0.620494 0.98423 0.1947
C_ C_ 0.588411 0.607583 0.506558 -0.08735
C_ C_ 0.608266 0.632898 0.530351 -0.08735
C_ C_ 0.639726 0.677139 0.525863 -0.05681
C_ C_ 0.650824 0.691442 0.498244 0.18498
C_ C_ 0.68156 0.7325 0.992652 -0.08735
C_ C_ 0.706182 0.758993 0.514239 -0.08735
C_ C_ 0.690826 0.749575 0.542633 -0.08735
C_ C_ 0.65857 0.706701 0.54861 0.18498
C_ C_ 0.689747 0.682444 0.596261 0.44287
C_ C_ 0.601679 0.698321 0.590825 0.44287
C_ C_ 0.595572 0.698573 0.621514 -0.05681
C_ C_ 0.546817 0.704662 0.633366 -0.08735
C_ C_ 0.539604 0.697844 0.662689 -0.08735
C_ C_ 0.581437 0.691041 0.680807 -0.05681
C_ C_ 0.63068 0.693379 0.668574 -0.05681
C_ C_ 0.637918 0.693704 0.638725 -0.05681
C_ C_ 0.684791 0.68475 0.626051 -0.05681
C_ C_ 0.726158 0.678835 0.643675 -0.08735
C_ C_ 0.717817 0.67573 0.674113 -0.08735
C_ C_ 0.671181 0.68367 0.686311 -0.05681
C_ C_ 0.663623 0.675566 0.715974 0.44287
C_ C_ 0.57473 0.684465 0.710332 0.44287
C_ C_ 0.607337 0.660942 0.75634 0.18498
C_ C_ 0.581082 0.614135 0.760694 -0.08735
C_ C_ 0.571517 0.595011 0.787759 -0.08735
C_ C_ 0.585985 0.622248 0.811846 -0.08735
C_ C_ 0.613677 0.667039 0.808242 0.18498
C_ C_ 0.627109 0.685295 0.780806 -0.05681
C_ C_ 0.655842 0.729596 0.779813 -0.08735
C_ C_ 0.673168 0.75449 0.803751 -0.08735
C_ C_ 0.659818 0.736148 0.830238 0.1947
C_ C_ 0.772209 0.822439 0.659039 0.68181
C_ C_ 0.716669 0.831803 0.655315 -0.05681
C_ C_ 0.680749 0.829003 0.677746 -0.08735
C_ C_ 0.627432 0.833917 0.672724 -0.05681
C_ C_ 0.610389 0.834492 0.644579 -0.05681
C_ C_ 0.644743 0.833074 0.622385 -0.08735
C_ C_ 0.696905 0.831989 0.62747 -0.08735
C_ C_ 0.593063 0.827762 0.696059 -0.08735
C_ C_ 0.541407 0.827863 0.690556 -0.08735
C_ C_ 0.52336 0.834446 0.662479 -0.05681
C_ C_ 0.558087 0.83508 0.639464 -0.08735
C_ C_ 0.875399 0.719224 0.66364 0.68181
C_ C_ 0.860745 0.914764 0.652964 0.68181
C_ C_ 0.863009 0.970483 0.648033 -0.05681
C_ C_ 0.867423 0.503314 0.670556 -0.08735
C_ C_ 0.877738 0.555132 0.667854 -0.05681
C_ C_ 0.866151 0.57845 0.641206 -0.05681
C_ C_ 0.854945 0.549315 0.617112 -0.08735
C_ C_ 0.867991 0.993551 0.62074 -0.08735
C_ C_ 0.881322 0.585607 0.692854 -0.08735
C_ C_ 0.885732 0.638358 0.691826 -0.08735
C_ C_ 0.876458 0.66206 0.664998 -0.05681
C_ C_ 0.866861 0.632797 0.640266 -0.08735
C_ C_ 0.967925 0.82033 0.656453 0.68181
C_ C_ 0.909412 0.873014 0.736807 0.1947
C_ C_ 0.92064 0.886922 0.764316 -0.08735
C_ C_ 0.894947 0.863728 0.787408 -0.08735
C_ C_ 0.864597 0.819521 0.782329 -0.05681
C_ C_ 0.853328 0.807944 0.752938 0.18498
C_ C_ 0.821692 0.76684 0.746958 -0.08735
C_ C_ 0.799884 0.74014 0.769152 -0.08735
C_ C_ 0.810027 0.751812 0.797832 -0.08735
C_ C_ 0.843925 0.792256 0.805096 0.18498
C_ C_ 0.816199 0.811634 0.851827 0.44287
C_ C_ 0.903663 0.78996 0.846132 0.44287
C_ C_ 0.913672 0.80238 0.874988 -0.05681
C_ C_ 0.960797 0.795735 0.887737 -0.08735
C_ C_ 0.967955 0.80311 0.916898 -0.08735
C_ C_ 0.928151 0.816748 0.934328 -0.05681
C_ C_ 0.88231 0.830964 0.921857 -0.05681
C_ C_ 0.873406 0.818088 0.893325 -0.05681
C_ C_ 0.824164 0.822144 0.881024 -0.05681
C_ C_ 0.783348 0.833384 0.900286 -0.08735
C_ C_ 0.793397 0.851622 0.928666 -0.08735
C_ C_ 0.842854 0.844496 0.939641 -0.05681
C_ C_ 0.852103 0.849349 0.970263 0.44287
C_ C_ 0.93586 0.818356 0.964485 0.44287
C_ C_ 0.894981 0.844906 0.509839 0.18498
C_ C_ 0.923753 0.887073 0.517225 -0.08735
C_ C_ 0.935449 0.900035 0.546287 -0.08735
C_ C_ 0.915235 0.870983 0.568232 -0.08735
C_ C_ 0.890329 0.825992 0.561613 0.18498
C_ C_ 0.8749 0.814873 0.532908 -0.05681
C_ C_ 0.843833 0.773292 0.528875 -0.08735
C_ C_ 0.82582 0.744004 0.55098 -0.08735
C_ C_ 0.835291 0.759384 0.578301 0.1947
N_ N_ 0.633016 0.660601 0.977493 -0.29468
N_ N_ 0.6499 0.695603 0.57921 -0.17154
N_ N_ 0.615544 0.674606 0.727317 -0.17154
N_ N_ 0.629334 0.693735 0.832925 -0.29468
N_ N_ 0.88017 0.831406 0.730722 -0.29468
N_ N_ 0.85721 0.800241 0.834389 -0.17154
N_ N_ 0.896074 0.834619 0.982288 -0.17154
N_ N_ 0.86666 0.800975 0.583376 -0.29468
O_ O_ 0.717108 0.666405 0.930569 -0.58347
O_ O_ 0.705497 0.687055 0.886306 -0.58347
O_ O_ 0.640684 0.744856 0.931271 -0.58347
O_ O_ 0.619072 0.749799 0.886867 -0.58347
O_ O_ 0.642738 0.59815 0.927771 -0.58347
O_ O_ 0.648127 0.603121 0.880768 -0.58347
O_ O_ 0.565526 0.674628 0.927175 -0.58347
O_ O_ 0.552015 0.662136 0.881434 -0.58347
O_ O_ 0.562656 0.704286 0.574443 -0.46727
O_ O_ 0.733769 0.670686 0.584112 -0.46727
O_ O_ 0.530373 0.69093 0.721715 -0.46727
O_ O_ 0.700985 0.662322 0.731294 -0.46727
O_ O_ 0.792476 0.828928 0.682544 -0.58347
O_ O_ 0.796884 0.805809 0.638547 -0.58347
O_ O_ 0.868437 0.747186 0.685453 -0.58347
O_ O_ 0.881322 0.739819 0.638503 -0.58347
O_ O_ 0.867406 0.896349 0.677739 -0.58347
O_ O_ 0.862534 0.886499 0.631957 -0.58347
O_ O_ 0.941196 0.821347 0.678289 -0.58347
O_ O_ 0.946077 0.818258 0.631779 -0.58347
O_ O_ 0.937098 0.76644 0.829943 -0.46727
O_ O_ 0.770684 0.819956 0.840772 -0.46727
O_ O_ 0.981145 0.81169 0.976092 -0.46727
O_ O_ 0.814252 0.86237 0.987767 -0.46727
_cell_length_a 26.376
_cell_length_b 26.400000238300095
_cell_length_c 46.67800035477134
_cell_angle_alpha 90.00700052986613
_cell_angle_beta 89.99899961309502
_cell_angle_gamma 90.45000003183146
_symmetry_space_group_name_H-M         'P 1'
_symmetry_Int_Tables_number            1
loop_
_symmetry_equiv_pos_as_xyz
   'x, y, z'
                         
loop_
_atom_site_label
_atom_site_type_symbol
_atom_site_fract_x 
_atom_site_fract_y
_atom_site_fract_z
_atom_site_charge
Zn Zn 0.114158 0.193024 0.382872 0.90689
Zn Zn 0.124034 0.189069 0.431589 0.90689
Zn Zn 0.372025 0.3253 0.132513 0.90689
Zn Zn 0.366296 0.326591 0.180316 0.90689
H_ H_ 0.291042 0.21158 0.446631 0.11455
H_ H_ 0.353622 0.143837 0.35656 0.11455
H_ H_ 0.264982 0.159209 0.362056 0.11455
H_ H_ 0.379181 0.201281 0.466667 0.11455
H_ H_ 0.470524 0.19444 0.459232 0.11455
H_ H_ 0.43951 0.160501 0.368575 0.11455
H_ H_ 0.138622 0.0260274 0.438492 0.11455
H_ H_ 0.167973 0.443126 0.35516 0.11455
H_ H_ 0.0799038 0.0320956 0.352576 0.11455
H_ H_ 0.0952507 0.439767 0.463337 0.11455
H_ H_ 0.0970868 0.34506 0.460635 0.11455
H_ H_ 0.149783 0.360257 0.37487 0.11455
H_ H_ 0.0623695 0.128961 0.468244 0.11455
H_ H_ 0.115396 0.0568406 0.0125802 0.11455
H_ H_ 0.13882 0.110566 0.054646 0.11455
H_ H_ 0.185324 0.252997 0.475283 0.11455
H_ H_ 0.225114 0.306643 0.0179076 0.11455
H_ H_ 0.203396 0.276356 0.0642368 0.11455
H_ H_ 0.0137758 0.179042 0.117281 0.11455
H_ H_ -0.0012419999999999654 0.192309 0.167345 0.11455
H_ H_ 0.267237 0.181836 0.141198 0.11455
H_ H_ 0.250647 0.175966 0.19124 0.11455
H_ H_ 0.0596175 0.0996284 0.248037 0.11455
H_ H_ 0.0134686 0.0880681 0.294698 0.11455
H_ H_ 0.0472341 0.140475 0.335041 0.11455
H_ H_ 0.163919 0.249451 0.258132 0.11455
H_ H_ 0.197601 0.286077 0.303996 0.11455
H_ H_ 0.167803 0.263977 0.349828 0.11455
H_ H_ 0.199145 0.315722 0.193671 0.11455
H_ H_ 0.123077 0.350728 0.0974649 0.11455
H_ H_ 0.21542 0.338397 0.102529 0.11455
H_ H_ 0.115177 0.298027 0.212708 0.11455
H_ H_ 0.0199518 0.289355 0.20584 0.11455
H_ H_ 0.0398154 0.342662 0.118577 0.11455
H_ H_ 0.38629 0.493018 0.190742 0.11455
H_ H_ 0.394236 0.0697772 0.0994351 0.11455
H_ H_ 0.357188 0.47903 0.100518 0.11455
H_ H_ 0.335948 0.0808651 0.211723 0.11455
H_ H_ 0.338836 0.171511 0.207589 0.11455
H_ H_ 0.399063 0.154757 0.122722 0.11455
H_ H_ 0.410737 0.404198 0.21623 0.11455
H_ H_ 0.422085 0.431362 0.267233 0.11455
H_ H_ 0.395249 0.37769 0.307329 0.11455
H_ H_ 0.312242 0.257106 0.222228 0.11455
H_ H_ 0.288348 0.201753 0.257184 0.11455
H_ H_ 0.32141 0.209929 0.309139 0.11455
H_ H_ 0.492428 0.286357 0.372352 0.11455
H_ H_ 0.503555 0.3017 0.424353 0.11455
H_ H_ 0.241941 0.31492 0.386093 0.11455
H_ H_ 0.251019 0.330923 0.438025 0.11455
H_ H_ 0.436438 0.409209 0.496569 0.11455
H_ H_ 0.463248 0.432249 0.041726 0.11455
H_ H_ 0.428774 0.383428 0.0855392 0.11455
H_ H_ 0.343187 0.250668 0.00980834 0.11455
H_ H_ 0.31369 0.206145 0.050546 0.11455
H_ H_ 0.311438 0.255787 0.0975488 0.11455
C_ C_ 0.216218 0.192287 0.40946 0.68181
C_ C_ 0.271315 0.192021 0.40366 -0.05681
C_ C_ 0.305836 0.200741 0.425964 -0.08735
C_ C_ 0.358258 0.195091 0.42234 -0.05681
C_ C_ 0.375352 0.178153 0.395624 -0.05681
C_ C_ 0.34125 0.165805 0.374165 -0.08735
C_ C_ 0.289278 0.171702 0.377205 -0.08735
C_ C_ 0.393392 0.19794 0.444699 -0.08735
C_ C_ 0.444033 0.189045 0.4407 -0.08735
C_ C_ 0.460568 0.179143 0.412959 -0.05681
C_ C_ 0.426976 0.166418 0.39074 -0.08735
C_ C_ 0.123644 0.288116 0.415232 0.68181
C_ C_ 0.113356 0.0927584 0.39913 0.68181
C_ C_ 0.102309 0.0371835 0.397685 -0.05681
C_ C_ 0.129016 0.505537 0.425084 -0.08735
C_ C_ 0.12111 0.452323 0.421291 -0.05681
C_ C_ 0.133764 0.429352 0.395651 -0.05681
C_ C_ 0.149701 0.459724 0.372546 -0.08735
C_ C_ 0.150963 0.511956 0.375005 -0.08735
C_ C_ 0.106791 0.420409 0.444705 -0.08735
C_ C_ 0.105996 0.36855 0.442268 -0.08735
C_ C_ 0.123679 0.344547 0.41743 -0.05681
C_ C_ 0.133379 0.377124 0.393766 -0.08735
C_ C_ 0.0213007 0.190946 0.408555 0.68181
C_ C_ 0.0866151 0.138576 0.48489 0.1947
C_ C_ 0.132545 0.0948366 0.00904828 -0.08735
C_ C_ 0.144684 0.124315 0.0326134 -0.08735
C_ C_ 0.157458 0.176336 0.02915 -0.05681
C_ C_ 0.167009 0.193846 1.000429921 0.18498
C_ C_ 0.180511 0.238487 0.496007 -0.08735
C_ C_ 0.206062 0.26878 0.0197644 -0.08735
C_ C_ 0.193069 0.252649 0.0467932 -0.08735
C_ C_ 0.162816 0.210738 0.0517947 0.18498
C_ C_ 0.194947 0.183115 0.0979053 0.44287
C_ C_ 0.106089 0.194668 0.0915967 0.44287
C_ C_ 0.0963179 0.181373 0.120229 -0.05681
C_ C_ 0.0458396 0.17999 0.131408 -0.08735
C_ C_ 0.0358829 0.181761 0.161016 -0.08735
C_ C_ 0.0776812 0.179659 0.180148 -0.05681
C_ C_ 0.126955 0.175512 0.168915 -0.05681
C_ C_ 0.137265 0.178225 0.139142 -0.05681
C_ C_ 0.187706 0.177747 0.129241 -0.05681
C_ C_ 0.228173 0.178074 0.149285 -0.08735
C_ C_ 0.218574 0.173679 0.177488 -0.08735
C_ C_ 0.168666 0.174927 0.188505 -0.05681
C_ C_ 0.158616 0.16876 0.217746 0.44287
C_ C_ 0.0727116 0.187045 0.210615 0.44287
C_ C_ 0.0994514 0.165585 0.258347 0.18498
C_ C_ 0.0676279 0.122628 0.265133 -0.08735
C_ C_ 0.0431456 0.118447 0.29106 -0.08735
C_ C_ 0.0645265 0.143192 0.314801 -0.08735
C_ C_ 0.0996538 0.183755 0.311059 0.18498
C_ C_ 0.116899 0.195963 0.282732 -0.05681
C_ C_ 0.146867 0.238514 0.280067 -0.08735
C_ C_ 0.164631 0.264862 0.304774 -0.08735
C_ C_ 0.149377 0.247967 0.330782 0.1947
C_ C_ 0.270724 0.321613 0.150643 0.68181
C_ C_ 0.212616 0.321476 0.147754 -0.05681
C_ C_ 0.180831 0.313262 0.172032 -0.08735
C_ C_ 0.127738 0.316782 0.16915 -0.05681
C_ C_ 0.105803 0.329432 0.142418 -0.05681
C_ C_ 0.137899 0.337384 0.118531 -0.08735
C_ C_ 0.191385 0.333709 0.122214 -0.08735
C_ C_ 0.0971658 0.3039 0.191842 -0.08735
C_ C_ 0.0442583 0.307436 0.189998 -0.08735
C_ C_ 0.0230213 0.31695 0.162133 -0.05681
C_ C_ 0.0521908 0.331906 0.139718 -0.08735
C_ C_ 0.377473 0.227174 0.16276 0.68181
C_ C_ 0.370894 0.423725 0.147691 0.68181
C_ C_ 0.371585 0.479634 0.146231 -0.05681
C_ C_ 0.363859 0.00968291 0.171734 -0.08735
C_ C_ 0.363049 0.0636834 0.169945 -0.05681
C_ C_ 0.379757 0.0860059 0.144083 -0.05681
C_ C_ 0.393605 0.0552998 0.120106 -0.08735
C_ C_ 0.369868 0.502228 0.1188 -0.08735
C_ C_ 0.345744 0.0955573 0.191752 -0.08735
C_ C_ 0.34756 0.148905 0.188119 -0.08735
C_ C_ 0.368576 0.171909 0.163789 -0.05681
C_ C_ 0.379569 0.140675 0.140962 -0.08735
C_ C_ 0.468241 0.325393 0.161104 0.68181
C_ C_ 0.392395 0.384361 0.233491 0.1947
C_ C_ 0.404162 0.39586 0.261929 -0.08735
C_ C_ 0.385278 0.368246 0.284876 -0.08735
C_ C_ 0.362869 0.322437 0.278233 -0.05681
C_ C_ 0.352507 0.308626 0.249648 0.18498
C_ C_ 0.324245 0.264743 0.242967 -0.08735
C_ C_ 0.315533 0.230499 0.263899 -0.08735
C_ C_ 0.331701 0.23696 0.291923 -0.08735
C_ C_ 0.352592 0.285417 0.300097 0.18498
C_ C_ 0.315073 0.307643 0.346823 0.44287
C_ C_ 0.401222 0.283292 0.344084 0.44287
C_ C_ 0.410239 0.297451 0.372926 -0.05681
C_ C_ 0.460809 0.298783 0.385974 -0.08735
C_ C_ 0.467311 0.306104 0.41563 -0.08735
C_ C_ 0.423641 0.315866 0.432329 -0.05681
C_ C_ 0.375375 0.32178 0.419595 -0.05681
C_ C_ 0.36887 0.314219 0.389566 -0.05681
C_ C_ 0.319552 0.314538 0.37681 -0.05681
C_ C_ 0.278143 0.322891 0.39501 -0.08735
C_ C_ 0.28426 0.330352 0.424896 -0.08735
C_ C_ 0.333694 0.328238 0.43733 -0.05681
C_ C_ 0.338792 0.330007 0.467463 0.44287
C_ C_ 0.427631 0.320781 0.462233 0.44287
C_ C_ 0.397124 0.341352 0.0063191 0.18498
C_ C_ 0.417057 0.390506 0.010819 -0.08735
C_ C_ 0.435547 0.401076 0.0387549 -0.08735
C_ C_ 0.420536 0.371728 0.0633131 -0.08735
C_ C_ 0.388641 0.331649 0.0597366 0.18498
C_ C_ 0.380374 0.31311 0.0312819 -0.05681
C_ C_ 0.357375 0.264091 0.0296638 -0.08735
C_ C_ 0.336598 0.240846 0.0545611 -0.08735
C_ C_ 0.336431 0.268536 0.0806482 0.1947
N_ N_ 0.121606 0.175512 0.479324 -0.29468
N_ N_ 0.154058 0.192749 0.0808273 -0.17154
N_ N_ 0.111673 0.175917 0.228469 -0.17154
N_ N_ 0.118237 0.208147 0.334934 -0.29468
N_ N_ 0.369028 0.338345 0.228184 -0.29468
N_ N_ 0.356143 0.295448 0.330412 -0.17154
N_ N_ 0.385868 0.328589 0.480283 -0.17154
N_ N_ 0.366948 0.309006 0.0833367 -0.29468
O_ O_ 0.199255 0.184477 0.433885 -0.58347
O_ O_ 0.186835 0.204693 0.389033 -0.58347
O_ O_ 0.122789 0.261516 0.4377 -0.58347
O_ O_ 0.112999 0.269229 0.391872 -0.58347
O_ O_ 0.123143 0.11439 0.422888 -0.58347
O_ O_ 0.120265 0.118768 0.376603 -0.58347
O_ O_ 0.0481304 0.195981 0.430616 -0.58347
O_ O_ 0.0417907 0.184472 0.384364 -0.58347
O_ O_ 0.0685852 0.197778 0.0740009 -0.46727
O_ O_ 0.24109 0.177806 0.0872664 -0.46727
O_ O_ 0.0276499 0.195624 0.220618 -0.46727
O_ O_ 0.197768 0.157236 0.23475 -0.46727
O_ O_ 0.28948 0.314607 0.175426 -0.58347
O_ O_ 0.29723 0.325089 0.12848 -0.58347
O_ O_ 0.374958 0.251345 0.18536 -0.58347
O_ O_ 0.375216 0.249871 0.139284 -0.58347
O_ O_ 0.364842 0.404129 0.170941 -0.58347
O_ O_ 0.368113 0.397957 0.124891 -0.58347
O_ O_ 0.440056 0.329586 0.1829 -0.58347
O_ O_ 0.449708 0.327697 0.136824 -0.58347
O_ O_ 0.437398 0.260566 0.328642 -0.46727
O_ O_ 0.269151 0.314917 0.33505 -0.46727
O_ O_ 0.471801 0.315913 0.473856 -0.46727
O_ O_ 0.297598 0.335673 0.483653 -0.46727
Zn Zn 0.137287 0.178579 0.88165 0.90689
Zn Zn 0.147063 0.179312 0.928879 0.90689
Zn Zn 0.374809 0.319221 0.632806 0.90689
Zn Zn 0.364448 0.326562 0.67948 0.90689
H_ H_ 0.310286 0.178593 0.944172 0.11455
H_ H_ 0.384632 0.162371 0.847081 0.11455
H_ H_ 0.292518 0.15742 0.854248 0.11455
H_ H_ 0.397577 0.19028 0.961338 0.11455
H_ H_ 0.489539 0.18155 0.956975 0.11455
H_ H_ 0.467703 0.157328 0.865085 0.11455
H_ H_ 0.149631 0.0104038 0.939257 0.11455
H_ H_ 0.142187 0.424056 0.845442 0.11455
H_ H_ 0.143338 0.0211583 0.846691 0.11455
H_ H_ 0.171161 0.424295 0.963171 0.11455
H_ H_ 0.153037 0.335759 0.960346 0.11455
H_ H_ 0.135024 0.341409 0.869401 0.11455
H_ H_ 0.11067 0.0958623 0.964873 0.11455
H_ H_ 0.0498101 0.0917732 0.516931 0.11455
H_ H_ 0.104468 0.126949 0.556699 0.11455
H_ H_ 0.200413 0.251767 0.97485 0.11455
H_ H_ 0.234893 0.29173 0.513512 0.11455
H_ H_ 0.219481 0.263698 0.563243 0.11455
H_ H_ 0.014918 0.218986 0.62151 0.11455
H_ H_ 0.000127827 0.192331 0.672201 0.11455
H_ H_ 0.253483 0.148489 0.636803 0.11455
H_ H_ 0.238003 0.139295 0.692541 0.11455
H_ H_ 0.0414875 0.102058 0.752762 0.11455
H_ H_ 0.0302323 0.0729276 0.801853 0.11455
H_ H_ 0.0688028 0.121823 0.839297 0.11455
H_ H_ 0.143548 0.257389 0.756793 0.11455
H_ H_ 0.176424 0.303745 0.80001 0.11455
H_ H_ 0.184572 0.255801 0.845739 0.11455
H_ H_ 0.195485 0.32215 0.695084 0.11455
H_ H_ 0.130236 0.330071 0.596558 0.11455
H_ H_ 0.220017 0.327314 0.603734 0.11455
H_ H_ 0.113795 0.336496 0.713788 0.11455
H_ H_ 0.0263527 0.306719 0.706212 0.11455
H_ H_ 0.0424279 0.331195 0.616829 0.11455
H_ H_ 0.379345 0.491974 0.69675 0.11455
H_ H_ 0.306052 0.0691737 0.605028 0.11455
H_ H_ 0.36985 0.476881 0.601873 0.11455
H_ H_ 0.423191 0.0733394 0.704016 0.11455
H_ H_ 0.418536 0.163986 0.700416 0.11455
H_ H_ 0.343943 0.155405 0.618111 0.11455
H_ H_ 0.416412 0.392341 0.720574 0.11455
H_ H_ 0.433364 0.413758 0.767991 0.11455
H_ H_ 0.390112 0.364896 0.809773 0.11455
H_ H_ 0.308444 0.251466 0.719915 0.11455
H_ H_ 0.268326 0.198494 0.757442 0.11455
H_ H_ 0.299557 0.2073 0.807656 0.11455
H_ H_ 0.485159 0.271858 0.871557 0.11455
H_ H_ 0.497176 0.292161 0.922886 0.11455
H_ H_ 0.238163 0.3213 0.887884 0.11455
H_ H_ 0.250818 0.329691 0.939632 0.11455
H_ H_ 0.431492 0.41355 -0.007866999999999957 0.11455
H_ H_ 0.45275 0.43799 0.545139 0.11455
H_ H_ 0.428289 0.387077 0.58838 0.11455
H_ H_ 0.337365 0.256742 0.508715 0.11455
H_ H_ 0.332847 0.194634 0.550602 0.11455
H_ H_ 0.327275 0.240343 0.597218 0.11455
C_ C_ 0.239539 0.182382 0.903098 0.68181
C_ C_ 0.29573 0.171269 0.900148 -0.05681
C_ C_ 0.328631 0.172048 0.922787 -0.08735
C_ C_ 0.379937 0.161348 0.919464 -0.05681
C_ C_ 0.400038 0.162369 0.892044 -0.05681
C_ C_ 0.369435 0.161486 0.869349 -0.08735
C_ C_ 0.317184 0.161833 0.873562 -0.08735
C_ C_ 0.412343 0.169911 0.942384 -0.08735
C_ C_ 0.465948 0.17447 0.93843 -0.08735
C_ C_ 0.486231 0.170672 0.911055 -0.05681
C_ C_ 0.45276 0.163855 0.887277 -0.08735
C_ C_ 0.13995 0.276582 0.912169 0.68181
C_ C_ 0.150207 0.0788331 0.894467 0.68181
C_ C_ 0.150535 0.0214411 0.893141 -0.05681
C_ C_ 0.162067 0.491033 0.920576 -0.08735
C_ C_ 0.1559 0.438463 0.919109 -0.05681
C_ C_ 0.146818 0.414996 0.89144 -0.05681
C_ C_ 0.141992 0.44525 0.866523 -0.08735
C_ C_ 0.150808 0.498277 0.868546 -0.08735
C_ C_ 0.159366 0.408236 0.94336 -0.08735
C_ C_ 0.145528 0.356126 0.941833 -0.08735
C_ C_ 0.141804 0.333137 0.915132 -0.05681
C_ C_ 0.139727 0.361896 0.889975 -0.08735
C_ C_ 0.0432365 0.175492 0.910807 0.68181
C_ C_ 0.127578 0.118171 0.982888 0.1947
C_ C_ 0.0780133 0.122137 0.512579 -0.08735
C_ C_ 0.104554 0.143064 0.535457 -0.08735
C_ C_ 0.137812 0.184828 0.53095 -0.05681
C_ C_ 0.147442 0.198728 0.501638 0.18498
C_ C_ 0.189099 0.241511 0.996245 -0.08735
C_ C_ 0.207724 0.261037 0.518568 -0.08735
C_ C_ 0.198067 0.247546 0.547214 -0.08735
C_ C_ 0.160589 0.212155 0.553964 0.18498
C_ C_ 0.190432 0.182425 0.60132 0.44287
C_ C_ 0.106291 0.213979 0.594622 0.44287
C_ C_ 0.0970635 0.206739 0.623893 -0.05681
C_ C_ 0.0460422 0.206694 0.635605 -0.08735
C_ C_ 0.0370686 0.194541 0.663805 -0.08735
C_ C_ 0.0771566 0.196063 0.683039 -0.05681
C_ C_ 0.12528 0.186757 0.672215 -0.05681
C_ C_ 0.13763 0.195584 0.642516 -0.05681
C_ C_ 0.184411 0.181942 0.63147 -0.05681
C_ C_ 0.221454 0.164542 0.649789 -0.08735
C_ C_ 0.213752 0.15867 0.679809 -0.08735
C_ C_ 0.165048 0.169543 0.690632 -0.05681
C_ C_ 0.155454 0.164584 0.720697 0.44287
C_ C_ 0.0694468 0.191938 0.713695 0.44287
C_ C_ 0.0968413 0.16218 0.760492 0.18498
C_ C_ 0.0655341 0.119055 0.767827 -0.08735
C_ C_ 0.0580061 0.102062 0.796137 -0.08735
C_ C_ 0.0816111 0.12948 0.817586 -0.08735
C_ C_ 0.111863 0.172107 0.811334 0.18498
C_ C_ 0.114138 0.193729 0.782936 -0.05681
C_ C_ 0.140066 0.241286 0.777933 -0.08735
C_ C_ 0.161389 0.266839 0.802147 -0.08735
C_ C_ 0.162991 0.239172 0.82828 0.1947
C_ C_ 0.273771 0.319213 0.655158 0.68181
C_ C_ 0.217611 0.327393 0.65054 -0.05681
C_ C_ 0.183641 0.325466 0.673302 -0.08735
C_ C_ 0.132526 0.331872 0.668888 -0.05681
C_ C_ 0.10962 0.332873 0.640389 -0.05681
C_ C_ 0.143131 0.332644 0.617709 -0.08735
C_ C_ 0.197038 0.327767 0.622345 -0.08735
C_ C_ 0.0997312 0.327464 0.692424 -0.08735
C_ C_ 0.0468837 0.324226 0.688399 -0.08735
C_ C_ 0.0251613 0.328738 0.661383 -0.05681
C_ C_ 0.0575383 0.335997 0.637674 -0.08735
C_ C_ 0.377102 0.224581 0.66008 0.68181
C_ C_ 0.375316 0.4194 0.653654 0.68181
C_ C_ 0.375448 0.476495 0.650535 -0.05681
C_ C_ 0.381992 0.00573472 0.666101 -0.08735
C_ C_ 0.383938 0.0592854 0.663751 -0.05681
C_ C_ 0.358972 0.0824175 0.641225 -0.05681
C_ C_ 0.329214 0.0526535 0.622323 -0.08735
C_ C_ 0.376738 0.497078 0.622681 -0.08735
C_ C_ 0.407526 0.0898684 0.685231 -0.08735
C_ C_ 0.406747 0.142413 0.681718 -0.08735
C_ C_ 0.380225 0.167428 0.660296 -0.05681
C_ C_ 0.359625 0.136882 0.638255 -0.08735
C_ C_ 0.465844 0.326976 0.659121 0.68181
C_ C_ 0.397985 0.368566 0.735857 0.1947
C_ C_ 0.407798 0.381383 0.764651 -0.08735
C_ C_ 0.385644 0.353834 0.786841 -0.08735
C_ C_ 0.356763 0.309644 0.779602 -0.05681
C_ C_ 0.349754 0.298021 0.749454 0.18498
C_ C_ 0.319321 0.25707 0.741996 -0.08735
C_ C_ 0.296591 0.22858 0.763549 -0.08735
C_ C_ 0.309817 0.234392 0.79202 -0.08735
C_ C_ 0.338852 0.275353 0.800516 0.18498
C_ C_ 0.309962 0.297914 0.849026 0.44287
C_ C_ 0.394963 0.277055 0.843329 0.44287
C_ C_ 0.404638 0.288184 0.873042 -0.05681
C_ C_ 0.453408 0.283875 0.884773 -0.08735
C_ C_ 0.461004 0.294893 0.913446 -0.08735
C_ C_ 0.421493 0.306372 0.931087 -0.05681
C_ C_ 0.373026 0.307259 0.919772 -0.05681
C_ C_ 0.365015 0.302022 0.89029 -0.05681
C_ C_ 0.315213 0.303636 0.879316 -0.05681
C_ C_ 0.27436 0.315485 0.896491 -0.08735
C_ C_ 0.282052 0.317854 0.925594 -0.08735
C_ C_ 0.331108 0.316522 0.937771 -0.05681
C_ C_ 0.338758 0.326442 0.966985 0.44287
C_ C_ 0.427962 0.311162 0.96087 0.44287
C_ C_ 0.393121 0.343497 0.509258 0.18498
C_ C_ 0.420544 0.387641 0.514391 -0.08735
C_ C_ 0.427143 0.406128 0.542178 -0.08735
C_ C_ 0.413064 0.37818 0.566357 -0.08735
C_ C_ 0.389026 0.330175 0.561481 0.18498
C_ C_ 0.374892 0.315027 0.532493 -0.05681
C_ C_ 0.351407 0.268068 0.52894 -0.08735
C_ C_ 0.346498 0.235485 0.552718 -0.08735
C_ C_ 0.348631 0.257584 0.580029 0.1947
N_ N_ 0.149609 0.164341 0.977477 -0.29468
N_ N_ 0.151645 0.199362 0.583931 -0.17154
N_ N_ 0.107791 0.174559 0.731149 -0.17154
N_ N_ 0.129166 0.200103 0.833021 -0.29468
N_ N_ 0.37232 0.326423 0.728024 -0.29468
N_ N_ 0.348821 0.284288 0.831765 -0.17154
N_ N_ 0.387157 0.325153 0.977915 -0.17154
N_ N_ 0.369697 0.30295 0.584959 -0.29468
O_ O_ 0.220114 0.18633 0.92796 -0.58347
O_ O_ 0.211987 0.18185 0.880404 -0.58347
O_ O_ 0.14313 0.251187 0.934601 -0.58347
O_ O_ 0.130555 0.253398 0.888951 -0.58347
O_ O_ 0.151726 0.101246 0.917746 -0.58347
O_ O_ 0.139083 0.103602 0.872407 -0.58347
O_ O_ 0.0740244 0.174215 0.930985 -0.58347
O_ O_ 0.0618846 0.17905 0.885958 -0.58347
O_ O_ 0.0719466 0.231506 0.577783 -0.46727
O_ O_ 0.235981 0.173179 0.591162 -0.46727
O_ O_ 0.020665 0.194549 0.724103 -0.46727
O_ O_ 0.189349 0.147164 0.738296 -0.46727
O_ O_ 0.291889 0.323645 0.680109 -0.58347
O_ O_ 0.30268 0.315272 0.633908 -0.58347
O_ O_ 0.364486 0.249351 0.681877 -0.58347
O_ O_ 0.378748 0.24587 0.637237 -0.58347
O_ O_ 0.367746 0.399922 0.677494 -0.58347
O_ O_ 0.370374 0.394395 0.630845 -0.58347
O_ O_ 0.436384 0.322032 0.681198 -0.58347
O_ O_ 0.446418 0.326367 0.634076 -0.58347
O_ O_ 0.433287 0.261597 0.828311 -0.46727
O_ O_ 0.26462 0.30473 0.836552 -0.46727
O_ O_ 0.472055 0.306775 0.972571 -0.46727
O_ O_ 0.301147 0.339538 0.982648 -0.46727
Zn Zn 0.120262 0.693455 0.381246 0.90689
Zn Zn 0.132722 0.692987 0.428697 0.90689
Zn Zn 0.371416 0.821895 0.129511 0.90689
Zn Zn 0.36284 0.828212 0.178198 0.90689
H_ H_ 0.298475 0.703015 0.446444 0.11455
H_ H_ 0.368887 0.682632 0.349387 0.11455
H_ H_ 0.276075 0.689689 0.356212 0.11455
H_ H_ 0.387282 0.699891 0.466485 0.11455
H_ H_ 0.478354 0.695899 0.459298 0.11455
H_ H_ 0.451909 0.682077 0.366152 0.11455
H_ H_ 0.129085 0.52097 0.447039 0.11455
H_ H_ 0.0767064 0.937503 0.350031 0.11455
H_ H_ 0.168636 0.536097 0.357682 0.11455
H_ H_ 0.142447 0.939822 0.460967 0.11455
H_ H_ 0.1405 0.848559 0.458187 0.11455
H_ H_ 0.0790365 0.86302 0.372 0.11455
H_ H_ 0.0836952 0.612138 0.464859 0.11455
H_ H_ 0.0748422 0.575275 0.0154325 0.11455
H_ H_ 0.107768 0.629076 0.0555126 0.11455
H_ H_ 0.179674 0.763867 0.475384 0.11455
H_ H_ 0.228035 0.80086 0.00751209 0.11455
H_ H_ 0.198043 0.79095 0.0586983 0.11455
H_ H_ 0.00871407 0.706942 0.119998 0.11455
H_ H_ -0.0022170000000000245 0.711434 0.17366 0.11455
H_ H_ 0.246719 0.640649 0.135191 0.11455
H_ H_ 0.235564 0.631236 0.185941 0.11455
H_ H_ 0.0673894 0.584197 0.249547 0.11455
H_ H_ 0.0460888 0.560486 0.300398 0.11455
H_ H_ 0.068328 0.619466 0.338529 0.11455
H_ H_ 0.142561 0.744872 0.254768 0.11455
H_ H_ 0.177216 0.796609 0.292733 0.11455
H_ H_ 0.174295 0.764417 0.343212 0.11455
H_ H_ 0.191603 0.80941 0.191471 0.11455
H_ H_ 0.122031 0.839451 0.0949092 0.11455
H_ H_ 0.216552 0.841039 0.102532 0.11455
H_ H_ 0.108455 0.818937 0.2123 0.11455
H_ H_ 0.0181404 0.820266 0.207463 0.11455
H_ H_ 0.0398343 0.843741 0.117705 0.11455
H_ H_ 0.346108 0.992448 0.189765 0.11455
H_ H_ 0.368116 0.570422 0.0954733 0.11455
H_ H_ 0.398509 0.978177 0.103663 0.11455
H_ H_ 0.36636 0.577591 0.213984 0.11455
H_ H_ 0.372313 0.668081 0.210045 0.11455
H_ H_ 0.372171 0.654007 0.117869 0.11455
H_ H_ 0.412393 0.906034 0.215891 0.11455
H_ H_ 0.438744 0.923511 0.267231 0.11455
H_ H_ 0.395957 0.874846 0.306106 0.11455
H_ H_ 0.298816 0.76048 0.219068 0.11455
H_ H_ 0.268419 0.707827 0.259819 0.11455
H_ H_ 0.28107 0.739281 0.310643 0.11455
H_ H_ 0.475152 0.783607 0.371364 0.11455
H_ H_ 0.493073 0.800011 0.422644 0.11455
H_ H_ 0.236815 0.86855 0.384559 0.11455
H_ H_ 0.25052 0.88656 0.434846 0.11455
H_ H_ 0.434734 0.9181 0.498393 0.11455
H_ H_ 0.461698 0.929338 0.0410569 0.11455
H_ H_ 0.438167 0.881925 0.0830247 0.11455
H_ H_ 0.360306 0.743754 0.00722832 0.11455
H_ H_ 0.299077 0.714136 0.0449969 0.11455
H_ H_ 0.307316 0.754787 0.0934503 0.11455
C_ C_ 0.22282 0.69931 0.405566 0.68181
C_ C_ 0.280077 0.691101 0.401132 -0.05681
C_ C_ 0.313061 0.695551 0.424962 -0.08735
C_ C_ 0.367002 0.690382 0.420844 -0.05681
C_ C_ 0.38706 0.684984 0.393363 -0.05681
C_ C_ 0.353192 0.687089 0.369872 -0.08735
C_ C_ 0.299828 0.686393 0.374462 -0.08735
C_ C_ 0.400128 0.690622 0.444842 -0.08735
C_ C_ 0.452745 0.685673 0.440366 -0.08735
C_ C_ 0.473118 0.681369 0.412687 -0.05681
C_ C_ 0.439593 0.679373 0.388314 -0.08735
C_ C_ 0.11253 0.790284 0.411013 0.68181
C_ C_ 0.136865 0.593535 0.401717 0.68181
C_ C_ 0.139212 0.536375 0.400682 -0.05681
C_ C_ 0.120042 1.00624057 0.41995 -0.08735
C_ C_ 0.113346 0.953495 0.418953 -0.05681
C_ C_ 0.0957262 0.930719 0.393962 -0.05681
C_ C_ 0.0858766 0.959576 0.369358 -0.08735
C_ C_ 0.0869721 1.0111169 0.371724 -0.08735
C_ C_ 0.127657 0.922569 0.441844 -0.08735
C_ C_ 0.126572 0.870081 0.439805 -0.08735
C_ C_ 0.10994 0.846215 0.413625 -0.05681
C_ C_ 0.0935871 0.877394 0.392168 -0.08735
C_ C_ 0.027815 0.68801 0.40866 0.68181
C_ C_ 0.101264 0.632302 0.480869 0.1947
C_ C_ 0.103917 0.602021 0.0123865 -0.08735
C_ C_ 0.119362 0.637186 0.0332799 -0.08735
C_ C_ 0.144763 0.681372 0.0283894 -0.05681
C_ C_ 0.158327 0.690661 0.99971 0.18498
C_ C_ 0.17534 0.747457 0.49645 -0.08735
C_ C_ 0.202814 0.769829 0.0137124 -0.08735
C_ C_ 0.189728 0.760478 0.0425087 -0.08735
C_ C_ 0.158108 0.71854 0.0505684 0.18498
C_ C_ 0.184732 0.691495 0.098296 0.44287
C_ C_ 0.100273 0.714285 0.0918239 0.44287
C_ C_ 0.0892884 0.708474 0.121789 -0.05681
C_ C_ 0.0403051 0.713398 0.134055 -0.08735
C_ C_ 0.0344993 0.712278 0.163779 -0.08735
C_ C_ 0.074218 0.695484 0.182281 -0.05681
C_ C_ 0.123103 0.688868 0.16986 -0.05681
C_ C_ 0.130753 0.696513 0.140259 -0.05681
C_ C_ 0.176163 0.683504 0.128256 -0.05681
C_ C_ 0.212212 0.658139 0.144974 -0.08735
C_ C_ 0.20851 0.655136 0.174324 -0.08735
C_ C_ 0.162571 0.670738 0.186885 -0.05681
C_ C_ 0.154978 0.667868 0.21699 0.44287
C_ C_ 0.0656167 0.684379 0.211705 0.44287
C_ C_ 0.0953414 0.657435 0.258517 0.18498
C_ C_ 0.0740234 0.612819 0.265514 -0.08735
C_ C_ 0.0610516 0.599679 0.294854 -0.08735
C_ C_ 0.0739802 0.633434 0.316627 -0.08735
C_ C_ 0.107885 0.67266 0.310698 0.18498
C_ C_ 0.112502 0.68904 0.281603 -0.05681
C_ C_ 0.137185 0.733719 0.275531 -0.08735
C_ C_ 0.160909 0.76103 0.296706 -0.08735
C_ C_ 0.155959 0.743897 0.325151 0.1947
C_ C_ 0.267037 0.828867 0.15254 0.68181
C_ C_ 0.212638 0.824444 0.147646 -0.05681
C_ C_ 0.177863 0.818082 0.170824 -0.08735
C_ C_ 0.126471 0.823518 0.167709 -0.05681
C_ C_ 0.104685 0.829155 0.141086 -0.05681
C_ C_ 0.137534 0.834347 0.116527 -0.08735
C_ C_ 0.190745 0.831573 0.120677 -0.08735
C_ C_ 0.0943145 0.820564 0.191209 -0.08735
C_ C_ 0.0432776 0.82694 0.189295 -0.08735
C_ C_ 0.0194833 0.83353 0.161674 -0.05681
C_ C_ 0.0525982 0.836427 0.138073 -0.08735
C_ C_ 0.369071 0.72617 0.161944 0.68181
C_ C_ 0.375049 0.925112 0.148566 0.68181
C_ C_ 0.377792 0.980457 0.147908 -0.05681
C_ C_ 0.38172 0.509644 0.170472 -0.08735
C_ C_ 0.379106 0.562278 0.168839 -0.05681
C_ C_ 0.377775 0.584806 0.14096 -0.05681
C_ C_ 0.373494 0.554455 0.116478 -0.08735
C_ C_ 0.389792 0.00208667 0.122085 -0.08735
C_ C_ 0.37585 0.593665 0.19355 -0.08735
C_ C_ 0.378666 0.645678 0.190657 -0.08735
C_ C_ 0.371344 0.669022 0.163561 -0.05681
C_ C_ 0.370062 0.637357 0.138782 -0.08735
C_ C_ 0.466266 0.820678 0.159194 0.68181
C_ C_ 0.397205 0.881808 0.232878 0.1947
C_ C_ 0.412317 0.891335 0.261057 -0.08735
C_ C_ 0.389034 0.863434 0.283575 -0.08735
C_ C_ 0.352624 0.824172 0.277265 -0.05681
C_ C_ 0.347168 0.808128 0.24792 0.18498
C_ C_ 0.313357 0.768781 0.241749 -0.08735
C_ C_ 0.291276 0.740524 0.264033 -0.08735
C_ C_ 0.301042 0.755376 0.293346 -0.08735
C_ C_ 0.331351 0.79598 0.300156 0.18498
C_ C_ 0.302312 0.819184 0.348257 0.44287
C_ C_ 0.389108 0.802135 0.341164 0.44287
C_ C_ 0.399299 0.815637 0.370303 -0.05681
C_ C_ 0.44856 0.805294 0.383521 -0.08735
C_ C_ 0.456697 0.811797 0.413372 -0.08735
C_ C_ 0.413576 0.822488 0.431517 -0.05681
C_ C_ 0.366897 0.835673 0.418797 -0.05681
C_ C_ 0.359014 0.83024 0.389234 -0.05681
C_ C_ 0.311254 0.834118 0.377538 -0.05681
C_ C_ 0.270644 0.853004 0.395051 -0.08735
C_ C_ 0.280676 0.866404 0.423337 -0.08735
C_ C_ 0.3276 0.850742 0.436279 -0.05681
C_ C_ 0.33519 0.859614 0.465141 0.44287
C_ C_ 0.419594 0.829319 0.461863 0.44287
C_ C_ 0.402207 0.834111 0.00686286 0.18498
C_ C_ 0.42466 0.880167 0.0113468 -0.08735
C_ C_ 0.433896 0.899355 0.0386003 -0.08735
C_ C_ 0.417949 0.873526 0.0629195 -0.08735
C_ C_ 0.387974 0.829639 0.0584928 0.18498
C_ C_ 0.381273 0.808437 0.0307253 -0.05681
C_ C_ 0.356834 0.762511 0.0280011 -0.08735
C_ C_ 0.325135 0.745995 0.0497672 -0.08735
C_ C_ 0.332075 0.76641 0.0772814 0.1947
N_ N_ 0.124273 0.677979 0.476891 -0.29468
N_ N_ 0.148428 0.70686 0.0809769 -0.17154
N_ N_ 0.106158 0.672384 0.22881 -0.17154
N_ N_ 0.131882 0.699377 0.33166 -0.29468
N_ N_ 0.365486 0.840817 0.226309 -0.29468
N_ N_ 0.341206 0.807372 0.329822 -0.17154
N_ N_ 0.378827 0.840471 0.478873 -0.17154
N_ N_ 0.364564 0.806513 0.0819866 -0.29468
O_ O_ 0.203146 0.700147 0.430269 -0.58347
O_ O_ 0.19523 0.697573 0.383244 -0.58347
O_ O_ 0.124646 0.763329 0.432317 -0.58347
O_ O_ 0.115708 0.770917 0.386231 -0.58347
O_ O_ 0.141087 0.617522 0.425839 -0.58347
O_ O_ 0.124735 0.619466 0.37906 -0.58347
O_ O_ 0.0560405 0.684245 0.430378 -0.58347
O_ O_ 0.0466898 0.690844 0.383779 -0.58347
O_ O_ 0.0651318 0.729457 0.0735345 -0.46727
O_ O_ 0.229157 0.681893 0.0886013 -0.46727
O_ O_ 0.0194698 0.687393 0.222659 -0.46727
O_ O_ 0.194014 0.665492 0.234976 -0.46727
O_ O_ 0.285338 0.82191 0.177616 -0.58347
O_ O_ 0.294925 0.826523 0.130671 -0.58347
O_ O_ 0.370375 0.753598 0.184209 -0.58347
O_ O_ 0.362019 0.747536 0.138043 -0.58347
O_ O_ 0.365067 0.902899 0.172956 -0.58347
O_ O_ 0.375877 0.898679 0.125178 -0.58347
O_ O_ 0.437011 0.831881 0.180465 -0.58347
O_ O_ 0.446359 0.815482 0.134664 -0.58347
O_ O_ 0.426029 0.786802 0.324532 -0.46727
O_ O_ 0.257596 0.821884 0.337622 -0.46727
O_ O_ 0.465747 0.824743 0.472952 -0.46727
O_ O_ 0.299907 0.883361 0.480361 -0.46727
Zn Zn 0.13154 0.677788 0.883252 0.90689
Zn Zn 0.140477 0.675489 0.931294 0.90689
Zn Zn 0.378153 0.819347 0.628569 0.90689
Zn Zn 0.364742 0.820178 0.67972 0.90689
H_ H_ 0.306434 0.695987 0.949015 0.11455
H_ H_ 0.373938 0.660428 0.852704 0.11455
H_ H_ 0.281923 0.654875 0.860387 0.11455
H_ H_ 0.395613 0.680442 0.968579 0.11455
H_ H_ 0.485756 0.672319 0.959191 0.11455
H_ H_ 0.459127 0.650499 0.870061 0.11455
H_ H_ 0.170776 0.507325 0.941139 0.11455
H_ H_ 0.130353 0.925586 0.844881 0.11455
H_ H_ 0.155865 0.518531 0.849381 0.11455
H_ H_ 0.164963 0.92808 0.960827 0.11455
H_ H_ 0.148241 0.838768 0.960801 0.11455
H_ H_ 0.122085 0.84356 0.87095 0.11455
H_ H_ 0.0848245 0.602115 0.966687 0.11455
H_ H_ 0.0676927 0.581055 0.511061 0.11455
H_ H_ 0.104517 0.623621 0.554605 0.11455
H_ H_ 0.200576 0.742249 0.970701 0.11455
H_ H_ 0.205013 0.812937 0.517022 0.11455
H_ H_ 0.196446 0.781538 0.564312 0.11455
H_ H_ 1.0138847 0.728794 0.626017 0.11455
H_ H_ 1.00505955 0.709553 0.676699 0.11455
H_ H_ 0.251977 0.639169 0.633848 0.11455
H_ H_ 0.248291 0.638355 0.68647 0.11455
H_ H_ 0.0820595 0.575161 0.75341 0.11455
H_ H_ 0.0517649 0.557094 0.803022 0.11455
H_ H_ 0.0816911 0.615776 0.841235 0.11455
H_ H_ 0.167213 0.732411 0.756416 0.11455
H_ H_ 0.200823 0.786789 0.79893 0.11455
H_ H_ 0.18227 0.758262 0.847779 0.11455
H_ H_ 0.199758 0.784842 0.689861 0.11455
H_ H_ 0.129928 0.852416 0.597714 0.11455
H_ H_ 0.222104 0.839605 0.602454 0.11455
H_ H_ 0.11229 0.802 0.712944 0.11455
H_ H_ 0.0213098 0.808458 0.706247 0.11455
H_ H_ 0.0417944 0.851603 0.617772 0.11455
H_ H_ 0.395576 0.987134 0.685163 0.11455
H_ H_ 0.384984 0.562684 0.597448 0.11455
H_ H_ 0.313993 0.980358 0.605579 0.11455
H_ H_ 0.398083 0.576899 0.716163 0.11455
H_ H_ 0.409086 0.669778 0.709542 0.11455
H_ H_ 0.390189 0.655355 0.618785 0.11455
H_ H_ 0.394287 0.905794 0.716547 0.11455
H_ H_ 0.411427 0.929444 0.76877 0.11455
H_ H_ 0.395442 0.87237 0.805107 0.11455
H_ H_ 0.305553 0.747713 0.719028 0.11455
H_ H_ 0.2886 0.685541 0.75719 0.11455
H_ H_ 0.312909 0.708227 0.808834 0.11455
H_ H_ 0.497204 0.782861 0.869926 0.11455
H_ H_ 0.50616 0.790893 0.920949 0.11455
H_ H_ 0.243315 0.830582 0.885066 0.11455
H_ H_ 0.256108 0.835765 0.939322 0.11455
H_ H_ 0.443561 0.899057 0.993681 0.11455
H_ H_ 0.460879 0.933186 0.550475 0.11455
H_ H_ 0.432949 0.872016 0.589185 0.11455
H_ H_ 0.324324 0.776552 0.505373 0.11455
H_ H_ 0.286235 0.728307 0.548651 0.11455
H_ H_ 0.31352 0.747068 0.595567 0.11455
C_ C_ 0.235545 0.687594 0.907789 0.68181
C_ C_ 0.288015 0.679581 0.904232 -0.05681
C_ C_ 0.321659 0.686574 0.926952 -0.08735
C_ C_ 0.373896 0.679511 0.923592 -0.05681
C_ C_ 0.393124 0.665033 0.896342 -0.05681
C_ C_ 0.359165 0.661063 0.873738 -0.08735
C_ C_ 0.307604 0.662518 0.87822 -0.08735
C_ C_ 0.409042 0.673696 0.947097 -0.08735
C_ C_ 0.460563 0.672596 0.941541 -0.08735
C_ C_ 0.479711 0.662506 0.913371 -0.05681
C_ C_ 0.446149 0.664594 0.890313 -0.08735
C_ C_ 0.127803 0.775892 0.913656 0.68181
C_ C_ 0.158469 0.578678 0.898517 0.68181
C_ C_ 0.157789 0.521086 0.895771 -0.05681
C_ C_ 0.149472 0.990663 0.918698 -0.08735
C_ C_ 0.145033 0.940034 0.917428 -0.05681
C_ C_ 0.134711 0.917863 0.891061 -0.05681
C_ C_ 0.135381 0.944933 0.866192 -0.08735
C_ C_ 0.144407 -0.0027009999999999534 0.866939 -0.08735
C_ C_ 0.152351 0.910224 0.941386 -0.08735
C_ C_ 0.146431 0.859549 0.941317 -0.08735
C_ C_ 0.133567 0.832879 0.915293 -0.05681
C_ C_ 0.130216 0.863492 0.890611 -0.08735
C_ C_ 0.0382144 0.674139 0.906398 0.68181
C_ C_ 0.110968 0.619027 0.983981 0.1947
C_ C_ 0.0936284 0.613049 0.508592 -0.08735
C_ C_ 0.110288 0.638608 0.533412 -0.08735
C_ C_ 0.134133 0.685159 0.529141 -0.05681
C_ C_ 0.142586 0.705512 0.50026 0.18498
C_ C_ 0.188157 0.733383 0.992875 -0.08735
C_ C_ 0.188443 0.775293 0.520161 -0.08735
C_ C_ 0.175726 0.760755 0.547152 -0.08735
C_ C_ 0.152673 0.713354 0.55225 0.18498
C_ C_ 0.185456 0.683196 0.597719 0.44287
C_ C_ 0.0997187 0.708699 0.595042 0.44287
C_ C_ 0.0929016 0.700909 0.624927 -0.05681
C_ C_ 0.0455405 0.709055 0.638064 -0.08735
C_ C_ 0.0398591 0.697484 0.667897 -0.08735
C_ C_ 0.0796127 0.68214 0.684309 -0.05681
C_ C_ 0.127116 0.673054 0.671233 -0.05681
C_ C_ 0.132142 0.682122 0.641023 -0.05681
C_ C_ 0.179062 0.673235 0.627843 -0.05681
C_ C_ 0.217499 0.651046 0.645192 -0.08735
C_ C_ 0.217155 0.653786 0.674509 -0.08735
C_ C_ 0.170194 0.659161 0.688162 -0.05681
C_ C_ 0.163308 0.64726 0.717319 0.44287
C_ C_ 0.0780805 0.678549 0.71438 0.44287
C_ C_ 0.110391 0.647791 0.760808 0.18498
C_ C_ 0.087142 0.602328 0.769164 -0.08735
C_ C_ 0.0755325 0.590147 0.797746 -0.08735
C_ C_ 0.093662 0.621497 0.818788 -0.08735
C_ C_ 0.121093 0.665839 0.812778 0.18498
C_ C_ 0.128268 0.679524 0.783128 -0.05681
C_ C_ 0.156402 0.72504 0.777871 -0.08735
C_ C_ 0.181554 0.750137 0.801728 -0.08735
C_ C_ 0.168938 0.735054 0.829719 0.1947
C_ C_ 0.272099 0.810166 0.65173 0.68181
C_ C_ 0.216264 0.812905 0.648536 -0.05681
C_ C_ 0.183847 0.802694 0.670858 -0.08735
C_ C_ 0.128728 0.813035 0.667446 -0.05681
C_ C_ 0.109747 0.828716 0.640324 -0.05681
C_ C_ 0.14429 0.839041 0.617545 -0.08735
C_ C_ 0.196013 0.827514 0.621071 -0.08735
C_ C_ 0.0970882 0.809429 0.691542 -0.08735
C_ C_ 0.0442515 0.815729 0.687663 -0.08735
C_ C_ 0.0230558 0.826268 0.660839 -0.05681
C_ C_ 0.0568929 0.832362 0.637274 -0.08735
C_ C_ 0.388619 0.721957 0.662463 0.68181
C_ C_ 0.360679 0.918853 0.646189 0.68181
C_ C_ 0.360798 0.975952 0.644807 -0.05681
C_ C_ 0.378519 0.509096 0.674568 -0.08735
C_ C_ 0.388371 0.56121 0.671372 -0.05681
C_ C_ 0.388602 0.580548 0.643482 -0.05681
C_ C_ 0.384391 0.548625 0.619188 -0.08735
C_ C_ 0.334283 1.0015877 0.622098 -0.08735
C_ C_ 0.401315 0.592137 0.695438 -0.08735
C_ C_ 0.407106 0.643691 0.691415 -0.08735
C_ C_ 0.397096 0.665452 0.663878 -0.05681
C_ C_ 0.392469 0.634334 0.639678 -0.08735
C_ C_ 0.469212 0.832568 0.657571 0.68181
C_ C_ 0.383658 0.881274 0.733178 0.1947
C_ C_ 0.395626 0.894006 0.762368 -0.08735
C_ C_ 0.384536 0.85999 0.783737 -0.08735
C_ C_ 0.358 0.814507 0.777274 -0.05681
C_ C_ 0.345795 0.801887 0.748246 0.18498
C_ C_ 0.320013 0.755432 0.740566 -0.08735
C_ C_ 0.308136 0.720844 0.762188 -0.08735
C_ C_ 0.323026 0.731805 0.790668 -0.08735
C_ C_ 0.345967 0.777902 0.799123 0.18498
C_ C_ 0.315437 0.804978 0.845942 0.44287
C_ C_ 0.402275 0.782351 0.840628 0.44287
C_ C_ 0.412276 0.791475 0.869714 -0.05681
C_ C_ 0.463052 0.789104 0.881993 -0.08735
C_ C_ 0.468618 0.79383 0.91165 -0.08735
C_ C_ 0.426589 0.80119 0.930175 -0.05681
C_ C_ 0.378614 0.807927 0.918549 -0.05681
C_ C_ 0.369693 0.802551 0.888409 -0.05681
C_ C_ 0.321301 0.809836 0.876164 -0.05681
C_ C_ 0.280351 0.823255 0.895315 -0.08735
C_ C_ 0.288385 0.828818 0.92477 -0.08735
C_ C_ 0.337862 0.823258 0.936534 -0.05681
C_ C_ 0.346528 0.830601 0.966374 0.44287
C_ C_ 0.432377 0.804234 0.960131 0.44287
C_ C_ 0.386142 0.853374 0.509017 0.18498
C_ C_ 0.416859 0.896363 0.515944 -0.08735
C_ C_ 0.434061 0.903115 0.545157 -0.08735
C_ C_ 0.420911 0.869645 0.567301 -0.08735
C_ C_ 0.388063 0.82941 0.561065 0.18498
C_ C_ 0.373238 0.819403 0.532088 -0.05681
C_ C_ 0.33891 0.780633 0.52747 -0.08735
C_ C_ 0.315223 0.757534 0.551686 -0.08735
C_ C_ 0.327662 0.770195 0.57886 0.1947
N_ N_ 0.139038 0.659834 0.978406 -0.29468
N_ N_ 0.146033 0.700553 0.582552 -0.17154
N_ N_ 0.117776 0.660893 0.730369 -0.17154
N_ N_ 0.136883 0.694831 0.835092 -0.29468
N_ N_ 0.361827 0.835724 0.727652 -0.29468
N_ N_ 0.35589 0.791122 0.829149 -0.17154
N_ N_ 0.392354 0.817692 0.977904 -0.17154
N_ N_ 0.3671 0.801994 0.583854 -0.29468
O_ O_ 0.213803 0.681404 0.931528 -0.58347
O_ O_ 0.207262 0.695029 0.886166 -0.58347
O_ O_ 0.13336 0.750421 0.936633 -0.58347
O_ O_ 0.121741 0.753395 0.889368 -0.58347
O_ O_ 0.154256 0.59558 0.9235 -0.58347
O_ O_ 0.147025 0.604939 0.877238 -0.58347
O_ O_ 0.0655223 0.673156 0.929302 -0.58347
O_ O_ 0.0578311 0.669219 0.880776 -0.58347
O_ O_ 0.0606526 0.718322 0.578502 -0.46727
O_ O_ 0.228618 0.674074 0.586312 -0.46727
O_ O_ 0.0361473 0.690176 0.728941 -0.46727
O_ O_ 0.202142 0.635145 0.733141 -0.46727
O_ O_ 0.29274 0.809216 0.676903 -0.58347
O_ O_ 0.301485 0.81275 0.629507 -0.58347
O_ O_ 0.378748 0.746668 0.685375 -0.58347
O_ O_ 0.386927 0.744317 0.638221 -0.58347
O_ O_ 0.353599 0.895035 0.669063 -0.58347
O_ O_ 0.369216 0.891668 0.624032 -0.58347
O_ O_ 0.438211 0.832684 0.679021 -0.58347
O_ O_ 0.451933 0.829971 0.632841 -0.58347
O_ O_ 0.440758 0.769536 0.823786 -0.46727
O_ O_ 0.26915 0.810169 0.8351 -0.46727
O_ O_ 0.478118 0.798354 0.971427 -0.46727
O_ O_ 0.309484 0.844157 0.983 -0.46727
Zn Zn 0.613721 0.186109 0.3805 0.90689
Zn Zn 0.624102 0.182441 0.429066 0.90689
Zn Zn 0.874595 0.31184 0.132664 0.90689
Zn Zn 0.862533 0.322967 0.180535 0.90689
H_ H_ 0.793874 0.195939 0.445726 0.11455
H_ H_ 0.866603 0.17753 0.349544 0.11455
H_ H_ 0.772774 0.167007 0.356364 0.11455
H_ H_ 0.878419 0.193871 0.466971 0.11455
H_ H_ 0.967937 0.199322 0.457664 0.11455
H_ H_ 0.949568 0.17927 0.36885 0.11455
H_ H_ 0.652638 0.0141344 0.438263 0.11455
H_ H_ 0.648309 0.434607 0.348659 0.11455
H_ H_ 0.586789 0.0285141 0.353779 0.11455
H_ H_ 0.623706 0.422297 0.466786 0.11455
H_ H_ 0.616624 0.33467 0.460109 0.11455
H_ H_ 0.609741 0.353567 0.369298 0.11455
H_ H_ 0.565432 0.116437 0.467495 0.11455
H_ H_ 0.577184 0.0676389 0.0128155 0.11455
H_ H_ 0.606796 0.112638 0.0541194 0.11455
H_ H_ 0.677959 0.253957 0.47202 0.11455
H_ H_ 0.744017 0.285933 0.0177813 0.11455
H_ H_ 0.720016 0.254403 0.0671225 0.11455
H_ H_ 0.510773 0.188664 0.118785 0.11455
H_ H_ 0.497493 0.197492 0.170251 0.11455
H_ H_ 0.760049 0.173533 0.146671 0.11455
H_ H_ 0.744391 0.162854 0.195831 0.11455
H_ H_ 0.547952 0.0888811 0.250237 0.11455
H_ H_ 0.52447 0.0682715 0.299946 0.11455
H_ H_ 0.546833 0.12596 0.338079 0.11455
H_ H_ 0.63926 0.245006 0.255053 0.11455
H_ H_ 0.676822 0.295039 0.294008 0.11455
H_ H_ 0.664096 0.261153 0.344856 0.11455
H_ H_ 0.698443 0.292107 0.198049 0.11455
H_ H_ 0.62744 0.30422 0.101818 0.11455
H_ H_ 0.716542 0.301732 0.107397 0.11455
H_ H_ 0.612189 0.313299 0.219206 0.11455
H_ H_ 0.517286 0.326064 0.211344 0.11455
H_ H_ 0.539829 0.3138 0.120905 0.11455
H_ H_ 0.892042 0.485603 0.195083 0.11455
H_ H_ 0.905211 0.0602084 0.0979509 0.11455
H_ H_ 0.842441 0.472488 0.108111 0.11455
H_ H_ 0.853114 0.071745 0.213448 0.11455
H_ H_ 0.864527 0.162366 0.209084 0.11455
H_ H_ 0.899509 0.147296 0.118126 0.11455
H_ H_ 0.920006 0.377891 0.215955 0.11455
H_ H_ 0.934039 0.417649 0.265071 0.11455
H_ H_ 0.902502 0.368615 0.305255 0.11455
H_ H_ 0.795789 0.257152 0.224549 0.11455
H_ H_ 0.764887 0.205322 0.263539 0.11455
H_ H_ 0.789958 0.223416 0.314365 0.11455
H_ H_ 0.976365 0.294661 0.377383 0.11455
H_ H_ -0.011875999999999998 0.299271 0.427211 0.11455
H_ H_ 0.725773 0.322595 0.390734 0.11455
H_ H_ 0.735651 0.334927 0.441181 0.11455
H_ H_ 0.917129 0.414368 0.500282 0.11455
H_ H_ 0.939463 0.434872 0.0457117 0.11455
H_ H_ 0.922921 0.379873 0.0861837 0.11455
H_ H_ 0.853249 0.237761 0.00664818 0.11455
H_ H_ 0.81565 0.197205 0.0518848 0.11455
H_ H_ 0.822656 0.234432 0.0985161 0.11455
C_ C_ 0.719706 0.180758 0.404807 0.68181
C_ C_ 0.775401 0.180835 0.401484 -0.05681
C_ C_ 0.807712 0.19098 0.424611 -0.08735
C_ C_ 0.859683 0.186421 0.421505 -0.05681
C_ C_ 0.880962 0.180206 0.392914 -0.05681
C_ C_ 0.848008 0.179319 0.370069 -0.08735
C_ C_ 0.795981 0.173487 0.374389 -0.08735
C_ C_ 0.891156 0.191127 0.445615 -0.08735
C_ C_ 0.943259 0.189905 0.440614 -0.08735
C_ C_ 0.964943 0.183974 0.412824 -0.05681
C_ C_ 0.93285 0.178122 0.389398 -0.08735
C_ C_ 0.616938 0.278674 0.411358 0.68181
C_ C_ 0.619945 0.0869442 0.396924 0.68181
C_ C_ 0.622632 0.0284692 0.395007 -0.05681
C_ C_ 0.628993 0.492928 0.425608 -0.08735
C_ C_ 0.626733 0.440537 0.421301 -0.05681
C_ C_ 0.630994 0.419582 0.39361 -0.05681
C_ C_ 0.637015 0.451556 0.36981 -0.08735
C_ C_ 0.638947 0.504313 0.373571 -0.08735
C_ C_ 0.62329 0.407411 0.444905 -0.08735
C_ C_ 0.618587 0.355873 0.440774 -0.08735
C_ C_ 0.622298 0.335578 0.413562 -0.05681
C_ C_ 0.622514 0.367756 0.38949 -0.08735
C_ C_ 0.519287 0.182838 0.407523 0.68181
C_ C_ 0.589212 0.131316 0.483985 0.1947
C_ C_ 0.602296 0.100964 0.0103256 -0.08735
C_ C_ 0.624519 0.122555 0.0341849 -0.08735
C_ C_ 0.654924 0.16493 0.0299541 -0.05681
C_ C_ 0.667213 0.180427 1.00176492 0.18498
C_ C_ 0.670367 0.242109 0.493875 -0.08735
C_ C_ 0.718059 0.251982 0.0210871 -0.08735
C_ C_ 0.706191 0.234815 0.0486556 -0.08735
C_ C_ 0.671413 0.195085 0.0540499 0.18498
C_ C_ 0.694663 0.17051 0.101074 0.44287
C_ C_ 0.609087 0.1929 0.0934709 0.44287
C_ C_ 0.59639 0.183098 0.12199 -0.05681
C_ C_ 0.543356 0.182285 0.13208 -0.08735
C_ C_ 0.53541 0.188152 0.162445 -0.08735
C_ C_ 0.575248 0.181653 0.182473 -0.05681
C_ C_ 0.622792 0.170337 0.171594 -0.05681
C_ C_ 0.633486 0.176183 0.14169 -0.05681
C_ C_ 0.683757 0.170949 0.131041 -0.05681
C_ C_ 0.722836 0.161511 0.151085 -0.08735
C_ C_ 0.712739 0.162253 0.180386 -0.08735
C_ C_ 0.662757 0.161317 0.191058 -0.05681
C_ C_ 0.651359 0.151861 0.220322 0.44287
C_ C_ 0.565706 0.173529 0.212729 0.44287
C_ C_ 0.593193 0.152208 0.261531 0.18498
C_ C_ 0.562589 0.111657 0.268186 -0.08735
C_ C_ 0.553532 0.0969198 0.296525 -0.08735
C_ C_ 0.563904 0.131418 0.31805 -0.08735
C_ C_ 0.591471 0.176292 0.312682 0.18498
C_ C_ 0.608262 0.186049 0.284142 -0.05681
C_ C_ 0.635735 0.231152 0.276748 -0.08735
C_ C_ 0.652255 0.262282 0.29936 -0.08735
C_ C_ 0.642029 0.245804 0.327763 0.1947
C_ C_ 0.770142 0.306812 0.158445 0.68181
C_ C_ 0.715598 0.305352 0.153294 -0.05681
C_ C_ 0.680848 0.301831 0.176644 -0.08735
C_ C_ 0.630218 0.311359 0.173772 -0.05681
C_ C_ 0.610237 0.313222 0.146464 -0.05681
C_ C_ 0.642071 0.312456 0.121695 -0.08735
C_ C_ 0.693309 0.307055 0.126203 -0.08735
C_ C_ 0.595932 0.310874 0.197504 -0.08735
C_ C_ 0.543494 0.318235 0.193793 -0.08735
C_ C_ 0.523371 0.324432 0.166395 -0.05681
C_ C_ 0.557425 0.318298 0.143096 -0.08735
C_ C_ 0.875967 0.219046 0.16068 0.68181
C_ C_ 0.861987 0.416102 0.153802 0.68181
C_ C_ 0.862443 0.47347 0.151821 -0.05681
C_ C_ 0.861758 0.0043481 0.171826 -0.08735
C_ C_ 0.867992 0.0565475 0.168565 -0.05681
C_ C_ 0.885281 0.0786462 0.142 -0.05681
C_ C_ 0.893135 0.0452222 0.119021 -0.08735
C_ C_ 0.856073 0.495694 0.125265 -0.08735
C_ C_ 0.865179 0.087634 0.192286 -0.08735
C_ C_ 0.872671 0.140273 0.189892 -0.08735
C_ C_ 0.885407 0.162533 0.163806 -0.05681
C_ C_ 0.892258 0.130514 0.139556 -0.08735
C_ C_ 0.966833 0.316007 0.156082 0.68181
C_ C_ 0.897692 0.365782 0.234045 0.1947
C_ C_ 0.910332 0.382373 0.261391 -0.08735
C_ C_ 0.889134 0.357671 0.284577 -0.08735
C_ C_ 0.853825 0.316714 0.281156 -0.05681
C_ C_ 0.838738 0.306089 0.252638 0.18498
C_ C_ 0.807081 0.266394 0.246934 -0.08735
C_ C_ 0.789825 0.235951 0.269258 -0.08735
C_ C_ 0.805835 0.245339 0.298382 -0.08735
C_ C_ 0.836587 0.287017 0.305037 0.18498
C_ C_ 0.801375 0.31316 0.350195 0.44287
C_ C_ 0.889978 0.301622 0.345848 0.44287
C_ C_ 0.897051 0.310856 0.375539 -0.05681
C_ C_ 0.943909 0.300929 0.388465 -0.08735
C_ C_ 0.951395 0.307954 0.418103 -0.08735
C_ C_ 0.909508 0.314697 0.434939 -0.05681
C_ C_ 0.860429 0.317347 0.423133 -0.05681
C_ C_ 0.855324 0.316523 0.392856 -0.05681
C_ C_ 0.806583 0.317301 0.380224 -0.05681
C_ C_ 0.763281 0.323313 0.397992 -0.08735
C_ C_ 0.770491 0.33138 0.428024 -0.08735
C_ C_ 0.818181 0.330179 0.441031 -0.05681
C_ C_ 0.823435 0.329912 0.471088 0.44287
C_ C_ 0.913292 0.321414 0.465104 0.44287
C_ C_ 0.895589 0.331142 0.00765216 0.18498
C_ C_ 0.920337 0.379851 0.0117671 -0.08735
C_ C_ 0.930976 0.395925 0.0408619 -0.08735
C_ C_ 0.919924 0.363362 0.0647499 -0.08735
C_ C_ 0.885913 0.321999 0.0599691 0.18498
C_ C_ 0.880438 0.302911 0.0317403 -0.05681
C_ C_ 0.860413 0.253559 0.0284737 -0.08735
C_ C_ 0.837885 0.230107 0.0525162 -0.08735
C_ C_ 0.840825 0.253296 0.0795479 0.1947
N_ N_ 0.617874 0.173818 0.478745 -0.29468
N_ N_ 0.657435 0.183598 0.0832333 -0.17154
N_ N_ 0.603711 0.16166 0.231741 -0.17154
N_ N_ 0.61431 0.203231 0.333507 -0.29468
N_ N_ 0.865431 0.326295 0.229869 -0.29468
N_ N_ 0.842963 0.301292 0.334387 -0.17154
N_ N_ 0.871689 0.328878 0.482041 -0.17154
N_ N_ 0.87007 0.294848 0.0833146 -0.29468
O_ O_ 0.702616 0.175224 0.430371 -0.58347
O_ O_ 0.690958 0.190918 0.383514 -0.58347
O_ O_ 0.634872 0.251936 0.431114 -0.58347
O_ O_ 0.603656 0.258132 0.388507 -0.58347
O_ O_ 0.618938 0.1083 0.420993 -0.58347
O_ O_ 0.623384 0.114214 0.374761 -0.58347
O_ O_ 0.548131 0.190015 0.428052 -0.58347
O_ O_ 0.538153 0.181911 0.381724 -0.58347
O_ O_ 0.571593 0.202386 0.0757401 -0.46727
O_ O_ 0.74095 0.171082 0.0928168 -0.46727
O_ O_ 0.519381 0.179534 0.22187 -0.46727
O_ O_ 0.687446 0.137611 0.23713 -0.46727
O_ O_ 0.787574 0.323169 0.182125 -0.58347
O_ O_ 0.799231 0.30209 0.136993 -0.58347
O_ O_ 0.860538 0.246484 0.180415 -0.58347
O_ O_ 0.887055 0.240316 0.136877 -0.58347
O_ O_ 0.865187 0.397189 0.178045 -0.58347
O_ O_ 0.862414 0.387419 0.131358 -0.58347
O_ O_ 0.938249 0.317663 0.177661 -0.58347
O_ O_ 0.948289 0.323324 0.130736 -0.58347
O_ O_ 0.929915 0.286255 0.329917 -0.46727
O_ O_ 0.756826 0.315164 0.337685 -0.46727
O_ O_ 0.956979 0.309023 0.477345 -0.46727
O_ O_ 0.785282 0.331719 0.488301 -0.46727
Zn Zn 0.641224 0.174792 0.881675 0.90689
Zn Zn 0.643555 0.168268 0.930349 0.90689
Zn Zn 0.870358 0.310604 0.633951 0.90689
Zn Zn 0.864027 0.322433 0.678966 0.90689
H_ H_ 0.812902 0.175741 0.945208 0.11455
H_ H_ 0.886944 0.162346 0.849611 0.11455
H_ H_ 0.795477 0.181695 0.854823 0.11455
H_ H_ 0.900518 0.18405 0.966298 0.11455
H_ H_ 0.988409 0.167962 0.961199 0.11455
H_ H_ 0.971046 0.168805 0.868755 0.11455
H_ H_ 0.655947 0.00069558 0.944432 0.11455
H_ H_ 0.603476 0.435066 0.850517 0.11455
H_ H_ 0.646813 0.0147304 0.851204 0.11455
H_ H_ 0.659984 0.417492 0.965886 0.11455
H_ H_ 0.643254 0.323611 0.961923 0.11455
H_ H_ 0.621123 0.341344 0.871236 0.11455
H_ H_ 0.593361 0.10203 0.966365 0.11455
H_ H_ 0.554716 0.0852447 0.515461 0.11455
H_ H_ 0.582694 0.136897 0.55453 0.11455
H_ H_ 0.701394 0.242707 0.977429 0.11455
H_ H_ 0.701655 0.310898 0.512534 0.11455
H_ H_ 0.693058 0.286014 0.561039 0.11455
H_ H_ 0.514129 0.214566 0.625995 0.11455
H_ H_ 0.504659 0.195331 0.676469 0.11455
H_ H_ 0.764273 0.179693 0.635197 0.11455
H_ H_ 0.758849 0.163728 0.685674 0.11455
H_ H_ 0.591079 0.0819938 0.750788 0.11455
H_ H_ 0.568543 0.0586414 0.80088 0.11455
H_ H_ 0.585022 0.118569 0.841168 0.11455
H_ H_ 0.674277 0.244487 0.760051 0.11455
H_ H_ 0.694706 0.297316 0.800388 0.11455
H_ H_ 0.692049 0.258614 0.848779 0.11455
H_ H_ 0.696339 0.282231 0.68921 0.11455
H_ H_ 0.629272 0.365923 0.603405 0.11455
H_ H_ 0.719905 0.342658 0.607622 0.11455
H_ H_ 0.609326 0.294957 0.714513 0.11455
H_ H_ 0.517891 0.29512 0.706279 0.11455
H_ H_ 0.543669 0.343012 0.618927 0.11455
H_ H_ 0.86177 0.486372 0.691559 0.11455
H_ H_ 0.882489 0.0625972 0.597038 0.11455
H_ H_ 0.84946 0.473822 0.600117 0.11455
H_ H_ 0.842725 0.0711921 0.714251 0.11455
H_ H_ 0.860219 0.163151 0.709893 0.11455
H_ H_ 0.884506 0.147568 0.619429 0.11455
H_ H_ 0.910682 0.397388 0.717961 0.11455
H_ H_ 0.923758 0.424818 0.767021 0.11455
H_ H_ 0.889728 0.378081 0.806812 0.11455
H_ H_ 0.814084 0.250304 0.722752 0.11455
H_ H_ 0.783356 0.194375 0.761539 0.11455
H_ H_ 0.783786 0.224092 0.81093 0.11455
H_ H_ 0.982545 0.282016 0.867748 0.11455
H_ H_ -0.0063389999999999835 0.296839 0.920579 0.11455
H_ H_ 0.736202 0.351361 0.888872 0.11455
H_ H_ 0.743532 0.335176 0.939814 0.11455
H_ H_ 0.922848 0.403927 0.994287 0.11455
H_ H_ 0.933066 0.433498 0.549114 0.11455
H_ H_ 0.914179 0.376989 0.588409 0.11455
H_ H_ 0.834415 0.247413 0.508473 0.11455
H_ H_ 0.803948 0.196751 0.548464 0.11455
H_ H_ 0.820976 0.228531 0.596463 0.11455
C_ C_ 0.740372 0.180186 0.902641 0.68181
C_ C_ 0.79825 0.178647 0.900688 -0.05681
C_ C_ 0.827913 0.1712 0.924633 -0.08735
C_ C_ 0.880053 0.170839 0.920929 -0.05681
C_ C_ 0.90149 0.166276 0.893222 -0.05681
C_ C_ 0.869876 0.165076 0.869934 -0.08735
C_ C_ 0.820095 0.172222 0.872878 -0.08735
C_ C_ 0.911828 0.170096 0.945559 -0.08735
C_ C_ 0.965908 0.166248 0.941519 -0.08735
C_ C_ 0.987061 0.167352 0.91459 -0.05681
C_ C_ 0.953972 0.167639 0.889883 -0.08735
C_ C_ 0.630453 0.270707 0.912888 0.68181
C_ C_ 0.655653 0.0723742 0.898676 0.68181
C_ C_ 0.656941 0.01595 0.896863 -0.05681
C_ C_ 0.647518 0.487303 0.924419 -0.08735
C_ C_ 0.643445 0.434229 0.921227 -0.05681
C_ C_ 0.630455 0.413623 0.894098 -0.05681
C_ C_ 0.625445 0.446639 0.870003 -0.08735
C_ C_ 0.632484 0.499138 0.873267 -0.08735
C_ C_ 0.647484 0.402476 0.94521 -0.08735
C_ C_ 0.639589 0.348311 0.943759 -0.08735
C_ C_ 0.633337 0.327368 0.916512 -0.05681
C_ C_ 0.62717 0.35974 0.892607 -0.08735
C_ C_ 0.5436 0.168234 0.907557 0.68181
C_ C_ 0.615761 0.114309 0.982954 0.1947
C_ C_ 0.584065 0.112721 0.5109 -0.08735
C_ C_ 0.603214 0.140577 0.534067 -0.08735
C_ C_ 0.631853 0.185796 0.529033 -0.05681
C_ C_ 0.640753 0.199594 0.499921 0.18498
C_ C_ 0.697377 0.224363 0.997821 -0.08735
C_ C_ 0.683708 0.274075 0.51689 -0.08735
C_ C_ 0.677406 0.260311 0.545302 -0.08735
C_ C_ 0.648052 0.218802 0.552347 0.18498
C_ C_ 0.687648 0.193655 0.597334 0.44287
C_ C_ 0.599354 0.209722 0.595621 0.44287
C_ C_ 0.594752 0.20328 0.624896 -0.05681
C_ C_ 0.547789 0.207457 0.638539 -0.08735
C_ C_ 0.542299 0.19606 0.667571 -0.08735
C_ C_ 0.584538 0.18512 0.684514 -0.05681
C_ C_ 0.633086 0.183848 0.670361 -0.05681
C_ C_ 0.637427 0.195722 0.641441 -0.05681
C_ C_ 0.683748 0.186928 0.62727 -0.05681
C_ C_ 0.726247 0.182393 0.645034 -0.08735
C_ C_ 0.72329 0.17312 0.674238 -0.08735
C_ C_ 0.675601 0.17608 0.687753 -0.05681
C_ C_ 0.671183 0.16676 0.717337 0.44287
C_ C_ 0.581395 0.182155 0.715397 0.44287
C_ C_ 0.619224 0.155268 0.761184 0.18498
C_ C_ 0.600744 0.106278 0.767574 -0.08735
C_ C_ 0.592524 0.0901292 0.796975 -0.08735
C_ C_ 0.601154 0.125031 0.82023 -0.08735
C_ C_ 0.626266 0.169645 0.81439 0.18498
C_ C_ 0.63268 0.18646 0.784653 -0.05681
C_ C_ 0.661969 0.231428 0.780833 -0.08735
C_ C_ 0.67905 0.260111 0.804591 -0.08735
C_ C_ 0.671694 0.24146 0.830888 0.1947
C_ C_ 0.769087 0.312203 0.654896 0.68181
C_ C_ 0.71421 0.320392 0.651341 -0.05681
C_ C_ 0.681724 0.309418 0.674472 -0.08735
C_ C_ 0.630554 0.319746 0.672199 -0.05681
C_ C_ 0.611215 0.339199 0.646711 -0.05681
C_ C_ 0.644177 0.347287 0.623033 -0.08735
C_ C_ 0.695673 0.341235 0.626986 -0.08735
C_ C_ 0.595991 0.311281 0.695029 -0.08735
C_ C_ 0.542739 0.313244 0.689656 -0.08735
C_ C_ 0.523077 0.326419 0.663478 -0.05681
C_ C_ 0.557029 0.338977 0.641138 -0.08735
C_ C_ 0.881432 0.217583 0.662308 0.68181
C_ C_ 0.85163 0.413795 0.64826 0.68181
C_ C_ 0.854055 0.472296 0.645591 -0.05681
C_ C_ 0.86258 0.00398315 0.672027 -0.08735
C_ C_ 0.857903 0.055302 0.670024 -0.05681
C_ C_ 0.865725 0.0782914 0.642073 -0.05681
C_ C_ 0.869591 0.0467911 0.617775 -0.08735
C_ C_ 0.853642 0.497266 0.618747 -0.08735
C_ C_ 0.854335 0.0867533 0.693949 -0.08735
C_ C_ 0.862726 0.139122 0.691392 -0.08735
C_ C_ 0.871774 0.162311 0.664806 -0.05681
C_ C_ 0.871596 0.130364 0.640039 -0.08735
C_ C_ 0.967659 0.326421 0.658212 0.68181
C_ C_ 0.890612 0.378906 0.734602 0.1947
C_ C_ 0.896871 0.395026 0.762441 -0.08735
C_ C_ 0.87684 0.366419 0.784932 -0.08735
C_ C_ 0.849846 0.321822 0.77937 -0.05681
C_ C_ 0.841836 0.307649 0.750285 0.18498
C_ C_ 0.815713 0.262861 0.744314 -0.08735
C_ C_ 0.797819 0.231115 0.76624 -0.08735
C_ C_ 0.805649 0.243937 0.795296 -0.08735
C_ C_ 0.830686 0.289608 0.802311 0.18498
C_ C_ 0.804097 0.318775 0.849133 0.44287
C_ C_ 0.88835 0.290237 0.84232 0.44287
C_ C_ 0.901306 0.300238 0.871463 -0.05681
C_ C_ 0.950732 0.290366 0.88248 -0.08735
C_ C_ 0.956276 0.296899 0.9118 -0.08735
C_ C_ 0.913793 0.297057 0.930936 -0.05681
C_ C_ 0.865293 0.310037 0.920227 -0.05681
C_ C_ 0.859355 0.309826 0.890019 -0.05681
C_ C_ 0.812685 0.325539 0.878995 -0.05681
C_ C_ 0.772429 0.339779 0.897731 -0.08735
C_ C_ 0.776946 0.33591 0.927182 -0.08735
C_ C_ 0.825465 0.322814 0.938556 -0.05681
C_ C_ 0.833461 0.323846 0.968105 0.44287
C_ C_ 0.920572 0.300193 0.961439 0.44287
C_ C_ 0.882243 0.341631 0.510691 0.18498
C_ C_ 0.902874 0.389299 0.517165 -0.08735
C_ C_ 0.918557 0.398739 0.545162 -0.08735
C_ C_ 0.906974 0.366664 0.567093 -0.08735
C_ C_ 0.87808 0.323146 0.561945 0.18498
C_ C_ 0.869462 0.307259 0.533644 -0.05681
C_ C_ 0.843711 0.261416 0.529182 -0.08735
C_ C_ 0.824244 0.2335 0.551697 -0.08735
C_ C_ 0.83664 0.250539 0.579817 0.1947
N_ N_ 0.646859 0.154966 0.978161 -0.29468
N_ N_ 0.645216 0.204245 0.582294 -0.17154
N_ N_ 0.624927 0.172321 0.731474 -0.17154
N_ N_ 0.643938 0.198984 0.836076 -0.29468
N_ N_ 0.861681 0.335907 0.72845 -0.29468
N_ N_ 0.84144 0.300836 0.831529 -0.17154
N_ N_ 0.882012 0.315032 0.978423 -0.17154
N_ N_ 0.862268 0.295205 0.584766 -0.29468
O_ O_ 0.716992 0.171022 0.925774 -0.58347
O_ O_ 0.714443 0.192065 0.880511 -0.58347
O_ O_ 0.641871 0.24232 0.933659 -0.58347
O_ O_ 0.631115 0.250944 0.887004 -0.58347
O_ O_ 0.642935 0.091954 0.921781 -0.58347
O_ O_ 0.658073 0.0990928 0.875681 -0.58347
O_ O_ 0.570045 0.158804 0.929754 -0.58347
O_ O_ 0.562501 0.164435 0.882892 -0.58347
O_ O_ 0.558743 0.21528 0.580696 -0.46727
O_ O_ 0.729379 0.182175 0.5837 -0.46727
O_ O_ 0.537344 0.176655 0.727349 -0.46727
O_ O_ 0.712476 0.153587 0.732597 -0.46727
O_ O_ 0.792228 0.319598 0.679175 -0.58347
O_ O_ 0.795113 0.296452 0.634246 -0.58347
O_ O_ 0.866635 0.24708 0.683031 -0.58347
O_ O_ 0.886677 0.235658 0.638147 -0.58347
O_ O_ 0.862684 0.395861 0.67197 -0.58347
O_ O_ 0.850454 0.386356 0.625991 -0.58347
O_ O_ 0.940329 0.32406 0.679577 -0.58347
O_ O_ 0.947812 0.320926 0.633065 -0.58347
O_ O_ 0.924311 0.273263 0.825268 -0.46727
O_ O_ 0.757457 0.324974 0.839116 -0.46727
O_ O_ 0.966107 0.293116 0.972814 -0.46727
O_ O_ 0.798202 0.342581 0.985492 -0.46727
Zn Zn 0.620648 0.688346 0.380961 0.90689
Zn Zn 0.631453 0.678803 0.428447 0.90689
Zn Zn 0.869244 0.81326 0.132223 0.90689
Zn Zn 0.859473 0.822419 0.180523 0.90689
H_ H_ 0.7974 0.691183 0.44543 0.11455
H_ H_ 0.872817 0.654601 0.349891 0.11455
H_ H_ 0.777775 0.673555 0.352714 0.11455
H_ H_ 0.881287 0.70104 0.46502 0.11455
H_ H_ 0.974006 0.687586 0.45696 0.11455
H_ H_ 0.952137 0.666808 0.366904 0.11455
H_ H_ 0.632059 0.507881 0.447342 0.11455
H_ H_ 0.581801 0.937471 0.348684 0.11455
H_ H_ 0.642674 0.529593 0.354495 0.11455
H_ H_ 0.659999 0.930921 0.459377 0.11455
H_ H_ 0.641862 0.83777 0.458742 0.11455
H_ H_ 0.593526 0.852201 0.36862 0.11455
H_ H_ 0.578414 0.608826 0.463173 0.11455
H_ H_ 0.568818 0.575659 0.0169201 0.11455
H_ H_ 0.615473 0.620492 0.057248 0.11455
H_ H_ 0.688098 0.743324 0.469897 0.11455
H_ H_ 0.716553 0.800692 0.00892538 0.11455
H_ H_ 0.694062 0.782935 0.060449 0.11455
H_ H_ 0.513398 0.712439 0.123231 0.11455
H_ H_ 0.496817 0.697903 0.171443 0.11455
H_ H_ 0.765682 0.688809 0.141225 0.11455
H_ H_ 0.750337 0.670179 0.194148 0.11455
H_ H_ 0.558048 0.583096 0.250083 0.11455
H_ H_ 0.538151 0.56611 0.299251 0.11455
H_ H_ 0.56848 0.616025 0.339141 0.11455
H_ H_ 0.658848 0.73923 0.254755 0.11455
H_ H_ 0.696536 0.785966 0.295457 0.11455
H_ H_ 0.685729 0.754379 0.344653 0.11455
H_ H_ 0.695554 0.811118 0.197115 0.11455
H_ H_ 0.62275 0.833392 0.100049 0.11455
H_ H_ 0.711219 0.818097 0.104414 0.11455
H_ H_ 0.610387 0.826785 0.216974 0.11455
H_ H_ 0.5177 0.816338 0.210693 0.11455
H_ H_ 0.537592 0.817578 0.120229 0.11455
H_ H_ 0.850119 0.988754 0.191836 0.11455
H_ H_ 0.840987 0.562967 0.102728 0.11455
H_ H_ 0.878339 0.97317 0.101963 0.11455
H_ H_ 0.898087 0.570727 0.216185 0.11455
H_ H_ 0.912171 0.663233 0.20734 0.11455
H_ H_ 0.838783 0.648946 0.125805 0.11455
H_ H_ 0.901733 0.903801 0.215128 0.11455
H_ H_ 0.930634 0.926141 0.262785 0.11455
H_ H_ 0.898171 0.882132 0.305497 0.11455
H_ H_ 0.807031 0.756378 0.227927 0.11455
H_ H_ 0.801105 0.693292 0.263602 0.11455
H_ H_ 0.83616 0.713208 0.311758 0.11455
H_ H_ 0.989832 0.797143 0.371028 0.11455
H_ H_ 0.00270389 0.79561 0.424316 0.11455
H_ H_ 0.737694 0.82919 0.388369 0.11455
H_ H_ 0.753634 0.842497 0.439398 0.11455
H_ H_ 0.934624 0.912426 0.501216 0.11455
H_ H_ 0.978834 0.923748 0.0539314 0.11455
H_ H_ 0.93132 0.87581 0.0945813 0.11455
H_ H_ 0.857758 0.750152 0.00895746 0.11455
H_ H_ 0.813488 0.710763 0.0458424 0.11455
H_ H_ 0.830676 0.732616 0.0965481 0.11455
C_ C_ 0.72608 0.683181 0.404987 0.68181
C_ C_ 0.781193 0.681043 0.400096 -0.05681
C_ C_ 0.813862 0.688359 0.42325 -0.08735
C_ C_ 0.865763 0.685596 0.420134 -0.05681
C_ C_ 0.887004 0.679998 0.392489 -0.05681
C_ C_ 0.854455 0.668698 0.368998 -0.08735
C_ C_ 0.801616 0.670951 0.372504 -0.08735
C_ C_ 0.896401 0.690537 0.443648 -0.08735
C_ C_ 0.950375 0.683415 0.439375 -0.08735
C_ C_ 0.972627 0.681565 0.411374 -0.05681
C_ C_ 0.939608 0.67865 0.388305 -0.08735
C_ C_ 0.620676 0.782126 0.409767 0.68181
C_ C_ 0.62549 0.582537 0.40372 0.68181
C_ C_ 0.631555 0.526308 0.400267 -0.05681
C_ C_ 0.63356 0.997415 0.41894 -0.08735
C_ C_ 0.627284 0.942816 0.417368 -0.05681
C_ C_ 0.612379 0.920237 0.391848 -0.05681
C_ C_ 0.595349 0.952718 0.369351 -0.08735
C_ C_ 0.600428 1.00460128 0.371454 -0.08735
C_ C_ 0.640148 0.912864 0.44128 -0.08735
C_ C_ 0.631878 0.861533 0.439708 -0.08735
C_ C_ 0.621993 0.836327 0.411953 -0.05681
C_ C_ 0.60774 0.86889 0.389179 -0.08735
C_ C_ 0.529427 0.681466 0.408268 0.68181
C_ C_ 0.593496 0.629274 0.48012 0.1947
C_ C_ 0.595125 0.605711 0.0121361 -0.08735
C_ C_ 0.619322 0.632102 0.0352336 -0.08735
C_ C_ 0.642004 0.678555 0.0285435 -0.05681
C_ C_ 0.650452 0.691385 0.999004 0.18498
C_ C_ 0.680019 0.73424 0.492063 -0.08735
C_ C_ 0.694961 0.767579 0.0135197 -0.08735
C_ C_ 0.68231 0.757058 0.0430657 -0.08735
C_ C_ 0.658211 0.710293 0.0508272 0.18498
C_ C_ 0.690818 0.691642 0.0992814 0.44287
C_ C_ 0.600827 0.702363 0.0936014 0.44287
C_ C_ 0.593888 0.694139 0.123263 -0.05681
C_ C_ 0.544909 0.698426 0.136164 -0.08735
C_ C_ 0.536896 0.69353 0.165 -0.08735
C_ C_ 0.577326 0.683941 0.183718 -0.05681
C_ C_ 0.627977 0.679353 0.172293 -0.05681
C_ C_ 0.636084 0.686256 0.141419 -0.05681
C_ C_ 0.684801 0.68428 0.130416 -0.05681
C_ C_ 0.727943 0.678545 0.148876 -0.08735
C_ C_ 0.719411 0.670254 0.178693 -0.08735
C_ C_ 0.668612 0.664549 0.189751 -0.05681
C_ C_ 0.659273 0.654773 0.218554 0.44287
C_ C_ 0.57418 0.681382 0.213907 0.44287
C_ C_ 0.604622 0.650585 0.260137 0.18498
C_ C_ 0.575494 0.607974 0.266463 -0.08735
C_ C_ 0.562381 0.597644 0.294932 -0.08735
C_ C_ 0.578527 0.628221 0.317321 -0.08735
C_ C_ 0.61162 0.668987 0.312337 0.18498
C_ C_ 0.62311 0.682251 0.282766 -0.05681
C_ C_ 0.654077 0.724386 0.276435 -0.08735
C_ C_ 0.671764 0.754008 0.299394 -0.08735
C_ C_ 0.66304 0.737811 0.327515 0.1947
C_ C_ 0.766007 0.812421 0.154584 0.68181
C_ C_ 0.710949 0.81223 0.150447 -0.05681
C_ C_ 0.679331 0.816833 0.175223 -0.08735
C_ C_ 0.627466 0.819466 0.172112 -0.05681
C_ C_ 0.605661 0.823601 0.144116 -0.05681
C_ C_ 0.636877 0.823844 0.120777 -0.08735
C_ C_ 0.689913 0.816885 0.122987 -0.08735
C_ C_ 0.595414 0.817656 0.195368 -0.08735
C_ C_ 0.54131 0.813706 0.192545 -0.08735
C_ C_ 0.520516 0.81799 0.163832 -0.05681
C_ C_ 0.553185 0.823322 0.140401 -0.08735
C_ C_ 0.872515 0.720365 0.164284 0.68181
C_ C_ 0.853721 0.915971 0.148788 0.68181
C_ C_ 0.865637 0.972308 0.147068 -0.05681
C_ C_ 0.874994 0.503325 0.17528 -0.08735
C_ C_ 0.874623 0.556533 0.172498 -0.05681
C_ C_ 0.856711 0.57907 0.146951 -0.05681
C_ C_ 0.843292 0.546495 0.123186 -0.08735
C_ C_ 0.881559 0.993468 0.121172 -0.08735
C_ C_ 0.888811 0.587898 0.19527 -0.08735
C_ C_ 0.892077 0.641384 0.191294 -0.08735
C_ C_ 0.871845 0.662944 0.167484 -0.05681
C_ C_ 0.851389 0.631643 0.146065 -0.08735
C_ C_ 0.964308 0.828683 0.158981 0.68181
C_ C_ 0.889003 0.881825 0.233375 0.1947
C_ C_ 0.90126 0.896961 0.26036 -0.08735
C_ C_ 0.886263 0.869351 0.283962 -0.08735
C_ C_ 0.858344 0.824422 0.279902 -0.05681
C_ C_ 0.847876 0.809626 0.251711 0.18498
C_ C_ 0.824666 0.761799 0.247157 -0.08735
C_ C_ 0.821803 0.727221 0.267915 -0.08735
C_ C_ 0.831526 0.741318 0.296194 -0.08735
C_ C_ 0.846486 0.790668 0.302257 0.18498
C_ C_ 0.813721 0.804989 0.350029 0.44287
C_ C_ 0.90227 0.806765 0.343672 0.44287
C_ C_ 0.91077 0.814355 0.373032 -0.05681
C_ C_ 0.957408 0.803891 0.384772 -0.08735
C_ C_ 0.966133 0.805989 0.415209 -0.08735
C_ C_ 0.923484 0.819162 0.432883 -0.05681
C_ C_ 0.875705 0.823607 0.420579 -0.05681
C_ C_ 0.868399 0.81831 0.390995 -0.05681
C_ C_ 0.819877 0.817094 0.379165 -0.05681
C_ C_ 0.777448 0.826969 0.396752 -0.08735
C_ C_ 0.784646 0.83365 0.42595 -0.08735
C_ C_ 0.832852 0.830819 0.437984 -0.05681
C_ C_ 0.839084 0.835775 0.46779 0.44287
C_ C_ 0.929079 0.823509 0.462855 0.44287
C_ C_ 0.906848 0.844099 0.0124563 0.18498
C_ C_ 0.940005 0.884782 0.0202523 -0.08735
C_ C_ 0.953092 0.892329 0.0489632 -0.08735
C_ C_ 0.924175 0.868269 0.071388 -0.08735
C_ C_ 0.892491 0.828601 0.0643607 0.18498
C_ C_ 0.885935 0.81407 0.0342923 -0.05681
C_ C_ 0.854714 0.771512 0.0284558 -0.08735
C_ C_ 0.83679 0.742491 0.0509522 -0.08735
C_ C_ 0.843245 0.758241 0.0801744 0.1947
N_ N_ 0.625716 0.669232 0.476436 -0.29468
N_ N_ 0.649241 0.698592 0.0815693 -0.17154
N_ N_ 0.614435 0.662416 0.230561 -0.17154
N_ N_ 0.628021 0.69999 0.334167 -0.29468
N_ N_ 0.862036 0.837986 0.229507 -0.29468
N_ N_ 0.855181 0.80266 0.332899 -0.17154
N_ N_ 0.886613 0.831755 0.480231 -0.17154
N_ N_ 0.86924 0.802068 0.0857667 -0.29468
O_ O_ 0.708033 0.681879 0.43055 -0.58347
O_ O_ 0.697313 0.685177 0.383387 -0.58347
O_ O_ 0.623925 0.755505 0.432081 -0.58347
O_ O_ 0.630817 0.763683 0.386009 -0.58347
O_ O_ 0.64123 0.604377 0.42583 -0.58347
O_ O_ 0.617394 0.608505 0.381445 -0.58347
O_ O_ 0.559841 0.668052 0.428746 -0.58347
O_ O_ 0.546871 0.697573 0.384529 -0.58347
O_ O_ 0.562223 0.712851 0.0762195 -0.46727
O_ O_ 0.738088 0.699528 0.0883693 -0.46727
O_ O_ 0.529642 0.690195 0.227436 -0.46727
O_ O_ 0.693266 0.634703 0.23559 -0.46727
O_ O_ 0.78482 0.811175 0.179514 -0.58347
O_ O_ 0.79568 0.813258 0.133497 -0.58347
O_ O_ 0.874228 0.746588 0.186241 -0.58347
O_ O_ 0.872366 0.740003 0.13951 -0.58347
O_ O_ 0.844895 0.895624 0.173158 -0.58347
O_ O_ 0.869856 0.886594 0.128835 -0.58347
O_ O_ 0.935306 0.835695 0.179377 -0.58347
O_ O_ 0.943962 0.81329 0.134948 -0.58347
O_ O_ 0.938862 0.804941 0.323936 -0.46727
O_ O_ 0.767306 0.808008 0.338127 -0.46727
O_ O_ 0.970276 0.806818 0.474902 -0.46727
O_ O_ 0.798204 0.843124 0.48292 -0.46727
Zn Zn 0.629704 0.677129 0.88286 0.90689
Zn Zn 0.643556 0.670755 0.929748 0.90689
Zn Zn 0.873329 0.812967 0.633011 0.90689
Zn Zn 0.869047 0.823266 0.68246 0.90689
H_ H_ 0.812141 0.687723 0.947994 0.11455
H_ H_ 0.873789 0.673792 0.847465 0.11455
H_ H_ 0.784376 0.668904 0.85699 0.11455
H_ H_ 0.90101 0.687141 0.965562 0.11455
H_ H_ 0.98958 0.684861 0.956027 0.11455
H_ H_ 0.962402 0.665957 0.866142 0.11455
H_ H_ 0.66484 0.502644 0.94368 0.11455
H_ H_ 0.650048 0.924906 0.845546 0.11455
H_ H_ 0.629126 0.523246 0.855628 0.11455
H_ H_ 0.634422 0.921574 0.963942 0.11455
H_ H_ 0.63102 0.830381 0.960064 0.11455
H_ H_ 0.637074 0.841702 0.868088 0.11455
H_ H_ 0.586224 0.596339 0.967503 0.11455
H_ H_ 0.56014 0.579056 0.511218 0.11455
H_ H_ 0.604029 0.613567 0.550541 0.11455
H_ H_ 0.694105 0.739663 0.970468 0.11455
H_ H_ 0.738302 0.783003 0.51046 0.11455
H_ H_ 0.712002 0.767015 0.559541 0.11455
H_ H_ 0.514448 0.715224 0.619986 0.11455
H_ H_ 0.499741 0.697061 0.668984 0.11455
H_ H_ 0.762022 0.671566 0.634201 0.11455
H_ H_ 0.749649 0.665904 0.687455 0.11455
H_ H_ 0.569024 0.592555 0.741778 0.11455
H_ H_ 0.553941 0.557584 0.78924 0.11455
H_ H_ 0.581615 0.604478 0.833461 0.11455
H_ H_ 0.661635 0.744807 0.759101 0.11455
H_ H_ 0.693401 0.790949 0.803211 0.11455
H_ H_ 0.674162 0.752025 0.847145 0.11455
H_ H_ 0.693076 0.829745 0.700136 0.11455
H_ H_ 0.632082 0.832629 0.599654 0.11455
H_ H_ 0.722144 0.836394 0.609859 0.11455
H_ H_ 0.607712 0.823421 0.718477 0.11455
H_ H_ 0.514508 0.826241 0.708056 0.11455
H_ H_ 0.54356 0.831866 0.617577 0.11455
H_ H_ 0.858561 0.984821 0.693234 0.11455
H_ H_ 0.857933 0.568529 0.596618 0.11455
H_ H_ 0.876317 0.970813 0.600885 0.11455
H_ H_ 0.891921 0.570202 0.712532 0.11455
H_ H_ 0.894161 0.659659 0.7117 0.11455
H_ H_ 0.864544 0.652742 0.619556 0.11455
H_ H_ 0.920138 0.898221 0.717828 0.11455
H_ H_ 0.942397 0.922864 0.766788 0.11455
H_ H_ 0.901184 0.87794 0.8105 0.11455
H_ H_ 0.81077 0.759582 0.725478 0.11455
H_ H_ 0.772351 0.708672 0.762873 0.11455
H_ H_ 0.793911 0.727398 0.814971 0.11455
H_ H_ 0.994772 0.785292 0.87531 0.11455
H_ H_ 1.00313335 0.791615 0.927226 0.11455
H_ H_ 0.743633 0.835196 0.891841 0.11455
H_ H_ 0.762857 0.86418 0.942054 0.11455
H_ H_ 0.961334 0.902445 1.00347286 0.11455
H_ H_ 0.956845 0.934583 0.548646 0.11455
H_ H_ 0.924913 0.878345 0.590583 0.11455
H_ H_ 0.832607 0.763614 0.507369 0.11455
H_ H_ 0.801742 0.714547 0.546523 0.11455
H_ H_ 0.818041 0.738278 0.59641 0.11455
C_ C_ 0.733576 0.684191 0.907779 0.68181
C_ C_ 0.788779 0.685453 0.903171 -0.05681
C_ C_ 0.824648 0.686079 0.925838 -0.08735
C_ C_ 0.875613 0.679682 0.92085 -0.05681
C_ C_ 0.8958 0.676959 0.892192 -0.05681
C_ C_ 0.86067 0.675342 0.869741 -0.08735
C_ C_ 0.8081 0.678719 0.875174 -0.08735
C_ C_ 0.911954 0.680244 0.944049 -0.08735
C_ C_ 0.963009 0.683899 0.937757 -0.08735
C_ C_ 0.981915 0.677348 0.910437 -0.05681
C_ C_ 0.948528 0.673462 0.887777 -0.08735
C_ C_ 0.629205 0.771541 0.910085 0.68181
C_ C_ 0.644059 0.576487 0.90282 0.68181
C_ C_ 0.638861 0.52022 0.900733 -0.05681
C_ C_ 0.651653 -0.015496999999999983 0.921648 -0.08735
C_ C_ 0.636621 0.934394 0.919855 -0.05681
C_ C_ 0.639951 0.909933 0.893298 -0.05681
C_ C_ 0.650432 0.939571 0.86828 -0.08735
C_ C_ 0.654104 -0.007963000000000053 0.869934 -0.08735
C_ C_ 0.628185 0.904415 0.944037 -0.08735
C_ C_ 0.627392 0.850941 0.940532 -0.08735
C_ C_ 0.6268 0.828467 0.913707 -0.05681
C_ C_ 0.632404 0.859332 0.889248 -0.08735
C_ C_ 0.534728 0.668096 0.907315 0.68181
C_ C_ 0.603005 0.620494 0.98423 0.1947
C_ C_ 0.588411 0.607583 0.506558 -0.08735
C_ C_ 0.608266 0.632898 0.530351 -0.08735
C_ C_ 0.639726 0.677139 0.525863 -0.05681
C_ C_ 0.650824 0.691442 0.498244 0.18498
C_ C_ 0.68156 0.7325 0.992652 -0.08735
C_ C_ 0.706182 0.758993 0.514239 -0.08735
C_ C_ 0.690826 0.749575 0.542633 -0.08735
C_ C_ 0.65857 0.706701 0.54861 0.18498
C_ C_ 0.689747 0.682444 0.596261 0.44287
C_ C_ 0.601679 0.698321 0.590825 0.44287
C_ C_ 0.595572 0.698573 0.621514 -0.05681
C_ C_ 0.546817 0.704662 0.633366 -0.08735
C_ C_ 0.539604 0.697844 0.662689 -0.08735
C_ C_ 0.581437 0.691041 0.680807 -0.05681
C_ C_ 0.63068 0.693379 0.668574 -0.05681
C_ C_ 0.637918 0.693704 0.638725 -0.05681
C_ C_ 0.684791 0.68475 0.626051 -0.05681
C_ C_ 0.726158 0.678835 0.643675 -0.08735
C_ C_ 0.717817 0.67573 0.674113 -0.08735
C_ C_ 0.671181 0.68367 0.686311 -0.05681
C_ C_ 0.663623 0.675566 0.715974 0.44287
C_ C_ 0.57473 0.684465 0.710332 0.44287
C_ C_ 0.607337 0.660942 0.75634 0.18498
C_ C_ 0.581082 0.614135 0.760694 -0.08735
C_ C_ 0.571517 0.595011 0.787759 -0.08735
C_ C_ 0.585985 0.622248 0.811846 -0.08735
C_ C_ 0.613677 0.667039 0.808242 0.18498
C_ C_ 0.627109 0.685295 0.780806 -0.05681
C_ C_ 0.655842 0.729596 0.779813 -0.08735
C_ C_ 0.673168 0.75449 0.803751 -0.08735
C_ C_ 0.659818 0.736148 0.830238 0.1947
C_ C_ 0.772209 0.822439 0.659039 0.68181
C_ C_ 0.716669 0.831803 0.655315 -0.05681
C_ C_ 0.680749 0.829003 0.677746 -0.08735
C_ C_ 0.627432 0.833917 0.672724 -0.05681
C_ C_ 0.610389 0.834492 0.644579 -0.05681
C_ C_ 0.644743 0.833074 0.622385 -0.08735
C_ C_ 0.696905 0.831989 0.62747 -0.08735
C_ C_ 0.593063 0.827762 0.696059 -0.08735
C_ C_ 0.541407 0.827863 0.690556 -0.08735
C_ C_ 0.52336 0.834446 0.662479 -0.05681
C_ C_ 0.558087 0.83508 0.639464 -0.08735
C_ C_ 0.875399 0.719224 0.66364 0.68181
C_ C_ 0.860745 0.914764 0.652964 0.68181
C_ C_ 0.863009 0.970483 0.648033 -0.05681
C_ C_ 0.867423 0.503314 0.670556 -0.08735
C_ C_ 0.877738 0.555132 0.667854 -0.05681
C_ C_ 0.866151 0.57845 0.641206 -0.05681
C_ C_ 0.854945 0.549315 0.617112 -0.08735
C_ C_ 0.867991 0.993551 0.62074 -0.08735
C_ C_ 0.881322 0.585607 0.692854 -0.08735
C_ C_ 0.885732 0.638358 0.691826 -0.08735
C_ C_ 0.876458 0.66206 0.664998 -0.05681
C_ C_ 0.866861 0.632797 0.640266 -0.08735
C_ C_ 0.967925 0.82033 0.656453 0.68181
C_ C_ 0.909412 0.873014 0.736807 0.1947
C_ C_ 0.92064 0.886922 0.764316 -0.08735
C_ C_ 0.894947 0.863728 0.787408 -0.08735
C_ C_ 0.864597 0.819521 0.782329 -0.05681
C_ C_ 0.853328 0.807944 0.752938 0.18498
C_ C_ 0.821692 0.76684 0.746958 -0.08735
C_ C_ 0.799884 0.74014 0.769152 -0.08735
C_ C_ 0.810027 0.751812 0.797832 -0.08735
C_ C_ 0.843925 0.792256 0.805096 0.18498
C_ C_ 0.816199 0.811634 0.851827 0.44287
C_ C_ 0.903663 0.78996 0.846132 0.44287
C_ C_ 0.913672 0.80238 0.874988 -0.05681
C_ C_ 0.960797 0.795735 0.887737 -0.08735
C_ C_ 0.967955 0.80311 0.916898 -0.08735
C_ C_ 0.928151 0.816748 0.934328 -0.05681
C_ C_ 0.88231 0.830964 0.921857 -0.05681
C_ C_ 0.873406 0.818088 0.893325 -0.05681
C_ C_ 0.824164 0.822144 0.881024 -0.05681
C_ C_ 0.783348 0.833384 0.900286 -0.08735
C_ C_ 0.793397 0.851622 0.928666 -0.08735
C_ C_ 0.842854 0.844496 0.939641 -0.05681
C_ C_ 0.852103 0.849349 0.970263 0.44287
C_ C_ 0.93586 0.818356 0.964485 0.44287
C_ C_ 0.894981 0.844906 0.509839 0.18498
C_ C_ 0.923753 0.887073 0.517225 -0.08735
C_ C_ 0.935449 0.900035 0.546287 -0.08735
C_ C_ 0.915235 0.870983 0.568232 -0.08735
C_ C_ 0.890329 0.825992 0.561613 0.18498
C_ C_ 0.8749 0.814873 0.532908 -0.05681
C_ C_ 0.843833 0.773292 0.528875 -0.08735
C_ C_ 0.82582 0.744004 0.55098 -0.08735
C_ C_ 0.835291 0.759384 0.578301 0.1947
N_ N_ 0.633016 0.660601 0.977493 -0.29468
N_ N_ 0.6499 0.695603 0.57921 -0.17154
N_ N_ 0.615544 0.674606 0.727317 -0.17154
N_ N_ 0.629334 0.693735 0.832925 -0.29468
N_ N_ 0.88017 0.831406 0.730722 -0.29468
N_ N_ 0.85721 0.800241 0.834389 -0.17154
N_ N_ 0.896074 0.834619 0.982288 -0.17154
N_ N_ 0.86666 0.800975 0.583376 -0.29468
O_ O_ 0.717108 0.666405 0.930569 -0.58347
O_ O_ 0.705497 0.687055 0.886306 -0.58347
O_ O_ 0.640684 0.744856 0.931271 -0.58347
O_ O_ 0.619072 0.749799 0.886867 -0.58347
O_ O_ 0.642738 0.59815 0.927771 -0.58347
O_ O_ 0.648127 0.603121 0.880768 -0.58347
O_ O_ 0.565526 0.674628 0.927175 -0.58347
O_ O_ 0.552015 0.662136 0.881434 -0.58347
O_ O_ 0.562656 0.704286 0.574443 -0.46727
O_ O_ 0.733769 0.670686 0.584112 -0.46727
O_ O_ 0.530373 0.69093 0.721715 -0.46727
O_ O_ 0.700985 0.662322 0.731294 -0.46727
O_ O_ 0.792476 0.828928 0.682544 -0.58347
O_ O_ 0.796884 0.805809 0.638547 -0.58347
O_ O_ 0.868437 0.747186 0.685453 -0.58347
O_ O_ 0.881322 0.739819 0.638503 -0.58347
O_ O_ 0.867406 0.896349 0.677739 -0.58347
O_ O_ 0.862534 0.886499 0.631957 -0.58347
O_ O_ 0.941196 0.821347 0.678289 -0.58347
O_ O_ 0.946077 0.818258 0.631779 -0.58347
O_ O_ 0.937098 0.76644 0.829943 -0.46727
O_ O_ 0.770684 0.819956 0.840772 -0.46727
O_ O_ 0.981145 0.81169 0.976092 -0.46727
O_ O_ 0.814252 0.86237 0.987767 -0.46727
