_cell_length_a 26.376
_cell_length_b 26.400000238300095
_cell_length_c 46.67800035477134
_cell_angle_alpha 90.00700052986613
_cell_angle_beta 89.99899961309502
_cell_angle_gamma 90.45000003183146
_symmetry_space_group_name_H-M         'P 1'
_symmetry_Int_Tables_number            1
loop_
_symmetry_equiv_pos_as_xyz
   'x, y, z'
                         
loop_
_atom_site_label
_atom_site_type_symbol
_atom_site_fract_x 
_atom_site_fract_y
_atom_site_fract_z
_atom_site_charge
Zn Zn 0.122393 0.182338 0.379769 0.90689
Zn Zn 0.139747 0.176457 0.426164 0.90689
Zn Zn 0.37259 0.317855 0.133011 0.90689
Zn Zn 0.366559 0.322843 0.180675 0.90689
H_ H_ 0.302269 0.217656 0.43722 0.11455
H_ H_ 0.370406 0.17587 0.340285 0.11455
H_ H_ 0.279167 0.167192 0.349983 0.11455
H_ H_ 0.389029 0.213272 0.455995 0.11455
H_ H_ 0.479363 0.216069 0.445159 0.11455
H_ H_ 0.460815 0.181398 0.359621 0.11455
H_ H_ 0.17127 0.00466058 0.430298 0.11455
H_ H_ 0.118909 0.433604 0.350998 0.11455
H_ H_ 0.0688971 0.0243115 0.357403 0.11455
H_ H_ 0.134039 0.425552 0.468518 0.11455
H_ H_ 0.136942 0.335389 0.461247 0.11455
H_ H_ 0.131085 0.350565 0.371182 0.11455
H_ H_ 0.0854465 0.106543 0.45917 0.11455
H_ H_ 0.0888263 0.0651125 0.0146255 0.11455
H_ H_ 0.116063 0.123819 0.0545695 0.11455
H_ H_ 0.198917 0.237971 0.472866 0.11455
H_ H_ 0.222373 0.303365 0.0103575 0.11455
H_ H_ 0.186022 0.291159 0.0595661 0.11455
H_ H_ 0.0193264 0.232529 0.12321 0.11455
H_ H_ 0.00639534 0.216925 0.172755 0.11455
H_ H_ 0.265076 0.183084 0.136514 0.11455
H_ H_ 0.253682 0.147551 0.185329 0.11455
H_ H_ 0.0814084 0.0865144 0.243049 0.11455
H_ H_ 0.0771716 0.0504555 0.292969 0.11455
H_ H_ 0.0802495 0.112656 0.333663 0.11455
H_ H_ 0.171316 0.241831 0.258226 0.11455
H_ H_ 0.184177 0.300425 0.301895 0.11455
H_ H_ 0.172257 0.257292 0.347913 0.11455
H_ H_ 0.194909 0.309484 0.195346 0.11455
H_ H_ 0.125605 0.345612 0.0978725 0.11455
H_ H_ 0.219584 0.339457 0.105855 0.11455
H_ H_ 0.113457 0.310601 0.214798 0.11455
H_ H_ 0.0227654 0.31725 0.209265 0.11455
H_ H_ 0.0414219 0.337518 0.118718 0.11455
H_ H_ 0.350385 0.489237 0.19039 0.11455
H_ H_ 0.351729 0.0743769 0.102932 0.11455
H_ H_ 0.379168 0.480695 0.0984066 0.11455
H_ H_ 0.383324 0.0690579 0.21787 0.11455
H_ H_ 0.374416 0.162044 0.217001 0.11455
H_ H_ 0.363363 0.156218 0.1256 0.11455
H_ H_ 0.41194 0.407496 0.214555 0.11455
H_ H_ 0.429074 0.434872 0.262444 0.11455
H_ H_ 0.379591 0.398204 0.30375 0.11455
H_ H_ 0.30638 0.263828 0.227258 0.11455
H_ H_ 0.283387 0.208057 0.265827 0.11455
H_ H_ 0.28526 0.247734 0.315195 0.11455
H_ H_ 0.471713 0.305409 0.369828 0.11455
H_ H_ 0.489246 0.30993 0.420479 0.11455
H_ H_ 0.228863 0.348003 0.390355 0.11455
H_ H_ 0.240525 0.349128 0.444116 0.11455
H_ H_ 0.428429 0.419429 0.502547 0.11455
H_ H_ 0.457887 0.432041 0.0486162 0.11455
H_ H_ 0.432343 0.37942 0.0893204 0.11455
H_ H_ 0.326445 0.266988 0.00931188 0.11455
H_ H_ 0.286845 0.226606 0.0509964 0.11455
H_ H_ 0.318624 0.241902 0.100663 0.11455
C_ C_ 0.229147 0.190722 0.399531 0.68181
C_ C_ 0.284308 0.1913 0.39438 -0.05681
C_ C_ 0.317651 0.200641 0.417148 -0.08735
C_ C_ 0.370298 0.198298 0.411564 -0.05681
C_ C_ 0.391699 0.191241 0.383795 -0.05681
C_ C_ 0.355323 0.180474 0.362115 -0.08735
C_ C_ 0.304897 0.179342 0.366873 -0.08735
C_ C_ 0.40439 0.20711 0.434556 -0.08735
C_ C_ 0.457009 0.196686 0.431 -0.08735
C_ C_ 0.477022 0.187896 0.404093 -0.05681
C_ C_ 0.444433 0.18492 0.380359 -0.08735
C_ C_ 0.122352 0.279691 0.41331 0.68181
C_ C_ 0.135947 0.0797761 0.394874 0.68181
C_ C_ 0.125835 0.0253474 0.393377 -0.05681
C_ C_ 0.12574 0.497038 0.424497 -0.08735
C_ C_ 0.127605 0.443739 0.421742 -0.05681
C_ C_ 0.125468 0.42196 0.395245 -0.05681
C_ C_ 0.121657 0.452472 0.371216 -0.08735
C_ C_ 0.115698 0.505841 0.373726 -0.08735
C_ C_ 0.1325 0.411301 0.446926 -0.08735
C_ C_ 0.13234 0.358534 0.443742 -0.08735
C_ C_ 0.124513 0.334997 0.416441 -0.05681
C_ C_ 0.12364 0.36752 0.39269 -0.08735
C_ C_ 0.030584 0.176713 0.407523 0.68181
C_ C_ 0.106395 0.120481 0.477013 0.1947
C_ C_ 0.105137 0.103929 0.0103687 -0.08735
C_ C_ 0.117169 0.135933 0.0327762 -0.08735
C_ C_ 0.142884 0.18113 0.0270947 -0.05681
C_ C_ 0.156839 0.193228 0.997858 0.18498
C_ C_ 0.185192 0.230146 0.492506 -0.08735
C_ C_ 0.194431 0.274737 0.0152326 -0.08735
C_ C_ 0.175291 0.263102 0.0424033 -0.08735
C_ C_ 0.156345 0.215714 0.0496107 0.18498
C_ C_ 0.189274 0.18664 0.0961776 0.44287
C_ C_ 0.106662 0.221636 0.0929769 0.44287
C_ C_ 0.0978902 0.209524 0.12287 -0.05681
C_ C_ 0.0500358 0.218884 0.135668 -0.08735
C_ C_ 0.0430142 0.20631 0.163845 -0.08735
C_ C_ 0.0853742 0.194063 0.180841 -0.05681
C_ C_ 0.130746 0.181338 0.168445 -0.05681
C_ C_ 0.137857 0.191873 0.139037 -0.05681
C_ C_ 0.185941 0.184299 0.126739 -0.05681
C_ C_ 0.227587 0.177067 0.145185 -0.08735
C_ C_ 0.220813 0.161651 0.17355 -0.08735
C_ C_ 0.172376 0.16484 0.18518 -0.05681
C_ C_ 0.166065 0.163043 0.21562 0.44287
C_ C_ 0.0790895 0.184014 0.210157 0.44287
C_ C_ 0.10882 0.157945 0.257396 0.18498
C_ C_ 0.0871345 0.111118 0.262212 -0.08735
C_ C_ 0.0813274 0.0911192 0.289721 -0.08735
C_ C_ 0.0939817 0.120362 0.313251 -0.08735
C_ C_ 0.110012 0.172386 0.309945 0.18498
C_ C_ 0.122045 0.190711 0.281119 -0.05681
C_ C_ 0.151554 0.236016 0.277927 -0.08735
C_ C_ 0.164624 0.262835 0.302556 -0.08735
C_ C_ 0.151094 0.244007 0.33032 0.1947
C_ C_ 0.269131 0.316485 0.152667 0.68181
C_ C_ 0.211753 0.313289 0.149203 -0.05681
C_ C_ 0.181314 0.31201 0.172922 -0.08735
C_ C_ 0.129277 0.322626 0.169452 -0.05681
C_ C_ 0.108944 0.33666 0.143188 -0.05681
C_ C_ 0.140974 0.338456 0.119698 -0.08735
C_ C_ 0.192269 0.331386 0.123855 -0.08735
C_ C_ 0.0975868 0.318697 0.19381 -0.08735
C_ C_ 0.0453566 0.323355 0.19058 -0.08735
C_ C_ 0.0237022 0.330029 0.162904 -0.05681
C_ C_ 0.0572391 0.335477 0.139623 -0.08735
C_ C_ 0.375026 0.222673 0.167241 0.68181
C_ C_ 0.359013 0.420178 0.148441 0.68181
C_ C_ 0.361713 0.475515 0.144987 -0.05681
C_ C_ 0.382125 0.00350147 0.172097 -0.08735
C_ C_ 0.382794 0.0583564 0.172426 -0.05681
C_ C_ 0.377931 0.0825986 0.146705 -0.05681
C_ C_ 0.364184 0.0548695 0.121929 -0.08735
C_ C_ 0.376061 0.500054 0.119114 -0.08735
C_ C_ 0.383787 0.0869914 0.197447 -0.08735
C_ C_ 0.379169 0.139653 0.19677 -0.08735
C_ C_ 0.378798 0.166023 0.170068 -0.05681
C_ C_ 0.378684 0.13754 0.145339 -0.08735
C_ C_ 0.468754 0.33096 0.15747 0.68181
C_ C_ 0.394052 0.386262 0.231718 0.1947
C_ C_ 0.401026 0.405494 0.259086 -0.08735
C_ C_ 0.375645 0.384637 0.283008 -0.08735
C_ C_ 0.350844 0.339319 0.279107 -0.05681
C_ C_ 0.341853 0.321852 0.25081 0.18498
C_ C_ 0.311678 0.278077 0.247114 -0.08735
C_ C_ 0.3006 0.245903 0.269315 -0.08735
C_ C_ 0.302566 0.26784 0.297548 -0.08735
C_ C_ 0.327515 0.313003 0.302868 0.18498
C_ C_ 0.297911 0.333568 0.351472 0.44287
C_ C_ 0.385891 0.318217 0.343842 0.44287
C_ C_ 0.394235 0.323727 0.373087 -0.05681
C_ C_ 0.441108 0.316726 0.384328 -0.08735
C_ C_ 0.451249 0.320272 0.414381 -0.08735
C_ C_ 0.410775 0.327667 0.433828 -0.05681
C_ C_ 0.361994 0.333763 0.423187 -0.05681
C_ C_ 0.354008 0.333248 0.392496 -0.05681
C_ C_ 0.30657 0.335912 0.381188 -0.05681
C_ C_ 0.264552 0.337808 0.400156 -0.08735
C_ C_ 0.27138 0.34252 0.430159 -0.08735
C_ C_ 0.321942 0.339204 0.441888 -0.05681
C_ C_ 0.330901 0.341154 0.471192 0.44287
C_ C_ 0.419559 0.328676 0.464324 0.44287
C_ C_ 0.398006 0.341091 0.0116447 0.18498
C_ C_ 0.424005 0.386677 0.0167946 -0.08735
C_ C_ 0.434518 0.400681 0.0450072 -0.08735
C_ C_ 0.418319 0.371024 0.0685256 -0.08735
C_ C_ 0.387789 0.327931 0.0643243 0.18498
C_ C_ 0.37411 0.31663 0.0350419 -0.05681
C_ C_ 0.339631 0.276309 0.0311922 -0.08735
C_ C_ 0.319277 0.249147 0.0543608 -0.08735
C_ C_ 0.335017 0.262097 0.0820815 0.1947
N_ N_ 0.138058 0.161242 0.47323 -0.29468
N_ N_ 0.149986 0.205765 0.0801082 -0.17154
N_ N_ 0.119396 0.170648 0.227516 -0.17154
N_ N_ 0.124516 0.20003 0.333477 -0.29468
N_ N_ 0.361779 0.344768 0.227484 -0.29468
N_ N_ 0.337838 0.326366 0.332759 -0.17154
N_ N_ 0.379 0.337526 0.482534 -0.17154
N_ N_ 0.371754 0.299295 0.086396 -0.29468
O_ O_ 0.214787 0.1854 0.424891 -0.58347
O_ O_ 0.198408 0.189395 0.378723 -0.58347
O_ O_ 0.139256 0.253915 0.434453 -0.58347
O_ O_ 0.116634 0.257058 0.389364 -0.58347
O_ O_ 0.140534 0.0993077 0.419418 -0.58347
O_ O_ 0.130091 0.109343 0.37363 -0.58347
O_ O_ 0.0614798 0.181489 0.42796 -0.58347
O_ O_ 0.0486576 0.166687 0.383798 -0.58347
O_ O_ 0.0770934 0.254414 0.080607 -0.46727
O_ O_ 0.232214 0.174985 0.0827788 -0.46727
O_ O_ 0.0347495 0.190953 0.222065 -0.46727
O_ O_ 0.206279 0.157608 0.232436 -0.46727
O_ O_ 0.288125 0.311393 0.177256 -0.58347
O_ O_ 0.296287 0.313541 0.131632 -0.58347
O_ O_ 0.382957 0.248849 0.18845 -0.58347
O_ O_ 0.374251 0.244237 0.142221 -0.58347
O_ O_ 0.350958 0.399792 0.172413 -0.58347
O_ O_ 0.368415 0.391082 0.127325 -0.58347
O_ O_ 0.442597 0.337816 0.179516 -0.58347
O_ O_ 0.448191 0.32275 0.133752 -0.58347
O_ O_ 0.423347 0.303869 0.327415 -0.46727
O_ O_ 0.251106 0.338892 0.340467 -0.46727
O_ O_ 0.466436 0.326253 0.473746 -0.46727
O_ O_ 0.293023 0.348548 0.48896 -0.46727
Zn Zn 0.128935 0.182671 0.879772 0.90689
Zn Zn 0.143533 0.176226 0.929297 0.90689
Zn Zn 0.35944 0.314681 0.634805 0.90689
Zn Zn 0.350091 0.320634 0.68021 0.90689
H_ H_ 0.307803 0.174193 0.940993 0.11455
H_ H_ 0.382657 0.165375 0.842727 0.11455
H_ H_ 0.292211 0.165181 0.849337 0.11455
H_ H_ 0.393504 0.167357 0.961792 0.11455
H_ H_ 0.483903 0.152791 0.954437 0.11455
H_ H_ 0.466954 0.157732 0.86375 0.11455
H_ H_ 0.144846 0.0113893 0.940131 0.11455
H_ H_ 0.124039 0.438102 0.851081 0.11455
H_ H_ 0.139887 0.0219108 0.848393 0.11455
H_ H_ 0.15251 0.42412 0.968111 0.11455
H_ H_ 0.141673 0.331394 0.962098 0.11455
H_ H_ 0.111794 0.35151 0.874348 0.11455
H_ H_ 0.100272 0.0924825 0.966671 0.11455
H_ H_ 0.0666014 0.0738044 0.507587 0.11455
H_ H_ 0.120211 0.109433 0.549926 0.11455
H_ H_ 0.20662 0.244631 0.972883 0.11455
H_ H_ 0.217625 0.295933 0.511092 0.11455
H_ H_ 0.196382 0.270774 0.559157 0.11455
H_ H_ 0.00776337 0.183845 0.614019 0.11455
H_ H_ -0.009596999999999967 0.182004 0.666437 0.11455
H_ H_ 0.255788 0.182061 0.639495 0.11455
H_ H_ 0.240476 0.17935 0.688286 0.11455
H_ H_ 0.0614475 0.0897458 0.743913 0.11455
H_ H_ 0.051951 0.0589806 0.792483 0.11455
H_ H_ 0.062962 0.117303 0.834873 0.11455
H_ H_ 0.129439 0.2556 0.754906 0.11455
H_ H_ 0.16884 0.301327 0.793894 0.11455
H_ H_ 0.16567 0.266369 0.844226 0.11455
H_ H_ 0.183605 0.326091 0.697192 0.11455
H_ H_ 0.112604 0.314362 0.599115 0.11455
H_ H_ 0.203825 0.316802 0.60849 0.11455
H_ H_ 0.0963365 0.300956 0.714143 0.11455
H_ H_ 0.00603191 0.302314 0.708802 0.11455
H_ H_ 0.0244052 0.296249 0.618168 0.11455
H_ H_ 0.332163 0.486545 0.693163 0.11455
H_ H_ 0.308693 0.0617513 0.60277 0.11455
H_ H_ 0.330162 0.469214 0.60337 0.11455
H_ H_ 0.403589 0.0682175 0.708924 0.11455
H_ H_ 0.401046 0.157853 0.708135 0.11455
H_ H_ 0.33582 0.148999 0.621728 0.11455
H_ H_ 0.406822 0.396087 0.714124 0.11455
H_ H_ 0.435569 0.418296 0.763365 0.11455
H_ H_ 0.404939 0.368991 0.803813 0.11455
H_ H_ 0.292346 0.259723 0.726225 0.11455
H_ H_ 0.25762 0.210562 0.764057 0.11455
H_ H_ 0.285137 0.230261 0.817899 0.11455
H_ H_ 0.484632 0.282573 0.874601 0.11455
H_ H_ 0.49654 0.281361 0.92412 0.11455
H_ H_ 0.249106 0.365624 0.886242 0.11455
H_ H_ 0.26055 0.374042 0.93917 0.11455
H_ H_ 0.440353 0.407062 -0.000639939 0.11455
H_ H_ 0.439361 0.443138 0.556169 0.11455
H_ H_ 0.412644 0.38819 0.592997 0.11455
H_ H_ 0.332144 0.261945 0.508619 0.11455
H_ H_ 0.293309 0.219534 0.546753 0.11455
H_ H_ 0.301043 0.247196 0.597151 0.11455
C_ C_ 0.236393 0.17525 0.900115 0.68181
C_ C_ 0.292412 0.170045 0.896063 -0.05681
C_ C_ 0.324331 0.172342 0.919737 -0.08735
C_ C_ 0.377994 0.173575 0.916139 -0.05681
C_ C_ 0.398825 0.169193 0.888908 -0.05681
C_ C_ 0.366266 0.169349 0.864643 -0.08735
C_ C_ 0.312874 0.171554 0.86853 -0.08735
C_ C_ 0.409923 0.16754 0.939394 -0.08735
C_ C_ 0.461442 0.162383 0.935915 -0.08735
C_ C_ 0.482204 0.162527 0.908605 -0.05681
C_ C_ 0.449648 0.159886 0.885248 -0.08735
C_ C_ 0.132623 0.278187 0.91434 0.68181
C_ C_ 0.133987 0.082128 0.896379 0.68181
C_ C_ 0.136404 0.0249818 0.894151 -0.05681
C_ C_ 0.15727 0.493685 0.926008 -0.08735
C_ C_ 0.149694 0.439214 0.922565 -0.05681
C_ C_ 0.139325 0.419016 0.895743 -0.05681
C_ C_ 0.13137 0.453488 0.872278 -0.08735
C_ C_ 0.143502 0.50463 0.874703 -0.08735
C_ C_ 0.151704 0.406955 0.946413 -0.08735
C_ C_ 0.143987 0.354948 0.943199 -0.08735
C_ C_ 0.13622 0.332443 0.916634 -0.05681
C_ C_ 0.129208 0.365298 0.893334 -0.08735
C_ C_ 0.0382627 0.175624 0.911169 0.68181
C_ C_ 0.113713 0.119554 0.983462 0.1947
C_ C_ 0.0975628 0.101368 0.504527 -0.08735
C_ C_ 0.117559 0.126358 0.528902 -0.08735
C_ C_ 0.144863 0.170605 0.524424 -0.05681
C_ C_ 0.154271 0.188183 0.496254 0.18498
C_ C_ 0.186831 0.238419 0.993232 -0.08735
C_ C_ 0.196486 0.260728 0.514834 -0.08735
C_ C_ 0.18445 0.246524 0.54298 -0.08735
C_ C_ 0.157915 0.201508 0.548132 0.18498
C_ C_ 0.187476 0.180605 0.597281 0.44287
C_ C_ 0.100648 0.192905 0.588629 0.44287
C_ C_ 0.0900287 0.182627 0.617244 -0.05681
C_ C_ 0.0401295 0.182286 0.628058 -0.08735
C_ C_ 0.0295822 0.182262 0.657606 -0.08735
C_ C_ 0.070355 0.180164 0.677427 -0.05681
C_ C_ 0.119792 0.17338 0.666291 -0.05681
C_ C_ 0.129881 0.178575 0.636322 -0.05681
C_ C_ 0.178247 0.175755 0.625788 -0.05681
C_ C_ 0.21852 0.176687 0.645108 -0.08735
C_ C_ 0.210548 0.175188 0.674926 -0.08735
C_ C_ 0.160968 0.175519 0.685783 -0.05681
C_ C_ 0.150256 0.175198 0.716782 0.44287
C_ C_ 0.0630519 0.177438 0.707525 0.44287
C_ C_ 0.0913451 0.161882 0.756569 0.18498
C_ C_ 0.0665779 0.115848 0.761547 -0.08735
C_ C_ 0.0624224 0.0987595 0.790321 -0.08735
C_ C_ 0.0745946 0.128739 0.81444 -0.08735
C_ C_ 0.0997824 0.174885 0.810164 0.18498
C_ C_ 0.106215 0.192272 0.780389 -0.05681
C_ C_ 0.129124 0.238617 0.775599 -0.08735
C_ C_ 0.145717 0.267867 0.799472 -0.08735
C_ C_ 0.143391 0.248869 0.827251 0.1947
C_ C_ 0.255721 0.312357 0.656243 0.68181
C_ C_ 0.200296 0.316464 0.651983 -0.05681
C_ C_ 0.167124 0.319511 0.676063 -0.08735
C_ C_ 0.114273 0.313957 0.672275 -0.05681
C_ C_ 0.0940772 0.309916 0.644255 -0.05681
C_ C_ 0.126553 0.317057 0.620833 -0.08735
C_ C_ 0.178336 0.320644 0.625823 -0.08735
C_ C_ 0.0814792 0.311287 0.694513 -0.08735
C_ C_ 0.0307636 0.307222 0.690752 -0.08735
C_ C_ 0.010065 0.305847 0.663028 -0.05681
C_ C_ 0.0415689 0.304728 0.639619 -0.08735
C_ C_ 0.367255 0.221734 0.662138 0.68181
C_ C_ 0.338897 0.41337 0.651256 0.68181
C_ C_ 0.335441 0.469614 0.648001 -0.05681
C_ C_ 0.376908 0.00202553 0.668618 -0.08735
C_ C_ 0.371373 0.0571364 0.668361 -0.05681
C_ C_ 0.349683 0.0798638 0.643539 -0.05681
C_ C_ 0.332502 0.0484959 0.620987 -0.08735
C_ C_ 0.338951 0.491206 0.620894 -0.08735
C_ C_ 0.390861 0.0862496 0.690566 -0.08735
C_ C_ 0.389494 0.139842 0.68891 -0.08735
C_ C_ 0.368498 0.164163 0.664527 -0.05681
C_ C_ 0.346482 0.132975 0.642312 -0.08735
C_ C_ 0.452949 0.323253 0.65685 0.68181
C_ C_ 0.389639 0.377093 0.731989 0.1947
C_ C_ 0.410311 0.387052 0.759852 -0.08735
C_ C_ 0.390394 0.360326 0.783059 -0.08735
C_ C_ 0.355959 0.320607 0.779823 -0.05681
C_ C_ 0.336804 0.310097 0.750904 0.18498
C_ C_ 0.302174 0.270056 0.747652 -0.08735
C_ C_ 0.284157 0.240215 0.770245 -0.08735
C_ C_ 0.302149 0.249232 0.7988 -0.08735
C_ C_ 0.33501 0.291412 0.803663 0.18498
C_ C_ 0.309783 0.320909 0.850067 0.44287
C_ C_ 0.394061 0.292588 0.844607 0.44287
C_ C_ 0.402217 0.295687 0.873362 -0.05681
C_ C_ 0.451274 0.284415 0.885977 -0.08735
C_ C_ 0.457255 0.285243 0.915838 -0.08735
C_ C_ 0.419691 0.304758 0.933479 -0.05681
C_ C_ 0.370815 0.313124 0.921361 -0.05681
C_ C_ 0.361185 0.305893 0.892188 -0.05681
C_ C_ 0.314044 0.319241 0.880658 -0.05681
C_ C_ 0.277889 0.345935 0.896882 -0.08735
C_ C_ 0.286986 0.351732 0.926701 -0.08735
C_ C_ 0.333315 0.337924 0.938837 -0.05681
C_ C_ 0.34083 0.337425 0.969122 0.44287
C_ C_ 0.428168 0.315628 0.963445 0.44287
C_ C_ 0.387535 0.347872 0.513266 0.18498
C_ C_ 0.415271 0.393057 0.520854 -0.08735
C_ C_ 0.415818 0.408637 0.549721 -0.08735
C_ C_ 0.400821 0.376418 0.572438 -0.08735
C_ C_ 0.381654 0.328784 0.565832 0.18498
C_ C_ 0.372115 0.314364 0.535687 -0.05681
C_ C_ 0.342181 0.27295 0.530139 -0.08735
C_ C_ 0.321497 0.24664 0.551991 -0.08735
C_ C_ 0.328208 0.26145 0.580804 0.1947
N_ N_ 0.142965 0.16042 0.977049 -0.29468
N_ N_ 0.148895 0.18593 0.57821 -0.17154
N_ N_ 0.102044 0.175969 0.726589 -0.17154
N_ N_ 0.119005 0.204391 0.832199 -0.29468
N_ N_ 0.359279 0.333684 0.727788 -0.29468
N_ N_ 0.347729 0.303862 0.832532 -0.17154
N_ N_ 0.388049 0.3299 0.981313 -0.17154
N_ N_ 0.359287 0.30136 0.587806 -0.29468
O_ O_ 0.219302 0.178512 0.925632 -0.58347
O_ O_ 0.206701 0.183481 0.879003 -0.58347
O_ O_ 0.130123 0.251122 0.936081 -0.58347
O_ O_ 0.1347 0.259069 0.889278 -0.58347
O_ O_ 0.149546 0.101742 0.919787 -0.58347
O_ O_ 0.127885 0.108198 0.873151 -0.58347
O_ O_ 0.0688416 0.167297 0.931007 -0.58347
O_ O_ 0.053481 0.182629 0.885129 -0.58347
O_ O_ 0.0635352 0.206375 0.570607 -0.46727
O_ O_ 0.23532 0.18267 0.587867 -0.46727
O_ O_ 0.0164129 0.173031 0.716925 -0.46727
O_ O_ 0.187428 0.165827 0.735528 -0.46727
O_ O_ 0.274208 0.320303 0.681018 -0.58347
O_ O_ 0.285377 0.300657 0.635932 -0.58347
O_ O_ 0.357316 0.24887 0.68414 -0.58347
O_ O_ 0.365987 0.241621 0.638258 -0.58347
O_ O_ 0.343436 0.392838 0.675737 -0.58347
O_ O_ 0.346378 0.387513 0.628802 -0.58347
O_ O_ 0.425887 0.32177 0.679443 -0.58347
O_ O_ 0.432666 0.328422 0.633779 -0.58347
O_ O_ 0.430831 0.278829 0.827738 -0.46727
O_ O_ 0.268351 0.340672 0.838633 -0.46727
O_ O_ 0.474856 0.310727 0.974952 -0.46727
O_ O_ 0.302149 0.351533 0.985513 -0.46727
Zn Zn 0.113937 0.68529 0.382818 0.90689
Zn Zn 0.125275 0.679016 0.431118 0.90689
Zn Zn 0.372578 0.818805 0.130457 0.90689
Zn Zn 0.369405 0.823758 0.177775 0.90689
H_ H_ 0.294787 0.677699 0.450096 0.11455
H_ H_ 0.361401 0.695534 0.35171 0.11455
H_ H_ 0.271103 0.70217 0.359772 0.11455
H_ H_ 0.377132 0.678758 0.467309 0.11455
H_ H_ 0.474518 0.687286 0.462141 0.11455
H_ H_ 0.450334 0.684604 0.369466 0.11455
H_ H_ 0.125874 0.509948 0.446261 0.11455
H_ H_ 0.0660741 0.932363 0.354741 0.11455
H_ H_ 0.101904 0.527468 0.354405 0.11455
H_ H_ 0.174701 0.924541 0.452841 0.11455
H_ H_ 0.147203 0.837076 0.453381 0.11455
H_ H_ 0.0869195 0.846149 0.370271 0.11455
H_ H_ 0.0703004 0.611714 0.468283 0.11455
H_ H_ 0.0743378 0.576051 0.014584 0.11455
H_ H_ 0.118601 0.62364 0.0561777 0.11455
H_ H_ 0.181234 0.747486 0.472143 0.11455
H_ H_ 0.218667 0.804651 0.0126634 0.11455
H_ H_ 0.198078 0.785061 0.0601394 0.11455
H_ H_ 0.0224576 0.715028 0.122543 0.11455
H_ H_ 0.00896571 0.698199 0.172725 0.11455
H_ H_ 0.266135 0.648433 0.136863 0.11455
H_ H_ 0.25334 0.647104 0.191017 0.11455
H_ H_ 0.074988 0.587871 0.247338 0.11455
H_ H_ 0.0397973 0.57264 0.29479 0.11455
H_ H_ 0.061616 0.621293 0.336359 0.11455
H_ H_ 0.176293 0.736494 0.259172 0.11455
H_ H_ 0.204622 0.787682 0.300807 0.11455
H_ H_ 0.171731 0.760603 0.348431 0.11455
H_ H_ 0.201513 0.827672 0.194955 0.11455
H_ H_ 0.126395 0.837405 0.0975373 0.11455
H_ H_ 0.217686 0.833911 0.104701 0.11455
H_ H_ 0.117822 0.811383 0.215383 0.11455
H_ H_ 0.0227505 0.818171 0.208961 0.11455
H_ H_ 0.0439683 0.830458 0.119351 0.11455
H_ H_ 0.383967 0.98251 0.19266 0.11455
H_ H_ 0.387411 0.5695 0.0967971 0.11455
H_ H_ 0.353329 0.984534 0.102164 0.11455
H_ H_ 0.362179 0.573832 0.213528 0.11455
H_ H_ 0.364027 0.664142 0.211645 0.11455
H_ H_ 0.371328 0.656815 0.118648 0.11455
H_ H_ 0.429332 0.890926 0.2118 0.11455
H_ H_ 0.457163 0.912195 0.26003 0.11455
H_ H_ 0.407758 0.881441 0.303361 0.11455
H_ H_ 0.303045 0.76407 0.222357 0.11455
H_ H_ 0.278792 0.711935 0.259727 0.11455
H_ H_ 0.306977 0.728386 0.307741 0.11455
H_ H_ 0.485383 0.806644 0.368989 0.11455
H_ H_ 0.499987 0.803666 0.420237 0.11455
H_ H_ 0.238453 0.826953 0.386528 0.11455
H_ H_ 0.249567 0.84851 0.436386 0.11455
H_ H_ 0.42999 0.905735 0.497175 0.11455
H_ H_ 0.424077 0.955525 0.0437372 0.11455
H_ H_ 0.418373 0.895368 0.0837738 0.11455
H_ H_ 0.35501 0.751262 0.00840685 0.11455
H_ H_ 0.309166 0.708989 0.0481173 0.11455
H_ H_ 0.328847 0.740558 0.0949446 0.11455
C_ C_ 0.220023 0.684754 0.408518 0.68181
C_ C_ 0.276612 0.689594 0.404894 -0.05681
C_ C_ 0.309419 0.684644 0.428259 -0.08735
C_ C_ 0.362092 0.68425 0.423281 -0.05681
C_ C_ 0.381331 0.6873 0.395126 -0.05681
C_ C_ 0.348844 0.688704 0.372415 -0.08735
C_ C_ 0.297705 0.696219 0.377705 -0.08735
C_ C_ 0.396027 0.682136 0.446514 -0.08735
C_ C_ 0.449272 0.681215 0.442544 -0.08735
C_ C_ 0.469138 0.683864 0.414096 -0.05681
C_ C_ 0.434087 0.684251 0.39064 -0.08735
C_ C_ 0.111531 0.780256 0.412221 0.68181
C_ C_ 0.123566 0.584594 0.403321 0.68181
C_ C_ 0.122384 0.529045 0.400031 -0.05681
C_ C_ 0.145418 0.992035 0.414593 -0.08735
C_ C_ 0.141392 0.93883 0.412323 -0.05681
C_ C_ 0.115081 0.917984 0.389455 -0.05681
C_ C_ 0.0915071 0.949862 0.370305 -0.08735
C_ C_ 0.0949326 1.00276273 0.371542 -0.08735
C_ C_ 0.156991 0.908926 0.434634 -0.08735
C_ C_ 0.145207 0.858701 0.433937 -0.08735
C_ C_ 0.11622 0.836136 0.412623 -0.05681
C_ C_ 0.101677 0.865713 0.389173 -0.08735
C_ C_ 0.0209277 0.680144 0.406532 0.68181
C_ C_ 0.0896498 0.629114 0.485668 0.1947
C_ C_ 0.10239 0.606217 0.0111105 -0.08735
C_ C_ 0.124457 0.635103 0.0339382 -0.08735
C_ C_ 0.14868 0.681209 0.0283884 -0.05681
C_ C_ 0.159637 0.692246 0.999548 0.18498
C_ C_ 0.173825 0.7375 0.494684 -0.08735
C_ C_ 0.1958 0.770994 0.0157904 -0.08735
C_ C_ 0.186705 0.758929 0.0436718 -0.08735
C_ C_ 0.163551 0.713769 0.0513352 0.18498
C_ C_ 0.196907 0.684263 0.0975765 0.44287
C_ C_ 0.112498 0.71381 0.0949822 0.44287
C_ C_ 0.104521 0.703565 0.12395 -0.05681
C_ C_ 0.0561678 0.706278 0.136124 -0.08735
C_ C_ 0.0474636 0.697604 0.164255 -0.08735
C_ C_ 0.0881772 0.690943 0.18349 -0.05681
C_ C_ 0.136835 0.677361 0.170601 -0.05681
C_ C_ 0.144818 0.687051 0.141082 -0.05681
C_ C_ 0.192142 0.67515 0.127677 -0.05681
C_ C_ 0.229921 0.656039 0.146067 -0.08735
C_ C_ 0.221538 0.65618 0.176471 -0.08735
C_ C_ 0.174328 0.663827 0.188606 -0.05681
C_ C_ 0.16693 0.664176 0.219746 0.44287
C_ C_ 0.0821824 0.69214 0.213187 0.44287
C_ C_ 0.10848 0.658411 0.260072 0.18498
C_ C_ 0.0822349 0.612959 0.265022 -0.08735
C_ C_ 0.0660342 0.600347 0.292385 -0.08735
C_ C_ 0.0755514 0.633356 0.314954 -0.08735
C_ C_ 0.113662 0.670922 0.31096 0.18498
C_ C_ 0.125267 0.687616 0.283332 -0.05681
C_ C_ 0.157857 0.730367 0.279807 -0.08735
C_ C_ 0.176744 0.754304 0.303369 -0.08735
C_ C_ 0.158936 0.738573 0.330138 0.1947
C_ C_ 0.27266 0.826732 0.152711 0.68181
C_ C_ 0.217225 0.826059 0.150179 -0.05681
C_ C_ 0.183528 0.820482 0.173861 -0.08735
C_ C_ 0.130039 0.821792 0.171938 -0.05681
C_ C_ 0.110981 0.827358 0.143789 -0.05681
C_ C_ 0.14244 0.834101 0.119794 -0.08735
C_ C_ 0.195351 0.833337 0.123162 -0.08735
C_ C_ 0.0998109 0.821936 0.194912 -0.08735
C_ C_ 0.0476978 0.820075 0.190623 -0.08735
C_ C_ 0.0266897 0.827126 0.163136 -0.05681
C_ C_ 0.0595634 0.830388 0.139891 -0.08735
C_ C_ 0.366888 0.722658 0.162364 0.68181
C_ C_ 0.373023 0.919599 0.147926 0.68181
C_ C_ 0.37475 0.976776 0.146808 -0.05681
C_ C_ 0.356943 0.507633 0.169365 -0.08735
C_ C_ 0.362391 0.559372 0.168529 -0.05681
C_ C_ 0.373629 0.58307 0.141819 -0.05681
C_ C_ 0.378375 0.552517 0.116859 -0.08735
C_ C_ 0.368209 0.00323622 0.120891 -0.08735
C_ C_ 0.359866 0.58986 0.193093 -0.08735
C_ C_ 0.366616 0.641246 0.191737 -0.08735
C_ C_ 0.369932 0.666612 0.164631 -0.05681
C_ C_ 0.374169 0.637456 0.139279 -0.08735
C_ C_ 0.466754 0.826221 0.152036 0.68181
C_ C_ 0.409671 0.87337 0.229364 0.1947
C_ C_ 0.424223 0.890686 0.257249 -0.08735
C_ C_ 0.398996 0.868982 0.28134 -0.08735
C_ C_ 0.364188 0.828091 0.276341 -0.05681
C_ C_ 0.350972 0.814402 0.247218 0.18498
C_ C_ 0.317693 0.773376 0.242506 -0.08735
C_ C_ 0.304645 0.742043 0.263564 -0.08735
C_ C_ 0.315536 0.756467 0.292675 -0.08735
C_ C_ 0.344234 0.800886 0.299853 0.18498
C_ C_ 0.311978 0.822987 0.347187 0.44287
C_ C_ 0.397391 0.798408 0.342019 0.44287
C_ C_ 0.405802 0.811422 0.371451 -0.05681
C_ C_ 0.453495 0.807662 0.382678 -0.08735
C_ C_ 0.460599 0.810413 0.412273 -0.08735
C_ C_ 0.419312 0.816909 0.431968 -0.05681
C_ C_ 0.371378 0.826217 0.419964 -0.05681
C_ C_ 0.364957 0.82523 0.38972 -0.05681
C_ C_ 0.314974 0.828526 0.377265 -0.05681
C_ C_ 0.274619 0.834961 0.395368 -0.08735
C_ C_ 0.281037 0.837835 0.424338 -0.08735
C_ C_ 0.329526 0.836004 0.436996 -0.05681
C_ C_ 0.337695 0.836638 0.467054 0.44287
C_ C_ 0.424552 0.813836 0.461526 0.44287
C_ C_ 0.383124 0.85096 0.00654219 0.18498
C_ C_ 0.399907 0.900468 0.0122727 -0.08735
C_ C_ 0.411316 0.915752 0.0404589 -0.08735
C_ C_ 0.407989 0.882212 0.0621297 -0.08735
C_ C_ 0.383956 0.834193 0.05858 0.18498
C_ C_ 0.373906 0.81834 0.0307291 -0.05681
C_ C_ 0.352333 0.770662 0.0275642 -0.08735
C_ C_ 0.333679 0.744068 0.0500653 -0.08735
C_ C_ 0.343376 0.762962 0.0769154 0.1947
N_ N_ 0.113586 0.673514 0.479623 -0.29468
N_ N_ 0.157259 0.701163 0.0817775 -0.17154
N_ N_ 0.120001 0.672282 0.230333 -0.17154
N_ N_ 0.129621 0.697159 0.334368 -0.29468
N_ N_ 0.371106 0.840781 0.225247 -0.29468
N_ N_ 0.35296 0.81238 0.3299 -0.17154
N_ N_ 0.384571 0.82455 0.479157 -0.17154
N_ N_ 0.369107 0.805389 0.0809435 -0.29468
O_ O_ 0.202496 0.681335 0.433696 -0.58347
O_ O_ 0.190777 0.696342 0.389431 -0.58347
O_ O_ 0.120476 0.755461 0.43426 -0.58347
O_ O_ 0.103494 0.758816 0.3887 -0.58347
O_ O_ 0.133075 0.603343 0.42862 -0.58347
O_ O_ 0.124019 0.612902 0.380696 -0.58347
O_ O_ 0.0495987 0.675033 0.427881 -0.58347
O_ O_ 0.0406692 0.678034 0.381935 -0.58347
O_ O_ 0.0768808 0.734244 0.0801494 -0.46727
O_ O_ 0.238337 0.670583 0.0837338 -0.46727
O_ O_ 0.0364875 0.698024 0.224132 -0.46727
O_ O_ 0.2072 0.658493 0.236509 -0.46727
O_ O_ 0.294417 0.829391 0.177353 -0.58347
O_ O_ 0.299914 0.814262 0.130931 -0.58347
O_ O_ 0.36373 0.74883 0.185582 -0.58347
O_ O_ 0.378158 0.743949 0.13939 -0.58347
O_ O_ 0.380777 0.896952 0.170485 -0.58347
O_ O_ 0.364486 0.894205 0.125154 -0.58347
O_ O_ 0.442396 0.81842 0.174317 -0.58347
O_ O_ 0.444145 0.827124 0.12777 -0.58347
O_ O_ 0.430575 0.770851 0.327416 -0.46727
O_ O_ 0.265791 0.824869 0.3363 -0.46727
O_ O_ 0.46739 0.80339 0.472548 -0.46727
O_ O_ 0.296728 0.840555 0.482678 -0.46727
Zn Zn 0.136473 0.683158 0.88182 0.90689
Zn Zn 0.145036 0.676518 0.928966 0.90689
Zn Zn 0.375538 0.813066 0.628335 0.90689
Zn Zn 0.366709 0.81828 0.677055 0.90689
H_ H_ 0.314896 0.697046 0.947016 0.11455
H_ H_ 0.386032 0.652649 0.851664 0.11455
H_ H_ 0.300262 0.67197 0.856699 0.11455
H_ H_ 0.400459 0.684879 0.970996 0.11455
H_ H_ 0.491578 0.682133 0.962202 0.11455
H_ H_ 0.470549 0.656623 0.87223 0.11455
H_ H_ 0.154746 0.511142 0.946653 0.11455
H_ H_ 0.122507 0.929093 0.845806 0.11455
H_ H_ 0.142621 0.525057 0.85451 0.11455
H_ H_ 0.12975 0.929561 0.962807 0.11455
H_ H_ 0.124226 0.835135 0.960128 0.11455
H_ H_ 0.131308 0.847716 0.866934 0.11455
H_ H_ 0.0939258 0.60092 0.965425 0.11455
H_ H_ 0.0656828 0.577411 0.518911 0.11455
H_ H_ 0.10734 0.623067 0.557444 0.11455
H_ H_ 0.192272 0.749749 0.972008 0.11455
H_ H_ 0.210181 0.804853 0.51263 0.11455
H_ H_ 0.197968 0.777371 0.563253 0.11455
H_ H_ 1.0118114 0.700044 0.624004 0.11455
H_ H_ 1.00026 0.695071 0.677844 0.11455
H_ H_ 0.262893 0.689425 0.636317 0.11455
H_ H_ 0.254859 0.684716 0.689798 0.11455
H_ H_ 0.074453 0.585492 0.750206 0.11455
H_ H_ 0.0600996 0.559736 0.800632 0.11455
H_ H_ 0.0958182 0.614105 0.84114 0.11455
H_ H_ 0.166267 0.747276 0.756736 0.11455
H_ H_ 0.190374 0.799724 0.797594 0.11455
H_ H_ 0.183329 0.772134 0.844532 0.11455
H_ H_ 0.195539 0.81529 0.6992 0.11455
H_ H_ 0.12891 0.846438 0.603246 0.11455
H_ H_ 0.218787 0.823324 0.606697 0.11455
H_ H_ 0.109373 0.815813 0.718238 0.11455
H_ H_ 0.0156916 0.816252 0.709165 0.11455
H_ H_ 0.0423734 0.823486 0.620363 0.11455
H_ H_ 0.3978 0.984353 0.687107 0.11455
H_ H_ 0.33255 0.55956 0.59615 0.11455
H_ H_ 0.327938 0.975671 0.602929 0.11455
H_ H_ 0.355323 0.566614 0.714542 0.11455
H_ H_ 0.369335 0.65696 0.710173 0.11455
H_ H_ 0.338622 0.64327 0.618966 0.11455
H_ H_ 0.430218 0.885065 0.710808 0.11455
H_ H_ 0.432981 0.926119 0.760944 0.11455
H_ H_ 0.392593 0.886114 0.801767 0.11455
H_ H_ 0.307429 0.757696 0.718496 0.11455
H_ H_ 0.298832 0.695686 0.756721 0.11455
H_ H_ 0.31347 0.721235 0.808457 0.11455
H_ H_ 0.480034 0.780043 0.871079 0.11455
H_ H_ 0.490349 0.793656 0.922608 0.11455
H_ H_ 0.234035 0.841789 0.881109 0.11455
H_ H_ 0.245161 0.857255 0.935424 0.11455
H_ H_ 0.407794 0.925337 0.993304 0.11455
H_ H_ 0.461947 0.923661 0.546681 0.11455
H_ H_ 0.439632 0.863912 0.585848 0.11455
H_ H_ 0.339507 0.750172 0.504708 0.11455
H_ H_ 0.296994 0.707223 0.544419 0.11455
H_ H_ 0.316824 0.73227 0.596226 0.11455
C_ C_ 0.241811 0.68514 0.906977 0.68181
C_ C_ 0.297122 0.679706 0.903727 -0.05681
C_ C_ 0.330059 0.687557 0.926931 -0.08735
C_ C_ 0.382666 0.679984 0.924213 -0.05681
C_ C_ 0.40288 0.668161 0.89695 -0.05681
C_ C_ 0.371401 0.660634 0.873077 -0.08735
C_ C_ 0.32033 0.674057 0.877001 -0.08735
C_ C_ 0.41581 0.684146 0.948392 -0.08735
C_ C_ 0.467225 0.678998 0.944101 -0.08735
C_ C_ 0.489029 0.672602 0.916319 -0.05681
C_ C_ 0.456572 0.663616 0.893564 -0.08735
C_ C_ 0.132087 0.777345 0.910097 0.68181
C_ C_ 0.161472 0.581516 0.902931 0.68181
C_ C_ 0.152724 0.526067 0.901596 -0.05681
C_ C_ 0.138762 0.993797 0.918997 -0.08735
C_ C_ 0.13058 0.940755 0.916963 -0.05681
C_ C_ 0.126218 0.917797 0.889735 -0.05681
C_ C_ 0.126566 0.947745 0.865472 -0.08735
C_ C_ 0.13424 0.00180598 0.867147 -0.08735
C_ C_ 0.121965 0.911791 0.941413 -0.08735
C_ C_ 0.120698 0.858238 0.939866 -0.08735
C_ C_ 0.127793 0.83445 0.912469 -0.05681
C_ C_ 0.125353 0.864596 0.887521 -0.08735
C_ C_ 0.0438319 0.668427 0.908239 0.68181
C_ C_ 0.107828 0.624278 0.983155 0.1947
C_ C_ 0.0860814 0.61127 0.513851 -0.08735
C_ C_ 0.111533 0.63674 0.535335 -0.08735
C_ C_ 0.13033 0.685498 0.529448 -0.05681
C_ C_ 0.142305 0.697255 0.500257 0.18498
C_ C_ 0.181025 0.738926 0.99378 -0.08735
C_ C_ 0.193049 0.768081 0.517065 -0.08735
C_ C_ 0.181065 0.756888 0.545457 -0.08735
C_ C_ 0.152116 0.714563 0.551743 0.18498
C_ C_ 0.186612 0.687504 0.598935 0.44287
C_ C_ 0.0976579 0.705746 0.595123 0.44287
C_ C_ 0.0912312 0.698805 0.625025 -0.05681
C_ C_ 0.0439244 0.698105 0.637845 -0.08735
C_ C_ 0.0385752 0.694979 0.667681 -0.08735
C_ C_ 0.0827362 0.687776 0.685467 -0.05681
C_ C_ 0.129491 0.680087 0.671283 -0.05681
C_ C_ 0.13363 0.683028 0.641131 -0.05681
C_ C_ 0.182933 0.681832 0.629771 -0.05681
C_ C_ 0.226024 0.680472 0.646348 -0.08735
C_ C_ 0.219796 0.675818 0.675625 -0.08735
C_ C_ 0.171886 0.670573 0.6889 -0.05681
C_ C_ 0.166321 0.665066 0.718481 0.44287
C_ C_ 0.077864 0.681699 0.71536 0.44287
C_ C_ 0.112627 0.654311 0.76055 0.18498
C_ C_ 0.0857025 0.611021 0.767662 -0.08735
C_ C_ 0.0765061 0.598313 0.796414 -0.08735
C_ C_ 0.0949884 0.629285 0.819725 -0.08735
C_ C_ 0.120513 0.673002 0.813387 0.18498
C_ C_ 0.129038 0.686347 0.783435 -0.05681
C_ C_ 0.156273 0.731607 0.777936 -0.08735
C_ C_ 0.172701 0.762419 0.800113 -0.08735
C_ C_ 0.168176 0.746556 0.828623 0.1947
C_ C_ 0.271988 0.814958 0.655708 0.68181
C_ C_ 0.214547 0.815196 0.653504 -0.05681
C_ C_ 0.181978 0.81541 0.677679 -0.08735
C_ C_ 0.131155 0.81356 0.673071 -0.05681
C_ C_ 0.111618 0.823709 0.64596 -0.05681
C_ C_ 0.141905 0.826809 0.622107 -0.08735
C_ C_ 0.19445 0.82215 0.626125 -0.08735
C_ C_ 0.0977149 0.811897 0.696351 -0.08735
C_ C_ 0.0445074 0.814575 0.692001 -0.08735
C_ C_ 0.0255708 0.821542 0.664626 -0.05681
C_ C_ 0.0584061 0.822941 0.641388 -0.08735
C_ C_ 0.368273 0.7153 0.661328 0.68181
C_ C_ 0.364764 0.915772 0.646894 0.68181
C_ C_ 0.362691 0.972627 0.645349 -0.05681
C_ C_ 0.337872 0.500584 0.672689 -0.08735
C_ C_ 0.348234 0.5532 0.669589 -0.05681
C_ C_ 0.345775 0.575823 0.641864 -0.05681
C_ C_ 0.340712 0.543352 0.616864 -0.08735
C_ C_ 0.33713 0.995361 0.621961 -0.08735
C_ C_ 0.361033 0.583258 0.693676 -0.08735
C_ C_ 0.368983 0.634851 0.691084 -0.08735
C_ C_ 0.369381 0.657892 0.663613 -0.05681
C_ C_ 0.354996 0.626943 0.638851 -0.08735
C_ C_ 0.46946 0.821535 0.651113 0.68181
C_ C_ 0.404473 0.873901 0.728994 0.1947
C_ C_ 0.40852 0.895555 0.757003 -0.08735
C_ C_ 0.390401 0.8694 0.780275 -0.08735
C_ C_ 0.361546 0.823184 0.775456 -0.05681
C_ C_ 0.347894 0.810793 0.746698 0.18498
C_ C_ 0.316844 0.767701 0.740241 -0.08735
C_ C_ 0.308394 0.734225 0.762433 -0.08735
C_ C_ 0.320259 0.746539 0.790646 -0.08735
C_ C_ 0.340387 0.794 0.797979 0.18498
C_ C_ 0.307876 0.81853 0.844071 0.44287
C_ C_ 0.395107 0.796636 0.841094 0.44287
C_ C_ 0.400748 0.798305 0.871693 -0.05681
C_ C_ 0.447923 0.792008 0.884254 -0.08735
C_ C_ 0.453813 0.796259 0.913935 -0.08735
C_ C_ 0.410561 0.80868 0.931215 -0.05681
C_ C_ 0.364006 0.819242 0.918468 -0.05681
C_ C_ 0.358939 0.813103 0.888394 -0.05681
C_ C_ 0.312205 0.824489 0.874437 -0.05681
C_ C_ 0.26994 0.837949 0.891522 -0.08735
C_ C_ 0.276235 0.846177 0.920983 -0.08735
C_ C_ 0.324628 0.836231 0.934667 -0.05681
C_ C_ 0.329437 0.840784 0.965004 0.44287
C_ C_ 0.416508 0.817267 0.96083 0.44287
C_ C_ 0.393024 0.839128 0.508836 0.18498
C_ C_ 0.419743 0.882393 0.515209 -0.08735
C_ C_ 0.439861 0.891278 0.542607 -0.08735
C_ C_ 0.422393 0.859113 0.565699 -0.08735
C_ C_ 0.387243 0.822152 0.559692 0.18498
C_ C_ 0.376298 0.807119 0.531296 -0.05681
C_ C_ 0.348631 0.761504 0.526071 -0.08735
C_ C_ 0.323747 0.738787 0.54856 -0.08735
C_ C_ 0.333854 0.753767 0.577212 0.1947
N_ N_ 0.14094 0.663159 0.977567 -0.29468
N_ N_ 0.146677 0.702262 0.582478 -0.17154
N_ N_ 0.118415 0.668034 0.730435 -0.17154
N_ N_ 0.144183 0.69975 0.834534 -0.29468
N_ N_ 0.371561 0.835158 0.724376 -0.29468
N_ N_ 0.348728 0.806641 0.828129 -0.17154
N_ N_ 0.375869 0.835554 0.976517 -0.17154
N_ N_ 0.369238 0.791453 0.581731 -0.29468
O_ O_ 0.222162 0.683908 0.931667 -0.58347
O_ O_ 0.215361 0.688742 0.884211 -0.58347
O_ O_ 0.139489 0.748839 0.931087 -0.58347
O_ O_ 0.128031 0.755975 0.886657 -0.58347
O_ O_ 0.158924 0.600543 0.926641 -0.58347
O_ O_ 0.14972 0.608427 0.881669 -0.58347
O_ O_ 0.0739039 0.674793 0.928911 -0.58347
O_ O_ 0.0597404 0.667359 0.883444 -0.58347
O_ O_ 0.0591276 0.715103 0.578921 -0.46727
O_ O_ 0.231343 0.685191 0.586594 -0.46727
O_ O_ 0.0376072 0.701375 0.728196 -0.46727
O_ O_ 0.203621 0.64592 0.733854 -0.46727
O_ O_ 0.292199 0.81785 0.680204 -0.58347
O_ O_ 0.297841 0.818602 0.632995 -0.58347
O_ O_ 0.369091 0.743241 0.682443 -0.58347
O_ O_ 0.375779 0.736238 0.637164 -0.58347
O_ O_ 0.364589 0.893009 0.671202 -0.58347
O_ O_ 0.373746 0.89065 0.625624 -0.58347
O_ O_ 0.441829 0.821803 0.673057 -0.58347
O_ O_ 0.451003 0.80911 0.627023 -0.58347
O_ O_ 0.432313 0.777155 0.82585 -0.46727
O_ O_ 0.263409 0.826529 0.831298 -0.46727
O_ O_ 0.46055 0.813812 0.972524 -0.46727
O_ O_ 0.289228 0.85177 0.980831 -0.46727
Zn Zn 0.623365 0.186337 0.378986 0.90689
Zn Zn 0.637669 0.184056 0.427393 0.90689
Zn Zn 0.872461 0.317661 0.13022 0.90689
Zn Zn 0.865248 0.325411 0.179415 0.90689
H_ H_ 0.801295 0.198597 0.446943 0.11455
H_ H_ 0.870364 0.205049 0.350309 0.11455
H_ H_ 0.777814 0.198798 0.356411 0.11455
H_ H_ 0.882399 0.169725 0.465547 0.11455
H_ H_ 0.975699 0.169299 0.458259 0.11455
H_ H_ 0.960536 0.176379 0.36967 0.11455
H_ H_ 0.66651 0.0182807 0.437019 0.11455
H_ H_ 0.613775 0.435718 0.350428 0.11455
H_ H_ 0.587342 0.0287975 0.356325 0.11455
H_ H_ 0.653238 0.428677 0.465218 0.11455
H_ H_ 0.650808 0.33769 0.458867 0.11455
H_ H_ 0.614797 0.34882 0.371021 0.11455
H_ H_ 0.565575 0.121817 0.463636 0.11455
H_ H_ 0.572482 0.0702303 0.0171998 0.11455
H_ H_ 0.606301 0.124418 0.0561234 0.11455
H_ H_ 0.694036 0.243748 0.472037 0.11455
H_ H_ 0.724141 0.298824 0.00786913 0.11455
H_ H_ 0.689067 0.289922 0.0577684 0.11455
H_ H_ 0.521496 0.226181 0.123687 0.11455
H_ H_ 0.50934 0.200161 0.172351 0.11455
H_ H_ 0.763824 0.135838 0.132486 0.11455
H_ H_ 0.759421 0.142515 0.186898 0.11455
H_ H_ 0.579428 0.0888017 0.246913 0.11455
H_ H_ 0.548666 0.0728918 0.295047 0.11455
H_ H_ 0.570752 0.12863 0.336241 0.11455
H_ H_ 0.677143 0.243459 0.256758 0.11455
H_ H_ 0.699217 0.30086 0.298284 0.11455
H_ H_ 0.683191 0.265749 0.346607 0.11455
H_ H_ 0.695737 0.30963 0.192227 0.11455
H_ H_ 0.623565 0.331586 0.0937749 0.11455
H_ H_ 0.715888 0.320132 0.100274 0.11455
H_ H_ 0.613672 0.334304 0.21037 0.11455
H_ H_ 0.51996 0.329224 0.206353 0.11455
H_ H_ 0.542219 0.337057 0.116339 0.11455
H_ H_ 0.878203 0.487952 0.187633 0.11455
H_ H_ 0.862302 0.07432 0.100357 0.11455
H_ H_ 0.861915 0.477408 0.0973491 0.11455
H_ H_ 0.8664 0.0776134 0.218742 0.11455
H_ H_ 0.870591 0.169904 0.213724 0.11455
H_ H_ 0.884145 0.15723 0.123808 0.11455
H_ H_ 0.906848 0.412225 0.212233 0.11455
H_ H_ 0.914057 0.446748 0.262963 0.11455
H_ H_ 0.904577 0.385986 0.301145 0.11455
H_ H_ 0.815366 0.265757 0.218069 0.11455
H_ H_ 0.77809 0.214488 0.258412 0.11455
H_ H_ 0.800652 0.236663 0.307048 0.11455
H_ H_ 0.991332 0.292349 0.367467 0.11455
H_ H_ -0.0013791 0.300543 0.419099 0.11455
H_ H_ 0.747241 0.356226 0.383118 0.11455
H_ H_ 0.752859 0.346119 0.435552 0.11455
H_ H_ 0.956275 0.385155 0.496961 0.11455
H_ H_ 0.962912 0.424884 0.0483757 0.11455
H_ H_ 0.940907 0.370412 0.0856916 0.11455
H_ H_ 0.861249 0.243508 0.00751167 0.11455
H_ H_ 0.81004 0.203478 0.0477681 0.11455
H_ H_ 0.820002 0.237981 0.0972057 0.11455
C_ C_ 0.72765 0.183276 0.406779 0.68181
C_ C_ 0.783137 0.187853 0.401834 -0.05681
C_ C_ 0.816548 0.190028 0.425292 -0.08735
C_ C_ 0.868156 0.180404 0.420972 -0.05681
C_ C_ 0.888852 0.180589 0.393385 -0.05681
C_ C_ 0.855743 0.188535 0.370364 -0.08735
C_ C_ 0.802473 0.187388 0.374155 -0.08735
C_ C_ 0.898334 0.173035 0.444122 -0.08735
C_ C_ 0.952453 0.174863 0.440338 -0.08735
C_ C_ 0.975509 0.174337 0.412521 -0.05681
C_ C_ 0.942277 0.173795 0.389898 -0.08735
C_ C_ 0.627815 0.281877 0.412688 0.68181
C_ C_ 0.632657 0.0851147 0.398645 0.68181
C_ C_ 0.621641 0.0296798 0.398873 -0.05681
C_ C_ 0.626421 0.499886 0.423756 -0.08735
C_ C_ 0.629755 0.445427 0.422114 -0.05681
C_ C_ 0.621823 0.422127 0.394528 -0.05681
C_ C_ 0.620369 0.452718 0.370641 -0.08735
C_ C_ 0.614463 0.505537 0.373313 -0.08735
C_ C_ 0.643307 0.414167 0.444468 -0.08735
C_ C_ 0.644087 0.361537 0.44084 -0.08735
C_ C_ 0.628797 0.337472 0.414598 -0.05681
C_ C_ 0.622509 0.369436 0.390511 -0.08735
C_ C_ 0.534031 0.182596 0.399876 0.68181
C_ C_ 0.592704 0.131238 0.479212 0.1947
C_ C_ 0.597862 0.10155 0.0119165 -0.08735
C_ C_ 0.617789 0.131441 0.0345298 -0.08735
C_ C_ 0.642632 0.177789 0.0290834 -0.05681
C_ C_ 0.646842 0.193239 0.99895 0.18498
C_ C_ 0.680504 0.234776 0.493757 -0.08735
C_ C_ 0.695573 0.268255 0.0131712 -0.08735
C_ C_ 0.68177 0.259069 0.0428408 -0.08735
C_ C_ 0.659518 0.213072 0.0506076 0.18498
C_ C_ 0.691583 0.174473 0.0952711 0.44287
C_ C_ 0.612059 0.215449 0.0934673 0.44287
C_ C_ 0.602118 0.200381 0.122186 -0.05681
C_ C_ 0.552075 0.20433 0.134291 -0.08735
C_ C_ 0.547846 0.202131 0.163831 -0.08735
C_ C_ 0.588462 0.188215 0.182248 -0.05681
C_ C_ 0.636463 0.179387 0.169384 -0.05681
C_ C_ 0.642823 0.181638 0.13891 -0.05681
C_ C_ 0.688855 0.169964 0.126217 -0.05681
C_ C_ 0.727739 0.151148 0.143187 -0.08735
C_ C_ 0.724915 0.155517 0.173764 -0.08735
C_ C_ 0.67728 0.16884 0.187335 -0.05681
C_ C_ 0.671034 0.169429 0.218007 0.44287
C_ C_ 0.584373 0.184548 0.212203 0.44287
C_ C_ 0.615806 0.162508 0.258138 0.18498
C_ C_ 0.587515 0.117067 0.264205 -0.08735
C_ C_ 0.572341 0.106101 0.292011 -0.08735
C_ C_ 0.588323 0.134767 0.315318 -0.08735
C_ C_ 0.6196 0.176592 0.311152 0.18498
C_ C_ 0.631778 0.192379 0.281534 -0.05681
C_ C_ 0.661196 0.236312 0.277871 -0.08735
C_ C_ 0.677665 0.262607 0.301294 -0.08735
C_ C_ 0.66417 0.248394 0.328872 0.1947
C_ C_ 0.771401 0.320219 0.151938 0.68181
C_ C_ 0.714014 0.320409 0.147829 -0.05681
C_ C_ 0.68124 0.321103 0.17129 -0.08735
C_ C_ 0.62887 0.330841 0.16762 -0.05681
C_ C_ 0.607332 0.32777 0.140078 -0.05681
C_ C_ 0.639384 0.325536 0.115619 -0.08735
C_ C_ 0.69235 0.323714 0.119285 -0.08735
C_ C_ 0.596348 0.32836 0.190781 -0.08735
C_ C_ 0.544864 0.335504 0.188045 -0.08735
C_ C_ 0.523859 0.334472 0.16058 -0.05681
C_ C_ 0.557163 0.3393 0.136686 -0.08735
C_ C_ 0.879521 0.225461 0.16301 0.68181
C_ C_ 0.862694 0.419979 0.146108 0.68181
C_ C_ 0.871496 0.476162 0.143325 -0.05681
C_ C_ 0.870341 0.0092242 0.174445 -0.08735
C_ C_ 0.87557 0.0623727 0.172489 -0.05681
C_ C_ 0.877422 0.086537 0.145753 -0.05681
C_ C_ 0.870855 0.0567189 0.121125 -0.08735
C_ C_ 0.871548 0.500194 0.116571 -0.08735
C_ C_ 0.872126 0.0934138 0.19732 -0.08735
C_ C_ 0.877959 0.147425 0.194988 -0.08735
C_ C_ 0.879717 0.170238 0.167752 -0.05681
C_ C_ 0.880132 0.138973 0.144084 -0.08735
C_ C_ 0.968161 0.328723 0.15842 0.68181
C_ C_ 0.894084 0.390023 0.229812 0.1947
C_ C_ 0.897248 0.409736 0.257786 -0.08735
C_ C_ 0.895279 0.374136 0.279458 -0.08735
C_ C_ 0.863215 0.33117 0.274927 -0.05681
C_ C_ 0.853445 0.31676 0.246108 0.18498
C_ C_ 0.823182 0.274967 0.239667 -0.08735
C_ C_ 0.802627 0.245697 0.262954 -0.08735
C_ C_ 0.812317 0.260486 0.290637 -0.08735
C_ C_ 0.844452 0.300377 0.29743 0.18498
C_ C_ 0.816571 0.324004 0.344356 0.44287
C_ C_ 0.902419 0.304036 0.336707 0.44287
C_ C_ 0.91049 0.309671 0.367284 -0.05681
C_ C_ 0.959042 0.30525 0.379927 -0.08735
C_ C_ 0.963272 0.309264 0.410019 -0.08735
C_ C_ 0.923433 0.320012 0.428396 -0.05681
C_ C_ 0.874702 0.324898 0.416337 -0.05681
C_ C_ 0.868546 0.323326 0.386059 -0.05681
C_ C_ 0.821251 0.326605 0.37492 -0.05681
C_ C_ 0.779964 0.337464 0.392152 -0.08735
C_ C_ 0.786636 0.341749 0.421907 -0.08735
C_ C_ 0.833553 0.332718 0.434605 -0.05681
C_ C_ 0.841442 0.332458 0.464583 0.44287
C_ C_ 0.927704 0.314763 0.458692 0.44287
C_ C_ 0.89388 0.343432 0.00879897 0.18498
C_ C_ 0.919001 0.387637 0.0148895 -0.08735
C_ C_ 0.934033 0.397183 0.0432178 -0.08735
C_ C_ 0.920576 0.365675 0.0662748 -0.08735
C_ C_ 0.886414 0.326145 0.061344 0.18498
C_ C_ 0.875441 0.312478 0.033054 -0.05681
C_ C_ 0.856088 0.262774 0.0278747 -0.08735
C_ C_ 0.835904 0.235488 0.0511915 -0.08735
C_ C_ 0.840802 0.254364 0.0788441 0.1947
N_ N_ 0.62855 0.168342 0.474685 -0.29468
N_ N_ 0.6542 0.201066 0.0806726 -0.17154
N_ N_ 0.62498 0.175407 0.229034 -0.17154
N_ N_ 0.637421 0.204819 0.333582 -0.29468
N_ N_ 0.872153 0.343583 0.22445 -0.29468
N_ N_ 0.854977 0.311833 0.326682 -0.17154
N_ N_ 0.887022 0.324 0.475878 -0.17154
N_ N_ 0.87051 0.296411 0.083633 -0.29468
O_ O_ 0.708673 0.183124 0.431616 -0.58347
O_ O_ 0.697551 0.18785 0.385605 -0.58347
O_ O_ 0.635786 0.255652 0.434037 -0.58347
O_ O_ 0.617166 0.261762 0.388983 -0.58347
O_ O_ 0.633386 0.108741 0.423208 -0.58347
O_ O_ 0.632036 0.110735 0.375505 -0.58347
O_ O_ 0.56353 0.182445 0.421716 -0.58347
O_ O_ 0.551201 0.180357 0.375252 -0.58347
O_ O_ 0.577029 0.238677 0.0795534 -0.46727
O_ O_ 0.733202 0.165366 0.0817646 -0.46727
O_ O_ 0.538613 0.18849 0.223769 -0.46727
O_ O_ 0.709776 0.158209 0.234947 -0.46727
O_ O_ 0.789857 0.318694 0.176623 -0.58347
O_ O_ 0.798027 0.313951 0.129897 -0.58347
O_ O_ 0.878305 0.254164 0.184453 -0.58347
O_ O_ 0.880776 0.244651 0.138122 -0.58347
O_ O_ 0.850804 0.400708 0.169918 -0.58347
O_ O_ 0.869265 0.392609 0.124213 -0.58347
O_ O_ 0.938806 0.332195 0.180346 -0.58347
O_ O_ 0.948529 0.324346 0.13436 -0.58347
O_ O_ 0.936467 0.286529 0.319573 -0.46727
O_ O_ 0.771361 0.334901 0.333844 -0.46727
O_ O_ 0.969384 0.294209 0.468529 -0.46727
O_ O_ 0.804877 0.347371 0.480947 -0.46727
Zn Zn 0.631518 0.182642 0.88186 0.90689
Zn Zn 0.639207 0.168598 0.929148 0.90689
Zn Zn 0.858571 0.302702 0.629504 0.90689
Zn Zn 0.8533 0.316763 0.675312 0.90689
H_ H_ 0.804562 0.168709 0.948398 0.11455
H_ H_ 0.880894 0.179335 0.850096 0.11455
H_ H_ 0.789421 0.186372 0.854619 0.11455
H_ H_ 0.894033 0.154782 0.969124 0.11455
H_ H_ 0.984632 0.144079 0.959648 0.11455
H_ H_ 0.96537 0.185235 0.872913 0.11455
H_ H_ 0.639125 0.00491846 0.94399 0.11455
H_ H_ 0.625174 0.427926 0.855036 0.11455
H_ H_ 0.651846 0.0243072 0.85126 0.11455
H_ H_ 0.655986 0.411269 0.970445 0.11455
H_ H_ 0.648997 0.320393 0.962297 0.11455
H_ H_ 0.606043 0.345389 0.875483 0.11455
H_ H_ 0.585002 0.0948859 0.967112 0.11455
H_ H_ 0.563835 0.072467 0.508866 0.11455
H_ H_ 0.595882 0.118725 0.551382 0.11455
H_ H_ 0.694692 0.23776 0.972222 0.11455
H_ H_ 0.731917 0.288542 0.510693 0.11455
H_ H_ 0.722099 0.25631 0.560315 0.11455
H_ H_ 0.527782 0.217688 0.620308 0.11455
H_ H_ 0.515236 0.203067 0.67112 0.11455
H_ H_ 0.760609 0.115603 0.633597 0.11455
H_ H_ 0.744975 0.109344 0.68336 0.11455
H_ H_ 0.551197 0.0909011 0.7466 0.11455
H_ H_ 0.537728 0.0631895 0.793929 0.11455
H_ H_ 0.579268 0.111644 0.836404 0.11455
H_ H_ 0.675631 0.22546 0.756112 0.11455
H_ H_ 0.706473 0.275526 0.795447 0.11455
H_ H_ 0.681093 0.250863 0.844449 0.11455
H_ H_ 0.683977 0.292602 0.692138 0.11455
H_ H_ 0.609691 0.354689 0.599593 0.11455
H_ H_ 0.707396 0.339161 0.605484 0.11455
H_ H_ 0.596528 0.303074 0.713609 0.11455
H_ H_ 0.506827 0.324213 0.709183 0.11455
H_ H_ 0.532031 0.349025 0.617859 0.11455
H_ H_ 0.820482 0.485197 0.689448 0.11455
H_ H_ 0.902773 0.0488163 0.600528 0.11455
H_ H_ 0.874179 0.465878 0.601967 0.11455
H_ H_ 0.848907 0.0710165 0.714775 0.11455
H_ H_ 0.838721 0.159122 0.707135 0.11455
H_ H_ 0.903039 0.138683 0.621069 0.11455
H_ H_ 0.894792 0.401969 0.707295 0.11455
H_ H_ 0.911772 0.438699 0.75623 0.11455
H_ H_ 0.877076 0.395717 0.799413 0.11455
H_ H_ 0.820464 0.248298 0.72441 0.11455
H_ H_ 0.814368 0.190985 0.765381 0.11455
H_ H_ 0.817469 0.223179 0.812925 0.11455
H_ H_ 0.989922 0.286063 0.871665 0.11455
H_ H_ -0.003855000000000053 0.282352 0.926363 0.11455
H_ H_ 0.744653 0.358266 0.890277 0.11455
H_ H_ 0.746506 0.341976 0.93861 0.11455
H_ H_ 0.913912 0.418463 0.9999603817 0.11455
H_ H_ 0.972874 0.410371 0.54819 0.11455
H_ H_ 0.923556 0.368481 0.587743 0.11455
H_ H_ 0.835998 0.244702 0.501265 0.11455
H_ H_ 0.805101 0.19778 0.546657 0.11455
H_ H_ 0.800581 0.243153 0.590513 0.11455
C_ C_ 0.73268 0.171578 0.905313 0.68181
C_ C_ 0.789896 0.169371 0.902635 -0.05681
C_ C_ 0.821252 0.168034 0.926711 -0.08735
C_ C_ 0.875362 0.16201 0.923592 -0.05681
C_ C_ 0.898078 0.167232 0.895771 -0.05681
C_ C_ 0.866119 0.173126 0.871951 -0.08735
C_ C_ 0.812887 0.174331 0.874729 -0.08735
C_ C_ 0.908505 0.154499 0.947305 -0.08735
C_ C_ 0.960374 0.146474 0.942644 -0.08735
C_ C_ 0.981623 0.165869 0.9175 -0.05681
C_ C_ 0.950706 0.172827 0.894125 -0.08735
C_ C_ 0.631913 0.273117 0.911007 0.68181
C_ C_ 0.639861 0.0753709 0.901161 0.68181
C_ C_ 0.643467 0.0203141 0.897579 -0.05681
C_ C_ 0.64273 0.48643 0.931306 -0.08735
C_ C_ 0.639598 0.432474 0.926994 -0.05681
C_ C_ 0.628196 0.412297 0.899334 -0.05681
C_ C_ 0.628769 0.443495 0.876279 -0.08735
C_ C_ 0.635562 0.496301 0.879881 -0.08735
C_ C_ 0.639932 0.398157 0.949967 -0.08735
C_ C_ 0.640183 0.345576 0.945115 -0.08735
C_ C_ 0.628659 0.327733 0.917507 -0.05681
C_ C_ 0.615074 0.362296 0.895918 -0.08735
C_ C_ 0.536599 0.164935 0.90518 0.68181
C_ C_ 0.601935 0.117976 0.983945 0.1947
C_ C_ 0.583164 0.111118 0.507046 -0.08735
C_ C_ 0.608127 0.132354 0.530043 -0.08735
C_ C_ 0.642758 0.172453 0.526706 -0.05681
C_ C_ 0.649965 0.191245 0.497989 0.18498
C_ C_ 0.677172 0.235481 0.992155 -0.08735
C_ C_ 0.705873 0.257601 0.515611 -0.08735
C_ C_ 0.702755 0.23665 0.543741 -0.08735
C_ C_ 0.668364 0.197675 0.549871 0.18498
C_ C_ 0.696366 0.165454 0.596228 0.44287
C_ C_ 0.613274 0.198444 0.59158 0.44287
C_ C_ 0.603493 0.188288 0.620385 -0.05681
C_ C_ 0.559037 0.203328 0.632748 -0.08735
C_ C_ 0.552038 0.196856 0.66205 -0.08735
C_ C_ 0.591189 0.182276 0.680424 -0.05681
C_ C_ 0.640038 0.171329 0.668657 -0.05681
C_ C_ 0.643862 0.173344 0.637963 -0.05681
C_ C_ 0.690814 0.16002 0.626349 -0.05681
C_ C_ 0.72911 0.138341 0.642886 -0.08735
C_ C_ 0.719114 0.130822 0.672533 -0.08735
C_ C_ 0.678057 0.152687 0.686759 -0.05681
C_ C_ 0.66628 0.146854 0.716558 0.44287
C_ C_ 0.581854 0.174977 0.709932 0.44287
C_ C_ 0.607771 0.149182 0.757442 0.18498
C_ C_ 0.573915 0.108261 0.763425 -0.08735
C_ C_ 0.563029 0.0932259 0.791242 -0.08735
C_ C_ 0.583172 0.122139 0.814613 -0.08735
C_ C_ 0.61463 0.163501 0.80902 0.18498
C_ C_ 0.629096 0.173693 0.780563 -0.05681
C_ C_ 0.662485 0.213851 0.777153 -0.08735
C_ C_ 0.681589 0.240675 0.800075 -0.08735
C_ C_ 0.664252 0.231651 0.827099 0.1947
C_ C_ 0.758336 0.305091 0.651786 0.68181
C_ C_ 0.701436 0.311432 0.648127 -0.05681
C_ C_ 0.66789 0.305844 0.671444 -0.08735
C_ C_ 0.613104 0.31126 0.66866 -0.05681
C_ C_ 0.594171 0.327975 0.642727 -0.05681
C_ C_ 0.626435 0.338046 0.619047 -0.08735
C_ C_ 0.681268 0.328327 0.621486 -0.08735
C_ C_ 0.582782 0.314052 0.693574 -0.08735
C_ C_ 0.529617 0.31727 0.689612 -0.08735
C_ C_ 0.508324 0.329212 0.662112 -0.05681
C_ C_ 0.543603 0.339066 0.639843 -0.08735
C_ C_ 0.873196 0.21107 0.659246 0.68181
C_ C_ 0.842079 0.408516 0.648126 0.68181
C_ C_ 0.849331 0.465643 0.646104 -0.05681
C_ C_ 0.852379 -0.0034399999999999986 0.673238 -0.08735
C_ C_ 0.860895 0.0496829 0.670005 -0.05681
C_ C_ 0.875715 0.0708282 0.642711 -0.05681
C_ C_ 0.890501 0.0374753 0.621142 -0.08735
C_ C_ 0.870981 0.48782 0.621699 -0.08735
C_ C_ 0.85036 0.0833162 0.693051 -0.08735
C_ C_ 0.853573 0.135789 0.689621 -0.08735
C_ C_ 0.871327 0.155452 0.663296 -0.05681
C_ C_ 0.883294 0.122627 0.640053 -0.08735
C_ C_ 0.955331 0.314395 0.65815 0.68181
C_ C_ 0.884592 0.380785 0.727231 0.1947
C_ C_ 0.894022 0.402403 0.754678 -0.08735
C_ C_ 0.876909 0.378336 0.779073 -0.08735
C_ C_ 0.854028 0.330361 0.776063 -0.05681
C_ C_ 0.842657 0.309886 0.74803 0.18498
C_ C_ 0.820338 0.264283 0.745462 -0.08735
C_ C_ 0.814516 0.232075 0.76789 -0.08735
C_ C_ 0.821534 0.250713 0.795663 -0.08735
C_ C_ 0.841606 0.299349 0.800798 0.18498
C_ C_ 0.811551 0.320247 0.848567 0.44287
C_ C_ 0.898103 0.302079 0.842617 0.44287
C_ C_ 0.907687 0.302561 0.873883 -0.05681
C_ C_ 0.955905 0.29353 0.885782 -0.08735
C_ C_ 0.961549 0.293423 0.916037 -0.08735
C_ C_ 0.918353 0.307192 0.933275 -0.05681
C_ C_ 0.8718 0.321299 0.920762 -0.05681
C_ C_ 0.867092 0.318804 0.890814 -0.05681
C_ C_ 0.818368 0.32566 0.878607 -0.05681
C_ C_ 0.777337 0.338477 0.897508 -0.08735
C_ C_ 0.782981 0.338167 0.926388 -0.08735
C_ C_ 0.829552 0.329441 0.9381 -0.05681
C_ C_ 0.836679 0.331333 0.967308 0.44287
C_ C_ 0.922249 0.314661 0.963028 0.44287
C_ C_ 0.894525 0.333501 0.506638 0.18498
C_ C_ 0.931402 0.369549 0.514041 -0.08735
C_ C_ 0.944458 0.37881 0.543078 -0.08735
C_ C_ 0.917979 0.356418 0.56457 -0.08735
C_ C_ 0.880085 0.321143 0.558984 0.18498
C_ C_ 0.872373 0.305459 0.529235 -0.05681
C_ C_ 0.84867 0.256598 0.524812 -0.08735
C_ C_ 0.827711 0.230799 0.548468 -0.08735
C_ C_ 0.829382 0.252731 0.57582 0.1947
N_ N_ 0.628525 0.161634 0.978069 -0.29468
N_ N_ 0.657678 0.184316 0.579217 -0.17154
N_ N_ 0.620389 0.161328 0.727301 -0.17154
N_ N_ 0.631754 0.193561 0.832204 -0.29468
N_ N_ 0.860298 0.335145 0.7246 -0.29468
N_ N_ 0.850734 0.313089 0.831347 -0.17154
N_ N_ 0.883508 0.332193 0.978785 -0.17154
N_ N_ 0.859312 0.294234 0.581229 -0.29468
O_ O_ 0.71479 0.183268 0.930477 -0.58347
O_ O_ 0.706737 0.176556 0.882495 -0.58347
O_ O_ 0.630726 0.242996 0.931007 -0.58347
O_ O_ 0.631865 0.256627 0.885479 -0.58347
O_ O_ 0.647061 0.0958482 0.925409 -0.58347
O_ O_ 0.62911 0.104083 0.878327 -0.58347
O_ O_ 0.564601 0.152702 0.926938 -0.58347
O_ O_ 0.556832 0.185372 0.883396 -0.58347
O_ O_ 0.579125 0.221318 0.576197 -0.46727
O_ O_ 0.738449 0.154364 0.584141 -0.46727
O_ O_ 0.535412 0.18034 0.719735 -0.46727
O_ O_ 0.698259 0.12454 0.734056 -0.46727
O_ O_ 0.779477 0.302368 0.675974 -0.58347
O_ O_ 0.782437 0.303071 0.629137 -0.58347
O_ O_ 0.875014 0.241607 0.679874 -0.58347
O_ O_ 0.858327 0.227802 0.6354 -0.58347
O_ O_ 0.834524 0.387434 0.671989 -0.58347
O_ O_ 0.853583 0.381902 0.626301 -0.58347
O_ O_ 0.927776 0.33458 0.677129 -0.58347
O_ O_ 0.934268 0.303977 0.634011 -0.58347
O_ O_ 0.936892 0.299426 0.825089 -0.46727
O_ O_ 0.765322 0.317984 0.837692 -0.46727
O_ O_ 0.968905 0.31619 0.975042 -0.46727
O_ O_ 0.796173 0.334382 0.983302 -0.46727
Zn Zn 0.615742 0.684957 0.385563 0.90689
Zn Zn 0.629229 0.68638 0.432604 0.90689
Zn Zn 0.873795 0.819155 0.133119 0.90689
Zn Zn 0.865724 0.826766 0.181252 0.90689
H_ H_ 0.796968 0.671375 0.449374 0.11455
H_ H_ 0.859473 0.680073 0.349429 0.11455
H_ H_ 0.770532 0.687056 0.358804 0.11455
H_ H_ 0.881481 0.656453 0.464567 0.11455
H_ H_ 0.973387 0.66385 0.456096 0.11455
H_ H_ 0.949642 0.687791 0.367369 0.11455
H_ H_ 0.628228 0.51707 0.444188 0.11455
H_ H_ 0.590672 0.937371 0.35279 0.11455
H_ H_ 0.617179 0.528793 0.353505 0.11455
H_ H_ 0.672552 0.936449 0.462965 0.11455
H_ H_ 0.64429 0.841911 0.463635 0.11455
H_ H_ 0.587899 0.852986 0.378925 0.11455
H_ H_ 0.566306 0.625781 0.466255 0.11455
H_ H_ 0.571864 0.579195 0.0265419 0.11455
H_ H_ 0.612553 0.634016 0.0656679 0.11455
H_ H_ 0.696648 0.740022 0.477833 0.11455
H_ H_ 0.730645 0.801661 0.0159323 0.11455
H_ H_ 0.707878 0.786992 0.0650497 0.11455
H_ H_ 0.519603 0.708796 0.125529 0.11455
H_ H_ 0.503357 0.697117 0.174084 0.11455
H_ H_ 0.766675 0.676321 0.14671 0.11455
H_ H_ 0.754425 0.672458 0.199645 0.11455
H_ H_ 0.55641 0.596948 0.250085 0.11455
H_ H_ 0.537053 0.563961 0.3012 0.11455
H_ H_ 0.566547 0.618228 0.342799 0.11455
H_ H_ 0.652665 0.754183 0.264926 0.11455
H_ H_ 0.687846 0.78664 0.305717 0.11455
H_ H_ 0.668768 0.761473 0.352942 0.11455
H_ H_ 0.693503 0.816386 0.19239 0.11455
H_ H_ 0.630709 0.844982 0.0937024 0.11455
H_ H_ 0.726028 0.854231 0.104849 0.11455
H_ H_ 0.611336 0.845501 0.210565 0.11455
H_ H_ 0.517648 0.84678 0.201799 0.11455
H_ H_ 0.540766 0.83692 0.110378 0.11455
H_ H_ 0.872779 0.989246 0.195392 0.11455
H_ H_ 0.86903 0.571815 0.0942316 0.11455
H_ H_ 0.856053 0.983803 0.104808 0.11455
H_ H_ 0.873064 0.573599 0.21258 0.11455
H_ H_ 0.880731 0.668194 0.208216 0.11455
H_ H_ 0.875291 0.656025 0.116256 0.11455
H_ H_ 0.92906 0.897228 0.217116 0.11455
H_ H_ 0.956832 0.909638 0.265304 0.11455
H_ H_ 0.921349 0.860516 0.303666 0.11455
H_ H_ 0.803213 0.769218 0.222925 0.11455
H_ H_ 0.774508 0.7112 0.261799 0.11455
H_ H_ 0.800882 0.725265 0.31076 0.11455
H_ H_ 0.991117 0.789217 0.375266 0.11455
H_ H_ -0.003178000000000014 0.802439 0.430092 0.11455
H_ H_ 0.739114 0.835793 0.387005 0.11455
H_ H_ 0.74903 0.843758 0.439127 0.11455
H_ H_ 0.925623 0.911201 0.501323 0.11455
H_ H_ 0.967524 0.931215 0.048219 0.11455
H_ H_ 0.926525 0.884277 0.0888937 0.11455
H_ H_ 0.872671 0.740524 0.0100269 0.11455
H_ H_ 0.818407 0.704904 0.0476582 0.11455
H_ H_ 0.82498 0.73928 0.0953861 0.11455
C_ C_ 0.720191 0.689984 0.409929 0.68181
C_ C_ 0.775732 0.689303 0.405175 -0.05681
C_ C_ 0.811083 0.678264 0.427619 -0.08735
C_ C_ 0.861858 0.671969 0.42127 -0.05681
C_ C_ 0.88069 0.674104 0.393355 -0.05681
C_ C_ 0.845754 0.679084 0.370775 -0.08735
C_ C_ 0.794845 0.686374 0.376609 -0.08735
C_ C_ 0.895394 0.667446 0.443816 -0.08735
C_ C_ 0.947377 0.664156 0.437679 -0.08735
C_ C_ 0.964907 0.67486 0.411215 -0.05681
C_ C_ 0.932019 0.677483 0.388065 -0.08735
C_ C_ 0.622021 0.784691 0.416567 0.68181
C_ C_ 0.618838 0.585597 0.402048 0.68181
C_ C_ 0.616329 0.530512 0.399929 -0.05681
C_ C_ 0.63966 1.00112 0.422174 -0.08735
C_ C_ 0.63294 0.947743 0.422416 -0.05681
C_ C_ 0.609425 0.924088 0.397564 -0.05681
C_ C_ 0.597835 0.953166 0.373731 -0.08735
C_ C_ 0.601193 1.00533715 0.374532 -0.08735
C_ C_ 0.649571 0.917473 0.44547 -0.08735
C_ C_ 0.641905 0.863179 0.444718 -0.08735
C_ C_ 0.619152 0.841452 0.420782 -0.05681
C_ C_ 0.605276 0.87236 0.396974 -0.08735
C_ C_ 0.523885 0.689408 0.409811 0.68181
C_ C_ 0.585629 0.640039 0.484662 0.1947
C_ C_ 0.597049 0.614063 0.0213325 -0.08735
C_ C_ 0.622782 0.640175 0.042832 -0.08735
C_ C_ 0.652937 0.683034 0.0363877 -0.05681
C_ C_ 0.664669 0.692051 1.0071406999999999 0.18498
C_ C_ 0.683309 0.731989 0.499106 -0.08735
C_ C_ 0.708769 0.768873 0.0211516 -0.08735
C_ C_ 0.693684 0.761189 0.0490757 -0.08735
C_ C_ 0.669231 0.716823 0.057744 0.18498
C_ C_ 0.699335 0.70126 0.106954 0.44287
C_ C_ 0.612532 0.717487 0.0985096 0.44287
C_ C_ 0.602824 0.710979 0.127594 -0.05681
C_ C_ 0.551494 0.708156 0.138571 -0.08735
C_ C_ 0.54147 0.699436 0.168175 -0.08735
C_ C_ 0.580717 0.690487 0.187765 -0.05681
C_ C_ 0.630524 0.68937 0.177044 -0.05681
C_ C_ 0.642148 0.69916 0.147526 -0.05681
C_ C_ 0.691927 0.698107 0.137193 -0.05681
C_ C_ 0.730701 0.685711 0.156206 -0.08735
C_ C_ 0.721946 0.676967 0.184809 -0.08735
C_ C_ 0.670279 0.679187 0.195333 -0.05681
C_ C_ 0.658659 0.676526 0.225469 0.44287
C_ C_ 0.571953 0.690027 0.217352 0.44287
C_ C_ 0.599971 0.659061 0.26418 0.18498
C_ C_ 0.570522 0.61533 0.2689 -0.08735
C_ C_ 0.557789 0.600115 0.296865 -0.08735
C_ C_ 0.573961 0.629534 0.320588 -0.08735
C_ C_ 0.601625 0.673776 0.3159 0.18498
C_ C_ 0.61276 0.689802 0.288335 -0.05681
C_ C_ 0.643843 0.734011 0.284957 -0.08735
C_ C_ 0.663234 0.757298 0.308106 -0.08735
C_ C_ 0.650156 0.740341 0.335448 0.1947
C_ C_ 0.771001 0.818958 0.153638 0.68181
C_ C_ 0.715111 0.828683 0.14827 -0.05681
C_ C_ 0.680237 0.829741 0.171668 -0.08735
C_ C_ 0.627003 0.835885 0.166399 -0.05681
C_ C_ 0.608219 0.832281 0.137502 -0.05681
C_ C_ 0.643172 0.838035 0.114824 -0.08735
C_ C_ 0.69595 0.841335 0.120781 -0.08735
C_ C_ 0.595834 0.842411 0.188102 -0.08735
C_ C_ 0.542685 0.84099 0.1843 -0.08735
C_ C_ 0.522124 0.833863 0.155788 -0.05681
C_ C_ 0.555402 0.83229 0.132579 -0.08735
C_ C_ 0.871597 0.724795 0.161466 0.68181
C_ C_ 0.870093 0.924599 0.15212 0.68181
C_ C_ 0.876988 0.979111 0.149464 -0.05681
C_ C_ 0.87164 0.506427 0.167501 -0.08735
C_ C_ 0.872388 0.560377 0.166696 -0.05681
C_ C_ 0.875453 0.584248 0.139594 -0.05681
C_ C_ 0.873784 0.552942 0.114831 -0.08735
C_ C_ 0.871468 1.00435003 0.123535 -0.08735
C_ C_ 0.87692 0.591398 0.191588 -0.08735
C_ C_ 0.873253 0.644792 0.189403 -0.08735
C_ C_ 0.872366 0.667763 0.16271 -0.05681
C_ C_ 0.877275 0.637046 0.137438 -0.08735
C_ C_ 0.969872 0.826715 0.159327 0.68181
C_ C_ 0.90945 0.87469 0.234082 0.1947
C_ C_ 0.924322 0.884243 0.262354 -0.08735
C_ C_ 0.902659 0.858921 0.284749 -0.08735
C_ C_ 0.867967 0.8204 0.279274 -0.05681
C_ C_ 0.849772 0.814494 0.250939 0.18498
C_ C_ 0.81311 0.778986 0.245751 -0.08735
C_ C_ 0.797097 0.745194 0.266777 -0.08735
C_ C_ 0.811781 0.752225 0.294843 -0.08735
C_ C_ 0.845183 0.791191 0.30272 0.18498
C_ C_ 0.813534 0.815471 0.348681 0.44287
C_ C_ 0.903142 0.796434 0.345901 0.44287
C_ C_ 0.90879 0.802184 0.375246 -0.05681
C_ C_ 0.957942 0.799433 0.388487 -0.08735
C_ C_ 0.960438 0.804687 0.41913 -0.08735
C_ C_ 0.91632 0.808746 0.436262 -0.05681
C_ C_ 0.869652 0.812512 0.423013 -0.05681
C_ C_ 0.864841 0.810541 0.391985 -0.05681
C_ C_ 0.818231 0.81727 0.378837 -0.05681
C_ C_ 0.777878 0.834076 0.396616 -0.08735
C_ C_ 0.781776 0.832477 0.426735 -0.08735
C_ C_ 0.829288 0.825691 0.440002 -0.05681
C_ C_ 0.83277 0.827437 0.469802 0.44287
C_ C_ 0.919502 0.813168 0.466287 0.44287
C_ C_ 0.910145 0.837272 0.0106994 0.18498
C_ C_ 0.941675 0.877806 0.0170756 -0.08735
C_ C_ 0.946643 0.897393 0.043924 -0.08735
C_ C_ 0.923572 0.871536 0.0669893 -0.08735
C_ C_ 0.898697 0.825055 0.0618359 0.18498
C_ C_ 0.89124 0.808086 0.0343193 -0.05681
C_ C_ 0.870434 0.758843 0.0314563 -0.08735
C_ C_ 0.841171 0.738461 0.0521581 -0.08735
C_ C_ 0.844325 0.760285 0.0787329 0.1947
N_ N_ 0.623419 0.675416 0.480727 -0.29468
N_ N_ 0.660573 0.709372 0.0885779 -0.17154
N_ N_ 0.61043 0.676624 0.234949 -0.17154
N_ N_ 0.622064 0.69786 0.339597 -0.29468
N_ N_ 0.873064 0.840334 0.228752 -0.29468
N_ N_ 0.856205 0.801018 0.333311 -0.17154
N_ N_ 0.878901 0.825059 0.482257 -0.17154
N_ N_ 0.873112 0.802158 0.0849404 -0.29468
O_ O_ 0.701759 0.678371 0.434582 -0.58347
O_ O_ 0.691439 0.696992 0.388375 -0.58347
O_ O_ 0.638873 0.75955 0.436831 -0.58347
O_ O_ 0.602504 0.761698 0.394673 -0.58347
O_ O_ 0.619633 0.606116 0.427306 -0.58347
O_ O_ 0.626877 0.611561 0.380487 -0.58347
O_ O_ 0.551417 0.693598 0.431176 -0.58347
O_ O_ 0.540465 0.673217 0.385725 -0.58347
O_ O_ 0.575604 0.729981 0.0806319 -0.46727
O_ O_ 0.74581 0.692814 0.0962339 -0.46727
O_ O_ 0.524048 0.690539 0.227434 -0.46727
O_ O_ 0.69588 0.667164 0.244026 -0.46727
O_ O_ 0.78858 0.821338 0.178573 -0.58347
O_ O_ 0.800421 0.818939 0.132626 -0.58347
O_ O_ 0.866499 0.750113 0.184328 -0.58347
O_ O_ 0.872769 0.74494 0.137265 -0.58347
O_ O_ 0.865701 0.900939 0.175575 -0.58347
O_ O_ 0.873329 0.896933 0.129241 -0.58347
O_ O_ 0.942582 0.830516 0.181064 -0.58347
O_ O_ 0.951446 0.815979 0.134556 -0.58347
O_ O_ 0.940671 0.780081 0.330247 -0.46727
O_ O_ 0.769615 0.827997 0.335636 -0.46727
O_ O_ 0.962198 0.797142 0.477701 -0.46727
O_ O_ 0.791648 0.835381 0.484901 -0.46727
Zn Zn 0.637732 0.675835 0.887783 0.90689
Zn Zn 0.646918 0.670929 0.935818 0.90689
Zn Zn 0.880037 0.805771 0.632876 0.90689
Zn Zn 0.865938 0.81537 0.682071 0.90689
H_ H_ 0.814414 0.687165 0.949516 0.11455
H_ H_ 0.885232 0.659792 0.851345 0.11455
H_ H_ 0.787956 0.674016 0.859127 0.11455
H_ H_ 0.9059 0.686852 0.968633 0.11455
H_ H_ 0.99509 0.680919 0.959593 0.11455
H_ H_ 0.967695 0.652804 0.87075 0.11455
H_ H_ 0.649361 0.500842 0.953602 0.11455
H_ H_ 0.649996 0.92494 0.846473 0.11455
H_ H_ 0.629976 0.518224 0.86083 0.11455
H_ H_ 0.663939 0.92187 0.963669 0.11455
H_ H_ 0.648602 0.833297 0.962921 0.11455
H_ H_ 0.636545 0.843086 0.870128 0.11455
H_ H_ 0.584586 0.611107 0.975596 0.11455
H_ H_ 0.553245 0.585445 0.512153 0.11455
H_ H_ 0.595881 0.621882 0.556613 0.11455
H_ H_ 0.705508 0.742262 0.977986 0.11455
H_ H_ 0.736635 0.782423 0.518816 0.11455
H_ H_ 0.701443 0.76774 0.569105 0.11455
H_ H_ 0.519263 0.712846 0.626706 0.11455
H_ H_ 0.509425 0.718739 0.681102 0.11455
H_ H_ 0.764314 0.661465 0.642116 0.11455
H_ H_ 0.752465 0.648015 0.691904 0.11455
H_ H_ 0.5689 0.589774 0.753063 0.11455
H_ H_ 0.554956 0.557558 0.801959 0.11455
H_ H_ 0.585621 0.612474 0.84295 0.11455
H_ H_ 0.658234 0.744628 0.762888 0.11455
H_ H_ 0.685266 0.798149 0.805083 0.11455
H_ H_ 0.690072 0.753825 0.851328 0.11455
H_ H_ 0.693331 0.798517 0.692888 0.11455
H_ H_ 0.63426 0.83882 0.594945 0.11455
H_ H_ 0.723724 0.818481 0.601967 0.11455
H_ H_ 0.609533 0.806901 0.70947 0.11455
H_ H_ 0.514909 0.820278 0.70105 0.11455
H_ H_ 0.547101 0.835756 0.610706 0.11455
H_ H_ 0.831972 0.983186 0.691302 0.11455
H_ H_ 0.897639 0.555237 0.601513 0.11455
H_ H_ 0.891815 0.960991 0.60726 0.11455
H_ H_ 0.829468 0.568861 0.713194 0.11455
H_ H_ 0.84561 0.662662 0.708277 0.11455
H_ H_ 0.898714 0.639685 0.623166 0.11455
H_ H_ 0.914413 0.89475 0.71981 0.11455
H_ H_ 0.91927 0.924269 0.766615 0.11455
H_ H_ 0.900062 0.872456 0.808226 0.11455
H_ H_ 0.81023 0.746782 0.725295 0.11455
H_ H_ 0.770789 0.700629 0.766109 0.11455
H_ H_ 0.796728 0.721163 0.816357 0.11455
H_ H_ 0.992059 0.782505 0.872756 0.11455
H_ H_ 1.00511115 0.796697 0.923101 0.11455
H_ H_ 0.740099 0.82119 0.892227 0.11455
H_ H_ 0.757121 0.843751 0.942846 0.11455
H_ H_ 0.961775 0.894843 0.999863019 0.11455
H_ H_ 0.946567 0.933805 0.55121 0.11455
H_ H_ 0.929291 0.86889 0.591154 0.11455
H_ H_ 0.843085 0.748501 0.5101 0.11455
H_ H_ 0.810324 0.697024 0.551596 0.11455
H_ H_ 0.825402 0.727508 0.59977 0.11455
C_ C_ 0.738729 0.681405 0.909676 0.68181
C_ C_ 0.7959 0.679728 0.90431 -0.05681
C_ C_ 0.831043 0.686039 0.928473 -0.08735
C_ C_ 0.882344 0.677018 0.924064 -0.05681
C_ C_ 0.900078 0.667318 0.896736 -0.05681
C_ C_ 0.86647 0.661319 0.873035 -0.08735
C_ C_ 0.813902 0.669338 0.876512 -0.08735
C_ C_ 0.916997 0.681116 0.947293 -0.08735
C_ C_ 0.969533 0.675924 0.942269 -0.08735
C_ C_ 0.986749 0.666069 0.914725 -0.05681
C_ C_ 0.952656 0.663053 0.892219 -0.08735
C_ C_ 0.642073 0.77263 0.914649 0.68181
C_ C_ 0.64235 0.574128 0.909496 0.68181
C_ C_ 0.639621 0.51906 0.907201 -0.05681
C_ C_ 0.642417 -0.010156999999999972 0.921776 -0.08735
C_ C_ 0.645008 0.936914 0.919628 -0.05681
C_ C_ 0.645395 0.913077 0.891972 -0.05681
C_ C_ 0.651585 0.943949 0.867009 -0.08735
C_ C_ 0.646677 -0.0009029999999999871 0.869407 -0.08735
C_ C_ 0.651681 0.906079 0.943811 -0.08735
C_ C_ 0.64871 0.854492 0.942545 -0.08735
C_ C_ 0.63853 0.829641 0.915975 -0.05681
C_ C_ 0.638915 0.860572 0.890701 -0.08735
C_ C_ 0.543952 0.674984 0.912877 0.68181
C_ C_ 0.606199 0.629245 0.992297 0.1947
C_ C_ 0.577569 0.617999 0.511199 -0.08735
C_ C_ 0.601977 0.637432 0.535145 -0.08735
C_ C_ 0.63843 0.675279 0.532176 -0.05681
C_ C_ 0.647059 0.696166 0.503963 0.18498
C_ C_ 0.69611 0.73204 1.00017 -0.08735
C_ C_ 0.709258 0.75162 0.52307 -0.08735
C_ C_ 0.687832 0.745106 0.550875 -0.08735
C_ C_ 0.660219 0.700282 0.556673 0.18498
C_ C_ 0.688911 0.670366 0.602427 0.44287
C_ C_ 0.605277 0.696525 0.598157 0.44287
C_ C_ 0.596505 0.694294 0.627422 -0.05681
C_ C_ 0.547149 0.700831 0.639983 -0.08735
C_ C_ 0.543599 0.704795 0.670571 -0.08735
C_ C_ 0.585197 0.693664 0.688488 -0.05681
C_ C_ 0.631982 0.679275 0.675532 -0.05681
C_ C_ 0.636773 0.679978 0.644845 -0.05681
C_ C_ 0.684916 0.670738 0.632221 -0.05681
C_ C_ 0.727495 0.664537 0.650258 -0.08735
C_ C_ 0.718837 0.654785 0.67912 -0.08735
C_ C_ 0.672715 0.665283 0.692602 -0.05681
C_ C_ 0.665547 0.663827 0.722474 0.44287
C_ C_ 0.578073 0.686703 0.718507 0.44287
C_ C_ 0.608243 0.656063 0.764756 0.18498
C_ C_ 0.580238 0.612761 0.770355 -0.08735
C_ C_ 0.571703 0.59701 0.798005 -0.08735
C_ C_ 0.589934 0.626304 0.821599 -0.08735
C_ C_ 0.62302 0.666338 0.816724 0.18498
C_ C_ 0.630692 0.683295 0.788471 -0.05681
C_ C_ 0.65306 0.731711 0.784481 -0.08735
C_ C_ 0.670122 0.759389 0.807896 -0.08735
C_ C_ 0.668621 0.736502 0.835117 0.1947
C_ C_ 0.775046 0.811965 0.655422 0.68181
C_ C_ 0.719394 0.815145 0.648305 -0.05681
C_ C_ 0.683821 0.813463 0.671473 -0.08735
C_ C_ 0.631402 0.822627 0.666001 -0.05681
C_ C_ 0.614438 0.827502 0.637574 -0.05681
C_ C_ 0.649283 0.831801 0.615691 -0.08735
C_ C_ 0.70057 0.824694 0.620515 -0.08735
C_ C_ 0.597103 0.816701 0.687973 -0.08735
C_ C_ 0.543956 0.823132 0.682692 -0.08735
C_ C_ 0.525238 0.826388 0.655467 -0.05681
C_ C_ 0.560335 0.829968 0.632427 -0.08735
C_ C_ 0.880459 0.71238 0.660835 0.68181
C_ C_ 0.861588 0.906372 0.653924 0.68181
C_ C_ 0.865699 0.963996 0.650676 -0.05681
C_ C_ 0.836777 0.499573 0.6694 -0.08735
C_ C_ 0.848803 0.55156 0.668814 -0.05681
C_ C_ 0.876642 0.57013 0.645536 -0.05681
C_ C_ 0.885209 0.539332 0.621523 -0.08735
C_ C_ 0.88389 0.984597 0.624201 -0.08735
C_ C_ 0.839672 0.585107 0.692161 -0.08735
C_ C_ 0.852226 0.636885 0.690073 -0.08735
C_ C_ 0.875784 0.6552 0.664704 -0.05681
C_ C_ 0.886582 0.622038 0.643216 -0.08735
C_ C_ 0.971397 0.827176 0.659397 0.68181
C_ C_ 0.901754 0.866915 0.736746 0.1947
C_ C_ 0.905004 0.885793 0.76348 -0.08735
C_ C_ 0.892377 0.858135 0.786761 -0.08735
C_ C_ 0.86649 0.811716 0.782404 -0.05681
C_ C_ 0.854149 0.797423 0.752977 0.18498
C_ C_ 0.82238 0.756236 0.747316 -0.08735
C_ C_ 0.801387 0.729814 0.769697 -0.08735
C_ C_ 0.811715 0.744833 0.798496 -0.08735
C_ C_ 0.843838 0.783461 0.80491 0.18498
C_ C_ 0.814427 0.811337 0.850909 0.44287
C_ C_ 0.901946 0.791764 0.845974 0.44287
C_ C_ 0.90827 0.795978 0.875735 -0.05681
C_ C_ 0.957972 0.790694 0.886112 -0.08735
C_ C_ 0.966229 0.798856 0.914827 -0.08735
C_ C_ 0.924923 0.803398 0.933931 -0.05681
C_ C_ 0.875447 0.812852 0.923307 -0.05681
C_ C_ 0.867827 0.808122 0.894215 -0.05681
C_ C_ 0.818549 0.812614 0.881744 -0.05681
C_ C_ 0.778086 0.828132 0.899144 -0.08735
C_ C_ 0.786579 0.834109 0.928794 -0.08735
C_ C_ 0.836818 0.826802 0.940599 -0.05681
C_ C_ 0.849563 0.832994 0.969919 0.44287
C_ C_ 0.935022 0.809337 0.961888 0.44287
C_ C_ 0.886052 0.839744 0.511893 0.18498
C_ C_ 0.914089 0.885604 0.518704 -0.08735
C_ C_ 0.926983 0.898552 0.546807 -0.08735
C_ C_ 0.9135 0.865717 0.569472 -0.08735
C_ C_ 0.885015 0.820689 0.563903 0.18498
C_ C_ 0.875644 0.805164 0.535572 -0.05681
C_ C_ 0.852676 0.75877 0.531441 -0.08735
C_ C_ 0.833278 0.732672 0.555217 -0.08735
C_ C_ 0.841253 0.748551 0.5824 0.1947
N_ N_ 0.638825 0.66622 0.985235 -0.29468
N_ N_ 0.64974 0.684049 0.585848 -0.17154
N_ N_ 0.617018 0.670624 0.735068 -0.17154
N_ N_ 0.644315 0.690773 0.839643 -0.29468
N_ N_ 0.869604 0.828349 0.730815 -0.29468
N_ N_ 0.854206 0.797487 0.834355 -0.17154
N_ N_ 0.897657 0.825262 0.980741 -0.17154
N_ N_ 0.866701 0.794366 0.587567 -0.29468
O_ O_ 0.722066 0.661991 0.93274 -0.58347
O_ O_ 0.710747 0.68637 0.88806 -0.58347
O_ O_ 0.652082 0.747368 0.936803 -0.58347
O_ O_ 0.630459 0.749946 0.891719 -0.58347
O_ O_ 0.636939 0.596083 0.933453 -0.58347
O_ O_ 0.646948 0.59962 0.886158 -0.58347
O_ O_ 0.57249 0.678433 0.934228 -0.58347
O_ O_ 0.563042 0.668323 0.888461 -0.58347
O_ O_ 0.572883 0.721274 0.581999 -0.46727
O_ O_ 0.734665 0.662572 0.590987 -0.46727
O_ O_ 0.533395 0.688774 0.730151 -0.46727
O_ O_ 0.703153 0.649008 0.738622 -0.46727
O_ O_ 0.788089 0.80963 0.680904 -0.58347
O_ O_ 0.807145 0.797049 0.635724 -0.58347
O_ O_ 0.879637 0.741319 0.682944 -0.58347
O_ O_ 0.888639 0.729339 0.635729 -0.58347
O_ O_ 0.856748 0.886871 0.678556 -0.58347
O_ O_ 0.8695 0.879614 0.631704 -0.58347
O_ O_ 0.943575 0.824778 0.68041 -0.58347
O_ O_ 0.953893 0.819675 0.634275 -0.58347
O_ O_ 0.939212 0.775901 0.829916 -0.46727
O_ O_ 0.769506 0.822688 0.8387 -0.46727
O_ O_ 0.979702 0.803397 0.972887 -0.46727
O_ O_ 0.813037 0.845057 0.987882 -0.46727
_cell_length_a 26.376
_cell_length_b 26.400000238300095
_cell_length_c 46.67800035477134
_cell_angle_alpha 90.00700052986613
_cell_angle_beta 89.99899961309502
_cell_angle_gamma 90.45000003183146
_symmetry_space_group_name_H-M         'P 1'
_symmetry_Int_Tables_number            1
loop_
_symmetry_equiv_pos_as_xyz
   'x, y, z'
                         
loop_
_atom_site_label
_atom_site_type_symbol
_atom_site_fract_x 
_atom_site_fract_y
_atom_site_fract_z
_atom_site_charge
Zn Zn 0.122393 0.182338 0.379769 0.90689
Zn Zn 0.139747 0.176457 0.426164 0.90689
Zn Zn 0.37259 0.317855 0.133011 0.90689
Zn Zn 0.366559 0.322843 0.180675 0.90689
H_ H_ 0.302269 0.217656 0.43722 0.11455
H_ H_ 0.370406 0.17587 0.340285 0.11455
H_ H_ 0.279167 0.167192 0.349983 0.11455
H_ H_ 0.389029 0.213272 0.455995 0.11455
H_ H_ 0.479363 0.216069 0.445159 0.11455
H_ H_ 0.460815 0.181398 0.359621 0.11455
H_ H_ 0.17127 0.00466058 0.430298 0.11455
H_ H_ 0.118909 0.433604 0.350998 0.11455
H_ H_ 0.0688971 0.0243115 0.357403 0.11455
H_ H_ 0.134039 0.425552 0.468518 0.11455
H_ H_ 0.136942 0.335389 0.461247 0.11455
H_ H_ 0.131085 0.350565 0.371182 0.11455
H_ H_ 0.0854465 0.106543 0.45917 0.11455
H_ H_ 0.0888263 0.0651125 0.0146255 0.11455
H_ H_ 0.116063 0.123819 0.0545695 0.11455
H_ H_ 0.198917 0.237971 0.472866 0.11455
H_ H_ 0.222373 0.303365 0.0103575 0.11455
H_ H_ 0.186022 0.291159 0.0595661 0.11455
H_ H_ 0.0193264 0.232529 0.12321 0.11455
H_ H_ 0.00639534 0.216925 0.172755 0.11455
H_ H_ 0.265076 0.183084 0.136514 0.11455
H_ H_ 0.253682 0.147551 0.185329 0.11455
H_ H_ 0.0814084 0.0865144 0.243049 0.11455
H_ H_ 0.0771716 0.0504555 0.292969 0.11455
H_ H_ 0.0802495 0.112656 0.333663 0.11455
H_ H_ 0.171316 0.241831 0.258226 0.11455
H_ H_ 0.184177 0.300425 0.301895 0.11455
H_ H_ 0.172257 0.257292 0.347913 0.11455
H_ H_ 0.194909 0.309484 0.195346 0.11455
H_ H_ 0.125605 0.345612 0.0978725 0.11455
H_ H_ 0.219584 0.339457 0.105855 0.11455
H_ H_ 0.113457 0.310601 0.214798 0.11455
H_ H_ 0.0227654 0.31725 0.209265 0.11455
H_ H_ 0.0414219 0.337518 0.118718 0.11455
H_ H_ 0.350385 0.489237 0.19039 0.11455
H_ H_ 0.351729 0.0743769 0.102932 0.11455
H_ H_ 0.379168 0.480695 0.0984066 0.11455
H_ H_ 0.383324 0.0690579 0.21787 0.11455
H_ H_ 0.374416 0.162044 0.217001 0.11455
H_ H_ 0.363363 0.156218 0.1256 0.11455
H_ H_ 0.41194 0.407496 0.214555 0.11455
H_ H_ 0.429074 0.434872 0.262444 0.11455
H_ H_ 0.379591 0.398204 0.30375 0.11455
H_ H_ 0.30638 0.263828 0.227258 0.11455
H_ H_ 0.283387 0.208057 0.265827 0.11455
H_ H_ 0.28526 0.247734 0.315195 0.11455
H_ H_ 0.471713 0.305409 0.369828 0.11455
H_ H_ 0.489246 0.30993 0.420479 0.11455
H_ H_ 0.228863 0.348003 0.390355 0.11455
H_ H_ 0.240525 0.349128 0.444116 0.11455
H_ H_ 0.428429 0.419429 0.502547 0.11455
H_ H_ 0.457887 0.432041 0.0486162 0.11455
H_ H_ 0.432343 0.37942 0.0893204 0.11455
H_ H_ 0.326445 0.266988 0.00931188 0.11455
H_ H_ 0.286845 0.226606 0.0509964 0.11455
H_ H_ 0.318624 0.241902 0.100663 0.11455
C_ C_ 0.229147 0.190722 0.399531 0.68181
C_ C_ 0.284308 0.1913 0.39438 -0.05681
C_ C_ 0.317651 0.200641 0.417148 -0.08735
C_ C_ 0.370298 0.198298 0.411564 -0.05681
C_ C_ 0.391699 0.191241 0.383795 -0.05681
C_ C_ 0.355323 0.180474 0.362115 -0.08735
C_ C_ 0.304897 0.179342 0.366873 -0.08735
C_ C_ 0.40439 0.20711 0.434556 -0.08735
C_ C_ 0.457009 0.196686 0.431 -0.08735
C_ C_ 0.477022 0.187896 0.404093 -0.05681
C_ C_ 0.444433 0.18492 0.380359 -0.08735
C_ C_ 0.122352 0.279691 0.41331 0.68181
C_ C_ 0.135947 0.0797761 0.394874 0.68181
C_ C_ 0.125835 0.0253474 0.393377 -0.05681
C_ C_ 0.12574 0.497038 0.424497 -0.08735
C_ C_ 0.127605 0.443739 0.421742 -0.05681
C_ C_ 0.125468 0.42196 0.395245 -0.05681
C_ C_ 0.121657 0.452472 0.371216 -0.08735
C_ C_ 0.115698 0.505841 0.373726 -0.08735
C_ C_ 0.1325 0.411301 0.446926 -0.08735
C_ C_ 0.13234 0.358534 0.443742 -0.08735
C_ C_ 0.124513 0.334997 0.416441 -0.05681
C_ C_ 0.12364 0.36752 0.39269 -0.08735
C_ C_ 0.030584 0.176713 0.407523 0.68181
C_ C_ 0.106395 0.120481 0.477013 0.1947
C_ C_ 0.105137 0.103929 0.0103687 -0.08735
C_ C_ 0.117169 0.135933 0.0327762 -0.08735
C_ C_ 0.142884 0.18113 0.0270947 -0.05681
C_ C_ 0.156839 0.193228 0.997858 0.18498
C_ C_ 0.185192 0.230146 0.492506 -0.08735
C_ C_ 0.194431 0.274737 0.0152326 -0.08735
C_ C_ 0.175291 0.263102 0.0424033 -0.08735
C_ C_ 0.156345 0.215714 0.0496107 0.18498
C_ C_ 0.189274 0.18664 0.0961776 0.44287
C_ C_ 0.106662 0.221636 0.0929769 0.44287
C_ C_ 0.0978902 0.209524 0.12287 -0.05681
C_ C_ 0.0500358 0.218884 0.135668 -0.08735
C_ C_ 0.0430142 0.20631 0.163845 -0.08735
C_ C_ 0.0853742 0.194063 0.180841 -0.05681
C_ C_ 0.130746 0.181338 0.168445 -0.05681
C_ C_ 0.137857 0.191873 0.139037 -0.05681
C_ C_ 0.185941 0.184299 0.126739 -0.05681
C_ C_ 0.227587 0.177067 0.145185 -0.08735
C_ C_ 0.220813 0.161651 0.17355 -0.08735
C_ C_ 0.172376 0.16484 0.18518 -0.05681
C_ C_ 0.166065 0.163043 0.21562 0.44287
C_ C_ 0.0790895 0.184014 0.210157 0.44287
C_ C_ 0.10882 0.157945 0.257396 0.18498
C_ C_ 0.0871345 0.111118 0.262212 -0.08735
C_ C_ 0.0813274 0.0911192 0.289721 -0.08735
C_ C_ 0.0939817 0.120362 0.313251 -0.08735
C_ C_ 0.110012 0.172386 0.309945 0.18498
C_ C_ 0.122045 0.190711 0.281119 -0.05681
C_ C_ 0.151554 0.236016 0.277927 -0.08735
C_ C_ 0.164624 0.262835 0.302556 -0.08735
C_ C_ 0.151094 0.244007 0.33032 0.1947
C_ C_ 0.269131 0.316485 0.152667 0.68181
C_ C_ 0.211753 0.313289 0.149203 -0.05681
C_ C_ 0.181314 0.31201 0.172922 -0.08735
C_ C_ 0.129277 0.322626 0.169452 -0.05681
C_ C_ 0.108944 0.33666 0.143188 -0.05681
C_ C_ 0.140974 0.338456 0.119698 -0.08735
C_ C_ 0.192269 0.331386 0.123855 -0.08735
C_ C_ 0.0975868 0.318697 0.19381 -0.08735
C_ C_ 0.0453566 0.323355 0.19058 -0.08735
C_ C_ 0.0237022 0.330029 0.162904 -0.05681
C_ C_ 0.0572391 0.335477 0.139623 -0.08735
C_ C_ 0.375026 0.222673 0.167241 0.68181
C_ C_ 0.359013 0.420178 0.148441 0.68181
C_ C_ 0.361713 0.475515 0.144987 -0.05681
C_ C_ 0.382125 0.00350147 0.172097 -0.08735
C_ C_ 0.382794 0.0583564 0.172426 -0.05681
C_ C_ 0.377931 0.0825986 0.146705 -0.05681
C_ C_ 0.364184 0.0548695 0.121929 -0.08735
C_ C_ 0.376061 0.500054 0.119114 -0.08735
C_ C_ 0.383787 0.0869914 0.197447 -0.08735
C_ C_ 0.379169 0.139653 0.19677 -0.08735
C_ C_ 0.378798 0.166023 0.170068 -0.05681
C_ C_ 0.378684 0.13754 0.145339 -0.08735
C_ C_ 0.468754 0.33096 0.15747 0.68181
C_ C_ 0.394052 0.386262 0.231718 0.1947
C_ C_ 0.401026 0.405494 0.259086 -0.08735
C_ C_ 0.375645 0.384637 0.283008 -0.08735
C_ C_ 0.350844 0.339319 0.279107 -0.05681
C_ C_ 0.341853 0.321852 0.25081 0.18498
C_ C_ 0.311678 0.278077 0.247114 -0.08735
C_ C_ 0.3006 0.245903 0.269315 -0.08735
C_ C_ 0.302566 0.26784 0.297548 -0.08735
C_ C_ 0.327515 0.313003 0.302868 0.18498
C_ C_ 0.297911 0.333568 0.351472 0.44287
C_ C_ 0.385891 0.318217 0.343842 0.44287
C_ C_ 0.394235 0.323727 0.373087 -0.05681
C_ C_ 0.441108 0.316726 0.384328 -0.08735
C_ C_ 0.451249 0.320272 0.414381 -0.08735
C_ C_ 0.410775 0.327667 0.433828 -0.05681
C_ C_ 0.361994 0.333763 0.423187 -0.05681
C_ C_ 0.354008 0.333248 0.392496 -0.05681
C_ C_ 0.30657 0.335912 0.381188 -0.05681
C_ C_ 0.264552 0.337808 0.400156 -0.08735
C_ C_ 0.27138 0.34252 0.430159 -0.08735
C_ C_ 0.321942 0.339204 0.441888 -0.05681
C_ C_ 0.330901 0.341154 0.471192 0.44287
C_ C_ 0.419559 0.328676 0.464324 0.44287
C_ C_ 0.398006 0.341091 0.0116447 0.18498
C_ C_ 0.424005 0.386677 0.0167946 -0.08735
C_ C_ 0.434518 0.400681 0.0450072 -0.08735
C_ C_ 0.418319 0.371024 0.0685256 -0.08735
C_ C_ 0.387789 0.327931 0.0643243 0.18498
C_ C_ 0.37411 0.31663 0.0350419 -0.05681
C_ C_ 0.339631 0.276309 0.0311922 -0.08735
C_ C_ 0.319277 0.249147 0.0543608 -0.08735
C_ C_ 0.335017 0.262097 0.0820815 0.1947
N_ N_ 0.138058 0.161242 0.47323 -0.29468
N_ N_ 0.149986 0.205765 0.0801082 -0.17154
N_ N_ 0.119396 0.170648 0.227516 -0.17154
N_ N_ 0.124516 0.20003 0.333477 -0.29468
N_ N_ 0.361779 0.344768 0.227484 -0.29468
N_ N_ 0.337838 0.326366 0.332759 -0.17154
N_ N_ 0.379 0.337526 0.482534 -0.17154
N_ N_ 0.371754 0.299295 0.086396 -0.29468
O_ O_ 0.214787 0.1854 0.424891 -0.58347
O_ O_ 0.198408 0.189395 0.378723 -0.58347
O_ O_ 0.139256 0.253915 0.434453 -0.58347
O_ O_ 0.116634 0.257058 0.389364 -0.58347
O_ O_ 0.140534 0.0993077 0.419418 -0.58347
O_ O_ 0.130091 0.109343 0.37363 -0.58347
O_ O_ 0.0614798 0.181489 0.42796 -0.58347
O_ O_ 0.0486576 0.166687 0.383798 -0.58347
O_ O_ 0.0770934 0.254414 0.080607 -0.46727
O_ O_ 0.232214 0.174985 0.0827788 -0.46727
O_ O_ 0.0347495 0.190953 0.222065 -0.46727
O_ O_ 0.206279 0.157608 0.232436 -0.46727
O_ O_ 0.288125 0.311393 0.177256 -0.58347
O_ O_ 0.296287 0.313541 0.131632 -0.58347
O_ O_ 0.382957 0.248849 0.18845 -0.58347
O_ O_ 0.374251 0.244237 0.142221 -0.58347
O_ O_ 0.350958 0.399792 0.172413 -0.58347
O_ O_ 0.368415 0.391082 0.127325 -0.58347
O_ O_ 0.442597 0.337816 0.179516 -0.58347
O_ O_ 0.448191 0.32275 0.133752 -0.58347
O_ O_ 0.423347 0.303869 0.327415 -0.46727
O_ O_ 0.251106 0.338892 0.340467 -0.46727
O_ O_ 0.466436 0.326253 0.473746 -0.46727
O_ O_ 0.293023 0.348548 0.48896 -0.46727
Zn Zn 0.128935 0.182671 0.879772 0.90689
Zn Zn 0.143533 0.176226 0.929297 0.90689
Zn Zn 0.35944 0.314681 0.634805 0.90689
Zn Zn 0.350091 0.320634 0.68021 0.90689
H_ H_ 0.307803 0.174193 0.940993 0.11455
H_ H_ 0.382657 0.165375 0.842727 0.11455
H_ H_ 0.292211 0.165181 0.849337 0.11455
H_ H_ 0.393504 0.167357 0.961792 0.11455
H_ H_ 0.483903 0.152791 0.954437 0.11455
H_ H_ 0.466954 0.157732 0.86375 0.11455
H_ H_ 0.144846 0.0113893 0.940131 0.11455
H_ H_ 0.124039 0.438102 0.851081 0.11455
H_ H_ 0.139887 0.0219108 0.848393 0.11455
H_ H_ 0.15251 0.42412 0.968111 0.11455
H_ H_ 0.141673 0.331394 0.962098 0.11455
H_ H_ 0.111794 0.35151 0.874348 0.11455
H_ H_ 0.100272 0.0924825 0.966671 0.11455
H_ H_ 0.0666014 0.0738044 0.507587 0.11455
H_ H_ 0.120211 0.109433 0.549926 0.11455
H_ H_ 0.20662 0.244631 0.972883 0.11455
H_ H_ 0.217625 0.295933 0.511092 0.11455
H_ H_ 0.196382 0.270774 0.559157 0.11455
H_ H_ 0.00776337 0.183845 0.614019 0.11455
H_ H_ -0.009596999999999967 0.182004 0.666437 0.11455
H_ H_ 0.255788 0.182061 0.639495 0.11455
H_ H_ 0.240476 0.17935 0.688286 0.11455
H_ H_ 0.0614475 0.0897458 0.743913 0.11455
H_ H_ 0.051951 0.0589806 0.792483 0.11455
H_ H_ 0.062962 0.117303 0.834873 0.11455
H_ H_ 0.129439 0.2556 0.754906 0.11455
H_ H_ 0.16884 0.301327 0.793894 0.11455
H_ H_ 0.16567 0.266369 0.844226 0.11455
H_ H_ 0.183605 0.326091 0.697192 0.11455
H_ H_ 0.112604 0.314362 0.599115 0.11455
H_ H_ 0.203825 0.316802 0.60849 0.11455
H_ H_ 0.0963365 0.300956 0.714143 0.11455
H_ H_ 0.00603191 0.302314 0.708802 0.11455
H_ H_ 0.0244052 0.296249 0.618168 0.11455
H_ H_ 0.332163 0.486545 0.693163 0.11455
H_ H_ 0.308693 0.0617513 0.60277 0.11455
H_ H_ 0.330162 0.469214 0.60337 0.11455
H_ H_ 0.403589 0.0682175 0.708924 0.11455
H_ H_ 0.401046 0.157853 0.708135 0.11455
H_ H_ 0.33582 0.148999 0.621728 0.11455
H_ H_ 0.406822 0.396087 0.714124 0.11455
H_ H_ 0.435569 0.418296 0.763365 0.11455
H_ H_ 0.404939 0.368991 0.803813 0.11455
H_ H_ 0.292346 0.259723 0.726225 0.11455
H_ H_ 0.25762 0.210562 0.764057 0.11455
H_ H_ 0.285137 0.230261 0.817899 0.11455
H_ H_ 0.484632 0.282573 0.874601 0.11455
H_ H_ 0.49654 0.281361 0.92412 0.11455
H_ H_ 0.249106 0.365624 0.886242 0.11455
H_ H_ 0.26055 0.374042 0.93917 0.11455
H_ H_ 0.440353 0.407062 -0.000639939 0.11455
H_ H_ 0.439361 0.443138 0.556169 0.11455
H_ H_ 0.412644 0.38819 0.592997 0.11455
H_ H_ 0.332144 0.261945 0.508619 0.11455
H_ H_ 0.293309 0.219534 0.546753 0.11455
H_ H_ 0.301043 0.247196 0.597151 0.11455
C_ C_ 0.236393 0.17525 0.900115 0.68181
C_ C_ 0.292412 0.170045 0.896063 -0.05681
C_ C_ 0.324331 0.172342 0.919737 -0.08735
C_ C_ 0.377994 0.173575 0.916139 -0.05681
C_ C_ 0.398825 0.169193 0.888908 -0.05681
C_ C_ 0.366266 0.169349 0.864643 -0.08735
C_ C_ 0.312874 0.171554 0.86853 -0.08735
C_ C_ 0.409923 0.16754 0.939394 -0.08735
C_ C_ 0.461442 0.162383 0.935915 -0.08735
C_ C_ 0.482204 0.162527 0.908605 -0.05681
C_ C_ 0.449648 0.159886 0.885248 -0.08735
C_ C_ 0.132623 0.278187 0.91434 0.68181
C_ C_ 0.133987 0.082128 0.896379 0.68181
C_ C_ 0.136404 0.0249818 0.894151 -0.05681
C_ C_ 0.15727 0.493685 0.926008 -0.08735
C_ C_ 0.149694 0.439214 0.922565 -0.05681
C_ C_ 0.139325 0.419016 0.895743 -0.05681
C_ C_ 0.13137 0.453488 0.872278 -0.08735
C_ C_ 0.143502 0.50463 0.874703 -0.08735
C_ C_ 0.151704 0.406955 0.946413 -0.08735
C_ C_ 0.143987 0.354948 0.943199 -0.08735
C_ C_ 0.13622 0.332443 0.916634 -0.05681
C_ C_ 0.129208 0.365298 0.893334 -0.08735
C_ C_ 0.0382627 0.175624 0.911169 0.68181
C_ C_ 0.113713 0.119554 0.983462 0.1947
C_ C_ 0.0975628 0.101368 0.504527 -0.08735
C_ C_ 0.117559 0.126358 0.528902 -0.08735
C_ C_ 0.144863 0.170605 0.524424 -0.05681
C_ C_ 0.154271 0.188183 0.496254 0.18498
C_ C_ 0.186831 0.238419 0.993232 -0.08735
C_ C_ 0.196486 0.260728 0.514834 -0.08735
C_ C_ 0.18445 0.246524 0.54298 -0.08735
C_ C_ 0.157915 0.201508 0.548132 0.18498
C_ C_ 0.187476 0.180605 0.597281 0.44287
C_ C_ 0.100648 0.192905 0.588629 0.44287
C_ C_ 0.0900287 0.182627 0.617244 -0.05681
C_ C_ 0.0401295 0.182286 0.628058 -0.08735
C_ C_ 0.0295822 0.182262 0.657606 -0.08735
C_ C_ 0.070355 0.180164 0.677427 -0.05681
C_ C_ 0.119792 0.17338 0.666291 -0.05681
C_ C_ 0.129881 0.178575 0.636322 -0.05681
C_ C_ 0.178247 0.175755 0.625788 -0.05681
C_ C_ 0.21852 0.176687 0.645108 -0.08735
C_ C_ 0.210548 0.175188 0.674926 -0.08735
C_ C_ 0.160968 0.175519 0.685783 -0.05681
C_ C_ 0.150256 0.175198 0.716782 0.44287
C_ C_ 0.0630519 0.177438 0.707525 0.44287
C_ C_ 0.0913451 0.161882 0.756569 0.18498
C_ C_ 0.0665779 0.115848 0.761547 -0.08735
C_ C_ 0.0624224 0.0987595 0.790321 -0.08735
C_ C_ 0.0745946 0.128739 0.81444 -0.08735
C_ C_ 0.0997824 0.174885 0.810164 0.18498
C_ C_ 0.106215 0.192272 0.780389 -0.05681
C_ C_ 0.129124 0.238617 0.775599 -0.08735
C_ C_ 0.145717 0.267867 0.799472 -0.08735
C_ C_ 0.143391 0.248869 0.827251 0.1947
C_ C_ 0.255721 0.312357 0.656243 0.68181
C_ C_ 0.200296 0.316464 0.651983 -0.05681
C_ C_ 0.167124 0.319511 0.676063 -0.08735
C_ C_ 0.114273 0.313957 0.672275 -0.05681
C_ C_ 0.0940772 0.309916 0.644255 -0.05681
C_ C_ 0.126553 0.317057 0.620833 -0.08735
C_ C_ 0.178336 0.320644 0.625823 -0.08735
C_ C_ 0.0814792 0.311287 0.694513 -0.08735
C_ C_ 0.0307636 0.307222 0.690752 -0.08735
C_ C_ 0.010065 0.305847 0.663028 -0.05681
C_ C_ 0.0415689 0.304728 0.639619 -0.08735
C_ C_ 0.367255 0.221734 0.662138 0.68181
C_ C_ 0.338897 0.41337 0.651256 0.68181
C_ C_ 0.335441 0.469614 0.648001 -0.05681
C_ C_ 0.376908 0.00202553 0.668618 -0.08735
C_ C_ 0.371373 0.0571364 0.668361 -0.05681
C_ C_ 0.349683 0.0798638 0.643539 -0.05681
C_ C_ 0.332502 0.0484959 0.620987 -0.08735
C_ C_ 0.338951 0.491206 0.620894 -0.08735
C_ C_ 0.390861 0.0862496 0.690566 -0.08735
C_ C_ 0.389494 0.139842 0.68891 -0.08735
C_ C_ 0.368498 0.164163 0.664527 -0.05681
C_ C_ 0.346482 0.132975 0.642312 -0.08735
C_ C_ 0.452949 0.323253 0.65685 0.68181
C_ C_ 0.389639 0.377093 0.731989 0.1947
C_ C_ 0.410311 0.387052 0.759852 -0.08735
C_ C_ 0.390394 0.360326 0.783059 -0.08735
C_ C_ 0.355959 0.320607 0.779823 -0.05681
C_ C_ 0.336804 0.310097 0.750904 0.18498
C_ C_ 0.302174 0.270056 0.747652 -0.08735
C_ C_ 0.284157 0.240215 0.770245 -0.08735
C_ C_ 0.302149 0.249232 0.7988 -0.08735
C_ C_ 0.33501 0.291412 0.803663 0.18498
C_ C_ 0.309783 0.320909 0.850067 0.44287
C_ C_ 0.394061 0.292588 0.844607 0.44287
C_ C_ 0.402217 0.295687 0.873362 -0.05681
C_ C_ 0.451274 0.284415 0.885977 -0.08735
C_ C_ 0.457255 0.285243 0.915838 -0.08735
C_ C_ 0.419691 0.304758 0.933479 -0.05681
C_ C_ 0.370815 0.313124 0.921361 -0.05681
C_ C_ 0.361185 0.305893 0.892188 -0.05681
C_ C_ 0.314044 0.319241 0.880658 -0.05681
C_ C_ 0.277889 0.345935 0.896882 -0.08735
C_ C_ 0.286986 0.351732 0.926701 -0.08735
C_ C_ 0.333315 0.337924 0.938837 -0.05681
C_ C_ 0.34083 0.337425 0.969122 0.44287
C_ C_ 0.428168 0.315628 0.963445 0.44287
C_ C_ 0.387535 0.347872 0.513266 0.18498
C_ C_ 0.415271 0.393057 0.520854 -0.08735
C_ C_ 0.415818 0.408637 0.549721 -0.08735
C_ C_ 0.400821 0.376418 0.572438 -0.08735
C_ C_ 0.381654 0.328784 0.565832 0.18498
C_ C_ 0.372115 0.314364 0.535687 -0.05681
C_ C_ 0.342181 0.27295 0.530139 -0.08735
C_ C_ 0.321497 0.24664 0.551991 -0.08735
C_ C_ 0.328208 0.26145 0.580804 0.1947
N_ N_ 0.142965 0.16042 0.977049 -0.29468
N_ N_ 0.148895 0.18593 0.57821 -0.17154
N_ N_ 0.102044 0.175969 0.726589 -0.17154
N_ N_ 0.119005 0.204391 0.832199 -0.29468
N_ N_ 0.359279 0.333684 0.727788 -0.29468
N_ N_ 0.347729 0.303862 0.832532 -0.17154
N_ N_ 0.388049 0.3299 0.981313 -0.17154
N_ N_ 0.359287 0.30136 0.587806 -0.29468
O_ O_ 0.219302 0.178512 0.925632 -0.58347
O_ O_ 0.206701 0.183481 0.879003 -0.58347
O_ O_ 0.130123 0.251122 0.936081 -0.58347
O_ O_ 0.1347 0.259069 0.889278 -0.58347
O_ O_ 0.149546 0.101742 0.919787 -0.58347
O_ O_ 0.127885 0.108198 0.873151 -0.58347
O_ O_ 0.0688416 0.167297 0.931007 -0.58347
O_ O_ 0.053481 0.182629 0.885129 -0.58347
O_ O_ 0.0635352 0.206375 0.570607 -0.46727
O_ O_ 0.23532 0.18267 0.587867 -0.46727
O_ O_ 0.0164129 0.173031 0.716925 -0.46727
O_ O_ 0.187428 0.165827 0.735528 -0.46727
O_ O_ 0.274208 0.320303 0.681018 -0.58347
O_ O_ 0.285377 0.300657 0.635932 -0.58347
O_ O_ 0.357316 0.24887 0.68414 -0.58347
O_ O_ 0.365987 0.241621 0.638258 -0.58347
O_ O_ 0.343436 0.392838 0.675737 -0.58347
O_ O_ 0.346378 0.387513 0.628802 -0.58347
O_ O_ 0.425887 0.32177 0.679443 -0.58347
O_ O_ 0.432666 0.328422 0.633779 -0.58347
O_ O_ 0.430831 0.278829 0.827738 -0.46727
O_ O_ 0.268351 0.340672 0.838633 -0.46727
O_ O_ 0.474856 0.310727 0.974952 -0.46727
O_ O_ 0.302149 0.351533 0.985513 -0.46727
Zn Zn 0.113937 0.68529 0.382818 0.90689
Zn Zn 0.125275 0.679016 0.431118 0.90689
Zn Zn 0.372578 0.818805 0.130457 0.90689
Zn Zn 0.369405 0.823758 0.177775 0.90689
H_ H_ 0.294787 0.677699 0.450096 0.11455
H_ H_ 0.361401 0.695534 0.35171 0.11455
H_ H_ 0.271103 0.70217 0.359772 0.11455
H_ H_ 0.377132 0.678758 0.467309 0.11455
H_ H_ 0.474518 0.687286 0.462141 0.11455
H_ H_ 0.450334 0.684604 0.369466 0.11455
H_ H_ 0.125874 0.509948 0.446261 0.11455
H_ H_ 0.0660741 0.932363 0.354741 0.11455
H_ H_ 0.101904 0.527468 0.354405 0.11455
H_ H_ 0.174701 0.924541 0.452841 0.11455
H_ H_ 0.147203 0.837076 0.453381 0.11455
H_ H_ 0.0869195 0.846149 0.370271 0.11455
H_ H_ 0.0703004 0.611714 0.468283 0.11455
H_ H_ 0.0743378 0.576051 0.014584 0.11455
H_ H_ 0.118601 0.62364 0.0561777 0.11455
H_ H_ 0.181234 0.747486 0.472143 0.11455
H_ H_ 0.218667 0.804651 0.0126634 0.11455
H_ H_ 0.198078 0.785061 0.0601394 0.11455
H_ H_ 0.0224576 0.715028 0.122543 0.11455
H_ H_ 0.00896571 0.698199 0.172725 0.11455
H_ H_ 0.266135 0.648433 0.136863 0.11455
H_ H_ 0.25334 0.647104 0.191017 0.11455
H_ H_ 0.074988 0.587871 0.247338 0.11455
H_ H_ 0.0397973 0.57264 0.29479 0.11455
H_ H_ 0.061616 0.621293 0.336359 0.11455
H_ H_ 0.176293 0.736494 0.259172 0.11455
H_ H_ 0.204622 0.787682 0.300807 0.11455
H_ H_ 0.171731 0.760603 0.348431 0.11455
H_ H_ 0.201513 0.827672 0.194955 0.11455
H_ H_ 0.126395 0.837405 0.0975373 0.11455
H_ H_ 0.217686 0.833911 0.104701 0.11455
H_ H_ 0.117822 0.811383 0.215383 0.11455
H_ H_ 0.0227505 0.818171 0.208961 0.11455
H_ H_ 0.0439683 0.830458 0.119351 0.11455
H_ H_ 0.383967 0.98251 0.19266 0.11455
H_ H_ 0.387411 0.5695 0.0967971 0.11455
H_ H_ 0.353329 0.984534 0.102164 0.11455
H_ H_ 0.362179 0.573832 0.213528 0.11455
H_ H_ 0.364027 0.664142 0.211645 0.11455
H_ H_ 0.371328 0.656815 0.118648 0.11455
H_ H_ 0.429332 0.890926 0.2118 0.11455
H_ H_ 0.457163 0.912195 0.26003 0.11455
H_ H_ 0.407758 0.881441 0.303361 0.11455
H_ H_ 0.303045 0.76407 0.222357 0.11455
H_ H_ 0.278792 0.711935 0.259727 0.11455
H_ H_ 0.306977 0.728386 0.307741 0.11455
H_ H_ 0.485383 0.806644 0.368989 0.11455
H_ H_ 0.499987 0.803666 0.420237 0.11455
H_ H_ 0.238453 0.826953 0.386528 0.11455
H_ H_ 0.249567 0.84851 0.436386 0.11455
H_ H_ 0.42999 0.905735 0.497175 0.11455
H_ H_ 0.424077 0.955525 0.0437372 0.11455
H_ H_ 0.418373 0.895368 0.0837738 0.11455
H_ H_ 0.35501 0.751262 0.00840685 0.11455
H_ H_ 0.309166 0.708989 0.0481173 0.11455
H_ H_ 0.328847 0.740558 0.0949446 0.11455
C_ C_ 0.220023 0.684754 0.408518 0.68181
C_ C_ 0.276612 0.689594 0.404894 -0.05681
C_ C_ 0.309419 0.684644 0.428259 -0.08735
C_ C_ 0.362092 0.68425 0.423281 -0.05681
C_ C_ 0.381331 0.6873 0.395126 -0.05681
C_ C_ 0.348844 0.688704 0.372415 -0.08735
C_ C_ 0.297705 0.696219 0.377705 -0.08735
C_ C_ 0.396027 0.682136 0.446514 -0.08735
C_ C_ 0.449272 0.681215 0.442544 -0.08735
C_ C_ 0.469138 0.683864 0.414096 -0.05681
C_ C_ 0.434087 0.684251 0.39064 -0.08735
C_ C_ 0.111531 0.780256 0.412221 0.68181
C_ C_ 0.123566 0.584594 0.403321 0.68181
C_ C_ 0.122384 0.529045 0.400031 -0.05681
C_ C_ 0.145418 0.992035 0.414593 -0.08735
C_ C_ 0.141392 0.93883 0.412323 -0.05681
C_ C_ 0.115081 0.917984 0.389455 -0.05681
C_ C_ 0.0915071 0.949862 0.370305 -0.08735
C_ C_ 0.0949326 1.00276273 0.371542 -0.08735
C_ C_ 0.156991 0.908926 0.434634 -0.08735
C_ C_ 0.145207 0.858701 0.433937 -0.08735
C_ C_ 0.11622 0.836136 0.412623 -0.05681
C_ C_ 0.101677 0.865713 0.389173 -0.08735
C_ C_ 0.0209277 0.680144 0.406532 0.68181
C_ C_ 0.0896498 0.629114 0.485668 0.1947
C_ C_ 0.10239 0.606217 0.0111105 -0.08735
C_ C_ 0.124457 0.635103 0.0339382 -0.08735
C_ C_ 0.14868 0.681209 0.0283884 -0.05681
C_ C_ 0.159637 0.692246 0.999548 0.18498
C_ C_ 0.173825 0.7375 0.494684 -0.08735
C_ C_ 0.1958 0.770994 0.0157904 -0.08735
C_ C_ 0.186705 0.758929 0.0436718 -0.08735
C_ C_ 0.163551 0.713769 0.0513352 0.18498
C_ C_ 0.196907 0.684263 0.0975765 0.44287
C_ C_ 0.112498 0.71381 0.0949822 0.44287
C_ C_ 0.104521 0.703565 0.12395 -0.05681
C_ C_ 0.0561678 0.706278 0.136124 -0.08735
C_ C_ 0.0474636 0.697604 0.164255 -0.08735
C_ C_ 0.0881772 0.690943 0.18349 -0.05681
C_ C_ 0.136835 0.677361 0.170601 -0.05681
C_ C_ 0.144818 0.687051 0.141082 -0.05681
C_ C_ 0.192142 0.67515 0.127677 -0.05681
C_ C_ 0.229921 0.656039 0.146067 -0.08735
C_ C_ 0.221538 0.65618 0.176471 -0.08735
C_ C_ 0.174328 0.663827 0.188606 -0.05681
C_ C_ 0.16693 0.664176 0.219746 0.44287
C_ C_ 0.0821824 0.69214 0.213187 0.44287
C_ C_ 0.10848 0.658411 0.260072 0.18498
C_ C_ 0.0822349 0.612959 0.265022 -0.08735
C_ C_ 0.0660342 0.600347 0.292385 -0.08735
C_ C_ 0.0755514 0.633356 0.314954 -0.08735
C_ C_ 0.113662 0.670922 0.31096 0.18498
C_ C_ 0.125267 0.687616 0.283332 -0.05681
C_ C_ 0.157857 0.730367 0.279807 -0.08735
C_ C_ 0.176744 0.754304 0.303369 -0.08735
C_ C_ 0.158936 0.738573 0.330138 0.1947
C_ C_ 0.27266 0.826732 0.152711 0.68181
C_ C_ 0.217225 0.826059 0.150179 -0.05681
C_ C_ 0.183528 0.820482 0.173861 -0.08735
C_ C_ 0.130039 0.821792 0.171938 -0.05681
C_ C_ 0.110981 0.827358 0.143789 -0.05681
C_ C_ 0.14244 0.834101 0.119794 -0.08735
C_ C_ 0.195351 0.833337 0.123162 -0.08735
C_ C_ 0.0998109 0.821936 0.194912 -0.08735
C_ C_ 0.0476978 0.820075 0.190623 -0.08735
C_ C_ 0.0266897 0.827126 0.163136 -0.05681
C_ C_ 0.0595634 0.830388 0.139891 -0.08735
C_ C_ 0.366888 0.722658 0.162364 0.68181
C_ C_ 0.373023 0.919599 0.147926 0.68181
C_ C_ 0.37475 0.976776 0.146808 -0.05681
C_ C_ 0.356943 0.507633 0.169365 -0.08735
C_ C_ 0.362391 0.559372 0.168529 -0.05681
C_ C_ 0.373629 0.58307 0.141819 -0.05681
C_ C_ 0.378375 0.552517 0.116859 -0.08735
C_ C_ 0.368209 0.00323622 0.120891 -0.08735
C_ C_ 0.359866 0.58986 0.193093 -0.08735
C_ C_ 0.366616 0.641246 0.191737 -0.08735
C_ C_ 0.369932 0.666612 0.164631 -0.05681
C_ C_ 0.374169 0.637456 0.139279 -0.08735
C_ C_ 0.466754 0.826221 0.152036 0.68181
C_ C_ 0.409671 0.87337 0.229364 0.1947
C_ C_ 0.424223 0.890686 0.257249 -0.08735
C_ C_ 0.398996 0.868982 0.28134 -0.08735
C_ C_ 0.364188 0.828091 0.276341 -0.05681
C_ C_ 0.350972 0.814402 0.247218 0.18498
C_ C_ 0.317693 0.773376 0.242506 -0.08735
C_ C_ 0.304645 0.742043 0.263564 -0.08735
C_ C_ 0.315536 0.756467 0.292675 -0.08735
C_ C_ 0.344234 0.800886 0.299853 0.18498
C_ C_ 0.311978 0.822987 0.347187 0.44287
C_ C_ 0.397391 0.798408 0.342019 0.44287
C_ C_ 0.405802 0.811422 0.371451 -0.05681
C_ C_ 0.453495 0.807662 0.382678 -0.08735
C_ C_ 0.460599 0.810413 0.412273 -0.08735
C_ C_ 0.419312 0.816909 0.431968 -0.05681
C_ C_ 0.371378 0.826217 0.419964 -0.05681
C_ C_ 0.364957 0.82523 0.38972 -0.05681
C_ C_ 0.314974 0.828526 0.377265 -0.05681
C_ C_ 0.274619 0.834961 0.395368 -0.08735
C_ C_ 0.281037 0.837835 0.424338 -0.08735
C_ C_ 0.329526 0.836004 0.436996 -0.05681
C_ C_ 0.337695 0.836638 0.467054 0.44287
C_ C_ 0.424552 0.813836 0.461526 0.44287
C_ C_ 0.383124 0.85096 0.00654219 0.18498
C_ C_ 0.399907 0.900468 0.0122727 -0.08735
C_ C_ 0.411316 0.915752 0.0404589 -0.08735
C_ C_ 0.407989 0.882212 0.0621297 -0.08735
C_ C_ 0.383956 0.834193 0.05858 0.18498
C_ C_ 0.373906 0.81834 0.0307291 -0.05681
C_ C_ 0.352333 0.770662 0.0275642 -0.08735
C_ C_ 0.333679 0.744068 0.0500653 -0.08735
C_ C_ 0.343376 0.762962 0.0769154 0.1947
N_ N_ 0.113586 0.673514 0.479623 -0.29468
N_ N_ 0.157259 0.701163 0.0817775 -0.17154
N_ N_ 0.120001 0.672282 0.230333 -0.17154
N_ N_ 0.129621 0.697159 0.334368 -0.29468
N_ N_ 0.371106 0.840781 0.225247 -0.29468
N_ N_ 0.35296 0.81238 0.3299 -0.17154
N_ N_ 0.384571 0.82455 0.479157 -0.17154
N_ N_ 0.369107 0.805389 0.0809435 -0.29468
O_ O_ 0.202496 0.681335 0.433696 -0.58347
O_ O_ 0.190777 0.696342 0.389431 -0.58347
O_ O_ 0.120476 0.755461 0.43426 -0.58347
O_ O_ 0.103494 0.758816 0.3887 -0.58347
O_ O_ 0.133075 0.603343 0.42862 -0.58347
O_ O_ 0.124019 0.612902 0.380696 -0.58347
O_ O_ 0.0495987 0.675033 0.427881 -0.58347
O_ O_ 0.0406692 0.678034 0.381935 -0.58347
O_ O_ 0.0768808 0.734244 0.0801494 -0.46727
O_ O_ 0.238337 0.670583 0.0837338 -0.46727
O_ O_ 0.0364875 0.698024 0.224132 -0.46727
O_ O_ 0.2072 0.658493 0.236509 -0.46727
O_ O_ 0.294417 0.829391 0.177353 -0.58347
O_ O_ 0.299914 0.814262 0.130931 -0.58347
O_ O_ 0.36373 0.74883 0.185582 -0.58347
O_ O_ 0.378158 0.743949 0.13939 -0.58347
O_ O_ 0.380777 0.896952 0.170485 -0.58347
O_ O_ 0.364486 0.894205 0.125154 -0.58347
O_ O_ 0.442396 0.81842 0.174317 -0.58347
O_ O_ 0.444145 0.827124 0.12777 -0.58347
O_ O_ 0.430575 0.770851 0.327416 -0.46727
O_ O_ 0.265791 0.824869 0.3363 -0.46727
O_ O_ 0.46739 0.80339 0.472548 -0.46727
O_ O_ 0.296728 0.840555 0.482678 -0.46727
Zn Zn 0.136473 0.683158 0.88182 0.90689
Zn Zn 0.145036 0.676518 0.928966 0.90689
Zn Zn 0.375538 0.813066 0.628335 0.90689
Zn Zn 0.366709 0.81828 0.677055 0.90689
H_ H_ 0.314896 0.697046 0.947016 0.11455
H_ H_ 0.386032 0.652649 0.851664 0.11455
H_ H_ 0.300262 0.67197 0.856699 0.11455
H_ H_ 0.400459 0.684879 0.970996 0.11455
H_ H_ 0.491578 0.682133 0.962202 0.11455
H_ H_ 0.470549 0.656623 0.87223 0.11455
H_ H_ 0.154746 0.511142 0.946653 0.11455
H_ H_ 0.122507 0.929093 0.845806 0.11455
H_ H_ 0.142621 0.525057 0.85451 0.11455
H_ H_ 0.12975 0.929561 0.962807 0.11455
H_ H_ 0.124226 0.835135 0.960128 0.11455
H_ H_ 0.131308 0.847716 0.866934 0.11455
H_ H_ 0.0939258 0.60092 0.965425 0.11455
H_ H_ 0.0656828 0.577411 0.518911 0.11455
H_ H_ 0.10734 0.623067 0.557444 0.11455
H_ H_ 0.192272 0.749749 0.972008 0.11455
H_ H_ 0.210181 0.804853 0.51263 0.11455
H_ H_ 0.197968 0.777371 0.563253 0.11455
H_ H_ 1.0118114 0.700044 0.624004 0.11455
H_ H_ 1.00026 0.695071 0.677844 0.11455
H_ H_ 0.262893 0.689425 0.636317 0.11455
H_ H_ 0.254859 0.684716 0.689798 0.11455
H_ H_ 0.074453 0.585492 0.750206 0.11455
H_ H_ 0.0600996 0.559736 0.800632 0.11455
H_ H_ 0.0958182 0.614105 0.84114 0.11455
H_ H_ 0.166267 0.747276 0.756736 0.11455
H_ H_ 0.190374 0.799724 0.797594 0.11455
H_ H_ 0.183329 0.772134 0.844532 0.11455
H_ H_ 0.195539 0.81529 0.6992 0.11455
H_ H_ 0.12891 0.846438 0.603246 0.11455
H_ H_ 0.218787 0.823324 0.606697 0.11455
H_ H_ 0.109373 0.815813 0.718238 0.11455
H_ H_ 0.0156916 0.816252 0.709165 0.11455
H_ H_ 0.0423734 0.823486 0.620363 0.11455
H_ H_ 0.3978 0.984353 0.687107 0.11455
H_ H_ 0.33255 0.55956 0.59615 0.11455
H_ H_ 0.327938 0.975671 0.602929 0.11455
H_ H_ 0.355323 0.566614 0.714542 0.11455
H_ H_ 0.369335 0.65696 0.710173 0.11455
H_ H_ 0.338622 0.64327 0.618966 0.11455
H_ H_ 0.430218 0.885065 0.710808 0.11455
H_ H_ 0.432981 0.926119 0.760944 0.11455
H_ H_ 0.392593 0.886114 0.801767 0.11455
H_ H_ 0.307429 0.757696 0.718496 0.11455
H_ H_ 0.298832 0.695686 0.756721 0.11455
H_ H_ 0.31347 0.721235 0.808457 0.11455
H_ H_ 0.480034 0.780043 0.871079 0.11455
H_ H_ 0.490349 0.793656 0.922608 0.11455
H_ H_ 0.234035 0.841789 0.881109 0.11455
H_ H_ 0.245161 0.857255 0.935424 0.11455
H_ H_ 0.407794 0.925337 0.993304 0.11455
H_ H_ 0.461947 0.923661 0.546681 0.11455
H_ H_ 0.439632 0.863912 0.585848 0.11455
H_ H_ 0.339507 0.750172 0.504708 0.11455
H_ H_ 0.296994 0.707223 0.544419 0.11455
H_ H_ 0.316824 0.73227 0.596226 0.11455
C_ C_ 0.241811 0.68514 0.906977 0.68181
C_ C_ 0.297122 0.679706 0.903727 -0.05681
C_ C_ 0.330059 0.687557 0.926931 -0.08735
C_ C_ 0.382666 0.679984 0.924213 -0.05681
C_ C_ 0.40288 0.668161 0.89695 -0.05681
C_ C_ 0.371401 0.660634 0.873077 -0.08735
C_ C_ 0.32033 0.674057 0.877001 -0.08735
C_ C_ 0.41581 0.684146 0.948392 -0.08735
C_ C_ 0.467225 0.678998 0.944101 -0.08735
C_ C_ 0.489029 0.672602 0.916319 -0.05681
C_ C_ 0.456572 0.663616 0.893564 -0.08735
C_ C_ 0.132087 0.777345 0.910097 0.68181
C_ C_ 0.161472 0.581516 0.902931 0.68181
C_ C_ 0.152724 0.526067 0.901596 -0.05681
C_ C_ 0.138762 0.993797 0.918997 -0.08735
C_ C_ 0.13058 0.940755 0.916963 -0.05681
C_ C_ 0.126218 0.917797 0.889735 -0.05681
C_ C_ 0.126566 0.947745 0.865472 -0.08735
C_ C_ 0.13424 0.00180598 0.867147 -0.08735
C_ C_ 0.121965 0.911791 0.941413 -0.08735
C_ C_ 0.120698 0.858238 0.939866 -0.08735
C_ C_ 0.127793 0.83445 0.912469 -0.05681
C_ C_ 0.125353 0.864596 0.887521 -0.08735
C_ C_ 0.0438319 0.668427 0.908239 0.68181
C_ C_ 0.107828 0.624278 0.983155 0.1947
C_ C_ 0.0860814 0.61127 0.513851 -0.08735
C_ C_ 0.111533 0.63674 0.535335 -0.08735
C_ C_ 0.13033 0.685498 0.529448 -0.05681
C_ C_ 0.142305 0.697255 0.500257 0.18498
C_ C_ 0.181025 0.738926 0.99378 -0.08735
C_ C_ 0.193049 0.768081 0.517065 -0.08735
C_ C_ 0.181065 0.756888 0.545457 -0.08735
C_ C_ 0.152116 0.714563 0.551743 0.18498
C_ C_ 0.186612 0.687504 0.598935 0.44287
C_ C_ 0.0976579 0.705746 0.595123 0.44287
C_ C_ 0.0912312 0.698805 0.625025 -0.05681
C_ C_ 0.0439244 0.698105 0.637845 -0.08735
C_ C_ 0.0385752 0.694979 0.667681 -0.08735
C_ C_ 0.0827362 0.687776 0.685467 -0.05681
C_ C_ 0.129491 0.680087 0.671283 -0.05681
C_ C_ 0.13363 0.683028 0.641131 -0.05681
C_ C_ 0.182933 0.681832 0.629771 -0.05681
C_ C_ 0.226024 0.680472 0.646348 -0.08735
C_ C_ 0.219796 0.675818 0.675625 -0.08735
C_ C_ 0.171886 0.670573 0.6889 -0.05681
C_ C_ 0.166321 0.665066 0.718481 0.44287
C_ C_ 0.077864 0.681699 0.71536 0.44287
C_ C_ 0.112627 0.654311 0.76055 0.18498
C_ C_ 0.0857025 0.611021 0.767662 -0.08735
C_ C_ 0.0765061 0.598313 0.796414 -0.08735
C_ C_ 0.0949884 0.629285 0.819725 -0.08735
C_ C_ 0.120513 0.673002 0.813387 0.18498
C_ C_ 0.129038 0.686347 0.783435 -0.05681
C_ C_ 0.156273 0.731607 0.777936 -0.08735
C_ C_ 0.172701 0.762419 0.800113 -0.08735
C_ C_ 0.168176 0.746556 0.828623 0.1947
C_ C_ 0.271988 0.814958 0.655708 0.68181
C_ C_ 0.214547 0.815196 0.653504 -0.05681
C_ C_ 0.181978 0.81541 0.677679 -0.08735
C_ C_ 0.131155 0.81356 0.673071 -0.05681
C_ C_ 0.111618 0.823709 0.64596 -0.05681
C_ C_ 0.141905 0.826809 0.622107 -0.08735
C_ C_ 0.19445 0.82215 0.626125 -0.08735
C_ C_ 0.0977149 0.811897 0.696351 -0.08735
C_ C_ 0.0445074 0.814575 0.692001 -0.08735
C_ C_ 0.0255708 0.821542 0.664626 -0.05681
C_ C_ 0.0584061 0.822941 0.641388 -0.08735
C_ C_ 0.368273 0.7153 0.661328 0.68181
C_ C_ 0.364764 0.915772 0.646894 0.68181
C_ C_ 0.362691 0.972627 0.645349 -0.05681
C_ C_ 0.337872 0.500584 0.672689 -0.08735
C_ C_ 0.348234 0.5532 0.669589 -0.05681
C_ C_ 0.345775 0.575823 0.641864 -0.05681
C_ C_ 0.340712 0.543352 0.616864 -0.08735
C_ C_ 0.33713 0.995361 0.621961 -0.08735
C_ C_ 0.361033 0.583258 0.693676 -0.08735
C_ C_ 0.368983 0.634851 0.691084 -0.08735
C_ C_ 0.369381 0.657892 0.663613 -0.05681
C_ C_ 0.354996 0.626943 0.638851 -0.08735
C_ C_ 0.46946 0.821535 0.651113 0.68181
C_ C_ 0.404473 0.873901 0.728994 0.1947
C_ C_ 0.40852 0.895555 0.757003 -0.08735
C_ C_ 0.390401 0.8694 0.780275 -0.08735
C_ C_ 0.361546 0.823184 0.775456 -0.05681
C_ C_ 0.347894 0.810793 0.746698 0.18498
C_ C_ 0.316844 0.767701 0.740241 -0.08735
C_ C_ 0.308394 0.734225 0.762433 -0.08735
C_ C_ 0.320259 0.746539 0.790646 -0.08735
C_ C_ 0.340387 0.794 0.797979 0.18498
C_ C_ 0.307876 0.81853 0.844071 0.44287
C_ C_ 0.395107 0.796636 0.841094 0.44287
C_ C_ 0.400748 0.798305 0.871693 -0.05681
C_ C_ 0.447923 0.792008 0.884254 -0.08735
C_ C_ 0.453813 0.796259 0.913935 -0.08735
C_ C_ 0.410561 0.80868 0.931215 -0.05681
C_ C_ 0.364006 0.819242 0.918468 -0.05681
C_ C_ 0.358939 0.813103 0.888394 -0.05681
C_ C_ 0.312205 0.824489 0.874437 -0.05681
C_ C_ 0.26994 0.837949 0.891522 -0.08735
C_ C_ 0.276235 0.846177 0.920983 -0.08735
C_ C_ 0.324628 0.836231 0.934667 -0.05681
C_ C_ 0.329437 0.840784 0.965004 0.44287
C_ C_ 0.416508 0.817267 0.96083 0.44287
C_ C_ 0.393024 0.839128 0.508836 0.18498
C_ C_ 0.419743 0.882393 0.515209 -0.08735
C_ C_ 0.439861 0.891278 0.542607 -0.08735
C_ C_ 0.422393 0.859113 0.565699 -0.08735
C_ C_ 0.387243 0.822152 0.559692 0.18498
C_ C_ 0.376298 0.807119 0.531296 -0.05681
C_ C_ 0.348631 0.761504 0.526071 -0.08735
C_ C_ 0.323747 0.738787 0.54856 -0.08735
C_ C_ 0.333854 0.753767 0.577212 0.1947
N_ N_ 0.14094 0.663159 0.977567 -0.29468
N_ N_ 0.146677 0.702262 0.582478 -0.17154
N_ N_ 0.118415 0.668034 0.730435 -0.17154
N_ N_ 0.144183 0.69975 0.834534 -0.29468
N_ N_ 0.371561 0.835158 0.724376 -0.29468
N_ N_ 0.348728 0.806641 0.828129 -0.17154
N_ N_ 0.375869 0.835554 0.976517 -0.17154
N_ N_ 0.369238 0.791453 0.581731 -0.29468
O_ O_ 0.222162 0.683908 0.931667 -0.58347
O_ O_ 0.215361 0.688742 0.884211 -0.58347
O_ O_ 0.139489 0.748839 0.931087 -0.58347
O_ O_ 0.128031 0.755975 0.886657 -0.58347
O_ O_ 0.158924 0.600543 0.926641 -0.58347
O_ O_ 0.14972 0.608427 0.881669 -0.58347
O_ O_ 0.0739039 0.674793 0.928911 -0.58347
O_ O_ 0.0597404 0.667359 0.883444 -0.58347
O_ O_ 0.0591276 0.715103 0.578921 -0.46727
O_ O_ 0.231343 0.685191 0.586594 -0.46727
O_ O_ 0.0376072 0.701375 0.728196 -0.46727
O_ O_ 0.203621 0.64592 0.733854 -0.46727
O_ O_ 0.292199 0.81785 0.680204 -0.58347
O_ O_ 0.297841 0.818602 0.632995 -0.58347
O_ O_ 0.369091 0.743241 0.682443 -0.58347
O_ O_ 0.375779 0.736238 0.637164 -0.58347
O_ O_ 0.364589 0.893009 0.671202 -0.58347
O_ O_ 0.373746 0.89065 0.625624 -0.58347
O_ O_ 0.441829 0.821803 0.673057 -0.58347
O_ O_ 0.451003 0.80911 0.627023 -0.58347
O_ O_ 0.432313 0.777155 0.82585 -0.46727
O_ O_ 0.263409 0.826529 0.831298 -0.46727
O_ O_ 0.46055 0.813812 0.972524 -0.46727
O_ O_ 0.289228 0.85177 0.980831 -0.46727
Zn Zn 0.623365 0.186337 0.378986 0.90689
Zn Zn 0.637669 0.184056 0.427393 0.90689
Zn Zn 0.872461 0.317661 0.13022 0.90689
Zn Zn 0.865248 0.325411 0.179415 0.90689
H_ H_ 0.801295 0.198597 0.446943 0.11455
H_ H_ 0.870364 0.205049 0.350309 0.11455
H_ H_ 0.777814 0.198798 0.356411 0.11455
H_ H_ 0.882399 0.169725 0.465547 0.11455
H_ H_ 0.975699 0.169299 0.458259 0.11455
H_ H_ 0.960536 0.176379 0.36967 0.11455
H_ H_ 0.66651 0.0182807 0.437019 0.11455
H_ H_ 0.613775 0.435718 0.350428 0.11455
H_ H_ 0.587342 0.0287975 0.356325 0.11455
H_ H_ 0.653238 0.428677 0.465218 0.11455
H_ H_ 0.650808 0.33769 0.458867 0.11455
H_ H_ 0.614797 0.34882 0.371021 0.11455
H_ H_ 0.565575 0.121817 0.463636 0.11455
H_ H_ 0.572482 0.0702303 0.0171998 0.11455
H_ H_ 0.606301 0.124418 0.0561234 0.11455
H_ H_ 0.694036 0.243748 0.472037 0.11455
H_ H_ 0.724141 0.298824 0.00786913 0.11455
H_ H_ 0.689067 0.289922 0.0577684 0.11455
H_ H_ 0.521496 0.226181 0.123687 0.11455
H_ H_ 0.50934 0.200161 0.172351 0.11455
H_ H_ 0.763824 0.135838 0.132486 0.11455
H_ H_ 0.759421 0.142515 0.186898 0.11455
H_ H_ 0.579428 0.0888017 0.246913 0.11455
H_ H_ 0.548666 0.0728918 0.295047 0.11455
H_ H_ 0.570752 0.12863 0.336241 0.11455
H_ H_ 0.677143 0.243459 0.256758 0.11455
H_ H_ 0.699217 0.30086 0.298284 0.11455
H_ H_ 0.683191 0.265749 0.346607 0.11455
H_ H_ 0.695737 0.30963 0.192227 0.11455
H_ H_ 0.623565 0.331586 0.0937749 0.11455
H_ H_ 0.715888 0.320132 0.100274 0.11455
H_ H_ 0.613672 0.334304 0.21037 0.11455
H_ H_ 0.51996 0.329224 0.206353 0.11455
H_ H_ 0.542219 0.337057 0.116339 0.11455
H_ H_ 0.878203 0.487952 0.187633 0.11455
H_ H_ 0.862302 0.07432 0.100357 0.11455
H_ H_ 0.861915 0.477408 0.0973491 0.11455
H_ H_ 0.8664 0.0776134 0.218742 0.11455
H_ H_ 0.870591 0.169904 0.213724 0.11455
H_ H_ 0.884145 0.15723 0.123808 0.11455
H_ H_ 0.906848 0.412225 0.212233 0.11455
H_ H_ 0.914057 0.446748 0.262963 0.11455
H_ H_ 0.904577 0.385986 0.301145 0.11455
H_ H_ 0.815366 0.265757 0.218069 0.11455
H_ H_ 0.77809 0.214488 0.258412 0.11455
H_ H_ 0.800652 0.236663 0.307048 0.11455
H_ H_ 0.991332 0.292349 0.367467 0.11455
H_ H_ -0.0013791 0.300543 0.419099 0.11455
H_ H_ 0.747241 0.356226 0.383118 0.11455
H_ H_ 0.752859 0.346119 0.435552 0.11455
H_ H_ 0.956275 0.385155 0.496961 0.11455
H_ H_ 0.962912 0.424884 0.0483757 0.11455
H_ H_ 0.940907 0.370412 0.0856916 0.11455
H_ H_ 0.861249 0.243508 0.00751167 0.11455
H_ H_ 0.81004 0.203478 0.0477681 0.11455
H_ H_ 0.820002 0.237981 0.0972057 0.11455
C_ C_ 0.72765 0.183276 0.406779 0.68181
C_ C_ 0.783137 0.187853 0.401834 -0.05681
C_ C_ 0.816548 0.190028 0.425292 -0.08735
C_ C_ 0.868156 0.180404 0.420972 -0.05681
C_ C_ 0.888852 0.180589 0.393385 -0.05681
C_ C_ 0.855743 0.188535 0.370364 -0.08735
C_ C_ 0.802473 0.187388 0.374155 -0.08735
C_ C_ 0.898334 0.173035 0.444122 -0.08735
C_ C_ 0.952453 0.174863 0.440338 -0.08735
C_ C_ 0.975509 0.174337 0.412521 -0.05681
C_ C_ 0.942277 0.173795 0.389898 -0.08735
C_ C_ 0.627815 0.281877 0.412688 0.68181
C_ C_ 0.632657 0.0851147 0.398645 0.68181
C_ C_ 0.621641 0.0296798 0.398873 -0.05681
C_ C_ 0.626421 0.499886 0.423756 -0.08735
C_ C_ 0.629755 0.445427 0.422114 -0.05681
C_ C_ 0.621823 0.422127 0.394528 -0.05681
C_ C_ 0.620369 0.452718 0.370641 -0.08735
C_ C_ 0.614463 0.505537 0.373313 -0.08735
C_ C_ 0.643307 0.414167 0.444468 -0.08735
C_ C_ 0.644087 0.361537 0.44084 -0.08735
C_ C_ 0.628797 0.337472 0.414598 -0.05681
C_ C_ 0.622509 0.369436 0.390511 -0.08735
C_ C_ 0.534031 0.182596 0.399876 0.68181
C_ C_ 0.592704 0.131238 0.479212 0.1947
C_ C_ 0.597862 0.10155 0.0119165 -0.08735
C_ C_ 0.617789 0.131441 0.0345298 -0.08735
C_ C_ 0.642632 0.177789 0.0290834 -0.05681
C_ C_ 0.646842 0.193239 0.99895 0.18498
C_ C_ 0.680504 0.234776 0.493757 -0.08735
C_ C_ 0.695573 0.268255 0.0131712 -0.08735
C_ C_ 0.68177 0.259069 0.0428408 -0.08735
C_ C_ 0.659518 0.213072 0.0506076 0.18498
C_ C_ 0.691583 0.174473 0.0952711 0.44287
C_ C_ 0.612059 0.215449 0.0934673 0.44287
C_ C_ 0.602118 0.200381 0.122186 -0.05681
C_ C_ 0.552075 0.20433 0.134291 -0.08735
C_ C_ 0.547846 0.202131 0.163831 -0.08735
C_ C_ 0.588462 0.188215 0.182248 -0.05681
C_ C_ 0.636463 0.179387 0.169384 -0.05681
C_ C_ 0.642823 0.181638 0.13891 -0.05681
C_ C_ 0.688855 0.169964 0.126217 -0.05681
C_ C_ 0.727739 0.151148 0.143187 -0.08735
C_ C_ 0.724915 0.155517 0.173764 -0.08735
C_ C_ 0.67728 0.16884 0.187335 -0.05681
C_ C_ 0.671034 0.169429 0.218007 0.44287
C_ C_ 0.584373 0.184548 0.212203 0.44287
C_ C_ 0.615806 0.162508 0.258138 0.18498
C_ C_ 0.587515 0.117067 0.264205 -0.08735
C_ C_ 0.572341 0.106101 0.292011 -0.08735
C_ C_ 0.588323 0.134767 0.315318 -0.08735
C_ C_ 0.6196 0.176592 0.311152 0.18498
C_ C_ 0.631778 0.192379 0.281534 -0.05681
C_ C_ 0.661196 0.236312 0.277871 -0.08735
C_ C_ 0.677665 0.262607 0.301294 -0.08735
C_ C_ 0.66417 0.248394 0.328872 0.1947
C_ C_ 0.771401 0.320219 0.151938 0.68181
C_ C_ 0.714014 0.320409 0.147829 -0.05681
C_ C_ 0.68124 0.321103 0.17129 -0.08735
C_ C_ 0.62887 0.330841 0.16762 -0.05681
C_ C_ 0.607332 0.32777 0.140078 -0.05681
C_ C_ 0.639384 0.325536 0.115619 -0.08735
C_ C_ 0.69235 0.323714 0.119285 -0.08735
C_ C_ 0.596348 0.32836 0.190781 -0.08735
C_ C_ 0.544864 0.335504 0.188045 -0.08735
C_ C_ 0.523859 0.334472 0.16058 -0.05681
C_ C_ 0.557163 0.3393 0.136686 -0.08735
C_ C_ 0.879521 0.225461 0.16301 0.68181
C_ C_ 0.862694 0.419979 0.146108 0.68181
C_ C_ 0.871496 0.476162 0.143325 -0.05681
C_ C_ 0.870341 0.0092242 0.174445 -0.08735
C_ C_ 0.87557 0.0623727 0.172489 -0.05681
C_ C_ 0.877422 0.086537 0.145753 -0.05681
C_ C_ 0.870855 0.0567189 0.121125 -0.08735
C_ C_ 0.871548 0.500194 0.116571 -0.08735
C_ C_ 0.872126 0.0934138 0.19732 -0.08735
C_ C_ 0.877959 0.147425 0.194988 -0.08735
C_ C_ 0.879717 0.170238 0.167752 -0.05681
C_ C_ 0.880132 0.138973 0.144084 -0.08735
C_ C_ 0.968161 0.328723 0.15842 0.68181
C_ C_ 0.894084 0.390023 0.229812 0.1947
C_ C_ 0.897248 0.409736 0.257786 -0.08735
C_ C_ 0.895279 0.374136 0.279458 -0.08735
C_ C_ 0.863215 0.33117 0.274927 -0.05681
C_ C_ 0.853445 0.31676 0.246108 0.18498
C_ C_ 0.823182 0.274967 0.239667 -0.08735
C_ C_ 0.802627 0.245697 0.262954 -0.08735
C_ C_ 0.812317 0.260486 0.290637 -0.08735
C_ C_ 0.844452 0.300377 0.29743 0.18498
C_ C_ 0.816571 0.324004 0.344356 0.44287
C_ C_ 0.902419 0.304036 0.336707 0.44287
C_ C_ 0.91049 0.309671 0.367284 -0.05681
C_ C_ 0.959042 0.30525 0.379927 -0.08735
C_ C_ 0.963272 0.309264 0.410019 -0.08735
C_ C_ 0.923433 0.320012 0.428396 -0.05681
C_ C_ 0.874702 0.324898 0.416337 -0.05681
C_ C_ 0.868546 0.323326 0.386059 -0.05681
C_ C_ 0.821251 0.326605 0.37492 -0.05681
C_ C_ 0.779964 0.337464 0.392152 -0.08735
C_ C_ 0.786636 0.341749 0.421907 -0.08735
C_ C_ 0.833553 0.332718 0.434605 -0.05681
C_ C_ 0.841442 0.332458 0.464583 0.44287
C_ C_ 0.927704 0.314763 0.458692 0.44287
C_ C_ 0.89388 0.343432 0.00879897 0.18498
C_ C_ 0.919001 0.387637 0.0148895 -0.08735
C_ C_ 0.934033 0.397183 0.0432178 -0.08735
C_ C_ 0.920576 0.365675 0.0662748 -0.08735
C_ C_ 0.886414 0.326145 0.061344 0.18498
C_ C_ 0.875441 0.312478 0.033054 -0.05681
C_ C_ 0.856088 0.262774 0.0278747 -0.08735
C_ C_ 0.835904 0.235488 0.0511915 -0.08735
C_ C_ 0.840802 0.254364 0.0788441 0.1947
N_ N_ 0.62855 0.168342 0.474685 -0.29468
N_ N_ 0.6542 0.201066 0.0806726 -0.17154
N_ N_ 0.62498 0.175407 0.229034 -0.17154
N_ N_ 0.637421 0.204819 0.333582 -0.29468
N_ N_ 0.872153 0.343583 0.22445 -0.29468
N_ N_ 0.854977 0.311833 0.326682 -0.17154
N_ N_ 0.887022 0.324 0.475878 -0.17154
N_ N_ 0.87051 0.296411 0.083633 -0.29468
O_ O_ 0.708673 0.183124 0.431616 -0.58347
O_ O_ 0.697551 0.18785 0.385605 -0.58347
O_ O_ 0.635786 0.255652 0.434037 -0.58347
O_ O_ 0.617166 0.261762 0.388983 -0.58347
O_ O_ 0.633386 0.108741 0.423208 -0.58347
O_ O_ 0.632036 0.110735 0.375505 -0.58347
O_ O_ 0.56353 0.182445 0.421716 -0.58347
O_ O_ 0.551201 0.180357 0.375252 -0.58347
O_ O_ 0.577029 0.238677 0.0795534 -0.46727
O_ O_ 0.733202 0.165366 0.0817646 -0.46727
O_ O_ 0.538613 0.18849 0.223769 -0.46727
O_ O_ 0.709776 0.158209 0.234947 -0.46727
O_ O_ 0.789857 0.318694 0.176623 -0.58347
O_ O_ 0.798027 0.313951 0.129897 -0.58347
O_ O_ 0.878305 0.254164 0.184453 -0.58347
O_ O_ 0.880776 0.244651 0.138122 -0.58347
O_ O_ 0.850804 0.400708 0.169918 -0.58347
O_ O_ 0.869265 0.392609 0.124213 -0.58347
O_ O_ 0.938806 0.332195 0.180346 -0.58347
O_ O_ 0.948529 0.324346 0.13436 -0.58347
O_ O_ 0.936467 0.286529 0.319573 -0.46727
O_ O_ 0.771361 0.334901 0.333844 -0.46727
O_ O_ 0.969384 0.294209 0.468529 -0.46727
O_ O_ 0.804877 0.347371 0.480947 -0.46727
Zn Zn 0.631518 0.182642 0.88186 0.90689
Zn Zn 0.639207 0.168598 0.929148 0.90689
Zn Zn 0.858571 0.302702 0.629504 0.90689
Zn Zn 0.8533 0.316763 0.675312 0.90689
H_ H_ 0.804562 0.168709 0.948398 0.11455
H_ H_ 0.880894 0.179335 0.850096 0.11455
H_ H_ 0.789421 0.186372 0.854619 0.11455
H_ H_ 0.894033 0.154782 0.969124 0.11455
H_ H_ 0.984632 0.144079 0.959648 0.11455
H_ H_ 0.96537 0.185235 0.872913 0.11455
H_ H_ 0.639125 0.00491846 0.94399 0.11455
H_ H_ 0.625174 0.427926 0.855036 0.11455
H_ H_ 0.651846 0.0243072 0.85126 0.11455
H_ H_ 0.655986 0.411269 0.970445 0.11455
H_ H_ 0.648997 0.320393 0.962297 0.11455
H_ H_ 0.606043 0.345389 0.875483 0.11455
H_ H_ 0.585002 0.0948859 0.967112 0.11455
H_ H_ 0.563835 0.072467 0.508866 0.11455
H_ H_ 0.595882 0.118725 0.551382 0.11455
H_ H_ 0.694692 0.23776 0.972222 0.11455
H_ H_ 0.731917 0.288542 0.510693 0.11455
H_ H_ 0.722099 0.25631 0.560315 0.11455
H_ H_ 0.527782 0.217688 0.620308 0.11455
H_ H_ 0.515236 0.203067 0.67112 0.11455
H_ H_ 0.760609 0.115603 0.633597 0.11455
H_ H_ 0.744975 0.109344 0.68336 0.11455
H_ H_ 0.551197 0.0909011 0.7466 0.11455
H_ H_ 0.537728 0.0631895 0.793929 0.11455
H_ H_ 0.579268 0.111644 0.836404 0.11455
H_ H_ 0.675631 0.22546 0.756112 0.11455
H_ H_ 0.706473 0.275526 0.795447 0.11455
H_ H_ 0.681093 0.250863 0.844449 0.11455
H_ H_ 0.683977 0.292602 0.692138 0.11455
H_ H_ 0.609691 0.354689 0.599593 0.11455
H_ H_ 0.707396 0.339161 0.605484 0.11455
H_ H_ 0.596528 0.303074 0.713609 0.11455
H_ H_ 0.506827 0.324213 0.709183 0.11455
H_ H_ 0.532031 0.349025 0.617859 0.11455
H_ H_ 0.820482 0.485197 0.689448 0.11455
H_ H_ 0.902773 0.0488163 0.600528 0.11455
H_ H_ 0.874179 0.465878 0.601967 0.11455
H_ H_ 0.848907 0.0710165 0.714775 0.11455
H_ H_ 0.838721 0.159122 0.707135 0.11455
H_ H_ 0.903039 0.138683 0.621069 0.11455
H_ H_ 0.894792 0.401969 0.707295 0.11455
H_ H_ 0.911772 0.438699 0.75623 0.11455
H_ H_ 0.877076 0.395717 0.799413 0.11455
H_ H_ 0.820464 0.248298 0.72441 0.11455
H_ H_ 0.814368 0.190985 0.765381 0.11455
H_ H_ 0.817469 0.223179 0.812925 0.11455
H_ H_ 0.989922 0.286063 0.871665 0.11455
H_ H_ -0.003855000000000053 0.282352 0.926363 0.11455
H_ H_ 0.744653 0.358266 0.890277 0.11455
H_ H_ 0.746506 0.341976 0.93861 0.11455
H_ H_ 0.913912 0.418463 0.9999603817 0.11455
H_ H_ 0.972874 0.410371 0.54819 0.11455
H_ H_ 0.923556 0.368481 0.587743 0.11455
H_ H_ 0.835998 0.244702 0.501265 0.11455
H_ H_ 0.805101 0.19778 0.546657 0.11455
H_ H_ 0.800581 0.243153 0.590513 0.11455
C_ C_ 0.73268 0.171578 0.905313 0.68181
C_ C_ 0.789896 0.169371 0.902635 -0.05681
C_ C_ 0.821252 0.168034 0.926711 -0.08735
C_ C_ 0.875362 0.16201 0.923592 -0.05681
C_ C_ 0.898078 0.167232 0.895771 -0.05681
C_ C_ 0.866119 0.173126 0.871951 -0.08735
C_ C_ 0.812887 0.174331 0.874729 -0.08735
C_ C_ 0.908505 0.154499 0.947305 -0.08735
C_ C_ 0.960374 0.146474 0.942644 -0.08735
C_ C_ 0.981623 0.165869 0.9175 -0.05681
C_ C_ 0.950706 0.172827 0.894125 -0.08735
C_ C_ 0.631913 0.273117 0.911007 0.68181
C_ C_ 0.639861 0.0753709 0.901161 0.68181
C_ C_ 0.643467 0.0203141 0.897579 -0.05681
C_ C_ 0.64273 0.48643 0.931306 -0.08735
C_ C_ 0.639598 0.432474 0.926994 -0.05681
C_ C_ 0.628196 0.412297 0.899334 -0.05681
C_ C_ 0.628769 0.443495 0.876279 -0.08735
C_ C_ 0.635562 0.496301 0.879881 -0.08735
C_ C_ 0.639932 0.398157 0.949967 -0.08735
C_ C_ 0.640183 0.345576 0.945115 -0.08735
C_ C_ 0.628659 0.327733 0.917507 -0.05681
C_ C_ 0.615074 0.362296 0.895918 -0.08735
C_ C_ 0.536599 0.164935 0.90518 0.68181
C_ C_ 0.601935 0.117976 0.983945 0.1947
C_ C_ 0.583164 0.111118 0.507046 -0.08735
C_ C_ 0.608127 0.132354 0.530043 -0.08735
C_ C_ 0.642758 0.172453 0.526706 -0.05681
C_ C_ 0.649965 0.191245 0.497989 0.18498
C_ C_ 0.677172 0.235481 0.992155 -0.08735
C_ C_ 0.705873 0.257601 0.515611 -0.08735
C_ C_ 0.702755 0.23665 0.543741 -0.08735
C_ C_ 0.668364 0.197675 0.549871 0.18498
C_ C_ 0.696366 0.165454 0.596228 0.44287
C_ C_ 0.613274 0.198444 0.59158 0.44287
C_ C_ 0.603493 0.188288 0.620385 -0.05681
C_ C_ 0.559037 0.203328 0.632748 -0.08735
C_ C_ 0.552038 0.196856 0.66205 -0.08735
C_ C_ 0.591189 0.182276 0.680424 -0.05681
C_ C_ 0.640038 0.171329 0.668657 -0.05681
C_ C_ 0.643862 0.173344 0.637963 -0.05681
C_ C_ 0.690814 0.16002 0.626349 -0.05681
C_ C_ 0.72911 0.138341 0.642886 -0.08735
C_ C_ 0.719114 0.130822 0.672533 -0.08735
C_ C_ 0.678057 0.152687 0.686759 -0.05681
C_ C_ 0.66628 0.146854 0.716558 0.44287
C_ C_ 0.581854 0.174977 0.709932 0.44287
C_ C_ 0.607771 0.149182 0.757442 0.18498
C_ C_ 0.573915 0.108261 0.763425 -0.08735
C_ C_ 0.563029 0.0932259 0.791242 -0.08735
C_ C_ 0.583172 0.122139 0.814613 -0.08735
C_ C_ 0.61463 0.163501 0.80902 0.18498
C_ C_ 0.629096 0.173693 0.780563 -0.05681
C_ C_ 0.662485 0.213851 0.777153 -0.08735
C_ C_ 0.681589 0.240675 0.800075 -0.08735
C_ C_ 0.664252 0.231651 0.827099 0.1947
C_ C_ 0.758336 0.305091 0.651786 0.68181
C_ C_ 0.701436 0.311432 0.648127 -0.05681
C_ C_ 0.66789 0.305844 0.671444 -0.08735
C_ C_ 0.613104 0.31126 0.66866 -0.05681
C_ C_ 0.594171 0.327975 0.642727 -0.05681
C_ C_ 0.626435 0.338046 0.619047 -0.08735
C_ C_ 0.681268 0.328327 0.621486 -0.08735
C_ C_ 0.582782 0.314052 0.693574 -0.08735
C_ C_ 0.529617 0.31727 0.689612 -0.08735
C_ C_ 0.508324 0.329212 0.662112 -0.05681
C_ C_ 0.543603 0.339066 0.639843 -0.08735
C_ C_ 0.873196 0.21107 0.659246 0.68181
C_ C_ 0.842079 0.408516 0.648126 0.68181
C_ C_ 0.849331 0.465643 0.646104 -0.05681
C_ C_ 0.852379 -0.0034399999999999986 0.673238 -0.08735
C_ C_ 0.860895 0.0496829 0.670005 -0.05681
C_ C_ 0.875715 0.0708282 0.642711 -0.05681
C_ C_ 0.890501 0.0374753 0.621142 -0.08735
C_ C_ 0.870981 0.48782 0.621699 -0.08735
C_ C_ 0.85036 0.0833162 0.693051 -0.08735
C_ C_ 0.853573 0.135789 0.689621 -0.08735
C_ C_ 0.871327 0.155452 0.663296 -0.05681
C_ C_ 0.883294 0.122627 0.640053 -0.08735
C_ C_ 0.955331 0.314395 0.65815 0.68181
C_ C_ 0.884592 0.380785 0.727231 0.1947
C_ C_ 0.894022 0.402403 0.754678 -0.08735
C_ C_ 0.876909 0.378336 0.779073 -0.08735
C_ C_ 0.854028 0.330361 0.776063 -0.05681
C_ C_ 0.842657 0.309886 0.74803 0.18498
C_ C_ 0.820338 0.264283 0.745462 -0.08735
C_ C_ 0.814516 0.232075 0.76789 -0.08735
C_ C_ 0.821534 0.250713 0.795663 -0.08735
C_ C_ 0.841606 0.299349 0.800798 0.18498
C_ C_ 0.811551 0.320247 0.848567 0.44287
C_ C_ 0.898103 0.302079 0.842617 0.44287
C_ C_ 0.907687 0.302561 0.873883 -0.05681
C_ C_ 0.955905 0.29353 0.885782 -0.08735
C_ C_ 0.961549 0.293423 0.916037 -0.08735
C_ C_ 0.918353 0.307192 0.933275 -0.05681
C_ C_ 0.8718 0.321299 0.920762 -0.05681
C_ C_ 0.867092 0.318804 0.890814 -0.05681
C_ C_ 0.818368 0.32566 0.878607 -0.05681
C_ C_ 0.777337 0.338477 0.897508 -0.08735
C_ C_ 0.782981 0.338167 0.926388 -0.08735
C_ C_ 0.829552 0.329441 0.9381 -0.05681
C_ C_ 0.836679 0.331333 0.967308 0.44287
C_ C_ 0.922249 0.314661 0.963028 0.44287
C_ C_ 0.894525 0.333501 0.506638 0.18498
C_ C_ 0.931402 0.369549 0.514041 -0.08735
C_ C_ 0.944458 0.37881 0.543078 -0.08735
C_ C_ 0.917979 0.356418 0.56457 -0.08735
C_ C_ 0.880085 0.321143 0.558984 0.18498
C_ C_ 0.872373 0.305459 0.529235 -0.05681
C_ C_ 0.84867 0.256598 0.524812 -0.08735
C_ C_ 0.827711 0.230799 0.548468 -0.08735
C_ C_ 0.829382 0.252731 0.57582 0.1947
N_ N_ 0.628525 0.161634 0.978069 -0.29468
N_ N_ 0.657678 0.184316 0.579217 -0.17154
N_ N_ 0.620389 0.161328 0.727301 -0.17154
N_ N_ 0.631754 0.193561 0.832204 -0.29468
N_ N_ 0.860298 0.335145 0.7246 -0.29468
N_ N_ 0.850734 0.313089 0.831347 -0.17154
N_ N_ 0.883508 0.332193 0.978785 -0.17154
N_ N_ 0.859312 0.294234 0.581229 -0.29468
O_ O_ 0.71479 0.183268 0.930477 -0.58347
O_ O_ 0.706737 0.176556 0.882495 -0.58347
O_ O_ 0.630726 0.242996 0.931007 -0.58347
O_ O_ 0.631865 0.256627 0.885479 -0.58347
O_ O_ 0.647061 0.0958482 0.925409 -0.58347
O_ O_ 0.62911 0.104083 0.878327 -0.58347
O_ O_ 0.564601 0.152702 0.926938 -0.58347
O_ O_ 0.556832 0.185372 0.883396 -0.58347
O_ O_ 0.579125 0.221318 0.576197 -0.46727
O_ O_ 0.738449 0.154364 0.584141 -0.46727
O_ O_ 0.535412 0.18034 0.719735 -0.46727
O_ O_ 0.698259 0.12454 0.734056 -0.46727
O_ O_ 0.779477 0.302368 0.675974 -0.58347
O_ O_ 0.782437 0.303071 0.629137 -0.58347
O_ O_ 0.875014 0.241607 0.679874 -0.58347
O_ O_ 0.858327 0.227802 0.6354 -0.58347
O_ O_ 0.834524 0.387434 0.671989 -0.58347
O_ O_ 0.853583 0.381902 0.626301 -0.58347
O_ O_ 0.927776 0.33458 0.677129 -0.58347
O_ O_ 0.934268 0.303977 0.634011 -0.58347
O_ O_ 0.936892 0.299426 0.825089 -0.46727
O_ O_ 0.765322 0.317984 0.837692 -0.46727
O_ O_ 0.968905 0.31619 0.975042 -0.46727
O_ O_ 0.796173 0.334382 0.983302 -0.46727
Zn Zn 0.615742 0.684957 0.385563 0.90689
Zn Zn 0.629229 0.68638 0.432604 0.90689
Zn Zn 0.873795 0.819155 0.133119 0.90689
Zn Zn 0.865724 0.826766 0.181252 0.90689
H_ H_ 0.796968 0.671375 0.449374 0.11455
H_ H_ 0.859473 0.680073 0.349429 0.11455
H_ H_ 0.770532 0.687056 0.358804 0.11455
H_ H_ 0.881481 0.656453 0.464567 0.11455
H_ H_ 0.973387 0.66385 0.456096 0.11455
H_ H_ 0.949642 0.687791 0.367369 0.11455
H_ H_ 0.628228 0.51707 0.444188 0.11455
H_ H_ 0.590672 0.937371 0.35279 0.11455
H_ H_ 0.617179 0.528793 0.353505 0.11455
H_ H_ 0.672552 0.936449 0.462965 0.11455
H_ H_ 0.64429 0.841911 0.463635 0.11455
H_ H_ 0.587899 0.852986 0.378925 0.11455
H_ H_ 0.566306 0.625781 0.466255 0.11455
H_ H_ 0.571864 0.579195 0.0265419 0.11455
H_ H_ 0.612553 0.634016 0.0656679 0.11455
H_ H_ 0.696648 0.740022 0.477833 0.11455
H_ H_ 0.730645 0.801661 0.0159323 0.11455
H_ H_ 0.707878 0.786992 0.0650497 0.11455
H_ H_ 0.519603 0.708796 0.125529 0.11455
H_ H_ 0.503357 0.697117 0.174084 0.11455
H_ H_ 0.766675 0.676321 0.14671 0.11455
H_ H_ 0.754425 0.672458 0.199645 0.11455
H_ H_ 0.55641 0.596948 0.250085 0.11455
H_ H_ 0.537053 0.563961 0.3012 0.11455
H_ H_ 0.566547 0.618228 0.342799 0.11455
H_ H_ 0.652665 0.754183 0.264926 0.11455
H_ H_ 0.687846 0.78664 0.305717 0.11455
H_ H_ 0.668768 0.761473 0.352942 0.11455
H_ H_ 0.693503 0.816386 0.19239 0.11455
H_ H_ 0.630709 0.844982 0.0937024 0.11455
H_ H_ 0.726028 0.854231 0.104849 0.11455
H_ H_ 0.611336 0.845501 0.210565 0.11455
H_ H_ 0.517648 0.84678 0.201799 0.11455
H_ H_ 0.540766 0.83692 0.110378 0.11455
H_ H_ 0.872779 0.989246 0.195392 0.11455
H_ H_ 0.86903 0.571815 0.0942316 0.11455
H_ H_ 0.856053 0.983803 0.104808 0.11455
H_ H_ 0.873064 0.573599 0.21258 0.11455
H_ H_ 0.880731 0.668194 0.208216 0.11455
H_ H_ 0.875291 0.656025 0.116256 0.11455
H_ H_ 0.92906 0.897228 0.217116 0.11455
H_ H_ 0.956832 0.909638 0.265304 0.11455
H_ H_ 0.921349 0.860516 0.303666 0.11455
H_ H_ 0.803213 0.769218 0.222925 0.11455
H_ H_ 0.774508 0.7112 0.261799 0.11455
H_ H_ 0.800882 0.725265 0.31076 0.11455
H_ H_ 0.991117 0.789217 0.375266 0.11455
H_ H_ -0.003178000000000014 0.802439 0.430092 0.11455
H_ H_ 0.739114 0.835793 0.387005 0.11455
H_ H_ 0.74903 0.843758 0.439127 0.11455
H_ H_ 0.925623 0.911201 0.501323 0.11455
H_ H_ 0.967524 0.931215 0.048219 0.11455
H_ H_ 0.926525 0.884277 0.0888937 0.11455
H_ H_ 0.872671 0.740524 0.0100269 0.11455
H_ H_ 0.818407 0.704904 0.0476582 0.11455
H_ H_ 0.82498 0.73928 0.0953861 0.11455
C_ C_ 0.720191 0.689984 0.409929 0.68181
C_ C_ 0.775732 0.689303 0.405175 -0.05681
C_ C_ 0.811083 0.678264 0.427619 -0.08735
C_ C_ 0.861858 0.671969 0.42127 -0.05681
C_ C_ 0.88069 0.674104 0.393355 -0.05681
C_ C_ 0.845754 0.679084 0.370775 -0.08735
C_ C_ 0.794845 0.686374 0.376609 -0.08735
C_ C_ 0.895394 0.667446 0.443816 -0.08735
C_ C_ 0.947377 0.664156 0.437679 -0.08735
C_ C_ 0.964907 0.67486 0.411215 -0.05681
C_ C_ 0.932019 0.677483 0.388065 -0.08735
C_ C_ 0.622021 0.784691 0.416567 0.68181
C_ C_ 0.618838 0.585597 0.402048 0.68181
C_ C_ 0.616329 0.530512 0.399929 -0.05681
C_ C_ 0.63966 1.00112 0.422174 -0.08735
C_ C_ 0.63294 0.947743 0.422416 -0.05681
C_ C_ 0.609425 0.924088 0.397564 -0.05681
C_ C_ 0.597835 0.953166 0.373731 -0.08735
C_ C_ 0.601193 1.00533715 0.374532 -0.08735
C_ C_ 0.649571 0.917473 0.44547 -0.08735
C_ C_ 0.641905 0.863179 0.444718 -0.08735
C_ C_ 0.619152 0.841452 0.420782 -0.05681
C_ C_ 0.605276 0.87236 0.396974 -0.08735
C_ C_ 0.523885 0.689408 0.409811 0.68181
C_ C_ 0.585629 0.640039 0.484662 0.1947
C_ C_ 0.597049 0.614063 0.0213325 -0.08735
C_ C_ 0.622782 0.640175 0.042832 -0.08735
C_ C_ 0.652937 0.683034 0.0363877 -0.05681
C_ C_ 0.664669 0.692051 1.0071406999999999 0.18498
C_ C_ 0.683309 0.731989 0.499106 -0.08735
C_ C_ 0.708769 0.768873 0.0211516 -0.08735
C_ C_ 0.693684 0.761189 0.0490757 -0.08735
C_ C_ 0.669231 0.716823 0.057744 0.18498
C_ C_ 0.699335 0.70126 0.106954 0.44287
C_ C_ 0.612532 0.717487 0.0985096 0.44287
C_ C_ 0.602824 0.710979 0.127594 -0.05681
C_ C_ 0.551494 0.708156 0.138571 -0.08735
C_ C_ 0.54147 0.699436 0.168175 -0.08735
C_ C_ 0.580717 0.690487 0.187765 -0.05681
C_ C_ 0.630524 0.68937 0.177044 -0.05681
C_ C_ 0.642148 0.69916 0.147526 -0.05681
C_ C_ 0.691927 0.698107 0.137193 -0.05681
C_ C_ 0.730701 0.685711 0.156206 -0.08735
C_ C_ 0.721946 0.676967 0.184809 -0.08735
C_ C_ 0.670279 0.679187 0.195333 -0.05681
C_ C_ 0.658659 0.676526 0.225469 0.44287
C_ C_ 0.571953 0.690027 0.217352 0.44287
C_ C_ 0.599971 0.659061 0.26418 0.18498
C_ C_ 0.570522 0.61533 0.2689 -0.08735
C_ C_ 0.557789 0.600115 0.296865 -0.08735
C_ C_ 0.573961 0.629534 0.320588 -0.08735
C_ C_ 0.601625 0.673776 0.3159 0.18498
C_ C_ 0.61276 0.689802 0.288335 -0.05681
C_ C_ 0.643843 0.734011 0.284957 -0.08735
C_ C_ 0.663234 0.757298 0.308106 -0.08735
C_ C_ 0.650156 0.740341 0.335448 0.1947
C_ C_ 0.771001 0.818958 0.153638 0.68181
C_ C_ 0.715111 0.828683 0.14827 -0.05681
C_ C_ 0.680237 0.829741 0.171668 -0.08735
C_ C_ 0.627003 0.835885 0.166399 -0.05681
C_ C_ 0.608219 0.832281 0.137502 -0.05681
C_ C_ 0.643172 0.838035 0.114824 -0.08735
C_ C_ 0.69595 0.841335 0.120781 -0.08735
C_ C_ 0.595834 0.842411 0.188102 -0.08735
C_ C_ 0.542685 0.84099 0.1843 -0.08735
C_ C_ 0.522124 0.833863 0.155788 -0.05681
C_ C_ 0.555402 0.83229 0.132579 -0.08735
C_ C_ 0.871597 0.724795 0.161466 0.68181
C_ C_ 0.870093 0.924599 0.15212 0.68181
C_ C_ 0.876988 0.979111 0.149464 -0.05681
C_ C_ 0.87164 0.506427 0.167501 -0.08735
C_ C_ 0.872388 0.560377 0.166696 -0.05681
C_ C_ 0.875453 0.584248 0.139594 -0.05681
C_ C_ 0.873784 0.552942 0.114831 -0.08735
C_ C_ 0.871468 1.00435003 0.123535 -0.08735
C_ C_ 0.87692 0.591398 0.191588 -0.08735
C_ C_ 0.873253 0.644792 0.189403 -0.08735
C_ C_ 0.872366 0.667763 0.16271 -0.05681
C_ C_ 0.877275 0.637046 0.137438 -0.08735
C_ C_ 0.969872 0.826715 0.159327 0.68181
C_ C_ 0.90945 0.87469 0.234082 0.1947
C_ C_ 0.924322 0.884243 0.262354 -0.08735
C_ C_ 0.902659 0.858921 0.284749 -0.08735
C_ C_ 0.867967 0.8204 0.279274 -0.05681
C_ C_ 0.849772 0.814494 0.250939 0.18498
C_ C_ 0.81311 0.778986 0.245751 -0.08735
C_ C_ 0.797097 0.745194 0.266777 -0.08735
C_ C_ 0.811781 0.752225 0.294843 -0.08735
C_ C_ 0.845183 0.791191 0.30272 0.18498
C_ C_ 0.813534 0.815471 0.348681 0.44287
C_ C_ 0.903142 0.796434 0.345901 0.44287
C_ C_ 0.90879 0.802184 0.375246 -0.05681
C_ C_ 0.957942 0.799433 0.388487 -0.08735
C_ C_ 0.960438 0.804687 0.41913 -0.08735
C_ C_ 0.91632 0.808746 0.436262 -0.05681
C_ C_ 0.869652 0.812512 0.423013 -0.05681
C_ C_ 0.864841 0.810541 0.391985 -0.05681
C_ C_ 0.818231 0.81727 0.378837 -0.05681
C_ C_ 0.777878 0.834076 0.396616 -0.08735
C_ C_ 0.781776 0.832477 0.426735 -0.08735
C_ C_ 0.829288 0.825691 0.440002 -0.05681
C_ C_ 0.83277 0.827437 0.469802 0.44287
C_ C_ 0.919502 0.813168 0.466287 0.44287
C_ C_ 0.910145 0.837272 0.0106994 0.18498
C_ C_ 0.941675 0.877806 0.0170756 -0.08735
C_ C_ 0.946643 0.897393 0.043924 -0.08735
C_ C_ 0.923572 0.871536 0.0669893 -0.08735
C_ C_ 0.898697 0.825055 0.0618359 0.18498
C_ C_ 0.89124 0.808086 0.0343193 -0.05681
C_ C_ 0.870434 0.758843 0.0314563 -0.08735
C_ C_ 0.841171 0.738461 0.0521581 -0.08735
C_ C_ 0.844325 0.760285 0.0787329 0.1947
N_ N_ 0.623419 0.675416 0.480727 -0.29468
N_ N_ 0.660573 0.709372 0.0885779 -0.17154
N_ N_ 0.61043 0.676624 0.234949 -0.17154
N_ N_ 0.622064 0.69786 0.339597 -0.29468
N_ N_ 0.873064 0.840334 0.228752 -0.29468
N_ N_ 0.856205 0.801018 0.333311 -0.17154
N_ N_ 0.878901 0.825059 0.482257 -0.17154
N_ N_ 0.873112 0.802158 0.0849404 -0.29468
O_ O_ 0.701759 0.678371 0.434582 -0.58347
O_ O_ 0.691439 0.696992 0.388375 -0.58347
O_ O_ 0.638873 0.75955 0.436831 -0.58347
O_ O_ 0.602504 0.761698 0.394673 -0.58347
O_ O_ 0.619633 0.606116 0.427306 -0.58347
O_ O_ 0.626877 0.611561 0.380487 -0.58347
O_ O_ 0.551417 0.693598 0.431176 -0.58347
O_ O_ 0.540465 0.673217 0.385725 -0.58347
O_ O_ 0.575604 0.729981 0.0806319 -0.46727
O_ O_ 0.74581 0.692814 0.0962339 -0.46727
O_ O_ 0.524048 0.690539 0.227434 -0.46727
O_ O_ 0.69588 0.667164 0.244026 -0.46727
O_ O_ 0.78858 0.821338 0.178573 -0.58347
O_ O_ 0.800421 0.818939 0.132626 -0.58347
O_ O_ 0.866499 0.750113 0.184328 -0.58347
O_ O_ 0.872769 0.74494 0.137265 -0.58347
O_ O_ 0.865701 0.900939 0.175575 -0.58347
O_ O_ 0.873329 0.896933 0.129241 -0.58347
O_ O_ 0.942582 0.830516 0.181064 -0.58347
O_ O_ 0.951446 0.815979 0.134556 -0.58347
O_ O_ 0.940671 0.780081 0.330247 -0.46727
O_ O_ 0.769615 0.827997 0.335636 -0.46727
O_ O_ 0.962198 0.797142 0.477701 -0.46727
O_ O_ 0.791648 0.835381 0.484901 -0.46727
Zn Zn 0.637732 0.675835 0.887783 0.90689
Zn Zn 0.646918 0.670929 0.935818 0.90689
Zn Zn 0.880037 0.805771 0.632876 0.90689
Zn Zn 0.865938 0.81537 0.682071 0.90689
H_ H_ 0.814414 0.687165 0.949516 0.11455
H_ H_ 0.885232 0.659792 0.851345 0.11455
H_ H_ 0.787956 0.674016 0.859127 0.11455
H_ H_ 0.9059 0.686852 0.968633 0.11455
H_ H_ 0.99509 0.680919 0.959593 0.11455
H_ H_ 0.967695 0.652804 0.87075 0.11455
H_ H_ 0.649361 0.500842 0.953602 0.11455
H_ H_ 0.649996 0.92494 0.846473 0.11455
H_ H_ 0.629976 0.518224 0.86083 0.11455
H_ H_ 0.663939 0.92187 0.963669 0.11455
H_ H_ 0.648602 0.833297 0.962921 0.11455
H_ H_ 0.636545 0.843086 0.870128 0.11455
H_ H_ 0.584586 0.611107 0.975596 0.11455
H_ H_ 0.553245 0.585445 0.512153 0.11455
H_ H_ 0.595881 0.621882 0.556613 0.11455
H_ H_ 0.705508 0.742262 0.977986 0.11455
H_ H_ 0.736635 0.782423 0.518816 0.11455
H_ H_ 0.701443 0.76774 0.569105 0.11455
H_ H_ 0.519263 0.712846 0.626706 0.11455
H_ H_ 0.509425 0.718739 0.681102 0.11455
H_ H_ 0.764314 0.661465 0.642116 0.11455
H_ H_ 0.752465 0.648015 0.691904 0.11455
H_ H_ 0.5689 0.589774 0.753063 0.11455
H_ H_ 0.554956 0.557558 0.801959 0.11455
H_ H_ 0.585621 0.612474 0.84295 0.11455
H_ H_ 0.658234 0.744628 0.762888 0.11455
H_ H_ 0.685266 0.798149 0.805083 0.11455
H_ H_ 0.690072 0.753825 0.851328 0.11455
H_ H_ 0.693331 0.798517 0.692888 0.11455
H_ H_ 0.63426 0.83882 0.594945 0.11455
H_ H_ 0.723724 0.818481 0.601967 0.11455
H_ H_ 0.609533 0.806901 0.70947 0.11455
H_ H_ 0.514909 0.820278 0.70105 0.11455
H_ H_ 0.547101 0.835756 0.610706 0.11455
H_ H_ 0.831972 0.983186 0.691302 0.11455
H_ H_ 0.897639 0.555237 0.601513 0.11455
H_ H_ 0.891815 0.960991 0.60726 0.11455
H_ H_ 0.829468 0.568861 0.713194 0.11455
H_ H_ 0.84561 0.662662 0.708277 0.11455
H_ H_ 0.898714 0.639685 0.623166 0.11455
H_ H_ 0.914413 0.89475 0.71981 0.11455
H_ H_ 0.91927 0.924269 0.766615 0.11455
H_ H_ 0.900062 0.872456 0.808226 0.11455
H_ H_ 0.81023 0.746782 0.725295 0.11455
H_ H_ 0.770789 0.700629 0.766109 0.11455
H_ H_ 0.796728 0.721163 0.816357 0.11455
H_ H_ 0.992059 0.782505 0.872756 0.11455
H_ H_ 1.00511115 0.796697 0.923101 0.11455
H_ H_ 0.740099 0.82119 0.892227 0.11455
H_ H_ 0.757121 0.843751 0.942846 0.11455
H_ H_ 0.961775 0.894843 0.999863019 0.11455
H_ H_ 0.946567 0.933805 0.55121 0.11455
H_ H_ 0.929291 0.86889 0.591154 0.11455
H_ H_ 0.843085 0.748501 0.5101 0.11455
H_ H_ 0.810324 0.697024 0.551596 0.11455
H_ H_ 0.825402 0.727508 0.59977 0.11455
C_ C_ 0.738729 0.681405 0.909676 0.68181
C_ C_ 0.7959 0.679728 0.90431 -0.05681
C_ C_ 0.831043 0.686039 0.928473 -0.08735
C_ C_ 0.882344 0.677018 0.924064 -0.05681
C_ C_ 0.900078 0.667318 0.896736 -0.05681
C_ C_ 0.86647 0.661319 0.873035 -0.08735
C_ C_ 0.813902 0.669338 0.876512 -0.08735
C_ C_ 0.916997 0.681116 0.947293 -0.08735
C_ C_ 0.969533 0.675924 0.942269 -0.08735
C_ C_ 0.986749 0.666069 0.914725 -0.05681
C_ C_ 0.952656 0.663053 0.892219 -0.08735
C_ C_ 0.642073 0.77263 0.914649 0.68181
C_ C_ 0.64235 0.574128 0.909496 0.68181
C_ C_ 0.639621 0.51906 0.907201 -0.05681
C_ C_ 0.642417 -0.010156999999999972 0.921776 -0.08735
C_ C_ 0.645008 0.936914 0.919628 -0.05681
C_ C_ 0.645395 0.913077 0.891972 -0.05681
C_ C_ 0.651585 0.943949 0.867009 -0.08735
C_ C_ 0.646677 -0.0009029999999999871 0.869407 -0.08735
C_ C_ 0.651681 0.906079 0.943811 -0.08735
C_ C_ 0.64871 0.854492 0.942545 -0.08735
C_ C_ 0.63853 0.829641 0.915975 -0.05681
C_ C_ 0.638915 0.860572 0.890701 -0.08735
C_ C_ 0.543952 0.674984 0.912877 0.68181
C_ C_ 0.606199 0.629245 0.992297 0.1947
C_ C_ 0.577569 0.617999 0.511199 -0.08735
C_ C_ 0.601977 0.637432 0.535145 -0.08735
C_ C_ 0.63843 0.675279 0.532176 -0.05681
C_ C_ 0.647059 0.696166 0.503963 0.18498
C_ C_ 0.69611 0.73204 1.00017 -0.08735
C_ C_ 0.709258 0.75162 0.52307 -0.08735
C_ C_ 0.687832 0.745106 0.550875 -0.08735
C_ C_ 0.660219 0.700282 0.556673 0.18498
C_ C_ 0.688911 0.670366 0.602427 0.44287
C_ C_ 0.605277 0.696525 0.598157 0.44287
C_ C_ 0.596505 0.694294 0.627422 -0.05681
C_ C_ 0.547149 0.700831 0.639983 -0.08735
C_ C_ 0.543599 0.704795 0.670571 -0.08735
C_ C_ 0.585197 0.693664 0.688488 -0.05681
C_ C_ 0.631982 0.679275 0.675532 -0.05681
C_ C_ 0.636773 0.679978 0.644845 -0.05681
C_ C_ 0.684916 0.670738 0.632221 -0.05681
C_ C_ 0.727495 0.664537 0.650258 -0.08735
C_ C_ 0.718837 0.654785 0.67912 -0.08735
C_ C_ 0.672715 0.665283 0.692602 -0.05681
C_ C_ 0.665547 0.663827 0.722474 0.44287
C_ C_ 0.578073 0.686703 0.718507 0.44287
C_ C_ 0.608243 0.656063 0.764756 0.18498
C_ C_ 0.580238 0.612761 0.770355 -0.08735
C_ C_ 0.571703 0.59701 0.798005 -0.08735
C_ C_ 0.589934 0.626304 0.821599 -0.08735
C_ C_ 0.62302 0.666338 0.816724 0.18498
C_ C_ 0.630692 0.683295 0.788471 -0.05681
C_ C_ 0.65306 0.731711 0.784481 -0.08735
C_ C_ 0.670122 0.759389 0.807896 -0.08735
C_ C_ 0.668621 0.736502 0.835117 0.1947
C_ C_ 0.775046 0.811965 0.655422 0.68181
C_ C_ 0.719394 0.815145 0.648305 -0.05681
C_ C_ 0.683821 0.813463 0.671473 -0.08735
C_ C_ 0.631402 0.822627 0.666001 -0.05681
C_ C_ 0.614438 0.827502 0.637574 -0.05681
C_ C_ 0.649283 0.831801 0.615691 -0.08735
C_ C_ 0.70057 0.824694 0.620515 -0.08735
C_ C_ 0.597103 0.816701 0.687973 -0.08735
C_ C_ 0.543956 0.823132 0.682692 -0.08735
C_ C_ 0.525238 0.826388 0.655467 -0.05681
C_ C_ 0.560335 0.829968 0.632427 -0.08735
C_ C_ 0.880459 0.71238 0.660835 0.68181
C_ C_ 0.861588 0.906372 0.653924 0.68181
C_ C_ 0.865699 0.963996 0.650676 -0.05681
C_ C_ 0.836777 0.499573 0.6694 -0.08735
C_ C_ 0.848803 0.55156 0.668814 -0.05681
C_ C_ 0.876642 0.57013 0.645536 -0.05681
C_ C_ 0.885209 0.539332 0.621523 -0.08735
C_ C_ 0.88389 0.984597 0.624201 -0.08735
C_ C_ 0.839672 0.585107 0.692161 -0.08735
C_ C_ 0.852226 0.636885 0.690073 -0.08735
C_ C_ 0.875784 0.6552 0.664704 -0.05681
C_ C_ 0.886582 0.622038 0.643216 -0.08735
C_ C_ 0.971397 0.827176 0.659397 0.68181
C_ C_ 0.901754 0.866915 0.736746 0.1947
C_ C_ 0.905004 0.885793 0.76348 -0.08735
C_ C_ 0.892377 0.858135 0.786761 -0.08735
C_ C_ 0.86649 0.811716 0.782404 -0.05681
C_ C_ 0.854149 0.797423 0.752977 0.18498
C_ C_ 0.82238 0.756236 0.747316 -0.08735
C_ C_ 0.801387 0.729814 0.769697 -0.08735
C_ C_ 0.811715 0.744833 0.798496 -0.08735
C_ C_ 0.843838 0.783461 0.80491 0.18498
C_ C_ 0.814427 0.811337 0.850909 0.44287
C_ C_ 0.901946 0.791764 0.845974 0.44287
C_ C_ 0.90827 0.795978 0.875735 -0.05681
C_ C_ 0.957972 0.790694 0.886112 -0.08735
C_ C_ 0.966229 0.798856 0.914827 -0.08735
C_ C_ 0.924923 0.803398 0.933931 -0.05681
C_ C_ 0.875447 0.812852 0.923307 -0.05681
C_ C_ 0.867827 0.808122 0.894215 -0.05681
C_ C_ 0.818549 0.812614 0.881744 -0.05681
C_ C_ 0.778086 0.828132 0.899144 -0.08735
C_ C_ 0.786579 0.834109 0.928794 -0.08735
C_ C_ 0.836818 0.826802 0.940599 -0.05681
C_ C_ 0.849563 0.832994 0.969919 0.44287
C_ C_ 0.935022 0.809337 0.961888 0.44287
C_ C_ 0.886052 0.839744 0.511893 0.18498
C_ C_ 0.914089 0.885604 0.518704 -0.08735
C_ C_ 0.926983 0.898552 0.546807 -0.08735
C_ C_ 0.9135 0.865717 0.569472 -0.08735
C_ C_ 0.885015 0.820689 0.563903 0.18498
C_ C_ 0.875644 0.805164 0.535572 -0.05681
C_ C_ 0.852676 0.75877 0.531441 -0.08735
C_ C_ 0.833278 0.732672 0.555217 -0.08735
C_ C_ 0.841253 0.748551 0.5824 0.1947
N_ N_ 0.638825 0.66622 0.985235 -0.29468
N_ N_ 0.64974 0.684049 0.585848 -0.17154
N_ N_ 0.617018 0.670624 0.735068 -0.17154
N_ N_ 0.644315 0.690773 0.839643 -0.29468
N_ N_ 0.869604 0.828349 0.730815 -0.29468
N_ N_ 0.854206 0.797487 0.834355 -0.17154
N_ N_ 0.897657 0.825262 0.980741 -0.17154
N_ N_ 0.866701 0.794366 0.587567 -0.29468
O_ O_ 0.722066 0.661991 0.93274 -0.58347
O_ O_ 0.710747 0.68637 0.88806 -0.58347
O_ O_ 0.652082 0.747368 0.936803 -0.58347
O_ O_ 0.630459 0.749946 0.891719 -0.58347
O_ O_ 0.636939 0.596083 0.933453 -0.58347
O_ O_ 0.646948 0.59962 0.886158 -0.58347
O_ O_ 0.57249 0.678433 0.934228 -0.58347
O_ O_ 0.563042 0.668323 0.888461 -0.58347
O_ O_ 0.572883 0.721274 0.581999 -0.46727
O_ O_ 0.734665 0.662572 0.590987 -0.46727
O_ O_ 0.533395 0.688774 0.730151 -0.46727
O_ O_ 0.703153 0.649008 0.738622 -0.46727
O_ O_ 0.788089 0.80963 0.680904 -0.58347
O_ O_ 0.807145 0.797049 0.635724 -0.58347
O_ O_ 0.879637 0.741319 0.682944 -0.58347
O_ O_ 0.888639 0.729339 0.635729 -0.58347
O_ O_ 0.856748 0.886871 0.678556 -0.58347
O_ O_ 0.8695 0.879614 0.631704 -0.58347
O_ O_ 0.943575 0.824778 0.68041 -0.58347
O_ O_ 0.953893 0.819675 0.634275 -0.58347
O_ O_ 0.939212 0.775901 0.829916 -0.46727
O_ O_ 0.769506 0.822688 0.8387 -0.46727
O_ O_ 0.979702 0.803397 0.972887 -0.46727
O_ O_ 0.813037 0.845057 0.987882 -0.46727
