_cell_length_a 26.376
_cell_length_b 26.400000238300095
_cell_length_c 46.67800035477134
_cell_angle_alpha 90.00700052986613
_cell_angle_beta 89.99899961309502
_cell_angle_gamma 90.45000003183146
_symmetry_space_group_name_H-M         'P 1'
_symmetry_Int_Tables_number            1
loop_
_symmetry_equiv_pos_as_xyz
   'x, y, z'
                         
loop_
_atom_site_label
_atom_site_type_symbol
_atom_site_fract_x 
_atom_site_fract_y
_atom_site_fract_z
_atom_site_charge
Zn Zn 0.126821 0.182297 0.375185 0.90689
Zn Zn 0.137892 0.173646 0.437315 0.90689
Zn Zn 0.37319 0.317691 0.12519 0.90689
Zn Zn 0.362116 0.326351 0.18732 0.90689
H_ H_ 0.301795 0.190478 0.444595 0.11455
H_ H_ 0.376151 0.166743 0.34724 0.11455
H_ H_ 0.282442 0.175244 0.353905 0.11455
H_ H_ 0.38915 0.189262 0.465805 0.11455
H_ H_ 0.482564 0.181309 0.45914 0.11455
H_ H_ 0.46286 0.165441 0.36833 0.11455
H_ H_ 0.139699 0.0108695 0.44344 0.11455
H_ H_ 0.12938 0.430588 0.34685 0.11455
H_ H_ 0.136235 0.0244964 0.351905 0.11455
H_ H_ 0.134169 0.425258 0.466235 0.11455
H_ H_ 0.12713 0.331463 0.461235 0.11455
H_ H_ 0.122958 0.345137 0.369635 0.11455
H_ H_ 0.0971161 0.0965564 0.472415 0.11455
H_ H_ 0.086608 0.0712414 0.02391 0.11455
H_ H_ 0.123131 0.127062 0.0620151 0.11455
H_ H_ 0.193302 0.242475 0.47015 0.11455
H_ H_ 0.231444 0.300091 0.00650006 0.11455
H_ H_ 0.218498 0.283398 0.058645 0.11455
H_ H_ 0.0290009 0.219031 0.11982 0.11455
H_ H_ 0.0126601 0.200985 0.171955 0.11455
H_ H_ 0.276984 0.168781 0.13902 0.11455
H_ H_ 0.261479 0.154211 0.191265 0.11455
H_ H_ 0.076683 0.0780963 0.247375 0.11455
H_ H_ 0.0573273 0.0552634 0.29812 0.11455
H_ H_ 0.0833504 0.112638 0.337775 0.11455
H_ H_ 0.159667 0.241075 0.253205 0.11455
H_ H_ 0.186731 0.2949 0.29492 0.11455
H_ H_ 0.168093 0.265118 0.34428 0.11455
H_ H_ 0.198213 0.309523 0.1945 0.11455
H_ H_ 0.123863 0.333239 0.097245 0.11455
H_ H_ 0.217572 0.324742 0.10391 0.11455
H_ H_ 0.110857 0.310743 0.21581 0.11455
H_ H_ 0.0174431 0.318693 0.209145 0.11455
H_ H_ 0.037153 0.334543 0.118335 0.11455
H_ H_ 0.360306 0.489142 0.193445 0.11455
H_ H_ 0.370636 0.0693719 0.096855 0.11455
H_ H_ 0.36378 0.475467 0.1019 0.11455
H_ H_ 0.365835 0.0747645 0.21624 0.11455
H_ H_ 0.372876 0.168557 0.21124 0.11455
H_ H_ 0.377055 0.154836 0.119635 0.11455
H_ H_ 0.402869 0.403452 0.222435 0.11455
H_ H_ 0.413377 0.428773 0.27392 0.11455
H_ H_ 0.376867 0.372945 0.31202 0.11455
H_ H_ 0.306704 0.257518 0.220185 0.11455
H_ H_ 0.268578 0.1999 0.256525 0.11455
H_ H_ 0.281527 0.216593 0.30863 0.11455
H_ H_ 0.471009 0.280959 0.369815 0.11455
H_ H_ 0.487351 0.299001 0.42195 0.11455
H_ H_ 0.223025 0.331201 0.38903 0.11455
H_ H_ 0.238531 0.345763 0.441275 0.11455
H_ H_ 0.423334 0.421878 0.49739 0.11455
H_ H_ 0.442703 0.444708 0.048145 0.11455
H_ H_ 0.416683 0.387332 0.08779 0.11455
H_ H_ 0.340358 0.258901 0.00320494 0.11455
H_ H_ 0.313297 0.205073 0.0449149 0.11455
H_ H_ 0.331932 0.234856 0.09428 0.11455
C_ C_ 0.230856 0.18693 0.40318 0.68181
C_ C_ 0.287282 0.183805 0.39973 -0.05681
C_ C_ 0.318738 0.185877 0.42345 -0.08735
C_ C_ 0.371879 0.181351 0.420575 -0.05681
C_ C_ 0.393018 0.173978 0.3925 -0.05681
C_ C_ 0.35988 0.172059 0.368515 -0.08735
C_ C_ 0.308366 0.17706 0.37203 -0.08735
C_ C_ 0.4052 0.1837 0.44448 -0.08735
C_ C_ 0.456758 0.17909 0.440975 -0.08735
C_ C_ 0.477693 0.172392 0.413215 -0.05681
C_ C_ 0.446145 0.169902 0.389535 -0.08735
C_ C_ 0.123593 0.276433 0.41227 0.68181
C_ C_ 0.140012 0.0795401 0.40089 0.68181
C_ C_ 0.137726 0.0228881 0.398185 -0.05681
C_ C_ 0.137098 0.492814 0.42248 -0.08735
C_ C_ 0.13301 0.439471 0.42048 -0.05681
C_ C_ 0.129688 0.416507 0.392605 -0.05681
C_ C_ 0.131222 0.448199 0.36799 -0.08735
C_ C_ 0.135051 0.499999 0.370665 -0.08735
C_ C_ 0.131829 0.407751 0.44505 -0.08735
C_ C_ 0.127987 0.355939 0.442465 -0.08735
C_ C_ 0.124968 0.333101 0.414935 -0.05681
C_ C_ 0.125402 0.36317 0.39061 -0.08735
C_ C_ 0.0341067 0.16963 0.40958 0.68181
C_ C_ 0.113301 0.119533 0.48959 0.1947
C_ C_ 0.107346 0.105767 0.0185149 -0.08735
C_ C_ 0.127573 0.136618 0.0394449 -0.08735
C_ C_ 0.154353 0.181076 0.03155 -0.05681
C_ C_ 0.160416 0.191881 1.0 0.18498
C_ C_ 0.188748 0.235018 0.49296 -0.08735
C_ C_ 0.209521 0.266989 0.0132499 -0.08735
C_ C_ 0.202451 0.257599 0.0428 -0.08735
C_ C_ 0.175435 0.215703 0.0517351 0.18498
C_ C_ 0.209181 0.191848 0.0987 0.44287
C_ C_ 0.117389 0.215628 0.0923199 0.44287
C_ C_ 0.108544 0.204057 0.122845 -0.05681
C_ C_ 0.0597788 0.207894 0.133975 -0.08735
C_ C_ 0.0506882 0.198097 0.163045 -0.08735
C_ C_ 0.0903984 0.185079 0.18114 -0.05681
C_ C_ 0.140439 0.181122 0.17037 -0.05681
C_ C_ 0.149534 0.19022 0.1407 -0.05681
C_ C_ 0.199307 0.185143 0.1297 -0.05681
C_ C_ 0.239029 0.172512 0.147855 -0.08735
C_ C_ 0.230294 0.164318 0.17714 -0.08735
C_ C_ 0.181604 0.16813 0.188385 -0.05681
C_ C_ 0.172922 0.157668 0.219 0.44287
C_ C_ 0.079733 0.175073 0.2117 0.44287
C_ C_ 0.112075 0.148456 0.258335 0.18498
C_ C_ 0.0877302 0.103533 0.2647 -0.08735
C_ C_ 0.076881 0.0908271 0.29343 -0.08735
C_ C_ 0.0909285 0.122587 0.315545 -0.08735
C_ C_ 0.116561 0.16863 0.309485 0.18498
C_ C_ 0.126835 0.182628 0.28036 -0.05681
C_ C_ 0.151673 0.229419 0.27514 -0.08735
C_ C_ 0.166278 0.259335 0.29786 -0.08735
C_ C_ 0.155978 0.242695 0.325925 0.1947
C_ C_ 0.269154 0.313062 0.153185 0.68181
C_ C_ 0.212729 0.316188 0.149735 -0.05681
C_ C_ 0.181271 0.314121 0.173455 -0.08735
C_ C_ 0.128131 0.318645 0.17058 -0.05681
C_ C_ 0.106993 0.326012 0.142505 -0.05681
C_ C_ 0.140132 0.327927 0.11852 -0.08735
C_ C_ 0.191647 0.322928 0.122035 -0.08735
C_ C_ 0.0948076 0.316301 0.194485 -0.08735
C_ C_ 0.04325 0.320909 0.19098 -0.08735
C_ C_ 0.0223174 0.327601 0.16322 -0.05681
C_ C_ 0.0538659 0.330087 0.13954 -0.08735
C_ C_ 0.376418 0.223561 0.16227 0.68181
C_ C_ 0.359998 0.420449 0.150895 0.68181
C_ C_ 0.362284 0.4771 0.14819 -0.05681
C_ C_ 0.362909 0.00718593 0.172485 -0.08735
C_ C_ 0.366998 0.0605277 0.170485 -0.05681
C_ C_ 0.370323 0.0834769 0.14261 -0.05681
C_ C_ 0.368792 0.0517725 0.117995 -0.08735
C_ C_ 0.364962 0.499974 0.12067 -0.08735
C_ C_ 0.368177 0.0922605 0.19509 -0.08735
C_ C_ 0.372021 0.144071 0.192465 -0.08735
C_ C_ 0.375041 0.166895 0.164935 -0.05681
C_ C_ 0.374609 0.136813 0.140615 -0.08735
C_ C_ 0.465903 0.330362 0.159585 0.68181
C_ C_ 0.386687 0.380473 0.239605 0.1947
C_ C_ 0.392645 0.394243 0.268525 -0.08735
C_ C_ 0.372425 0.363388 0.28945 -0.08735
C_ C_ 0.345653 0.318927 0.28156 -0.05681
C_ C_ 0.339585 0.308117 0.2516 0.18498
C_ C_ 0.31126 0.264975 0.24296 -0.08735
C_ C_ 0.290497 0.233005 0.26325 -0.08735
C_ C_ 0.297568 0.242394 0.29279 -0.08735
C_ C_ 0.324578 0.284295 0.30173 0.18498
C_ C_ 0.290831 0.308146 0.3487 0.44287
C_ C_ 0.382623 0.284366 0.34232 0.44287
C_ C_ 0.391466 0.295932 0.37284 -0.05681
C_ C_ 0.440232 0.292095 0.38395 -0.08735
C_ C_ 0.449323 0.301889 0.413045 -0.08735
C_ C_ 0.409613 0.314905 0.43114 -0.05681
C_ C_ 0.359571 0.318862 0.42037 -0.05681
C_ C_ 0.350477 0.309767 0.3907 -0.05681
C_ C_ 0.300703 0.314845 0.379705 -0.05681
C_ C_ 0.260981 0.327471 0.39786 -0.08735
C_ C_ 0.269716 0.33566 0.427 -0.08735
C_ C_ 0.318406 0.33185 0.43839 -0.05681
C_ C_ 0.327091 0.342312 0.469155 0.44287
C_ C_ 0.420279 0.32491 0.46172 0.44287
C_ C_ 0.387945 0.351522 0.00834504 0.18498
C_ C_ 0.412293 0.396443 0.0147001 -0.08735
C_ C_ 0.423146 0.409147 0.04345 -0.08735
C_ C_ 0.409099 0.377385 0.06556 -0.08735
C_ C_ 0.383465 0.331344 0.0594951 0.18498
C_ C_ 0.373188 0.317348 0.03037 -0.05681
C_ C_ 0.348351 0.270556 0.025145 -0.08735
C_ C_ 0.333748 0.240639 0.0478551 -0.08735
C_ C_ 0.344047 0.25728 0.0759251 0.1947
N_ N_ 0.138852 0.1607 0.48131 -0.29468
N_ N_ 0.167269 0.206837 0.0818949 -0.17154
N_ N_ 0.122203 0.161099 0.228775 -0.17154
N_ N_ 0.131792 0.199408 0.33171 -0.29468
N_ N_ 0.361144 0.339301 0.231315 -0.29468
N_ N_ 0.332744 0.293159 0.33189 -0.17154
N_ N_ 0.37781 0.338878 0.47878 -0.17154
N_ N_ 0.368233 0.300566 0.0817149 -0.29468
O_ O_ 0.213536 0.184444 0.42864 -0.58347
O_ O_ 0.204901 0.191325 0.380355 -0.58347
O_ O_ 0.128913 0.251331 0.43534 -0.58347
O_ O_ 0.118078 0.257912 0.387265 -0.58347
O_ O_ 0.143824 0.0978677 0.42604 -0.58347
O_ O_ 0.13747 0.104826 0.377665 -0.58347
O_ O_ 0.0601411 0.166656 0.43246 -0.58347
O_ O_ 0.0512355 0.17107 0.38403 -0.58347
O_ O_ 0.0843586 0.231083 0.0761451 -0.46727
O_ O_ 0.25072 0.184481 0.0875999 -0.46727
O_ O_ 0.0375313 0.178005 0.22244 -0.46727
O_ O_ 0.206943 0.146565 0.235955 -0.46727
O_ O_ 0.286474 0.315549 0.178645 -0.58347
O_ O_ 0.295111 0.308666 0.13036 -0.58347
O_ O_ 0.371098 0.248669 0.185345 -0.58347
O_ O_ 0.381931 0.242077 0.13727 -0.58347
O_ O_ 0.356185 0.402128 0.176045 -0.58347
O_ O_ 0.362542 0.395158 0.12765 -0.58347
O_ O_ 0.439868 0.333338 0.182465 -0.58347
O_ O_ 0.448776 0.328921 0.134035 -0.58347
O_ O_ 0.415654 0.268911 0.32614 -0.46727
O_ O_ 0.249293 0.315514 0.33761 -0.46727
O_ O_ 0.462482 0.321983 0.47244 -0.46727
O_ O_ 0.293072 0.353419 0.485965 -0.46727
Zn Zn 0.126822 0.182297 0.875185 0.90689
Zn Zn 0.137892 0.173646 0.937315 0.90689
Zn Zn 0.37319 0.317691 0.62519 0.90689
Zn Zn 0.362117 0.326351 0.68732 0.90689
H_ H_ 0.301795 0.190478 0.944595 0.11455
H_ H_ 0.376151 0.166744 0.84724 0.11455
H_ H_ 0.282442 0.175243 0.853905 0.11455
H_ H_ 0.38915 0.189262 0.965805 0.11455
H_ H_ 0.482564 0.181309 0.95914 0.11455
H_ H_ 0.46286 0.165441 0.86833 0.11455
H_ H_ 0.1397 0.0108695 0.94344 0.11455
H_ H_ 0.129379 0.430588 0.84685 0.11455
H_ H_ 0.136235 0.0244963 0.851905 0.11455
H_ H_ 0.134169 0.425258 0.966235 0.11455
H_ H_ 0.12713 0.331463 0.961235 0.11455
H_ H_ 0.122958 0.345137 0.869635 0.11455
H_ H_ 0.0971159 0.0965564 0.972415 0.11455
H_ H_ 0.0866081 0.0712414 0.52391 0.11455
H_ H_ 0.12313 0.127062 0.562015 0.11455
H_ H_ 0.193302 0.242475 0.97015 0.11455
H_ H_ 0.231444 0.300091 0.5065 0.11455
H_ H_ 0.218498 0.283398 0.558645 0.11455
H_ H_ 0.029001 0.219031 0.61982 0.11455
H_ H_ 0.0126598 0.200985 0.671955 0.11455
H_ H_ 0.276985 0.168781 0.63902 0.11455
H_ H_ 0.261479 0.154211 0.691265 0.11455
H_ H_ 0.0766831 0.0780966 0.747375 0.11455
H_ H_ 0.0573274 0.0552633 0.79812 0.11455
H_ H_ 0.0833505 0.112638 0.837775 0.11455
H_ H_ 0.159667 0.241075 0.753205 0.11455
H_ H_ 0.186731 0.2949 0.79492 0.11455
H_ H_ 0.168093 0.265118 0.84428 0.11455
H_ H_ 0.198213 0.309523 0.6945 0.11455
H_ H_ 0.123863 0.333239 0.597245 0.11455
H_ H_ 0.217572 0.324741 0.60391 0.11455
H_ H_ 0.110856 0.310743 0.71581 0.11455
H_ H_ 0.0174432 0.318693 0.709145 0.11455
H_ H_ 0.0371531 0.334543 0.618335 0.11455
H_ H_ 0.360307 0.489142 0.693445 0.11455
H_ H_ 0.370635 0.0693718 0.596855 0.11455
H_ H_ 0.363779 0.475467 0.6019 0.11455
H_ H_ 0.365835 0.0747644 0.71624 0.11455
H_ H_ 0.372876 0.168557 0.71124 0.11455
H_ H_ 0.377055 0.154836 0.619635 0.11455
H_ H_ 0.402869 0.403452 0.722435 0.11455
H_ H_ 0.413377 0.428773 0.77392 0.11455
H_ H_ 0.376867 0.372945 0.81202 0.11455
H_ H_ 0.306704 0.257519 0.720185 0.11455
H_ H_ 0.268578 0.1999 0.756525 0.11455
H_ H_ 0.281526 0.216593 0.80863 0.11455
H_ H_ 0.471009 0.280958 0.869815 0.11455
H_ H_ 0.487351 0.299001 0.92195 0.11455
H_ H_ 0.223025 0.331202 0.88903 0.11455
H_ H_ 0.238531 0.345763 0.941275 0.11455
H_ H_ 0.423334 0.421877 -0.002610000000000001 0.11455
H_ H_ 0.442703 0.444708 0.548145 0.11455
H_ H_ 0.416683 0.387332 0.58779 0.11455
H_ H_ 0.340358 0.258901 0.503205 0.11455
H_ H_ 0.313297 0.205073 0.544915 0.11455
H_ H_ 0.331931 0.234857 0.59428 0.11455
C_ C_ 0.230856 0.186929 0.90318 0.68181
C_ C_ 0.287282 0.183805 0.89973 -0.05681
C_ C_ 0.318739 0.185877 0.92345 -0.08735
C_ C_ 0.371879 0.18135 0.920575 -0.05681
C_ C_ 0.393018 0.173979 0.8925 -0.05681
C_ C_ 0.35988 0.172059 0.868515 -0.08735
C_ C_ 0.308366 0.17706 0.87203 -0.08735
C_ C_ 0.405201 0.1837 0.94448 -0.08735
C_ C_ 0.456758 0.17909 0.940975 -0.08735
C_ C_ 0.477693 0.172392 0.913215 -0.05681
C_ C_ 0.446145 0.169902 0.889535 -0.08735
C_ C_ 0.123592 0.276433 0.91227 0.68181
C_ C_ 0.140012 0.07954 0.90089 0.68181
C_ C_ 0.137726 0.0228881 0.898185 -0.05681
C_ C_ 0.137098 0.492814 0.92248 -0.08735
C_ C_ 0.13301 0.439472 0.92048 -0.05681
C_ C_ 0.129687 0.416507 0.892605 -0.05681
C_ C_ 0.131221 0.448199 0.86799 -0.08735
C_ C_ 0.135051 0.499999 0.870665 -0.08735
C_ C_ 0.131829 0.407751 0.94505 -0.08735
C_ C_ 0.127987 0.355939 0.942465 -0.08735
C_ C_ 0.124969 0.333101 0.914935 -0.05681
C_ C_ 0.125402 0.36317 0.89061 -0.08735
C_ C_ 0.0341064 0.169631 0.90958 0.68181
C_ C_ 0.113301 0.119533 0.98959 0.1947
C_ C_ 0.107346 0.105767 0.518515 -0.08735
C_ C_ 0.127573 0.136618 0.539445 -0.08735
C_ C_ 0.154353 0.181076 0.53155 -0.05681
C_ C_ 0.160417 0.19188 0.5 0.18498
C_ C_ 0.188748 0.235018 0.99296 -0.08735
C_ C_ 0.209522 0.266989 0.51325 -0.08735
C_ C_ 0.202451 0.257599 0.5428 -0.08735
C_ C_ 0.175435 0.215703 0.551735 0.18498
C_ C_ 0.209181 0.191848 0.5987 0.44287
C_ C_ 0.117389 0.215628 0.59232 0.44287
C_ C_ 0.108545 0.204057 0.622845 -0.05681
C_ C_ 0.0597789 0.207894 0.633975 -0.08735
C_ C_ 0.0506879 0.198097 0.663045 -0.08735
C_ C_ 0.0903985 0.185079 0.68114 -0.05681
C_ C_ 0.140439 0.181121 0.67037 -0.05681
C_ C_ 0.149534 0.19022 0.6407 -0.05681
C_ C_ 0.199306 0.185143 0.6297 -0.05681
C_ C_ 0.239029 0.172512 0.647855 -0.08735
C_ C_ 0.230294 0.164317 0.67714 -0.08735
C_ C_ 0.181604 0.16813 0.688385 -0.05681
C_ C_ 0.172922 0.157668 0.719 0.44287
C_ C_ 0.0797331 0.175073 0.7117 0.44287
C_ C_ 0.112075 0.148456 0.758335 0.18498
C_ C_ 0.0877299 0.103533 0.7647 -0.08735
C_ C_ 0.0768811 0.090827 0.79343 -0.08735
C_ C_ 0.0909286 0.122587 0.815545 -0.08735
C_ C_ 0.11656 0.168631 0.809485 0.18498
C_ C_ 0.126835 0.182628 0.78036 -0.05681
C_ C_ 0.151673 0.229419 0.77514 -0.08735
C_ C_ 0.166278 0.259335 0.79786 -0.08735
C_ C_ 0.155977 0.242695 0.825925 0.1947
C_ C_ 0.269154 0.313062 0.653185 0.68181
C_ C_ 0.212729 0.316188 0.649735 -0.05681
C_ C_ 0.181271 0.314121 0.673455 -0.08735
C_ C_ 0.128131 0.318645 0.67058 -0.05681
C_ C_ 0.106994 0.326012 0.642505 -0.05681
C_ C_ 0.140132 0.327928 0.61852 -0.08735
C_ C_ 0.191647 0.322929 0.622035 -0.08735
C_ C_ 0.0948077 0.316301 0.694485 -0.08735
C_ C_ 0.0432501 0.320909 0.69098 -0.08735
C_ C_ 0.0223175 0.327601 0.66322 -0.05681
C_ C_ 0.053866 0.330086 0.63954 -0.08735
C_ C_ 0.376417 0.223561 0.66227 0.68181
C_ C_ 0.359998 0.420449 0.650895 0.68181
C_ C_ 0.362283 0.4771 0.64819 -0.05681
C_ C_ 0.362909 0.00718587 0.672485 -0.08735
C_ C_ 0.366998 0.0605276 0.670485 -0.05681
C_ C_ 0.370324 0.0834769 0.64261 -0.05681
C_ C_ 0.368791 0.0517725 0.617995 -0.08735
C_ C_ 0.364961 0.499974 0.62067 -0.08735
C_ C_ 0.368177 0.0922604 0.69509 -0.08735
C_ C_ 0.37202 0.144072 0.692465 -0.08735
C_ C_ 0.375041 0.166895 0.664935 -0.05681
C_ C_ 0.374609 0.136813 0.640615 -0.08735
C_ C_ 0.465904 0.330362 0.659585 0.68181
C_ C_ 0.386687 0.380472 0.739605 0.1947
C_ C_ 0.392645 0.394243 0.768525 -0.08735
C_ C_ 0.372425 0.363388 0.78945 -0.08735
C_ C_ 0.345653 0.318927 0.78156 -0.05681
C_ C_ 0.339585 0.308117 0.7516 0.18498
C_ C_ 0.31126 0.264976 0.74296 -0.08735
C_ C_ 0.290497 0.233005 0.76325 -0.08735
C_ C_ 0.297568 0.242394 0.79279 -0.08735
C_ C_ 0.324578 0.284295 0.80173 0.18498
C_ C_ 0.29083 0.308146 0.8487 0.44287
C_ C_ 0.382623 0.284366 0.84232 0.44287
C_ C_ 0.391466 0.295932 0.87284 -0.05681
C_ C_ 0.440232 0.292094 0.88395 -0.08735
C_ C_ 0.449323 0.30189 0.913045 -0.08735
C_ C_ 0.409612 0.314905 0.93114 -0.05681
C_ C_ 0.359571 0.318862 0.92037 -0.05681
C_ C_ 0.350477 0.309768 0.8907 -0.05681
C_ C_ 0.300703 0.314845 0.879705 -0.05681
C_ C_ 0.260981 0.327471 0.89786 -0.08735
C_ C_ 0.269716 0.33566 0.927 -0.08735
C_ C_ 0.318407 0.33185 0.93839 -0.05681
C_ C_ 0.32709 0.342312 0.969155 0.44287
C_ C_ 0.420279 0.32491 0.96172 0.44287
C_ C_ 0.387946 0.351522 0.508345 0.18498
C_ C_ 0.412293 0.396443 0.5147 -0.08735
C_ C_ 0.423146 0.409147 0.54345 -0.08735
C_ C_ 0.409099 0.377385 0.56556 -0.08735
C_ C_ 0.383464 0.331344 0.559495 0.18498
C_ C_ 0.373188 0.317348 0.53037 -0.05681
C_ C_ 0.348352 0.270556 0.525145 -0.08735
C_ C_ 0.333748 0.240639 0.547855 -0.08735
C_ C_ 0.344047 0.25728 0.575925 0.1947
N_ N_ 0.138852 0.1607 0.98131 -0.29468
N_ N_ 0.167269 0.206836 0.581895 -0.17154
N_ N_ 0.122203 0.161099 0.728775 -0.17154
N_ N_ 0.131791 0.199408 0.83171 -0.29468
N_ N_ 0.361144 0.339301 0.731315 -0.29468
N_ N_ 0.332744 0.293159 0.83189 -0.17154
N_ N_ 0.37781 0.338878 0.97878 -0.17154
N_ N_ 0.368233 0.300566 0.581715 -0.29468
O_ O_ 0.213536 0.184444 0.92864 -0.58347
O_ O_ 0.2049 0.191325 0.880355 -0.58347
O_ O_ 0.128913 0.251331 0.93534 -0.58347
O_ O_ 0.118078 0.257912 0.887265 -0.58347
O_ O_ 0.143825 0.0978676 0.92604 -0.58347
O_ O_ 0.13747 0.104826 0.877665 -0.58347
O_ O_ 0.0601409 0.166656 0.93246 -0.58347
O_ O_ 0.0512356 0.17107 0.88403 -0.58347
O_ O_ 0.0843587 0.231083 0.576145 -0.46727
O_ O_ 0.25072 0.184481 0.5876 -0.46727
O_ O_ 0.0375314 0.178005 0.72244 -0.46727
O_ O_ 0.206943 0.146565 0.735955 -0.46727
O_ O_ 0.286474 0.315549 0.678645 -0.58347
O_ O_ 0.295111 0.308666 0.63036 -0.58347
O_ O_ 0.371098 0.248669 0.685345 -0.58347
O_ O_ 0.381931 0.242077 0.63727 -0.58347
O_ O_ 0.356184 0.402128 0.676045 -0.58347
O_ O_ 0.362541 0.395158 0.62765 -0.58347
O_ O_ 0.439868 0.333337 0.682465 -0.58347
O_ O_ 0.448776 0.32892 0.634035 -0.58347
O_ O_ 0.415654 0.268911 0.82614 -0.46727
O_ O_ 0.249294 0.315514 0.83761 -0.46727
O_ O_ 0.462483 0.321983 0.97244 -0.46727
O_ O_ 0.293072 0.353419 0.985965 -0.46727
Zn Zn 0.126821 0.682297 0.375185 0.90689
Zn Zn 0.137892 0.673646 0.437315 0.90689
Zn Zn 0.37319 0.81769 0.12519 0.90689
Zn Zn 0.362117 0.826351 0.18732 0.90689
H_ H_ 0.301795 0.690478 0.444595 0.11455
H_ H_ 0.376151 0.666744 0.34724 0.11455
H_ H_ 0.282442 0.675243 0.353905 0.11455
H_ H_ 0.38915 0.689262 0.465805 0.11455
H_ H_ 0.482564 0.681309 0.45914 0.11455
H_ H_ 0.46286 0.665441 0.36833 0.11455
H_ H_ 0.139699 0.510869 0.44344 0.11455
H_ H_ 0.12938 0.930588 0.34685 0.11455
H_ H_ 0.136235 0.524497 0.351905 0.11455
H_ H_ 0.134169 0.925259 0.466235 0.11455
H_ H_ 0.12713 0.831463 0.461235 0.11455
H_ H_ 0.122958 0.845137 0.369635 0.11455
H_ H_ 0.0971158 0.596556 0.472415 0.11455
H_ H_ 0.086608 0.571241 0.02391 0.11455
H_ H_ 0.12313 0.627062 0.0620151 0.11455
H_ H_ 0.193302 0.742475 0.47015 0.11455
H_ H_ 0.231444 0.80009 0.00650006 0.11455
H_ H_ 0.218498 0.783398 0.058645 0.11455
H_ H_ 0.0290009 0.719031 0.11982 0.11455
H_ H_ 0.0126602 0.700985 0.171955 0.11455
H_ H_ 0.276985 0.668781 0.13902 0.11455
H_ H_ 0.261479 0.654211 0.191265 0.11455
H_ H_ 0.0766831 0.578097 0.247375 0.11455
H_ H_ 0.0573274 0.555264 0.29812 0.11455
H_ H_ 0.0833504 0.612638 0.337775 0.11455
H_ H_ 0.159667 0.741074 0.253205 0.11455
H_ H_ 0.186731 0.7949 0.29492 0.11455
H_ H_ 0.168093 0.765118 0.34428 0.11455
H_ H_ 0.198213 0.809523 0.1945 0.11455
H_ H_ 0.123863 0.833239 0.097245 0.11455
H_ H_ 0.217572 0.824741 0.10391 0.11455
H_ H_ 0.110856 0.810743 0.21581 0.11455
H_ H_ 0.0174431 0.818693 0.209145 0.11455
H_ H_ 0.0371531 0.834543 0.118335 0.11455
H_ H_ 0.360306 0.989142 0.193445 0.11455
H_ H_ 0.370636 0.569372 0.096855 0.11455
H_ H_ 0.363779 0.975466 0.1019 0.11455
H_ H_ 0.365835 0.574764 0.21624 0.11455
H_ H_ 0.372876 0.668557 0.21124 0.11455
H_ H_ 0.377055 0.654836 0.119635 0.11455
H_ H_ 0.402869 0.903452 0.222435 0.11455
H_ H_ 0.413377 0.928773 0.27392 0.11455
H_ H_ 0.376867 0.872945 0.31202 0.11455
H_ H_ 0.306704 0.757519 0.220185 0.11455
H_ H_ 0.268578 0.6999 0.256525 0.11455
H_ H_ 0.281526 0.716592 0.30863 0.11455
H_ H_ 0.471009 0.780958 0.369815 0.11455
H_ H_ 0.487351 0.799002 0.42195 0.11455
H_ H_ 0.223025 0.831202 0.38903 0.11455
H_ H_ 0.238531 0.845763 0.441275 0.11455
H_ H_ 0.423334 0.921877 0.49739 0.11455
H_ H_ 0.442703 0.944708 0.048145 0.11455
H_ H_ 0.416683 0.887332 0.08779 0.11455
H_ H_ 0.340358 0.758901 0.00320494 0.11455
H_ H_ 0.313297 0.705073 0.0449149 0.11455
H_ H_ 0.331931 0.734857 0.09428 0.11455
C_ C_ 0.230856 0.686929 0.40318 0.68181
C_ C_ 0.287282 0.683805 0.39973 -0.05681
C_ C_ 0.318738 0.685877 0.42345 -0.08735
C_ C_ 0.371879 0.68135 0.420575 -0.05681
C_ C_ 0.393018 0.673979 0.3925 -0.05681
C_ C_ 0.35988 0.672059 0.368515 -0.08735
C_ C_ 0.308366 0.67706 0.37203 -0.08735
C_ C_ 0.4052 0.6837 0.44448 -0.08735
C_ C_ 0.456758 0.67909 0.440975 -0.08735
C_ C_ 0.477693 0.672392 0.413215 -0.05681
C_ C_ 0.446145 0.669902 0.389535 -0.08735
C_ C_ 0.123592 0.776433 0.41227 0.68181
C_ C_ 0.140012 0.57954 0.40089 0.68181
C_ C_ 0.137726 0.522888 0.398185 -0.05681
C_ C_ 0.137098 0.992814 0.42248 -0.08735
C_ C_ 0.13301 0.939472 0.42048 -0.05681
C_ C_ 0.129688 0.916508 0.392605 -0.05681
C_ C_ 0.131222 0.948199 0.36799 -0.08735
C_ C_ 0.135051 0.999999 0.370665 -0.08735
C_ C_ 0.131829 0.907751 0.44505 -0.08735
C_ C_ 0.127987 0.855939 0.442465 -0.08735
C_ C_ 0.124969 0.833101 0.414935 -0.05681
C_ C_ 0.125402 0.86317 0.39061 -0.08735
C_ C_ 0.0341064 0.669631 0.40958 0.68181
C_ C_ 0.113301 0.619533 0.48959 0.1947
C_ C_ 0.107346 0.605767 0.0185149 -0.08735
C_ C_ 0.127573 0.636618 0.0394449 -0.08735
C_ C_ 0.154353 0.681076 0.03155 -0.05681
C_ C_ 0.160417 0.69188 1.0 0.18498
C_ C_ 0.188748 0.735018 0.49296 -0.08735
C_ C_ 0.209521 0.766989 0.0132499 -0.08735
C_ C_ 0.202451 0.7576 0.0428 -0.08735
C_ C_ 0.175435 0.715703 0.0517351 0.18498
C_ C_ 0.209181 0.691848 0.0987 0.44287
C_ C_ 0.117389 0.715628 0.0923199 0.44287
C_ C_ 0.108545 0.704057 0.122845 -0.05681
C_ C_ 0.0597789 0.707894 0.133975 -0.08735
C_ C_ 0.0506878 0.698097 0.163045 -0.08735
C_ C_ 0.0903984 0.685079 0.18114 -0.05681
C_ C_ 0.140439 0.681121 0.17037 -0.05681
C_ C_ 0.149534 0.690219 0.1407 -0.05681
C_ C_ 0.199306 0.685143 0.1297 -0.05681
C_ C_ 0.239029 0.672512 0.147855 -0.08735
C_ C_ 0.230294 0.664317 0.17714 -0.08735
C_ C_ 0.181604 0.66813 0.188385 -0.05681
C_ C_ 0.172922 0.657668 0.219 0.44287
C_ C_ 0.0797331 0.675073 0.2117 0.44287
C_ C_ 0.112075 0.648456 0.258335 0.18498
C_ C_ 0.0877299 0.603534 0.2647 -0.08735
C_ C_ 0.0768811 0.590827 0.29343 -0.08735
C_ C_ 0.0909286 0.622588 0.315545 -0.08735
C_ C_ 0.116561 0.668631 0.309485 0.18498
C_ C_ 0.126835 0.682628 0.28036 -0.05681
C_ C_ 0.151673 0.729419 0.27514 -0.08735
C_ C_ 0.166278 0.759335 0.29786 -0.08735
C_ C_ 0.155978 0.742695 0.325925 0.1947
C_ C_ 0.269154 0.813063 0.153185 0.68181
C_ C_ 0.212729 0.816188 0.149735 -0.05681
C_ C_ 0.181271 0.81412 0.173455 -0.08735
C_ C_ 0.128131 0.818645 0.17058 -0.05681
C_ C_ 0.106994 0.826012 0.142505 -0.05681
C_ C_ 0.140132 0.827928 0.11852 -0.08735
C_ C_ 0.191647 0.822929 0.122035 -0.08735
C_ C_ 0.0948076 0.8163 0.194485 -0.08735
C_ C_ 0.0432501 0.820909 0.19098 -0.08735
C_ C_ 0.0223174 0.827602 0.16322 -0.05681
C_ C_ 0.053866 0.830086 0.13954 -0.08735
C_ C_ 0.376417 0.723561 0.16227 0.68181
C_ C_ 0.359998 0.920449 0.150895 0.68181
C_ C_ 0.362284 0.9771 0.14819 -0.05681
C_ C_ 0.362909 0.507186 0.172485 -0.08735
C_ C_ 0.366998 0.560528 0.170485 -0.05681
C_ C_ 0.370324 0.583477 0.14261 -0.05681
C_ C_ 0.368791 0.551772 0.117995 -0.08735
C_ C_ 0.364962 -2.599999999997049e-05 0.12067 -0.08735
C_ C_ 0.368177 0.59226 0.19509 -0.08735
C_ C_ 0.372021 0.644072 0.192465 -0.08735
C_ C_ 0.375041 0.666895 0.164935 -0.05681
C_ C_ 0.374609 0.636812 0.140615 -0.08735
C_ C_ 0.465903 0.830362 0.159585 0.68181
C_ C_ 0.386687 0.880472 0.239605 0.1947
C_ C_ 0.392645 0.894243 0.268525 -0.08735
C_ C_ 0.372425 0.863388 0.28945 -0.08735
C_ C_ 0.345653 0.818927 0.28156 -0.05681
C_ C_ 0.339585 0.808117 0.2516 0.18498
C_ C_ 0.31126 0.764976 0.24296 -0.08735
C_ C_ 0.290497 0.733005 0.26325 -0.08735
C_ C_ 0.297568 0.742394 0.29279 -0.08735
C_ C_ 0.324578 0.784295 0.30173 0.18498
C_ C_ 0.290831 0.808146 0.3487 0.44287
C_ C_ 0.382623 0.784365 0.34232 0.44287
C_ C_ 0.391466 0.795933 0.37284 -0.05681
C_ C_ 0.440232 0.792094 0.38395 -0.08735
C_ C_ 0.449323 0.80189 0.413045 -0.08735
C_ C_ 0.409613 0.814905 0.43114 -0.05681
C_ C_ 0.359571 0.818862 0.42037 -0.05681
C_ C_ 0.350477 0.809768 0.3907 -0.05681
C_ C_ 0.300703 0.814845 0.379705 -0.05681
C_ C_ 0.260981 0.82747 0.39786 -0.08735
C_ C_ 0.269716 0.83566 0.427 -0.08735
C_ C_ 0.318407 0.83185 0.43839 -0.05681
C_ C_ 0.32709 0.842312 0.469155 0.44287
C_ C_ 0.420279 0.82491 0.46172 0.44287
C_ C_ 0.387945 0.851522 0.00834504 0.18498
C_ C_ 0.412293 0.896443 0.0147001 -0.08735
C_ C_ 0.423146 0.909146 0.04345 -0.08735
C_ C_ 0.409099 0.877385 0.06556 -0.08735
C_ C_ 0.383464 0.831344 0.0594951 0.18498
C_ C_ 0.373188 0.817348 0.03037 -0.05681
C_ C_ 0.348351 0.770556 0.025145 -0.08735
C_ C_ 0.333748 0.740638 0.0478551 -0.08735
C_ C_ 0.344047 0.75728 0.0759251 0.1947
N_ N_ 0.138852 0.6607 0.48131 -0.29468
N_ N_ 0.167269 0.706836 0.0818949 -0.17154
N_ N_ 0.122203 0.661099 0.228775 -0.17154
N_ N_ 0.131792 0.699409 0.33171 -0.29468
N_ N_ 0.361144 0.839301 0.231315 -0.29468
N_ N_ 0.332744 0.793159 0.33189 -0.17154
N_ N_ 0.37781 0.838878 0.47878 -0.17154
N_ N_ 0.368233 0.800566 0.0817149 -0.29468
O_ O_ 0.213536 0.684445 0.42864 -0.58347
O_ O_ 0.2049 0.691325 0.380355 -0.58347
O_ O_ 0.128913 0.751331 0.43534 -0.58347
O_ O_ 0.118078 0.757911 0.387265 -0.58347
O_ O_ 0.143825 0.597868 0.42604 -0.58347
O_ O_ 0.13747 0.604826 0.377665 -0.58347
O_ O_ 0.0601408 0.666657 0.43246 -0.58347
O_ O_ 0.0512355 0.67107 0.38403 -0.58347
O_ O_ 0.0843586 0.731083 0.0761451 -0.46727
O_ O_ 0.25072 0.684481 0.0875999 -0.46727
O_ O_ 0.0375314 0.678005 0.22244 -0.46727
O_ O_ 0.206943 0.646565 0.235955 -0.46727
O_ O_ 0.286474 0.81555 0.178645 -0.58347
O_ O_ 0.295111 0.808666 0.13036 -0.58347
O_ O_ 0.371098 0.748669 0.185345 -0.58347
O_ O_ 0.381931 0.742077 0.13727 -0.58347
O_ O_ 0.356185 0.902128 0.176045 -0.58347
O_ O_ 0.362541 0.895158 0.12765 -0.58347
O_ O_ 0.439868 0.833337 0.182465 -0.58347
O_ O_ 0.448776 0.82892 0.134035 -0.58347
O_ O_ 0.415654 0.768911 0.32614 -0.46727
O_ O_ 0.249294 0.815514 0.33761 -0.46727
O_ O_ 0.462482 0.821983 0.47244 -0.46727
O_ O_ 0.293072 0.853419 0.485965 -0.46727
Zn Zn 0.126822 0.682297 0.875185 0.90689
Zn Zn 0.137892 0.673646 0.937315 0.90689
Zn Zn 0.373191 0.81769 0.62519 0.90689
Zn Zn 0.362117 0.826351 0.68732 0.90689
H_ H_ 0.301795 0.690478 0.944595 0.11455
H_ H_ 0.376151 0.666744 0.84724 0.11455
H_ H_ 0.282442 0.675243 0.853905 0.11455
H_ H_ 0.38915 0.689261 0.965805 0.11455
H_ H_ 0.482564 0.681309 0.95914 0.11455
H_ H_ 0.46286 0.66544 0.86833 0.11455
H_ H_ 0.1397 0.510869 0.94344 0.11455
H_ H_ 0.129379 0.930588 0.84685 0.11455
H_ H_ 0.136234 0.524497 0.851905 0.11455
H_ H_ 0.134169 0.925259 0.966235 0.11455
H_ H_ 0.12713 0.831463 0.961235 0.11455
H_ H_ 0.122958 0.845136 0.869635 0.11455
H_ H_ 0.0971159 0.596557 0.972415 0.11455
H_ H_ 0.0866081 0.571242 0.52391 0.11455
H_ H_ 0.12313 0.627061 0.562015 0.11455
H_ H_ 0.193302 0.742475 0.97015 0.11455
H_ H_ 0.231445 0.80009 0.5065 0.11455
H_ H_ 0.218498 0.783398 0.558645 0.11455
H_ H_ 1.029001 0.719031 0.61982 0.11455
H_ H_ 1.0126599 0.700985 0.671955 0.11455
H_ H_ 0.276985 0.668781 0.63902 0.11455
H_ H_ 0.261478 0.654211 0.691265 0.11455
H_ H_ 0.0766832 0.578097 0.747375 0.11455
H_ H_ 0.0573275 0.555264 0.79812 0.11455
H_ H_ 0.0833505 0.612638 0.837775 0.11455
H_ H_ 0.159667 0.741074 0.753205 0.11455
H_ H_ 0.186731 0.794899 0.79492 0.11455
H_ H_ 0.168093 0.765119 0.84428 0.11455
H_ H_ 0.198213 0.809523 0.6945 0.11455
H_ H_ 0.123863 0.833239 0.597245 0.11455
H_ H_ 0.217572 0.824741 0.60391 0.11455
H_ H_ 0.110856 0.810743 0.71581 0.11455
H_ H_ 0.0174428 0.818693 0.709145 0.11455
H_ H_ 0.0371528 0.834544 0.618335 0.11455
H_ H_ 0.360307 0.989142 0.693445 0.11455
H_ H_ 0.370635 0.569372 0.596855 0.11455
H_ H_ 0.363779 0.975466 0.6019 0.11455
H_ H_ 0.365835 0.574764 0.71624 0.11455
H_ H_ 0.372876 0.668557 0.71124 0.11455
H_ H_ 0.377055 0.654836 0.619635 0.11455
H_ H_ 0.402868 0.903452 0.722435 0.11455
H_ H_ 0.413376 0.928774 0.77392 0.11455
H_ H_ 0.376867 0.872945 0.81202 0.11455
H_ H_ 0.306704 0.757519 0.720185 0.11455
H_ H_ 0.268578 0.6999 0.756525 0.11455
H_ H_ 0.281526 0.716592 0.80863 0.11455
H_ H_ 0.47101 0.780958 0.869815 0.11455
H_ H_ 0.487351 0.799002 0.92195 0.11455
H_ H_ 0.223025 0.831202 0.88903 0.11455
H_ H_ 0.238531 0.845763 0.941275 0.11455
H_ H_ 0.423335 0.921877 0.99739 0.11455
H_ H_ 0.442703 0.944708 0.548145 0.11455
H_ H_ 0.416682 0.887332 0.58779 0.11455
H_ H_ 0.340358 0.758902 0.503205 0.11455
H_ H_ 0.313297 0.705073 0.544915 0.11455
H_ H_ 0.331931 0.734857 0.59428 0.11455
C_ C_ 0.230856 0.686929 0.90318 0.68181
C_ C_ 0.287282 0.683805 0.89973 -0.05681
C_ C_ 0.318739 0.685876 0.92345 -0.08735
C_ C_ 0.371878 0.68135 0.920575 -0.05681
C_ C_ 0.393018 0.673979 0.8925 -0.05681
C_ C_ 0.359881 0.672059 0.868515 -0.08735
C_ C_ 0.308366 0.67706 0.87203 -0.08735
C_ C_ 0.405201 0.6837 0.94448 -0.08735
C_ C_ 0.456758 0.67909 0.940975 -0.08735
C_ C_ 0.477693 0.672392 0.913215 -0.05681
C_ C_ 0.446145 0.669902 0.889535 -0.08735
C_ C_ 0.123592 0.776433 0.91227 0.68181
C_ C_ 0.140012 0.57954 0.90089 0.68181
C_ C_ 0.137726 0.522888 0.898185 -0.05681
C_ C_ 0.137099 0.992814 0.92248 -0.08735
C_ C_ 0.13301 0.939472 0.92048 -0.05681
C_ C_ 0.129687 0.916508 0.892605 -0.05681
C_ C_ 0.131221 0.948199 0.86799 -0.08735
C_ C_ 0.135051 -1.0000000000287557e-06 0.870665 -0.08735
C_ C_ 0.13183 0.907751 0.94505 -0.08735
C_ C_ 0.127987 0.855938 0.942465 -0.08735
C_ C_ 0.124969 0.833101 0.914935 -0.05681
C_ C_ 0.125403 0.86317 0.89061 -0.08735
C_ C_ 0.0341065 0.669631 0.90958 0.68181
C_ C_ 0.113301 0.619533 0.98959 0.1947
C_ C_ 0.107346 0.605768 0.518515 -0.08735
C_ C_ 0.127572 0.636617 0.539445 -0.08735
C_ C_ 0.154353 0.681075 0.53155 -0.05681
C_ C_ 0.160417 0.69188 0.5 0.18498
C_ C_ 0.188749 0.735018 0.99296 -0.08735
C_ C_ 0.209522 0.766989 0.51325 -0.08735
C_ C_ 0.202451 0.7576 0.5428 -0.08735
C_ C_ 0.175435 0.715702 0.551735 0.18498
C_ C_ 0.209182 0.691847 0.5987 0.44287
C_ C_ 0.117389 0.715628 0.59232 0.44287
C_ C_ 0.108545 0.704057 0.622845 -0.05681
C_ C_ 0.059779 0.707894 0.633975 -0.08735
C_ C_ 0.0506879 0.698097 0.663045 -0.08735
C_ C_ 0.0903985 0.685079 0.68114 -0.05681
C_ C_ 0.140439 0.681121 0.67037 -0.05681
C_ C_ 0.149534 0.690219 0.6407 -0.05681
C_ C_ 0.199306 0.685143 0.6297 -0.05681
C_ C_ 0.239029 0.672512 0.647855 -0.08735
C_ C_ 0.230294 0.664317 0.67714 -0.08735
C_ C_ 0.181604 0.66813 0.688385 -0.05681
C_ C_ 0.172922 0.657668 0.719 0.44287
C_ C_ 0.0797332 0.675074 0.7117 0.44287
C_ C_ 0.112075 0.648456 0.758335 0.18498
C_ C_ 0.08773 0.603534 0.7647 -0.08735
C_ C_ 0.0768811 0.590827 0.79343 -0.08735
C_ C_ 0.0909287 0.622588 0.815545 -0.08735
C_ C_ 0.11656 0.668631 0.809485 0.18498
C_ C_ 0.126835 0.682628 0.78036 -0.05681
C_ C_ 0.151673 0.72942 0.77514 -0.08735
C_ C_ 0.166278 0.759335 0.79786 -0.08735
C_ C_ 0.155977 0.742695 0.825925 0.1947
C_ C_ 0.269155 0.813063 0.653185 0.68181
C_ C_ 0.212729 0.816188 0.649735 -0.05681
C_ C_ 0.181271 0.81412 0.673455 -0.08735
C_ C_ 0.128131 0.818645 0.67058 -0.05681
C_ C_ 0.106994 0.826012 0.642505 -0.05681
C_ C_ 0.140132 0.827928 0.61852 -0.08735
C_ C_ 0.191647 0.822929 0.622035 -0.08735
C_ C_ 0.0948073 0.8163 0.694485 -0.08735
C_ C_ 0.0432502 0.820909 0.69098 -0.08735
C_ C_ 0.0223175 0.827602 0.66322 -0.05681
C_ C_ 0.0538661 0.830086 0.63954 -0.08735
C_ C_ 0.376417 0.723561 0.66227 0.68181
C_ C_ 0.359998 0.920449 0.650895 0.68181
C_ C_ 0.362283 0.9771 0.64819 -0.05681
C_ C_ 0.362909 0.507186 0.672485 -0.08735
C_ C_ 0.366998 0.560528 0.670485 -0.05681
C_ C_ 0.370324 0.583477 0.64261 -0.05681
C_ C_ 0.368791 0.551772 0.617995 -0.08735
C_ C_ 0.364961 0.999974 0.62067 -0.08735
C_ C_ 0.368177 0.592261 0.69509 -0.08735
C_ C_ 0.37202 0.644072 0.692465 -0.08735
C_ C_ 0.375041 0.666895 0.664935 -0.05681
C_ C_ 0.374609 0.636812 0.640615 -0.08735
C_ C_ 0.465904 0.830363 0.659585 0.68181
C_ C_ 0.386687 0.880472 0.739605 0.1947
C_ C_ 0.392645 0.894243 0.768525 -0.08735
C_ C_ 0.372425 0.863389 0.78945 -0.08735
C_ C_ 0.345653 0.818926 0.78156 -0.05681
C_ C_ 0.339585 0.808117 0.7516 0.18498
C_ C_ 0.311259 0.764976 0.74296 -0.08735
C_ C_ 0.290496 0.733005 0.76325 -0.08735
C_ C_ 0.297568 0.742394 0.79279 -0.08735
C_ C_ 0.324578 0.784295 0.80173 0.18498
C_ C_ 0.29083 0.808146 0.8487 0.44287
C_ C_ 0.382623 0.784365 0.84232 0.44287
C_ C_ 0.391466 0.795933 0.87284 -0.05681
C_ C_ 0.440232 0.792094 0.88395 -0.08735
C_ C_ 0.449323 0.80189 0.913045 -0.08735
C_ C_ 0.409612 0.814905 0.93114 -0.05681
C_ C_ 0.359571 0.818862 0.92037 -0.05681
C_ C_ 0.350476 0.809768 0.8907 -0.05681
C_ C_ 0.300703 0.814845 0.879705 -0.05681
C_ C_ 0.260981 0.82747 0.89786 -0.08735
C_ C_ 0.269717 0.835661 0.927 -0.08735
C_ C_ 0.318407 0.83185 0.93839 -0.05681
C_ C_ 0.32709 0.842312 0.969155 0.44287
C_ C_ 0.420279 0.824909 0.96172 0.44287
C_ C_ 0.387946 0.851522 0.508345 0.18498
C_ C_ 0.412293 0.896444 0.5147 -0.08735
C_ C_ 0.423147 0.909146 0.54345 -0.08735
C_ C_ 0.4091 0.877385 0.56556 -0.08735
C_ C_ 0.383464 0.831344 0.559495 0.18498
C_ C_ 0.373188 0.817348 0.53037 -0.05681
C_ C_ 0.348352 0.770556 0.525145 -0.08735
C_ C_ 0.333748 0.740638 0.547855 -0.08735
C_ C_ 0.344047 0.757279 0.575925 0.1947
N_ N_ 0.138852 0.6607 0.98131 -0.29468
N_ N_ 0.167269 0.706836 0.581895 -0.17154
N_ N_ 0.122203 0.661098 0.728775 -0.17154
N_ N_ 0.131791 0.699409 0.83171 -0.29468
N_ N_ 0.361144 0.839301 0.731315 -0.29468
N_ N_ 0.332744 0.79316 0.83189 -0.17154
N_ N_ 0.37781 0.838878 0.97878 -0.17154
N_ N_ 0.368233 0.800566 0.581715 -0.29468
O_ O_ 0.213536 0.684445 0.92864 -0.58347
O_ O_ 0.2049 0.691325 0.880355 -0.58347
O_ O_ 0.128912 0.751331 0.93534 -0.58347
O_ O_ 0.118078 0.757911 0.887265 -0.58347
O_ O_ 0.143825 0.597868 0.92604 -0.58347
O_ O_ 0.13747 0.604825 0.877665 -0.58347
O_ O_ 0.0601409 0.666657 0.93246 -0.58347
O_ O_ 0.0512356 0.67107 0.88403 -0.58347
O_ O_ 0.0843583 0.731083 0.576145 -0.46727
O_ O_ 0.25072 0.684481 0.5876 -0.46727
O_ O_ 0.0375315 0.678004 0.72244 -0.46727
O_ O_ 0.206942 0.646565 0.735955 -0.46727
O_ O_ 0.286474 0.81555 0.678645 -0.58347
O_ O_ 0.295111 0.808666 0.63036 -0.58347
O_ O_ 0.371098 0.748669 0.685345 -0.58347
O_ O_ 0.381931 0.742077 0.63727 -0.58347
O_ O_ 0.356184 0.902129 0.676045 -0.58347
O_ O_ 0.362541 0.895158 0.62765 -0.58347
O_ O_ 0.439867 0.833337 0.682465 -0.58347
O_ O_ 0.448776 0.82892 0.634035 -0.58347
O_ O_ 0.415654 0.768911 0.82614 -0.46727
O_ O_ 0.249294 0.815514 0.83761 -0.46727
O_ O_ 0.462483 0.821984 0.97244 -0.46727
O_ O_ 0.293072 0.853419 0.985965 -0.46727
Zn Zn 0.626821 0.182297 0.375185 0.90689
Zn Zn 0.637892 0.173646 0.437315 0.90689
Zn Zn 0.87319 0.317691 0.12519 0.90689
Zn Zn 0.862116 0.326351 0.18732 0.90689
H_ H_ 0.801795 0.190478 0.444595 0.11455
H_ H_ 0.876151 0.166743 0.34724 0.11455
H_ H_ 0.782442 0.175244 0.353905 0.11455
H_ H_ 0.88915 0.189262 0.465805 0.11455
H_ H_ 0.982564 0.181309 0.45914 0.11455
H_ H_ 0.96286 0.165441 0.36833 0.11455
H_ H_ 0.639699 0.0108695 0.44344 0.11455
H_ H_ 0.62938 0.430588 0.34685 0.11455
H_ H_ 0.636235 0.0244964 0.351905 0.11455
H_ H_ 0.634169 0.425258 0.466235 0.11455
H_ H_ 0.62713 0.331463 0.461235 0.11455
H_ H_ 0.622958 0.345137 0.369635 0.11455
H_ H_ 0.597116 0.0965564 0.472415 0.11455
H_ H_ 0.586608 0.0712414 0.02391 0.11455
H_ H_ 0.623131 0.127062 0.0620151 0.11455
H_ H_ 0.693302 0.242475 0.47015 0.11455
H_ H_ 0.731444 0.300091 0.00650006 0.11455
H_ H_ 0.718498 0.283398 0.058645 0.11455
H_ H_ 0.529001 0.219031 0.11982 0.11455
H_ H_ 0.51266 0.200985 0.171955 0.11455
H_ H_ 0.776984 0.168781 0.13902 0.11455
H_ H_ 0.761479 0.154211 0.191265 0.11455
H_ H_ 0.576683 0.0780963 0.247375 0.11455
H_ H_ 0.557327 0.0552634 0.29812 0.11455
H_ H_ 0.58335 0.112638 0.337775 0.11455
H_ H_ 0.659667 0.241075 0.253205 0.11455
H_ H_ 0.686731 0.2949 0.29492 0.11455
H_ H_ 0.668093 0.265118 0.34428 0.11455
H_ H_ 0.698213 0.309523 0.1945 0.11455
H_ H_ 0.623863 0.333239 0.097245 0.11455
H_ H_ 0.717572 0.324742 0.10391 0.11455
H_ H_ 0.610857 0.310743 0.21581 0.11455
H_ H_ 0.517443 0.318693 0.209145 0.11455
H_ H_ 0.537153 0.334543 0.118335 0.11455
H_ H_ 0.860306 0.489142 0.193445 0.11455
H_ H_ 0.870636 0.0693719 0.096855 0.11455
H_ H_ 0.86378 0.475467 0.1019 0.11455
H_ H_ 0.865835 0.0747645 0.21624 0.11455
H_ H_ 0.872876 0.168557 0.21124 0.11455
H_ H_ 0.877055 0.154836 0.119635 0.11455
H_ H_ 0.902869 0.403452 0.222435 0.11455
H_ H_ 0.913377 0.428773 0.27392 0.11455
H_ H_ 0.876867 0.372945 0.31202 0.11455
H_ H_ 0.806704 0.257518 0.220185 0.11455
H_ H_ 0.768578 0.1999 0.256525 0.11455
H_ H_ 0.781527 0.216593 0.30863 0.11455
H_ H_ 0.971009 0.280959 0.369815 0.11455
H_ H_ -0.012649000000000021 0.299001 0.42195 0.11455
H_ H_ 0.723025 0.331201 0.38903 0.11455
H_ H_ 0.738531 0.345763 0.441275 0.11455
H_ H_ 0.923334 0.421878 0.49739 0.11455
H_ H_ 0.942703 0.444708 0.048145 0.11455
H_ H_ 0.916683 0.387332 0.08779 0.11455
H_ H_ 0.840358 0.258901 0.00320494 0.11455
H_ H_ 0.813297 0.205073 0.0449149 0.11455
H_ H_ 0.831932 0.234856 0.09428 0.11455
C_ C_ 0.730856 0.18693 0.40318 0.68181
C_ C_ 0.787282 0.183805 0.39973 -0.05681
C_ C_ 0.818738 0.185877 0.42345 -0.08735
C_ C_ 0.871879 0.181351 0.420575 -0.05681
C_ C_ 0.893018 0.173978 0.3925 -0.05681
C_ C_ 0.85988 0.172059 0.368515 -0.08735
C_ C_ 0.808366 0.17706 0.37203 -0.08735
C_ C_ 0.9052 0.1837 0.44448 -0.08735
C_ C_ 0.956758 0.17909 0.440975 -0.08735
C_ C_ 0.977693 0.172392 0.413215 -0.05681
C_ C_ 0.946145 0.169902 0.389535 -0.08735
C_ C_ 0.623593 0.276433 0.41227 0.68181
C_ C_ 0.640012 0.0795401 0.40089 0.68181
C_ C_ 0.637726 0.0228881 0.398185 -0.05681
C_ C_ 0.637098 0.492814 0.42248 -0.08735
C_ C_ 0.63301 0.439471 0.42048 -0.05681
C_ C_ 0.629688 0.416507 0.392605 -0.05681
C_ C_ 0.631222 0.448199 0.36799 -0.08735
C_ C_ 0.635051 0.499999 0.370665 -0.08735
C_ C_ 0.631829 0.407751 0.44505 -0.08735
C_ C_ 0.627987 0.355939 0.442465 -0.08735
C_ C_ 0.624968 0.333101 0.414935 -0.05681
C_ C_ 0.625402 0.36317 0.39061 -0.08735
C_ C_ 0.534107 0.16963 0.40958 0.68181
C_ C_ 0.613301 0.119533 0.48959 0.1947
C_ C_ 0.607346 0.105767 0.0185149 -0.08735
C_ C_ 0.627573 0.136618 0.0394449 -0.08735
C_ C_ 0.654353 0.181076 0.03155 -0.05681
C_ C_ 0.660416 0.191881 1.0 0.18498
C_ C_ 0.688748 0.235018 0.49296 -0.08735
C_ C_ 0.709521 0.266989 0.0132499 -0.08735
C_ C_ 0.702451 0.257599 0.0428 -0.08735
C_ C_ 0.675435 0.215703 0.0517351 0.18498
C_ C_ 0.709181 0.191848 0.0987 0.44287
C_ C_ 0.617389 0.215628 0.0923199 0.44287
C_ C_ 0.608544 0.204057 0.122845 -0.05681
C_ C_ 0.559779 0.207894 0.133975 -0.08735
C_ C_ 0.550688 0.198097 0.163045 -0.08735
C_ C_ 0.590398 0.185079 0.18114 -0.05681
C_ C_ 0.640439 0.181122 0.17037 -0.05681
C_ C_ 0.649534 0.19022 0.1407 -0.05681
C_ C_ 0.699307 0.185143 0.1297 -0.05681
C_ C_ 0.739029 0.172512 0.147855 -0.08735
C_ C_ 0.730294 0.164318 0.17714 -0.08735
C_ C_ 0.681604 0.16813 0.188385 -0.05681
C_ C_ 0.672922 0.157668 0.219 0.44287
C_ C_ 0.579733 0.175073 0.2117 0.44287
C_ C_ 0.612075 0.148456 0.258335 0.18498
C_ C_ 0.58773 0.103533 0.2647 -0.08735
C_ C_ 0.576881 0.0908271 0.29343 -0.08735
C_ C_ 0.590929 0.122587 0.315545 -0.08735
C_ C_ 0.616561 0.16863 0.309485 0.18498
C_ C_ 0.626835 0.182628 0.28036 -0.05681
C_ C_ 0.651673 0.229419 0.27514 -0.08735
C_ C_ 0.666278 0.259335 0.29786 -0.08735
C_ C_ 0.655978 0.242695 0.325925 0.1947
C_ C_ 0.769154 0.313062 0.153185 0.68181
C_ C_ 0.712729 0.316188 0.149735 -0.05681
C_ C_ 0.681271 0.314121 0.173455 -0.08735
C_ C_ 0.628131 0.318645 0.17058 -0.05681
C_ C_ 0.606993 0.326012 0.142505 -0.05681
C_ C_ 0.640132 0.327927 0.11852 -0.08735
C_ C_ 0.691647 0.322928 0.122035 -0.08735
C_ C_ 0.594808 0.316301 0.194485 -0.08735
C_ C_ 0.54325 0.320909 0.19098 -0.08735
C_ C_ 0.522317 0.327601 0.16322 -0.05681
C_ C_ 0.553866 0.330087 0.13954 -0.08735
C_ C_ 0.876418 0.223561 0.16227 0.68181
C_ C_ 0.859998 0.420449 0.150895 0.68181
C_ C_ 0.862284 0.4771 0.14819 -0.05681
C_ C_ 0.862909 0.00718593 0.172485 -0.08735
C_ C_ 0.866998 0.0605277 0.170485 -0.05681
C_ C_ 0.870323 0.0834769 0.14261 -0.05681
C_ C_ 0.868792 0.0517725 0.117995 -0.08735
C_ C_ 0.864962 0.499974 0.12067 -0.08735
C_ C_ 0.868177 0.0922605 0.19509 -0.08735
C_ C_ 0.872021 0.144071 0.192465 -0.08735
C_ C_ 0.875041 0.166895 0.164935 -0.05681
C_ C_ 0.874609 0.136813 0.140615 -0.08735
C_ C_ 0.965903 0.330362 0.159585 0.68181
C_ C_ 0.886687 0.380473 0.239605 0.1947
C_ C_ 0.892645 0.394243 0.268525 -0.08735
C_ C_ 0.872425 0.363388 0.28945 -0.08735
C_ C_ 0.845653 0.318927 0.28156 -0.05681
C_ C_ 0.839585 0.308117 0.2516 0.18498
C_ C_ 0.81126 0.264975 0.24296 -0.08735
C_ C_ 0.790497 0.233005 0.26325 -0.08735
C_ C_ 0.797568 0.242394 0.29279 -0.08735
C_ C_ 0.824578 0.284295 0.30173 0.18498
C_ C_ 0.790831 0.308146 0.3487 0.44287
C_ C_ 0.882623 0.284366 0.34232 0.44287
C_ C_ 0.891466 0.295932 0.37284 -0.05681
C_ C_ 0.940232 0.292095 0.38395 -0.08735
C_ C_ 0.949323 0.301889 0.413045 -0.08735
C_ C_ 0.909613 0.314905 0.43114 -0.05681
C_ C_ 0.859571 0.318862 0.42037 -0.05681
C_ C_ 0.850477 0.309767 0.3907 -0.05681
C_ C_ 0.800703 0.314845 0.379705 -0.05681
C_ C_ 0.760981 0.327471 0.39786 -0.08735
C_ C_ 0.769716 0.33566 0.427 -0.08735
C_ C_ 0.818406 0.33185 0.43839 -0.05681
C_ C_ 0.827091 0.342312 0.469155 0.44287
C_ C_ 0.920279 0.32491 0.46172 0.44287
C_ C_ 0.887945 0.351522 0.00834504 0.18498
C_ C_ 0.912293 0.396443 0.0147001 -0.08735
C_ C_ 0.923146 0.409147 0.04345 -0.08735
C_ C_ 0.909099 0.377385 0.06556 -0.08735
C_ C_ 0.883465 0.331344 0.0594951 0.18498
C_ C_ 0.873188 0.317348 0.03037 -0.05681
C_ C_ 0.848351 0.270556 0.025145 -0.08735
C_ C_ 0.833748 0.240639 0.0478551 -0.08735
C_ C_ 0.844047 0.25728 0.0759251 0.1947
N_ N_ 0.638852 0.1607 0.48131 -0.29468
N_ N_ 0.667269 0.206837 0.0818949 -0.17154
N_ N_ 0.622203 0.161099 0.228775 -0.17154
N_ N_ 0.631792 0.199408 0.33171 -0.29468
N_ N_ 0.861144 0.339301 0.231315 -0.29468
N_ N_ 0.832744 0.293159 0.33189 -0.17154
N_ N_ 0.87781 0.338878 0.47878 -0.17154
N_ N_ 0.868233 0.300566 0.0817149 -0.29468
O_ O_ 0.713536 0.184444 0.42864 -0.58347
O_ O_ 0.704901 0.191325 0.380355 -0.58347
O_ O_ 0.628913 0.251331 0.43534 -0.58347
O_ O_ 0.618078 0.257912 0.387265 -0.58347
O_ O_ 0.643824 0.0978677 0.42604 -0.58347
O_ O_ 0.63747 0.104826 0.377665 -0.58347
O_ O_ 0.560141 0.166656 0.43246 -0.58347
O_ O_ 0.551235 0.17107 0.38403 -0.58347
O_ O_ 0.584359 0.231083 0.0761451 -0.46727
O_ O_ 0.75072 0.184481 0.0875999 -0.46727
O_ O_ 0.537531 0.178005 0.22244 -0.46727
O_ O_ 0.706943 0.146565 0.235955 -0.46727
O_ O_ 0.786474 0.315549 0.178645 -0.58347
O_ O_ 0.795111 0.308666 0.13036 -0.58347
O_ O_ 0.871098 0.248669 0.185345 -0.58347
O_ O_ 0.881931 0.242077 0.13727 -0.58347
O_ O_ 0.856185 0.402128 0.176045 -0.58347
O_ O_ 0.862542 0.395158 0.12765 -0.58347
O_ O_ 0.939868 0.333338 0.182465 -0.58347
O_ O_ 0.948776 0.328921 0.134035 -0.58347
O_ O_ 0.915654 0.268911 0.32614 -0.46727
O_ O_ 0.749293 0.315514 0.33761 -0.46727
O_ O_ 0.962482 0.321983 0.47244 -0.46727
O_ O_ 0.793072 0.353419 0.485965 -0.46727
Zn Zn 0.626822 0.182297 0.875185 0.90689
Zn Zn 0.637892 0.173646 0.937315 0.90689
Zn Zn 0.87319 0.317691 0.62519 0.90689
Zn Zn 0.862117 0.326351 0.68732 0.90689
H_ H_ 0.801795 0.190478 0.944595 0.11455
H_ H_ 0.876151 0.166744 0.84724 0.11455
H_ H_ 0.782442 0.175243 0.853905 0.11455
H_ H_ 0.88915 0.189262 0.965805 0.11455
H_ H_ 0.982564 0.181309 0.95914 0.11455
H_ H_ 0.96286 0.165441 0.86833 0.11455
H_ H_ 0.6397 0.0108695 0.94344 0.11455
H_ H_ 0.629379 0.430588 0.84685 0.11455
H_ H_ 0.636235 0.0244963 0.851905 0.11455
H_ H_ 0.634169 0.425258 0.966235 0.11455
H_ H_ 0.62713 0.331463 0.961235 0.11455
H_ H_ 0.622958 0.345137 0.869635 0.11455
H_ H_ 0.597116 0.0965564 0.972415 0.11455
H_ H_ 0.586608 0.0712414 0.52391 0.11455
H_ H_ 0.62313 0.127062 0.562015 0.11455
H_ H_ 0.693302 0.242475 0.97015 0.11455
H_ H_ 0.731444 0.300091 0.5065 0.11455
H_ H_ 0.718498 0.283398 0.558645 0.11455
H_ H_ 0.529001 0.219031 0.61982 0.11455
H_ H_ 0.51266 0.200985 0.671955 0.11455
H_ H_ 0.776985 0.168781 0.63902 0.11455
H_ H_ 0.761479 0.154211 0.691265 0.11455
H_ H_ 0.576683 0.0780966 0.747375 0.11455
H_ H_ 0.557327 0.0552633 0.79812 0.11455
H_ H_ 0.58335 0.112638 0.837775 0.11455
H_ H_ 0.659667 0.241075 0.753205 0.11455
H_ H_ 0.686731 0.2949 0.79492 0.11455
H_ H_ 0.668093 0.265118 0.84428 0.11455
H_ H_ 0.698213 0.309523 0.6945 0.11455
H_ H_ 0.623863 0.333239 0.597245 0.11455
H_ H_ 0.717572 0.324741 0.60391 0.11455
H_ H_ 0.610856 0.310743 0.71581 0.11455
H_ H_ 0.517443 0.318693 0.709145 0.11455
H_ H_ 0.537153 0.334543 0.618335 0.11455
H_ H_ 0.860307 0.489142 0.693445 0.11455
H_ H_ 0.870635 0.0693718 0.596855 0.11455
H_ H_ 0.863779 0.475467 0.6019 0.11455
H_ H_ 0.865835 0.0747644 0.71624 0.11455
H_ H_ 0.872876 0.168557 0.71124 0.11455
H_ H_ 0.877055 0.154836 0.619635 0.11455
H_ H_ 0.902869 0.403452 0.722435 0.11455
H_ H_ 0.913377 0.428773 0.77392 0.11455
H_ H_ 0.876867 0.372945 0.81202 0.11455
H_ H_ 0.806704 0.257519 0.720185 0.11455
H_ H_ 0.768578 0.1999 0.756525 0.11455
H_ H_ 0.781526 0.216593 0.80863 0.11455
H_ H_ 0.971009 0.280958 0.869815 0.11455
H_ H_ -0.012649000000000021 0.299001 0.92195 0.11455
H_ H_ 0.723025 0.331202 0.88903 0.11455
H_ H_ 0.738531 0.345763 0.941275 0.11455
H_ H_ 0.923334 0.421877 0.99739 0.11455
H_ H_ 0.942703 0.444708 0.548145 0.11455
H_ H_ 0.916683 0.387332 0.58779 0.11455
H_ H_ 0.840358 0.258901 0.503205 0.11455
H_ H_ 0.813297 0.205073 0.544915 0.11455
H_ H_ 0.831931 0.234857 0.59428 0.11455
C_ C_ 0.730856 0.186929 0.90318 0.68181
C_ C_ 0.787282 0.183805 0.89973 -0.05681
C_ C_ 0.818739 0.185877 0.92345 -0.08735
C_ C_ 0.871879 0.18135 0.920575 -0.05681
C_ C_ 0.893018 0.173979 0.8925 -0.05681
C_ C_ 0.85988 0.172059 0.868515 -0.08735
C_ C_ 0.808366 0.17706 0.87203 -0.08735
C_ C_ 0.905201 0.1837 0.94448 -0.08735
C_ C_ 0.956758 0.17909 0.940975 -0.08735
C_ C_ 0.977693 0.172392 0.913215 -0.05681
C_ C_ 0.946145 0.169902 0.889535 -0.08735
C_ C_ 0.623592 0.276433 0.91227 0.68181
C_ C_ 0.640012 0.07954 0.90089 0.68181
C_ C_ 0.637726 0.0228881 0.898185 -0.05681
C_ C_ 0.637098 0.492814 0.92248 -0.08735
C_ C_ 0.63301 0.439472 0.92048 -0.05681
C_ C_ 0.629687 0.416507 0.892605 -0.05681
C_ C_ 0.631221 0.448199 0.86799 -0.08735
C_ C_ 0.635051 0.499999 0.870665 -0.08735
C_ C_ 0.631829 0.407751 0.94505 -0.08735
C_ C_ 0.627987 0.355939 0.942465 -0.08735
C_ C_ 0.624969 0.333101 0.914935 -0.05681
C_ C_ 0.625402 0.36317 0.89061 -0.08735
C_ C_ 0.534106 0.169631 0.90958 0.68181
C_ C_ 0.613301 0.119533 0.98959 0.1947
C_ C_ 0.607346 0.105767 0.518515 -0.08735
C_ C_ 0.627573 0.136618 0.539445 -0.08735
C_ C_ 0.654353 0.181076 0.53155 -0.05681
C_ C_ 0.660417 0.19188 0.5 0.18498
C_ C_ 0.688748 0.235018 0.99296 -0.08735
C_ C_ 0.709522 0.266989 0.51325 -0.08735
C_ C_ 0.702451 0.257599 0.5428 -0.08735
C_ C_ 0.675435 0.215703 0.551735 0.18498
C_ C_ 0.709181 0.191848 0.5987 0.44287
C_ C_ 0.617389 0.215628 0.59232 0.44287
C_ C_ 0.608545 0.204057 0.622845 -0.05681
C_ C_ 0.559779 0.207894 0.633975 -0.08735
C_ C_ 0.550688 0.198097 0.663045 -0.08735
C_ C_ 0.590398 0.185079 0.68114 -0.05681
C_ C_ 0.640439 0.181121 0.67037 -0.05681
C_ C_ 0.649534 0.19022 0.6407 -0.05681
C_ C_ 0.699306 0.185143 0.6297 -0.05681
C_ C_ 0.739029 0.172512 0.647855 -0.08735
C_ C_ 0.730294 0.164317 0.67714 -0.08735
C_ C_ 0.681604 0.16813 0.688385 -0.05681
C_ C_ 0.672922 0.157668 0.719 0.44287
C_ C_ 0.579733 0.175073 0.7117 0.44287
C_ C_ 0.612075 0.148456 0.758335 0.18498
C_ C_ 0.58773 0.103533 0.7647 -0.08735
C_ C_ 0.576881 0.090827 0.79343 -0.08735
C_ C_ 0.590929 0.122587 0.815545 -0.08735
C_ C_ 0.61656 0.168631 0.809485 0.18498
C_ C_ 0.626835 0.182628 0.78036 -0.05681
C_ C_ 0.651673 0.229419 0.77514 -0.08735
C_ C_ 0.666278 0.259335 0.79786 -0.08735
C_ C_ 0.655977 0.242695 0.825925 0.1947
C_ C_ 0.769154 0.313062 0.653185 0.68181
C_ C_ 0.712729 0.316188 0.649735 -0.05681
C_ C_ 0.681271 0.314121 0.673455 -0.08735
C_ C_ 0.628131 0.318645 0.67058 -0.05681
C_ C_ 0.606994 0.326012 0.642505 -0.05681
C_ C_ 0.640132 0.327928 0.61852 -0.08735
C_ C_ 0.691647 0.322929 0.622035 -0.08735
C_ C_ 0.594808 0.316301 0.694485 -0.08735
C_ C_ 0.54325 0.320909 0.69098 -0.08735
C_ C_ 0.522317 0.327601 0.66322 -0.05681
C_ C_ 0.553866 0.330086 0.63954 -0.08735
C_ C_ 0.876417 0.223561 0.66227 0.68181
C_ C_ 0.859998 0.420449 0.650895 0.68181
C_ C_ 0.862283 0.4771 0.64819 -0.05681
C_ C_ 0.862909 0.00718587 0.672485 -0.08735
C_ C_ 0.866998 0.0605276 0.670485 -0.05681
C_ C_ 0.870324 0.0834769 0.64261 -0.05681
C_ C_ 0.868791 0.0517725 0.617995 -0.08735
C_ C_ 0.864961 0.499974 0.62067 -0.08735
C_ C_ 0.868177 0.0922604 0.69509 -0.08735
C_ C_ 0.87202 0.144072 0.692465 -0.08735
C_ C_ 0.875041 0.166895 0.664935 -0.05681
C_ C_ 0.874609 0.136813 0.640615 -0.08735
C_ C_ 0.965904 0.330362 0.659585 0.68181
C_ C_ 0.886687 0.380472 0.739605 0.1947
C_ C_ 0.892645 0.394243 0.768525 -0.08735
C_ C_ 0.872425 0.363388 0.78945 -0.08735
C_ C_ 0.845653 0.318927 0.78156 -0.05681
C_ C_ 0.839585 0.308117 0.7516 0.18498
C_ C_ 0.81126 0.264976 0.74296 -0.08735
C_ C_ 0.790497 0.233005 0.76325 -0.08735
C_ C_ 0.797568 0.242394 0.79279 -0.08735
C_ C_ 0.824578 0.284295 0.80173 0.18498
C_ C_ 0.79083 0.308146 0.8487 0.44287
C_ C_ 0.882623 0.284366 0.84232 0.44287
C_ C_ 0.891466 0.295932 0.87284 -0.05681
C_ C_ 0.940232 0.292094 0.88395 -0.08735
C_ C_ 0.949323 0.30189 0.913045 -0.08735
C_ C_ 0.909612 0.314905 0.93114 -0.05681
C_ C_ 0.859571 0.318862 0.92037 -0.05681
C_ C_ 0.850477 0.309768 0.8907 -0.05681
C_ C_ 0.800703 0.314845 0.879705 -0.05681
C_ C_ 0.760981 0.327471 0.89786 -0.08735
C_ C_ 0.769716 0.33566 0.927 -0.08735
C_ C_ 0.818407 0.33185 0.93839 -0.05681
C_ C_ 0.82709 0.342312 0.969155 0.44287
C_ C_ 0.920279 0.32491 0.96172 0.44287
C_ C_ 0.887946 0.351522 0.508345 0.18498
C_ C_ 0.912293 0.396443 0.5147 -0.08735
C_ C_ 0.923146 0.409147 0.54345 -0.08735
C_ C_ 0.909099 0.377385 0.56556 -0.08735
C_ C_ 0.883464 0.331344 0.559495 0.18498
C_ C_ 0.873188 0.317348 0.53037 -0.05681
C_ C_ 0.848352 0.270556 0.525145 -0.08735
C_ C_ 0.833748 0.240639 0.547855 -0.08735
C_ C_ 0.844047 0.25728 0.575925 0.1947
N_ N_ 0.638852 0.1607 0.98131 -0.29468
N_ N_ 0.667269 0.206836 0.581895 -0.17154
N_ N_ 0.622203 0.161099 0.728775 -0.17154
N_ N_ 0.631791 0.199408 0.83171 -0.29468
N_ N_ 0.861144 0.339301 0.731315 -0.29468
N_ N_ 0.832744 0.293159 0.83189 -0.17154
N_ N_ 0.87781 0.338878 0.97878 -0.17154
N_ N_ 0.868233 0.300566 0.581715 -0.29468
O_ O_ 0.713536 0.184444 0.92864 -0.58347
O_ O_ 0.7049 0.191325 0.880355 -0.58347
O_ O_ 0.628913 0.251331 0.93534 -0.58347
O_ O_ 0.618078 0.257912 0.887265 -0.58347
O_ O_ 0.643825 0.0978676 0.92604 -0.58347
O_ O_ 0.63747 0.104826 0.877665 -0.58347
O_ O_ 0.560141 0.166656 0.93246 -0.58347
O_ O_ 0.551236 0.17107 0.88403 -0.58347
O_ O_ 0.584359 0.231083 0.576145 -0.46727
O_ O_ 0.75072 0.184481 0.5876 -0.46727
O_ O_ 0.537531 0.178005 0.72244 -0.46727
O_ O_ 0.706943 0.146565 0.735955 -0.46727
O_ O_ 0.786474 0.315549 0.678645 -0.58347
O_ O_ 0.795111 0.308666 0.63036 -0.58347
O_ O_ 0.871098 0.248669 0.685345 -0.58347
O_ O_ 0.881931 0.242077 0.63727 -0.58347
O_ O_ 0.856184 0.402128 0.676045 -0.58347
O_ O_ 0.862541 0.395158 0.62765 -0.58347
O_ O_ 0.939868 0.333337 0.682465 -0.58347
O_ O_ 0.948776 0.32892 0.634035 -0.58347
O_ O_ 0.915654 0.268911 0.82614 -0.46727
O_ O_ 0.749294 0.315514 0.83761 -0.46727
O_ O_ 0.962483 0.321983 0.97244 -0.46727
O_ O_ 0.793072 0.353419 0.985965 -0.46727
Zn Zn 0.626821 0.682297 0.375185 0.90689
Zn Zn 0.637892 0.673646 0.437315 0.90689
Zn Zn 0.87319 0.81769 0.12519 0.90689
Zn Zn 0.862117 0.826351 0.18732 0.90689
H_ H_ 0.801795 0.690478 0.444595 0.11455
H_ H_ 0.876151 0.666744 0.34724 0.11455
H_ H_ 0.782442 0.675243 0.353905 0.11455
H_ H_ 0.88915 0.689262 0.465805 0.11455
H_ H_ 0.982564 0.681309 0.45914 0.11455
H_ H_ 0.96286 0.665441 0.36833 0.11455
H_ H_ 0.639699 0.510869 0.44344 0.11455
H_ H_ 0.62938 0.930588 0.34685 0.11455
H_ H_ 0.636235 0.524497 0.351905 0.11455
H_ H_ 0.634169 0.925259 0.466235 0.11455
H_ H_ 0.62713 0.831463 0.461235 0.11455
H_ H_ 0.622958 0.845137 0.369635 0.11455
H_ H_ 0.597116 0.596556 0.472415 0.11455
H_ H_ 0.586608 0.571241 0.02391 0.11455
H_ H_ 0.62313 0.627062 0.0620151 0.11455
H_ H_ 0.693302 0.742475 0.47015 0.11455
H_ H_ 0.731444 0.80009 0.00650006 0.11455
H_ H_ 0.718498 0.783398 0.058645 0.11455
H_ H_ 0.529001 0.719031 0.11982 0.11455
H_ H_ 0.51266 0.700985 0.171955 0.11455
H_ H_ 0.776985 0.668781 0.13902 0.11455
H_ H_ 0.761479 0.654211 0.191265 0.11455
H_ H_ 0.576683 0.578097 0.247375 0.11455
H_ H_ 0.557327 0.555264 0.29812 0.11455
H_ H_ 0.58335 0.612638 0.337775 0.11455
H_ H_ 0.659667 0.741074 0.253205 0.11455
H_ H_ 0.686731 0.7949 0.29492 0.11455
H_ H_ 0.668093 0.765118 0.34428 0.11455
H_ H_ 0.698213 0.809523 0.1945 0.11455
H_ H_ 0.623863 0.833239 0.097245 0.11455
H_ H_ 0.717572 0.824741 0.10391 0.11455
H_ H_ 0.610856 0.810743 0.21581 0.11455
H_ H_ 0.517443 0.818693 0.209145 0.11455
H_ H_ 0.537153 0.834543 0.118335 0.11455
H_ H_ 0.860306 0.989142 0.193445 0.11455
H_ H_ 0.870636 0.569372 0.096855 0.11455
H_ H_ 0.863779 0.975466 0.1019 0.11455
H_ H_ 0.865835 0.574764 0.21624 0.11455
H_ H_ 0.872876 0.668557 0.21124 0.11455
H_ H_ 0.877055 0.654836 0.119635 0.11455
H_ H_ 0.902869 0.903452 0.222435 0.11455
H_ H_ 0.913377 0.928773 0.27392 0.11455
H_ H_ 0.876867 0.872945 0.31202 0.11455
H_ H_ 0.806704 0.757519 0.220185 0.11455
H_ H_ 0.768578 0.6999 0.256525 0.11455
H_ H_ 0.781526 0.716592 0.30863 0.11455
H_ H_ 0.971009 0.780958 0.369815 0.11455
H_ H_ -0.012649000000000021 0.799002 0.42195 0.11455
H_ H_ 0.723025 0.831202 0.38903 0.11455
H_ H_ 0.738531 0.845763 0.441275 0.11455
H_ H_ 0.923334 0.921877 0.49739 0.11455
H_ H_ 0.942703 0.944708 0.048145 0.11455
H_ H_ 0.916683 0.887332 0.08779 0.11455
H_ H_ 0.840358 0.758901 0.00320494 0.11455
H_ H_ 0.813297 0.705073 0.0449149 0.11455
H_ H_ 0.831931 0.734857 0.09428 0.11455
C_ C_ 0.730856 0.686929 0.40318 0.68181
C_ C_ 0.787282 0.683805 0.39973 -0.05681
C_ C_ 0.818738 0.685877 0.42345 -0.08735
C_ C_ 0.871879 0.68135 0.420575 -0.05681
C_ C_ 0.893018 0.673979 0.3925 -0.05681
C_ C_ 0.85988 0.672059 0.368515 -0.08735
C_ C_ 0.808366 0.67706 0.37203 -0.08735
C_ C_ 0.9052 0.6837 0.44448 -0.08735
C_ C_ 0.956758 0.67909 0.440975 -0.08735
C_ C_ 0.977693 0.672392 0.413215 -0.05681
C_ C_ 0.946145 0.669902 0.389535 -0.08735
C_ C_ 0.623592 0.776433 0.41227 0.68181
C_ C_ 0.640012 0.57954 0.40089 0.68181
C_ C_ 0.637726 0.522888 0.398185 -0.05681
C_ C_ 0.637098 0.992814 0.42248 -0.08735
C_ C_ 0.63301 0.939472 0.42048 -0.05681
C_ C_ 0.629688 0.916508 0.392605 -0.05681
C_ C_ 0.631222 0.948199 0.36799 -0.08735
C_ C_ 0.635051 0.999999 0.370665 -0.08735
C_ C_ 0.631829 0.907751 0.44505 -0.08735
C_ C_ 0.627987 0.855939 0.442465 -0.08735
C_ C_ 0.624969 0.833101 0.414935 -0.05681
C_ C_ 0.625402 0.86317 0.39061 -0.08735
C_ C_ 0.534106 0.669631 0.40958 0.68181
C_ C_ 0.613301 0.619533 0.48959 0.1947
C_ C_ 0.607346 0.605767 0.0185149 -0.08735
C_ C_ 0.627573 0.636618 0.0394449 -0.08735
C_ C_ 0.654353 0.681076 0.03155 -0.05681
C_ C_ 0.660417 0.69188 1.0 0.18498
C_ C_ 0.688748 0.735018 0.49296 -0.08735
C_ C_ 0.709521 0.766989 0.0132499 -0.08735
C_ C_ 0.702451 0.7576 0.0428 -0.08735
C_ C_ 0.675435 0.715703 0.0517351 0.18498
C_ C_ 0.709181 0.691848 0.0987 0.44287
C_ C_ 0.617389 0.715628 0.0923199 0.44287
C_ C_ 0.608545 0.704057 0.122845 -0.05681
C_ C_ 0.559779 0.707894 0.133975 -0.08735
C_ C_ 0.550688 0.698097 0.163045 -0.08735
C_ C_ 0.590398 0.685079 0.18114 -0.05681
C_ C_ 0.640439 0.681121 0.17037 -0.05681
C_ C_ 0.649534 0.690219 0.1407 -0.05681
C_ C_ 0.699306 0.685143 0.1297 -0.05681
C_ C_ 0.739029 0.672512 0.147855 -0.08735
C_ C_ 0.730294 0.664317 0.17714 -0.08735
C_ C_ 0.681604 0.66813 0.188385 -0.05681
C_ C_ 0.672922 0.657668 0.219 0.44287
C_ C_ 0.579733 0.675073 0.2117 0.44287
C_ C_ 0.612075 0.648456 0.258335 0.18498
C_ C_ 0.58773 0.603534 0.2647 -0.08735
C_ C_ 0.576881 0.590827 0.29343 -0.08735
C_ C_ 0.590929 0.622588 0.315545 -0.08735
C_ C_ 0.616561 0.668631 0.309485 0.18498
C_ C_ 0.626835 0.682628 0.28036 -0.05681
C_ C_ 0.651673 0.729419 0.27514 -0.08735
C_ C_ 0.666278 0.759335 0.29786 -0.08735
C_ C_ 0.655978 0.742695 0.325925 0.1947
C_ C_ 0.769154 0.813063 0.153185 0.68181
C_ C_ 0.712729 0.816188 0.149735 -0.05681
C_ C_ 0.681271 0.81412 0.173455 -0.08735
C_ C_ 0.628131 0.818645 0.17058 -0.05681
C_ C_ 0.606994 0.826012 0.142505 -0.05681
C_ C_ 0.640132 0.827928 0.11852 -0.08735
C_ C_ 0.691647 0.822929 0.122035 -0.08735
C_ C_ 0.594808 0.8163 0.194485 -0.08735
C_ C_ 0.54325 0.820909 0.19098 -0.08735
C_ C_ 0.522317 0.827602 0.16322 -0.05681
C_ C_ 0.553866 0.830086 0.13954 -0.08735
C_ C_ 0.876417 0.723561 0.16227 0.68181
C_ C_ 0.859998 0.920449 0.150895 0.68181
C_ C_ 0.862284 0.9771 0.14819 -0.05681
C_ C_ 0.862909 0.507186 0.172485 -0.08735
C_ C_ 0.866998 0.560528 0.170485 -0.05681
C_ C_ 0.870324 0.583477 0.14261 -0.05681
C_ C_ 0.868791 0.551772 0.117995 -0.08735
C_ C_ 0.864962 0.999974 0.12067 -0.08735
C_ C_ 0.868177 0.59226 0.19509 -0.08735
C_ C_ 0.872021 0.644072 0.192465 -0.08735
C_ C_ 0.875041 0.666895 0.164935 -0.05681
C_ C_ 0.874609 0.636812 0.140615 -0.08735
C_ C_ 0.965903 0.830362 0.159585 0.68181
C_ C_ 0.886687 0.880472 0.239605 0.1947
C_ C_ 0.892645 0.894243 0.268525 -0.08735
C_ C_ 0.872425 0.863388 0.28945 -0.08735
C_ C_ 0.845653 0.818927 0.28156 -0.05681
C_ C_ 0.839585 0.808117 0.2516 0.18498
C_ C_ 0.81126 0.764976 0.24296 -0.08735
C_ C_ 0.790497 0.733005 0.26325 -0.08735
C_ C_ 0.797568 0.742394 0.29279 -0.08735
C_ C_ 0.824578 0.784295 0.30173 0.18498
C_ C_ 0.790831 0.808146 0.3487 0.44287
C_ C_ 0.882623 0.784365 0.34232 0.44287
C_ C_ 0.891466 0.795933 0.37284 -0.05681
C_ C_ 0.940232 0.792094 0.38395 -0.08735
C_ C_ 0.949323 0.80189 0.413045 -0.08735
C_ C_ 0.909613 0.814905 0.43114 -0.05681
C_ C_ 0.859571 0.818862 0.42037 -0.05681
C_ C_ 0.850477 0.809768 0.3907 -0.05681
C_ C_ 0.800703 0.814845 0.379705 -0.05681
C_ C_ 0.760981 0.82747 0.39786 -0.08735
C_ C_ 0.769716 0.83566 0.427 -0.08735
C_ C_ 0.818407 0.83185 0.43839 -0.05681
C_ C_ 0.82709 0.842312 0.469155 0.44287
C_ C_ 0.920279 0.82491 0.46172 0.44287
C_ C_ 0.887945 0.851522 0.00834504 0.18498
C_ C_ 0.912293 0.896443 0.0147001 -0.08735
C_ C_ 0.923146 0.909146 0.04345 -0.08735
C_ C_ 0.909099 0.877385 0.06556 -0.08735
C_ C_ 0.883464 0.831344 0.0594951 0.18498
C_ C_ 0.873188 0.817348 0.03037 -0.05681
C_ C_ 0.848351 0.770556 0.025145 -0.08735
C_ C_ 0.833748 0.740638 0.0478551 -0.08735
C_ C_ 0.844047 0.75728 0.0759251 0.1947
N_ N_ 0.638852 0.6607 0.48131 -0.29468
N_ N_ 0.667269 0.706836 0.0818949 -0.17154
N_ N_ 0.622203 0.661099 0.228775 -0.17154
N_ N_ 0.631792 0.699409 0.33171 -0.29468
N_ N_ 0.861144 0.839301 0.231315 -0.29468
N_ N_ 0.832744 0.793159 0.33189 -0.17154
N_ N_ 0.87781 0.838878 0.47878 -0.17154
N_ N_ 0.868233 0.800566 0.0817149 -0.29468
O_ O_ 0.713536 0.684445 0.42864 -0.58347
O_ O_ 0.7049 0.691325 0.380355 -0.58347
O_ O_ 0.628913 0.751331 0.43534 -0.58347
O_ O_ 0.618078 0.757911 0.387265 -0.58347
O_ O_ 0.643825 0.597868 0.42604 -0.58347
O_ O_ 0.63747 0.604826 0.377665 -0.58347
O_ O_ 0.560141 0.666657 0.43246 -0.58347
O_ O_ 0.551236 0.67107 0.38403 -0.58347
O_ O_ 0.584359 0.731083 0.0761451 -0.46727
O_ O_ 0.75072 0.684481 0.0875999 -0.46727
O_ O_ 0.537531 0.678005 0.22244 -0.46727
O_ O_ 0.706943 0.646565 0.235955 -0.46727
O_ O_ 0.786474 0.81555 0.178645 -0.58347
O_ O_ 0.795111 0.808666 0.13036 -0.58347
O_ O_ 0.871098 0.748669 0.185345 -0.58347
O_ O_ 0.881931 0.742077 0.13727 -0.58347
O_ O_ 0.856185 0.902128 0.176045 -0.58347
O_ O_ 0.862541 0.895158 0.12765 -0.58347
O_ O_ 0.939868 0.833337 0.182465 -0.58347
O_ O_ 0.948776 0.82892 0.134035 -0.58347
O_ O_ 0.915654 0.768911 0.32614 -0.46727
O_ O_ 0.749294 0.815514 0.33761 -0.46727
O_ O_ 0.962482 0.821983 0.47244 -0.46727
O_ O_ 0.793072 0.853419 0.485965 -0.46727
Zn Zn 0.626822 0.682297 0.875185 0.90689
Zn Zn 0.637892 0.673646 0.937315 0.90689
Zn Zn 0.873191 0.81769 0.62519 0.90689
Zn Zn 0.862117 0.826351 0.68732 0.90689
H_ H_ 0.801795 0.690478 0.944595 0.11455
H_ H_ 0.876151 0.666744 0.84724 0.11455
H_ H_ 0.782442 0.675243 0.853905 0.11455
H_ H_ 0.88915 0.689261 0.965805 0.11455
H_ H_ 0.982564 0.681309 0.95914 0.11455
H_ H_ 0.96286 0.66544 0.86833 0.11455
H_ H_ 0.6397 0.510869 0.94344 0.11455
H_ H_ 0.629379 0.930588 0.84685 0.11455
H_ H_ 0.636234 0.524497 0.851905 0.11455
H_ H_ 0.634169 0.925259 0.966235 0.11455
H_ H_ 0.62713 0.831463 0.961235 0.11455
H_ H_ 0.622958 0.845136 0.869635 0.11455
H_ H_ 0.597116 0.596557 0.972415 0.11455
H_ H_ 0.586608 0.571242 0.52391 0.11455
H_ H_ 0.62313 0.627061 0.562015 0.11455
H_ H_ 0.693302 0.742475 0.97015 0.11455
H_ H_ 0.731445 0.80009 0.5065 0.11455
H_ H_ 0.718498 0.783398 0.558645 0.11455
H_ H_ 0.529001 0.719031 0.61982 0.11455
H_ H_ 0.51266 0.700985 0.671955 0.11455
H_ H_ 0.776985 0.668781 0.63902 0.11455
H_ H_ 0.761478 0.654211 0.691265 0.11455
H_ H_ 0.576683 0.578097 0.747375 0.11455
H_ H_ 0.557327 0.555264 0.79812 0.11455
H_ H_ 0.583351 0.612638 0.837775 0.11455
H_ H_ 0.659667 0.741074 0.753205 0.11455
H_ H_ 0.686731 0.794899 0.79492 0.11455
H_ H_ 0.668093 0.765119 0.84428 0.11455
H_ H_ 0.698213 0.809523 0.6945 0.11455
H_ H_ 0.623863 0.833239 0.597245 0.11455
H_ H_ 0.717572 0.824741 0.60391 0.11455
H_ H_ 0.610856 0.810743 0.71581 0.11455
H_ H_ 0.517443 0.818693 0.709145 0.11455
H_ H_ 0.537153 0.834544 0.618335 0.11455
H_ H_ 0.860307 0.989142 0.693445 0.11455
H_ H_ 0.870635 0.569372 0.596855 0.11455
H_ H_ 0.863779 0.975466 0.6019 0.11455
H_ H_ 0.865835 0.574764 0.71624 0.11455
H_ H_ 0.872876 0.668557 0.71124 0.11455
H_ H_ 0.877055 0.654836 0.619635 0.11455
H_ H_ 0.902868 0.903452 0.722435 0.11455
H_ H_ 0.913376 0.928774 0.77392 0.11455
H_ H_ 0.876867 0.872945 0.81202 0.11455
H_ H_ 0.806704 0.757519 0.720185 0.11455
H_ H_ 0.768578 0.6999 0.756525 0.11455
H_ H_ 0.781526 0.716592 0.80863 0.11455
H_ H_ 0.97101 0.780958 0.869815 0.11455
H_ H_ 0.987351 0.799002 0.92195 0.11455
H_ H_ 0.723025 0.831202 0.88903 0.11455
H_ H_ 0.738531 0.845763 0.941275 0.11455
H_ H_ 0.923335 0.921877 0.99739 0.11455
H_ H_ 0.942703 0.944708 0.548145 0.11455
H_ H_ 0.916682 0.887332 0.58779 0.11455
H_ H_ 0.840358 0.758902 0.503205 0.11455
H_ H_ 0.813297 0.705073 0.544915 0.11455
H_ H_ 0.831931 0.734857 0.59428 0.11455
C_ C_ 0.730856 0.686929 0.90318 0.68181
C_ C_ 0.787282 0.683805 0.89973 -0.05681
C_ C_ 0.818739 0.685876 0.92345 -0.08735
C_ C_ 0.871878 0.68135 0.920575 -0.05681
C_ C_ 0.893018 0.673979 0.8925 -0.05681
C_ C_ 0.859881 0.672059 0.868515 -0.08735
C_ C_ 0.808366 0.67706 0.87203 -0.08735
C_ C_ 0.905201 0.6837 0.94448 -0.08735
C_ C_ 0.956758 0.67909 0.940975 -0.08735
C_ C_ 0.977693 0.672392 0.913215 -0.05681
C_ C_ 0.946145 0.669902 0.889535 -0.08735
C_ C_ 0.623592 0.776433 0.91227 0.68181
C_ C_ 0.640012 0.57954 0.90089 0.68181
C_ C_ 0.637726 0.522888 0.898185 -0.05681
C_ C_ 0.637099 -0.007186000000000026 0.92248 -0.08735
C_ C_ 0.63301 0.939472 0.92048 -0.05681
C_ C_ 0.629687 0.916508 0.892605 -0.05681
C_ C_ 0.631221 0.948199 0.86799 -0.08735
C_ C_ 0.635051 -1.0000000000287557e-06 0.870665 -0.08735
C_ C_ 0.63183 0.907751 0.94505 -0.08735
C_ C_ 0.627987 0.855938 0.942465 -0.08735
C_ C_ 0.624969 0.833101 0.914935 -0.05681
C_ C_ 0.625403 0.86317 0.89061 -0.08735
C_ C_ 0.534106 0.669631 0.90958 0.68181
C_ C_ 0.613301 0.619533 0.98959 0.1947
C_ C_ 0.607346 0.605768 0.518515 -0.08735
C_ C_ 0.627572 0.636617 0.539445 -0.08735
C_ C_ 0.654353 0.681075 0.53155 -0.05681
C_ C_ 0.660417 0.69188 0.5 0.18498
C_ C_ 0.688749 0.735018 0.99296 -0.08735
C_ C_ 0.709522 0.766989 0.51325 -0.08735
C_ C_ 0.702451 0.7576 0.5428 -0.08735
C_ C_ 0.675435 0.715702 0.551735 0.18498
C_ C_ 0.709182 0.691847 0.5987 0.44287
C_ C_ 0.617389 0.715628 0.59232 0.44287
C_ C_ 0.608545 0.704057 0.622845 -0.05681
C_ C_ 0.559779 0.707894 0.633975 -0.08735
C_ C_ 0.550688 0.698097 0.663045 -0.08735
C_ C_ 0.590399 0.685079 0.68114 -0.05681
C_ C_ 0.640439 0.681121 0.67037 -0.05681
C_ C_ 0.649534 0.690219 0.6407 -0.05681
C_ C_ 0.699306 0.685143 0.6297 -0.05681
C_ C_ 0.739029 0.672512 0.647855 -0.08735
C_ C_ 0.730294 0.664317 0.67714 -0.08735
C_ C_ 0.681604 0.66813 0.688385 -0.05681
C_ C_ 0.672922 0.657668 0.719 0.44287
C_ C_ 0.579733 0.675074 0.7117 0.44287
C_ C_ 0.612075 0.648456 0.758335 0.18498
C_ C_ 0.58773 0.603534 0.7647 -0.08735
C_ C_ 0.576881 0.590827 0.79343 -0.08735
C_ C_ 0.590929 0.622588 0.815545 -0.08735
C_ C_ 0.61656 0.668631 0.809485 0.18498
C_ C_ 0.626835 0.682628 0.78036 -0.05681
C_ C_ 0.651673 0.72942 0.77514 -0.08735
C_ C_ 0.666278 0.759335 0.79786 -0.08735
C_ C_ 0.655977 0.742695 0.825925 0.1947
C_ C_ 0.769155 0.813063 0.653185 0.68181
C_ C_ 0.712729 0.816188 0.649735 -0.05681
C_ C_ 0.681271 0.81412 0.673455 -0.08735
C_ C_ 0.628131 0.818645 0.67058 -0.05681
C_ C_ 0.606994 0.826012 0.642505 -0.05681
C_ C_ 0.640132 0.827928 0.61852 -0.08735
C_ C_ 0.691647 0.822929 0.622035 -0.08735
C_ C_ 0.594807 0.8163 0.694485 -0.08735
C_ C_ 0.54325 0.820909 0.69098 -0.08735
C_ C_ 0.522318 0.827602 0.66322 -0.05681
C_ C_ 0.553866 0.830086 0.63954 -0.08735
C_ C_ 0.876417 0.723561 0.66227 0.68181
C_ C_ 0.859998 0.920449 0.650895 0.68181
C_ C_ 0.862283 0.9771 0.64819 -0.05681
C_ C_ 0.862909 0.507186 0.672485 -0.08735
C_ C_ 0.866998 0.560528 0.670485 -0.05681
C_ C_ 0.870324 0.583477 0.64261 -0.05681
C_ C_ 0.868791 0.551772 0.617995 -0.08735
C_ C_ 0.864961 0.999974 0.62067 -0.08735
C_ C_ 0.868177 0.592261 0.69509 -0.08735
C_ C_ 0.87202 0.644072 0.692465 -0.08735
C_ C_ 0.875041 0.666895 0.664935 -0.05681
C_ C_ 0.874609 0.636812 0.640615 -0.08735
C_ C_ 0.965904 0.830363 0.659585 0.68181
C_ C_ 0.886687 0.880472 0.739605 0.1947
C_ C_ 0.892645 0.894243 0.768525 -0.08735
C_ C_ 0.872425 0.863389 0.78945 -0.08735
C_ C_ 0.845653 0.818926 0.78156 -0.05681
C_ C_ 0.839585 0.808117 0.7516 0.18498
C_ C_ 0.811259 0.764976 0.74296 -0.08735
C_ C_ 0.790496 0.733005 0.76325 -0.08735
C_ C_ 0.797568 0.742394 0.79279 -0.08735
C_ C_ 0.824578 0.784295 0.80173 0.18498
C_ C_ 0.79083 0.808146 0.8487 0.44287
C_ C_ 0.882623 0.784365 0.84232 0.44287
C_ C_ 0.891466 0.795933 0.87284 -0.05681
C_ C_ 0.940232 0.792094 0.88395 -0.08735
C_ C_ 0.949323 0.80189 0.913045 -0.08735
C_ C_ 0.909612 0.814905 0.93114 -0.05681
C_ C_ 0.859571 0.818862 0.92037 -0.05681
C_ C_ 0.850476 0.809768 0.8907 -0.05681
C_ C_ 0.800703 0.814845 0.879705 -0.05681
C_ C_ 0.760981 0.82747 0.89786 -0.08735
C_ C_ 0.769717 0.835661 0.927 -0.08735
C_ C_ 0.818407 0.83185 0.93839 -0.05681
C_ C_ 0.82709 0.842312 0.969155 0.44287
C_ C_ 0.920279 0.824909 0.96172 0.44287
C_ C_ 0.887946 0.851522 0.508345 0.18498
C_ C_ 0.912293 0.896444 0.5147 -0.08735
C_ C_ 0.923147 0.909146 0.54345 -0.08735
C_ C_ 0.9091 0.877385 0.56556 -0.08735
C_ C_ 0.883464 0.831344 0.559495 0.18498
C_ C_ 0.873188 0.817348 0.53037 -0.05681
C_ C_ 0.848352 0.770556 0.525145 -0.08735
C_ C_ 0.833748 0.740638 0.547855 -0.08735
C_ C_ 0.844047 0.757279 0.575925 0.1947
N_ N_ 0.638852 0.6607 0.98131 -0.29468
N_ N_ 0.667269 0.706836 0.581895 -0.17154
N_ N_ 0.622203 0.661098 0.728775 -0.17154
N_ N_ 0.631791 0.699409 0.83171 -0.29468
N_ N_ 0.861144 0.839301 0.731315 -0.29468
N_ N_ 0.832744 0.79316 0.83189 -0.17154
N_ N_ 0.87781 0.838878 0.97878 -0.17154
N_ N_ 0.868233 0.800566 0.581715 -0.29468
O_ O_ 0.713536 0.684445 0.92864 -0.58347
O_ O_ 0.7049 0.691325 0.880355 -0.58347
O_ O_ 0.628912 0.751331 0.93534 -0.58347
O_ O_ 0.618078 0.757911 0.887265 -0.58347
O_ O_ 0.643825 0.597868 0.92604 -0.58347
O_ O_ 0.63747 0.604825 0.877665 -0.58347
O_ O_ 0.560141 0.666657 0.93246 -0.58347
O_ O_ 0.551236 0.67107 0.88403 -0.58347
O_ O_ 0.584358 0.731083 0.576145 -0.46727
O_ O_ 0.75072 0.684481 0.5876 -0.46727
O_ O_ 0.537531 0.678004 0.72244 -0.46727
O_ O_ 0.706942 0.646565 0.735955 -0.46727
O_ O_ 0.786474 0.81555 0.678645 -0.58347
O_ O_ 0.795111 0.808666 0.63036 -0.58347
O_ O_ 0.871098 0.748669 0.685345 -0.58347
O_ O_ 0.881931 0.742077 0.63727 -0.58347
O_ O_ 0.856184 0.902129 0.676045 -0.58347
O_ O_ 0.862541 0.895158 0.62765 -0.58347
O_ O_ 0.939867 0.833337 0.682465 -0.58347
O_ O_ 0.948776 0.82892 0.634035 -0.58347
O_ O_ 0.915654 0.768911 0.82614 -0.46727
O_ O_ 0.749294 0.815514 0.83761 -0.46727
O_ O_ 0.962483 0.821984 0.97244 -0.46727
O_ O_ 0.793072 0.853419 0.985965 -0.46727
_cell_length_a 26.376
_cell_length_b 26.400000238300095
_cell_length_c 46.67800035477134
_cell_angle_alpha 90.00700052986613
_cell_angle_beta 89.99899961309502
_cell_angle_gamma 90.45000003183146
_symmetry_space_group_name_H-M         'P 1'
_symmetry_Int_Tables_number            1
loop_
_symmetry_equiv_pos_as_xyz
   'x, y, z'
                         
loop_
_atom_site_label
_atom_site_type_symbol
_atom_site_fract_x 
_atom_site_fract_y
_atom_site_fract_z
_atom_site_charge
Zn Zn 0.126821 0.182297 0.375185 0.90689
Zn Zn 0.137892 0.173646 0.437315 0.90689
Zn Zn 0.37319 0.317691 0.12519 0.90689
Zn Zn 0.362116 0.326351 0.18732 0.90689
H_ H_ 0.301795 0.190478 0.444595 0.11455
H_ H_ 0.376151 0.166743 0.34724 0.11455
H_ H_ 0.282442 0.175244 0.353905 0.11455
H_ H_ 0.38915 0.189262 0.465805 0.11455
H_ H_ 0.482564 0.181309 0.45914 0.11455
H_ H_ 0.46286 0.165441 0.36833 0.11455
H_ H_ 0.139699 0.0108695 0.44344 0.11455
H_ H_ 0.12938 0.430588 0.34685 0.11455
H_ H_ 0.136235 0.0244964 0.351905 0.11455
H_ H_ 0.134169 0.425258 0.466235 0.11455
H_ H_ 0.12713 0.331463 0.461235 0.11455
H_ H_ 0.122958 0.345137 0.369635 0.11455
H_ H_ 0.0971161 0.0965564 0.472415 0.11455
H_ H_ 0.086608 0.0712414 0.02391 0.11455
H_ H_ 0.123131 0.127062 0.0620151 0.11455
H_ H_ 0.193302 0.242475 0.47015 0.11455
H_ H_ 0.231444 0.300091 0.00650006 0.11455
H_ H_ 0.218498 0.283398 0.058645 0.11455
H_ H_ 0.0290009 0.219031 0.11982 0.11455
H_ H_ 0.0126601 0.200985 0.171955 0.11455
H_ H_ 0.276984 0.168781 0.13902 0.11455
H_ H_ 0.261479 0.154211 0.191265 0.11455
H_ H_ 0.076683 0.0780963 0.247375 0.11455
H_ H_ 0.0573273 0.0552634 0.29812 0.11455
H_ H_ 0.0833504 0.112638 0.337775 0.11455
H_ H_ 0.159667 0.241075 0.253205 0.11455
H_ H_ 0.186731 0.2949 0.29492 0.11455
H_ H_ 0.168093 0.265118 0.34428 0.11455
H_ H_ 0.198213 0.309523 0.1945 0.11455
H_ H_ 0.123863 0.333239 0.097245 0.11455
H_ H_ 0.217572 0.324742 0.10391 0.11455
H_ H_ 0.110857 0.310743 0.21581 0.11455
H_ H_ 0.0174431 0.318693 0.209145 0.11455
H_ H_ 0.037153 0.334543 0.118335 0.11455
H_ H_ 0.360306 0.489142 0.193445 0.11455
H_ H_ 0.370636 0.0693719 0.096855 0.11455
H_ H_ 0.36378 0.475467 0.1019 0.11455
H_ H_ 0.365835 0.0747645 0.21624 0.11455
H_ H_ 0.372876 0.168557 0.21124 0.11455
H_ H_ 0.377055 0.154836 0.119635 0.11455
H_ H_ 0.402869 0.403452 0.222435 0.11455
H_ H_ 0.413377 0.428773 0.27392 0.11455
H_ H_ 0.376867 0.372945 0.31202 0.11455
H_ H_ 0.306704 0.257518 0.220185 0.11455
H_ H_ 0.268578 0.1999 0.256525 0.11455
H_ H_ 0.281527 0.216593 0.30863 0.11455
H_ H_ 0.471009 0.280959 0.369815 0.11455
H_ H_ 0.487351 0.299001 0.42195 0.11455
H_ H_ 0.223025 0.331201 0.38903 0.11455
H_ H_ 0.238531 0.345763 0.441275 0.11455
H_ H_ 0.423334 0.421878 0.49739 0.11455
H_ H_ 0.442703 0.444708 0.048145 0.11455
H_ H_ 0.416683 0.387332 0.08779 0.11455
H_ H_ 0.340358 0.258901 0.00320494 0.11455
H_ H_ 0.313297 0.205073 0.0449149 0.11455
H_ H_ 0.331932 0.234856 0.09428 0.11455
C_ C_ 0.230856 0.18693 0.40318 0.68181
C_ C_ 0.287282 0.183805 0.39973 -0.05681
C_ C_ 0.318738 0.185877 0.42345 -0.08735
C_ C_ 0.371879 0.181351 0.420575 -0.05681
C_ C_ 0.393018 0.173978 0.3925 -0.05681
C_ C_ 0.35988 0.172059 0.368515 -0.08735
C_ C_ 0.308366 0.17706 0.37203 -0.08735
C_ C_ 0.4052 0.1837 0.44448 -0.08735
C_ C_ 0.456758 0.17909 0.440975 -0.08735
C_ C_ 0.477693 0.172392 0.413215 -0.05681
C_ C_ 0.446145 0.169902 0.389535 -0.08735
C_ C_ 0.123593 0.276433 0.41227 0.68181
C_ C_ 0.140012 0.0795401 0.40089 0.68181
C_ C_ 0.137726 0.0228881 0.398185 -0.05681
C_ C_ 0.137098 0.492814 0.42248 -0.08735
C_ C_ 0.13301 0.439471 0.42048 -0.05681
C_ C_ 0.129688 0.416507 0.392605 -0.05681
C_ C_ 0.131222 0.448199 0.36799 -0.08735
C_ C_ 0.135051 0.499999 0.370665 -0.08735
C_ C_ 0.131829 0.407751 0.44505 -0.08735
C_ C_ 0.127987 0.355939 0.442465 -0.08735
C_ C_ 0.124968 0.333101 0.414935 -0.05681
C_ C_ 0.125402 0.36317 0.39061 -0.08735
C_ C_ 0.0341067 0.16963 0.40958 0.68181
C_ C_ 0.113301 0.119533 0.48959 0.1947
C_ C_ 0.107346 0.105767 0.0185149 -0.08735
C_ C_ 0.127573 0.136618 0.0394449 -0.08735
C_ C_ 0.154353 0.181076 0.03155 -0.05681
C_ C_ 0.160416 0.191881 1.0 0.18498
C_ C_ 0.188748 0.235018 0.49296 -0.08735
C_ C_ 0.209521 0.266989 0.0132499 -0.08735
C_ C_ 0.202451 0.257599 0.0428 -0.08735
C_ C_ 0.175435 0.215703 0.0517351 0.18498
C_ C_ 0.209181 0.191848 0.0987 0.44287
C_ C_ 0.117389 0.215628 0.0923199 0.44287
C_ C_ 0.108544 0.204057 0.122845 -0.05681
C_ C_ 0.0597788 0.207894 0.133975 -0.08735
C_ C_ 0.0506882 0.198097 0.163045 -0.08735
C_ C_ 0.0903984 0.185079 0.18114 -0.05681
C_ C_ 0.140439 0.181122 0.17037 -0.05681
C_ C_ 0.149534 0.19022 0.1407 -0.05681
C_ C_ 0.199307 0.185143 0.1297 -0.05681
C_ C_ 0.239029 0.172512 0.147855 -0.08735
C_ C_ 0.230294 0.164318 0.17714 -0.08735
C_ C_ 0.181604 0.16813 0.188385 -0.05681
C_ C_ 0.172922 0.157668 0.219 0.44287
C_ C_ 0.079733 0.175073 0.2117 0.44287
C_ C_ 0.112075 0.148456 0.258335 0.18498
C_ C_ 0.0877302 0.103533 0.2647 -0.08735
C_ C_ 0.076881 0.0908271 0.29343 -0.08735
C_ C_ 0.0909285 0.122587 0.315545 -0.08735
C_ C_ 0.116561 0.16863 0.309485 0.18498
C_ C_ 0.126835 0.182628 0.28036 -0.05681
C_ C_ 0.151673 0.229419 0.27514 -0.08735
C_ C_ 0.166278 0.259335 0.29786 -0.08735
C_ C_ 0.155978 0.242695 0.325925 0.1947
C_ C_ 0.269154 0.313062 0.153185 0.68181
C_ C_ 0.212729 0.316188 0.149735 -0.05681
C_ C_ 0.181271 0.314121 0.173455 -0.08735
C_ C_ 0.128131 0.318645 0.17058 -0.05681
C_ C_ 0.106993 0.326012 0.142505 -0.05681
C_ C_ 0.140132 0.327927 0.11852 -0.08735
C_ C_ 0.191647 0.322928 0.122035 -0.08735
C_ C_ 0.0948076 0.316301 0.194485 -0.08735
C_ C_ 0.04325 0.320909 0.19098 -0.08735
C_ C_ 0.0223174 0.327601 0.16322 -0.05681
C_ C_ 0.0538659 0.330087 0.13954 -0.08735
C_ C_ 0.376418 0.223561 0.16227 0.68181
C_ C_ 0.359998 0.420449 0.150895 0.68181
C_ C_ 0.362284 0.4771 0.14819 -0.05681
C_ C_ 0.362909 0.00718593 0.172485 -0.08735
C_ C_ 0.366998 0.0605277 0.170485 -0.05681
C_ C_ 0.370323 0.0834769 0.14261 -0.05681
C_ C_ 0.368792 0.0517725 0.117995 -0.08735
C_ C_ 0.364962 0.499974 0.12067 -0.08735
C_ C_ 0.368177 0.0922605 0.19509 -0.08735
C_ C_ 0.372021 0.144071 0.192465 -0.08735
C_ C_ 0.375041 0.166895 0.164935 -0.05681
C_ C_ 0.374609 0.136813 0.140615 -0.08735
C_ C_ 0.465903 0.330362 0.159585 0.68181
C_ C_ 0.386687 0.380473 0.239605 0.1947
C_ C_ 0.392645 0.394243 0.268525 -0.08735
C_ C_ 0.372425 0.363388 0.28945 -0.08735
C_ C_ 0.345653 0.318927 0.28156 -0.05681
C_ C_ 0.339585 0.308117 0.2516 0.18498
C_ C_ 0.31126 0.264975 0.24296 -0.08735
C_ C_ 0.290497 0.233005 0.26325 -0.08735
C_ C_ 0.297568 0.242394 0.29279 -0.08735
C_ C_ 0.324578 0.284295 0.30173 0.18498
C_ C_ 0.290831 0.308146 0.3487 0.44287
C_ C_ 0.382623 0.284366 0.34232 0.44287
C_ C_ 0.391466 0.295932 0.37284 -0.05681
C_ C_ 0.440232 0.292095 0.38395 -0.08735
C_ C_ 0.449323 0.301889 0.413045 -0.08735
C_ C_ 0.409613 0.314905 0.43114 -0.05681
C_ C_ 0.359571 0.318862 0.42037 -0.05681
C_ C_ 0.350477 0.309767 0.3907 -0.05681
C_ C_ 0.300703 0.314845 0.379705 -0.05681
C_ C_ 0.260981 0.327471 0.39786 -0.08735
C_ C_ 0.269716 0.33566 0.427 -0.08735
C_ C_ 0.318406 0.33185 0.43839 -0.05681
C_ C_ 0.327091 0.342312 0.469155 0.44287
C_ C_ 0.420279 0.32491 0.46172 0.44287
C_ C_ 0.387945 0.351522 0.00834504 0.18498
C_ C_ 0.412293 0.396443 0.0147001 -0.08735
C_ C_ 0.423146 0.409147 0.04345 -0.08735
C_ C_ 0.409099 0.377385 0.06556 -0.08735
C_ C_ 0.383465 0.331344 0.0594951 0.18498
C_ C_ 0.373188 0.317348 0.03037 -0.05681
C_ C_ 0.348351 0.270556 0.025145 -0.08735
C_ C_ 0.333748 0.240639 0.0478551 -0.08735
C_ C_ 0.344047 0.25728 0.0759251 0.1947
N_ N_ 0.138852 0.1607 0.48131 -0.29468
N_ N_ 0.167269 0.206837 0.0818949 -0.17154
N_ N_ 0.122203 0.161099 0.228775 -0.17154
N_ N_ 0.131792 0.199408 0.33171 -0.29468
N_ N_ 0.361144 0.339301 0.231315 -0.29468
N_ N_ 0.332744 0.293159 0.33189 -0.17154
N_ N_ 0.37781 0.338878 0.47878 -0.17154
N_ N_ 0.368233 0.300566 0.0817149 -0.29468
O_ O_ 0.213536 0.184444 0.42864 -0.58347
O_ O_ 0.204901 0.191325 0.380355 -0.58347
O_ O_ 0.128913 0.251331 0.43534 -0.58347
O_ O_ 0.118078 0.257912 0.387265 -0.58347
O_ O_ 0.143824 0.0978677 0.42604 -0.58347
O_ O_ 0.13747 0.104826 0.377665 -0.58347
O_ O_ 0.0601411 0.166656 0.43246 -0.58347
O_ O_ 0.0512355 0.17107 0.38403 -0.58347
O_ O_ 0.0843586 0.231083 0.0761451 -0.46727
O_ O_ 0.25072 0.184481 0.0875999 -0.46727
O_ O_ 0.0375313 0.178005 0.22244 -0.46727
O_ O_ 0.206943 0.146565 0.235955 -0.46727
O_ O_ 0.286474 0.315549 0.178645 -0.58347
O_ O_ 0.295111 0.308666 0.13036 -0.58347
O_ O_ 0.371098 0.248669 0.185345 -0.58347
O_ O_ 0.381931 0.242077 0.13727 -0.58347
O_ O_ 0.356185 0.402128 0.176045 -0.58347
O_ O_ 0.362542 0.395158 0.12765 -0.58347
O_ O_ 0.439868 0.333338 0.182465 -0.58347
O_ O_ 0.448776 0.328921 0.134035 -0.58347
O_ O_ 0.415654 0.268911 0.32614 -0.46727
O_ O_ 0.249293 0.315514 0.33761 -0.46727
O_ O_ 0.462482 0.321983 0.47244 -0.46727
O_ O_ 0.293072 0.353419 0.485965 -0.46727
Zn Zn 0.126822 0.182297 0.875185 0.90689
Zn Zn 0.137892 0.173646 0.937315 0.90689
Zn Zn 0.37319 0.317691 0.62519 0.90689
Zn Zn 0.362117 0.326351 0.68732 0.90689
H_ H_ 0.301795 0.190478 0.944595 0.11455
H_ H_ 0.376151 0.166744 0.84724 0.11455
H_ H_ 0.282442 0.175243 0.853905 0.11455
H_ H_ 0.38915 0.189262 0.965805 0.11455
H_ H_ 0.482564 0.181309 0.95914 0.11455
H_ H_ 0.46286 0.165441 0.86833 0.11455
H_ H_ 0.1397 0.0108695 0.94344 0.11455
H_ H_ 0.129379 0.430588 0.84685 0.11455
H_ H_ 0.136235 0.0244963 0.851905 0.11455
H_ H_ 0.134169 0.425258 0.966235 0.11455
H_ H_ 0.12713 0.331463 0.961235 0.11455
H_ H_ 0.122958 0.345137 0.869635 0.11455
H_ H_ 0.0971159 0.0965564 0.972415 0.11455
H_ H_ 0.0866081 0.0712414 0.52391 0.11455
H_ H_ 0.12313 0.127062 0.562015 0.11455
H_ H_ 0.193302 0.242475 0.97015 0.11455
H_ H_ 0.231444 0.300091 0.5065 0.11455
H_ H_ 0.218498 0.283398 0.558645 0.11455
H_ H_ 0.029001 0.219031 0.61982 0.11455
H_ H_ 0.0126598 0.200985 0.671955 0.11455
H_ H_ 0.276985 0.168781 0.63902 0.11455
H_ H_ 0.261479 0.154211 0.691265 0.11455
H_ H_ 0.0766831 0.0780966 0.747375 0.11455
H_ H_ 0.0573274 0.0552633 0.79812 0.11455
H_ H_ 0.0833505 0.112638 0.837775 0.11455
H_ H_ 0.159667 0.241075 0.753205 0.11455
H_ H_ 0.186731 0.2949 0.79492 0.11455
H_ H_ 0.168093 0.265118 0.84428 0.11455
H_ H_ 0.198213 0.309523 0.6945 0.11455
H_ H_ 0.123863 0.333239 0.597245 0.11455
H_ H_ 0.217572 0.324741 0.60391 0.11455
H_ H_ 0.110856 0.310743 0.71581 0.11455
H_ H_ 0.0174432 0.318693 0.709145 0.11455
H_ H_ 0.0371531 0.334543 0.618335 0.11455
H_ H_ 0.360307 0.489142 0.693445 0.11455
H_ H_ 0.370635 0.0693718 0.596855 0.11455
H_ H_ 0.363779 0.475467 0.6019 0.11455
H_ H_ 0.365835 0.0747644 0.71624 0.11455
H_ H_ 0.372876 0.168557 0.71124 0.11455
H_ H_ 0.377055 0.154836 0.619635 0.11455
H_ H_ 0.402869 0.403452 0.722435 0.11455
H_ H_ 0.413377 0.428773 0.77392 0.11455
H_ H_ 0.376867 0.372945 0.81202 0.11455
H_ H_ 0.306704 0.257519 0.720185 0.11455
H_ H_ 0.268578 0.1999 0.756525 0.11455
H_ H_ 0.281526 0.216593 0.80863 0.11455
H_ H_ 0.471009 0.280958 0.869815 0.11455
H_ H_ 0.487351 0.299001 0.92195 0.11455
H_ H_ 0.223025 0.331202 0.88903 0.11455
H_ H_ 0.238531 0.345763 0.941275 0.11455
H_ H_ 0.423334 0.421877 -0.002610000000000001 0.11455
H_ H_ 0.442703 0.444708 0.548145 0.11455
H_ H_ 0.416683 0.387332 0.58779 0.11455
H_ H_ 0.340358 0.258901 0.503205 0.11455
H_ H_ 0.313297 0.205073 0.544915 0.11455
H_ H_ 0.331931 0.234857 0.59428 0.11455
C_ C_ 0.230856 0.186929 0.90318 0.68181
C_ C_ 0.287282 0.183805 0.89973 -0.05681
C_ C_ 0.318739 0.185877 0.92345 -0.08735
C_ C_ 0.371879 0.18135 0.920575 -0.05681
C_ C_ 0.393018 0.173979 0.8925 -0.05681
C_ C_ 0.35988 0.172059 0.868515 -0.08735
C_ C_ 0.308366 0.17706 0.87203 -0.08735
C_ C_ 0.405201 0.1837 0.94448 -0.08735
C_ C_ 0.456758 0.17909 0.940975 -0.08735
C_ C_ 0.477693 0.172392 0.913215 -0.05681
C_ C_ 0.446145 0.169902 0.889535 -0.08735
C_ C_ 0.123592 0.276433 0.91227 0.68181
C_ C_ 0.140012 0.07954 0.90089 0.68181
C_ C_ 0.137726 0.0228881 0.898185 -0.05681
C_ C_ 0.137098 0.492814 0.92248 -0.08735
C_ C_ 0.13301 0.439472 0.92048 -0.05681
C_ C_ 0.129687 0.416507 0.892605 -0.05681
C_ C_ 0.131221 0.448199 0.86799 -0.08735
C_ C_ 0.135051 0.499999 0.870665 -0.08735
C_ C_ 0.131829 0.407751 0.94505 -0.08735
C_ C_ 0.127987 0.355939 0.942465 -0.08735
C_ C_ 0.124969 0.333101 0.914935 -0.05681
C_ C_ 0.125402 0.36317 0.89061 -0.08735
C_ C_ 0.0341064 0.169631 0.90958 0.68181
C_ C_ 0.113301 0.119533 0.98959 0.1947
C_ C_ 0.107346 0.105767 0.518515 -0.08735
C_ C_ 0.127573 0.136618 0.539445 -0.08735
C_ C_ 0.154353 0.181076 0.53155 -0.05681
C_ C_ 0.160417 0.19188 0.5 0.18498
C_ C_ 0.188748 0.235018 0.99296 -0.08735
C_ C_ 0.209522 0.266989 0.51325 -0.08735
C_ C_ 0.202451 0.257599 0.5428 -0.08735
C_ C_ 0.175435 0.215703 0.551735 0.18498
C_ C_ 0.209181 0.191848 0.5987 0.44287
C_ C_ 0.117389 0.215628 0.59232 0.44287
C_ C_ 0.108545 0.204057 0.622845 -0.05681
C_ C_ 0.0597789 0.207894 0.633975 -0.08735
C_ C_ 0.0506879 0.198097 0.663045 -0.08735
C_ C_ 0.0903985 0.185079 0.68114 -0.05681
C_ C_ 0.140439 0.181121 0.67037 -0.05681
C_ C_ 0.149534 0.19022 0.6407 -0.05681
C_ C_ 0.199306 0.185143 0.6297 -0.05681
C_ C_ 0.239029 0.172512 0.647855 -0.08735
C_ C_ 0.230294 0.164317 0.67714 -0.08735
C_ C_ 0.181604 0.16813 0.688385 -0.05681
C_ C_ 0.172922 0.157668 0.719 0.44287
C_ C_ 0.0797331 0.175073 0.7117 0.44287
C_ C_ 0.112075 0.148456 0.758335 0.18498
C_ C_ 0.0877299 0.103533 0.7647 -0.08735
C_ C_ 0.0768811 0.090827 0.79343 -0.08735
C_ C_ 0.0909286 0.122587 0.815545 -0.08735
C_ C_ 0.11656 0.168631 0.809485 0.18498
C_ C_ 0.126835 0.182628 0.78036 -0.05681
C_ C_ 0.151673 0.229419 0.77514 -0.08735
C_ C_ 0.166278 0.259335 0.79786 -0.08735
C_ C_ 0.155977 0.242695 0.825925 0.1947
C_ C_ 0.269154 0.313062 0.653185 0.68181
C_ C_ 0.212729 0.316188 0.649735 -0.05681
C_ C_ 0.181271 0.314121 0.673455 -0.08735
C_ C_ 0.128131 0.318645 0.67058 -0.05681
C_ C_ 0.106994 0.326012 0.642505 -0.05681
C_ C_ 0.140132 0.327928 0.61852 -0.08735
C_ C_ 0.191647 0.322929 0.622035 -0.08735
C_ C_ 0.0948077 0.316301 0.694485 -0.08735
C_ C_ 0.0432501 0.320909 0.69098 -0.08735
C_ C_ 0.0223175 0.327601 0.66322 -0.05681
C_ C_ 0.053866 0.330086 0.63954 -0.08735
C_ C_ 0.376417 0.223561 0.66227 0.68181
C_ C_ 0.359998 0.420449 0.650895 0.68181
C_ C_ 0.362283 0.4771 0.64819 -0.05681
C_ C_ 0.362909 0.00718587 0.672485 -0.08735
C_ C_ 0.366998 0.0605276 0.670485 -0.05681
C_ C_ 0.370324 0.0834769 0.64261 -0.05681
C_ C_ 0.368791 0.0517725 0.617995 -0.08735
C_ C_ 0.364961 0.499974 0.62067 -0.08735
C_ C_ 0.368177 0.0922604 0.69509 -0.08735
C_ C_ 0.37202 0.144072 0.692465 -0.08735
C_ C_ 0.375041 0.166895 0.664935 -0.05681
C_ C_ 0.374609 0.136813 0.640615 -0.08735
C_ C_ 0.465904 0.330362 0.659585 0.68181
C_ C_ 0.386687 0.380472 0.739605 0.1947
C_ C_ 0.392645 0.394243 0.768525 -0.08735
C_ C_ 0.372425 0.363388 0.78945 -0.08735
C_ C_ 0.345653 0.318927 0.78156 -0.05681
C_ C_ 0.339585 0.308117 0.7516 0.18498
C_ C_ 0.31126 0.264976 0.74296 -0.08735
C_ C_ 0.290497 0.233005 0.76325 -0.08735
C_ C_ 0.297568 0.242394 0.79279 -0.08735
C_ C_ 0.324578 0.284295 0.80173 0.18498
C_ C_ 0.29083 0.308146 0.8487 0.44287
C_ C_ 0.382623 0.284366 0.84232 0.44287
C_ C_ 0.391466 0.295932 0.87284 -0.05681
C_ C_ 0.440232 0.292094 0.88395 -0.08735
C_ C_ 0.449323 0.30189 0.913045 -0.08735
C_ C_ 0.409612 0.314905 0.93114 -0.05681
C_ C_ 0.359571 0.318862 0.92037 -0.05681
C_ C_ 0.350477 0.309768 0.8907 -0.05681
C_ C_ 0.300703 0.314845 0.879705 -0.05681
C_ C_ 0.260981 0.327471 0.89786 -0.08735
C_ C_ 0.269716 0.33566 0.927 -0.08735
C_ C_ 0.318407 0.33185 0.93839 -0.05681
C_ C_ 0.32709 0.342312 0.969155 0.44287
C_ C_ 0.420279 0.32491 0.96172 0.44287
C_ C_ 0.387946 0.351522 0.508345 0.18498
C_ C_ 0.412293 0.396443 0.5147 -0.08735
C_ C_ 0.423146 0.409147 0.54345 -0.08735
C_ C_ 0.409099 0.377385 0.56556 -0.08735
C_ C_ 0.383464 0.331344 0.559495 0.18498
C_ C_ 0.373188 0.317348 0.53037 -0.05681
C_ C_ 0.348352 0.270556 0.525145 -0.08735
C_ C_ 0.333748 0.240639 0.547855 -0.08735
C_ C_ 0.344047 0.25728 0.575925 0.1947
N_ N_ 0.138852 0.1607 0.98131 -0.29468
N_ N_ 0.167269 0.206836 0.581895 -0.17154
N_ N_ 0.122203 0.161099 0.728775 -0.17154
N_ N_ 0.131791 0.199408 0.83171 -0.29468
N_ N_ 0.361144 0.339301 0.731315 -0.29468
N_ N_ 0.332744 0.293159 0.83189 -0.17154
N_ N_ 0.37781 0.338878 0.97878 -0.17154
N_ N_ 0.368233 0.300566 0.581715 -0.29468
O_ O_ 0.213536 0.184444 0.92864 -0.58347
O_ O_ 0.2049 0.191325 0.880355 -0.58347
O_ O_ 0.128913 0.251331 0.93534 -0.58347
O_ O_ 0.118078 0.257912 0.887265 -0.58347
O_ O_ 0.143825 0.0978676 0.92604 -0.58347
O_ O_ 0.13747 0.104826 0.877665 -0.58347
O_ O_ 0.0601409 0.166656 0.93246 -0.58347
O_ O_ 0.0512356 0.17107 0.88403 -0.58347
O_ O_ 0.0843587 0.231083 0.576145 -0.46727
O_ O_ 0.25072 0.184481 0.5876 -0.46727
O_ O_ 0.0375314 0.178005 0.72244 -0.46727
O_ O_ 0.206943 0.146565 0.735955 -0.46727
O_ O_ 0.286474 0.315549 0.678645 -0.58347
O_ O_ 0.295111 0.308666 0.63036 -0.58347
O_ O_ 0.371098 0.248669 0.685345 -0.58347
O_ O_ 0.381931 0.242077 0.63727 -0.58347
O_ O_ 0.356184 0.402128 0.676045 -0.58347
O_ O_ 0.362541 0.395158 0.62765 -0.58347
O_ O_ 0.439868 0.333337 0.682465 -0.58347
O_ O_ 0.448776 0.32892 0.634035 -0.58347
O_ O_ 0.415654 0.268911 0.82614 -0.46727
O_ O_ 0.249294 0.315514 0.83761 -0.46727
O_ O_ 0.462483 0.321983 0.97244 -0.46727
O_ O_ 0.293072 0.353419 0.985965 -0.46727
Zn Zn 0.126821 0.682297 0.375185 0.90689
Zn Zn 0.137892 0.673646 0.437315 0.90689
Zn Zn 0.37319 0.81769 0.12519 0.90689
Zn Zn 0.362117 0.826351 0.18732 0.90689
H_ H_ 0.301795 0.690478 0.444595 0.11455
H_ H_ 0.376151 0.666744 0.34724 0.11455
H_ H_ 0.282442 0.675243 0.353905 0.11455
H_ H_ 0.38915 0.689262 0.465805 0.11455
H_ H_ 0.482564 0.681309 0.45914 0.11455
H_ H_ 0.46286 0.665441 0.36833 0.11455
H_ H_ 0.139699 0.510869 0.44344 0.11455
H_ H_ 0.12938 0.930588 0.34685 0.11455
H_ H_ 0.136235 0.524497 0.351905 0.11455
H_ H_ 0.134169 0.925259 0.466235 0.11455
H_ H_ 0.12713 0.831463 0.461235 0.11455
H_ H_ 0.122958 0.845137 0.369635 0.11455
H_ H_ 0.0971158 0.596556 0.472415 0.11455
H_ H_ 0.086608 0.571241 0.02391 0.11455
H_ H_ 0.12313 0.627062 0.0620151 0.11455
H_ H_ 0.193302 0.742475 0.47015 0.11455
H_ H_ 0.231444 0.80009 0.00650006 0.11455
H_ H_ 0.218498 0.783398 0.058645 0.11455
H_ H_ 0.0290009 0.719031 0.11982 0.11455
H_ H_ 0.0126602 0.700985 0.171955 0.11455
H_ H_ 0.276985 0.668781 0.13902 0.11455
H_ H_ 0.261479 0.654211 0.191265 0.11455
H_ H_ 0.0766831 0.578097 0.247375 0.11455
H_ H_ 0.0573274 0.555264 0.29812 0.11455
H_ H_ 0.0833504 0.612638 0.337775 0.11455
H_ H_ 0.159667 0.741074 0.253205 0.11455
H_ H_ 0.186731 0.7949 0.29492 0.11455
H_ H_ 0.168093 0.765118 0.34428 0.11455
H_ H_ 0.198213 0.809523 0.1945 0.11455
H_ H_ 0.123863 0.833239 0.097245 0.11455
H_ H_ 0.217572 0.824741 0.10391 0.11455
H_ H_ 0.110856 0.810743 0.21581 0.11455
H_ H_ 0.0174431 0.818693 0.209145 0.11455
H_ H_ 0.0371531 0.834543 0.118335 0.11455
H_ H_ 0.360306 0.989142 0.193445 0.11455
H_ H_ 0.370636 0.569372 0.096855 0.11455
H_ H_ 0.363779 0.975466 0.1019 0.11455
H_ H_ 0.365835 0.574764 0.21624 0.11455
H_ H_ 0.372876 0.668557 0.21124 0.11455
H_ H_ 0.377055 0.654836 0.119635 0.11455
H_ H_ 0.402869 0.903452 0.222435 0.11455
H_ H_ 0.413377 0.928773 0.27392 0.11455
H_ H_ 0.376867 0.872945 0.31202 0.11455
H_ H_ 0.306704 0.757519 0.220185 0.11455
H_ H_ 0.268578 0.6999 0.256525 0.11455
H_ H_ 0.281526 0.716592 0.30863 0.11455
H_ H_ 0.471009 0.780958 0.369815 0.11455
H_ H_ 0.487351 0.799002 0.42195 0.11455
H_ H_ 0.223025 0.831202 0.38903 0.11455
H_ H_ 0.238531 0.845763 0.441275 0.11455
H_ H_ 0.423334 0.921877 0.49739 0.11455
H_ H_ 0.442703 0.944708 0.048145 0.11455
H_ H_ 0.416683 0.887332 0.08779 0.11455
H_ H_ 0.340358 0.758901 0.00320494 0.11455
H_ H_ 0.313297 0.705073 0.0449149 0.11455
H_ H_ 0.331931 0.734857 0.09428 0.11455
C_ C_ 0.230856 0.686929 0.40318 0.68181
C_ C_ 0.287282 0.683805 0.39973 -0.05681
C_ C_ 0.318738 0.685877 0.42345 -0.08735
C_ C_ 0.371879 0.68135 0.420575 -0.05681
C_ C_ 0.393018 0.673979 0.3925 -0.05681
C_ C_ 0.35988 0.672059 0.368515 -0.08735
C_ C_ 0.308366 0.67706 0.37203 -0.08735
C_ C_ 0.4052 0.6837 0.44448 -0.08735
C_ C_ 0.456758 0.67909 0.440975 -0.08735
C_ C_ 0.477693 0.672392 0.413215 -0.05681
C_ C_ 0.446145 0.669902 0.389535 -0.08735
C_ C_ 0.123592 0.776433 0.41227 0.68181
C_ C_ 0.140012 0.57954 0.40089 0.68181
C_ C_ 0.137726 0.522888 0.398185 -0.05681
C_ C_ 0.137098 0.992814 0.42248 -0.08735
C_ C_ 0.13301 0.939472 0.42048 -0.05681
C_ C_ 0.129688 0.916508 0.392605 -0.05681
C_ C_ 0.131222 0.948199 0.36799 -0.08735
C_ C_ 0.135051 0.999999 0.370665 -0.08735
C_ C_ 0.131829 0.907751 0.44505 -0.08735
C_ C_ 0.127987 0.855939 0.442465 -0.08735
C_ C_ 0.124969 0.833101 0.414935 -0.05681
C_ C_ 0.125402 0.86317 0.39061 -0.08735
C_ C_ 0.0341064 0.669631 0.40958 0.68181
C_ C_ 0.113301 0.619533 0.48959 0.1947
C_ C_ 0.107346 0.605767 0.0185149 -0.08735
C_ C_ 0.127573 0.636618 0.0394449 -0.08735
C_ C_ 0.154353 0.681076 0.03155 -0.05681
C_ C_ 0.160417 0.69188 1.0 0.18498
C_ C_ 0.188748 0.735018 0.49296 -0.08735
C_ C_ 0.209521 0.766989 0.0132499 -0.08735
C_ C_ 0.202451 0.7576 0.0428 -0.08735
C_ C_ 0.175435 0.715703 0.0517351 0.18498
C_ C_ 0.209181 0.691848 0.0987 0.44287
C_ C_ 0.117389 0.715628 0.0923199 0.44287
C_ C_ 0.108545 0.704057 0.122845 -0.05681
C_ C_ 0.0597789 0.707894 0.133975 -0.08735
C_ C_ 0.0506878 0.698097 0.163045 -0.08735
C_ C_ 0.0903984 0.685079 0.18114 -0.05681
C_ C_ 0.140439 0.681121 0.17037 -0.05681
C_ C_ 0.149534 0.690219 0.1407 -0.05681
C_ C_ 0.199306 0.685143 0.1297 -0.05681
C_ C_ 0.239029 0.672512 0.147855 -0.08735
C_ C_ 0.230294 0.664317 0.17714 -0.08735
C_ C_ 0.181604 0.66813 0.188385 -0.05681
C_ C_ 0.172922 0.657668 0.219 0.44287
C_ C_ 0.0797331 0.675073 0.2117 0.44287
C_ C_ 0.112075 0.648456 0.258335 0.18498
C_ C_ 0.0877299 0.603534 0.2647 -0.08735
C_ C_ 0.0768811 0.590827 0.29343 -0.08735
C_ C_ 0.0909286 0.622588 0.315545 -0.08735
C_ C_ 0.116561 0.668631 0.309485 0.18498
C_ C_ 0.126835 0.682628 0.28036 -0.05681
C_ C_ 0.151673 0.729419 0.27514 -0.08735
C_ C_ 0.166278 0.759335 0.29786 -0.08735
C_ C_ 0.155978 0.742695 0.325925 0.1947
C_ C_ 0.269154 0.813063 0.153185 0.68181
C_ C_ 0.212729 0.816188 0.149735 -0.05681
C_ C_ 0.181271 0.81412 0.173455 -0.08735
C_ C_ 0.128131 0.818645 0.17058 -0.05681
C_ C_ 0.106994 0.826012 0.142505 -0.05681
C_ C_ 0.140132 0.827928 0.11852 -0.08735
C_ C_ 0.191647 0.822929 0.122035 -0.08735
C_ C_ 0.0948076 0.8163 0.194485 -0.08735
C_ C_ 0.0432501 0.820909 0.19098 -0.08735
C_ C_ 0.0223174 0.827602 0.16322 -0.05681
C_ C_ 0.053866 0.830086 0.13954 -0.08735
C_ C_ 0.376417 0.723561 0.16227 0.68181
C_ C_ 0.359998 0.920449 0.150895 0.68181
C_ C_ 0.362284 0.9771 0.14819 -0.05681
C_ C_ 0.362909 0.507186 0.172485 -0.08735
C_ C_ 0.366998 0.560528 0.170485 -0.05681
C_ C_ 0.370324 0.583477 0.14261 -0.05681
C_ C_ 0.368791 0.551772 0.117995 -0.08735
C_ C_ 0.364962 -2.599999999997049e-05 0.12067 -0.08735
C_ C_ 0.368177 0.59226 0.19509 -0.08735
C_ C_ 0.372021 0.644072 0.192465 -0.08735
C_ C_ 0.375041 0.666895 0.164935 -0.05681
C_ C_ 0.374609 0.636812 0.140615 -0.08735
C_ C_ 0.465903 0.830362 0.159585 0.68181
C_ C_ 0.386687 0.880472 0.239605 0.1947
C_ C_ 0.392645 0.894243 0.268525 -0.08735
C_ C_ 0.372425 0.863388 0.28945 -0.08735
C_ C_ 0.345653 0.818927 0.28156 -0.05681
C_ C_ 0.339585 0.808117 0.2516 0.18498
C_ C_ 0.31126 0.764976 0.24296 -0.08735
C_ C_ 0.290497 0.733005 0.26325 -0.08735
C_ C_ 0.297568 0.742394 0.29279 -0.08735
C_ C_ 0.324578 0.784295 0.30173 0.18498
C_ C_ 0.290831 0.808146 0.3487 0.44287
C_ C_ 0.382623 0.784365 0.34232 0.44287
C_ C_ 0.391466 0.795933 0.37284 -0.05681
C_ C_ 0.440232 0.792094 0.38395 -0.08735
C_ C_ 0.449323 0.80189 0.413045 -0.08735
C_ C_ 0.409613 0.814905 0.43114 -0.05681
C_ C_ 0.359571 0.818862 0.42037 -0.05681
C_ C_ 0.350477 0.809768 0.3907 -0.05681
C_ C_ 0.300703 0.814845 0.379705 -0.05681
C_ C_ 0.260981 0.82747 0.39786 -0.08735
C_ C_ 0.269716 0.83566 0.427 -0.08735
C_ C_ 0.318407 0.83185 0.43839 -0.05681
C_ C_ 0.32709 0.842312 0.469155 0.44287
C_ C_ 0.420279 0.82491 0.46172 0.44287
C_ C_ 0.387945 0.851522 0.00834504 0.18498
C_ C_ 0.412293 0.896443 0.0147001 -0.08735
C_ C_ 0.423146 0.909146 0.04345 -0.08735
C_ C_ 0.409099 0.877385 0.06556 -0.08735
C_ C_ 0.383464 0.831344 0.0594951 0.18498
C_ C_ 0.373188 0.817348 0.03037 -0.05681
C_ C_ 0.348351 0.770556 0.025145 -0.08735
C_ C_ 0.333748 0.740638 0.0478551 -0.08735
C_ C_ 0.344047 0.75728 0.0759251 0.1947
N_ N_ 0.138852 0.6607 0.48131 -0.29468
N_ N_ 0.167269 0.706836 0.0818949 -0.17154
N_ N_ 0.122203 0.661099 0.228775 -0.17154
N_ N_ 0.131792 0.699409 0.33171 -0.29468
N_ N_ 0.361144 0.839301 0.231315 -0.29468
N_ N_ 0.332744 0.793159 0.33189 -0.17154
N_ N_ 0.37781 0.838878 0.47878 -0.17154
N_ N_ 0.368233 0.800566 0.0817149 -0.29468
O_ O_ 0.213536 0.684445 0.42864 -0.58347
O_ O_ 0.2049 0.691325 0.380355 -0.58347
O_ O_ 0.128913 0.751331 0.43534 -0.58347
O_ O_ 0.118078 0.757911 0.387265 -0.58347
O_ O_ 0.143825 0.597868 0.42604 -0.58347
O_ O_ 0.13747 0.604826 0.377665 -0.58347
O_ O_ 0.0601408 0.666657 0.43246 -0.58347
O_ O_ 0.0512355 0.67107 0.38403 -0.58347
O_ O_ 0.0843586 0.731083 0.0761451 -0.46727
O_ O_ 0.25072 0.684481 0.0875999 -0.46727
O_ O_ 0.0375314 0.678005 0.22244 -0.46727
O_ O_ 0.206943 0.646565 0.235955 -0.46727
O_ O_ 0.286474 0.81555 0.178645 -0.58347
O_ O_ 0.295111 0.808666 0.13036 -0.58347
O_ O_ 0.371098 0.748669 0.185345 -0.58347
O_ O_ 0.381931 0.742077 0.13727 -0.58347
O_ O_ 0.356185 0.902128 0.176045 -0.58347
O_ O_ 0.362541 0.895158 0.12765 -0.58347
O_ O_ 0.439868 0.833337 0.182465 -0.58347
O_ O_ 0.448776 0.82892 0.134035 -0.58347
O_ O_ 0.415654 0.768911 0.32614 -0.46727
O_ O_ 0.249294 0.815514 0.33761 -0.46727
O_ O_ 0.462482 0.821983 0.47244 -0.46727
O_ O_ 0.293072 0.853419 0.485965 -0.46727
Zn Zn 0.126822 0.682297 0.875185 0.90689
Zn Zn 0.137892 0.673646 0.937315 0.90689
Zn Zn 0.373191 0.81769 0.62519 0.90689
Zn Zn 0.362117 0.826351 0.68732 0.90689
H_ H_ 0.301795 0.690478 0.944595 0.11455
H_ H_ 0.376151 0.666744 0.84724 0.11455
H_ H_ 0.282442 0.675243 0.853905 0.11455
H_ H_ 0.38915 0.689261 0.965805 0.11455
H_ H_ 0.482564 0.681309 0.95914 0.11455
H_ H_ 0.46286 0.66544 0.86833 0.11455
H_ H_ 0.1397 0.510869 0.94344 0.11455
H_ H_ 0.129379 0.930588 0.84685 0.11455
H_ H_ 0.136234 0.524497 0.851905 0.11455
H_ H_ 0.134169 0.925259 0.966235 0.11455
H_ H_ 0.12713 0.831463 0.961235 0.11455
H_ H_ 0.122958 0.845136 0.869635 0.11455
H_ H_ 0.0971159 0.596557 0.972415 0.11455
H_ H_ 0.0866081 0.571242 0.52391 0.11455
H_ H_ 0.12313 0.627061 0.562015 0.11455
H_ H_ 0.193302 0.742475 0.97015 0.11455
H_ H_ 0.231445 0.80009 0.5065 0.11455
H_ H_ 0.218498 0.783398 0.558645 0.11455
H_ H_ 1.029001 0.719031 0.61982 0.11455
H_ H_ 1.0126599 0.700985 0.671955 0.11455
H_ H_ 0.276985 0.668781 0.63902 0.11455
H_ H_ 0.261478 0.654211 0.691265 0.11455
H_ H_ 0.0766832 0.578097 0.747375 0.11455
H_ H_ 0.0573275 0.555264 0.79812 0.11455
H_ H_ 0.0833505 0.612638 0.837775 0.11455
H_ H_ 0.159667 0.741074 0.753205 0.11455
H_ H_ 0.186731 0.794899 0.79492 0.11455
H_ H_ 0.168093 0.765119 0.84428 0.11455
H_ H_ 0.198213 0.809523 0.6945 0.11455
H_ H_ 0.123863 0.833239 0.597245 0.11455
H_ H_ 0.217572 0.824741 0.60391 0.11455
H_ H_ 0.110856 0.810743 0.71581 0.11455
H_ H_ 0.0174428 0.818693 0.709145 0.11455
H_ H_ 0.0371528 0.834544 0.618335 0.11455
H_ H_ 0.360307 0.989142 0.693445 0.11455
H_ H_ 0.370635 0.569372 0.596855 0.11455
H_ H_ 0.363779 0.975466 0.6019 0.11455
H_ H_ 0.365835 0.574764 0.71624 0.11455
H_ H_ 0.372876 0.668557 0.71124 0.11455
H_ H_ 0.377055 0.654836 0.619635 0.11455
H_ H_ 0.402868 0.903452 0.722435 0.11455
H_ H_ 0.413376 0.928774 0.77392 0.11455
H_ H_ 0.376867 0.872945 0.81202 0.11455
H_ H_ 0.306704 0.757519 0.720185 0.11455
H_ H_ 0.268578 0.6999 0.756525 0.11455
H_ H_ 0.281526 0.716592 0.80863 0.11455
H_ H_ 0.47101 0.780958 0.869815 0.11455
H_ H_ 0.487351 0.799002 0.92195 0.11455
H_ H_ 0.223025 0.831202 0.88903 0.11455
H_ H_ 0.238531 0.845763 0.941275 0.11455
H_ H_ 0.423335 0.921877 0.99739 0.11455
H_ H_ 0.442703 0.944708 0.548145 0.11455
H_ H_ 0.416682 0.887332 0.58779 0.11455
H_ H_ 0.340358 0.758902 0.503205 0.11455
H_ H_ 0.313297 0.705073 0.544915 0.11455
H_ H_ 0.331931 0.734857 0.59428 0.11455
C_ C_ 0.230856 0.686929 0.90318 0.68181
C_ C_ 0.287282 0.683805 0.89973 -0.05681
C_ C_ 0.318739 0.685876 0.92345 -0.08735
C_ C_ 0.371878 0.68135 0.920575 -0.05681
C_ C_ 0.393018 0.673979 0.8925 -0.05681
C_ C_ 0.359881 0.672059 0.868515 -0.08735
C_ C_ 0.308366 0.67706 0.87203 -0.08735
C_ C_ 0.405201 0.6837 0.94448 -0.08735
C_ C_ 0.456758 0.67909 0.940975 -0.08735
C_ C_ 0.477693 0.672392 0.913215 -0.05681
C_ C_ 0.446145 0.669902 0.889535 -0.08735
C_ C_ 0.123592 0.776433 0.91227 0.68181
C_ C_ 0.140012 0.57954 0.90089 0.68181
C_ C_ 0.137726 0.522888 0.898185 -0.05681
C_ C_ 0.137099 0.992814 0.92248 -0.08735
C_ C_ 0.13301 0.939472 0.92048 -0.05681
C_ C_ 0.129687 0.916508 0.892605 -0.05681
C_ C_ 0.131221 0.948199 0.86799 -0.08735
C_ C_ 0.135051 -1.0000000000287557e-06 0.870665 -0.08735
C_ C_ 0.13183 0.907751 0.94505 -0.08735
C_ C_ 0.127987 0.855938 0.942465 -0.08735
C_ C_ 0.124969 0.833101 0.914935 -0.05681
C_ C_ 0.125403 0.86317 0.89061 -0.08735
C_ C_ 0.0341065 0.669631 0.90958 0.68181
C_ C_ 0.113301 0.619533 0.98959 0.1947
C_ C_ 0.107346 0.605768 0.518515 -0.08735
C_ C_ 0.127572 0.636617 0.539445 -0.08735
C_ C_ 0.154353 0.681075 0.53155 -0.05681
C_ C_ 0.160417 0.69188 0.5 0.18498
C_ C_ 0.188749 0.735018 0.99296 -0.08735
C_ C_ 0.209522 0.766989 0.51325 -0.08735
C_ C_ 0.202451 0.7576 0.5428 -0.08735
C_ C_ 0.175435 0.715702 0.551735 0.18498
C_ C_ 0.209182 0.691847 0.5987 0.44287
C_ C_ 0.117389 0.715628 0.59232 0.44287
C_ C_ 0.108545 0.704057 0.622845 -0.05681
C_ C_ 0.059779 0.707894 0.633975 -0.08735
C_ C_ 0.0506879 0.698097 0.663045 -0.08735
C_ C_ 0.0903985 0.685079 0.68114 -0.05681
C_ C_ 0.140439 0.681121 0.67037 -0.05681
C_ C_ 0.149534 0.690219 0.6407 -0.05681
C_ C_ 0.199306 0.685143 0.6297 -0.05681
C_ C_ 0.239029 0.672512 0.647855 -0.08735
C_ C_ 0.230294 0.664317 0.67714 -0.08735
C_ C_ 0.181604 0.66813 0.688385 -0.05681
C_ C_ 0.172922 0.657668 0.719 0.44287
C_ C_ 0.0797332 0.675074 0.7117 0.44287
C_ C_ 0.112075 0.648456 0.758335 0.18498
C_ C_ 0.08773 0.603534 0.7647 -0.08735
C_ C_ 0.0768811 0.590827 0.79343 -0.08735
C_ C_ 0.0909287 0.622588 0.815545 -0.08735
C_ C_ 0.11656 0.668631 0.809485 0.18498
C_ C_ 0.126835 0.682628 0.78036 -0.05681
C_ C_ 0.151673 0.72942 0.77514 -0.08735
C_ C_ 0.166278 0.759335 0.79786 -0.08735
C_ C_ 0.155977 0.742695 0.825925 0.1947
C_ C_ 0.269155 0.813063 0.653185 0.68181
C_ C_ 0.212729 0.816188 0.649735 -0.05681
C_ C_ 0.181271 0.81412 0.673455 -0.08735
C_ C_ 0.128131 0.818645 0.67058 -0.05681
C_ C_ 0.106994 0.826012 0.642505 -0.05681
C_ C_ 0.140132 0.827928 0.61852 -0.08735
C_ C_ 0.191647 0.822929 0.622035 -0.08735
C_ C_ 0.0948073 0.8163 0.694485 -0.08735
C_ C_ 0.0432502 0.820909 0.69098 -0.08735
C_ C_ 0.0223175 0.827602 0.66322 -0.05681
C_ C_ 0.0538661 0.830086 0.63954 -0.08735
C_ C_ 0.376417 0.723561 0.66227 0.68181
C_ C_ 0.359998 0.920449 0.650895 0.68181
C_ C_ 0.362283 0.9771 0.64819 -0.05681
C_ C_ 0.362909 0.507186 0.672485 -0.08735
C_ C_ 0.366998 0.560528 0.670485 -0.05681
C_ C_ 0.370324 0.583477 0.64261 -0.05681
C_ C_ 0.368791 0.551772 0.617995 -0.08735
C_ C_ 0.364961 0.999974 0.62067 -0.08735
C_ C_ 0.368177 0.592261 0.69509 -0.08735
C_ C_ 0.37202 0.644072 0.692465 -0.08735
C_ C_ 0.375041 0.666895 0.664935 -0.05681
C_ C_ 0.374609 0.636812 0.640615 -0.08735
C_ C_ 0.465904 0.830363 0.659585 0.68181
C_ C_ 0.386687 0.880472 0.739605 0.1947
C_ C_ 0.392645 0.894243 0.768525 -0.08735
C_ C_ 0.372425 0.863389 0.78945 -0.08735
C_ C_ 0.345653 0.818926 0.78156 -0.05681
C_ C_ 0.339585 0.808117 0.7516 0.18498
C_ C_ 0.311259 0.764976 0.74296 -0.08735
C_ C_ 0.290496 0.733005 0.76325 -0.08735
C_ C_ 0.297568 0.742394 0.79279 -0.08735
C_ C_ 0.324578 0.784295 0.80173 0.18498
C_ C_ 0.29083 0.808146 0.8487 0.44287
C_ C_ 0.382623 0.784365 0.84232 0.44287
C_ C_ 0.391466 0.795933 0.87284 -0.05681
C_ C_ 0.440232 0.792094 0.88395 -0.08735
C_ C_ 0.449323 0.80189 0.913045 -0.08735
C_ C_ 0.409612 0.814905 0.93114 -0.05681
C_ C_ 0.359571 0.818862 0.92037 -0.05681
C_ C_ 0.350476 0.809768 0.8907 -0.05681
C_ C_ 0.300703 0.814845 0.879705 -0.05681
C_ C_ 0.260981 0.82747 0.89786 -0.08735
C_ C_ 0.269717 0.835661 0.927 -0.08735
C_ C_ 0.318407 0.83185 0.93839 -0.05681
C_ C_ 0.32709 0.842312 0.969155 0.44287
C_ C_ 0.420279 0.824909 0.96172 0.44287
C_ C_ 0.387946 0.851522 0.508345 0.18498
C_ C_ 0.412293 0.896444 0.5147 -0.08735
C_ C_ 0.423147 0.909146 0.54345 -0.08735
C_ C_ 0.4091 0.877385 0.56556 -0.08735
C_ C_ 0.383464 0.831344 0.559495 0.18498
C_ C_ 0.373188 0.817348 0.53037 -0.05681
C_ C_ 0.348352 0.770556 0.525145 -0.08735
C_ C_ 0.333748 0.740638 0.547855 -0.08735
C_ C_ 0.344047 0.757279 0.575925 0.1947
N_ N_ 0.138852 0.6607 0.98131 -0.29468
N_ N_ 0.167269 0.706836 0.581895 -0.17154
N_ N_ 0.122203 0.661098 0.728775 -0.17154
N_ N_ 0.131791 0.699409 0.83171 -0.29468
N_ N_ 0.361144 0.839301 0.731315 -0.29468
N_ N_ 0.332744 0.79316 0.83189 -0.17154
N_ N_ 0.37781 0.838878 0.97878 -0.17154
N_ N_ 0.368233 0.800566 0.581715 -0.29468
O_ O_ 0.213536 0.684445 0.92864 -0.58347
O_ O_ 0.2049 0.691325 0.880355 -0.58347
O_ O_ 0.128912 0.751331 0.93534 -0.58347
O_ O_ 0.118078 0.757911 0.887265 -0.58347
O_ O_ 0.143825 0.597868 0.92604 -0.58347
O_ O_ 0.13747 0.604825 0.877665 -0.58347
O_ O_ 0.0601409 0.666657 0.93246 -0.58347
O_ O_ 0.0512356 0.67107 0.88403 -0.58347
O_ O_ 0.0843583 0.731083 0.576145 -0.46727
O_ O_ 0.25072 0.684481 0.5876 -0.46727
O_ O_ 0.0375315 0.678004 0.72244 -0.46727
O_ O_ 0.206942 0.646565 0.735955 -0.46727
O_ O_ 0.286474 0.81555 0.678645 -0.58347
O_ O_ 0.295111 0.808666 0.63036 -0.58347
O_ O_ 0.371098 0.748669 0.685345 -0.58347
O_ O_ 0.381931 0.742077 0.63727 -0.58347
O_ O_ 0.356184 0.902129 0.676045 -0.58347
O_ O_ 0.362541 0.895158 0.62765 -0.58347
O_ O_ 0.439867 0.833337 0.682465 -0.58347
O_ O_ 0.448776 0.82892 0.634035 -0.58347
O_ O_ 0.415654 0.768911 0.82614 -0.46727
O_ O_ 0.249294 0.815514 0.83761 -0.46727
O_ O_ 0.462483 0.821984 0.97244 -0.46727
O_ O_ 0.293072 0.853419 0.985965 -0.46727
Zn Zn 0.626821 0.182297 0.375185 0.90689
Zn Zn 0.637892 0.173646 0.437315 0.90689
Zn Zn 0.87319 0.317691 0.12519 0.90689
Zn Zn 0.862116 0.326351 0.18732 0.90689
H_ H_ 0.801795 0.190478 0.444595 0.11455
H_ H_ 0.876151 0.166743 0.34724 0.11455
H_ H_ 0.782442 0.175244 0.353905 0.11455
H_ H_ 0.88915 0.189262 0.465805 0.11455
H_ H_ 0.982564 0.181309 0.45914 0.11455
H_ H_ 0.96286 0.165441 0.36833 0.11455
H_ H_ 0.639699 0.0108695 0.44344 0.11455
H_ H_ 0.62938 0.430588 0.34685 0.11455
H_ H_ 0.636235 0.0244964 0.351905 0.11455
H_ H_ 0.634169 0.425258 0.466235 0.11455
H_ H_ 0.62713 0.331463 0.461235 0.11455
H_ H_ 0.622958 0.345137 0.369635 0.11455
H_ H_ 0.597116 0.0965564 0.472415 0.11455
H_ H_ 0.586608 0.0712414 0.02391 0.11455
H_ H_ 0.623131 0.127062 0.0620151 0.11455
H_ H_ 0.693302 0.242475 0.47015 0.11455
H_ H_ 0.731444 0.300091 0.00650006 0.11455
H_ H_ 0.718498 0.283398 0.058645 0.11455
H_ H_ 0.529001 0.219031 0.11982 0.11455
H_ H_ 0.51266 0.200985 0.171955 0.11455
H_ H_ 0.776984 0.168781 0.13902 0.11455
H_ H_ 0.761479 0.154211 0.191265 0.11455
H_ H_ 0.576683 0.0780963 0.247375 0.11455
H_ H_ 0.557327 0.0552634 0.29812 0.11455
H_ H_ 0.58335 0.112638 0.337775 0.11455
H_ H_ 0.659667 0.241075 0.253205 0.11455
H_ H_ 0.686731 0.2949 0.29492 0.11455
H_ H_ 0.668093 0.265118 0.34428 0.11455
H_ H_ 0.698213 0.309523 0.1945 0.11455
H_ H_ 0.623863 0.333239 0.097245 0.11455
H_ H_ 0.717572 0.324742 0.10391 0.11455
H_ H_ 0.610857 0.310743 0.21581 0.11455
H_ H_ 0.517443 0.318693 0.209145 0.11455
H_ H_ 0.537153 0.334543 0.118335 0.11455
H_ H_ 0.860306 0.489142 0.193445 0.11455
H_ H_ 0.870636 0.0693719 0.096855 0.11455
H_ H_ 0.86378 0.475467 0.1019 0.11455
H_ H_ 0.865835 0.0747645 0.21624 0.11455
H_ H_ 0.872876 0.168557 0.21124 0.11455
H_ H_ 0.877055 0.154836 0.119635 0.11455
H_ H_ 0.902869 0.403452 0.222435 0.11455
H_ H_ 0.913377 0.428773 0.27392 0.11455
H_ H_ 0.876867 0.372945 0.31202 0.11455
H_ H_ 0.806704 0.257518 0.220185 0.11455
H_ H_ 0.768578 0.1999 0.256525 0.11455
H_ H_ 0.781527 0.216593 0.30863 0.11455
H_ H_ 0.971009 0.280959 0.369815 0.11455
H_ H_ -0.012649000000000021 0.299001 0.42195 0.11455
H_ H_ 0.723025 0.331201 0.38903 0.11455
H_ H_ 0.738531 0.345763 0.441275 0.11455
H_ H_ 0.923334 0.421878 0.49739 0.11455
H_ H_ 0.942703 0.444708 0.048145 0.11455
H_ H_ 0.916683 0.387332 0.08779 0.11455
H_ H_ 0.840358 0.258901 0.00320494 0.11455
H_ H_ 0.813297 0.205073 0.0449149 0.11455
H_ H_ 0.831932 0.234856 0.09428 0.11455
C_ C_ 0.730856 0.18693 0.40318 0.68181
C_ C_ 0.787282 0.183805 0.39973 -0.05681
C_ C_ 0.818738 0.185877 0.42345 -0.08735
C_ C_ 0.871879 0.181351 0.420575 -0.05681
C_ C_ 0.893018 0.173978 0.3925 -0.05681
C_ C_ 0.85988 0.172059 0.368515 -0.08735
C_ C_ 0.808366 0.17706 0.37203 -0.08735
C_ C_ 0.9052 0.1837 0.44448 -0.08735
C_ C_ 0.956758 0.17909 0.440975 -0.08735
C_ C_ 0.977693 0.172392 0.413215 -0.05681
C_ C_ 0.946145 0.169902 0.389535 -0.08735
C_ C_ 0.623593 0.276433 0.41227 0.68181
C_ C_ 0.640012 0.0795401 0.40089 0.68181
C_ C_ 0.637726 0.0228881 0.398185 -0.05681
C_ C_ 0.637098 0.492814 0.42248 -0.08735
C_ C_ 0.63301 0.439471 0.42048 -0.05681
C_ C_ 0.629688 0.416507 0.392605 -0.05681
C_ C_ 0.631222 0.448199 0.36799 -0.08735
C_ C_ 0.635051 0.499999 0.370665 -0.08735
C_ C_ 0.631829 0.407751 0.44505 -0.08735
C_ C_ 0.627987 0.355939 0.442465 -0.08735
C_ C_ 0.624968 0.333101 0.414935 -0.05681
C_ C_ 0.625402 0.36317 0.39061 -0.08735
C_ C_ 0.534107 0.16963 0.40958 0.68181
C_ C_ 0.613301 0.119533 0.48959 0.1947
C_ C_ 0.607346 0.105767 0.0185149 -0.08735
C_ C_ 0.627573 0.136618 0.0394449 -0.08735
C_ C_ 0.654353 0.181076 0.03155 -0.05681
C_ C_ 0.660416 0.191881 1.0 0.18498
C_ C_ 0.688748 0.235018 0.49296 -0.08735
C_ C_ 0.709521 0.266989 0.0132499 -0.08735
C_ C_ 0.702451 0.257599 0.0428 -0.08735
C_ C_ 0.675435 0.215703 0.0517351 0.18498
C_ C_ 0.709181 0.191848 0.0987 0.44287
C_ C_ 0.617389 0.215628 0.0923199 0.44287
C_ C_ 0.608544 0.204057 0.122845 -0.05681
C_ C_ 0.559779 0.207894 0.133975 -0.08735
C_ C_ 0.550688 0.198097 0.163045 -0.08735
C_ C_ 0.590398 0.185079 0.18114 -0.05681
C_ C_ 0.640439 0.181122 0.17037 -0.05681
C_ C_ 0.649534 0.19022 0.1407 -0.05681
C_ C_ 0.699307 0.185143 0.1297 -0.05681
C_ C_ 0.739029 0.172512 0.147855 -0.08735
C_ C_ 0.730294 0.164318 0.17714 -0.08735
C_ C_ 0.681604 0.16813 0.188385 -0.05681
C_ C_ 0.672922 0.157668 0.219 0.44287
C_ C_ 0.579733 0.175073 0.2117 0.44287
C_ C_ 0.612075 0.148456 0.258335 0.18498
C_ C_ 0.58773 0.103533 0.2647 -0.08735
C_ C_ 0.576881 0.0908271 0.29343 -0.08735
C_ C_ 0.590929 0.122587 0.315545 -0.08735
C_ C_ 0.616561 0.16863 0.309485 0.18498
C_ C_ 0.626835 0.182628 0.28036 -0.05681
C_ C_ 0.651673 0.229419 0.27514 -0.08735
C_ C_ 0.666278 0.259335 0.29786 -0.08735
C_ C_ 0.655978 0.242695 0.325925 0.1947
C_ C_ 0.769154 0.313062 0.153185 0.68181
C_ C_ 0.712729 0.316188 0.149735 -0.05681
C_ C_ 0.681271 0.314121 0.173455 -0.08735
C_ C_ 0.628131 0.318645 0.17058 -0.05681
C_ C_ 0.606993 0.326012 0.142505 -0.05681
C_ C_ 0.640132 0.327927 0.11852 -0.08735
C_ C_ 0.691647 0.322928 0.122035 -0.08735
C_ C_ 0.594808 0.316301 0.194485 -0.08735
C_ C_ 0.54325 0.320909 0.19098 -0.08735
C_ C_ 0.522317 0.327601 0.16322 -0.05681
C_ C_ 0.553866 0.330087 0.13954 -0.08735
C_ C_ 0.876418 0.223561 0.16227 0.68181
C_ C_ 0.859998 0.420449 0.150895 0.68181
C_ C_ 0.862284 0.4771 0.14819 -0.05681
C_ C_ 0.862909 0.00718593 0.172485 -0.08735
C_ C_ 0.866998 0.0605277 0.170485 -0.05681
C_ C_ 0.870323 0.0834769 0.14261 -0.05681
C_ C_ 0.868792 0.0517725 0.117995 -0.08735
C_ C_ 0.864962 0.499974 0.12067 -0.08735
C_ C_ 0.868177 0.0922605 0.19509 -0.08735
C_ C_ 0.872021 0.144071 0.192465 -0.08735
C_ C_ 0.875041 0.166895 0.164935 -0.05681
C_ C_ 0.874609 0.136813 0.140615 -0.08735
C_ C_ 0.965903 0.330362 0.159585 0.68181
C_ C_ 0.886687 0.380473 0.239605 0.1947
C_ C_ 0.892645 0.394243 0.268525 -0.08735
C_ C_ 0.872425 0.363388 0.28945 -0.08735
C_ C_ 0.845653 0.318927 0.28156 -0.05681
C_ C_ 0.839585 0.308117 0.2516 0.18498
C_ C_ 0.81126 0.264975 0.24296 -0.08735
C_ C_ 0.790497 0.233005 0.26325 -0.08735
C_ C_ 0.797568 0.242394 0.29279 -0.08735
C_ C_ 0.824578 0.284295 0.30173 0.18498
C_ C_ 0.790831 0.308146 0.3487 0.44287
C_ C_ 0.882623 0.284366 0.34232 0.44287
C_ C_ 0.891466 0.295932 0.37284 -0.05681
C_ C_ 0.940232 0.292095 0.38395 -0.08735
C_ C_ 0.949323 0.301889 0.413045 -0.08735
C_ C_ 0.909613 0.314905 0.43114 -0.05681
C_ C_ 0.859571 0.318862 0.42037 -0.05681
C_ C_ 0.850477 0.309767 0.3907 -0.05681
C_ C_ 0.800703 0.314845 0.379705 -0.05681
C_ C_ 0.760981 0.327471 0.39786 -0.08735
C_ C_ 0.769716 0.33566 0.427 -0.08735
C_ C_ 0.818406 0.33185 0.43839 -0.05681
C_ C_ 0.827091 0.342312 0.469155 0.44287
C_ C_ 0.920279 0.32491 0.46172 0.44287
C_ C_ 0.887945 0.351522 0.00834504 0.18498
C_ C_ 0.912293 0.396443 0.0147001 -0.08735
C_ C_ 0.923146 0.409147 0.04345 -0.08735
C_ C_ 0.909099 0.377385 0.06556 -0.08735
C_ C_ 0.883465 0.331344 0.0594951 0.18498
C_ C_ 0.873188 0.317348 0.03037 -0.05681
C_ C_ 0.848351 0.270556 0.025145 -0.08735
C_ C_ 0.833748 0.240639 0.0478551 -0.08735
C_ C_ 0.844047 0.25728 0.0759251 0.1947
N_ N_ 0.638852 0.1607 0.48131 -0.29468
N_ N_ 0.667269 0.206837 0.0818949 -0.17154
N_ N_ 0.622203 0.161099 0.228775 -0.17154
N_ N_ 0.631792 0.199408 0.33171 -0.29468
N_ N_ 0.861144 0.339301 0.231315 -0.29468
N_ N_ 0.832744 0.293159 0.33189 -0.17154
N_ N_ 0.87781 0.338878 0.47878 -0.17154
N_ N_ 0.868233 0.300566 0.0817149 -0.29468
O_ O_ 0.713536 0.184444 0.42864 -0.58347
O_ O_ 0.704901 0.191325 0.380355 -0.58347
O_ O_ 0.628913 0.251331 0.43534 -0.58347
O_ O_ 0.618078 0.257912 0.387265 -0.58347
O_ O_ 0.643824 0.0978677 0.42604 -0.58347
O_ O_ 0.63747 0.104826 0.377665 -0.58347
O_ O_ 0.560141 0.166656 0.43246 -0.58347
O_ O_ 0.551235 0.17107 0.38403 -0.58347
O_ O_ 0.584359 0.231083 0.0761451 -0.46727
O_ O_ 0.75072 0.184481 0.0875999 -0.46727
O_ O_ 0.537531 0.178005 0.22244 -0.46727
O_ O_ 0.706943 0.146565 0.235955 -0.46727
O_ O_ 0.786474 0.315549 0.178645 -0.58347
O_ O_ 0.795111 0.308666 0.13036 -0.58347
O_ O_ 0.871098 0.248669 0.185345 -0.58347
O_ O_ 0.881931 0.242077 0.13727 -0.58347
O_ O_ 0.856185 0.402128 0.176045 -0.58347
O_ O_ 0.862542 0.395158 0.12765 -0.58347
O_ O_ 0.939868 0.333338 0.182465 -0.58347
O_ O_ 0.948776 0.328921 0.134035 -0.58347
O_ O_ 0.915654 0.268911 0.32614 -0.46727
O_ O_ 0.749293 0.315514 0.33761 -0.46727
O_ O_ 0.962482 0.321983 0.47244 -0.46727
O_ O_ 0.793072 0.353419 0.485965 -0.46727
Zn Zn 0.626822 0.182297 0.875185 0.90689
Zn Zn 0.637892 0.173646 0.937315 0.90689
Zn Zn 0.87319 0.317691 0.62519 0.90689
Zn Zn 0.862117 0.326351 0.68732 0.90689
H_ H_ 0.801795 0.190478 0.944595 0.11455
H_ H_ 0.876151 0.166744 0.84724 0.11455
H_ H_ 0.782442 0.175243 0.853905 0.11455
H_ H_ 0.88915 0.189262 0.965805 0.11455
H_ H_ 0.982564 0.181309 0.95914 0.11455
H_ H_ 0.96286 0.165441 0.86833 0.11455
H_ H_ 0.6397 0.0108695 0.94344 0.11455
H_ H_ 0.629379 0.430588 0.84685 0.11455
H_ H_ 0.636235 0.0244963 0.851905 0.11455
H_ H_ 0.634169 0.425258 0.966235 0.11455
H_ H_ 0.62713 0.331463 0.961235 0.11455
H_ H_ 0.622958 0.345137 0.869635 0.11455
H_ H_ 0.597116 0.0965564 0.972415 0.11455
H_ H_ 0.586608 0.0712414 0.52391 0.11455
H_ H_ 0.62313 0.127062 0.562015 0.11455
H_ H_ 0.693302 0.242475 0.97015 0.11455
H_ H_ 0.731444 0.300091 0.5065 0.11455
H_ H_ 0.718498 0.283398 0.558645 0.11455
H_ H_ 0.529001 0.219031 0.61982 0.11455
H_ H_ 0.51266 0.200985 0.671955 0.11455
H_ H_ 0.776985 0.168781 0.63902 0.11455
H_ H_ 0.761479 0.154211 0.691265 0.11455
H_ H_ 0.576683 0.0780966 0.747375 0.11455
H_ H_ 0.557327 0.0552633 0.79812 0.11455
H_ H_ 0.58335 0.112638 0.837775 0.11455
H_ H_ 0.659667 0.241075 0.753205 0.11455
H_ H_ 0.686731 0.2949 0.79492 0.11455
H_ H_ 0.668093 0.265118 0.84428 0.11455
H_ H_ 0.698213 0.309523 0.6945 0.11455
H_ H_ 0.623863 0.333239 0.597245 0.11455
H_ H_ 0.717572 0.324741 0.60391 0.11455
H_ H_ 0.610856 0.310743 0.71581 0.11455
H_ H_ 0.517443 0.318693 0.709145 0.11455
H_ H_ 0.537153 0.334543 0.618335 0.11455
H_ H_ 0.860307 0.489142 0.693445 0.11455
H_ H_ 0.870635 0.0693718 0.596855 0.11455
H_ H_ 0.863779 0.475467 0.6019 0.11455
H_ H_ 0.865835 0.0747644 0.71624 0.11455
H_ H_ 0.872876 0.168557 0.71124 0.11455
H_ H_ 0.877055 0.154836 0.619635 0.11455
H_ H_ 0.902869 0.403452 0.722435 0.11455
H_ H_ 0.913377 0.428773 0.77392 0.11455
H_ H_ 0.876867 0.372945 0.81202 0.11455
H_ H_ 0.806704 0.257519 0.720185 0.11455
H_ H_ 0.768578 0.1999 0.756525 0.11455
H_ H_ 0.781526 0.216593 0.80863 0.11455
H_ H_ 0.971009 0.280958 0.869815 0.11455
H_ H_ -0.012649000000000021 0.299001 0.92195 0.11455
H_ H_ 0.723025 0.331202 0.88903 0.11455
H_ H_ 0.738531 0.345763 0.941275 0.11455
H_ H_ 0.923334 0.421877 0.99739 0.11455
H_ H_ 0.942703 0.444708 0.548145 0.11455
H_ H_ 0.916683 0.387332 0.58779 0.11455
H_ H_ 0.840358 0.258901 0.503205 0.11455
H_ H_ 0.813297 0.205073 0.544915 0.11455
H_ H_ 0.831931 0.234857 0.59428 0.11455
C_ C_ 0.730856 0.186929 0.90318 0.68181
C_ C_ 0.787282 0.183805 0.89973 -0.05681
C_ C_ 0.818739 0.185877 0.92345 -0.08735
C_ C_ 0.871879 0.18135 0.920575 -0.05681
C_ C_ 0.893018 0.173979 0.8925 -0.05681
C_ C_ 0.85988 0.172059 0.868515 -0.08735
C_ C_ 0.808366 0.17706 0.87203 -0.08735
C_ C_ 0.905201 0.1837 0.94448 -0.08735
C_ C_ 0.956758 0.17909 0.940975 -0.08735
C_ C_ 0.977693 0.172392 0.913215 -0.05681
C_ C_ 0.946145 0.169902 0.889535 -0.08735
C_ C_ 0.623592 0.276433 0.91227 0.68181
C_ C_ 0.640012 0.07954 0.90089 0.68181
C_ C_ 0.637726 0.0228881 0.898185 -0.05681
C_ C_ 0.637098 0.492814 0.92248 -0.08735
C_ C_ 0.63301 0.439472 0.92048 -0.05681
C_ C_ 0.629687 0.416507 0.892605 -0.05681
C_ C_ 0.631221 0.448199 0.86799 -0.08735
C_ C_ 0.635051 0.499999 0.870665 -0.08735
C_ C_ 0.631829 0.407751 0.94505 -0.08735
C_ C_ 0.627987 0.355939 0.942465 -0.08735
C_ C_ 0.624969 0.333101 0.914935 -0.05681
C_ C_ 0.625402 0.36317 0.89061 -0.08735
C_ C_ 0.534106 0.169631 0.90958 0.68181
C_ C_ 0.613301 0.119533 0.98959 0.1947
C_ C_ 0.607346 0.105767 0.518515 -0.08735
C_ C_ 0.627573 0.136618 0.539445 -0.08735
C_ C_ 0.654353 0.181076 0.53155 -0.05681
C_ C_ 0.660417 0.19188 0.5 0.18498
C_ C_ 0.688748 0.235018 0.99296 -0.08735
C_ C_ 0.709522 0.266989 0.51325 -0.08735
C_ C_ 0.702451 0.257599 0.5428 -0.08735
C_ C_ 0.675435 0.215703 0.551735 0.18498
C_ C_ 0.709181 0.191848 0.5987 0.44287
C_ C_ 0.617389 0.215628 0.59232 0.44287
C_ C_ 0.608545 0.204057 0.622845 -0.05681
C_ C_ 0.559779 0.207894 0.633975 -0.08735
C_ C_ 0.550688 0.198097 0.663045 -0.08735
C_ C_ 0.590398 0.185079 0.68114 -0.05681
C_ C_ 0.640439 0.181121 0.67037 -0.05681
C_ C_ 0.649534 0.19022 0.6407 -0.05681
C_ C_ 0.699306 0.185143 0.6297 -0.05681
C_ C_ 0.739029 0.172512 0.647855 -0.08735
C_ C_ 0.730294 0.164317 0.67714 -0.08735
C_ C_ 0.681604 0.16813 0.688385 -0.05681
C_ C_ 0.672922 0.157668 0.719 0.44287
C_ C_ 0.579733 0.175073 0.7117 0.44287
C_ C_ 0.612075 0.148456 0.758335 0.18498
C_ C_ 0.58773 0.103533 0.7647 -0.08735
C_ C_ 0.576881 0.090827 0.79343 -0.08735
C_ C_ 0.590929 0.122587 0.815545 -0.08735
C_ C_ 0.61656 0.168631 0.809485 0.18498
C_ C_ 0.626835 0.182628 0.78036 -0.05681
C_ C_ 0.651673 0.229419 0.77514 -0.08735
C_ C_ 0.666278 0.259335 0.79786 -0.08735
C_ C_ 0.655977 0.242695 0.825925 0.1947
C_ C_ 0.769154 0.313062 0.653185 0.68181
C_ C_ 0.712729 0.316188 0.649735 -0.05681
C_ C_ 0.681271 0.314121 0.673455 -0.08735
C_ C_ 0.628131 0.318645 0.67058 -0.05681
C_ C_ 0.606994 0.326012 0.642505 -0.05681
C_ C_ 0.640132 0.327928 0.61852 -0.08735
C_ C_ 0.691647 0.322929 0.622035 -0.08735
C_ C_ 0.594808 0.316301 0.694485 -0.08735
C_ C_ 0.54325 0.320909 0.69098 -0.08735
C_ C_ 0.522317 0.327601 0.66322 -0.05681
C_ C_ 0.553866 0.330086 0.63954 -0.08735
C_ C_ 0.876417 0.223561 0.66227 0.68181
C_ C_ 0.859998 0.420449 0.650895 0.68181
C_ C_ 0.862283 0.4771 0.64819 -0.05681
C_ C_ 0.862909 0.00718587 0.672485 -0.08735
C_ C_ 0.866998 0.0605276 0.670485 -0.05681
C_ C_ 0.870324 0.0834769 0.64261 -0.05681
C_ C_ 0.868791 0.0517725 0.617995 -0.08735
C_ C_ 0.864961 0.499974 0.62067 -0.08735
C_ C_ 0.868177 0.0922604 0.69509 -0.08735
C_ C_ 0.87202 0.144072 0.692465 -0.08735
C_ C_ 0.875041 0.166895 0.664935 -0.05681
C_ C_ 0.874609 0.136813 0.640615 -0.08735
C_ C_ 0.965904 0.330362 0.659585 0.68181
C_ C_ 0.886687 0.380472 0.739605 0.1947
C_ C_ 0.892645 0.394243 0.768525 -0.08735
C_ C_ 0.872425 0.363388 0.78945 -0.08735
C_ C_ 0.845653 0.318927 0.78156 -0.05681
C_ C_ 0.839585 0.308117 0.7516 0.18498
C_ C_ 0.81126 0.264976 0.74296 -0.08735
C_ C_ 0.790497 0.233005 0.76325 -0.08735
C_ C_ 0.797568 0.242394 0.79279 -0.08735
C_ C_ 0.824578 0.284295 0.80173 0.18498
C_ C_ 0.79083 0.308146 0.8487 0.44287
C_ C_ 0.882623 0.284366 0.84232 0.44287
C_ C_ 0.891466 0.295932 0.87284 -0.05681
C_ C_ 0.940232 0.292094 0.88395 -0.08735
C_ C_ 0.949323 0.30189 0.913045 -0.08735
C_ C_ 0.909612 0.314905 0.93114 -0.05681
C_ C_ 0.859571 0.318862 0.92037 -0.05681
C_ C_ 0.850477 0.309768 0.8907 -0.05681
C_ C_ 0.800703 0.314845 0.879705 -0.05681
C_ C_ 0.760981 0.327471 0.89786 -0.08735
C_ C_ 0.769716 0.33566 0.927 -0.08735
C_ C_ 0.818407 0.33185 0.93839 -0.05681
C_ C_ 0.82709 0.342312 0.969155 0.44287
C_ C_ 0.920279 0.32491 0.96172 0.44287
C_ C_ 0.887946 0.351522 0.508345 0.18498
C_ C_ 0.912293 0.396443 0.5147 -0.08735
C_ C_ 0.923146 0.409147 0.54345 -0.08735
C_ C_ 0.909099 0.377385 0.56556 -0.08735
C_ C_ 0.883464 0.331344 0.559495 0.18498
C_ C_ 0.873188 0.317348 0.53037 -0.05681
C_ C_ 0.848352 0.270556 0.525145 -0.08735
C_ C_ 0.833748 0.240639 0.547855 -0.08735
C_ C_ 0.844047 0.25728 0.575925 0.1947
N_ N_ 0.638852 0.1607 0.98131 -0.29468
N_ N_ 0.667269 0.206836 0.581895 -0.17154
N_ N_ 0.622203 0.161099 0.728775 -0.17154
N_ N_ 0.631791 0.199408 0.83171 -0.29468
N_ N_ 0.861144 0.339301 0.731315 -0.29468
N_ N_ 0.832744 0.293159 0.83189 -0.17154
N_ N_ 0.87781 0.338878 0.97878 -0.17154
N_ N_ 0.868233 0.300566 0.581715 -0.29468
O_ O_ 0.713536 0.184444 0.92864 -0.58347
O_ O_ 0.7049 0.191325 0.880355 -0.58347
O_ O_ 0.628913 0.251331 0.93534 -0.58347
O_ O_ 0.618078 0.257912 0.887265 -0.58347
O_ O_ 0.643825 0.0978676 0.92604 -0.58347
O_ O_ 0.63747 0.104826 0.877665 -0.58347
O_ O_ 0.560141 0.166656 0.93246 -0.58347
O_ O_ 0.551236 0.17107 0.88403 -0.58347
O_ O_ 0.584359 0.231083 0.576145 -0.46727
O_ O_ 0.75072 0.184481 0.5876 -0.46727
O_ O_ 0.537531 0.178005 0.72244 -0.46727
O_ O_ 0.706943 0.146565 0.735955 -0.46727
O_ O_ 0.786474 0.315549 0.678645 -0.58347
O_ O_ 0.795111 0.308666 0.63036 -0.58347
O_ O_ 0.871098 0.248669 0.685345 -0.58347
O_ O_ 0.881931 0.242077 0.63727 -0.58347
O_ O_ 0.856184 0.402128 0.676045 -0.58347
O_ O_ 0.862541 0.395158 0.62765 -0.58347
O_ O_ 0.939868 0.333337 0.682465 -0.58347
O_ O_ 0.948776 0.32892 0.634035 -0.58347
O_ O_ 0.915654 0.268911 0.82614 -0.46727
O_ O_ 0.749294 0.315514 0.83761 -0.46727
O_ O_ 0.962483 0.321983 0.97244 -0.46727
O_ O_ 0.793072 0.353419 0.985965 -0.46727
Zn Zn 0.626821 0.682297 0.375185 0.90689
Zn Zn 0.637892 0.673646 0.437315 0.90689
Zn Zn 0.87319 0.81769 0.12519 0.90689
Zn Zn 0.862117 0.826351 0.18732 0.90689
H_ H_ 0.801795 0.690478 0.444595 0.11455
H_ H_ 0.876151 0.666744 0.34724 0.11455
H_ H_ 0.782442 0.675243 0.353905 0.11455
H_ H_ 0.88915 0.689262 0.465805 0.11455
H_ H_ 0.982564 0.681309 0.45914 0.11455
H_ H_ 0.96286 0.665441 0.36833 0.11455
H_ H_ 0.639699 0.510869 0.44344 0.11455
H_ H_ 0.62938 0.930588 0.34685 0.11455
H_ H_ 0.636235 0.524497 0.351905 0.11455
H_ H_ 0.634169 0.925259 0.466235 0.11455
H_ H_ 0.62713 0.831463 0.461235 0.11455
H_ H_ 0.622958 0.845137 0.369635 0.11455
H_ H_ 0.597116 0.596556 0.472415 0.11455
H_ H_ 0.586608 0.571241 0.02391 0.11455
H_ H_ 0.62313 0.627062 0.0620151 0.11455
H_ H_ 0.693302 0.742475 0.47015 0.11455
H_ H_ 0.731444 0.80009 0.00650006 0.11455
H_ H_ 0.718498 0.783398 0.058645 0.11455
H_ H_ 0.529001 0.719031 0.11982 0.11455
H_ H_ 0.51266 0.700985 0.171955 0.11455
H_ H_ 0.776985 0.668781 0.13902 0.11455
H_ H_ 0.761479 0.654211 0.191265 0.11455
H_ H_ 0.576683 0.578097 0.247375 0.11455
H_ H_ 0.557327 0.555264 0.29812 0.11455
H_ H_ 0.58335 0.612638 0.337775 0.11455
H_ H_ 0.659667 0.741074 0.253205 0.11455
H_ H_ 0.686731 0.7949 0.29492 0.11455
H_ H_ 0.668093 0.765118 0.34428 0.11455
H_ H_ 0.698213 0.809523 0.1945 0.11455
H_ H_ 0.623863 0.833239 0.097245 0.11455
H_ H_ 0.717572 0.824741 0.10391 0.11455
H_ H_ 0.610856 0.810743 0.21581 0.11455
H_ H_ 0.517443 0.818693 0.209145 0.11455
H_ H_ 0.537153 0.834543 0.118335 0.11455
H_ H_ 0.860306 0.989142 0.193445 0.11455
H_ H_ 0.870636 0.569372 0.096855 0.11455
H_ H_ 0.863779 0.975466 0.1019 0.11455
H_ H_ 0.865835 0.574764 0.21624 0.11455
H_ H_ 0.872876 0.668557 0.21124 0.11455
H_ H_ 0.877055 0.654836 0.119635 0.11455
H_ H_ 0.902869 0.903452 0.222435 0.11455
H_ H_ 0.913377 0.928773 0.27392 0.11455
H_ H_ 0.876867 0.872945 0.31202 0.11455
H_ H_ 0.806704 0.757519 0.220185 0.11455
H_ H_ 0.768578 0.6999 0.256525 0.11455
H_ H_ 0.781526 0.716592 0.30863 0.11455
H_ H_ 0.971009 0.780958 0.369815 0.11455
H_ H_ -0.012649000000000021 0.799002 0.42195 0.11455
H_ H_ 0.723025 0.831202 0.38903 0.11455
H_ H_ 0.738531 0.845763 0.441275 0.11455
H_ H_ 0.923334 0.921877 0.49739 0.11455
H_ H_ 0.942703 0.944708 0.048145 0.11455
H_ H_ 0.916683 0.887332 0.08779 0.11455
H_ H_ 0.840358 0.758901 0.00320494 0.11455
H_ H_ 0.813297 0.705073 0.0449149 0.11455
H_ H_ 0.831931 0.734857 0.09428 0.11455
C_ C_ 0.730856 0.686929 0.40318 0.68181
C_ C_ 0.787282 0.683805 0.39973 -0.05681
C_ C_ 0.818738 0.685877 0.42345 -0.08735
C_ C_ 0.871879 0.68135 0.420575 -0.05681
C_ C_ 0.893018 0.673979 0.3925 -0.05681
C_ C_ 0.85988 0.672059 0.368515 -0.08735
C_ C_ 0.808366 0.67706 0.37203 -0.08735
C_ C_ 0.9052 0.6837 0.44448 -0.08735
C_ C_ 0.956758 0.67909 0.440975 -0.08735
C_ C_ 0.977693 0.672392 0.413215 -0.05681
C_ C_ 0.946145 0.669902 0.389535 -0.08735
C_ C_ 0.623592 0.776433 0.41227 0.68181
C_ C_ 0.640012 0.57954 0.40089 0.68181
C_ C_ 0.637726 0.522888 0.398185 -0.05681
C_ C_ 0.637098 0.992814 0.42248 -0.08735
C_ C_ 0.63301 0.939472 0.42048 -0.05681
C_ C_ 0.629688 0.916508 0.392605 -0.05681
C_ C_ 0.631222 0.948199 0.36799 -0.08735
C_ C_ 0.635051 0.999999 0.370665 -0.08735
C_ C_ 0.631829 0.907751 0.44505 -0.08735
C_ C_ 0.627987 0.855939 0.442465 -0.08735
C_ C_ 0.624969 0.833101 0.414935 -0.05681
C_ C_ 0.625402 0.86317 0.39061 -0.08735
C_ C_ 0.534106 0.669631 0.40958 0.68181
C_ C_ 0.613301 0.619533 0.48959 0.1947
C_ C_ 0.607346 0.605767 0.0185149 -0.08735
C_ C_ 0.627573 0.636618 0.0394449 -0.08735
C_ C_ 0.654353 0.681076 0.03155 -0.05681
C_ C_ 0.660417 0.69188 1.0 0.18498
C_ C_ 0.688748 0.735018 0.49296 -0.08735
C_ C_ 0.709521 0.766989 0.0132499 -0.08735
C_ C_ 0.702451 0.7576 0.0428 -0.08735
C_ C_ 0.675435 0.715703 0.0517351 0.18498
C_ C_ 0.709181 0.691848 0.0987 0.44287
C_ C_ 0.617389 0.715628 0.0923199 0.44287
C_ C_ 0.608545 0.704057 0.122845 -0.05681
C_ C_ 0.559779 0.707894 0.133975 -0.08735
C_ C_ 0.550688 0.698097 0.163045 -0.08735
C_ C_ 0.590398 0.685079 0.18114 -0.05681
C_ C_ 0.640439 0.681121 0.17037 -0.05681
C_ C_ 0.649534 0.690219 0.1407 -0.05681
C_ C_ 0.699306 0.685143 0.1297 -0.05681
C_ C_ 0.739029 0.672512 0.147855 -0.08735
C_ C_ 0.730294 0.664317 0.17714 -0.08735
C_ C_ 0.681604 0.66813 0.188385 -0.05681
C_ C_ 0.672922 0.657668 0.219 0.44287
C_ C_ 0.579733 0.675073 0.2117 0.44287
C_ C_ 0.612075 0.648456 0.258335 0.18498
C_ C_ 0.58773 0.603534 0.2647 -0.08735
C_ C_ 0.576881 0.590827 0.29343 -0.08735
C_ C_ 0.590929 0.622588 0.315545 -0.08735
C_ C_ 0.616561 0.668631 0.309485 0.18498
C_ C_ 0.626835 0.682628 0.28036 -0.05681
C_ C_ 0.651673 0.729419 0.27514 -0.08735
C_ C_ 0.666278 0.759335 0.29786 -0.08735
C_ C_ 0.655978 0.742695 0.325925 0.1947
C_ C_ 0.769154 0.813063 0.153185 0.68181
C_ C_ 0.712729 0.816188 0.149735 -0.05681
C_ C_ 0.681271 0.81412 0.173455 -0.08735
C_ C_ 0.628131 0.818645 0.17058 -0.05681
C_ C_ 0.606994 0.826012 0.142505 -0.05681
C_ C_ 0.640132 0.827928 0.11852 -0.08735
C_ C_ 0.691647 0.822929 0.122035 -0.08735
C_ C_ 0.594808 0.8163 0.194485 -0.08735
C_ C_ 0.54325 0.820909 0.19098 -0.08735
C_ C_ 0.522317 0.827602 0.16322 -0.05681
C_ C_ 0.553866 0.830086 0.13954 -0.08735
C_ C_ 0.876417 0.723561 0.16227 0.68181
C_ C_ 0.859998 0.920449 0.150895 0.68181
C_ C_ 0.862284 0.9771 0.14819 -0.05681
C_ C_ 0.862909 0.507186 0.172485 -0.08735
C_ C_ 0.866998 0.560528 0.170485 -0.05681
C_ C_ 0.870324 0.583477 0.14261 -0.05681
C_ C_ 0.868791 0.551772 0.117995 -0.08735
C_ C_ 0.864962 0.999974 0.12067 -0.08735
C_ C_ 0.868177 0.59226 0.19509 -0.08735
C_ C_ 0.872021 0.644072 0.192465 -0.08735
C_ C_ 0.875041 0.666895 0.164935 -0.05681
C_ C_ 0.874609 0.636812 0.140615 -0.08735
C_ C_ 0.965903 0.830362 0.159585 0.68181
C_ C_ 0.886687 0.880472 0.239605 0.1947
C_ C_ 0.892645 0.894243 0.268525 -0.08735
C_ C_ 0.872425 0.863388 0.28945 -0.08735
C_ C_ 0.845653 0.818927 0.28156 -0.05681
C_ C_ 0.839585 0.808117 0.2516 0.18498
C_ C_ 0.81126 0.764976 0.24296 -0.08735
C_ C_ 0.790497 0.733005 0.26325 -0.08735
C_ C_ 0.797568 0.742394 0.29279 -0.08735
C_ C_ 0.824578 0.784295 0.30173 0.18498
C_ C_ 0.790831 0.808146 0.3487 0.44287
C_ C_ 0.882623 0.784365 0.34232 0.44287
C_ C_ 0.891466 0.795933 0.37284 -0.05681
C_ C_ 0.940232 0.792094 0.38395 -0.08735
C_ C_ 0.949323 0.80189 0.413045 -0.08735
C_ C_ 0.909613 0.814905 0.43114 -0.05681
C_ C_ 0.859571 0.818862 0.42037 -0.05681
C_ C_ 0.850477 0.809768 0.3907 -0.05681
C_ C_ 0.800703 0.814845 0.379705 -0.05681
C_ C_ 0.760981 0.82747 0.39786 -0.08735
C_ C_ 0.769716 0.83566 0.427 -0.08735
C_ C_ 0.818407 0.83185 0.43839 -0.05681
C_ C_ 0.82709 0.842312 0.469155 0.44287
C_ C_ 0.920279 0.82491 0.46172 0.44287
C_ C_ 0.887945 0.851522 0.00834504 0.18498
C_ C_ 0.912293 0.896443 0.0147001 -0.08735
C_ C_ 0.923146 0.909146 0.04345 -0.08735
C_ C_ 0.909099 0.877385 0.06556 -0.08735
C_ C_ 0.883464 0.831344 0.0594951 0.18498
C_ C_ 0.873188 0.817348 0.03037 -0.05681
C_ C_ 0.848351 0.770556 0.025145 -0.08735
C_ C_ 0.833748 0.740638 0.0478551 -0.08735
C_ C_ 0.844047 0.75728 0.0759251 0.1947
N_ N_ 0.638852 0.6607 0.48131 -0.29468
N_ N_ 0.667269 0.706836 0.0818949 -0.17154
N_ N_ 0.622203 0.661099 0.228775 -0.17154
N_ N_ 0.631792 0.699409 0.33171 -0.29468
N_ N_ 0.861144 0.839301 0.231315 -0.29468
N_ N_ 0.832744 0.793159 0.33189 -0.17154
N_ N_ 0.87781 0.838878 0.47878 -0.17154
N_ N_ 0.868233 0.800566 0.0817149 -0.29468
O_ O_ 0.713536 0.684445 0.42864 -0.58347
O_ O_ 0.7049 0.691325 0.380355 -0.58347
O_ O_ 0.628913 0.751331 0.43534 -0.58347
O_ O_ 0.618078 0.757911 0.387265 -0.58347
O_ O_ 0.643825 0.597868 0.42604 -0.58347
O_ O_ 0.63747 0.604826 0.377665 -0.58347
O_ O_ 0.560141 0.666657 0.43246 -0.58347
O_ O_ 0.551236 0.67107 0.38403 -0.58347
O_ O_ 0.584359 0.731083 0.0761451 -0.46727
O_ O_ 0.75072 0.684481 0.0875999 -0.46727
O_ O_ 0.537531 0.678005 0.22244 -0.46727
O_ O_ 0.706943 0.646565 0.235955 -0.46727
O_ O_ 0.786474 0.81555 0.178645 -0.58347
O_ O_ 0.795111 0.808666 0.13036 -0.58347
O_ O_ 0.871098 0.748669 0.185345 -0.58347
O_ O_ 0.881931 0.742077 0.13727 -0.58347
O_ O_ 0.856185 0.902128 0.176045 -0.58347
O_ O_ 0.862541 0.895158 0.12765 -0.58347
O_ O_ 0.939868 0.833337 0.182465 -0.58347
O_ O_ 0.948776 0.82892 0.134035 -0.58347
O_ O_ 0.915654 0.768911 0.32614 -0.46727
O_ O_ 0.749294 0.815514 0.33761 -0.46727
O_ O_ 0.962482 0.821983 0.47244 -0.46727
O_ O_ 0.793072 0.853419 0.485965 -0.46727
Zn Zn 0.626822 0.682297 0.875185 0.90689
Zn Zn 0.637892 0.673646 0.937315 0.90689
Zn Zn 0.873191 0.81769 0.62519 0.90689
Zn Zn 0.862117 0.826351 0.68732 0.90689
H_ H_ 0.801795 0.690478 0.944595 0.11455
H_ H_ 0.876151 0.666744 0.84724 0.11455
H_ H_ 0.782442 0.675243 0.853905 0.11455
H_ H_ 0.88915 0.689261 0.965805 0.11455
H_ H_ 0.982564 0.681309 0.95914 0.11455
H_ H_ 0.96286 0.66544 0.86833 0.11455
H_ H_ 0.6397 0.510869 0.94344 0.11455
H_ H_ 0.629379 0.930588 0.84685 0.11455
H_ H_ 0.636234 0.524497 0.851905 0.11455
H_ H_ 0.634169 0.925259 0.966235 0.11455
H_ H_ 0.62713 0.831463 0.961235 0.11455
H_ H_ 0.622958 0.845136 0.869635 0.11455
H_ H_ 0.597116 0.596557 0.972415 0.11455
H_ H_ 0.586608 0.571242 0.52391 0.11455
H_ H_ 0.62313 0.627061 0.562015 0.11455
H_ H_ 0.693302 0.742475 0.97015 0.11455
H_ H_ 0.731445 0.80009 0.5065 0.11455
H_ H_ 0.718498 0.783398 0.558645 0.11455
H_ H_ 0.529001 0.719031 0.61982 0.11455
H_ H_ 0.51266 0.700985 0.671955 0.11455
H_ H_ 0.776985 0.668781 0.63902 0.11455
H_ H_ 0.761478 0.654211 0.691265 0.11455
H_ H_ 0.576683 0.578097 0.747375 0.11455
H_ H_ 0.557327 0.555264 0.79812 0.11455
H_ H_ 0.583351 0.612638 0.837775 0.11455
H_ H_ 0.659667 0.741074 0.753205 0.11455
H_ H_ 0.686731 0.794899 0.79492 0.11455
H_ H_ 0.668093 0.765119 0.84428 0.11455
H_ H_ 0.698213 0.809523 0.6945 0.11455
H_ H_ 0.623863 0.833239 0.597245 0.11455
H_ H_ 0.717572 0.824741 0.60391 0.11455
H_ H_ 0.610856 0.810743 0.71581 0.11455
H_ H_ 0.517443 0.818693 0.709145 0.11455
H_ H_ 0.537153 0.834544 0.618335 0.11455
H_ H_ 0.860307 0.989142 0.693445 0.11455
H_ H_ 0.870635 0.569372 0.596855 0.11455
H_ H_ 0.863779 0.975466 0.6019 0.11455
H_ H_ 0.865835 0.574764 0.71624 0.11455
H_ H_ 0.872876 0.668557 0.71124 0.11455
H_ H_ 0.877055 0.654836 0.619635 0.11455
H_ H_ 0.902868 0.903452 0.722435 0.11455
H_ H_ 0.913376 0.928774 0.77392 0.11455
H_ H_ 0.876867 0.872945 0.81202 0.11455
H_ H_ 0.806704 0.757519 0.720185 0.11455
H_ H_ 0.768578 0.6999 0.756525 0.11455
H_ H_ 0.781526 0.716592 0.80863 0.11455
H_ H_ 0.97101 0.780958 0.869815 0.11455
H_ H_ 0.987351 0.799002 0.92195 0.11455
H_ H_ 0.723025 0.831202 0.88903 0.11455
H_ H_ 0.738531 0.845763 0.941275 0.11455
H_ H_ 0.923335 0.921877 0.99739 0.11455
H_ H_ 0.942703 0.944708 0.548145 0.11455
H_ H_ 0.916682 0.887332 0.58779 0.11455
H_ H_ 0.840358 0.758902 0.503205 0.11455
H_ H_ 0.813297 0.705073 0.544915 0.11455
H_ H_ 0.831931 0.734857 0.59428 0.11455
C_ C_ 0.730856 0.686929 0.90318 0.68181
C_ C_ 0.787282 0.683805 0.89973 -0.05681
C_ C_ 0.818739 0.685876 0.92345 -0.08735
C_ C_ 0.871878 0.68135 0.920575 -0.05681
C_ C_ 0.893018 0.673979 0.8925 -0.05681
C_ C_ 0.859881 0.672059 0.868515 -0.08735
C_ C_ 0.808366 0.67706 0.87203 -0.08735
C_ C_ 0.905201 0.6837 0.94448 -0.08735
C_ C_ 0.956758 0.67909 0.940975 -0.08735
C_ C_ 0.977693 0.672392 0.913215 -0.05681
C_ C_ 0.946145 0.669902 0.889535 -0.08735
C_ C_ 0.623592 0.776433 0.91227 0.68181
C_ C_ 0.640012 0.57954 0.90089 0.68181
C_ C_ 0.637726 0.522888 0.898185 -0.05681
C_ C_ 0.637099 -0.007186000000000026 0.92248 -0.08735
C_ C_ 0.63301 0.939472 0.92048 -0.05681
C_ C_ 0.629687 0.916508 0.892605 -0.05681
C_ C_ 0.631221 0.948199 0.86799 -0.08735
C_ C_ 0.635051 -1.0000000000287557e-06 0.870665 -0.08735
C_ C_ 0.63183 0.907751 0.94505 -0.08735
C_ C_ 0.627987 0.855938 0.942465 -0.08735
C_ C_ 0.624969 0.833101 0.914935 -0.05681
C_ C_ 0.625403 0.86317 0.89061 -0.08735
C_ C_ 0.534106 0.669631 0.90958 0.68181
C_ C_ 0.613301 0.619533 0.98959 0.1947
C_ C_ 0.607346 0.605768 0.518515 -0.08735
C_ C_ 0.627572 0.636617 0.539445 -0.08735
C_ C_ 0.654353 0.681075 0.53155 -0.05681
C_ C_ 0.660417 0.69188 0.5 0.18498
C_ C_ 0.688749 0.735018 0.99296 -0.08735
C_ C_ 0.709522 0.766989 0.51325 -0.08735
C_ C_ 0.702451 0.7576 0.5428 -0.08735
C_ C_ 0.675435 0.715702 0.551735 0.18498
C_ C_ 0.709182 0.691847 0.5987 0.44287
C_ C_ 0.617389 0.715628 0.59232 0.44287
C_ C_ 0.608545 0.704057 0.622845 -0.05681
C_ C_ 0.559779 0.707894 0.633975 -0.08735
C_ C_ 0.550688 0.698097 0.663045 -0.08735
C_ C_ 0.590399 0.685079 0.68114 -0.05681
C_ C_ 0.640439 0.681121 0.67037 -0.05681
C_ C_ 0.649534 0.690219 0.6407 -0.05681
C_ C_ 0.699306 0.685143 0.6297 -0.05681
C_ C_ 0.739029 0.672512 0.647855 -0.08735
C_ C_ 0.730294 0.664317 0.67714 -0.08735
C_ C_ 0.681604 0.66813 0.688385 -0.05681
C_ C_ 0.672922 0.657668 0.719 0.44287
C_ C_ 0.579733 0.675074 0.7117 0.44287
C_ C_ 0.612075 0.648456 0.758335 0.18498
C_ C_ 0.58773 0.603534 0.7647 -0.08735
C_ C_ 0.576881 0.590827 0.79343 -0.08735
C_ C_ 0.590929 0.622588 0.815545 -0.08735
C_ C_ 0.61656 0.668631 0.809485 0.18498
C_ C_ 0.626835 0.682628 0.78036 -0.05681
C_ C_ 0.651673 0.72942 0.77514 -0.08735
C_ C_ 0.666278 0.759335 0.79786 -0.08735
C_ C_ 0.655977 0.742695 0.825925 0.1947
C_ C_ 0.769155 0.813063 0.653185 0.68181
C_ C_ 0.712729 0.816188 0.649735 -0.05681
C_ C_ 0.681271 0.81412 0.673455 -0.08735
C_ C_ 0.628131 0.818645 0.67058 -0.05681
C_ C_ 0.606994 0.826012 0.642505 -0.05681
C_ C_ 0.640132 0.827928 0.61852 -0.08735
C_ C_ 0.691647 0.822929 0.622035 -0.08735
C_ C_ 0.594807 0.8163 0.694485 -0.08735
C_ C_ 0.54325 0.820909 0.69098 -0.08735
C_ C_ 0.522318 0.827602 0.66322 -0.05681
C_ C_ 0.553866 0.830086 0.63954 -0.08735
C_ C_ 0.876417 0.723561 0.66227 0.68181
C_ C_ 0.859998 0.920449 0.650895 0.68181
C_ C_ 0.862283 0.9771 0.64819 -0.05681
C_ C_ 0.862909 0.507186 0.672485 -0.08735
C_ C_ 0.866998 0.560528 0.670485 -0.05681
C_ C_ 0.870324 0.583477 0.64261 -0.05681
C_ C_ 0.868791 0.551772 0.617995 -0.08735
C_ C_ 0.864961 0.999974 0.62067 -0.08735
C_ C_ 0.868177 0.592261 0.69509 -0.08735
C_ C_ 0.87202 0.644072 0.692465 -0.08735
C_ C_ 0.875041 0.666895 0.664935 -0.05681
C_ C_ 0.874609 0.636812 0.640615 -0.08735
C_ C_ 0.965904 0.830363 0.659585 0.68181
C_ C_ 0.886687 0.880472 0.739605 0.1947
C_ C_ 0.892645 0.894243 0.768525 -0.08735
C_ C_ 0.872425 0.863389 0.78945 -0.08735
C_ C_ 0.845653 0.818926 0.78156 -0.05681
C_ C_ 0.839585 0.808117 0.7516 0.18498
C_ C_ 0.811259 0.764976 0.74296 -0.08735
C_ C_ 0.790496 0.733005 0.76325 -0.08735
C_ C_ 0.797568 0.742394 0.79279 -0.08735
C_ C_ 0.824578 0.784295 0.80173 0.18498
C_ C_ 0.79083 0.808146 0.8487 0.44287
C_ C_ 0.882623 0.784365 0.84232 0.44287
C_ C_ 0.891466 0.795933 0.87284 -0.05681
C_ C_ 0.940232 0.792094 0.88395 -0.08735
C_ C_ 0.949323 0.80189 0.913045 -0.08735
C_ C_ 0.909612 0.814905 0.93114 -0.05681
C_ C_ 0.859571 0.818862 0.92037 -0.05681
C_ C_ 0.850476 0.809768 0.8907 -0.05681
C_ C_ 0.800703 0.814845 0.879705 -0.05681
C_ C_ 0.760981 0.82747 0.89786 -0.08735
C_ C_ 0.769717 0.835661 0.927 -0.08735
C_ C_ 0.818407 0.83185 0.93839 -0.05681
C_ C_ 0.82709 0.842312 0.969155 0.44287
C_ C_ 0.920279 0.824909 0.96172 0.44287
C_ C_ 0.887946 0.851522 0.508345 0.18498
C_ C_ 0.912293 0.896444 0.5147 -0.08735
C_ C_ 0.923147 0.909146 0.54345 -0.08735
C_ C_ 0.9091 0.877385 0.56556 -0.08735
C_ C_ 0.883464 0.831344 0.559495 0.18498
C_ C_ 0.873188 0.817348 0.53037 -0.05681
C_ C_ 0.848352 0.770556 0.525145 -0.08735
C_ C_ 0.833748 0.740638 0.547855 -0.08735
C_ C_ 0.844047 0.757279 0.575925 0.1947
N_ N_ 0.638852 0.6607 0.98131 -0.29468
N_ N_ 0.667269 0.706836 0.581895 -0.17154
N_ N_ 0.622203 0.661098 0.728775 -0.17154
N_ N_ 0.631791 0.699409 0.83171 -0.29468
N_ N_ 0.861144 0.839301 0.731315 -0.29468
N_ N_ 0.832744 0.79316 0.83189 -0.17154
N_ N_ 0.87781 0.838878 0.97878 -0.17154
N_ N_ 0.868233 0.800566 0.581715 -0.29468
O_ O_ 0.713536 0.684445 0.92864 -0.58347
O_ O_ 0.7049 0.691325 0.880355 -0.58347
O_ O_ 0.628912 0.751331 0.93534 -0.58347
O_ O_ 0.618078 0.757911 0.887265 -0.58347
O_ O_ 0.643825 0.597868 0.92604 -0.58347
O_ O_ 0.63747 0.604825 0.877665 -0.58347
O_ O_ 0.560141 0.666657 0.93246 -0.58347
O_ O_ 0.551236 0.67107 0.88403 -0.58347
O_ O_ 0.584358 0.731083 0.576145 -0.46727
O_ O_ 0.75072 0.684481 0.5876 -0.46727
O_ O_ 0.537531 0.678004 0.72244 -0.46727
O_ O_ 0.706942 0.646565 0.735955 -0.46727
O_ O_ 0.786474 0.81555 0.678645 -0.58347
O_ O_ 0.795111 0.808666 0.63036 -0.58347
O_ O_ 0.871098 0.748669 0.685345 -0.58347
O_ O_ 0.881931 0.742077 0.63727 -0.58347
O_ O_ 0.856184 0.902129 0.676045 -0.58347
O_ O_ 0.862541 0.895158 0.62765 -0.58347
O_ O_ 0.939867 0.833337 0.682465 -0.58347
O_ O_ 0.948776 0.82892 0.634035 -0.58347
O_ O_ 0.915654 0.768911 0.82614 -0.46727
O_ O_ 0.749294 0.815514 0.83761 -0.46727
O_ O_ 0.962483 0.821984 0.97244 -0.46727
O_ O_ 0.793072 0.853419 0.985965 -0.46727
