_cell_length_a 26.376
_cell_length_b 26.400000238300095
_cell_length_c 46.67800035477134
_cell_angle_alpha 90.00700052986613
_cell_angle_beta 89.99899961309502
_cell_angle_gamma 90.45000003183146
_symmetry_space_group_name_H-M         'P 1'
_symmetry_Int_Tables_number            1
loop_
_symmetry_equiv_pos_as_xyz
   'x, y, z'
                         
loop_
_atom_site_label
_atom_site_type_symbol
_atom_site_fract_x 
_atom_site_fract_y
_atom_site_fract_z
_atom_site_charge
Zn Zn 0.123021 0.183667 0.384521 0.90689
Zn Zn 0.131942 0.177881 0.432026 0.90689
Zn Zn 0.372296 0.318059 0.133802 0.90689
Zn Zn 0.361907 0.318389 0.180428 0.90689
H_ H_ 0.302378 0.202105 0.443352 0.11455
H_ H_ 0.363418 0.159818 0.347044 0.11455
H_ H_ 0.273714 0.148617 0.357704 0.11455
H_ H_ 0.386296 0.199486 0.463341 0.11455
H_ H_ 0.480135 0.197102 0.452415 0.11455
H_ H_ 0.451561 0.146722 0.367114 0.11455
H_ H_ 0.1172 0.0125735 0.442554 0.11455
H_ H_ 0.107339 0.431265 0.353161 0.11455
H_ H_ 0.142882 0.0149432 0.350181 0.11455
H_ H_ 0.16931 0.431957 0.464062 0.11455
H_ H_ 0.147194 0.337172 0.465813 0.11455
H_ H_ 0.105544 0.350536 0.376893 0.11455
H_ H_ 0.0679219 0.114077 0.468241 0.11455
H_ H_ 0.072425 0.0759167 0.014665 0.11455
H_ H_ 0.0983913 0.124687 0.0571485 0.11455
H_ H_ 0.198928 0.237061 0.474058 0.11455
H_ H_ 0.226244 0.29486 0.0133271 0.11455
H_ H_ 0.205918 0.275649 0.0661795 0.11455
H_ H_ 0.0082412 0.171408 0.12395 0.11455
H_ H_ -0.0010539999999999994 0.168323 0.178996 0.11455
H_ H_ 0.262337 0.191352 0.141994 0.11455
H_ H_ 0.252974 0.171472 0.193665 0.11455
H_ H_ 0.0678424 0.0782848 0.254423 0.11455
H_ H_ 0.0431397 0.0584076 0.302462 0.11455
H_ H_ 0.0703118 0.111276 0.344099 0.11455
H_ H_ 0.156839 0.240346 0.260351 0.11455
H_ H_ 0.181042 0.294881 0.299783 0.11455
H_ H_ 0.180509 0.258874 0.349833 0.11455
H_ H_ 0.19417 0.292615 0.195634 0.11455
H_ H_ 0.125199 0.340914 0.101208 0.11455
H_ H_ 0.217515 0.344023 0.108962 0.11455
H_ H_ 0.110467 0.288834 0.215542 0.11455
H_ H_ 0.0190748 0.293863 0.209231 0.11455
H_ H_ 0.0398299 0.317085 0.117185 0.11455
H_ H_ 0.342547 0.48023 0.193383 0.11455
H_ H_ 0.323541 0.0738659 0.105163 0.11455
H_ H_ 0.345173 0.473033 0.102618 0.11455
H_ H_ 0.43337 0.0675617 0.206475 0.11455
H_ H_ 0.420051 0.161598 0.205627 0.11455
H_ H_ 0.346145 0.153206 0.125229 0.11455
H_ H_ 0.416193 0.389611 0.214162 0.11455
H_ H_ 0.415491 0.431897 0.263931 0.11455
H_ H_ 0.385226 0.380712 0.305917 0.11455
H_ H_ 0.300825 0.257922 0.223625 0.11455
H_ H_ 0.282371 0.198182 0.259466 0.11455
H_ H_ 0.300754 0.215697 0.31113 0.11455
H_ H_ 0.489341 0.293929 0.371142 0.11455
H_ H_ 0.503972 0.303738 0.422687 0.11455
H_ H_ 0.238495 0.338998 0.387443 0.11455
H_ H_ 0.249549 0.326304 0.439643 0.11455
H_ H_ 0.42929 0.412313 0.499716 0.11455
H_ H_ 0.441922 0.447376 0.0552058 0.11455
H_ H_ 0.427971 0.383842 0.091326 0.11455
H_ H_ 0.367554 0.250852 0.00868923 0.11455
H_ H_ 0.339821 0.196109 0.0504361 0.11455
H_ H_ 0.334357 0.236538 0.0983991 0.11455
C_ C_ 0.224063 0.179102 0.405939 0.68181
C_ C_ 0.278077 0.179057 0.399663 -0.05681
C_ C_ 0.312655 0.188358 0.422583 -0.08735
C_ C_ 0.365213 0.18926 0.418407 -0.05681
C_ C_ 0.384598 0.176406 0.390503 -0.05681
C_ C_ 0.350371 0.168356 0.367955 -0.08735
C_ C_ 0.29778 0.168223 0.373079 -0.08735
C_ C_ 0.399017 0.192181 0.441713 -0.08735
C_ C_ 0.451486 0.192891 0.434607 -0.08735
C_ C_ 0.469464 0.172927 0.409136 -0.05681
C_ C_ 0.437392 0.168661 0.386185 -0.08735
C_ C_ 0.128238 0.279928 0.416676 0.68181
C_ C_ 0.132673 0.0822963 0.400283 0.68181
C_ C_ 0.130115 0.0264594 0.396676 -0.05681
C_ C_ 0.163133 0.493145 0.421879 -0.08735
C_ C_ 0.155279 0.440385 0.420807 -0.05681
C_ C_ 0.133225 0.417572 0.396055 -0.05681
C_ C_ 0.122437 0.448667 0.372648 -0.08735
C_ C_ 0.133943 0.499326 0.37276 -0.08735
C_ C_ 0.165638 0.410155 0.444505 -0.08735
C_ C_ 0.152707 0.358421 0.444604 -0.08735
C_ C_ 0.131081 0.33561 0.419921 -0.05681
C_ C_ 0.124959 0.363773 0.394883 -0.08735
C_ C_ 0.029315 0.173909 0.409246 0.68181
C_ C_ 0.0936388 0.125651 0.484463 0.1947
C_ C_ 0.0839158 0.112661 0.0113091 -0.08735
C_ C_ 0.104108 0.138093 0.0351067 -0.08735
C_ C_ 0.130248 0.184794 0.030808 -0.05681
C_ C_ 0.14309 0.198505 1.00214962 0.18498
C_ C_ 0.191985 0.220784 0.496707 -0.08735
C_ C_ 0.1962 0.267972 0.0203984 -0.08735
C_ C_ 0.18398 0.255317 0.0484544 -0.08735
C_ C_ 0.151594 0.214593 0.0540332 0.18498
C_ C_ 0.185076 0.186282 0.101611 0.44287
C_ C_ 0.098085 0.201079 0.0965168 0.44287
C_ C_ 0.0897863 0.185551 0.126274 -0.05681
C_ C_ 0.0419063 0.178256 0.13761 -0.08735
C_ C_ 0.0368121 0.172725 0.168333 -0.08735
C_ C_ 0.0801452 0.168135 0.185914 -0.05681
C_ C_ 0.128373 0.16849 0.173663 -0.05681
C_ C_ 0.132876 0.17982 0.144084 -0.05681
C_ C_ 0.180848 0.181452 0.132168 -0.05681
C_ C_ 0.223273 0.184102 0.150512 -0.08735
C_ C_ 0.21986 0.172592 0.179947 -0.08735
C_ C_ 0.170405 0.164022 0.19122 -0.05681
C_ C_ 0.16212 0.158274 0.221822 0.44287
C_ C_ 0.0754519 0.170499 0.215861 0.44287
C_ C_ 0.107719 0.148147 0.263721 0.18498
C_ C_ 0.0847469 0.101006 0.270624 -0.08735
C_ C_ 0.0695426 0.0874317 0.298333 -0.08735
C_ C_ 0.0828221 0.119983 0.321523 -0.08735
C_ C_ 0.112434 0.165418 0.315585 0.18498
C_ C_ 0.124542 0.179479 0.286037 -0.05681
C_ C_ 0.147956 0.22925 0.281836 -0.08735
C_ C_ 0.164616 0.258732 0.305408 -0.08735
C_ C_ 0.15902 0.240825 0.333517 0.1947
C_ C_ 0.269303 0.31958 0.157215 0.68181
C_ C_ 0.212478 0.319418 0.152778 -0.05681
C_ C_ 0.179729 0.298756 0.174041 -0.08735
C_ C_ 0.127177 0.301017 0.170955 -0.05681
C_ C_ 0.107768 0.316987 0.144124 -0.05681
C_ C_ 0.140282 0.325554 0.120845 -0.08735
C_ C_ 0.192628 0.330056 0.12529 -0.08735
C_ C_ 0.0951321 0.29331 0.193947 -0.08735
C_ C_ 0.0432345 0.295495 0.190351 -0.08735
C_ C_ 0.0207439 0.304925 0.16395 -0.05681
C_ C_ 0.0547764 0.311977 0.140201 -0.08735
C_ C_ 0.382205 0.220107 0.164378 0.68181
C_ C_ 0.352559 0.415669 0.150444 0.68181
C_ C_ 0.350158 0.470561 0.147748 -0.05681
C_ C_ 0.388174 0.000542667 0.168805 -0.08735
C_ C_ 0.38605 0.0557316 0.168763 -0.05681
C_ C_ 0.363457 0.0807867 0.144517 -0.05681
C_ C_ 0.347837 0.0533346 0.120443 -0.08735
C_ C_ 0.350333 0.495417 0.121749 -0.08735
C_ C_ 0.406491 0.085036 0.190991 -0.08735
C_ C_ 0.401426 0.137758 0.190755 -0.08735
C_ C_ 0.386136 0.16204 0.165722 -0.05681
C_ C_ 0.358636 0.135234 0.145255 -0.08735
C_ C_ 0.465234 0.327098 0.160127 0.68181
C_ C_ 0.392684 0.374788 0.231547 0.1947
C_ C_ 0.399531 0.394259 0.260262 -0.08735
C_ C_ 0.378462 0.366951 0.283639 -0.08735
C_ C_ 0.355897 0.319437 0.27835 -0.05681
C_ C_ 0.347228 0.304061 0.249468 0.18498
C_ C_ 0.316074 0.26325 0.244269 -0.08735
C_ C_ 0.306291 0.229958 0.26496 -0.08735
C_ C_ 0.316846 0.239899 0.294262 -0.08735
C_ C_ 0.34265 0.286051 0.301368 0.18498
C_ C_ 0.312185 0.313182 0.347938 0.44287
C_ C_ 0.396697 0.287148 0.343818 0.44287
C_ C_ 0.407986 0.298932 0.372682 -0.05681
C_ C_ 0.457217 0.297635 0.383862 -0.08735
C_ C_ 0.4656 0.304022 0.412894 -0.08735
C_ C_ 0.423132 0.317166 0.430602 -0.05681
C_ C_ 0.374861 0.324722 0.418698 -0.05681
C_ C_ 0.367675 0.31354 0.390221 -0.05681
C_ C_ 0.316931 0.314372 0.378194 -0.05681
C_ C_ 0.276343 0.328028 0.395962 -0.08735
C_ C_ 0.281771 0.327801 0.425307 -0.08735
C_ C_ 0.331279 0.331189 0.437512 -0.05681
C_ C_ 0.339238 0.334875 0.46721 0.44287
C_ C_ 0.427517 0.320307 0.461267 0.44287
C_ C_ 0.404308 0.345345 0.0115279 0.18498
C_ C_ 0.426492 0.393069 0.0190573 -0.08735
C_ C_ 0.433885 0.407922 0.0483396 -0.08735
C_ C_ 0.423164 0.374611 0.0694435 -0.08735
C_ C_ 0.395124 0.329864 0.0635069 0.18498
C_ C_ 0.394926 0.31136 0.0345926 -0.05681
C_ C_ 0.374664 0.26265 0.0303677 -0.08735
C_ C_ 0.357211 0.23486 0.0537881 -0.08735
C_ C_ 0.353805 0.256661 0.0809075 0.1947
N_ N_ 0.128552 0.163838 0.47974 -0.29468
N_ N_ 0.144432 0.19973 0.0844012 -0.17154
N_ N_ 0.115727 0.161569 0.233428 -0.17154
N_ N_ 0.130898 0.19595 0.337806 -0.29468
N_ N_ 0.365725 0.333036 0.226414 -0.29468
N_ N_ 0.35043 0.297221 0.331181 -0.17154
N_ N_ 0.387564 0.329204 0.47867 -0.17154
N_ N_ 0.373726 0.303688 0.0860273 -0.29468
O_ O_ 0.206981 0.178145 0.43157 -0.58347
O_ O_ 0.196043 0.19388 0.385463 -0.58347
O_ O_ 0.132403 0.252822 0.439054 -0.58347
O_ O_ 0.115097 0.257571 0.393248 -0.58347
O_ O_ 0.127076 0.102336 0.424367 -0.58347
O_ O_ 0.136479 0.109264 0.378135 -0.58347
O_ O_ 0.0561403 0.183008 0.431188 -0.58347
O_ O_ 0.0491212 0.172894 0.385247 -0.58347
O_ O_ 0.0590149 0.214445 0.0809972 -0.46727
O_ O_ 0.230919 0.188209 0.090123 -0.46727
O_ O_ 0.029258 0.166084 0.227179 -0.46727
O_ O_ 0.199286 0.140418 0.236727 -0.46727
O_ O_ 0.286588 0.318262 0.182219 -0.58347
O_ O_ 0.295546 0.313293 0.13487 -0.58347
O_ O_ 0.372376 0.245271 0.186948 -0.58347
O_ O_ 0.382282 0.241887 0.140434 -0.58347
O_ O_ 0.358799 0.395169 0.174717 -0.58347
O_ O_ 0.359893 0.388234 0.128789 -0.58347
O_ O_ 0.436274 0.32034 0.180868 -0.58347
O_ O_ 0.44617 0.334342 0.13647 -0.58347
O_ O_ 0.432634 0.269379 0.327343 -0.46727
O_ O_ 0.268166 0.323522 0.336398 -0.46727
O_ O_ 0.470973 0.309649 0.474176 -0.46727
O_ O_ 0.301341 0.348054 0.482984 -0.46727
Zn Zn 0.116246 0.186711 0.885953 0.90689
Zn Zn 0.129218 0.179704 0.931401 0.90689
Zn Zn 0.377918 0.314771 0.631816 0.90689
Zn Zn 0.362016 0.320861 0.679391 0.90689
H_ H_ 0.296378 0.183918 0.946921 0.11455
H_ H_ 0.355959 0.166837 0.846214 0.11455
H_ H_ 0.260155 0.164666 0.858259 0.11455
H_ H_ 0.38195 0.186429 0.963206 0.11455
H_ H_ 0.474345 0.195904 0.953386 0.11455
H_ H_ 0.445011 0.17901 0.863911 0.11455
H_ H_ 0.111855 0.0140052 0.942902 0.11455
H_ H_ 0.130162 0.435002 0.849889 0.11455
H_ H_ 0.126694 0.0288955 0.852172 0.11455
H_ H_ 0.134053 0.431154 0.965499 0.11455
H_ H_ 0.120781 0.339309 0.962647 0.11455
H_ H_ 0.118722 0.353617 0.871627 0.11455
H_ H_ 0.0773187 0.109888 0.96435 0.11455
H_ H_ 0.0531173 0.0821377 0.516081 0.11455
H_ H_ 0.107662 0.11369 0.556531 0.11455
H_ H_ 0.183069 0.248064 0.976365 0.11455
H_ H_ 0.248183 0.269005 0.513713 0.11455
H_ H_ 0.217057 0.256965 0.564827 0.11455
H_ H_ 0.01924 0.204037 0.620426 0.11455
H_ H_ 0.00342435 0.208657 0.67407 0.11455
H_ H_ 0.265754 0.175992 0.643641 0.11455
H_ H_ 0.251242 0.153998 0.695528 0.11455
H_ H_ 0.0539164 0.097002 0.749678 0.11455
H_ H_ 0.0170193 0.0812833 0.801225 0.11455
H_ H_ 0.0611958 0.12254 0.840606 0.11455
H_ H_ 0.163242 0.243986 0.761982 0.11455
H_ H_ 0.198713 0.284952 0.806819 0.11455
H_ H_ 0.177829 0.254201 0.851665 0.11455
H_ H_ 0.203388 0.300171 0.690952 0.11455
H_ H_ 0.12846 0.313955 0.594272 0.11455
H_ H_ 0.221271 0.321783 0.600917 0.11455
H_ H_ 0.112996 0.297898 0.712379 0.11455
H_ H_ 0.026278 0.319854 0.705844 0.11455
H_ H_ 0.0410818 0.322949 0.615924 0.11455
H_ H_ 0.365153 0.486295 0.690908 0.11455
H_ H_ 0.327026 0.0622853 0.60085 0.11455
H_ H_ 0.372452 0.471323 0.598886 0.11455
H_ H_ 0.43431 0.0677332 0.702707 0.11455
H_ H_ 0.427212 0.159947 0.70011 0.11455
H_ H_ 0.33518 0.15223 0.622815 0.11455
H_ H_ 0.400715 0.401958 0.715471 0.11455
H_ H_ 0.408598 0.435072 0.761844 0.11455
H_ H_ 0.377513 0.389658 0.804811 0.11455
H_ H_ 0.313564 0.245159 0.723444 0.11455
H_ H_ 0.268413 0.206766 0.762995 0.11455
H_ H_ 0.279651 0.231906 0.811732 0.11455
H_ H_ 0.483761 0.294461 0.866333 0.11455
H_ H_ 0.500652 0.308139 0.918316 0.11455
H_ H_ 0.233222 0.312869 0.894256 0.11455
H_ H_ 0.248435 0.330298 0.944902 0.11455
H_ H_ 0.432379 0.420653 0.0019599999999999618 0.11455
H_ H_ 0.441733 0.439944 0.546584 0.11455
H_ H_ 0.432917 0.381188 0.585295 0.11455
H_ H_ 0.35193 0.246969 0.506154 0.11455
H_ H_ 0.313004 0.204662 0.548168 0.11455
H_ H_ 0.323904 0.237434 0.597119 0.11455
C_ C_ 0.217744 0.175054 0.907825 0.68181
C_ C_ 0.274153 0.174309 0.902531 -0.05681
C_ C_ 0.309853 0.177695 0.924739 -0.08735
C_ C_ 0.362357 0.173161 0.919913 -0.05681
C_ C_ 0.380236 0.168891 0.89135 -0.05681
C_ C_ 0.343749 0.167089 0.869033 -0.08735
C_ C_ 0.290697 0.167767 0.874826 -0.08735
C_ C_ 0.396027 0.18099 0.941468 -0.08735
C_ C_ 0.448359 0.180471 0.937229 -0.08735
C_ C_ 0.466925 0.17359 0.908742 -0.05681
C_ C_ 0.431543 0.17205 0.885712 -0.08735
C_ C_ 0.111079 0.28314 0.915974 0.68181
C_ C_ 0.118155 0.0849845 0.900638 0.68181
C_ C_ 0.117917 0.0278017 0.898648 -0.05681
C_ C_ 0.123469 0.498162 0.923436 -0.08735
C_ C_ 0.118208 0.446455 0.921597 -0.05681
C_ C_ 0.114208 0.423737 0.894258 -0.05681
C_ C_ 0.116845 0.451762 0.869328 -0.08735
C_ C_ 0.12239 0.504701 0.871839 -0.08735
C_ C_ 0.122078 0.415095 0.945285 -0.08735
C_ C_ 0.114122 0.3635 0.944007 -0.08735
C_ C_ 0.114699 0.33863 0.917544 -0.05681
C_ C_ 0.115837 0.370044 0.892441 -0.08735
C_ C_ 0.0251637 0.181392 0.910794 0.68181
C_ C_ 0.0951991 0.128005 0.98307 0.1947
C_ C_ 0.0858269 0.106076 0.512285 -0.08735
C_ C_ 0.115337 0.126547 0.534564 -0.08735
C_ C_ 0.146197 0.169534 0.530165 -0.05681
C_ C_ 0.155857 0.184235 0.501306 0.18498
C_ C_ 0.172037 0.242831 0.997643 -0.08735
C_ C_ 0.219951 0.24276 0.519121 -0.08735
C_ C_ 0.201865 0.233967 0.547191 -0.08735
C_ C_ 0.168346 0.195987 0.554195 0.18498
C_ C_ 0.194107 0.174451 0.603007 0.44287
C_ C_ 0.108015 0.187915 0.594223 0.44287
C_ C_ 0.097112 0.188913 0.625097 -0.05681
C_ C_ 0.0476795 0.19458 0.636394 -0.08735
C_ C_ 0.0397946 0.195496 0.666619 -0.08735
C_ C_ 0.079109 0.185028 0.686141 -0.05681
C_ C_ 0.129242 0.177487 0.674201 -0.05681
C_ C_ 0.137523 0.176976 0.643678 -0.05681
C_ C_ 0.188583 0.177832 0.632992 -0.05681
C_ C_ 0.22828 0.163744 0.652073 -0.08735
C_ C_ 0.218353 0.155081 0.680344 -0.08735
C_ C_ 0.170314 0.164856 0.693042 -0.05681
C_ C_ 0.161656 0.164415 0.722627 0.44287
C_ C_ 0.0748271 0.187325 0.715978 0.44287
C_ C_ 0.105307 0.156221 0.763009 0.18498
C_ C_ 0.0684869 0.116419 0.768651 -0.08735
C_ C_ 0.0466642 0.109797 0.79619 -0.08735
C_ C_ 0.0693244 0.132758 0.81885 -0.08735
C_ C_ 0.106926 0.17142 0.814923 0.18498
C_ C_ 0.123656 0.183798 0.786803 -0.05681
C_ C_ 0.151883 0.229001 0.783303 -0.08735
C_ C_ 0.171392 0.253195 0.807718 -0.08735
C_ C_ 0.156623 0.238574 0.834058 0.1947
C_ C_ 0.271473 0.308883 0.65123 0.68181
C_ C_ 0.215802 0.303888 0.647211 -0.05681
C_ C_ 0.184955 0.296295 0.670427 -0.08735
C_ C_ 0.131436 0.299897 0.666256 -0.05681
C_ C_ 0.110076 0.309959 0.638903 -0.05681
C_ C_ 0.143729 0.314908 0.616217 -0.08735
C_ C_ 0.195676 0.313323 0.619421 -0.08735
C_ C_ 0.097496 0.30341 0.689811 -0.08735
C_ C_ 0.0496611 0.318695 0.686882 -0.08735
C_ C_ 0.0268507 0.317376 0.659972 -0.05681
C_ C_ 0.0581241 0.315962 0.635652 -0.08735
C_ C_ 0.378608 0.217408 0.662179 0.68181
C_ C_ 0.359754 0.415367 0.646633 0.68181
C_ C_ 0.363841 0.472041 0.64464 -0.05681
C_ C_ 0.387004 0.00483442 0.667537 -0.08735
C_ C_ 0.385755 0.0557459 0.665694 -0.05681
C_ C_ 0.356762 0.0788493 0.643336 -0.05681
C_ C_ 0.335206 0.0485987 0.620941 -0.08735
C_ C_ 0.365407 0.495693 0.618003 -0.08735
C_ C_ 0.409449 0.0861354 0.687256 -0.08735
C_ C_ 0.405081 0.137162 0.684753 -0.08735
C_ C_ 0.378327 0.161624 0.663265 -0.05681
C_ C_ 0.356492 0.132855 0.639985 -0.08735
C_ C_ 0.468115 0.333668 0.656772 0.68181
C_ C_ 0.387917 0.379078 0.732836 0.1947
C_ C_ 0.388769 0.398913 0.75952 -0.08735
C_ C_ 0.365517 0.375521 0.783178 -0.08735
C_ C_ 0.344158 0.325763 0.779458 -0.05681
C_ C_ 0.341888 0.309008 0.750064 0.18498
C_ C_ 0.313377 0.263373 0.744309 -0.08735
C_ C_ 0.288832 0.23997 0.766804 -0.08735
C_ C_ 0.295967 0.255901 0.795218 -0.08735
C_ C_ 0.327469 0.295901 0.802496 0.18498
C_ C_ 0.301963 0.313113 0.853038 0.44287
C_ C_ 0.388313 0.304124 0.841984 0.44287
C_ C_ 0.402085 0.308593 0.871108 -0.05681
C_ C_ 0.451778 0.302818 0.881389 -0.08735
C_ C_ 0.462164 0.30891 0.910857 -0.08735
C_ C_ 0.423346 0.31941 0.930947 -0.05681
C_ C_ 0.371866 0.313773 0.921846 -0.05681
C_ C_ 0.361815 0.312278 0.891837 -0.05681
C_ C_ 0.311872 0.313796 0.88333 -0.05681
C_ C_ 0.270882 0.31459 0.902387 -0.08735
C_ C_ 0.280612 0.323527 0.930557 -0.08735
C_ C_ 0.332255 0.317442 0.94221 -0.05681
C_ C_ 0.344704 0.333192 0.970985 0.44287
C_ C_ 0.433869 0.327748 0.961253 0.44287
C_ C_ 0.395669 0.341878 0.508728 0.18498
C_ C_ 0.414151 0.389162 0.515135 -0.08735
C_ C_ 0.430006 0.402752 0.543203 -0.08735
C_ C_ 0.427485 0.365953 0.564649 -0.08735
C_ C_ 0.397363 0.32144 0.560332 0.18498
C_ C_ 0.385646 0.307874 0.531812 -0.05681
C_ C_ 0.356728 0.262445 0.527304 -0.08735
C_ C_ 0.335968 0.238556 0.55097 -0.08735
C_ C_ 0.343099 0.25652 0.57842 0.1947
N_ N_ 0.127759 0.168073 0.978742 -0.29468
N_ N_ 0.156587 0.183959 0.584037 -0.17154
N_ N_ 0.114564 0.172446 0.733382 -0.17154
N_ N_ 0.127199 0.195495 0.837675 -0.29468
N_ N_ 0.361734 0.335248 0.727745 -0.29468
N_ N_ 0.339033 0.307037 0.832244 -0.17154
N_ N_ 0.394129 0.333116 0.980809 -0.17154
N_ N_ 0.37484 0.296968 0.58355 -0.29468
O_ O_ 0.201536 0.180281 0.933412 -0.58347
O_ O_ 0.187607 0.180044 0.886979 -0.58347
O_ O_ 0.128617 0.258145 0.936633 -0.58347
O_ O_ 0.117582 0.263476 0.89186 -0.58347
O_ O_ 0.12662 0.105522 0.924513 -0.58347
O_ O_ 0.11436 0.111818 0.878726 -0.58347
O_ O_ 0.0552144 0.179175 0.931276 -0.58347
O_ O_ 0.0418745 0.187101 0.885798 -0.58347
O_ O_ 0.0705898 0.194572 0.576356 -0.46727
O_ O_ 0.239852 0.167489 0.593071 -0.46727
O_ O_ 0.0295477 0.194257 0.726896 -0.46727
O_ O_ 0.196443 0.146873 0.739688 -0.46727
O_ O_ 0.288966 0.312698 0.676422 -0.58347
O_ O_ 0.301269 0.310171 0.630005 -0.58347
O_ O_ 0.375553 0.243051 0.685035 -0.58347
O_ O_ 0.383151 0.241875 0.638512 -0.58347
O_ O_ 0.350671 0.397527 0.670909 -0.58347
O_ O_ 0.369577 0.386703 0.625721 -0.58347
O_ O_ 0.437852 0.3409 0.677802 -0.58347
O_ O_ 0.451965 0.313314 0.634492 -0.58347
O_ O_ 0.424635 0.296095 0.823023 -0.46727
O_ O_ 0.255729 0.326155 0.844677 -0.46727
O_ O_ 0.48024 0.321488 0.971366 -0.46727
O_ O_ 0.307127 0.340117 0.988752 -0.46727
Zn Zn 0.138505 0.685152 0.383173 0.90689
Zn Zn 0.147769 0.678315 0.43164 0.90689
Zn Zn 0.373242 0.810942 0.132815 0.90689
Zn Zn 0.364655 0.819173 0.180241 0.90689
H_ H_ 0.318238 0.694683 0.447748 0.11455
H_ H_ 0.381324 0.666911 0.348201 0.11455
H_ H_ 0.29006 0.682285 0.356956 0.11455
H_ H_ 0.405387 0.695999 0.462084 0.11455
H_ H_ 0.497159 0.687923 0.453212 0.11455
H_ H_ 0.466232 0.664321 0.364012 0.11455
H_ H_ 0.182527 0.508161 0.440599 0.11455
H_ H_ 0.138084 0.931257 0.348474 0.11455
H_ H_ 0.129338 0.519509 0.354068 0.11455
H_ H_ 0.121149 0.927555 0.468569 0.11455
H_ H_ 0.105224 0.836364 0.462609 0.11455
H_ H_ 0.141657 0.847715 0.373284 0.11455
H_ H_ 0.0971215 0.606517 0.46666 0.11455
H_ H_ 0.0680316 0.576541 0.0200576 0.11455
H_ H_ 0.11371 0.618282 0.0582702 0.11455
H_ H_ 0.212974 0.744117 0.477682 0.11455
H_ H_ 0.234715 0.787582 0.0125983 0.11455
H_ H_ 0.203866 0.775047 0.0611815 0.11455
H_ H_ 0.0233456 0.697062 0.121738 0.11455
H_ H_ 0.0116952 0.710837 0.173314 0.11455
H_ H_ 0.258029 0.623139 0.139576 0.11455
H_ H_ 0.247545 0.625815 0.188639 0.11455
H_ H_ 0.0855298 0.592302 0.247629 0.11455
H_ H_ 0.0435686 0.577742 0.298128 0.11455
H_ H_ 0.0645501 0.637252 0.334227 0.11455
H_ H_ 0.167987 0.756926 0.257076 0.11455
H_ H_ 0.198693 0.797297 0.303512 0.11455
H_ H_ 0.18694 0.764547 0.34916 0.11455
H_ H_ 0.195817 0.811741 0.195844 0.11455
H_ H_ 0.128822 0.846418 0.097446 0.11455
H_ H_ 0.222875 0.843466 0.107612 0.11455
H_ H_ 0.110467 0.806201 0.213483 0.11455
H_ H_ 0.0230538 0.816454 0.207783 0.11455
H_ H_ 0.0437795 0.856573 0.117649 0.11455
H_ H_ 0.406516 0.980283 0.186218 0.11455
H_ H_ 0.361361 0.565568 0.0982694 0.11455
H_ H_ 0.339479 0.977806 0.102822 0.11455
H_ H_ 0.342087 0.56801 0.21713 0.11455
H_ H_ 0.357942 0.659865 0.21226 0.11455
H_ H_ 0.388407 0.645588 0.123422 0.11455
H_ H_ 0.426516 0.89051 0.215311 0.11455
H_ H_ 0.438234 0.921344 0.263449 0.11455
H_ H_ 0.393997 0.877274 0.304607 0.11455
H_ H_ 0.3067 0.749457 0.225343 0.11455
H_ H_ 0.308527 0.686705 0.265055 0.11455
H_ H_ 0.315409 0.720608 0.312713 0.11455
H_ H_ 0.491032 0.790651 0.371495 0.11455
H_ H_ 0.494727 0.784241 0.424185 0.11455
H_ H_ 0.247059 0.857087 0.385698 0.11455
H_ H_ 0.257175 0.865902 0.438736 0.11455
H_ H_ 0.44666 0.912148 0.500868 0.11455
H_ H_ 0.445253 0.930724 0.0487808 0.11455
H_ H_ 0.423012 0.875681 0.0869671 0.11455
H_ H_ 0.334115 0.757967 0.00501745 0.11455
H_ H_ 0.305456 0.703312 0.0470471 0.11455
H_ H_ 0.309529 0.73745 0.0964577 0.11455
C_ C_ 0.239557 0.69292 0.407637 0.68181
C_ C_ 0.295562 0.686483 0.403462 -0.05681
C_ C_ 0.330678 0.685788 0.426361 -0.08735
C_ C_ 0.381835 0.67499 0.421014 -0.05681
C_ C_ 0.399717 0.671443 0.393213 -0.05681
C_ C_ 0.366341 0.676486 0.369683 -0.08735
C_ C_ 0.314348 0.67849 0.374495 -0.08735
C_ C_ 0.418579 0.685165 0.441838 -0.08735
C_ C_ 0.47089 0.68198 0.4367 -0.08735
C_ C_ 0.487815 0.668295 0.408803 -0.05681
C_ C_ 0.452063 0.66359 0.386518 -0.08735
C_ C_ 0.132302 0.778506 0.415746 0.68181
C_ C_ 0.15289 0.581415 0.399422 0.68181
C_ C_ 0.15203 0.523197 0.39741 -0.05681
C_ C_ 0.123791 0.99597 0.421781 -0.08735
C_ C_ 0.121095 0.941859 0.421406 -0.05681
C_ C_ 0.127129 0.918587 0.394549 -0.05681
C_ C_ 0.138655 0.946618 0.370098 -0.08735
C_ C_ 0.139444 0.998792 0.370943 -0.08735
C_ C_ 0.114675 0.913087 0.446894 -0.08735
C_ C_ 0.114305 0.860149 0.444563 -0.08735
C_ C_ 0.124115 0.835916 0.418058 -0.05681
C_ C_ 0.127621 0.865498 0.392509 -0.08735
C_ C_ 0.0441297 0.672772 0.408356 0.68181
C_ C_ 0.113814 0.625514 0.484765 0.1947
C_ C_ 0.0926604 0.607177 0.0144988 -0.08735
C_ C_ 0.117197 0.632326 0.0364813 -0.08735
C_ C_ 0.144537 0.67633 0.0310384 -0.05681
C_ C_ 0.150842 0.690165 1.00107261 0.18498
C_ C_ 0.192615 0.735817 0.497425 -0.08735
C_ C_ 0.211832 0.753723 0.0164792 -0.08735
C_ C_ 0.194714 0.749171 0.0448488 -0.08735
C_ C_ 0.164754 0.706743 0.0530348 0.18498
C_ C_ 0.196679 0.675228 0.0996737 0.44287
C_ C_ 0.111823 0.703875 0.0949875 0.44287
C_ C_ 0.102889 0.692512 0.123652 -0.05681
C_ C_ 0.0551218 0.696466 0.135549 -0.08735
C_ C_ 0.049429 0.700424 0.166353 -0.08735
C_ C_ 0.0927575 0.695116 0.183494 -0.05681
C_ C_ 0.137267 0.677104 0.171423 -0.05681
C_ C_ 0.142675 0.679007 0.141497 -0.05681
C_ C_ 0.18784 0.663706 0.128416 -0.05681
C_ C_ 0.223802 0.639849 0.146363 -0.08735
C_ C_ 0.218979 0.640882 0.175038 -0.08735
C_ C_ 0.175859 0.65888 0.188081 -0.05681
C_ C_ 0.173421 0.662219 0.217464 0.44287
C_ C_ 0.0885375 0.693512 0.213625 0.44287
C_ C_ 0.118126 0.663661 0.259948 0.18498
C_ C_ 0.0891855 0.619511 0.266059 -0.08735
C_ C_ 0.0721378 0.608687 0.29331 -0.08735
C_ C_ 0.0877151 0.637891 0.315532 -0.08735
C_ C_ 0.120625 0.678421 0.31145 0.18498
C_ C_ 0.133741 0.695205 0.28305 -0.05681
C_ C_ 0.162171 0.740008 0.279073 -0.08735
C_ C_ 0.182371 0.761782 0.303795 -0.08735
C_ C_ 0.173884 0.742346 0.331116 0.1947
C_ C_ 0.269444 0.813918 0.156614 0.68181
C_ C_ 0.215371 0.822823 0.151888 -0.05681
C_ C_ 0.181166 0.815579 0.17411 -0.08735
C_ C_ 0.12957 0.821691 0.16852 -0.05681
C_ C_ 0.110373 0.8308 0.141804 -0.05681
C_ C_ 0.1431 0.836097 0.118184 -0.08735
C_ C_ 0.195863 0.830975 0.124392 -0.08735
C_ C_ 0.0959212 0.813914 0.191152 -0.08735
C_ C_ 0.045401 0.820139 0.188676 -0.08735
C_ C_ 0.0252503 0.83139 0.161289 -0.05681
C_ C_ 0.0585384 0.838308 0.137309 -0.08735
C_ C_ 0.376835 0.715307 0.163755 0.68181
C_ C_ 0.36647 0.91389 0.146417 0.68181
C_ C_ 0.368856 0.973322 0.14518 -0.05681
C_ C_ 0.348461 0.498989 0.173535 -0.08735
C_ C_ 0.356902 0.553797 0.171856 -0.05681
C_ C_ 0.368899 0.574991 0.144969 -0.05681
C_ C_ 0.363424 0.545827 0.119759 -0.08735
C_ C_ 0.348233 -0.0002769999999999717 0.121892 -0.08735
C_ C_ 0.354352 0.584884 0.196098 -0.08735
C_ C_ 0.364421 0.636907 0.193618 -0.08735
C_ C_ 0.377526 0.658983 0.167775 -0.05681
C_ C_ 0.380865 0.626072 0.143842 -0.08735
C_ C_ 0.467693 0.821803 0.157264 0.68181
C_ C_ 0.405002 0.872359 0.232326 0.1947
C_ C_ 0.411553 0.888995 0.260689 -0.08735
C_ C_ 0.384248 0.867833 0.283017 -0.08735
C_ C_ 0.361681 0.822162 0.278828 -0.05681
C_ C_ 0.35223 0.805204 0.249722 0.18498
C_ C_ 0.326284 0.757976 0.244762 -0.08735
C_ C_ 0.321118 0.724723 0.268498 -0.08735
C_ C_ 0.326027 0.743492 0.296156 -0.08735
C_ C_ 0.345737 0.791596 0.30214 0.18498
C_ C_ 0.313055 0.818074 0.347975 0.44287
C_ C_ 0.401312 0.800284 0.342289 0.44287
C_ C_ 0.409626 0.807132 0.371332 -0.05681
C_ C_ 0.457396 0.799744 0.384393 -0.08735
C_ C_ 0.463379 0.803653 0.414683 -0.08735
C_ C_ 0.420432 0.811043 0.432646 -0.05681
C_ C_ 0.372246 0.816466 0.42005 -0.05681
C_ C_ 0.367053 0.815892 0.38949 -0.05681
C_ C_ 0.320124 0.821991 0.377335 -0.05681
C_ C_ 0.2812 0.840658 0.395982 -0.08735
C_ C_ 0.289789 0.851941 0.425589 -0.08735
C_ C_ 0.33487 0.837607 0.437399 -0.05681
C_ C_ 0.345007 0.85061 0.466939 0.44287
C_ C_ 0.427055 0.818225 0.463116 0.44287
C_ C_ 0.396211 0.836318 0.00932154 0.18498
C_ C_ 0.424008 0.881176 0.015916 -0.08735
C_ C_ 0.424582 0.898474 0.0446655 -0.08735
C_ C_ 0.411122 0.866893 0.0660917 -0.08735
C_ C_ 0.381396 0.824674 0.0618815 0.18498
C_ C_ 0.375759 0.806911 0.0324779 -0.05681
C_ C_ 0.341918 0.768319 0.0280956 -0.08735
C_ C_ 0.324558 0.738243 0.0515272 -0.08735
C_ C_ 0.331452 0.757666 0.0796638 0.1947
N_ N_ 0.14421 0.665781 0.479579 -0.29468
N_ N_ 0.157682 0.695421 0.0831856 -0.17154
N_ N_ 0.12837 0.676667 0.230187 -0.17154
N_ N_ 0.139854 0.703281 0.334556 -0.29468
N_ N_ 0.374887 0.832125 0.227884 -0.29468
N_ N_ 0.354344 0.807638 0.331173 -0.17154
N_ N_ 0.389897 0.836704 0.479517 -0.17154
N_ N_ 0.36357 0.79718 0.0846486 -0.29468
O_ O_ 0.221612 0.687144 0.433024 -0.58347
O_ O_ 0.21056 0.697785 0.385563 -0.58347
O_ O_ 0.142825 0.753488 0.43817 -0.58347
O_ O_ 0.124848 0.755924 0.392733 -0.58347
O_ O_ 0.153522 0.603202 0.424499 -0.58347
O_ O_ 0.151157 0.608712 0.376199 -0.58347
O_ O_ 0.0733983 0.667748 0.430272 -0.58347
O_ O_ 0.0637053 0.672515 0.383185 -0.58347
O_ O_ 0.0759763 0.72553 0.0789556 -0.46727
O_ O_ 0.241301 0.67099 0.0885278 -0.46727
O_ O_ 0.049409 0.713728 0.226856 -0.46727
O_ O_ 0.210372 0.643814 0.233509 -0.46727
O_ O_ 0.290394 0.819867 0.180956 -0.58347
O_ O_ 0.299134 0.801407 0.135757 -0.58347
O_ O_ 0.368818 0.743203 0.184772 -0.58347
O_ O_ 0.378693 0.734348 0.138566 -0.58347
O_ O_ 0.370091 0.895036 0.171893 -0.58347
O_ O_ 0.360728 0.887111 0.124812 -0.58347
O_ O_ 0.438603 0.818849 0.178665 -0.58347
O_ O_ 0.44808 0.821477 0.132922 -0.58347
O_ O_ 0.437013 0.781772 0.326074 -0.46727
O_ O_ 0.267511 0.821206 0.336945 -0.46727
O_ O_ 0.473259 0.815596 0.473585 -0.46727
O_ O_ 0.310484 0.875012 0.482554 -0.46727
Zn Zn 0.123231 0.687265 0.883191 0.90689
Zn Zn 0.13294 0.679092 0.931774 0.90689
Zn Zn 0.372928 0.814388 0.630637 0.90689
Zn Zn 0.366305 0.819335 0.678644 0.90689
H_ H_ 0.301298 0.671932 0.943422 0.11455
H_ H_ 0.363576 0.639609 0.844471 0.11455
H_ H_ 0.280044 0.667554 0.851848 0.11455
H_ H_ 0.387722 0.697449 0.957208 0.11455
H_ H_ 0.476004 0.676062 0.95287 0.11455
H_ H_ 0.455228 0.65926 0.861021 0.11455
H_ H_ 0.124441 0.518484 0.944029 0.11455
H_ H_ 0.142844 0.937603 0.84748 0.11455
H_ H_ 0.119441 0.527195 0.851295 0.11455
H_ H_ 0.132359 0.930501 0.966694 0.11455
H_ H_ 0.11938 0.836132 0.961611 0.11455
H_ H_ 0.129468 0.854503 0.870005 0.11455
H_ H_ 0.0663724 0.611439 0.970485 0.11455
H_ H_ 0.0833613 0.573456 0.513295 0.11455
H_ H_ 0.115575 0.619724 0.556069 0.11455
H_ H_ 0.206173 0.725616 0.97325 0.11455
H_ H_ 0.228969 0.801394 0.514482 0.11455
H_ H_ 0.20253 0.785146 0.563965 0.11455
H_ H_ 1.0173623 0.717954 0.625069 0.11455
H_ H_ 1.00847211 0.714475 0.676732 0.11455
H_ H_ 0.271258 0.683018 0.635943 0.11455
H_ H_ 0.257921 0.670787 0.688454 0.11455
H_ H_ 0.0853067 0.593594 0.746071 0.11455
H_ H_ 0.0578339 0.568799 0.793147 0.11455
H_ H_ 0.0663704 0.623432 0.835385 0.11455
H_ H_ 0.158845 0.754414 0.759337 0.11455
H_ H_ 0.173888 0.811304 0.799631 0.11455
H_ H_ 0.167308 0.773477 0.848019 0.11455
H_ H_ 0.200236 0.830395 0.693864 0.11455
H_ H_ 0.129361 0.864384 0.596508 0.11455
H_ H_ 0.215873 0.845344 0.602238 0.11455
H_ H_ 0.113377 0.818545 0.713744 0.11455
H_ H_ 0.0190617 0.823838 0.704323 0.11455
H_ H_ 0.0430273 0.845944 0.616107 0.11455
H_ H_ 0.40919 0.987686 0.68356 0.11455
H_ H_ 0.383045 0.565706 0.595668 0.11455
H_ H_ 0.330409 0.973021 0.603148 0.11455
H_ H_ 0.365423 0.568068 0.711318 0.11455
H_ H_ 0.376736 0.657781 0.7106 0.11455
H_ H_ 0.38166 0.645906 0.618681 0.11455
H_ H_ 0.434274 0.872693 0.714971 0.11455
H_ H_ 0.458017 0.889255 0.768155 0.11455
H_ H_ 0.399514 0.863762 0.804874 0.11455
H_ H_ 0.30132 0.75863 0.719647 0.11455
H_ H_ 0.265308 0.705172 0.756987 0.11455
H_ H_ 0.276395 0.731568 0.807611 0.11455
H_ H_ 0.474294 0.776762 0.867496 0.11455
H_ H_ 0.492069 0.787108 0.920767 0.11455
H_ H_ 0.228369 0.836426 0.887987 0.11455
H_ H_ 0.24812 0.848962 0.93932 0.11455
H_ H_ 0.439696 0.903499 0.999383 0.11455
H_ H_ 0.460125 0.937442 0.550742 0.11455
H_ H_ 0.427683 0.886489 0.588225 0.11455
H_ H_ 0.337709 0.762741 0.503169 0.11455
H_ H_ 0.293211 0.721917 0.543825 0.11455
H_ H_ 0.321532 0.735195 0.594624 0.11455
C_ C_ 0.226672 0.68415 0.903032 0.68181
C_ C_ 0.281692 0.679052 0.897793 -0.05681
C_ C_ 0.314237 0.67996 0.920364 -0.08735
C_ C_ 0.365685 0.678437 0.914365 -0.05681
C_ C_ 0.385256 0.662639 0.886819 -0.05681
C_ C_ 0.351207 0.655033 0.865475 -0.08735
C_ C_ 0.302546 0.66915 0.870453 -0.08735
C_ C_ 0.399385 0.682209 0.937431 -0.08735
C_ C_ 0.450067 0.673107 0.934541 -0.08735
C_ C_ 0.471803 0.666768 0.906404 -0.05681
C_ C_ 0.437668 0.661689 0.882436 -0.08735
C_ C_ 0.128317 0.78278 0.913829 0.68181
C_ C_ 0.125266 0.586712 0.900818 0.68181
C_ C_ 0.12013 0.528063 0.898546 -0.05681
C_ C_ 0.125437 0.997772 0.923369 -0.08735
C_ C_ 0.12982 0.945513 0.921229 -0.05681
C_ C_ 0.128398 0.922799 0.893509 -0.05681
C_ C_ 0.13062 0.953987 0.868556 -0.08735
C_ C_ 0.128106 0.00602744 0.872236 -0.08735
C_ C_ 0.128049 0.913396 0.946586 -0.08735
C_ C_ 0.125322 0.860201 0.944003 -0.08735
C_ C_ 0.124902 0.839073 0.916565 -0.05681
C_ C_ 0.128441 0.871123 0.891841 -0.08735
C_ C_ 0.0283768 0.676421 0.909042 0.68181
C_ C_ 0.0917426 0.6282 0.986606 0.1947
C_ C_ 0.106054 0.608763 0.51241 -0.08735
C_ C_ 0.124704 0.635565 0.535239 -0.08735
C_ C_ 0.147251 0.682248 0.530185 -0.05681
C_ C_ 0.162664 0.693665 0.502484 0.18498
C_ C_ 0.188698 0.724984 0.993679 -0.08735
C_ C_ 0.20591 0.769258 0.518741 -0.08735
C_ C_ 0.18942 0.759816 0.546668 -0.08735
C_ C_ 0.161368 0.714803 0.552672 0.18498
C_ C_ 0.190199 0.684672 0.59794 0.44287
C_ C_ 0.10627 0.716852 0.594348 0.44287
C_ C_ 0.100555 0.716978 0.623911 -0.05681
C_ C_ 0.0519095 0.714805 0.637613 -0.08735
C_ C_ 0.0455334 0.71073 0.666957 -0.08735
C_ C_ 0.0883871 0.70186 0.68409 -0.05681
C_ C_ 0.135586 0.69454 0.671101 -0.05681
C_ C_ 0.142896 0.706561 0.641283 -0.05681
C_ C_ 0.187567 0.689499 0.627627 -0.05681
C_ C_ 0.233737 0.679674 0.645318 -0.08735
C_ C_ 0.22606 0.67666 0.674459 -0.08735
C_ C_ 0.177979 0.681197 0.687233 -0.05681
C_ C_ 0.169791 0.673951 0.717256 0.44287
C_ C_ 0.0850768 0.698818 0.71425 0.44287
C_ C_ 0.113295 0.66732 0.75887 0.18498
C_ C_ 0.0901983 0.618832 0.763634 -0.08735
C_ C_ 0.0793387 0.602619 0.79238 -0.08735
C_ C_ 0.0866783 0.630801 0.816215 -0.08735
C_ C_ 0.114575 0.678813 0.812557 0.18498
C_ C_ 0.126533 0.696837 0.783708 -0.05681
C_ C_ 0.149955 0.743487 0.780511 -0.08735
C_ C_ 0.161409 0.772521 0.804153 -0.08735
C_ C_ 0.154582 0.751142 0.831217 0.1947
C_ C_ 0.274004 0.826916 0.65146 0.68181
C_ C_ 0.216502 0.834846 0.648256 -0.05681
C_ C_ 0.183967 0.833617 0.672555 -0.08735
C_ C_ 0.131018 0.833562 0.668195 -0.05681
C_ C_ 0.110661 0.83885 0.641024 -0.05681
C_ C_ 0.142354 0.850764 0.617461 -0.08735
C_ C_ 0.194655 0.844897 0.620626 -0.08735
C_ C_ 0.0976904 0.825224 0.691754 -0.08735
C_ C_ 0.0430159 0.828078 0.687137 -0.08735
C_ C_ 0.0238227 0.831702 0.659022 -0.05681
C_ C_ 0.058834 0.838645 0.637266 -0.08735
C_ C_ 0.372612 0.717774 0.6622 0.68181
C_ C_ 0.368375 0.916371 0.648176 0.68181
C_ C_ 0.36353 0.973329 0.646928 -0.05681
C_ C_ 0.364159 0.502692 0.66947 -0.08735
C_ C_ 0.364738 0.554625 0.667399 -0.05681
C_ C_ 0.369381 0.580209 0.640575 -0.05681
C_ C_ 0.372115 0.549002 0.615727 -0.08735
C_ C_ 0.334896 0.994457 0.62361 -0.08735
C_ C_ 0.36403 0.585317 0.69105 -0.08735
C_ C_ 0.370038 0.635768 0.690763 -0.08735
C_ C_ 0.371668 0.662316 0.664383 -0.05681
C_ C_ 0.374378 0.632471 0.639418 -0.08735
C_ C_ 0.468384 0.820559 0.652559 0.68181
C_ C_ 0.411463 0.859496 0.733077 0.1947
C_ C_ 0.422099 0.870934 0.761424 -0.08735
C_ C_ 0.390149 0.854295 0.783541 -0.08735
C_ C_ 0.352929 0.81797 0.776958 -0.05681
C_ C_ 0.344488 0.803792 0.747677 0.18498
C_ C_ 0.309031 0.767493 0.741268 -0.08735
C_ C_ 0.287738 0.737337 0.763289 -0.08735
C_ C_ 0.296754 0.751949 0.792093 -0.08735
C_ C_ 0.329473 0.790758 0.79963 0.18498
C_ C_ 0.304558 0.820313 0.847338 0.44287
C_ C_ 0.38533 0.783099 0.841514 0.44287
C_ C_ 0.394743 0.791693 0.871003 -0.05681
C_ C_ 0.44567 0.788843 0.882463 -0.08735
C_ C_ 0.454406 0.793417 0.911256 -0.08735
C_ C_ 0.415879 0.810925 0.930166 -0.05681
C_ C_ 0.366574 0.816246 0.918828 -0.05681
C_ C_ 0.355967 0.808522 0.889034 -0.05681
C_ C_ 0.307896 0.820806 0.877326 -0.05681
C_ C_ 0.26942 0.832523 0.896023 -0.08735
C_ C_ 0.279168 0.836821 0.926035 -0.08735
C_ C_ 0.327376 0.830387 0.937825 -0.05681
C_ C_ 0.340363 0.837943 0.967779 0.44287
C_ C_ 0.424358 0.815332 0.960412 0.44287
C_ C_ 0.397781 0.84775 0.509615 0.18498
C_ C_ 0.432356 0.888731 0.51777 -0.08735
C_ C_ 0.435812 0.904369 0.545311 -0.08735
C_ C_ 0.4174 0.872619 0.56712 -0.08735
C_ C_ 0.390033 0.827366 0.56027 0.18498
C_ C_ 0.376162 0.818209 0.531371 -0.05681
C_ C_ 0.342635 0.776572 0.525442 -0.08735
C_ C_ 0.320469 0.749938 0.548177 -0.08735
C_ C_ 0.335273 0.760631 0.576424 0.1947
N_ N_ 0.121724 0.667754 0.979981 -0.29468
N_ N_ 0.151261 0.703389 0.582286 -0.17154
N_ N_ 0.1235 0.682639 0.72992 -0.17154
N_ N_ 0.128774 0.707404 0.83537 -0.29468
N_ N_ 0.374357 0.825935 0.726361 -0.29468
N_ N_ 0.339971 0.798878 0.830256 -0.17154
N_ N_ 0.386671 0.826454 0.97886 -0.17154
N_ N_ 0.36949 0.798462 0.581991 -0.29468
O_ O_ 0.209166 0.672935 0.928061 -0.58347
O_ O_ 0.199205 0.696346 0.883032 -0.58347
O_ O_ 0.138022 0.75363 0.935683 -0.58347
O_ O_ 0.116312 0.762272 0.88989 -0.58347
O_ O_ 0.12284 0.606873 0.925084 -0.58347
O_ O_ 0.133961 0.614336 0.878537 -0.58347
O_ O_ 0.056493 0.6811 0.930616 -0.58347
O_ O_ 0.049784 0.677617 0.884392 -0.58347
O_ O_ 0.0692843 0.734369 0.577781 -0.46727
O_ O_ 0.226953 0.657332 0.586281 -0.46727
O_ O_ 0.042817 0.705503 0.727079 -0.46727
O_ O_ 0.205973 0.654067 0.732629 -0.46727
O_ O_ 0.292799 0.830654 0.676807 -0.58347
O_ O_ 0.29962 0.809717 0.631095 -0.58347
O_ O_ 0.364978 0.744795 0.684528 -0.58347
O_ O_ 0.380759 0.737034 0.638276 -0.58347
O_ O_ 0.372967 0.893804 0.671889 -0.58347
O_ O_ 0.362777 0.88963 0.625067 -0.58347
O_ O_ 0.440344 0.810208 0.673772 -0.58347
O_ O_ 0.449229 0.821858 0.628381 -0.58347
O_ O_ 0.423594 0.771501 0.823456 -0.46727
O_ O_ 0.265143 0.839284 0.835048 -0.46727
O_ O_ 0.471809 0.822146 0.968124 -0.46727
O_ O_ 0.305639 0.858447 0.985059 -0.46727
Zn Zn 0.619631 0.18052 0.380032 0.90689
Zn Zn 0.631877 0.178805 0.427865 0.90689
Zn Zn 0.872225 0.311218 0.135124 0.90689
Zn Zn 0.8655 0.319529 0.181644 0.90689
H_ H_ 0.79567 0.205504 0.443077 0.11455
H_ H_ 0.871307 0.175359 0.347916 0.11455
H_ H_ 0.776545 0.166155 0.355291 0.11455
H_ H_ 0.888305 0.217075 0.463377 0.11455
H_ H_ 0.980442 0.200754 0.456859 0.11455
H_ H_ 0.958623 0.170237 0.367038 0.11455
H_ H_ 0.611674 0.00561783 0.439379 0.11455
H_ H_ 0.648967 0.427036 0.348423 0.11455
H_ H_ 0.629909 0.0131657 0.345795 0.11455
H_ H_ 0.59996 0.428045 0.459986 0.11455
H_ H_ 0.583787 0.337341 0.45763 0.11455
H_ H_ 0.635441 0.339827 0.370204 0.11455
H_ H_ 0.583792 0.107106 0.462039 0.11455
H_ H_ 0.563239 0.0799312 0.0122655 0.11455
H_ H_ 0.597607 0.130854 0.0541409 0.11455
H_ H_ 0.691703 0.240685 0.471359 0.11455
H_ H_ 0.692144 0.31588 0.0119068 0.11455
H_ H_ 0.679263 0.28989 0.062849 0.11455
H_ H_ 0.511695 0.223903 0.121276 0.11455
H_ H_ 0.499909 0.210738 0.175406 0.11455
H_ H_ 0.755211 0.163649 0.131859 0.11455
H_ H_ 0.74097 0.15388 0.183652 0.11455
H_ H_ 0.558262 0.0889378 0.245283 0.11455
H_ H_ 0.541292 0.0631216 0.29444 0.11455
H_ H_ 0.567929 0.118884 0.335777 0.11455
H_ H_ 0.656182 0.243952 0.254935 0.11455
H_ H_ 0.682068 0.294156 0.294998 0.11455
H_ H_ 0.661318 0.269348 0.344771 0.11455
H_ H_ 0.695943 0.317396 0.198247 0.11455
H_ H_ 0.625676 0.349075 0.102842 0.11455
H_ H_ 0.715113 0.327118 0.107447 0.11455
H_ H_ 0.609496 0.309893 0.218736 0.11455
H_ H_ 0.519762 0.329351 0.212761 0.11455
H_ H_ 0.540861 0.327518 0.12091 0.11455
H_ H_ 0.906206 0.487227 0.188691 0.11455
H_ H_ 0.856693 0.0629954 0.100505 0.11455
H_ H_ 0.84363 0.474093 0.104608 0.11455
H_ H_ 0.889755 0.0688066 0.216144 0.11455
H_ H_ 0.88941 0.161457 0.211004 0.11455
H_ H_ 0.858873 0.147015 0.121612 0.11455
H_ H_ 0.922727 0.391972 0.219142 0.11455
H_ H_ 0.934334 0.419243 0.269765 0.11455
H_ H_ 0.893808 0.380801 0.307704 0.11455
H_ H_ 0.805757 0.256268 0.222777 0.11455
H_ H_ 0.75794 0.215794 0.262584 0.11455
H_ H_ 0.769857 0.241264 0.312915 0.11455
H_ H_ 0.973857 0.286813 0.372749 0.11455
H_ H_ -0.009468000000000032 0.297989 0.424625 0.11455
H_ H_ 0.728237 0.333222 0.391272 0.11455
H_ H_ 0.740896 0.358272 0.441084 0.11455
H_ H_ 0.923955 0.410473 0.498856 0.11455
H_ H_ 0.967766 0.419382 0.0532183 0.11455
H_ H_ 0.933816 0.369409 0.0929159 0.11455
H_ H_ 0.840394 0.252304 0.0104454 0.11455
H_ H_ 0.81488 0.198167 0.0501399 0.11455
H_ H_ 0.824014 0.228957 0.0999962 0.11455
C_ C_ 0.725106 0.190569 0.404109 0.68181
C_ C_ 0.781074 0.187059 0.399997 -0.05681
C_ C_ 0.812356 0.194079 0.422821 -0.08735
C_ C_ 0.865905 0.193539 0.419752 -0.05681
C_ C_ 0.887182 0.184209 0.391197 -0.05681
C_ C_ 0.854657 0.181361 0.368312 -0.08735
C_ C_ 0.801875 0.179569 0.372147 -0.08735
C_ C_ 0.898956 0.200623 0.443035 -0.08735
C_ C_ 0.952047 0.19155 0.439413 -0.08735
C_ C_ 0.972606 0.180835 0.41214 -0.05681
C_ C_ 0.939721 0.176344 0.38791 -0.08735
C_ C_ 0.614944 0.27489 0.411849 0.68181
C_ C_ 0.627567 0.0774507 0.394548 0.68181
C_ C_ 0.630698 0.0200572 0.393326 -0.05681
C_ C_ 0.636269 0.490342 0.422086 -0.08735
C_ C_ 0.63153 0.436341 0.419454 -0.05681
C_ C_ 0.633938 0.412671 0.393143 -0.05681
C_ C_ 0.640629 0.444002 0.368796 -0.08735
C_ C_ 0.652728 0.496278 0.371809 -0.08735
C_ C_ 0.617596 0.407495 0.443515 -0.08735
C_ C_ 0.603493 0.356179 0.439752 -0.08735
C_ C_ 0.616317 0.330584 0.414319 -0.05681
C_ C_ 0.631149 0.359718 0.390826 -0.08735
C_ C_ 0.526592 0.173679 0.404 0.68181
C_ C_ 0.597811 0.127713 0.479443 0.1947
C_ C_ 0.584812 0.114831 0.00950507 -0.08735
C_ C_ 0.605775 0.14174 0.0320458 -0.08735
C_ C_ 0.627338 0.190271 0.0274413 -0.05681
C_ C_ 0.638567 0.205196 0.998757 0.18498
C_ C_ 0.684986 0.230872 0.493623 -0.08735
C_ C_ 0.67816 0.278077 0.0168579 -0.08735
C_ C_ 0.666571 0.266526 0.0446518 -0.08735
C_ C_ 0.645992 0.21957 0.0507598 0.18498
C_ C_ 0.67919 0.189917 0.096392 0.44287
C_ C_ 0.591776 0.20048 0.0922005 0.44287
C_ C_ 0.585336 0.19218 0.121617 -0.05681
C_ C_ 0.538684 0.203274 0.133882 -0.08735
C_ C_ 0.53368 0.200313 0.164435 -0.08735
C_ C_ 0.576149 0.186761 0.182051 -0.05681
C_ C_ 0.623166 0.177752 0.168778 -0.05681
C_ C_ 0.626933 0.180198 0.138908 -0.05681
C_ C_ 0.675377 0.176174 0.125923 -0.05681
C_ C_ 0.718677 0.172483 0.142443 -0.08735
C_ C_ 0.712455 0.165486 0.171011 -0.08735
C_ C_ 0.666561 0.170444 0.185144 -0.05681
C_ C_ 0.660454 0.162391 0.215395 0.44287
C_ C_ 0.571458 0.18296 0.211891 0.44287
C_ C_ 0.602238 0.155953 0.257072 0.18498
C_ C_ 0.572539 0.111165 0.262688 -0.08735
C_ C_ 0.560856 0.098735 0.290622 -0.08735
C_ C_ 0.577674 0.128473 0.313723 -0.08735
C_ C_ 0.611672 0.168674 0.309153 0.18498
C_ C_ 0.624129 0.183288 0.280395 -0.05681
C_ C_ 0.648936 0.229393 0.276269 -0.08735
C_ C_ 0.665604 0.257928 0.298793 -0.08735
C_ C_ 0.654165 0.243065 0.327393 0.1947
C_ C_ 0.770951 0.319968 0.158067 0.68181
C_ C_ 0.712049 0.322596 0.153516 -0.05681
C_ C_ 0.679286 0.322357 0.177929 -0.08735
C_ C_ 0.627364 0.322889 0.173354 -0.05681
C_ C_ 0.60836 0.334442 0.146293 -0.05681
C_ C_ 0.638245 0.335629 0.122639 -0.08735
C_ C_ 0.690486 0.32777 0.126339 -0.08735
C_ C_ 0.594276 0.316376 0.19678 -0.08735
C_ C_ 0.542482 0.325975 0.193314 -0.08735
C_ C_ 0.520347 0.331957 0.165083 -0.05681
C_ C_ 0.555417 0.340507 0.142142 -0.08735
C_ C_ 0.871784 0.215847 0.163844 0.68181
C_ C_ 0.870065 0.416032 0.150366 0.68181
C_ C_ 0.867275 0.472882 0.148322 -0.05681
C_ C_ 0.877841 0.00110783 0.174662 -0.08735
C_ C_ 0.871045 0.0526914 0.172372 -0.05681
C_ C_ 0.862536 0.0766176 0.14511 -0.05681
C_ C_ 0.854355 0.0458534 0.121411 -0.08735
C_ C_ 0.855391 0.496179 0.12253 -0.08735
C_ C_ 0.88242 0.0833473 0.194954 -0.08735
C_ C_ 0.882009 0.136538 0.193222 -0.08735
C_ C_ 0.876646 0.159929 0.166543 -0.05681
C_ C_ 0.869804 0.129877 0.141683 -0.08735
C_ C_ 0.966119 0.31168 0.161345 0.68181
C_ C_ 0.90382 0.371875 0.23596 0.1947
C_ C_ 0.909103 0.388587 0.264143 -0.08735
C_ C_ 0.884225 0.366435 0.286302 -0.08735
C_ C_ 0.852739 0.324922 0.280872 -0.05681
C_ C_ 0.845358 0.309053 0.251277 0.18498
C_ C_ 0.813904 0.266061 0.244985 -0.08735
C_ C_ 0.787052 0.243986 0.268555 -0.08735
C_ C_ 0.793902 0.259894 0.29637 -0.08735
C_ C_ 0.826372 0.300214 0.303435 0.18498
C_ C_ 0.797604 0.324116 0.350447 0.44287
C_ C_ 0.884254 0.302652 0.345139 0.44287
C_ C_ 0.893993 0.309815 0.374634 -0.05681
C_ C_ 0.942935 0.300535 0.386293 -0.08735
C_ C_ 0.952591 0.308677 0.416265 -0.08735
C_ C_ 0.91194 0.323286 0.434125 -0.05681
C_ C_ 0.863653 0.328794 0.422431 -0.05681
C_ C_ 0.853805 0.322756 0.392555 -0.05681
C_ C_ 0.804679 0.328781 0.380731 -0.05681
C_ C_ 0.765165 0.33858 0.399126 -0.08735
C_ C_ 0.772052 0.343115 0.428556 -0.08735
C_ C_ 0.820645 0.336245 0.441362 -0.05681
C_ C_ 0.828881 0.341995 0.47143 0.44287
C_ C_ 0.916377 0.319289 0.464156 0.44287
C_ C_ 0.905425 0.330533 0.0121262 0.18498
C_ C_ 0.939425 0.371895 0.0187348 -0.08735
C_ C_ 0.949338 0.384071 0.0479853 -0.08735
C_ C_ 0.922675 0.36022 0.0706594 -0.08735
C_ C_ 0.892706 0.319355 0.0650704 0.18498
C_ C_ 0.889233 0.300663 0.0355981 -0.05681
C_ C_ 0.857697 0.257589 0.031527 -0.08735
C_ C_ 0.83499 0.232379 0.0543654 -0.08735
C_ C_ 0.841596 0.249734 0.0820737 0.1947
N_ N_ 0.633732 0.163808 0.475917 -0.29468
N_ N_ 0.638696 0.204324 0.0809685 -0.17154
N_ N_ 0.614036 0.16848 0.227999 -0.17154
N_ N_ 0.630776 0.196141 0.331984 -0.29468
N_ N_ 0.872499 0.331977 0.229361 -0.29468
N_ N_ 0.837672 0.309689 0.333277 -0.17154
N_ N_ 0.874687 0.328172 0.482436 -0.17154
N_ N_ 0.871064 0.291557 0.0871679 -0.29468
O_ O_ 0.70583 0.190041 0.429075 -0.58347
O_ O_ 0.697649 0.190637 0.381519 -0.58347
O_ O_ 0.622961 0.250008 0.434186 -0.58347
O_ O_ 0.60978 0.253192 0.387881 -0.58347
O_ O_ 0.637731 0.0995981 0.418408 -0.58347
O_ O_ 0.627469 0.104258 0.37158 -0.58347
O_ O_ 0.554696 0.168155 0.42533 -0.58347
O_ O_ 0.547196 0.172433 0.379625 -0.58347
O_ O_ 0.552063 0.210634 0.0762694 -0.46727
O_ O_ 0.724335 0.189253 0.0845076 -0.46727
O_ O_ 0.528184 0.194751 0.225327 -0.46727
O_ O_ 0.696193 0.14768 0.231449 -0.46727
O_ O_ 0.790011 0.327662 0.182922 -0.58347
O_ O_ 0.800441 0.307488 0.137946 -0.58347
O_ O_ 0.860151 0.242604 0.184643 -0.58347
O_ O_ 0.879783 0.236861 0.140191 -0.58347
O_ O_ 0.871899 0.395975 0.175809 -0.58347
O_ O_ 0.86541 0.387141 0.129326 -0.58347
O_ O_ 0.938747 0.314128 0.18277 -0.58347
O_ O_ 0.947069 0.320984 0.136943 -0.58347
O_ O_ 0.922189 0.289519 0.327623 -0.46727
O_ O_ 0.751302 0.324591 0.340434 -0.46727
O_ O_ 0.961863 0.313529 0.476656 -0.46727
O_ O_ 0.790644 0.351467 0.488721 -0.46727
Zn Zn 0.617813 0.186775 0.881521 0.90689
Zn Zn 0.626792 0.182818 0.928444 0.90689
Zn Zn 0.873648 0.319637 0.635263 0.90689
Zn Zn 0.867955 0.327 0.684216 0.90689
H_ H_ 0.794731 0.177904 0.949122 0.11455
H_ H_ 0.868843 0.164971 0.851192 0.11455
H_ H_ 0.780114 0.185164 0.856976 0.11455
H_ H_ 0.88153 0.182562 0.969171 0.11455
H_ H_ 0.970879 0.163994 0.963271 0.11455
H_ H_ 0.955 0.166699 0.87113 0.11455
H_ H_ 0.619173 0.0194288 0.944868 0.11455
H_ H_ 0.64915 0.437786 0.845767 0.11455
H_ H_ 0.629558 0.0313123 0.853232 0.11455
H_ H_ 0.58963 0.439491 0.958389 0.11455
H_ H_ 0.590382 0.343655 0.954569 0.11455
H_ H_ 0.64897 0.353956 0.870607 0.11455
H_ H_ 0.574993 0.113773 0.965003 0.11455
H_ H_ 0.551121 0.0879502 0.509001 0.11455
H_ H_ 0.581561 0.133405 0.551819 0.11455
H_ H_ 0.680123 0.253808 0.971587 0.11455
H_ H_ 0.728226 0.288631 0.511756 0.11455
H_ H_ 0.714945 0.260844 0.563215 0.11455
H_ H_ 0.507642 0.219912 0.619705 0.11455
H_ H_ 0.495994 0.218003 0.67229 0.11455
H_ H_ 0.739665 0.122631 0.634212 0.11455
H_ H_ 0.732247 0.124572 0.687105 0.11455
H_ H_ 0.536395 0.104804 0.746586 0.11455
H_ H_ 0.522141 0.0776056 0.794928 0.11455
H_ H_ 0.560447 0.117772 0.835139 0.11455
H_ H_ 0.659677 0.242794 0.756365 0.11455
H_ H_ 0.684664 0.290179 0.792983 0.11455
H_ H_ 0.672074 0.261003 0.843761 0.11455
H_ H_ 0.693788 0.317707 0.698397 0.11455
H_ H_ 0.633374 0.343903 0.599514 0.11455
H_ H_ 0.725766 0.350937 0.612989 0.11455
H_ H_ 0.608688 0.330929 0.719394 0.11455
H_ H_ 0.518787 0.341845 0.709117 0.11455
H_ H_ 0.546615 0.338195 0.616432 0.11455
H_ H_ 0.8952 0.491386 0.69127 0.11455
H_ H_ 0.869327 0.0742424 0.599576 0.11455
H_ H_ 0.849131 0.475058 0.60306 0.11455
H_ H_ 0.863713 0.0747527 0.718267 0.11455
H_ H_ 0.869589 0.164777 0.713948 0.11455
H_ H_ 0.878366 0.154793 0.624309 0.11455
H_ H_ 0.917728 0.394981 0.718878 0.11455
H_ H_ 0.939823 0.417828 0.769016 0.11455
H_ H_ 0.90197 0.372657 0.810353 0.11455
H_ H_ 0.797808 0.262614 0.728206 0.11455
H_ H_ 0.767426 0.210589 0.765515 0.11455
H_ H_ 0.781622 0.231855 0.816153 0.11455
H_ H_ 0.983992 0.281318 0.87373 0.11455
H_ H_ 0.00164225 0.28939 0.923475 0.11455
H_ H_ 0.747598 0.359454 0.89361 0.11455
H_ H_ 0.758531 0.349863 0.946242 0.11455
H_ H_ 0.954308 0.394937 1.00195832 0.11455
H_ H_ 0.955606 0.428714 0.546015 0.11455
H_ H_ 0.924975 0.385587 0.588569 0.11455
H_ H_ 0.841848 0.251038 0.513579 0.11455
H_ H_ 0.817451 0.202877 0.555913 0.11455
H_ H_ 0.819116 0.244686 0.602637 0.11455
C_ C_ 0.720679 0.186142 0.905614 0.68181
C_ C_ 0.777553 0.179584 0.90263 -0.05681
C_ C_ 0.809785 0.177872 0.927142 -0.08735
C_ C_ 0.862572 0.173904 0.923901 -0.05681
C_ C_ 0.883777 0.171434 0.896023 -0.05681
C_ C_ 0.851639 0.170749 0.872242 -0.08735
C_ C_ 0.80037 0.180903 0.875619 -0.08735
C_ C_ 0.896149 0.170717 0.947388 -0.08735
C_ C_ 0.947509 0.170622 0.943473 -0.08735
C_ C_ 0.969626 0.172465 0.916383 -0.05681
C_ C_ 0.937471 0.16777 0.892628 -0.08735
C_ C_ 0.616602 0.285541 0.907973 0.68181
C_ C_ 0.633529 0.0865505 0.900873 0.68181
C_ C_ 0.629622 0.0312844 0.899428 -0.05681
C_ C_ 0.624225 0.5034 0.919972 -0.08735
C_ C_ 0.617135 0.452105 0.916303 -0.05681
C_ C_ 0.629222 0.427173 0.890656 -0.05681
C_ C_ 0.645549 0.456261 0.866962 -0.08735
C_ C_ 0.649654 0.509014 0.869938 -0.08735
C_ C_ 0.60142 0.42155 0.938777 -0.08735
C_ C_ 0.600284 0.367972 0.93608 -0.08735
C_ C_ 0.616841 0.34352 0.910444 -0.05681
C_ C_ 0.634678 0.373325 0.889622 -0.08735
C_ C_ 0.523125 0.179148 0.903627 0.68181
C_ C_ 0.588722 0.136002 0.981968 0.1947
C_ C_ 0.577711 0.116121 0.506348 -0.08735
C_ C_ 0.5992 0.140066 0.531541 -0.08735
C_ C_ 0.636773 0.177835 0.527835 -0.05681
C_ C_ 0.651796 0.190606 0.498742 0.18498
C_ C_ 0.663422 0.249124 0.993726 -0.08735
C_ C_ 0.70785 0.254616 0.516592 -0.08735
C_ C_ 0.690639 0.247259 0.544752 -0.08735
C_ C_ 0.65554 0.207534 0.550543 0.18498
C_ C_ 0.679654 0.173699 0.596969 0.44287
C_ C_ 0.597024 0.203838 0.592323 0.44287
C_ C_ 0.585541 0.192977 0.621379 -0.05681
C_ C_ 0.538439 0.205359 0.633122 -0.08735
C_ C_ 0.533019 0.205656 0.663724 -0.08735
C_ C_ 0.571877 0.188176 0.681458 -0.05681
C_ C_ 0.618691 0.173987 0.669148 -0.05681
C_ C_ 0.624801 0.172229 0.638954 -0.05681
C_ C_ 0.670815 0.161326 0.626572 -0.05681
C_ C_ 0.706308 0.139479 0.644546 -0.08735
C_ C_ 0.702812 0.142179 0.674375 -0.08735
C_ C_ 0.658998 0.158798 0.687083 -0.05681
C_ C_ 0.651038 0.154348 0.716776 0.44287
C_ C_ 0.571321 0.194867 0.711802 0.44287
C_ C_ 0.595946 0.158577 0.7577 0.18498
C_ C_ 0.560358 0.120824 0.763385 -0.08735
C_ C_ 0.549508 0.108773 0.791271 -0.08735
C_ C_ 0.574585 0.129017 0.814514 -0.08735
C_ C_ 0.605571 0.171821 0.810243 0.18498
C_ C_ 0.620101 0.185784 0.781009 -0.05681
C_ C_ 0.64481 0.230802 0.77684 -0.08735
C_ C_ 0.659262 0.260068 0.798723 -0.08735
C_ C_ 0.652089 0.242513 0.827219 0.1947
C_ C_ 0.772545 0.317433 0.65869 0.68181
C_ C_ 0.716014 0.326792 0.655297 -0.05681
C_ C_ 0.681194 0.328893 0.678384 -0.08735
C_ C_ 0.630117 0.333352 0.673722 -0.05681
C_ C_ 0.610566 0.335772 0.645396 -0.05681
C_ C_ 0.644734 0.340943 0.621681 -0.08735
C_ C_ 0.696154 0.336312 0.627624 -0.08735
C_ C_ 0.595292 0.33723 0.696952 -0.08735
C_ C_ 0.542241 0.336484 0.6911 -0.08735
C_ C_ 0.523179 0.337418 0.662118 -0.05681
C_ C_ 0.558253 0.336918 0.638713 -0.08735
C_ C_ 0.877432 0.225776 0.666369 0.68181
C_ C_ 0.864835 0.420074 0.652063 0.68181
C_ C_ 0.864486 0.47475 0.648567 -0.05681
C_ C_ 0.872951 0.0064178 0.674826 -0.08735
C_ C_ 0.870886 0.0597769 0.672785 -0.05681
C_ C_ 0.877653 0.0841516 0.646152 -0.05681
C_ C_ 0.871206 0.05581 0.620632 -0.08735
C_ C_ 0.858449 0.496853 0.621524 -0.08735
C_ C_ 0.867508 0.0910227 0.697693 -0.08735
C_ C_ 0.868725 0.142431 0.694354 -0.08735
C_ C_ 0.875087 0.168051 0.668695 -0.05681
C_ C_ 0.881776 0.136701 0.644154 -0.08735
C_ C_ 0.970579 0.321358 0.657672 0.68181
C_ C_ 0.9014 0.373517 0.737816 0.1947
C_ C_ 0.908777 0.391359 0.765589 -0.08735
C_ C_ 0.887029 0.364628 0.788249 -0.08735
C_ C_ 0.856874 0.320456 0.783077 -0.05681
C_ C_ 0.847889 0.306654 0.754726 0.18498
C_ C_ 0.813601 0.2691 0.749387 -0.08735
C_ C_ 0.789912 0.24203 0.770607 -0.08735
C_ C_ 0.804587 0.251192 0.798735 -0.08735
C_ C_ 0.835515 0.291525 0.805442 0.18498
C_ C_ 0.808053 0.321195 0.853377 0.44287
C_ C_ 0.893148 0.292081 0.846395 0.44287
C_ C_ 0.902795 0.294168 0.875957 -0.05681
C_ C_ 0.953011 0.28828 0.887408 -0.08735
C_ C_ 0.962754 0.294563 0.916743 -0.08735
C_ C_ 0.920753 0.300174 0.935892 -0.05681
C_ C_ 0.872302 0.309697 0.924952 -0.05681
C_ C_ 0.86401 0.309164 0.894475 -0.05681
C_ C_ 0.81538 0.318659 0.883975 -0.05681
C_ C_ 0.775228 0.332668 0.902271 -0.08735
C_ C_ 0.786093 0.332934 0.932044 -0.08735
C_ C_ 0.832211 0.320827 0.942824 -0.05681
C_ C_ 0.843402 0.327512 0.972459 0.44287
C_ C_ 0.929874 0.303287 0.965295 0.44287
C_ C_ 0.885857 0.341889 0.5119 0.18498
C_ C_ 0.916463 0.385382 0.516073 -0.08735
C_ C_ 0.932353 0.398273 0.543552 -0.08735
C_ C_ 0.915775 0.371763 0.567181 -0.08735
C_ C_ 0.880888 0.331691 0.564836 0.18498
C_ C_ 0.868877 0.314788 0.536514 -0.05681
C_ C_ 0.845958 0.266842 0.533449 -0.08735
C_ C_ 0.835509 0.24072 0.558347 -0.08735
C_ C_ 0.836599 0.263075 0.585111 0.1947
N_ N_ 0.6202 0.176057 0.976689 -0.29468
N_ N_ 0.643314 0.19449 0.580931 -0.17154
N_ N_ 0.607521 0.172234 0.728354 -0.17154
N_ N_ 0.624621 0.197647 0.832266 -0.29468
N_ N_ 0.870148 0.332988 0.732981 -0.29468
N_ N_ 0.845445 0.302375 0.835938 -0.17154
N_ N_ 0.891861 0.318453 0.983242 -0.17154
N_ N_ 0.865657 0.306311 0.5881 -0.29468
O_ O_ 0.700362 0.187722 0.9299 -0.58347
O_ O_ 0.692929 0.19267 0.884761 -0.58347
O_ O_ 0.614597 0.259073 0.932198 -0.58347
O_ O_ 0.608922 0.26261 0.884194 -0.58347
O_ O_ 0.63688 0.107938 0.924983 -0.58347
O_ O_ 0.623842 0.111936 0.878169 -0.58347
O_ O_ 0.551606 0.180094 0.925643 -0.58347
O_ O_ 0.543368 0.188098 0.87932 -0.58347
O_ O_ 0.563224 0.226856 0.576034 -0.46727
O_ O_ 0.72428 0.160794 0.585132 -0.46727
O_ O_ 0.527697 0.205603 0.72266 -0.46727
O_ O_ 0.685906 0.132783 0.732765 -0.46727
O_ O_ 0.793019 0.321257 0.68277 -0.58347
O_ O_ 0.797644 0.313092 0.63606 -0.58347
O_ O_ 0.868135 0.252671 0.688441 -0.58347
O_ O_ 0.880358 0.246219 0.641002 -0.58347
O_ O_ 0.866916 0.40134 0.676997 -0.58347
O_ O_ 0.871623 0.392865 0.631115 -0.58347
O_ O_ 0.944379 0.329033 0.680118 -0.58347
O_ O_ 0.950522 0.321499 0.633532 -0.58347
O_ O_ 0.927386 0.269442 0.830683 -0.46727
O_ O_ 0.764057 0.333822 0.843203 -0.46727
O_ O_ 0.972049 0.285433 0.976696 -0.46727
O_ O_ 0.807485 0.33785 0.991647 -0.46727
Zn Zn 0.636868 0.676907 0.381769 0.90689
Zn Zn 0.646803 0.674856 0.42811 0.90689
Zn Zn 0.880264 0.812379 0.130948 0.90689
Zn Zn 0.867731 0.819395 0.180727 0.90689
H_ H_ 0.816084 0.668819 0.444393 0.11455
H_ H_ 0.886906 0.667821 0.348504 0.11455
H_ H_ 0.79716 0.686102 0.353781 0.11455
H_ H_ 0.898427 0.701245 0.461087 0.11455
H_ H_ 0.993443 0.675728 0.456373 0.11455
H_ H_ 0.97058 0.654707 0.367306 0.11455
H_ H_ 0.63357 0.506442 0.44365 0.11455
H_ H_ 0.618205 0.921114 0.345496 0.11455
H_ H_ 0.654199 0.519568 0.352729 0.11455
H_ H_ 0.599269 0.920105 0.46072 0.11455
H_ H_ 0.599449 0.829207 0.455881 0.11455
H_ H_ 0.661836 0.841247 0.371667 0.11455
H_ H_ 0.605232 0.602657 0.464494 0.11455
H_ H_ 0.573753 0.586413 0.0159627 0.11455
H_ H_ 0.620287 0.625542 0.0528416 0.11455
H_ H_ 0.708878 0.746972 0.471454 0.11455
H_ H_ 0.716314 0.813774 0.0113523 0.11455
H_ H_ 0.694962 0.794358 0.059868 0.11455
H_ H_ 0.516927 0.698503 0.12216 0.11455
H_ H_ 0.509541 0.68577 0.173234 0.11455
H_ H_ 0.771606 0.672664 0.130724 0.11455
H_ H_ 0.763838 0.653897 0.181416 0.11455
H_ H_ 0.591451 0.57441 0.243611 0.11455
H_ H_ 0.5687 0.548103 0.292193 0.11455
H_ H_ 0.587191 0.60288 0.332942 0.11455
H_ H_ 0.680878 0.739768 0.257418 0.11455
H_ H_ 0.724014 0.77174 0.29986 0.11455
H_ H_ 0.693605 0.743547 0.348559 0.11455
H_ H_ 0.701639 0.821446 0.194719 0.11455
H_ H_ 0.626685 0.833856 0.0964119 0.11455
H_ H_ 0.719631 0.815817 0.103768 0.11455
H_ H_ 0.611171 0.799496 0.212756 0.11455
H_ H_ 0.521275 0.784801 0.203427 0.11455
H_ H_ 0.541395 0.829606 0.116836 0.11455
H_ H_ 0.886418 0.982721 0.194309 0.11455
H_ H_ 0.837529 0.565894 0.101112 0.11455
H_ H_ 0.854275 0.971219 0.104812 0.11455
H_ H_ 0.922323 0.570957 0.211529 0.11455
H_ H_ 0.919617 0.664282 0.205772 0.11455
H_ H_ 0.859124 0.648927 0.121085 0.11455
H_ H_ 0.921539 0.891004 0.213725 0.11455
H_ H_ 0.939109 0.917246 0.265173 0.11455
H_ H_ 0.914508 0.868757 0.305169 0.11455
H_ H_ 0.816601 0.749916 0.223537 0.11455
H_ H_ 0.805576 0.681292 0.259091 0.11455
H_ H_ 0.827811 0.704374 0.309042 0.11455
H_ H_ 1.00351 0.795327 0.377013 0.11455
H_ H_ 0.00776474 0.798659 0.425976 0.11455
H_ H_ 0.752256 0.830282 0.379893 0.11455
H_ H_ 0.755152 0.842975 0.432231 0.11455
H_ H_ 0.918389 0.913169 0.494807 0.11455
H_ H_ 0.97173 0.924621 0.0458055 0.11455
H_ H_ 0.933384 0.882688 0.0848602 0.11455
H_ H_ 0.843715 0.757598 0.00407657 0.11455
H_ H_ 0.797222 0.716607 0.0427842 0.11455
H_ H_ 0.825309 0.73623 0.0953979 0.11455
C_ C_ 0.739219 0.684451 0.404243 0.68181
C_ C_ 0.796746 0.681184 0.400126 -0.05681
C_ C_ 0.829298 0.682325 0.423486 -0.08735
C_ C_ 0.880663 0.680251 0.41972 -0.05681
C_ C_ 0.901129 0.668818 0.392787 -0.05681
C_ C_ 0.870472 0.671311 0.368803 -0.08735
C_ C_ 0.81869 0.678058 0.37239 -0.08735
C_ C_ 0.91361 0.682265 0.443565 -0.08735
C_ C_ 0.966225 0.677181 0.439716 -0.08735
C_ C_ 0.987177 0.668252 0.411895 -0.05681
C_ C_ 0.953912 0.663868 0.388934 -0.08735
C_ C_ 0.633874 0.772899 0.409625 0.68181
C_ C_ 0.647033 0.577585 0.399424 0.68181
C_ C_ 0.64362 0.520344 0.397856 -0.05681
C_ C_ 0.620446 0.989335 0.41821 -0.08735
C_ C_ 0.62564 0.936219 0.416542 -0.05681
C_ C_ 0.638438 0.912627 0.390327 -0.05681
C_ C_ 0.63588 0.940184 0.364488 -0.08735
C_ C_ 0.631852 0.993203 0.365931 -0.08735
C_ C_ 0.613675 0.905217 0.440965 -0.08735
C_ C_ 0.615714 0.853171 0.438118 -0.08735
C_ C_ 0.626788 0.829701 0.411421 -0.05681
C_ C_ 0.638844 0.859951 0.388129 -0.08735
C_ C_ 0.543653 0.668678 0.403629 0.68181
C_ C_ 0.621668 0.621952 0.481876 0.1947
C_ C_ 0.596765 0.615951 0.0105274 -0.08735
C_ C_ 0.621677 0.640773 0.0318462 -0.08735
C_ C_ 0.642621 0.688626 0.0274051 -0.05681
C_ C_ 0.650105 0.703792 0.998085 0.18498
C_ C_ 0.697283 0.734949 0.492846 -0.08735
C_ C_ 0.699933 0.776203 0.0156439 -0.08735
C_ C_ 0.686684 0.764459 0.0432064 -0.08735
C_ C_ 0.661102 0.720208 0.0504377 0.18498
C_ C_ 0.696319 0.694699 0.0948333 0.44287
C_ C_ 0.608053 0.713123 0.0920953 0.44287
C_ C_ 0.600731 0.699637 0.120895 -0.05681
C_ C_ 0.553095 0.692401 0.134781 -0.08735
C_ C_ 0.549437 0.685838 0.164362 -0.08735
C_ C_ 0.591891 0.67905 0.180745 -0.05681
C_ C_ 0.640798 0.681327 0.167875 -0.05681
C_ C_ 0.645112 0.692904 0.138806 -0.05681
C_ C_ 0.693146 0.690263 0.125183 -0.05681
C_ C_ 0.735137 0.679308 0.141565 -0.08735
C_ C_ 0.73031 0.666119 0.170997 -0.08735
C_ C_ 0.68367 0.670511 0.184628 -0.05681
C_ C_ 0.67724 0.660374 0.214744 0.44287
C_ C_ 0.590042 0.67509 0.210194 0.44287
C_ C_ 0.624247 0.647273 0.256657 0.18498
C_ C_ 0.60176 0.599234 0.261852 -0.08735
C_ C_ 0.583636 0.584881 0.288751 -0.08735
C_ C_ 0.592903 0.617821 0.312191 -0.08735
C_ C_ 0.625688 0.660562 0.309094 0.18498
C_ C_ 0.639773 0.677503 0.280613 -0.05681
C_ C_ 0.671377 0.720319 0.277713 -0.08735
C_ C_ 0.696792 0.740012 0.302171 -0.08735
C_ C_ 0.678037 0.725842 0.329233 0.1947
C_ C_ 0.772876 0.815841 0.154098 0.68181
C_ C_ 0.715778 0.815838 0.150963 -0.05681
C_ C_ 0.684741 0.820453 0.173887 -0.08735
C_ C_ 0.63117 0.818963 0.169034 -0.05681
C_ C_ 0.611815 0.827969 0.142197 -0.05681
C_ C_ 0.64183 0.826324 0.118156 -0.08735
C_ C_ 0.694862 0.818929 0.122354 -0.08735
C_ C_ 0.597166 0.808944 0.191735 -0.08735
C_ C_ 0.543658 0.805362 0.186644 -0.08735
C_ C_ 0.522774 0.820065 0.160505 -0.05681
C_ C_ 0.557952 0.829246 0.137382 -0.08735
C_ C_ 0.886827 0.718124 0.159801 0.68181
C_ C_ 0.868462 0.913531 0.151807 0.68181
C_ C_ 0.870787 0.969562 0.149742 -0.05681
C_ C_ 0.885707 0.504183 0.171353 -0.08735
C_ C_ 0.886293 0.557806 0.169579 -0.05681
C_ C_ 0.869129 0.580177 0.144528 -0.05681
C_ C_ 0.855504 0.548661 0.120514 -0.08735
C_ C_ 0.859157 0.992485 0.12328 -0.08735
C_ C_ 0.90494 0.589253 0.192484 -0.08735
C_ C_ 0.913267 0.640927 0.187262 -0.08735
C_ C_ 0.892396 0.662862 0.162371 -0.05681
C_ C_ 0.87354 0.632583 0.140177 -0.08735
C_ C_ 0.969702 0.825028 0.157376 0.68181
C_ C_ 0.898453 0.871859 0.231925 0.1947
C_ C_ 0.913768 0.885742 0.260511 -0.08735
C_ C_ 0.896839 0.858243 0.283135 -0.08735
C_ C_ 0.869985 0.811246 0.277748 -0.05681
C_ C_ 0.856479 0.79815 0.248859 0.18498
C_ C_ 0.837352 0.751964 0.242726 -0.08735
C_ C_ 0.827632 0.716642 0.263826 -0.08735
C_ C_ 0.840605 0.726574 0.292269 -0.08735
C_ C_ 0.862131 0.775432 0.299999 0.18498
C_ C_ 0.826532 0.803351 0.345265 0.44287
C_ C_ 0.914235 0.785872 0.343027 0.44287
C_ C_ 0.920599 0.799573 0.372883 -0.05681
C_ C_ 0.967587 0.796407 0.387714 -0.08735
C_ C_ 0.969082 0.800953 0.416446 -0.08735
C_ C_ 0.925795 0.80842 0.43292 -0.05681
C_ C_ 0.87925 0.811749 0.419264 -0.05681
C_ C_ 0.875823 0.807786 0.388623 -0.05681
C_ C_ 0.829384 0.811379 0.374962 -0.05681
C_ C_ 0.786803 0.821498 0.391254 -0.08735
C_ C_ 0.788101 0.827744 0.421158 -0.08735
C_ C_ 0.8361 0.82349 0.435501 -0.05681
C_ C_ 0.841791 0.832422 0.465141 0.44287
C_ C_ 0.929177 0.813791 0.463353 0.44287
C_ C_ 0.903119 0.83794 0.0072589 0.18498
C_ C_ 0.939647 0.874357 0.0130358 -0.08735
C_ C_ 0.947974 0.890715 0.0407746 -0.08735
C_ C_ 0.92424 0.867852 0.0639491 -0.08735
C_ C_ 0.894589 0.823835 0.0601054 0.18498
C_ C_ 0.882493 0.808767 0.0304161 -0.05681
C_ C_ 0.851836 0.766358 0.0252837 -0.08735
C_ C_ 0.82651 0.743657 0.0474349 -0.08735
C_ C_ 0.840073 0.758544 0.0770477 0.1947
N_ N_ 0.643905 0.666701 0.477368 -0.29468
N_ N_ 0.654222 0.707203 0.079517 -0.17154
N_ N_ 0.629905 0.662612 0.226817 -0.17154
N_ N_ 0.643147 0.686753 0.332195 -0.29468
N_ N_ 0.872451 0.828284 0.226858 -0.29468
N_ N_ 0.867719 0.788405 0.329526 -0.17154
N_ N_ 0.886964 0.826656 0.479087 -0.17154
N_ N_ 0.871799 0.79936 0.0820927 -0.29468
O_ O_ 0.719483 0.683646 0.428759 -0.58347
O_ O_ 0.710133 0.681165 0.382894 -0.58347
O_ O_ 0.630057 0.747167 0.433447 -0.58347
O_ O_ 0.630723 0.750829 0.385675 -0.58347
O_ O_ 0.655938 0.598815 0.423399 -0.58347
O_ O_ 0.63298 0.604045 0.377587 -0.58347
O_ O_ 0.572848 0.666022 0.425481 -0.58347
O_ O_ 0.562239 0.673397 0.378963 -0.58347
O_ O_ 0.566708 0.715156 0.075541 -0.46727
O_ O_ 0.740215 0.684334 0.08291 -0.46727
O_ O_ 0.549617 0.688856 0.224521 -0.46727
O_ O_ 0.714591 0.641034 0.229853 -0.46727
O_ O_ 0.792103 0.823513 0.178397 -0.58347
O_ O_ 0.801333 0.798765 0.134063 -0.58347
O_ O_ 0.873014 0.743349 0.180419 -0.58347
O_ O_ 0.895584 0.738779 0.136222 -0.58347
O_ O_ 0.866695 0.893672 0.175718 -0.58347
O_ O_ 0.865128 0.886245 0.12894 -0.58347
O_ O_ 0.941871 0.81698 0.179007 -0.58347
O_ O_ 0.951865 0.831301 0.133395 -0.58347
O_ O_ 0.954435 0.767868 0.32979 -0.46727
O_ O_ 0.781975 0.811918 0.331857 -0.46727
O_ O_ 0.97245 0.808697 0.477596 -0.46727
O_ O_ 0.80252 0.854619 0.478297 -0.46727
Zn Zn 0.623859 0.69042 0.878681 0.90689
Zn Zn 0.630652 0.686109 0.92785 0.90689
Zn Zn 0.876456 0.81604 0.632168 0.90689
Zn Zn 0.860526 0.824215 0.679994 0.90689
H_ H_ 0.798888 0.692586 0.944326 0.11455
H_ H_ 0.867356 0.677666 0.846888 0.11455
H_ H_ 0.777437 0.697269 0.854888 0.11455
H_ H_ 0.884396 0.694574 0.965367 0.11455
H_ H_ 0.979486 0.693166 0.958024 0.11455
H_ H_ 0.952741 0.655075 0.868548 0.11455
H_ H_ 0.61357 0.520032 0.939156 0.11455
H_ H_ 0.622967 0.938578 0.847117 0.11455
H_ H_ 0.660586 0.529607 0.850668 0.11455
H_ H_ 0.602047 0.935113 0.965203 0.11455
H_ H_ 0.602681 0.840497 0.961006 0.11455
H_ H_ 0.628804 0.853894 0.869506 0.11455
H_ H_ 0.583555 0.609698 0.964708 0.11455
H_ H_ 0.590572 0.573566 0.514218 0.11455
H_ H_ 0.620434 0.624771 0.554004 0.11455
H_ H_ 0.687299 0.762936 0.970956 0.11455
H_ H_ 0.727233 0.805026 0.508668 0.11455
H_ H_ 0.698698 0.789661 0.558327 0.11455
H_ H_ 0.511977 0.707628 0.615068 0.11455
H_ H_ 0.501076 0.710432 0.667086 0.11455
H_ H_ 0.762148 0.674612 0.638647 0.11455
H_ H_ 0.74831 0.670341 0.690435 0.11455
H_ H_ 0.551716 0.604729 0.745917 0.11455
H_ H_ 0.532841 0.583788 0.796451 0.11455
H_ H_ 0.568674 0.630832 0.833937 0.11455
H_ H_ 0.642437 0.765306 0.754145 0.11455
H_ H_ 0.684578 0.805678 0.794253 0.11455
H_ H_ 0.676374 0.768485 0.842944 0.11455
H_ H_ 0.695687 0.828851 0.691539 0.11455
H_ H_ 0.633151 0.82511 0.59243 0.11455
H_ H_ 0.723436 0.812177 0.601627 0.11455
H_ H_ 0.607662 0.834213 0.710491 0.11455
H_ H_ 0.519167 0.831328 0.702784 0.11455
H_ H_ 0.539847 0.826395 0.613177 0.11455
H_ H_ 0.86772 0.98834 0.695657 0.11455
H_ H_ 0.841902 0.566312 0.599154 0.11455
H_ H_ 0.86711 0.980822 0.601728 0.11455
H_ H_ 0.894468 0.574796 0.71409 0.11455
H_ H_ 0.904267 0.663414 0.70674 0.11455
H_ H_ 0.8533 0.651859 0.621723 0.11455
H_ H_ 0.929235 0.877639 0.716687 0.11455
H_ H_ 0.946893 0.898146 0.76837 0.11455
H_ H_ 0.893327 0.866918 0.805199 0.11455
H_ H_ 0.794572 0.760788 0.718452 0.11455
H_ H_ 0.759089 0.706452 0.758871 0.11455
H_ H_ 0.777806 0.72398 0.809169 0.11455
H_ H_ 0.977119 0.792737 0.864531 0.11455
H_ H_ 0.995496 0.794425 0.916202 0.11455
H_ H_ 0.736736 0.853929 0.892144 0.11455
H_ H_ 0.754023 0.86205 0.943788 0.11455
H_ H_ 0.963963 0.891201 0.996666 0.11455
H_ H_ 0.946437 0.937247 0.54401 0.11455
H_ H_ 0.9194 0.886533 0.585039 0.11455
H_ H_ 0.845943 0.745725 0.506613 0.11455
H_ H_ 0.824897 0.698518 0.549383 0.11455
H_ H_ 0.836871 0.736285 0.597923 0.11455
C_ C_ 0.725498 0.698794 0.904277 0.68181
C_ C_ 0.780975 0.694918 0.9012 -0.05681
C_ C_ 0.815432 0.694054 0.923053 -0.08735
C_ C_ 0.869239 0.685372 0.919854 -0.05681
C_ C_ 0.887949 0.67759 0.892217 -0.05681
C_ C_ 0.854441 0.678179 0.868943 -0.08735
C_ C_ 0.801336 0.688185 0.873357 -0.08735
C_ C_ 0.900818 0.685664 0.944372 -0.08735
C_ C_ 0.953171 0.680776 0.94066 -0.08735
C_ C_ 0.972532 0.671737 0.913146 -0.05681
C_ C_ 0.94009 0.667189 0.889422 -0.08735
C_ C_ 0.619293 0.784229 0.911895 0.68181
C_ C_ 0.634608 0.588248 0.897399 0.68181
C_ C_ 0.638684 0.534174 0.895684 -0.05681
C_ C_ 0.622889 0.00131366 0.92351 -0.08735
C_ C_ 0.616433 0.947949 0.92143 -0.05681
C_ C_ 0.623505 0.92501 0.893903 -0.05681
C_ C_ 0.623383 0.956517 0.868549 -0.08735
C_ C_ 0.630284 0.00892023 0.872733 -0.08735
C_ C_ 0.609426 0.91732 0.945356 -0.08735
C_ C_ 0.608562 0.863477 0.942776 -0.08735
C_ C_ 0.617441 0.840515 0.91617 -0.05681
C_ C_ 0.625048 0.872804 0.891515 -0.08735
C_ C_ 0.528318 0.681299 0.904386 0.68181
C_ C_ 0.59927 0.633534 0.981928 0.1947
C_ C_ 0.615107 0.605558 0.509765 -0.08735
C_ C_ 0.631781 0.635341 0.532503 -0.08735
C_ C_ 0.654459 0.682933 0.527389 -0.05681
C_ C_ 0.664963 0.694311 0.499033 0.18498
C_ C_ 0.681288 0.746044 0.992533 -0.08735
C_ C_ 0.708068 0.770002 0.514637 -0.08735
C_ C_ 0.697471 0.758718 0.543218 -0.08735
C_ C_ 0.667365 0.717207 0.549568 0.18498
C_ C_ 0.695718 0.697393 0.598826 0.44287
C_ C_ 0.606843 0.709074 0.590524 0.44287
C_ C_ 0.596226 0.702898 0.619412 -0.05681
C_ C_ 0.547167 0.707405 0.629644 -0.08735
C_ C_ 0.53876 0.706937 0.659339 -0.08735
C_ C_ 0.578805 0.702908 0.678639 -0.05681
C_ C_ 0.628813 0.695627 0.667938 -0.05681
C_ C_ 0.636945 0.695209 0.63836 -0.05681
C_ C_ 0.685858 0.688284 0.627891 -0.05681
C_ C_ 0.725592 0.675124 0.646746 -0.08735
C_ C_ 0.716813 0.675754 0.676559 -0.08735
C_ C_ 0.667516 0.68401 0.687263 -0.05681
C_ C_ 0.654073 0.674313 0.716151 0.44287
C_ C_ 0.569877 0.699688 0.708737 0.44287
C_ C_ 0.596214 0.672675 0.756506 0.18498
C_ C_ 0.567889 0.628114 0.763223 -0.08735
C_ C_ 0.553928 0.615822 0.791248 -0.08735
C_ C_ 0.577351 0.641898 0.813348 -0.08735
C_ C_ 0.610358 0.682821 0.808089 0.18498
C_ C_ 0.613075 0.702577 0.779827 -0.05681
C_ C_ 0.636416 0.751544 0.775804 -0.08735
C_ C_ 0.664241 0.771493 0.797679 -0.08735
C_ C_ 0.659547 0.750148 0.825303 0.1947
C_ C_ 0.772206 0.816593 0.654419 0.68181
C_ C_ 0.716914 0.820099 0.647622 -0.05681
C_ C_ 0.68284 0.828015 0.669987 -0.08735
C_ C_ 0.631637 0.831547 0.665472 -0.05681
C_ C_ 0.6108 0.829502 0.637946 -0.05681
C_ C_ 0.6459 0.823132 0.614514 -0.08735
C_ C_ 0.698637 0.821034 0.619572 -0.08735
C_ C_ 0.596409 0.829995 0.689206 -0.08735
C_ C_ 0.543342 0.829485 0.684969 -0.08735
C_ C_ 0.523945 0.825575 0.65735 -0.05681
C_ C_ 0.557232 0.829559 0.63427 -0.08735
C_ C_ 0.879176 0.720981 0.66208 0.68181
C_ C_ 0.863234 0.919522 0.649768 0.68181
C_ C_ 0.869554 0.976978 0.648908 -0.05681
C_ C_ 0.878215 0.506458 0.671919 -0.08735
C_ C_ 0.871241 0.55765 0.669902 -0.05681
C_ C_ 0.864513 0.580919 0.642511 -0.05681
C_ C_ 0.855711 0.549934 0.618592 -0.08735
C_ C_ 0.866961 1.00329 0.622459 -0.08735
C_ C_ 0.886093 0.588735 0.693541 -0.08735
C_ C_ 0.892426 0.640645 0.689749 -0.08735
C_ C_ 0.882038 0.663344 0.663522 -0.05681
C_ C_ 0.86362 0.632562 0.641547 -0.08735
C_ C_ 0.966951 0.825877 0.654817 0.68181
C_ C_ 0.906364 0.858335 0.733513 0.1947
C_ C_ 0.920381 0.868583 0.763044 -0.08735
C_ C_ 0.88856 0.85089 0.784653 -0.08735
C_ C_ 0.84579 0.82202 0.777414 -0.05681
C_ C_ 0.83316 0.810308 0.747534 0.18498
C_ C_ 0.799706 0.771368 0.741632 -0.08735
C_ C_ 0.781449 0.73975 0.765099 -0.08735
C_ C_ 0.789678 0.752877 0.79382 -0.08735
C_ C_ 0.821014 0.794924 0.800077 0.18498
C_ C_ 0.800663 0.824776 0.848731 0.44287
C_ C_ 0.881289 0.788251 0.841317 0.44287
C_ C_ 0.897014 0.802948 0.869779 -0.05681
C_ C_ 0.946919 0.79615 0.87954 -0.08735
C_ C_ 0.956454 0.796891 0.90952 -0.08735
C_ C_ 0.919622 0.809607 0.93059 -0.05681
C_ C_ 0.871229 0.822979 0.918911 -0.05681
C_ C_ 0.859842 0.81919 0.888763 -0.05681
C_ C_ 0.810831 0.830962 0.878794 -0.05681
C_ C_ 0.773684 0.846579 0.899071 -0.08735
C_ C_ 0.783204 0.848136 0.92809 -0.08735
C_ C_ 0.833617 0.834409 0.93789 -0.05681
C_ C_ 0.846722 0.845259 0.967169 0.44287
C_ C_ 0.928813 0.814603 0.959556 0.44287
C_ C_ 0.893151 0.840112 0.507855 0.18498
C_ C_ 0.914621 0.887181 0.512067 -0.08735
C_ C_ 0.923143 0.904139 0.539585 -0.08735
C_ C_ 0.913695 0.871773 0.56284 -0.08735
C_ C_ 0.885217 0.828912 0.560434 0.18498
C_ C_ 0.874041 0.811686 0.531075 -0.05681
C_ C_ 0.848248 0.765604 0.527645 -0.08735
C_ C_ 0.840813 0.734942 0.551588 -0.08735
C_ C_ 0.844202 0.756501 0.579692 0.1947
N_ N_ 0.627974 0.676315 0.976514 -0.29468
N_ N_ 0.65603 0.705241 0.579849 -0.17154
N_ N_ 0.606347 0.685485 0.727017 -0.17154
N_ N_ 0.63045 0.709527 0.830119 -0.29468
N_ N_ 0.865238 0.828958 0.726759 -0.29468
N_ N_ 0.836143 0.801855 0.830869 -0.17154
N_ N_ 0.891579 0.828938 0.977682 -0.17154
N_ N_ 0.870098 0.800733 0.58347 -0.29468
O_ O_ 0.705025 0.702153 0.928706 -0.58347
O_ O_ 0.699414 0.696144 0.881622 -0.58347
O_ O_ 0.618323 0.755765 0.933986 -0.58347
O_ O_ 0.611434 0.766767 0.887473 -0.58347
O_ O_ 0.643905 0.608804 0.921943 -0.58347
O_ O_ 0.624401 0.615347 0.87648 -0.58347
O_ O_ 0.556545 0.676975 0.925707 -0.58347
O_ O_ 0.547577 0.683735 0.87972 -0.58347
O_ O_ 0.569743 0.716741 0.572803 -0.46727
O_ O_ 0.740054 0.695725 0.587197 -0.46727
O_ O_ 0.524623 0.71415 0.718023 -0.46727
O_ O_ 0.690495 0.661462 0.735445 -0.46727
O_ O_ 0.787916 0.829995 0.678766 -0.58347
O_ O_ 0.803121 0.801942 0.635516 -0.58347
O_ O_ 0.862114 0.745326 0.683745 -0.58347
O_ O_ 0.894045 0.74372 0.638757 -0.58347
O_ O_ 0.86521 0.898528 0.674294 -0.58347
O_ O_ 0.858408 0.891681 0.627672 -0.58347
O_ O_ 0.937956 0.818836 0.676766 -0.58347
O_ O_ 0.94875 0.835306 0.630565 -0.58347
O_ O_ 0.913315 0.764115 0.825631 -0.46727
O_ O_ 0.754594 0.837442 0.839951 -0.46727
O_ O_ 0.974169 0.804913 0.971038 -0.46727
O_ O_ 0.809533 0.852542 0.986189 -0.46727
_cell_length_a 26.376
_cell_length_b 26.400000238300095
_cell_length_c 46.67800035477134
_cell_angle_alpha 90.00700052986613
_cell_angle_beta 89.99899961309502
_cell_angle_gamma 90.45000003183146
_symmetry_space_group_name_H-M         'P 1'
_symmetry_Int_Tables_number            1
loop_
_symmetry_equiv_pos_as_xyz
   'x, y, z'
                         
loop_
_atom_site_label
_atom_site_type_symbol
_atom_site_fract_x 
_atom_site_fract_y
_atom_site_fract_z
_atom_site_charge
Zn Zn 0.123021 0.183667 0.384521 0.90689
Zn Zn 0.131942 0.177881 0.432026 0.90689
Zn Zn 0.372296 0.318059 0.133802 0.90689
Zn Zn 0.361907 0.318389 0.180428 0.90689
H_ H_ 0.302378 0.202105 0.443352 0.11455
H_ H_ 0.363418 0.159818 0.347044 0.11455
H_ H_ 0.273714 0.148617 0.357704 0.11455
H_ H_ 0.386296 0.199486 0.463341 0.11455
H_ H_ 0.480135 0.197102 0.452415 0.11455
H_ H_ 0.451561 0.146722 0.367114 0.11455
H_ H_ 0.1172 0.0125735 0.442554 0.11455
H_ H_ 0.107339 0.431265 0.353161 0.11455
H_ H_ 0.142882 0.0149432 0.350181 0.11455
H_ H_ 0.16931 0.431957 0.464062 0.11455
H_ H_ 0.147194 0.337172 0.465813 0.11455
H_ H_ 0.105544 0.350536 0.376893 0.11455
H_ H_ 0.0679219 0.114077 0.468241 0.11455
H_ H_ 0.072425 0.0759167 0.014665 0.11455
H_ H_ 0.0983913 0.124687 0.0571485 0.11455
H_ H_ 0.198928 0.237061 0.474058 0.11455
H_ H_ 0.226244 0.29486 0.0133271 0.11455
H_ H_ 0.205918 0.275649 0.0661795 0.11455
H_ H_ 0.0082412 0.171408 0.12395 0.11455
H_ H_ -0.0010539999999999994 0.168323 0.178996 0.11455
H_ H_ 0.262337 0.191352 0.141994 0.11455
H_ H_ 0.252974 0.171472 0.193665 0.11455
H_ H_ 0.0678424 0.0782848 0.254423 0.11455
H_ H_ 0.0431397 0.0584076 0.302462 0.11455
H_ H_ 0.0703118 0.111276 0.344099 0.11455
H_ H_ 0.156839 0.240346 0.260351 0.11455
H_ H_ 0.181042 0.294881 0.299783 0.11455
H_ H_ 0.180509 0.258874 0.349833 0.11455
H_ H_ 0.19417 0.292615 0.195634 0.11455
H_ H_ 0.125199 0.340914 0.101208 0.11455
H_ H_ 0.217515 0.344023 0.108962 0.11455
H_ H_ 0.110467 0.288834 0.215542 0.11455
H_ H_ 0.0190748 0.293863 0.209231 0.11455
H_ H_ 0.0398299 0.317085 0.117185 0.11455
H_ H_ 0.342547 0.48023 0.193383 0.11455
H_ H_ 0.323541 0.0738659 0.105163 0.11455
H_ H_ 0.345173 0.473033 0.102618 0.11455
H_ H_ 0.43337 0.0675617 0.206475 0.11455
H_ H_ 0.420051 0.161598 0.205627 0.11455
H_ H_ 0.346145 0.153206 0.125229 0.11455
H_ H_ 0.416193 0.389611 0.214162 0.11455
H_ H_ 0.415491 0.431897 0.263931 0.11455
H_ H_ 0.385226 0.380712 0.305917 0.11455
H_ H_ 0.300825 0.257922 0.223625 0.11455
H_ H_ 0.282371 0.198182 0.259466 0.11455
H_ H_ 0.300754 0.215697 0.31113 0.11455
H_ H_ 0.489341 0.293929 0.371142 0.11455
H_ H_ 0.503972 0.303738 0.422687 0.11455
H_ H_ 0.238495 0.338998 0.387443 0.11455
H_ H_ 0.249549 0.326304 0.439643 0.11455
H_ H_ 0.42929 0.412313 0.499716 0.11455
H_ H_ 0.441922 0.447376 0.0552058 0.11455
H_ H_ 0.427971 0.383842 0.091326 0.11455
H_ H_ 0.367554 0.250852 0.00868923 0.11455
H_ H_ 0.339821 0.196109 0.0504361 0.11455
H_ H_ 0.334357 0.236538 0.0983991 0.11455
C_ C_ 0.224063 0.179102 0.405939 0.68181
C_ C_ 0.278077 0.179057 0.399663 -0.05681
C_ C_ 0.312655 0.188358 0.422583 -0.08735
C_ C_ 0.365213 0.18926 0.418407 -0.05681
C_ C_ 0.384598 0.176406 0.390503 -0.05681
C_ C_ 0.350371 0.168356 0.367955 -0.08735
C_ C_ 0.29778 0.168223 0.373079 -0.08735
C_ C_ 0.399017 0.192181 0.441713 -0.08735
C_ C_ 0.451486 0.192891 0.434607 -0.08735
C_ C_ 0.469464 0.172927 0.409136 -0.05681
C_ C_ 0.437392 0.168661 0.386185 -0.08735
C_ C_ 0.128238 0.279928 0.416676 0.68181
C_ C_ 0.132673 0.0822963 0.400283 0.68181
C_ C_ 0.130115 0.0264594 0.396676 -0.05681
C_ C_ 0.163133 0.493145 0.421879 -0.08735
C_ C_ 0.155279 0.440385 0.420807 -0.05681
C_ C_ 0.133225 0.417572 0.396055 -0.05681
C_ C_ 0.122437 0.448667 0.372648 -0.08735
C_ C_ 0.133943 0.499326 0.37276 -0.08735
C_ C_ 0.165638 0.410155 0.444505 -0.08735
C_ C_ 0.152707 0.358421 0.444604 -0.08735
C_ C_ 0.131081 0.33561 0.419921 -0.05681
C_ C_ 0.124959 0.363773 0.394883 -0.08735
C_ C_ 0.029315 0.173909 0.409246 0.68181
C_ C_ 0.0936388 0.125651 0.484463 0.1947
C_ C_ 0.0839158 0.112661 0.0113091 -0.08735
C_ C_ 0.104108 0.138093 0.0351067 -0.08735
C_ C_ 0.130248 0.184794 0.030808 -0.05681
C_ C_ 0.14309 0.198505 1.00214962 0.18498
C_ C_ 0.191985 0.220784 0.496707 -0.08735
C_ C_ 0.1962 0.267972 0.0203984 -0.08735
C_ C_ 0.18398 0.255317 0.0484544 -0.08735
C_ C_ 0.151594 0.214593 0.0540332 0.18498
C_ C_ 0.185076 0.186282 0.101611 0.44287
C_ C_ 0.098085 0.201079 0.0965168 0.44287
C_ C_ 0.0897863 0.185551 0.126274 -0.05681
C_ C_ 0.0419063 0.178256 0.13761 -0.08735
C_ C_ 0.0368121 0.172725 0.168333 -0.08735
C_ C_ 0.0801452 0.168135 0.185914 -0.05681
C_ C_ 0.128373 0.16849 0.173663 -0.05681
C_ C_ 0.132876 0.17982 0.144084 -0.05681
C_ C_ 0.180848 0.181452 0.132168 -0.05681
C_ C_ 0.223273 0.184102 0.150512 -0.08735
C_ C_ 0.21986 0.172592 0.179947 -0.08735
C_ C_ 0.170405 0.164022 0.19122 -0.05681
C_ C_ 0.16212 0.158274 0.221822 0.44287
C_ C_ 0.0754519 0.170499 0.215861 0.44287
C_ C_ 0.107719 0.148147 0.263721 0.18498
C_ C_ 0.0847469 0.101006 0.270624 -0.08735
C_ C_ 0.0695426 0.0874317 0.298333 -0.08735
C_ C_ 0.0828221 0.119983 0.321523 -0.08735
C_ C_ 0.112434 0.165418 0.315585 0.18498
C_ C_ 0.124542 0.179479 0.286037 -0.05681
C_ C_ 0.147956 0.22925 0.281836 -0.08735
C_ C_ 0.164616 0.258732 0.305408 -0.08735
C_ C_ 0.15902 0.240825 0.333517 0.1947
C_ C_ 0.269303 0.31958 0.157215 0.68181
C_ C_ 0.212478 0.319418 0.152778 -0.05681
C_ C_ 0.179729 0.298756 0.174041 -0.08735
C_ C_ 0.127177 0.301017 0.170955 -0.05681
C_ C_ 0.107768 0.316987 0.144124 -0.05681
C_ C_ 0.140282 0.325554 0.120845 -0.08735
C_ C_ 0.192628 0.330056 0.12529 -0.08735
C_ C_ 0.0951321 0.29331 0.193947 -0.08735
C_ C_ 0.0432345 0.295495 0.190351 -0.08735
C_ C_ 0.0207439 0.304925 0.16395 -0.05681
C_ C_ 0.0547764 0.311977 0.140201 -0.08735
C_ C_ 0.382205 0.220107 0.164378 0.68181
C_ C_ 0.352559 0.415669 0.150444 0.68181
C_ C_ 0.350158 0.470561 0.147748 -0.05681
C_ C_ 0.388174 0.000542667 0.168805 -0.08735
C_ C_ 0.38605 0.0557316 0.168763 -0.05681
C_ C_ 0.363457 0.0807867 0.144517 -0.05681
C_ C_ 0.347837 0.0533346 0.120443 -0.08735
C_ C_ 0.350333 0.495417 0.121749 -0.08735
C_ C_ 0.406491 0.085036 0.190991 -0.08735
C_ C_ 0.401426 0.137758 0.190755 -0.08735
C_ C_ 0.386136 0.16204 0.165722 -0.05681
C_ C_ 0.358636 0.135234 0.145255 -0.08735
C_ C_ 0.465234 0.327098 0.160127 0.68181
C_ C_ 0.392684 0.374788 0.231547 0.1947
C_ C_ 0.399531 0.394259 0.260262 -0.08735
C_ C_ 0.378462 0.366951 0.283639 -0.08735
C_ C_ 0.355897 0.319437 0.27835 -0.05681
C_ C_ 0.347228 0.304061 0.249468 0.18498
C_ C_ 0.316074 0.26325 0.244269 -0.08735
C_ C_ 0.306291 0.229958 0.26496 -0.08735
C_ C_ 0.316846 0.239899 0.294262 -0.08735
C_ C_ 0.34265 0.286051 0.301368 0.18498
C_ C_ 0.312185 0.313182 0.347938 0.44287
C_ C_ 0.396697 0.287148 0.343818 0.44287
C_ C_ 0.407986 0.298932 0.372682 -0.05681
C_ C_ 0.457217 0.297635 0.383862 -0.08735
C_ C_ 0.4656 0.304022 0.412894 -0.08735
C_ C_ 0.423132 0.317166 0.430602 -0.05681
C_ C_ 0.374861 0.324722 0.418698 -0.05681
C_ C_ 0.367675 0.31354 0.390221 -0.05681
C_ C_ 0.316931 0.314372 0.378194 -0.05681
C_ C_ 0.276343 0.328028 0.395962 -0.08735
C_ C_ 0.281771 0.327801 0.425307 -0.08735
C_ C_ 0.331279 0.331189 0.437512 -0.05681
C_ C_ 0.339238 0.334875 0.46721 0.44287
C_ C_ 0.427517 0.320307 0.461267 0.44287
C_ C_ 0.404308 0.345345 0.0115279 0.18498
C_ C_ 0.426492 0.393069 0.0190573 -0.08735
C_ C_ 0.433885 0.407922 0.0483396 -0.08735
C_ C_ 0.423164 0.374611 0.0694435 -0.08735
C_ C_ 0.395124 0.329864 0.0635069 0.18498
C_ C_ 0.394926 0.31136 0.0345926 -0.05681
C_ C_ 0.374664 0.26265 0.0303677 -0.08735
C_ C_ 0.357211 0.23486 0.0537881 -0.08735
C_ C_ 0.353805 0.256661 0.0809075 0.1947
N_ N_ 0.128552 0.163838 0.47974 -0.29468
N_ N_ 0.144432 0.19973 0.0844012 -0.17154
N_ N_ 0.115727 0.161569 0.233428 -0.17154
N_ N_ 0.130898 0.19595 0.337806 -0.29468
N_ N_ 0.365725 0.333036 0.226414 -0.29468
N_ N_ 0.35043 0.297221 0.331181 -0.17154
N_ N_ 0.387564 0.329204 0.47867 -0.17154
N_ N_ 0.373726 0.303688 0.0860273 -0.29468
O_ O_ 0.206981 0.178145 0.43157 -0.58347
O_ O_ 0.196043 0.19388 0.385463 -0.58347
O_ O_ 0.132403 0.252822 0.439054 -0.58347
O_ O_ 0.115097 0.257571 0.393248 -0.58347
O_ O_ 0.127076 0.102336 0.424367 -0.58347
O_ O_ 0.136479 0.109264 0.378135 -0.58347
O_ O_ 0.0561403 0.183008 0.431188 -0.58347
O_ O_ 0.0491212 0.172894 0.385247 -0.58347
O_ O_ 0.0590149 0.214445 0.0809972 -0.46727
O_ O_ 0.230919 0.188209 0.090123 -0.46727
O_ O_ 0.029258 0.166084 0.227179 -0.46727
O_ O_ 0.199286 0.140418 0.236727 -0.46727
O_ O_ 0.286588 0.318262 0.182219 -0.58347
O_ O_ 0.295546 0.313293 0.13487 -0.58347
O_ O_ 0.372376 0.245271 0.186948 -0.58347
O_ O_ 0.382282 0.241887 0.140434 -0.58347
O_ O_ 0.358799 0.395169 0.174717 -0.58347
O_ O_ 0.359893 0.388234 0.128789 -0.58347
O_ O_ 0.436274 0.32034 0.180868 -0.58347
O_ O_ 0.44617 0.334342 0.13647 -0.58347
O_ O_ 0.432634 0.269379 0.327343 -0.46727
O_ O_ 0.268166 0.323522 0.336398 -0.46727
O_ O_ 0.470973 0.309649 0.474176 -0.46727
O_ O_ 0.301341 0.348054 0.482984 -0.46727
Zn Zn 0.116246 0.186711 0.885953 0.90689
Zn Zn 0.129218 0.179704 0.931401 0.90689
Zn Zn 0.377918 0.314771 0.631816 0.90689
Zn Zn 0.362016 0.320861 0.679391 0.90689
H_ H_ 0.296378 0.183918 0.946921 0.11455
H_ H_ 0.355959 0.166837 0.846214 0.11455
H_ H_ 0.260155 0.164666 0.858259 0.11455
H_ H_ 0.38195 0.186429 0.963206 0.11455
H_ H_ 0.474345 0.195904 0.953386 0.11455
H_ H_ 0.445011 0.17901 0.863911 0.11455
H_ H_ 0.111855 0.0140052 0.942902 0.11455
H_ H_ 0.130162 0.435002 0.849889 0.11455
H_ H_ 0.126694 0.0288955 0.852172 0.11455
H_ H_ 0.134053 0.431154 0.965499 0.11455
H_ H_ 0.120781 0.339309 0.962647 0.11455
H_ H_ 0.118722 0.353617 0.871627 0.11455
H_ H_ 0.0773187 0.109888 0.96435 0.11455
H_ H_ 0.0531173 0.0821377 0.516081 0.11455
H_ H_ 0.107662 0.11369 0.556531 0.11455
H_ H_ 0.183069 0.248064 0.976365 0.11455
H_ H_ 0.248183 0.269005 0.513713 0.11455
H_ H_ 0.217057 0.256965 0.564827 0.11455
H_ H_ 0.01924 0.204037 0.620426 0.11455
H_ H_ 0.00342435 0.208657 0.67407 0.11455
H_ H_ 0.265754 0.175992 0.643641 0.11455
H_ H_ 0.251242 0.153998 0.695528 0.11455
H_ H_ 0.0539164 0.097002 0.749678 0.11455
H_ H_ 0.0170193 0.0812833 0.801225 0.11455
H_ H_ 0.0611958 0.12254 0.840606 0.11455
H_ H_ 0.163242 0.243986 0.761982 0.11455
H_ H_ 0.198713 0.284952 0.806819 0.11455
H_ H_ 0.177829 0.254201 0.851665 0.11455
H_ H_ 0.203388 0.300171 0.690952 0.11455
H_ H_ 0.12846 0.313955 0.594272 0.11455
H_ H_ 0.221271 0.321783 0.600917 0.11455
H_ H_ 0.112996 0.297898 0.712379 0.11455
H_ H_ 0.026278 0.319854 0.705844 0.11455
H_ H_ 0.0410818 0.322949 0.615924 0.11455
H_ H_ 0.365153 0.486295 0.690908 0.11455
H_ H_ 0.327026 0.0622853 0.60085 0.11455
H_ H_ 0.372452 0.471323 0.598886 0.11455
H_ H_ 0.43431 0.0677332 0.702707 0.11455
H_ H_ 0.427212 0.159947 0.70011 0.11455
H_ H_ 0.33518 0.15223 0.622815 0.11455
H_ H_ 0.400715 0.401958 0.715471 0.11455
H_ H_ 0.408598 0.435072 0.761844 0.11455
H_ H_ 0.377513 0.389658 0.804811 0.11455
H_ H_ 0.313564 0.245159 0.723444 0.11455
H_ H_ 0.268413 0.206766 0.762995 0.11455
H_ H_ 0.279651 0.231906 0.811732 0.11455
H_ H_ 0.483761 0.294461 0.866333 0.11455
H_ H_ 0.500652 0.308139 0.918316 0.11455
H_ H_ 0.233222 0.312869 0.894256 0.11455
H_ H_ 0.248435 0.330298 0.944902 0.11455
H_ H_ 0.432379 0.420653 0.0019599999999999618 0.11455
H_ H_ 0.441733 0.439944 0.546584 0.11455
H_ H_ 0.432917 0.381188 0.585295 0.11455
H_ H_ 0.35193 0.246969 0.506154 0.11455
H_ H_ 0.313004 0.204662 0.548168 0.11455
H_ H_ 0.323904 0.237434 0.597119 0.11455
C_ C_ 0.217744 0.175054 0.907825 0.68181
C_ C_ 0.274153 0.174309 0.902531 -0.05681
C_ C_ 0.309853 0.177695 0.924739 -0.08735
C_ C_ 0.362357 0.173161 0.919913 -0.05681
C_ C_ 0.380236 0.168891 0.89135 -0.05681
C_ C_ 0.343749 0.167089 0.869033 -0.08735
C_ C_ 0.290697 0.167767 0.874826 -0.08735
C_ C_ 0.396027 0.18099 0.941468 -0.08735
C_ C_ 0.448359 0.180471 0.937229 -0.08735
C_ C_ 0.466925 0.17359 0.908742 -0.05681
C_ C_ 0.431543 0.17205 0.885712 -0.08735
C_ C_ 0.111079 0.28314 0.915974 0.68181
C_ C_ 0.118155 0.0849845 0.900638 0.68181
C_ C_ 0.117917 0.0278017 0.898648 -0.05681
C_ C_ 0.123469 0.498162 0.923436 -0.08735
C_ C_ 0.118208 0.446455 0.921597 -0.05681
C_ C_ 0.114208 0.423737 0.894258 -0.05681
C_ C_ 0.116845 0.451762 0.869328 -0.08735
C_ C_ 0.12239 0.504701 0.871839 -0.08735
C_ C_ 0.122078 0.415095 0.945285 -0.08735
C_ C_ 0.114122 0.3635 0.944007 -0.08735
C_ C_ 0.114699 0.33863 0.917544 -0.05681
C_ C_ 0.115837 0.370044 0.892441 -0.08735
C_ C_ 0.0251637 0.181392 0.910794 0.68181
C_ C_ 0.0951991 0.128005 0.98307 0.1947
C_ C_ 0.0858269 0.106076 0.512285 -0.08735
C_ C_ 0.115337 0.126547 0.534564 -0.08735
C_ C_ 0.146197 0.169534 0.530165 -0.05681
C_ C_ 0.155857 0.184235 0.501306 0.18498
C_ C_ 0.172037 0.242831 0.997643 -0.08735
C_ C_ 0.219951 0.24276 0.519121 -0.08735
C_ C_ 0.201865 0.233967 0.547191 -0.08735
C_ C_ 0.168346 0.195987 0.554195 0.18498
C_ C_ 0.194107 0.174451 0.603007 0.44287
C_ C_ 0.108015 0.187915 0.594223 0.44287
C_ C_ 0.097112 0.188913 0.625097 -0.05681
C_ C_ 0.0476795 0.19458 0.636394 -0.08735
C_ C_ 0.0397946 0.195496 0.666619 -0.08735
C_ C_ 0.079109 0.185028 0.686141 -0.05681
C_ C_ 0.129242 0.177487 0.674201 -0.05681
C_ C_ 0.137523 0.176976 0.643678 -0.05681
C_ C_ 0.188583 0.177832 0.632992 -0.05681
C_ C_ 0.22828 0.163744 0.652073 -0.08735
C_ C_ 0.218353 0.155081 0.680344 -0.08735
C_ C_ 0.170314 0.164856 0.693042 -0.05681
C_ C_ 0.161656 0.164415 0.722627 0.44287
C_ C_ 0.0748271 0.187325 0.715978 0.44287
C_ C_ 0.105307 0.156221 0.763009 0.18498
C_ C_ 0.0684869 0.116419 0.768651 -0.08735
C_ C_ 0.0466642 0.109797 0.79619 -0.08735
C_ C_ 0.0693244 0.132758 0.81885 -0.08735
C_ C_ 0.106926 0.17142 0.814923 0.18498
C_ C_ 0.123656 0.183798 0.786803 -0.05681
C_ C_ 0.151883 0.229001 0.783303 -0.08735
C_ C_ 0.171392 0.253195 0.807718 -0.08735
C_ C_ 0.156623 0.238574 0.834058 0.1947
C_ C_ 0.271473 0.308883 0.65123 0.68181
C_ C_ 0.215802 0.303888 0.647211 -0.05681
C_ C_ 0.184955 0.296295 0.670427 -0.08735
C_ C_ 0.131436 0.299897 0.666256 -0.05681
C_ C_ 0.110076 0.309959 0.638903 -0.05681
C_ C_ 0.143729 0.314908 0.616217 -0.08735
C_ C_ 0.195676 0.313323 0.619421 -0.08735
C_ C_ 0.097496 0.30341 0.689811 -0.08735
C_ C_ 0.0496611 0.318695 0.686882 -0.08735
C_ C_ 0.0268507 0.317376 0.659972 -0.05681
C_ C_ 0.0581241 0.315962 0.635652 -0.08735
C_ C_ 0.378608 0.217408 0.662179 0.68181
C_ C_ 0.359754 0.415367 0.646633 0.68181
C_ C_ 0.363841 0.472041 0.64464 -0.05681
C_ C_ 0.387004 0.00483442 0.667537 -0.08735
C_ C_ 0.385755 0.0557459 0.665694 -0.05681
C_ C_ 0.356762 0.0788493 0.643336 -0.05681
C_ C_ 0.335206 0.0485987 0.620941 -0.08735
C_ C_ 0.365407 0.495693 0.618003 -0.08735
C_ C_ 0.409449 0.0861354 0.687256 -0.08735
C_ C_ 0.405081 0.137162 0.684753 -0.08735
C_ C_ 0.378327 0.161624 0.663265 -0.05681
C_ C_ 0.356492 0.132855 0.639985 -0.08735
C_ C_ 0.468115 0.333668 0.656772 0.68181
C_ C_ 0.387917 0.379078 0.732836 0.1947
C_ C_ 0.388769 0.398913 0.75952 -0.08735
C_ C_ 0.365517 0.375521 0.783178 -0.08735
C_ C_ 0.344158 0.325763 0.779458 -0.05681
C_ C_ 0.341888 0.309008 0.750064 0.18498
C_ C_ 0.313377 0.263373 0.744309 -0.08735
C_ C_ 0.288832 0.23997 0.766804 -0.08735
C_ C_ 0.295967 0.255901 0.795218 -0.08735
C_ C_ 0.327469 0.295901 0.802496 0.18498
C_ C_ 0.301963 0.313113 0.853038 0.44287
C_ C_ 0.388313 0.304124 0.841984 0.44287
C_ C_ 0.402085 0.308593 0.871108 -0.05681
C_ C_ 0.451778 0.302818 0.881389 -0.08735
C_ C_ 0.462164 0.30891 0.910857 -0.08735
C_ C_ 0.423346 0.31941 0.930947 -0.05681
C_ C_ 0.371866 0.313773 0.921846 -0.05681
C_ C_ 0.361815 0.312278 0.891837 -0.05681
C_ C_ 0.311872 0.313796 0.88333 -0.05681
C_ C_ 0.270882 0.31459 0.902387 -0.08735
C_ C_ 0.280612 0.323527 0.930557 -0.08735
C_ C_ 0.332255 0.317442 0.94221 -0.05681
C_ C_ 0.344704 0.333192 0.970985 0.44287
C_ C_ 0.433869 0.327748 0.961253 0.44287
C_ C_ 0.395669 0.341878 0.508728 0.18498
C_ C_ 0.414151 0.389162 0.515135 -0.08735
C_ C_ 0.430006 0.402752 0.543203 -0.08735
C_ C_ 0.427485 0.365953 0.564649 -0.08735
C_ C_ 0.397363 0.32144 0.560332 0.18498
C_ C_ 0.385646 0.307874 0.531812 -0.05681
C_ C_ 0.356728 0.262445 0.527304 -0.08735
C_ C_ 0.335968 0.238556 0.55097 -0.08735
C_ C_ 0.343099 0.25652 0.57842 0.1947
N_ N_ 0.127759 0.168073 0.978742 -0.29468
N_ N_ 0.156587 0.183959 0.584037 -0.17154
N_ N_ 0.114564 0.172446 0.733382 -0.17154
N_ N_ 0.127199 0.195495 0.837675 -0.29468
N_ N_ 0.361734 0.335248 0.727745 -0.29468
N_ N_ 0.339033 0.307037 0.832244 -0.17154
N_ N_ 0.394129 0.333116 0.980809 -0.17154
N_ N_ 0.37484 0.296968 0.58355 -0.29468
O_ O_ 0.201536 0.180281 0.933412 -0.58347
O_ O_ 0.187607 0.180044 0.886979 -0.58347
O_ O_ 0.128617 0.258145 0.936633 -0.58347
O_ O_ 0.117582 0.263476 0.89186 -0.58347
O_ O_ 0.12662 0.105522 0.924513 -0.58347
O_ O_ 0.11436 0.111818 0.878726 -0.58347
O_ O_ 0.0552144 0.179175 0.931276 -0.58347
O_ O_ 0.0418745 0.187101 0.885798 -0.58347
O_ O_ 0.0705898 0.194572 0.576356 -0.46727
O_ O_ 0.239852 0.167489 0.593071 -0.46727
O_ O_ 0.0295477 0.194257 0.726896 -0.46727
O_ O_ 0.196443 0.146873 0.739688 -0.46727
O_ O_ 0.288966 0.312698 0.676422 -0.58347
O_ O_ 0.301269 0.310171 0.630005 -0.58347
O_ O_ 0.375553 0.243051 0.685035 -0.58347
O_ O_ 0.383151 0.241875 0.638512 -0.58347
O_ O_ 0.350671 0.397527 0.670909 -0.58347
O_ O_ 0.369577 0.386703 0.625721 -0.58347
O_ O_ 0.437852 0.3409 0.677802 -0.58347
O_ O_ 0.451965 0.313314 0.634492 -0.58347
O_ O_ 0.424635 0.296095 0.823023 -0.46727
O_ O_ 0.255729 0.326155 0.844677 -0.46727
O_ O_ 0.48024 0.321488 0.971366 -0.46727
O_ O_ 0.307127 0.340117 0.988752 -0.46727
Zn Zn 0.138505 0.685152 0.383173 0.90689
Zn Zn 0.147769 0.678315 0.43164 0.90689
Zn Zn 0.373242 0.810942 0.132815 0.90689
Zn Zn 0.364655 0.819173 0.180241 0.90689
H_ H_ 0.318238 0.694683 0.447748 0.11455
H_ H_ 0.381324 0.666911 0.348201 0.11455
H_ H_ 0.29006 0.682285 0.356956 0.11455
H_ H_ 0.405387 0.695999 0.462084 0.11455
H_ H_ 0.497159 0.687923 0.453212 0.11455
H_ H_ 0.466232 0.664321 0.364012 0.11455
H_ H_ 0.182527 0.508161 0.440599 0.11455
H_ H_ 0.138084 0.931257 0.348474 0.11455
H_ H_ 0.129338 0.519509 0.354068 0.11455
H_ H_ 0.121149 0.927555 0.468569 0.11455
H_ H_ 0.105224 0.836364 0.462609 0.11455
H_ H_ 0.141657 0.847715 0.373284 0.11455
H_ H_ 0.0971215 0.606517 0.46666 0.11455
H_ H_ 0.0680316 0.576541 0.0200576 0.11455
H_ H_ 0.11371 0.618282 0.0582702 0.11455
H_ H_ 0.212974 0.744117 0.477682 0.11455
H_ H_ 0.234715 0.787582 0.0125983 0.11455
H_ H_ 0.203866 0.775047 0.0611815 0.11455
H_ H_ 0.0233456 0.697062 0.121738 0.11455
H_ H_ 0.0116952 0.710837 0.173314 0.11455
H_ H_ 0.258029 0.623139 0.139576 0.11455
H_ H_ 0.247545 0.625815 0.188639 0.11455
H_ H_ 0.0855298 0.592302 0.247629 0.11455
H_ H_ 0.0435686 0.577742 0.298128 0.11455
H_ H_ 0.0645501 0.637252 0.334227 0.11455
H_ H_ 0.167987 0.756926 0.257076 0.11455
H_ H_ 0.198693 0.797297 0.303512 0.11455
H_ H_ 0.18694 0.764547 0.34916 0.11455
H_ H_ 0.195817 0.811741 0.195844 0.11455
H_ H_ 0.128822 0.846418 0.097446 0.11455
H_ H_ 0.222875 0.843466 0.107612 0.11455
H_ H_ 0.110467 0.806201 0.213483 0.11455
H_ H_ 0.0230538 0.816454 0.207783 0.11455
H_ H_ 0.0437795 0.856573 0.117649 0.11455
H_ H_ 0.406516 0.980283 0.186218 0.11455
H_ H_ 0.361361 0.565568 0.0982694 0.11455
H_ H_ 0.339479 0.977806 0.102822 0.11455
H_ H_ 0.342087 0.56801 0.21713 0.11455
H_ H_ 0.357942 0.659865 0.21226 0.11455
H_ H_ 0.388407 0.645588 0.123422 0.11455
H_ H_ 0.426516 0.89051 0.215311 0.11455
H_ H_ 0.438234 0.921344 0.263449 0.11455
H_ H_ 0.393997 0.877274 0.304607 0.11455
H_ H_ 0.3067 0.749457 0.225343 0.11455
H_ H_ 0.308527 0.686705 0.265055 0.11455
H_ H_ 0.315409 0.720608 0.312713 0.11455
H_ H_ 0.491032 0.790651 0.371495 0.11455
H_ H_ 0.494727 0.784241 0.424185 0.11455
H_ H_ 0.247059 0.857087 0.385698 0.11455
H_ H_ 0.257175 0.865902 0.438736 0.11455
H_ H_ 0.44666 0.912148 0.500868 0.11455
H_ H_ 0.445253 0.930724 0.0487808 0.11455
H_ H_ 0.423012 0.875681 0.0869671 0.11455
H_ H_ 0.334115 0.757967 0.00501745 0.11455
H_ H_ 0.305456 0.703312 0.0470471 0.11455
H_ H_ 0.309529 0.73745 0.0964577 0.11455
C_ C_ 0.239557 0.69292 0.407637 0.68181
C_ C_ 0.295562 0.686483 0.403462 -0.05681
C_ C_ 0.330678 0.685788 0.426361 -0.08735
C_ C_ 0.381835 0.67499 0.421014 -0.05681
C_ C_ 0.399717 0.671443 0.393213 -0.05681
C_ C_ 0.366341 0.676486 0.369683 -0.08735
C_ C_ 0.314348 0.67849 0.374495 -0.08735
C_ C_ 0.418579 0.685165 0.441838 -0.08735
C_ C_ 0.47089 0.68198 0.4367 -0.08735
C_ C_ 0.487815 0.668295 0.408803 -0.05681
C_ C_ 0.452063 0.66359 0.386518 -0.08735
C_ C_ 0.132302 0.778506 0.415746 0.68181
C_ C_ 0.15289 0.581415 0.399422 0.68181
C_ C_ 0.15203 0.523197 0.39741 -0.05681
C_ C_ 0.123791 0.99597 0.421781 -0.08735
C_ C_ 0.121095 0.941859 0.421406 -0.05681
C_ C_ 0.127129 0.918587 0.394549 -0.05681
C_ C_ 0.138655 0.946618 0.370098 -0.08735
C_ C_ 0.139444 0.998792 0.370943 -0.08735
C_ C_ 0.114675 0.913087 0.446894 -0.08735
C_ C_ 0.114305 0.860149 0.444563 -0.08735
C_ C_ 0.124115 0.835916 0.418058 -0.05681
C_ C_ 0.127621 0.865498 0.392509 -0.08735
C_ C_ 0.0441297 0.672772 0.408356 0.68181
C_ C_ 0.113814 0.625514 0.484765 0.1947
C_ C_ 0.0926604 0.607177 0.0144988 -0.08735
C_ C_ 0.117197 0.632326 0.0364813 -0.08735
C_ C_ 0.144537 0.67633 0.0310384 -0.05681
C_ C_ 0.150842 0.690165 1.00107261 0.18498
C_ C_ 0.192615 0.735817 0.497425 -0.08735
C_ C_ 0.211832 0.753723 0.0164792 -0.08735
C_ C_ 0.194714 0.749171 0.0448488 -0.08735
C_ C_ 0.164754 0.706743 0.0530348 0.18498
C_ C_ 0.196679 0.675228 0.0996737 0.44287
C_ C_ 0.111823 0.703875 0.0949875 0.44287
C_ C_ 0.102889 0.692512 0.123652 -0.05681
C_ C_ 0.0551218 0.696466 0.135549 -0.08735
C_ C_ 0.049429 0.700424 0.166353 -0.08735
C_ C_ 0.0927575 0.695116 0.183494 -0.05681
C_ C_ 0.137267 0.677104 0.171423 -0.05681
C_ C_ 0.142675 0.679007 0.141497 -0.05681
C_ C_ 0.18784 0.663706 0.128416 -0.05681
C_ C_ 0.223802 0.639849 0.146363 -0.08735
C_ C_ 0.218979 0.640882 0.175038 -0.08735
C_ C_ 0.175859 0.65888 0.188081 -0.05681
C_ C_ 0.173421 0.662219 0.217464 0.44287
C_ C_ 0.0885375 0.693512 0.213625 0.44287
C_ C_ 0.118126 0.663661 0.259948 0.18498
C_ C_ 0.0891855 0.619511 0.266059 -0.08735
C_ C_ 0.0721378 0.608687 0.29331 -0.08735
C_ C_ 0.0877151 0.637891 0.315532 -0.08735
C_ C_ 0.120625 0.678421 0.31145 0.18498
C_ C_ 0.133741 0.695205 0.28305 -0.05681
C_ C_ 0.162171 0.740008 0.279073 -0.08735
C_ C_ 0.182371 0.761782 0.303795 -0.08735
C_ C_ 0.173884 0.742346 0.331116 0.1947
C_ C_ 0.269444 0.813918 0.156614 0.68181
C_ C_ 0.215371 0.822823 0.151888 -0.05681
C_ C_ 0.181166 0.815579 0.17411 -0.08735
C_ C_ 0.12957 0.821691 0.16852 -0.05681
C_ C_ 0.110373 0.8308 0.141804 -0.05681
C_ C_ 0.1431 0.836097 0.118184 -0.08735
C_ C_ 0.195863 0.830975 0.124392 -0.08735
C_ C_ 0.0959212 0.813914 0.191152 -0.08735
C_ C_ 0.045401 0.820139 0.188676 -0.08735
C_ C_ 0.0252503 0.83139 0.161289 -0.05681
C_ C_ 0.0585384 0.838308 0.137309 -0.08735
C_ C_ 0.376835 0.715307 0.163755 0.68181
C_ C_ 0.36647 0.91389 0.146417 0.68181
C_ C_ 0.368856 0.973322 0.14518 -0.05681
C_ C_ 0.348461 0.498989 0.173535 -0.08735
C_ C_ 0.356902 0.553797 0.171856 -0.05681
C_ C_ 0.368899 0.574991 0.144969 -0.05681
C_ C_ 0.363424 0.545827 0.119759 -0.08735
C_ C_ 0.348233 -0.0002769999999999717 0.121892 -0.08735
C_ C_ 0.354352 0.584884 0.196098 -0.08735
C_ C_ 0.364421 0.636907 0.193618 -0.08735
C_ C_ 0.377526 0.658983 0.167775 -0.05681
C_ C_ 0.380865 0.626072 0.143842 -0.08735
C_ C_ 0.467693 0.821803 0.157264 0.68181
C_ C_ 0.405002 0.872359 0.232326 0.1947
C_ C_ 0.411553 0.888995 0.260689 -0.08735
C_ C_ 0.384248 0.867833 0.283017 -0.08735
C_ C_ 0.361681 0.822162 0.278828 -0.05681
C_ C_ 0.35223 0.805204 0.249722 0.18498
C_ C_ 0.326284 0.757976 0.244762 -0.08735
C_ C_ 0.321118 0.724723 0.268498 -0.08735
C_ C_ 0.326027 0.743492 0.296156 -0.08735
C_ C_ 0.345737 0.791596 0.30214 0.18498
C_ C_ 0.313055 0.818074 0.347975 0.44287
C_ C_ 0.401312 0.800284 0.342289 0.44287
C_ C_ 0.409626 0.807132 0.371332 -0.05681
C_ C_ 0.457396 0.799744 0.384393 -0.08735
C_ C_ 0.463379 0.803653 0.414683 -0.08735
C_ C_ 0.420432 0.811043 0.432646 -0.05681
C_ C_ 0.372246 0.816466 0.42005 -0.05681
C_ C_ 0.367053 0.815892 0.38949 -0.05681
C_ C_ 0.320124 0.821991 0.377335 -0.05681
C_ C_ 0.2812 0.840658 0.395982 -0.08735
C_ C_ 0.289789 0.851941 0.425589 -0.08735
C_ C_ 0.33487 0.837607 0.437399 -0.05681
C_ C_ 0.345007 0.85061 0.466939 0.44287
C_ C_ 0.427055 0.818225 0.463116 0.44287
C_ C_ 0.396211 0.836318 0.00932154 0.18498
C_ C_ 0.424008 0.881176 0.015916 -0.08735
C_ C_ 0.424582 0.898474 0.0446655 -0.08735
C_ C_ 0.411122 0.866893 0.0660917 -0.08735
C_ C_ 0.381396 0.824674 0.0618815 0.18498
C_ C_ 0.375759 0.806911 0.0324779 -0.05681
C_ C_ 0.341918 0.768319 0.0280956 -0.08735
C_ C_ 0.324558 0.738243 0.0515272 -0.08735
C_ C_ 0.331452 0.757666 0.0796638 0.1947
N_ N_ 0.14421 0.665781 0.479579 -0.29468
N_ N_ 0.157682 0.695421 0.0831856 -0.17154
N_ N_ 0.12837 0.676667 0.230187 -0.17154
N_ N_ 0.139854 0.703281 0.334556 -0.29468
N_ N_ 0.374887 0.832125 0.227884 -0.29468
N_ N_ 0.354344 0.807638 0.331173 -0.17154
N_ N_ 0.389897 0.836704 0.479517 -0.17154
N_ N_ 0.36357 0.79718 0.0846486 -0.29468
O_ O_ 0.221612 0.687144 0.433024 -0.58347
O_ O_ 0.21056 0.697785 0.385563 -0.58347
O_ O_ 0.142825 0.753488 0.43817 -0.58347
O_ O_ 0.124848 0.755924 0.392733 -0.58347
O_ O_ 0.153522 0.603202 0.424499 -0.58347
O_ O_ 0.151157 0.608712 0.376199 -0.58347
O_ O_ 0.0733983 0.667748 0.430272 -0.58347
O_ O_ 0.0637053 0.672515 0.383185 -0.58347
O_ O_ 0.0759763 0.72553 0.0789556 -0.46727
O_ O_ 0.241301 0.67099 0.0885278 -0.46727
O_ O_ 0.049409 0.713728 0.226856 -0.46727
O_ O_ 0.210372 0.643814 0.233509 -0.46727
O_ O_ 0.290394 0.819867 0.180956 -0.58347
O_ O_ 0.299134 0.801407 0.135757 -0.58347
O_ O_ 0.368818 0.743203 0.184772 -0.58347
O_ O_ 0.378693 0.734348 0.138566 -0.58347
O_ O_ 0.370091 0.895036 0.171893 -0.58347
O_ O_ 0.360728 0.887111 0.124812 -0.58347
O_ O_ 0.438603 0.818849 0.178665 -0.58347
O_ O_ 0.44808 0.821477 0.132922 -0.58347
O_ O_ 0.437013 0.781772 0.326074 -0.46727
O_ O_ 0.267511 0.821206 0.336945 -0.46727
O_ O_ 0.473259 0.815596 0.473585 -0.46727
O_ O_ 0.310484 0.875012 0.482554 -0.46727
Zn Zn 0.123231 0.687265 0.883191 0.90689
Zn Zn 0.13294 0.679092 0.931774 0.90689
Zn Zn 0.372928 0.814388 0.630637 0.90689
Zn Zn 0.366305 0.819335 0.678644 0.90689
H_ H_ 0.301298 0.671932 0.943422 0.11455
H_ H_ 0.363576 0.639609 0.844471 0.11455
H_ H_ 0.280044 0.667554 0.851848 0.11455
H_ H_ 0.387722 0.697449 0.957208 0.11455
H_ H_ 0.476004 0.676062 0.95287 0.11455
H_ H_ 0.455228 0.65926 0.861021 0.11455
H_ H_ 0.124441 0.518484 0.944029 0.11455
H_ H_ 0.142844 0.937603 0.84748 0.11455
H_ H_ 0.119441 0.527195 0.851295 0.11455
H_ H_ 0.132359 0.930501 0.966694 0.11455
H_ H_ 0.11938 0.836132 0.961611 0.11455
H_ H_ 0.129468 0.854503 0.870005 0.11455
H_ H_ 0.0663724 0.611439 0.970485 0.11455
H_ H_ 0.0833613 0.573456 0.513295 0.11455
H_ H_ 0.115575 0.619724 0.556069 0.11455
H_ H_ 0.206173 0.725616 0.97325 0.11455
H_ H_ 0.228969 0.801394 0.514482 0.11455
H_ H_ 0.20253 0.785146 0.563965 0.11455
H_ H_ 1.0173623 0.717954 0.625069 0.11455
H_ H_ 1.00847211 0.714475 0.676732 0.11455
H_ H_ 0.271258 0.683018 0.635943 0.11455
H_ H_ 0.257921 0.670787 0.688454 0.11455
H_ H_ 0.0853067 0.593594 0.746071 0.11455
H_ H_ 0.0578339 0.568799 0.793147 0.11455
H_ H_ 0.0663704 0.623432 0.835385 0.11455
H_ H_ 0.158845 0.754414 0.759337 0.11455
H_ H_ 0.173888 0.811304 0.799631 0.11455
H_ H_ 0.167308 0.773477 0.848019 0.11455
H_ H_ 0.200236 0.830395 0.693864 0.11455
H_ H_ 0.129361 0.864384 0.596508 0.11455
H_ H_ 0.215873 0.845344 0.602238 0.11455
H_ H_ 0.113377 0.818545 0.713744 0.11455
H_ H_ 0.0190617 0.823838 0.704323 0.11455
H_ H_ 0.0430273 0.845944 0.616107 0.11455
H_ H_ 0.40919 0.987686 0.68356 0.11455
H_ H_ 0.383045 0.565706 0.595668 0.11455
H_ H_ 0.330409 0.973021 0.603148 0.11455
H_ H_ 0.365423 0.568068 0.711318 0.11455
H_ H_ 0.376736 0.657781 0.7106 0.11455
H_ H_ 0.38166 0.645906 0.618681 0.11455
H_ H_ 0.434274 0.872693 0.714971 0.11455
H_ H_ 0.458017 0.889255 0.768155 0.11455
H_ H_ 0.399514 0.863762 0.804874 0.11455
H_ H_ 0.30132 0.75863 0.719647 0.11455
H_ H_ 0.265308 0.705172 0.756987 0.11455
H_ H_ 0.276395 0.731568 0.807611 0.11455
H_ H_ 0.474294 0.776762 0.867496 0.11455
H_ H_ 0.492069 0.787108 0.920767 0.11455
H_ H_ 0.228369 0.836426 0.887987 0.11455
H_ H_ 0.24812 0.848962 0.93932 0.11455
H_ H_ 0.439696 0.903499 0.999383 0.11455
H_ H_ 0.460125 0.937442 0.550742 0.11455
H_ H_ 0.427683 0.886489 0.588225 0.11455
H_ H_ 0.337709 0.762741 0.503169 0.11455
H_ H_ 0.293211 0.721917 0.543825 0.11455
H_ H_ 0.321532 0.735195 0.594624 0.11455
C_ C_ 0.226672 0.68415 0.903032 0.68181
C_ C_ 0.281692 0.679052 0.897793 -0.05681
C_ C_ 0.314237 0.67996 0.920364 -0.08735
C_ C_ 0.365685 0.678437 0.914365 -0.05681
C_ C_ 0.385256 0.662639 0.886819 -0.05681
C_ C_ 0.351207 0.655033 0.865475 -0.08735
C_ C_ 0.302546 0.66915 0.870453 -0.08735
C_ C_ 0.399385 0.682209 0.937431 -0.08735
C_ C_ 0.450067 0.673107 0.934541 -0.08735
C_ C_ 0.471803 0.666768 0.906404 -0.05681
C_ C_ 0.437668 0.661689 0.882436 -0.08735
C_ C_ 0.128317 0.78278 0.913829 0.68181
C_ C_ 0.125266 0.586712 0.900818 0.68181
C_ C_ 0.12013 0.528063 0.898546 -0.05681
C_ C_ 0.125437 0.997772 0.923369 -0.08735
C_ C_ 0.12982 0.945513 0.921229 -0.05681
C_ C_ 0.128398 0.922799 0.893509 -0.05681
C_ C_ 0.13062 0.953987 0.868556 -0.08735
C_ C_ 0.128106 0.00602744 0.872236 -0.08735
C_ C_ 0.128049 0.913396 0.946586 -0.08735
C_ C_ 0.125322 0.860201 0.944003 -0.08735
C_ C_ 0.124902 0.839073 0.916565 -0.05681
C_ C_ 0.128441 0.871123 0.891841 -0.08735
C_ C_ 0.0283768 0.676421 0.909042 0.68181
C_ C_ 0.0917426 0.6282 0.986606 0.1947
C_ C_ 0.106054 0.608763 0.51241 -0.08735
C_ C_ 0.124704 0.635565 0.535239 -0.08735
C_ C_ 0.147251 0.682248 0.530185 -0.05681
C_ C_ 0.162664 0.693665 0.502484 0.18498
C_ C_ 0.188698 0.724984 0.993679 -0.08735
C_ C_ 0.20591 0.769258 0.518741 -0.08735
C_ C_ 0.18942 0.759816 0.546668 -0.08735
C_ C_ 0.161368 0.714803 0.552672 0.18498
C_ C_ 0.190199 0.684672 0.59794 0.44287
C_ C_ 0.10627 0.716852 0.594348 0.44287
C_ C_ 0.100555 0.716978 0.623911 -0.05681
C_ C_ 0.0519095 0.714805 0.637613 -0.08735
C_ C_ 0.0455334 0.71073 0.666957 -0.08735
C_ C_ 0.0883871 0.70186 0.68409 -0.05681
C_ C_ 0.135586 0.69454 0.671101 -0.05681
C_ C_ 0.142896 0.706561 0.641283 -0.05681
C_ C_ 0.187567 0.689499 0.627627 -0.05681
C_ C_ 0.233737 0.679674 0.645318 -0.08735
C_ C_ 0.22606 0.67666 0.674459 -0.08735
C_ C_ 0.177979 0.681197 0.687233 -0.05681
C_ C_ 0.169791 0.673951 0.717256 0.44287
C_ C_ 0.0850768 0.698818 0.71425 0.44287
C_ C_ 0.113295 0.66732 0.75887 0.18498
C_ C_ 0.0901983 0.618832 0.763634 -0.08735
C_ C_ 0.0793387 0.602619 0.79238 -0.08735
C_ C_ 0.0866783 0.630801 0.816215 -0.08735
C_ C_ 0.114575 0.678813 0.812557 0.18498
C_ C_ 0.126533 0.696837 0.783708 -0.05681
C_ C_ 0.149955 0.743487 0.780511 -0.08735
C_ C_ 0.161409 0.772521 0.804153 -0.08735
C_ C_ 0.154582 0.751142 0.831217 0.1947
C_ C_ 0.274004 0.826916 0.65146 0.68181
C_ C_ 0.216502 0.834846 0.648256 -0.05681
C_ C_ 0.183967 0.833617 0.672555 -0.08735
C_ C_ 0.131018 0.833562 0.668195 -0.05681
C_ C_ 0.110661 0.83885 0.641024 -0.05681
C_ C_ 0.142354 0.850764 0.617461 -0.08735
C_ C_ 0.194655 0.844897 0.620626 -0.08735
C_ C_ 0.0976904 0.825224 0.691754 -0.08735
C_ C_ 0.0430159 0.828078 0.687137 -0.08735
C_ C_ 0.0238227 0.831702 0.659022 -0.05681
C_ C_ 0.058834 0.838645 0.637266 -0.08735
C_ C_ 0.372612 0.717774 0.6622 0.68181
C_ C_ 0.368375 0.916371 0.648176 0.68181
C_ C_ 0.36353 0.973329 0.646928 -0.05681
C_ C_ 0.364159 0.502692 0.66947 -0.08735
C_ C_ 0.364738 0.554625 0.667399 -0.05681
C_ C_ 0.369381 0.580209 0.640575 -0.05681
C_ C_ 0.372115 0.549002 0.615727 -0.08735
C_ C_ 0.334896 0.994457 0.62361 -0.08735
C_ C_ 0.36403 0.585317 0.69105 -0.08735
C_ C_ 0.370038 0.635768 0.690763 -0.08735
C_ C_ 0.371668 0.662316 0.664383 -0.05681
C_ C_ 0.374378 0.632471 0.639418 -0.08735
C_ C_ 0.468384 0.820559 0.652559 0.68181
C_ C_ 0.411463 0.859496 0.733077 0.1947
C_ C_ 0.422099 0.870934 0.761424 -0.08735
C_ C_ 0.390149 0.854295 0.783541 -0.08735
C_ C_ 0.352929 0.81797 0.776958 -0.05681
C_ C_ 0.344488 0.803792 0.747677 0.18498
C_ C_ 0.309031 0.767493 0.741268 -0.08735
C_ C_ 0.287738 0.737337 0.763289 -0.08735
C_ C_ 0.296754 0.751949 0.792093 -0.08735
C_ C_ 0.329473 0.790758 0.79963 0.18498
C_ C_ 0.304558 0.820313 0.847338 0.44287
C_ C_ 0.38533 0.783099 0.841514 0.44287
C_ C_ 0.394743 0.791693 0.871003 -0.05681
C_ C_ 0.44567 0.788843 0.882463 -0.08735
C_ C_ 0.454406 0.793417 0.911256 -0.08735
C_ C_ 0.415879 0.810925 0.930166 -0.05681
C_ C_ 0.366574 0.816246 0.918828 -0.05681
C_ C_ 0.355967 0.808522 0.889034 -0.05681
C_ C_ 0.307896 0.820806 0.877326 -0.05681
C_ C_ 0.26942 0.832523 0.896023 -0.08735
C_ C_ 0.279168 0.836821 0.926035 -0.08735
C_ C_ 0.327376 0.830387 0.937825 -0.05681
C_ C_ 0.340363 0.837943 0.967779 0.44287
C_ C_ 0.424358 0.815332 0.960412 0.44287
C_ C_ 0.397781 0.84775 0.509615 0.18498
C_ C_ 0.432356 0.888731 0.51777 -0.08735
C_ C_ 0.435812 0.904369 0.545311 -0.08735
C_ C_ 0.4174 0.872619 0.56712 -0.08735
C_ C_ 0.390033 0.827366 0.56027 0.18498
C_ C_ 0.376162 0.818209 0.531371 -0.05681
C_ C_ 0.342635 0.776572 0.525442 -0.08735
C_ C_ 0.320469 0.749938 0.548177 -0.08735
C_ C_ 0.335273 0.760631 0.576424 0.1947
N_ N_ 0.121724 0.667754 0.979981 -0.29468
N_ N_ 0.151261 0.703389 0.582286 -0.17154
N_ N_ 0.1235 0.682639 0.72992 -0.17154
N_ N_ 0.128774 0.707404 0.83537 -0.29468
N_ N_ 0.374357 0.825935 0.726361 -0.29468
N_ N_ 0.339971 0.798878 0.830256 -0.17154
N_ N_ 0.386671 0.826454 0.97886 -0.17154
N_ N_ 0.36949 0.798462 0.581991 -0.29468
O_ O_ 0.209166 0.672935 0.928061 -0.58347
O_ O_ 0.199205 0.696346 0.883032 -0.58347
O_ O_ 0.138022 0.75363 0.935683 -0.58347
O_ O_ 0.116312 0.762272 0.88989 -0.58347
O_ O_ 0.12284 0.606873 0.925084 -0.58347
O_ O_ 0.133961 0.614336 0.878537 -0.58347
O_ O_ 0.056493 0.6811 0.930616 -0.58347
O_ O_ 0.049784 0.677617 0.884392 -0.58347
O_ O_ 0.0692843 0.734369 0.577781 -0.46727
O_ O_ 0.226953 0.657332 0.586281 -0.46727
O_ O_ 0.042817 0.705503 0.727079 -0.46727
O_ O_ 0.205973 0.654067 0.732629 -0.46727
O_ O_ 0.292799 0.830654 0.676807 -0.58347
O_ O_ 0.29962 0.809717 0.631095 -0.58347
O_ O_ 0.364978 0.744795 0.684528 -0.58347
O_ O_ 0.380759 0.737034 0.638276 -0.58347
O_ O_ 0.372967 0.893804 0.671889 -0.58347
O_ O_ 0.362777 0.88963 0.625067 -0.58347
O_ O_ 0.440344 0.810208 0.673772 -0.58347
O_ O_ 0.449229 0.821858 0.628381 -0.58347
O_ O_ 0.423594 0.771501 0.823456 -0.46727
O_ O_ 0.265143 0.839284 0.835048 -0.46727
O_ O_ 0.471809 0.822146 0.968124 -0.46727
O_ O_ 0.305639 0.858447 0.985059 -0.46727
Zn Zn 0.619631 0.18052 0.380032 0.90689
Zn Zn 0.631877 0.178805 0.427865 0.90689
Zn Zn 0.872225 0.311218 0.135124 0.90689
Zn Zn 0.8655 0.319529 0.181644 0.90689
H_ H_ 0.79567 0.205504 0.443077 0.11455
H_ H_ 0.871307 0.175359 0.347916 0.11455
H_ H_ 0.776545 0.166155 0.355291 0.11455
H_ H_ 0.888305 0.217075 0.463377 0.11455
H_ H_ 0.980442 0.200754 0.456859 0.11455
H_ H_ 0.958623 0.170237 0.367038 0.11455
H_ H_ 0.611674 0.00561783 0.439379 0.11455
H_ H_ 0.648967 0.427036 0.348423 0.11455
H_ H_ 0.629909 0.0131657 0.345795 0.11455
H_ H_ 0.59996 0.428045 0.459986 0.11455
H_ H_ 0.583787 0.337341 0.45763 0.11455
H_ H_ 0.635441 0.339827 0.370204 0.11455
H_ H_ 0.583792 0.107106 0.462039 0.11455
H_ H_ 0.563239 0.0799312 0.0122655 0.11455
H_ H_ 0.597607 0.130854 0.0541409 0.11455
H_ H_ 0.691703 0.240685 0.471359 0.11455
H_ H_ 0.692144 0.31588 0.0119068 0.11455
H_ H_ 0.679263 0.28989 0.062849 0.11455
H_ H_ 0.511695 0.223903 0.121276 0.11455
H_ H_ 0.499909 0.210738 0.175406 0.11455
H_ H_ 0.755211 0.163649 0.131859 0.11455
H_ H_ 0.74097 0.15388 0.183652 0.11455
H_ H_ 0.558262 0.0889378 0.245283 0.11455
H_ H_ 0.541292 0.0631216 0.29444 0.11455
H_ H_ 0.567929 0.118884 0.335777 0.11455
H_ H_ 0.656182 0.243952 0.254935 0.11455
H_ H_ 0.682068 0.294156 0.294998 0.11455
H_ H_ 0.661318 0.269348 0.344771 0.11455
H_ H_ 0.695943 0.317396 0.198247 0.11455
H_ H_ 0.625676 0.349075 0.102842 0.11455
H_ H_ 0.715113 0.327118 0.107447 0.11455
H_ H_ 0.609496 0.309893 0.218736 0.11455
H_ H_ 0.519762 0.329351 0.212761 0.11455
H_ H_ 0.540861 0.327518 0.12091 0.11455
H_ H_ 0.906206 0.487227 0.188691 0.11455
H_ H_ 0.856693 0.0629954 0.100505 0.11455
H_ H_ 0.84363 0.474093 0.104608 0.11455
H_ H_ 0.889755 0.0688066 0.216144 0.11455
H_ H_ 0.88941 0.161457 0.211004 0.11455
H_ H_ 0.858873 0.147015 0.121612 0.11455
H_ H_ 0.922727 0.391972 0.219142 0.11455
H_ H_ 0.934334 0.419243 0.269765 0.11455
H_ H_ 0.893808 0.380801 0.307704 0.11455
H_ H_ 0.805757 0.256268 0.222777 0.11455
H_ H_ 0.75794 0.215794 0.262584 0.11455
H_ H_ 0.769857 0.241264 0.312915 0.11455
H_ H_ 0.973857 0.286813 0.372749 0.11455
H_ H_ -0.009468000000000032 0.297989 0.424625 0.11455
H_ H_ 0.728237 0.333222 0.391272 0.11455
H_ H_ 0.740896 0.358272 0.441084 0.11455
H_ H_ 0.923955 0.410473 0.498856 0.11455
H_ H_ 0.967766 0.419382 0.0532183 0.11455
H_ H_ 0.933816 0.369409 0.0929159 0.11455
H_ H_ 0.840394 0.252304 0.0104454 0.11455
H_ H_ 0.81488 0.198167 0.0501399 0.11455
H_ H_ 0.824014 0.228957 0.0999962 0.11455
C_ C_ 0.725106 0.190569 0.404109 0.68181
C_ C_ 0.781074 0.187059 0.399997 -0.05681
C_ C_ 0.812356 0.194079 0.422821 -0.08735
C_ C_ 0.865905 0.193539 0.419752 -0.05681
C_ C_ 0.887182 0.184209 0.391197 -0.05681
C_ C_ 0.854657 0.181361 0.368312 -0.08735
C_ C_ 0.801875 0.179569 0.372147 -0.08735
C_ C_ 0.898956 0.200623 0.443035 -0.08735
C_ C_ 0.952047 0.19155 0.439413 -0.08735
C_ C_ 0.972606 0.180835 0.41214 -0.05681
C_ C_ 0.939721 0.176344 0.38791 -0.08735
C_ C_ 0.614944 0.27489 0.411849 0.68181
C_ C_ 0.627567 0.0774507 0.394548 0.68181
C_ C_ 0.630698 0.0200572 0.393326 -0.05681
C_ C_ 0.636269 0.490342 0.422086 -0.08735
C_ C_ 0.63153 0.436341 0.419454 -0.05681
C_ C_ 0.633938 0.412671 0.393143 -0.05681
C_ C_ 0.640629 0.444002 0.368796 -0.08735
C_ C_ 0.652728 0.496278 0.371809 -0.08735
C_ C_ 0.617596 0.407495 0.443515 -0.08735
C_ C_ 0.603493 0.356179 0.439752 -0.08735
C_ C_ 0.616317 0.330584 0.414319 -0.05681
C_ C_ 0.631149 0.359718 0.390826 -0.08735
C_ C_ 0.526592 0.173679 0.404 0.68181
C_ C_ 0.597811 0.127713 0.479443 0.1947
C_ C_ 0.584812 0.114831 0.00950507 -0.08735
C_ C_ 0.605775 0.14174 0.0320458 -0.08735
C_ C_ 0.627338 0.190271 0.0274413 -0.05681
C_ C_ 0.638567 0.205196 0.998757 0.18498
C_ C_ 0.684986 0.230872 0.493623 -0.08735
C_ C_ 0.67816 0.278077 0.0168579 -0.08735
C_ C_ 0.666571 0.266526 0.0446518 -0.08735
C_ C_ 0.645992 0.21957 0.0507598 0.18498
C_ C_ 0.67919 0.189917 0.096392 0.44287
C_ C_ 0.591776 0.20048 0.0922005 0.44287
C_ C_ 0.585336 0.19218 0.121617 -0.05681
C_ C_ 0.538684 0.203274 0.133882 -0.08735
C_ C_ 0.53368 0.200313 0.164435 -0.08735
C_ C_ 0.576149 0.186761 0.182051 -0.05681
C_ C_ 0.623166 0.177752 0.168778 -0.05681
C_ C_ 0.626933 0.180198 0.138908 -0.05681
C_ C_ 0.675377 0.176174 0.125923 -0.05681
C_ C_ 0.718677 0.172483 0.142443 -0.08735
C_ C_ 0.712455 0.165486 0.171011 -0.08735
C_ C_ 0.666561 0.170444 0.185144 -0.05681
C_ C_ 0.660454 0.162391 0.215395 0.44287
C_ C_ 0.571458 0.18296 0.211891 0.44287
C_ C_ 0.602238 0.155953 0.257072 0.18498
C_ C_ 0.572539 0.111165 0.262688 -0.08735
C_ C_ 0.560856 0.098735 0.290622 -0.08735
C_ C_ 0.577674 0.128473 0.313723 -0.08735
C_ C_ 0.611672 0.168674 0.309153 0.18498
C_ C_ 0.624129 0.183288 0.280395 -0.05681
C_ C_ 0.648936 0.229393 0.276269 -0.08735
C_ C_ 0.665604 0.257928 0.298793 -0.08735
C_ C_ 0.654165 0.243065 0.327393 0.1947
C_ C_ 0.770951 0.319968 0.158067 0.68181
C_ C_ 0.712049 0.322596 0.153516 -0.05681
C_ C_ 0.679286 0.322357 0.177929 -0.08735
C_ C_ 0.627364 0.322889 0.173354 -0.05681
C_ C_ 0.60836 0.334442 0.146293 -0.05681
C_ C_ 0.638245 0.335629 0.122639 -0.08735
C_ C_ 0.690486 0.32777 0.126339 -0.08735
C_ C_ 0.594276 0.316376 0.19678 -0.08735
C_ C_ 0.542482 0.325975 0.193314 -0.08735
C_ C_ 0.520347 0.331957 0.165083 -0.05681
C_ C_ 0.555417 0.340507 0.142142 -0.08735
C_ C_ 0.871784 0.215847 0.163844 0.68181
C_ C_ 0.870065 0.416032 0.150366 0.68181
C_ C_ 0.867275 0.472882 0.148322 -0.05681
C_ C_ 0.877841 0.00110783 0.174662 -0.08735
C_ C_ 0.871045 0.0526914 0.172372 -0.05681
C_ C_ 0.862536 0.0766176 0.14511 -0.05681
C_ C_ 0.854355 0.0458534 0.121411 -0.08735
C_ C_ 0.855391 0.496179 0.12253 -0.08735
C_ C_ 0.88242 0.0833473 0.194954 -0.08735
C_ C_ 0.882009 0.136538 0.193222 -0.08735
C_ C_ 0.876646 0.159929 0.166543 -0.05681
C_ C_ 0.869804 0.129877 0.141683 -0.08735
C_ C_ 0.966119 0.31168 0.161345 0.68181
C_ C_ 0.90382 0.371875 0.23596 0.1947
C_ C_ 0.909103 0.388587 0.264143 -0.08735
C_ C_ 0.884225 0.366435 0.286302 -0.08735
C_ C_ 0.852739 0.324922 0.280872 -0.05681
C_ C_ 0.845358 0.309053 0.251277 0.18498
C_ C_ 0.813904 0.266061 0.244985 -0.08735
C_ C_ 0.787052 0.243986 0.268555 -0.08735
C_ C_ 0.793902 0.259894 0.29637 -0.08735
C_ C_ 0.826372 0.300214 0.303435 0.18498
C_ C_ 0.797604 0.324116 0.350447 0.44287
C_ C_ 0.884254 0.302652 0.345139 0.44287
C_ C_ 0.893993 0.309815 0.374634 -0.05681
C_ C_ 0.942935 0.300535 0.386293 -0.08735
C_ C_ 0.952591 0.308677 0.416265 -0.08735
C_ C_ 0.91194 0.323286 0.434125 -0.05681
C_ C_ 0.863653 0.328794 0.422431 -0.05681
C_ C_ 0.853805 0.322756 0.392555 -0.05681
C_ C_ 0.804679 0.328781 0.380731 -0.05681
C_ C_ 0.765165 0.33858 0.399126 -0.08735
C_ C_ 0.772052 0.343115 0.428556 -0.08735
C_ C_ 0.820645 0.336245 0.441362 -0.05681
C_ C_ 0.828881 0.341995 0.47143 0.44287
C_ C_ 0.916377 0.319289 0.464156 0.44287
C_ C_ 0.905425 0.330533 0.0121262 0.18498
C_ C_ 0.939425 0.371895 0.0187348 -0.08735
C_ C_ 0.949338 0.384071 0.0479853 -0.08735
C_ C_ 0.922675 0.36022 0.0706594 -0.08735
C_ C_ 0.892706 0.319355 0.0650704 0.18498
C_ C_ 0.889233 0.300663 0.0355981 -0.05681
C_ C_ 0.857697 0.257589 0.031527 -0.08735
C_ C_ 0.83499 0.232379 0.0543654 -0.08735
C_ C_ 0.841596 0.249734 0.0820737 0.1947
N_ N_ 0.633732 0.163808 0.475917 -0.29468
N_ N_ 0.638696 0.204324 0.0809685 -0.17154
N_ N_ 0.614036 0.16848 0.227999 -0.17154
N_ N_ 0.630776 0.196141 0.331984 -0.29468
N_ N_ 0.872499 0.331977 0.229361 -0.29468
N_ N_ 0.837672 0.309689 0.333277 -0.17154
N_ N_ 0.874687 0.328172 0.482436 -0.17154
N_ N_ 0.871064 0.291557 0.0871679 -0.29468
O_ O_ 0.70583 0.190041 0.429075 -0.58347
O_ O_ 0.697649 0.190637 0.381519 -0.58347
O_ O_ 0.622961 0.250008 0.434186 -0.58347
O_ O_ 0.60978 0.253192 0.387881 -0.58347
O_ O_ 0.637731 0.0995981 0.418408 -0.58347
O_ O_ 0.627469 0.104258 0.37158 -0.58347
O_ O_ 0.554696 0.168155 0.42533 -0.58347
O_ O_ 0.547196 0.172433 0.379625 -0.58347
O_ O_ 0.552063 0.210634 0.0762694 -0.46727
O_ O_ 0.724335 0.189253 0.0845076 -0.46727
O_ O_ 0.528184 0.194751 0.225327 -0.46727
O_ O_ 0.696193 0.14768 0.231449 -0.46727
O_ O_ 0.790011 0.327662 0.182922 -0.58347
O_ O_ 0.800441 0.307488 0.137946 -0.58347
O_ O_ 0.860151 0.242604 0.184643 -0.58347
O_ O_ 0.879783 0.236861 0.140191 -0.58347
O_ O_ 0.871899 0.395975 0.175809 -0.58347
O_ O_ 0.86541 0.387141 0.129326 -0.58347
O_ O_ 0.938747 0.314128 0.18277 -0.58347
O_ O_ 0.947069 0.320984 0.136943 -0.58347
O_ O_ 0.922189 0.289519 0.327623 -0.46727
O_ O_ 0.751302 0.324591 0.340434 -0.46727
O_ O_ 0.961863 0.313529 0.476656 -0.46727
O_ O_ 0.790644 0.351467 0.488721 -0.46727
Zn Zn 0.617813 0.186775 0.881521 0.90689
Zn Zn 0.626792 0.182818 0.928444 0.90689
Zn Zn 0.873648 0.319637 0.635263 0.90689
Zn Zn 0.867955 0.327 0.684216 0.90689
H_ H_ 0.794731 0.177904 0.949122 0.11455
H_ H_ 0.868843 0.164971 0.851192 0.11455
H_ H_ 0.780114 0.185164 0.856976 0.11455
H_ H_ 0.88153 0.182562 0.969171 0.11455
H_ H_ 0.970879 0.163994 0.963271 0.11455
H_ H_ 0.955 0.166699 0.87113 0.11455
H_ H_ 0.619173 0.0194288 0.944868 0.11455
H_ H_ 0.64915 0.437786 0.845767 0.11455
H_ H_ 0.629558 0.0313123 0.853232 0.11455
H_ H_ 0.58963 0.439491 0.958389 0.11455
H_ H_ 0.590382 0.343655 0.954569 0.11455
H_ H_ 0.64897 0.353956 0.870607 0.11455
H_ H_ 0.574993 0.113773 0.965003 0.11455
H_ H_ 0.551121 0.0879502 0.509001 0.11455
H_ H_ 0.581561 0.133405 0.551819 0.11455
H_ H_ 0.680123 0.253808 0.971587 0.11455
H_ H_ 0.728226 0.288631 0.511756 0.11455
H_ H_ 0.714945 0.260844 0.563215 0.11455
H_ H_ 0.507642 0.219912 0.619705 0.11455
H_ H_ 0.495994 0.218003 0.67229 0.11455
H_ H_ 0.739665 0.122631 0.634212 0.11455
H_ H_ 0.732247 0.124572 0.687105 0.11455
H_ H_ 0.536395 0.104804 0.746586 0.11455
H_ H_ 0.522141 0.0776056 0.794928 0.11455
H_ H_ 0.560447 0.117772 0.835139 0.11455
H_ H_ 0.659677 0.242794 0.756365 0.11455
H_ H_ 0.684664 0.290179 0.792983 0.11455
H_ H_ 0.672074 0.261003 0.843761 0.11455
H_ H_ 0.693788 0.317707 0.698397 0.11455
H_ H_ 0.633374 0.343903 0.599514 0.11455
H_ H_ 0.725766 0.350937 0.612989 0.11455
H_ H_ 0.608688 0.330929 0.719394 0.11455
H_ H_ 0.518787 0.341845 0.709117 0.11455
H_ H_ 0.546615 0.338195 0.616432 0.11455
H_ H_ 0.8952 0.491386 0.69127 0.11455
H_ H_ 0.869327 0.0742424 0.599576 0.11455
H_ H_ 0.849131 0.475058 0.60306 0.11455
H_ H_ 0.863713 0.0747527 0.718267 0.11455
H_ H_ 0.869589 0.164777 0.713948 0.11455
H_ H_ 0.878366 0.154793 0.624309 0.11455
H_ H_ 0.917728 0.394981 0.718878 0.11455
H_ H_ 0.939823 0.417828 0.769016 0.11455
H_ H_ 0.90197 0.372657 0.810353 0.11455
H_ H_ 0.797808 0.262614 0.728206 0.11455
H_ H_ 0.767426 0.210589 0.765515 0.11455
H_ H_ 0.781622 0.231855 0.816153 0.11455
H_ H_ 0.983992 0.281318 0.87373 0.11455
H_ H_ 0.00164225 0.28939 0.923475 0.11455
H_ H_ 0.747598 0.359454 0.89361 0.11455
H_ H_ 0.758531 0.349863 0.946242 0.11455
H_ H_ 0.954308 0.394937 1.00195832 0.11455
H_ H_ 0.955606 0.428714 0.546015 0.11455
H_ H_ 0.924975 0.385587 0.588569 0.11455
H_ H_ 0.841848 0.251038 0.513579 0.11455
H_ H_ 0.817451 0.202877 0.555913 0.11455
H_ H_ 0.819116 0.244686 0.602637 0.11455
C_ C_ 0.720679 0.186142 0.905614 0.68181
C_ C_ 0.777553 0.179584 0.90263 -0.05681
C_ C_ 0.809785 0.177872 0.927142 -0.08735
C_ C_ 0.862572 0.173904 0.923901 -0.05681
C_ C_ 0.883777 0.171434 0.896023 -0.05681
C_ C_ 0.851639 0.170749 0.872242 -0.08735
C_ C_ 0.80037 0.180903 0.875619 -0.08735
C_ C_ 0.896149 0.170717 0.947388 -0.08735
C_ C_ 0.947509 0.170622 0.943473 -0.08735
C_ C_ 0.969626 0.172465 0.916383 -0.05681
C_ C_ 0.937471 0.16777 0.892628 -0.08735
C_ C_ 0.616602 0.285541 0.907973 0.68181
C_ C_ 0.633529 0.0865505 0.900873 0.68181
C_ C_ 0.629622 0.0312844 0.899428 -0.05681
C_ C_ 0.624225 0.5034 0.919972 -0.08735
C_ C_ 0.617135 0.452105 0.916303 -0.05681
C_ C_ 0.629222 0.427173 0.890656 -0.05681
C_ C_ 0.645549 0.456261 0.866962 -0.08735
C_ C_ 0.649654 0.509014 0.869938 -0.08735
C_ C_ 0.60142 0.42155 0.938777 -0.08735
C_ C_ 0.600284 0.367972 0.93608 -0.08735
C_ C_ 0.616841 0.34352 0.910444 -0.05681
C_ C_ 0.634678 0.373325 0.889622 -0.08735
C_ C_ 0.523125 0.179148 0.903627 0.68181
C_ C_ 0.588722 0.136002 0.981968 0.1947
C_ C_ 0.577711 0.116121 0.506348 -0.08735
C_ C_ 0.5992 0.140066 0.531541 -0.08735
C_ C_ 0.636773 0.177835 0.527835 -0.05681
C_ C_ 0.651796 0.190606 0.498742 0.18498
C_ C_ 0.663422 0.249124 0.993726 -0.08735
C_ C_ 0.70785 0.254616 0.516592 -0.08735
C_ C_ 0.690639 0.247259 0.544752 -0.08735
C_ C_ 0.65554 0.207534 0.550543 0.18498
C_ C_ 0.679654 0.173699 0.596969 0.44287
C_ C_ 0.597024 0.203838 0.592323 0.44287
C_ C_ 0.585541 0.192977 0.621379 -0.05681
C_ C_ 0.538439 0.205359 0.633122 -0.08735
C_ C_ 0.533019 0.205656 0.663724 -0.08735
C_ C_ 0.571877 0.188176 0.681458 -0.05681
C_ C_ 0.618691 0.173987 0.669148 -0.05681
C_ C_ 0.624801 0.172229 0.638954 -0.05681
C_ C_ 0.670815 0.161326 0.626572 -0.05681
C_ C_ 0.706308 0.139479 0.644546 -0.08735
C_ C_ 0.702812 0.142179 0.674375 -0.08735
C_ C_ 0.658998 0.158798 0.687083 -0.05681
C_ C_ 0.651038 0.154348 0.716776 0.44287
C_ C_ 0.571321 0.194867 0.711802 0.44287
C_ C_ 0.595946 0.158577 0.7577 0.18498
C_ C_ 0.560358 0.120824 0.763385 -0.08735
C_ C_ 0.549508 0.108773 0.791271 -0.08735
C_ C_ 0.574585 0.129017 0.814514 -0.08735
C_ C_ 0.605571 0.171821 0.810243 0.18498
C_ C_ 0.620101 0.185784 0.781009 -0.05681
C_ C_ 0.64481 0.230802 0.77684 -0.08735
C_ C_ 0.659262 0.260068 0.798723 -0.08735
C_ C_ 0.652089 0.242513 0.827219 0.1947
C_ C_ 0.772545 0.317433 0.65869 0.68181
C_ C_ 0.716014 0.326792 0.655297 -0.05681
C_ C_ 0.681194 0.328893 0.678384 -0.08735
C_ C_ 0.630117 0.333352 0.673722 -0.05681
C_ C_ 0.610566 0.335772 0.645396 -0.05681
C_ C_ 0.644734 0.340943 0.621681 -0.08735
C_ C_ 0.696154 0.336312 0.627624 -0.08735
C_ C_ 0.595292 0.33723 0.696952 -0.08735
C_ C_ 0.542241 0.336484 0.6911 -0.08735
C_ C_ 0.523179 0.337418 0.662118 -0.05681
C_ C_ 0.558253 0.336918 0.638713 -0.08735
C_ C_ 0.877432 0.225776 0.666369 0.68181
C_ C_ 0.864835 0.420074 0.652063 0.68181
C_ C_ 0.864486 0.47475 0.648567 -0.05681
C_ C_ 0.872951 0.0064178 0.674826 -0.08735
C_ C_ 0.870886 0.0597769 0.672785 -0.05681
C_ C_ 0.877653 0.0841516 0.646152 -0.05681
C_ C_ 0.871206 0.05581 0.620632 -0.08735
C_ C_ 0.858449 0.496853 0.621524 -0.08735
C_ C_ 0.867508 0.0910227 0.697693 -0.08735
C_ C_ 0.868725 0.142431 0.694354 -0.08735
C_ C_ 0.875087 0.168051 0.668695 -0.05681
C_ C_ 0.881776 0.136701 0.644154 -0.08735
C_ C_ 0.970579 0.321358 0.657672 0.68181
C_ C_ 0.9014 0.373517 0.737816 0.1947
C_ C_ 0.908777 0.391359 0.765589 -0.08735
C_ C_ 0.887029 0.364628 0.788249 -0.08735
C_ C_ 0.856874 0.320456 0.783077 -0.05681
C_ C_ 0.847889 0.306654 0.754726 0.18498
C_ C_ 0.813601 0.2691 0.749387 -0.08735
C_ C_ 0.789912 0.24203 0.770607 -0.08735
C_ C_ 0.804587 0.251192 0.798735 -0.08735
C_ C_ 0.835515 0.291525 0.805442 0.18498
C_ C_ 0.808053 0.321195 0.853377 0.44287
C_ C_ 0.893148 0.292081 0.846395 0.44287
C_ C_ 0.902795 0.294168 0.875957 -0.05681
C_ C_ 0.953011 0.28828 0.887408 -0.08735
C_ C_ 0.962754 0.294563 0.916743 -0.08735
C_ C_ 0.920753 0.300174 0.935892 -0.05681
C_ C_ 0.872302 0.309697 0.924952 -0.05681
C_ C_ 0.86401 0.309164 0.894475 -0.05681
C_ C_ 0.81538 0.318659 0.883975 -0.05681
C_ C_ 0.775228 0.332668 0.902271 -0.08735
C_ C_ 0.786093 0.332934 0.932044 -0.08735
C_ C_ 0.832211 0.320827 0.942824 -0.05681
C_ C_ 0.843402 0.327512 0.972459 0.44287
C_ C_ 0.929874 0.303287 0.965295 0.44287
C_ C_ 0.885857 0.341889 0.5119 0.18498
C_ C_ 0.916463 0.385382 0.516073 -0.08735
C_ C_ 0.932353 0.398273 0.543552 -0.08735
C_ C_ 0.915775 0.371763 0.567181 -0.08735
C_ C_ 0.880888 0.331691 0.564836 0.18498
C_ C_ 0.868877 0.314788 0.536514 -0.05681
C_ C_ 0.845958 0.266842 0.533449 -0.08735
C_ C_ 0.835509 0.24072 0.558347 -0.08735
C_ C_ 0.836599 0.263075 0.585111 0.1947
N_ N_ 0.6202 0.176057 0.976689 -0.29468
N_ N_ 0.643314 0.19449 0.580931 -0.17154
N_ N_ 0.607521 0.172234 0.728354 -0.17154
N_ N_ 0.624621 0.197647 0.832266 -0.29468
N_ N_ 0.870148 0.332988 0.732981 -0.29468
N_ N_ 0.845445 0.302375 0.835938 -0.17154
N_ N_ 0.891861 0.318453 0.983242 -0.17154
N_ N_ 0.865657 0.306311 0.5881 -0.29468
O_ O_ 0.700362 0.187722 0.9299 -0.58347
O_ O_ 0.692929 0.19267 0.884761 -0.58347
O_ O_ 0.614597 0.259073 0.932198 -0.58347
O_ O_ 0.608922 0.26261 0.884194 -0.58347
O_ O_ 0.63688 0.107938 0.924983 -0.58347
O_ O_ 0.623842 0.111936 0.878169 -0.58347
O_ O_ 0.551606 0.180094 0.925643 -0.58347
O_ O_ 0.543368 0.188098 0.87932 -0.58347
O_ O_ 0.563224 0.226856 0.576034 -0.46727
O_ O_ 0.72428 0.160794 0.585132 -0.46727
O_ O_ 0.527697 0.205603 0.72266 -0.46727
O_ O_ 0.685906 0.132783 0.732765 -0.46727
O_ O_ 0.793019 0.321257 0.68277 -0.58347
O_ O_ 0.797644 0.313092 0.63606 -0.58347
O_ O_ 0.868135 0.252671 0.688441 -0.58347
O_ O_ 0.880358 0.246219 0.641002 -0.58347
O_ O_ 0.866916 0.40134 0.676997 -0.58347
O_ O_ 0.871623 0.392865 0.631115 -0.58347
O_ O_ 0.944379 0.329033 0.680118 -0.58347
O_ O_ 0.950522 0.321499 0.633532 -0.58347
O_ O_ 0.927386 0.269442 0.830683 -0.46727
O_ O_ 0.764057 0.333822 0.843203 -0.46727
O_ O_ 0.972049 0.285433 0.976696 -0.46727
O_ O_ 0.807485 0.33785 0.991647 -0.46727
Zn Zn 0.636868 0.676907 0.381769 0.90689
Zn Zn 0.646803 0.674856 0.42811 0.90689
Zn Zn 0.880264 0.812379 0.130948 0.90689
Zn Zn 0.867731 0.819395 0.180727 0.90689
H_ H_ 0.816084 0.668819 0.444393 0.11455
H_ H_ 0.886906 0.667821 0.348504 0.11455
H_ H_ 0.79716 0.686102 0.353781 0.11455
H_ H_ 0.898427 0.701245 0.461087 0.11455
H_ H_ 0.993443 0.675728 0.456373 0.11455
H_ H_ 0.97058 0.654707 0.367306 0.11455
H_ H_ 0.63357 0.506442 0.44365 0.11455
H_ H_ 0.618205 0.921114 0.345496 0.11455
H_ H_ 0.654199 0.519568 0.352729 0.11455
H_ H_ 0.599269 0.920105 0.46072 0.11455
H_ H_ 0.599449 0.829207 0.455881 0.11455
H_ H_ 0.661836 0.841247 0.371667 0.11455
H_ H_ 0.605232 0.602657 0.464494 0.11455
H_ H_ 0.573753 0.586413 0.0159627 0.11455
H_ H_ 0.620287 0.625542 0.0528416 0.11455
H_ H_ 0.708878 0.746972 0.471454 0.11455
H_ H_ 0.716314 0.813774 0.0113523 0.11455
H_ H_ 0.694962 0.794358 0.059868 0.11455
H_ H_ 0.516927 0.698503 0.12216 0.11455
H_ H_ 0.509541 0.68577 0.173234 0.11455
H_ H_ 0.771606 0.672664 0.130724 0.11455
H_ H_ 0.763838 0.653897 0.181416 0.11455
H_ H_ 0.591451 0.57441 0.243611 0.11455
H_ H_ 0.5687 0.548103 0.292193 0.11455
H_ H_ 0.587191 0.60288 0.332942 0.11455
H_ H_ 0.680878 0.739768 0.257418 0.11455
H_ H_ 0.724014 0.77174 0.29986 0.11455
H_ H_ 0.693605 0.743547 0.348559 0.11455
H_ H_ 0.701639 0.821446 0.194719 0.11455
H_ H_ 0.626685 0.833856 0.0964119 0.11455
H_ H_ 0.719631 0.815817 0.103768 0.11455
H_ H_ 0.611171 0.799496 0.212756 0.11455
H_ H_ 0.521275 0.784801 0.203427 0.11455
H_ H_ 0.541395 0.829606 0.116836 0.11455
H_ H_ 0.886418 0.982721 0.194309 0.11455
H_ H_ 0.837529 0.565894 0.101112 0.11455
H_ H_ 0.854275 0.971219 0.104812 0.11455
H_ H_ 0.922323 0.570957 0.211529 0.11455
H_ H_ 0.919617 0.664282 0.205772 0.11455
H_ H_ 0.859124 0.648927 0.121085 0.11455
H_ H_ 0.921539 0.891004 0.213725 0.11455
H_ H_ 0.939109 0.917246 0.265173 0.11455
H_ H_ 0.914508 0.868757 0.305169 0.11455
H_ H_ 0.816601 0.749916 0.223537 0.11455
H_ H_ 0.805576 0.681292 0.259091 0.11455
H_ H_ 0.827811 0.704374 0.309042 0.11455
H_ H_ 1.00351 0.795327 0.377013 0.11455
H_ H_ 0.00776474 0.798659 0.425976 0.11455
H_ H_ 0.752256 0.830282 0.379893 0.11455
H_ H_ 0.755152 0.842975 0.432231 0.11455
H_ H_ 0.918389 0.913169 0.494807 0.11455
H_ H_ 0.97173 0.924621 0.0458055 0.11455
H_ H_ 0.933384 0.882688 0.0848602 0.11455
H_ H_ 0.843715 0.757598 0.00407657 0.11455
H_ H_ 0.797222 0.716607 0.0427842 0.11455
H_ H_ 0.825309 0.73623 0.0953979 0.11455
C_ C_ 0.739219 0.684451 0.404243 0.68181
C_ C_ 0.796746 0.681184 0.400126 -0.05681
C_ C_ 0.829298 0.682325 0.423486 -0.08735
C_ C_ 0.880663 0.680251 0.41972 -0.05681
C_ C_ 0.901129 0.668818 0.392787 -0.05681
C_ C_ 0.870472 0.671311 0.368803 -0.08735
C_ C_ 0.81869 0.678058 0.37239 -0.08735
C_ C_ 0.91361 0.682265 0.443565 -0.08735
C_ C_ 0.966225 0.677181 0.439716 -0.08735
C_ C_ 0.987177 0.668252 0.411895 -0.05681
C_ C_ 0.953912 0.663868 0.388934 -0.08735
C_ C_ 0.633874 0.772899 0.409625 0.68181
C_ C_ 0.647033 0.577585 0.399424 0.68181
C_ C_ 0.64362 0.520344 0.397856 -0.05681
C_ C_ 0.620446 0.989335 0.41821 -0.08735
C_ C_ 0.62564 0.936219 0.416542 -0.05681
C_ C_ 0.638438 0.912627 0.390327 -0.05681
C_ C_ 0.63588 0.940184 0.364488 -0.08735
C_ C_ 0.631852 0.993203 0.365931 -0.08735
C_ C_ 0.613675 0.905217 0.440965 -0.08735
C_ C_ 0.615714 0.853171 0.438118 -0.08735
C_ C_ 0.626788 0.829701 0.411421 -0.05681
C_ C_ 0.638844 0.859951 0.388129 -0.08735
C_ C_ 0.543653 0.668678 0.403629 0.68181
C_ C_ 0.621668 0.621952 0.481876 0.1947
C_ C_ 0.596765 0.615951 0.0105274 -0.08735
C_ C_ 0.621677 0.640773 0.0318462 -0.08735
C_ C_ 0.642621 0.688626 0.0274051 -0.05681
C_ C_ 0.650105 0.703792 0.998085 0.18498
C_ C_ 0.697283 0.734949 0.492846 -0.08735
C_ C_ 0.699933 0.776203 0.0156439 -0.08735
C_ C_ 0.686684 0.764459 0.0432064 -0.08735
C_ C_ 0.661102 0.720208 0.0504377 0.18498
C_ C_ 0.696319 0.694699 0.0948333 0.44287
C_ C_ 0.608053 0.713123 0.0920953 0.44287
C_ C_ 0.600731 0.699637 0.120895 -0.05681
C_ C_ 0.553095 0.692401 0.134781 -0.08735
C_ C_ 0.549437 0.685838 0.164362 -0.08735
C_ C_ 0.591891 0.67905 0.180745 -0.05681
C_ C_ 0.640798 0.681327 0.167875 -0.05681
C_ C_ 0.645112 0.692904 0.138806 -0.05681
C_ C_ 0.693146 0.690263 0.125183 -0.05681
C_ C_ 0.735137 0.679308 0.141565 -0.08735
C_ C_ 0.73031 0.666119 0.170997 -0.08735
C_ C_ 0.68367 0.670511 0.184628 -0.05681
C_ C_ 0.67724 0.660374 0.214744 0.44287
C_ C_ 0.590042 0.67509 0.210194 0.44287
C_ C_ 0.624247 0.647273 0.256657 0.18498
C_ C_ 0.60176 0.599234 0.261852 -0.08735
C_ C_ 0.583636 0.584881 0.288751 -0.08735
C_ C_ 0.592903 0.617821 0.312191 -0.08735
C_ C_ 0.625688 0.660562 0.309094 0.18498
C_ C_ 0.639773 0.677503 0.280613 -0.05681
C_ C_ 0.671377 0.720319 0.277713 -0.08735
C_ C_ 0.696792 0.740012 0.302171 -0.08735
C_ C_ 0.678037 0.725842 0.329233 0.1947
C_ C_ 0.772876 0.815841 0.154098 0.68181
C_ C_ 0.715778 0.815838 0.150963 -0.05681
C_ C_ 0.684741 0.820453 0.173887 -0.08735
C_ C_ 0.63117 0.818963 0.169034 -0.05681
C_ C_ 0.611815 0.827969 0.142197 -0.05681
C_ C_ 0.64183 0.826324 0.118156 -0.08735
C_ C_ 0.694862 0.818929 0.122354 -0.08735
C_ C_ 0.597166 0.808944 0.191735 -0.08735
C_ C_ 0.543658 0.805362 0.186644 -0.08735
C_ C_ 0.522774 0.820065 0.160505 -0.05681
C_ C_ 0.557952 0.829246 0.137382 -0.08735
C_ C_ 0.886827 0.718124 0.159801 0.68181
C_ C_ 0.868462 0.913531 0.151807 0.68181
C_ C_ 0.870787 0.969562 0.149742 -0.05681
C_ C_ 0.885707 0.504183 0.171353 -0.08735
C_ C_ 0.886293 0.557806 0.169579 -0.05681
C_ C_ 0.869129 0.580177 0.144528 -0.05681
C_ C_ 0.855504 0.548661 0.120514 -0.08735
C_ C_ 0.859157 0.992485 0.12328 -0.08735
C_ C_ 0.90494 0.589253 0.192484 -0.08735
C_ C_ 0.913267 0.640927 0.187262 -0.08735
C_ C_ 0.892396 0.662862 0.162371 -0.05681
C_ C_ 0.87354 0.632583 0.140177 -0.08735
C_ C_ 0.969702 0.825028 0.157376 0.68181
C_ C_ 0.898453 0.871859 0.231925 0.1947
C_ C_ 0.913768 0.885742 0.260511 -0.08735
C_ C_ 0.896839 0.858243 0.283135 -0.08735
C_ C_ 0.869985 0.811246 0.277748 -0.05681
C_ C_ 0.856479 0.79815 0.248859 0.18498
C_ C_ 0.837352 0.751964 0.242726 -0.08735
C_ C_ 0.827632 0.716642 0.263826 -0.08735
C_ C_ 0.840605 0.726574 0.292269 -0.08735
C_ C_ 0.862131 0.775432 0.299999 0.18498
C_ C_ 0.826532 0.803351 0.345265 0.44287
C_ C_ 0.914235 0.785872 0.343027 0.44287
C_ C_ 0.920599 0.799573 0.372883 -0.05681
C_ C_ 0.967587 0.796407 0.387714 -0.08735
C_ C_ 0.969082 0.800953 0.416446 -0.08735
C_ C_ 0.925795 0.80842 0.43292 -0.05681
C_ C_ 0.87925 0.811749 0.419264 -0.05681
C_ C_ 0.875823 0.807786 0.388623 -0.05681
C_ C_ 0.829384 0.811379 0.374962 -0.05681
C_ C_ 0.786803 0.821498 0.391254 -0.08735
C_ C_ 0.788101 0.827744 0.421158 -0.08735
C_ C_ 0.8361 0.82349 0.435501 -0.05681
C_ C_ 0.841791 0.832422 0.465141 0.44287
C_ C_ 0.929177 0.813791 0.463353 0.44287
C_ C_ 0.903119 0.83794 0.0072589 0.18498
C_ C_ 0.939647 0.874357 0.0130358 -0.08735
C_ C_ 0.947974 0.890715 0.0407746 -0.08735
C_ C_ 0.92424 0.867852 0.0639491 -0.08735
C_ C_ 0.894589 0.823835 0.0601054 0.18498
C_ C_ 0.882493 0.808767 0.0304161 -0.05681
C_ C_ 0.851836 0.766358 0.0252837 -0.08735
C_ C_ 0.82651 0.743657 0.0474349 -0.08735
C_ C_ 0.840073 0.758544 0.0770477 0.1947
N_ N_ 0.643905 0.666701 0.477368 -0.29468
N_ N_ 0.654222 0.707203 0.079517 -0.17154
N_ N_ 0.629905 0.662612 0.226817 -0.17154
N_ N_ 0.643147 0.686753 0.332195 -0.29468
N_ N_ 0.872451 0.828284 0.226858 -0.29468
N_ N_ 0.867719 0.788405 0.329526 -0.17154
N_ N_ 0.886964 0.826656 0.479087 -0.17154
N_ N_ 0.871799 0.79936 0.0820927 -0.29468
O_ O_ 0.719483 0.683646 0.428759 -0.58347
O_ O_ 0.710133 0.681165 0.382894 -0.58347
O_ O_ 0.630057 0.747167 0.433447 -0.58347
O_ O_ 0.630723 0.750829 0.385675 -0.58347
O_ O_ 0.655938 0.598815 0.423399 -0.58347
O_ O_ 0.63298 0.604045 0.377587 -0.58347
O_ O_ 0.572848 0.666022 0.425481 -0.58347
O_ O_ 0.562239 0.673397 0.378963 -0.58347
O_ O_ 0.566708 0.715156 0.075541 -0.46727
O_ O_ 0.740215 0.684334 0.08291 -0.46727
O_ O_ 0.549617 0.688856 0.224521 -0.46727
O_ O_ 0.714591 0.641034 0.229853 -0.46727
O_ O_ 0.792103 0.823513 0.178397 -0.58347
O_ O_ 0.801333 0.798765 0.134063 -0.58347
O_ O_ 0.873014 0.743349 0.180419 -0.58347
O_ O_ 0.895584 0.738779 0.136222 -0.58347
O_ O_ 0.866695 0.893672 0.175718 -0.58347
O_ O_ 0.865128 0.886245 0.12894 -0.58347
O_ O_ 0.941871 0.81698 0.179007 -0.58347
O_ O_ 0.951865 0.831301 0.133395 -0.58347
O_ O_ 0.954435 0.767868 0.32979 -0.46727
O_ O_ 0.781975 0.811918 0.331857 -0.46727
O_ O_ 0.97245 0.808697 0.477596 -0.46727
O_ O_ 0.80252 0.854619 0.478297 -0.46727
Zn Zn 0.623859 0.69042 0.878681 0.90689
Zn Zn 0.630652 0.686109 0.92785 0.90689
Zn Zn 0.876456 0.81604 0.632168 0.90689
Zn Zn 0.860526 0.824215 0.679994 0.90689
H_ H_ 0.798888 0.692586 0.944326 0.11455
H_ H_ 0.867356 0.677666 0.846888 0.11455
H_ H_ 0.777437 0.697269 0.854888 0.11455
H_ H_ 0.884396 0.694574 0.965367 0.11455
H_ H_ 0.979486 0.693166 0.958024 0.11455
H_ H_ 0.952741 0.655075 0.868548 0.11455
H_ H_ 0.61357 0.520032 0.939156 0.11455
H_ H_ 0.622967 0.938578 0.847117 0.11455
H_ H_ 0.660586 0.529607 0.850668 0.11455
H_ H_ 0.602047 0.935113 0.965203 0.11455
H_ H_ 0.602681 0.840497 0.961006 0.11455
H_ H_ 0.628804 0.853894 0.869506 0.11455
H_ H_ 0.583555 0.609698 0.964708 0.11455
H_ H_ 0.590572 0.573566 0.514218 0.11455
H_ H_ 0.620434 0.624771 0.554004 0.11455
H_ H_ 0.687299 0.762936 0.970956 0.11455
H_ H_ 0.727233 0.805026 0.508668 0.11455
H_ H_ 0.698698 0.789661 0.558327 0.11455
H_ H_ 0.511977 0.707628 0.615068 0.11455
H_ H_ 0.501076 0.710432 0.667086 0.11455
H_ H_ 0.762148 0.674612 0.638647 0.11455
H_ H_ 0.74831 0.670341 0.690435 0.11455
H_ H_ 0.551716 0.604729 0.745917 0.11455
H_ H_ 0.532841 0.583788 0.796451 0.11455
H_ H_ 0.568674 0.630832 0.833937 0.11455
H_ H_ 0.642437 0.765306 0.754145 0.11455
H_ H_ 0.684578 0.805678 0.794253 0.11455
H_ H_ 0.676374 0.768485 0.842944 0.11455
H_ H_ 0.695687 0.828851 0.691539 0.11455
H_ H_ 0.633151 0.82511 0.59243 0.11455
H_ H_ 0.723436 0.812177 0.601627 0.11455
H_ H_ 0.607662 0.834213 0.710491 0.11455
H_ H_ 0.519167 0.831328 0.702784 0.11455
H_ H_ 0.539847 0.826395 0.613177 0.11455
H_ H_ 0.86772 0.98834 0.695657 0.11455
H_ H_ 0.841902 0.566312 0.599154 0.11455
H_ H_ 0.86711 0.980822 0.601728 0.11455
H_ H_ 0.894468 0.574796 0.71409 0.11455
H_ H_ 0.904267 0.663414 0.70674 0.11455
H_ H_ 0.8533 0.651859 0.621723 0.11455
H_ H_ 0.929235 0.877639 0.716687 0.11455
H_ H_ 0.946893 0.898146 0.76837 0.11455
H_ H_ 0.893327 0.866918 0.805199 0.11455
H_ H_ 0.794572 0.760788 0.718452 0.11455
H_ H_ 0.759089 0.706452 0.758871 0.11455
H_ H_ 0.777806 0.72398 0.809169 0.11455
H_ H_ 0.977119 0.792737 0.864531 0.11455
H_ H_ 0.995496 0.794425 0.916202 0.11455
H_ H_ 0.736736 0.853929 0.892144 0.11455
H_ H_ 0.754023 0.86205 0.943788 0.11455
H_ H_ 0.963963 0.891201 0.996666 0.11455
H_ H_ 0.946437 0.937247 0.54401 0.11455
H_ H_ 0.9194 0.886533 0.585039 0.11455
H_ H_ 0.845943 0.745725 0.506613 0.11455
H_ H_ 0.824897 0.698518 0.549383 0.11455
H_ H_ 0.836871 0.736285 0.597923 0.11455
C_ C_ 0.725498 0.698794 0.904277 0.68181
C_ C_ 0.780975 0.694918 0.9012 -0.05681
C_ C_ 0.815432 0.694054 0.923053 -0.08735
C_ C_ 0.869239 0.685372 0.919854 -0.05681
C_ C_ 0.887949 0.67759 0.892217 -0.05681
C_ C_ 0.854441 0.678179 0.868943 -0.08735
C_ C_ 0.801336 0.688185 0.873357 -0.08735
C_ C_ 0.900818 0.685664 0.944372 -0.08735
C_ C_ 0.953171 0.680776 0.94066 -0.08735
C_ C_ 0.972532 0.671737 0.913146 -0.05681
C_ C_ 0.94009 0.667189 0.889422 -0.08735
C_ C_ 0.619293 0.784229 0.911895 0.68181
C_ C_ 0.634608 0.588248 0.897399 0.68181
C_ C_ 0.638684 0.534174 0.895684 -0.05681
C_ C_ 0.622889 0.00131366 0.92351 -0.08735
C_ C_ 0.616433 0.947949 0.92143 -0.05681
C_ C_ 0.623505 0.92501 0.893903 -0.05681
C_ C_ 0.623383 0.956517 0.868549 -0.08735
C_ C_ 0.630284 0.00892023 0.872733 -0.08735
C_ C_ 0.609426 0.91732 0.945356 -0.08735
C_ C_ 0.608562 0.863477 0.942776 -0.08735
C_ C_ 0.617441 0.840515 0.91617 -0.05681
C_ C_ 0.625048 0.872804 0.891515 -0.08735
C_ C_ 0.528318 0.681299 0.904386 0.68181
C_ C_ 0.59927 0.633534 0.981928 0.1947
C_ C_ 0.615107 0.605558 0.509765 -0.08735
C_ C_ 0.631781 0.635341 0.532503 -0.08735
C_ C_ 0.654459 0.682933 0.527389 -0.05681
C_ C_ 0.664963 0.694311 0.499033 0.18498
C_ C_ 0.681288 0.746044 0.992533 -0.08735
C_ C_ 0.708068 0.770002 0.514637 -0.08735
C_ C_ 0.697471 0.758718 0.543218 -0.08735
C_ C_ 0.667365 0.717207 0.549568 0.18498
C_ C_ 0.695718 0.697393 0.598826 0.44287
C_ C_ 0.606843 0.709074 0.590524 0.44287
C_ C_ 0.596226 0.702898 0.619412 -0.05681
C_ C_ 0.547167 0.707405 0.629644 -0.08735
C_ C_ 0.53876 0.706937 0.659339 -0.08735
C_ C_ 0.578805 0.702908 0.678639 -0.05681
C_ C_ 0.628813 0.695627 0.667938 -0.05681
C_ C_ 0.636945 0.695209 0.63836 -0.05681
C_ C_ 0.685858 0.688284 0.627891 -0.05681
C_ C_ 0.725592 0.675124 0.646746 -0.08735
C_ C_ 0.716813 0.675754 0.676559 -0.08735
C_ C_ 0.667516 0.68401 0.687263 -0.05681
C_ C_ 0.654073 0.674313 0.716151 0.44287
C_ C_ 0.569877 0.699688 0.708737 0.44287
C_ C_ 0.596214 0.672675 0.756506 0.18498
C_ C_ 0.567889 0.628114 0.763223 -0.08735
C_ C_ 0.553928 0.615822 0.791248 -0.08735
C_ C_ 0.577351 0.641898 0.813348 -0.08735
C_ C_ 0.610358 0.682821 0.808089 0.18498
C_ C_ 0.613075 0.702577 0.779827 -0.05681
C_ C_ 0.636416 0.751544 0.775804 -0.08735
C_ C_ 0.664241 0.771493 0.797679 -0.08735
C_ C_ 0.659547 0.750148 0.825303 0.1947
C_ C_ 0.772206 0.816593 0.654419 0.68181
C_ C_ 0.716914 0.820099 0.647622 -0.05681
C_ C_ 0.68284 0.828015 0.669987 -0.08735
C_ C_ 0.631637 0.831547 0.665472 -0.05681
C_ C_ 0.6108 0.829502 0.637946 -0.05681
C_ C_ 0.6459 0.823132 0.614514 -0.08735
C_ C_ 0.698637 0.821034 0.619572 -0.08735
C_ C_ 0.596409 0.829995 0.689206 -0.08735
C_ C_ 0.543342 0.829485 0.684969 -0.08735
C_ C_ 0.523945 0.825575 0.65735 -0.05681
C_ C_ 0.557232 0.829559 0.63427 -0.08735
C_ C_ 0.879176 0.720981 0.66208 0.68181
C_ C_ 0.863234 0.919522 0.649768 0.68181
C_ C_ 0.869554 0.976978 0.648908 -0.05681
C_ C_ 0.878215 0.506458 0.671919 -0.08735
C_ C_ 0.871241 0.55765 0.669902 -0.05681
C_ C_ 0.864513 0.580919 0.642511 -0.05681
C_ C_ 0.855711 0.549934 0.618592 -0.08735
C_ C_ 0.866961 1.00329 0.622459 -0.08735
C_ C_ 0.886093 0.588735 0.693541 -0.08735
C_ C_ 0.892426 0.640645 0.689749 -0.08735
C_ C_ 0.882038 0.663344 0.663522 -0.05681
C_ C_ 0.86362 0.632562 0.641547 -0.08735
C_ C_ 0.966951 0.825877 0.654817 0.68181
C_ C_ 0.906364 0.858335 0.733513 0.1947
C_ C_ 0.920381 0.868583 0.763044 -0.08735
C_ C_ 0.88856 0.85089 0.784653 -0.08735
C_ C_ 0.84579 0.82202 0.777414 -0.05681
C_ C_ 0.83316 0.810308 0.747534 0.18498
C_ C_ 0.799706 0.771368 0.741632 -0.08735
C_ C_ 0.781449 0.73975 0.765099 -0.08735
C_ C_ 0.789678 0.752877 0.79382 -0.08735
C_ C_ 0.821014 0.794924 0.800077 0.18498
C_ C_ 0.800663 0.824776 0.848731 0.44287
C_ C_ 0.881289 0.788251 0.841317 0.44287
C_ C_ 0.897014 0.802948 0.869779 -0.05681
C_ C_ 0.946919 0.79615 0.87954 -0.08735
C_ C_ 0.956454 0.796891 0.90952 -0.08735
C_ C_ 0.919622 0.809607 0.93059 -0.05681
C_ C_ 0.871229 0.822979 0.918911 -0.05681
C_ C_ 0.859842 0.81919 0.888763 -0.05681
C_ C_ 0.810831 0.830962 0.878794 -0.05681
C_ C_ 0.773684 0.846579 0.899071 -0.08735
C_ C_ 0.783204 0.848136 0.92809 -0.08735
C_ C_ 0.833617 0.834409 0.93789 -0.05681
C_ C_ 0.846722 0.845259 0.967169 0.44287
C_ C_ 0.928813 0.814603 0.959556 0.44287
C_ C_ 0.893151 0.840112 0.507855 0.18498
C_ C_ 0.914621 0.887181 0.512067 -0.08735
C_ C_ 0.923143 0.904139 0.539585 -0.08735
C_ C_ 0.913695 0.871773 0.56284 -0.08735
C_ C_ 0.885217 0.828912 0.560434 0.18498
C_ C_ 0.874041 0.811686 0.531075 -0.05681
C_ C_ 0.848248 0.765604 0.527645 -0.08735
C_ C_ 0.840813 0.734942 0.551588 -0.08735
C_ C_ 0.844202 0.756501 0.579692 0.1947
N_ N_ 0.627974 0.676315 0.976514 -0.29468
N_ N_ 0.65603 0.705241 0.579849 -0.17154
N_ N_ 0.606347 0.685485 0.727017 -0.17154
N_ N_ 0.63045 0.709527 0.830119 -0.29468
N_ N_ 0.865238 0.828958 0.726759 -0.29468
N_ N_ 0.836143 0.801855 0.830869 -0.17154
N_ N_ 0.891579 0.828938 0.977682 -0.17154
N_ N_ 0.870098 0.800733 0.58347 -0.29468
O_ O_ 0.705025 0.702153 0.928706 -0.58347
O_ O_ 0.699414 0.696144 0.881622 -0.58347
O_ O_ 0.618323 0.755765 0.933986 -0.58347
O_ O_ 0.611434 0.766767 0.887473 -0.58347
O_ O_ 0.643905 0.608804 0.921943 -0.58347
O_ O_ 0.624401 0.615347 0.87648 -0.58347
O_ O_ 0.556545 0.676975 0.925707 -0.58347
O_ O_ 0.547577 0.683735 0.87972 -0.58347
O_ O_ 0.569743 0.716741 0.572803 -0.46727
O_ O_ 0.740054 0.695725 0.587197 -0.46727
O_ O_ 0.524623 0.71415 0.718023 -0.46727
O_ O_ 0.690495 0.661462 0.735445 -0.46727
O_ O_ 0.787916 0.829995 0.678766 -0.58347
O_ O_ 0.803121 0.801942 0.635516 -0.58347
O_ O_ 0.862114 0.745326 0.683745 -0.58347
O_ O_ 0.894045 0.74372 0.638757 -0.58347
O_ O_ 0.86521 0.898528 0.674294 -0.58347
O_ O_ 0.858408 0.891681 0.627672 -0.58347
O_ O_ 0.937956 0.818836 0.676766 -0.58347
O_ O_ 0.94875 0.835306 0.630565 -0.58347
O_ O_ 0.913315 0.764115 0.825631 -0.46727
O_ O_ 0.754594 0.837442 0.839951 -0.46727
O_ O_ 0.974169 0.804913 0.971038 -0.46727
O_ O_ 0.809533 0.852542 0.986189 -0.46727
