_cell_length_a 26.376
_cell_length_b 26.400000238300095
_cell_length_c 46.67800035477134
_cell_angle_alpha 90.00700052986613
_cell_angle_beta 89.99899961309502
_cell_angle_gamma 90.45000003183146
_symmetry_space_group_name_H-M         'P 1'
_symmetry_Int_Tables_number            1
loop_
_symmetry_equiv_pos_as_xyz
   'x, y, z'
                         
loop_
_atom_site_label
_atom_site_type_symbol
_atom_site_fract_x 
_atom_site_fract_y
_atom_site_fract_z
_atom_site_charge
Zn Zn 0.1298 0.18583 0.382773 0.90689
Zn Zn 0.1498 0.177678 0.4281 0.90689
Zn Zn 0.366489 0.304779 0.132608 0.90689
Zn Zn 0.357556 0.316855 0.181685 0.90689
H_ H_ 0.313984 0.196755 0.441938 0.11455
H_ H_ 0.382051 0.195911 0.345937 0.11455
H_ H_ 0.295299 0.166135 0.34997 0.11455
H_ H_ 0.397972 0.189588 0.46179 0.11455
H_ H_ 0.487429 0.191693 0.456986 0.11455
H_ H_ 0.468803 0.183304 0.365205 0.11455
H_ H_ 0.132918 0.0142526 0.443037 0.11455
H_ H_ 0.108402 0.433905 0.344889 0.11455
H_ H_ 0.131694 0.0242805 0.348079 0.11455
H_ H_ 0.141466 0.432224 0.463004 0.11455
H_ H_ 0.144876 0.339503 0.45764 0.11455
H_ H_ 0.127841 0.348065 0.365624 0.11455
H_ H_ 0.0965019 0.104579 0.465142 0.11455
H_ H_ 0.0859854 0.0638109 0.0111766 0.11455
H_ H_ 0.114028 0.11328 0.0514769 0.11455
H_ H_ 0.212535 0.238819 0.467494 0.11455
H_ H_ 0.208634 0.308828 0.0150216 0.11455
H_ H_ 0.191356 0.277841 0.066276 0.11455
H_ H_ 0.0101892 0.181255 0.121761 0.11455
H_ H_ -0.00103223 0.180117 0.17223 0.11455
H_ H_ 0.261879 0.175722 0.137182 0.11455
H_ H_ 0.251452 0.163893 0.190041 0.11455
H_ H_ 0.0479895 0.0988965 0.248179 0.11455
H_ H_ 0.0310028 0.073841 0.297175 0.11455
H_ H_ 0.066845 0.119848 0.337451 0.11455
H_ H_ 0.160743 0.246874 0.257655 0.11455
H_ H_ 0.201577 0.288018 0.299389 0.11455
H_ H_ 0.194301 0.244076 0.345953 0.11455
H_ H_ 0.19031 0.296092 0.194656 0.11455
H_ H_ 0.124865 0.329528 0.096244 0.11455
H_ H_ 0.217115 0.328407 0.105108 0.11455
H_ H_ 0.104196 0.306073 0.213751 0.11455
H_ H_ 0.0147346 0.300322 0.206901 0.11455
H_ H_ 0.0388249 0.322251 0.115599 0.11455
H_ H_ 0.402439 0.475976 0.192269 0.11455
H_ H_ 0.367091 0.0574227 0.0984428 0.11455
H_ H_ 0.36069 0.464899 0.103021 0.11455
H_ H_ 0.331871 0.0606638 0.214827 0.11455
H_ H_ 0.344919 0.152106 0.213088 0.11455
H_ H_ 0.369607 0.144229 0.123013 0.11455
H_ H_ 0.428773 0.379442 0.217841 0.11455
H_ H_ 0.436779 0.413948 0.264367 0.11455
H_ H_ 0.386499 0.376657 0.30411 0.11455
H_ H_ 0.293648 0.254501 0.22376 0.11455
H_ H_ 0.280796 0.195368 0.262795 0.11455
H_ H_ 0.296316 0.22229 0.313659 0.11455
H_ H_ 0.483689 0.291895 0.371266 0.11455
H_ H_ 0.49476 0.305023 0.422154 0.11455
H_ H_ 0.232386 0.344317 0.388831 0.11455
H_ H_ 0.256713 0.381011 0.437368 0.11455
H_ H_ 0.434748 0.422435 0.498503 0.11455
H_ H_ 0.442311 0.435155 0.0556007 0.11455
H_ H_ 0.418765 0.376184 0.0929516 0.11455
H_ H_ 0.332551 0.259452 0.00745658 0.11455
H_ H_ 0.315558 0.199251 0.0483748 0.11455
H_ H_ 0.319565 0.233347 0.0955861 0.11455
C_ C_ 0.240181 0.179884 0.402928 0.68181
C_ C_ 0.294813 0.17993 0.397905 -0.05681
C_ C_ 0.326582 0.192794 0.420273 -0.08735
C_ C_ 0.379686 0.1876 0.417018 -0.05681
C_ C_ 0.400979 0.180336 0.38969 -0.05681
C_ C_ 0.369174 0.182114 0.366869 -0.08735
C_ C_ 0.315923 0.177319 0.368947 -0.08735
C_ C_ 0.412042 0.19134 0.440333 -0.08735
C_ C_ 0.464653 0.192609 0.437549 -0.08735
C_ C_ 0.48813 0.186522 0.409913 -0.05681
C_ C_ 0.455857 0.180137 0.386119 -0.08735
C_ C_ 0.134971 0.280518 0.411159 0.68181
C_ C_ 0.145275 0.082953 0.397376 0.68181
C_ C_ 0.13453 0.0264684 0.394928 -0.05681
C_ C_ 0.131637 0.495842 0.418463 -0.08735
C_ C_ 0.129116 0.444752 0.418009 -0.05681
C_ C_ 0.12193 0.420323 0.389978 -0.05681
C_ C_ 0.11231 0.449656 0.36628 -0.08735
C_ C_ 0.112648 0.499882 0.367431 -0.08735
C_ C_ 0.137064 0.413531 0.442273 -0.08735
C_ C_ 0.138345 0.360404 0.439236 -0.08735
C_ C_ 0.13344 0.337161 0.412177 -0.05681
C_ C_ 0.128379 0.366913 0.386971 -0.08735
C_ C_ 0.0411196 0.185137 0.408755 0.68181
C_ C_ 0.112388 0.128838 0.480979 0.1947
C_ C_ 0.105176 0.101 0.00749553 -0.08735
C_ C_ 0.117057 0.130439 0.0306936 -0.08735
C_ C_ 0.137065 0.181362 0.0283235 -0.05681
C_ C_ 0.147101 0.198289 0.999867 0.18498
C_ C_ 0.202069 0.232863 0.491785 -0.08735
C_ C_ 0.185077 0.273957 0.0206222 -0.08735
C_ C_ 0.181413 0.255 0.0478789 -0.08735
C_ C_ 0.155346 0.209049 0.0525499 0.18498
C_ C_ 0.189228 0.183373 0.0986409 0.44287
C_ C_ 0.0998219 0.1905 0.0922507 0.44287
C_ C_ 0.091963 0.184775 0.122428 -0.05681
C_ C_ 0.0430081 0.18874 0.134492 -0.08735
C_ C_ 0.0361005 0.182676 0.163839 -0.08735
C_ C_ 0.0796566 0.182237 0.182012 -0.05681
C_ C_ 0.128893 0.181897 0.170553 -0.05681
C_ C_ 0.133474 0.181724 0.140666 -0.05681
C_ C_ 0.182083 0.177437 0.128356 -0.05681
C_ C_ 0.223794 0.174598 0.14657 -0.08735
C_ C_ 0.218976 0.16933 0.176523 -0.08735
C_ C_ 0.170442 0.175453 0.188731 -0.05681
C_ C_ 0.162215 0.172266 0.218992 0.44287
C_ C_ 0.0750538 0.185234 0.211283 0.44287
C_ C_ 0.103188 0.160557 0.258385 0.18498
C_ C_ 0.0682587 0.120734 0.264739 -0.08735
C_ C_ 0.0557768 0.107994 0.292654 -0.08735
C_ C_ 0.0777353 0.133809 0.316209 -0.08735
C_ C_ 0.112905 0.172025 0.311622 0.18498
C_ C_ 0.125168 0.187886 0.282175 -0.05681
C_ C_ 0.154785 0.23099 0.279227 -0.08735
C_ C_ 0.181038 0.252025 0.301547 -0.08735
C_ C_ 0.171572 0.233071 0.328827 0.1947
C_ C_ 0.264448 0.315956 0.157538 0.68181
C_ C_ 0.209808 0.316417 0.152231 -0.05681
C_ C_ 0.174657 0.308898 0.173631 -0.08735
C_ C_ 0.122437 0.311206 0.168744 -0.05681
C_ C_ 0.104963 0.318831 0.141262 -0.05681
C_ C_ 0.139418 0.323603 0.117997 -0.08735
C_ C_ 0.190648 0.325515 0.124187 -0.08735
C_ C_ 0.0899115 0.311128 0.192128 -0.08735
C_ C_ 0.0372877 0.308988 0.188053 -0.08735
C_ C_ 0.0179444 0.314533 0.159772 -0.05681
C_ C_ 0.0523702 0.321619 0.136656 -0.08735
C_ C_ 0.363483 0.212203 0.163689 0.68181
C_ C_ 0.366939 0.409564 0.15151 0.68181
C_ C_ 0.379093 0.465662 0.147942 -0.05681
C_ C_ 0.350563 -0.006584000000000034 0.171894 -0.08735
C_ C_ 0.352249 0.046982 0.17019 -0.05681
C_ C_ 0.359621 0.0712858 0.143726 -0.05681
C_ C_ 0.358115 0.0408325 0.119037 -0.08735
C_ C_ 0.369606 0.489751 0.121046 -0.08735
C_ C_ 0.34292 0.0784972 0.194826 -0.08735
C_ C_ 0.352669 0.129433 0.193604 -0.08735
C_ C_ 0.360902 0.154456 0.16666 -0.05681
C_ C_ 0.364089 0.12437 0.142586 -0.08735
C_ C_ 0.45938 0.302847 0.15633 0.68181
C_ C_ 0.408781 0.361646 0.234896 0.1947
C_ C_ 0.414584 0.378907 0.262283 -0.08735
C_ C_ 0.385202 0.356907 0.284042 -0.08735
C_ C_ 0.354049 0.316249 0.278515 -0.05681
C_ C_ 0.344519 0.304351 0.249344 0.18498
C_ C_ 0.314201 0.262211 0.244379 -0.08735
C_ C_ 0.300376 0.22969 0.267976 -0.08735
C_ C_ 0.31152 0.242435 0.296205 -0.08735
C_ C_ 0.333844 0.289688 0.3026 0.18498
C_ C_ 0.305253 0.317194 0.348848 0.44287
C_ C_ 0.391162 0.292303 0.343606 0.44287
C_ C_ 0.401598 0.305137 0.372432 -0.05681
C_ C_ 0.450288 0.301874 0.384795 -0.08735
C_ C_ 0.458074 0.309741 0.413515 -0.08735
C_ C_ 0.417855 0.317797 0.432645 -0.05681
C_ C_ 0.368972 0.325071 0.420636 -0.05681
C_ C_ 0.35948 0.319326 0.391324 -0.05681
C_ C_ 0.311953 0.324671 0.379406 -0.05681
C_ C_ 0.271222 0.340138 0.397607 -0.08735
C_ C_ 0.284095 0.355911 0.426216 -0.08735
C_ C_ 0.329779 0.34201 0.438338 -0.05681
C_ C_ 0.342907 0.352746 0.467562 0.44287
C_ C_ 0.426244 0.323213 0.461879 0.44287
C_ C_ 0.39539 0.34278 0.0116789 0.18498
C_ C_ 0.416898 0.389986 0.0205434 -0.08735
C_ C_ 0.422858 0.401946 0.0490245 -0.08735
C_ C_ 0.411683 0.36743 0.070654 -0.08735
C_ C_ 0.386374 0.323722 0.0640469 0.18498
C_ C_ 0.375502 0.311163 0.0343694 -0.05681
C_ C_ 0.346546 0.26698 0.0285561 -0.08735
C_ C_ 0.32928 0.237482 0.0506198 -0.08735
C_ C_ 0.334431 0.254737 0.0784772 0.1947
N_ N_ 0.143742 0.167937 0.476123 -0.29468
N_ N_ 0.147553 0.193304 0.0815368 -0.17154
N_ N_ 0.114234 0.17545 0.229454 -0.17154
N_ N_ 0.13467 0.196823 0.334211 -0.29468
N_ N_ 0.369739 0.328899 0.228382 -0.29468
N_ N_ 0.344161 0.301617 0.332254 -0.17154
N_ N_ 0.387286 0.336469 0.479521 -0.17154
N_ N_ 0.36479 0.295636 0.0844791 -0.29468
O_ O_ 0.224116 0.184978 0.429033 -0.58347
O_ O_ 0.207625 0.181911 0.382142 -0.58347
O_ O_ 0.140201 0.253151 0.433362 -0.58347
O_ O_ 0.130604 0.259234 0.387497 -0.58347
O_ O_ 0.157011 0.103183 0.421911 -0.58347
O_ O_ 0.132059 0.11214 0.376365 -0.58347
O_ O_ 0.0709281 0.171687 0.428335 -0.58347
O_ O_ 0.0584168 0.187544 0.383195 -0.58347
O_ O_ 0.0610944 0.204808 0.0758838 -0.46727
O_ O_ 0.235853 0.192446 0.0882306 -0.46727
O_ O_ 0.0319819 0.199979 0.222035 -0.46727
O_ O_ 0.199409 0.159505 0.235633 -0.46727
O_ O_ 0.28265 0.327657 0.180942 -0.58347
O_ O_ 0.290889 0.294772 0.137906 -0.58347
O_ O_ 0.353053 0.239592 0.184799 -0.58347
O_ O_ 0.375232 0.231531 0.139676 -0.58347
O_ O_ 0.368121 0.391106 0.176941 -0.58347
O_ O_ 0.357509 0.380794 0.130191 -0.58347
O_ O_ 0.430876 0.306163 0.177899 -0.58347
O_ O_ 0.438427 0.311462 0.132213 -0.58347
O_ O_ 0.429107 0.27955 0.32667 -0.46727
O_ O_ 0.259135 0.325415 0.337153 -0.46727
O_ O_ 0.472713 0.314965 0.472381 -0.46727
O_ O_ 0.30562 0.367067 0.485409 -0.46727
Zn Zn 0.129264 0.182785 0.881057 0.90689
Zn Zn 0.144971 0.18153 0.928017 0.90689
Zn Zn 0.381357 0.318062 0.632358 0.90689
Zn Zn 0.36959 0.32497 0.680043 0.90689
H_ H_ 0.30513 0.217441 0.941501 0.11455
H_ H_ 0.380985 0.174859 0.847918 0.11455
H_ H_ 0.283454 0.182391 0.853593 0.11455
H_ H_ 0.393189 0.21561 0.962831 0.11455
H_ H_ 0.482385 0.19993 0.95983 0.11455
H_ H_ 0.464698 0.167565 0.870509 0.11455
H_ H_ 0.130832 0.0179998 0.93796 0.11455
H_ H_ 0.142261 0.434107 0.846191 0.11455
H_ H_ 0.171938 0.0289028 0.849344 0.11455
H_ H_ 0.0991736 0.433203 0.961659 0.11455
H_ H_ 0.114321 0.340766 0.960094 0.11455
H_ H_ 0.134887 0.352117 0.868947 0.11455
H_ H_ 0.0981909 0.101362 0.96075 0.11455
H_ H_ 0.0909188 0.0760228 0.51323 0.11455
H_ H_ 0.120113 0.1241 0.553361 0.11455
H_ H_ 0.185878 0.254303 0.975472 0.11455
H_ H_ 0.233257 0.302726 0.505958 0.11455
H_ H_ 0.206792 0.29333 0.555898 0.11455
H_ H_ 0.0288357 0.23275 0.619752 0.11455
H_ H_ 0.0106242 0.207879 0.669357 0.11455
H_ H_ 0.278846 0.17563 0.638146 0.11455
H_ H_ 0.263978 0.171779 0.690819 0.11455
H_ H_ 0.0620552 0.0984765 0.745208 0.11455
H_ H_ 0.0477668 0.0735798 0.793416 0.11455
H_ H_ 0.082026 0.11684 0.834236 0.11455
H_ H_ 0.143704 0.258438 0.755596 0.11455
H_ H_ 0.179625 0.303637 0.798776 0.11455
H_ H_ 0.177895 0.262874 0.844862 0.11455
H_ H_ 0.200698 0.319338 0.694175 0.11455
H_ H_ 0.138495 0.331216 0.593383 0.11455
H_ H_ 0.231891 0.336735 0.603362 0.11455
H_ H_ 0.1144 0.318755 0.710734 0.11455
H_ H_ 0.0226228 0.324698 0.705224 0.11455
H_ H_ 0.0471918 0.344105 0.612209 0.11455
H_ H_ 0.384012 0.48708 0.694053 0.11455
H_ H_ 0.390076 0.0636897 0.594946 0.11455
H_ H_ 0.334801 0.470929 0.608609 0.11455
H_ H_ 0.350435 0.0661628 0.710505 0.11455
H_ H_ 0.358067 0.163327 0.707052 0.11455
H_ H_ 0.401023 0.146023 0.619761 0.11455
H_ H_ 0.422512 0.388933 0.716334 0.11455
H_ H_ 0.433595 0.423028 0.764696 0.11455
H_ H_ 0.394313 0.380585 0.80482 0.11455
H_ H_ 0.316308 0.257029 0.722141 0.11455
H_ H_ 0.262055 0.216933 0.763663 0.11455
H_ H_ 0.279127 0.240883 0.814541 0.11455
H_ H_ 0.47775 0.298541 0.870121 0.11455
H_ H_ 0.495284 0.3056 0.920299 0.11455
H_ H_ 0.228237 0.334125 0.892666 0.11455
H_ H_ 0.245914 0.339119 0.94428 0.11455
H_ H_ 0.425412 0.420654 0.00590945 0.11455
H_ H_ 0.448926 0.445469 0.550928 0.11455
H_ H_ 0.428785 0.382121 0.589402 0.11455
H_ H_ 0.347639 0.260768 0.50484 0.11455
H_ H_ 0.310835 0.211431 0.546165 0.11455
H_ H_ 0.333503 0.235863 0.596547 0.11455
C_ C_ 0.23473 0.197269 0.903429 0.68181
C_ C_ 0.291365 0.196953 0.898878 -0.05681
C_ C_ 0.322215 0.201088 0.923261 -0.08735
C_ C_ 0.373997 0.19616 0.919837 -0.05681
C_ C_ 0.395534 0.185362 0.893606 -0.05681
C_ C_ 0.364672 0.181773 0.86859 -0.08735
C_ C_ 0.30993 0.186746 0.871523 -0.08735
C_ C_ 0.407245 0.20178 0.943093 -0.08735
C_ C_ 0.459708 0.192468 0.940751 -0.08735
C_ C_ 0.480999 0.182629 0.914066 -0.05681
C_ C_ 0.448053 0.180725 0.890113 -0.08735
C_ C_ 0.129939 0.284023 0.91138 0.68181
C_ C_ 0.142598 0.086024 0.895132 0.68181
C_ C_ 0.152786 0.0306864 0.893642 -0.05681
C_ C_ 0.123794 0.49887 0.921717 -0.08735
C_ C_ 0.12237 0.44639 0.919148 -0.05681
C_ C_ 0.131411 0.42267 0.891948 -0.05681
C_ C_ 0.142025 0.451876 0.867091 -0.08735
C_ C_ 0.142103 0.505091 0.869914 -0.08735
C_ C_ 0.104847 0.415167 0.941882 -0.08735
C_ C_ 0.114888 0.362963 0.94088 -0.08735
C_ C_ 0.126566 0.34012 0.91379 -0.05681
C_ C_ 0.134654 0.370814 0.890188 -0.08735
C_ C_ 0.037749 0.181396 0.905453 0.68181
C_ C_ 0.110009 0.121713 0.980239 0.1947
C_ C_ 0.104575 0.114055 0.508994 -0.08735
C_ C_ 0.124728 0.141117 0.532742 -0.08735
C_ C_ 0.154465 0.18304 0.527789 -0.05681
C_ C_ 0.166376 0.195302 0.498555 0.18498
C_ C_ 0.170556 0.245497 0.996632 -0.08735
C_ C_ 0.21342 0.268937 0.512388 -0.08735
C_ C_ 0.200766 0.261439 0.540811 -0.08735
C_ C_ 0.173507 0.215993 0.548966 0.18498
C_ C_ 0.204216 0.196296 0.598193 0.44287
C_ C_ 0.116754 0.21578 0.592358 0.44287
C_ C_ 0.107809 0.21045 0.621858 -0.05681
C_ C_ 0.0586985 0.217219 0.633482 -0.08735
C_ C_ 0.0485358 0.206662 0.661678 -0.08735
C_ C_ 0.0903847 0.197059 0.68011 -0.05681
C_ C_ 0.140022 0.189468 0.668829 -0.05681
C_ C_ 0.149554 0.199642 0.640061 -0.05681
C_ C_ 0.197517 0.191079 0.627537 -0.05681
C_ C_ 0.238754 0.180434 0.645729 -0.08735
C_ C_ 0.229803 0.176509 0.67532 -0.08735
C_ C_ 0.18066 0.178477 0.686606 -0.05681
C_ C_ 0.170452 0.171703 0.715978 0.44287
C_ C_ 0.0824725 0.189859 0.708862 0.44287
C_ C_ 0.110271 0.162227 0.755246 0.18498
C_ C_ 0.0830485 0.118141 0.761282 -0.08735
C_ C_ 0.0693157 0.106385 0.789854 -0.08735
C_ C_ 0.0904844 0.129794 0.812426 -0.08735
C_ C_ 0.118418 0.174173 0.809297 0.18498
C_ C_ 0.12789 0.191354 0.779596 -0.05681
C_ C_ 0.145019 0.24167 0.776311 -0.08735
C_ C_ 0.158488 0.268873 0.80097 -0.08735
C_ C_ 0.155602 0.24713 0.828293 0.1947
C_ C_ 0.277158 0.322496 0.654752 0.68181
C_ C_ 0.221976 0.328302 0.648993 -0.05681
C_ C_ 0.186272 0.327551 0.672083 -0.08735
C_ C_ 0.134123 0.328727 0.666822 -0.05681
C_ C_ 0.115911 0.331731 0.638453 -0.05681
C_ C_ 0.151555 0.333617 0.615282 -0.08735
C_ C_ 0.203524 0.333982 0.620692 -0.08735
C_ C_ 0.0994507 0.320876 0.689545 -0.08735
C_ C_ 0.0476811 0.328927 0.686419 -0.08735
C_ C_ 0.0291804 0.33509 0.658965 -0.05681
C_ C_ 0.0632478 0.338316 0.634385 -0.08735
C_ C_ 0.37914 0.220171 0.660661 0.68181
C_ C_ 0.371997 0.417846 0.651281 0.68181
C_ C_ 0.375149 0.4734 0.649189 -0.05681
C_ C_ 0.378231 0.003216 0.671338 -0.08735
C_ C_ 0.379702 0.0564581 0.668156 -0.05681
C_ C_ 0.381783 0.0799565 0.6403 -0.05681
C_ C_ 0.386569 0.047156 0.617109 -0.08735
C_ C_ 0.354793 0.494822 0.623797 -0.08735
C_ C_ 0.365782 0.0871265 0.692065 -0.08735
C_ C_ 0.360412 0.140151 0.688341 -0.08735
C_ C_ 0.370283 0.163766 0.661651 -0.05681
C_ C_ 0.383766 0.132421 0.63772 -0.08735
C_ C_ 0.475283 0.324665 0.658329 0.68181
C_ C_ 0.397431 0.376617 0.732342 0.1947
C_ C_ 0.408964 0.392028 0.760454 -0.08735
C_ C_ 0.387846 0.368129 0.783489 -0.08735
C_ C_ 0.357319 0.325804 0.779499 -0.05681
C_ C_ 0.348841 0.307429 0.750759 0.18498
C_ C_ 0.320293 0.264524 0.745465 -0.08735
C_ C_ 0.291367 0.244204 0.768597 -0.08735
C_ C_ 0.298585 0.260923 0.796225 -0.08735
C_ C_ 0.330815 0.302729 0.80246 0.18498
C_ C_ 0.298408 0.319624 0.851683 0.44287
C_ C_ 0.386673 0.30633 0.843496 0.44287
C_ C_ 0.397689 0.316101 0.872504 -0.05681
C_ C_ 0.449382 0.314618 0.882973 -0.08735
C_ C_ 0.458383 0.31746 0.91281 -0.08735
C_ C_ 0.417457 0.320207 0.932332 -0.05681
C_ C_ 0.368527 0.323536 0.922664 -0.05681
C_ C_ 0.358099 0.320443 0.892823 -0.05681
C_ C_ 0.307434 0.320153 0.882128 -0.05681
C_ C_ 0.267657 0.328907 0.901509 -0.08735
C_ C_ 0.276872 0.330763 0.930823 -0.08735
C_ C_ 0.326141 0.330523 0.942425 -0.05681
C_ C_ 0.336985 0.335509 0.972301 0.44287
C_ C_ 0.425551 0.328593 0.961918 0.44287
C_ C_ 0.399335 0.348625 0.509402 0.18498
C_ C_ 0.418393 0.396841 0.51619 -0.08735
C_ C_ 0.430233 0.408104 0.545224 -0.08735
C_ C_ 0.416679 0.375417 0.566979 -0.08735
C_ C_ 0.391007 0.331762 0.561213 0.18498
C_ C_ 0.381977 0.318642 0.532435 -0.05681
C_ C_ 0.352398 0.273896 0.52689 -0.08735
C_ C_ 0.333995 0.244189 0.549681 -0.08735
C_ C_ 0.343062 0.259945 0.577657 0.1947
N_ N_ 0.135935 0.168395 0.976802 -0.29468
N_ N_ 0.163775 0.208487 0.580271 -0.17154
N_ N_ 0.121882 0.174855 0.726314 -0.17154
N_ N_ 0.134863 0.20151 0.832544 -0.29468
N_ N_ 0.369057 0.334994 0.728292 -0.29468
N_ N_ 0.338728 0.315211 0.833093 -0.17154
N_ N_ 0.386807 0.334212 0.980844 -0.17154
N_ N_ 0.370763 0.3031 0.583027 -0.29468
O_ O_ 0.216661 0.186518 0.926899 -0.58347
O_ O_ 0.205367 0.194701 0.881519 -0.58347
O_ O_ 0.140726 0.256932 0.933326 -0.58347
O_ O_ 0.12226 0.260989 0.888107 -0.58347
O_ O_ 0.145921 0.105766 0.919565 -0.58347
O_ O_ 0.139302 0.112529 0.872311 -0.58347
O_ O_ 0.0681237 0.177343 0.926977 -0.58347
O_ O_ 0.0551706 0.177715 0.880045 -0.58347
O_ O_ 0.0774375 0.220844 0.57533 -0.46727
O_ O_ 0.244987 0.18113 0.585631 -0.46727
O_ O_ 0.0388193 0.202292 0.720246 -0.46727
O_ O_ 0.205442 0.158339 0.734135 -0.46727
O_ O_ 0.293361 0.327396 0.680541 -0.58347
O_ O_ 0.306688 0.306876 0.635428 -0.58347
O_ O_ 0.368867 0.249404 0.682348 -0.58347
O_ O_ 0.392917 0.241815 0.638202 -0.58347
O_ O_ 0.365434 0.396335 0.675401 -0.58347
O_ O_ 0.37271 0.391945 0.628557 -0.58347
O_ O_ 0.446492 0.324691 0.679779 -0.58347
O_ O_ 0.457025 0.325388 0.632674 -0.58347
O_ O_ 0.421643 0.288522 0.826415 -0.46727
O_ O_ 0.252228 0.321889 0.840223 -0.46727
O_ O_ 0.472944 0.327372 0.971263 -0.46727
O_ O_ 0.301366 0.351112 0.989706 -0.46727
Zn Zn 0.117322 0.685356 0.38115 0.90689
Zn Zn 0.128563 0.676745 0.42846 0.90689
Zn Zn 0.363778 0.807629 0.132606 0.90689
Zn Zn 0.353009 0.814722 0.182264 0.90689
H_ H_ 0.297942 0.694077 0.447014 0.11455
H_ H_ 0.366912 0.671296 0.347856 0.11455
H_ H_ 0.271535 0.672642 0.357534 0.11455
H_ H_ 0.386864 0.708088 0.464454 0.11455
H_ H_ 0.477975 0.705087 0.453229 0.11455
H_ H_ 0.450008 0.661542 0.367346 0.11455
H_ H_ 0.138478 0.514722 0.438616 0.11455
H_ H_ 0.124244 0.934607 0.346882 0.11455
H_ H_ 0.108497 0.519181 0.346 0.11455
H_ H_ 0.125008 0.929831 0.465272 0.11455
H_ H_ 0.13347 0.838398 0.46136 0.11455
H_ H_ 0.130777 0.847235 0.368887 0.11455
H_ H_ 0.0679962 0.607094 0.464302 0.11455
H_ H_ 0.062804 0.578701 0.0134554 0.11455
H_ H_ 0.096274 0.628732 0.0540702 0.11455
H_ H_ 0.191187 0.734111 0.47281 0.11455
H_ H_ 0.223701 0.800463 0.0137854 0.11455
H_ H_ 0.210165 0.776219 0.0605581 0.11455
H_ H_ 0.0064311 0.693468 0.12148 0.11455
H_ H_ -0.00446645 0.695241 0.172198 0.11455
H_ H_ 0.257439 0.663398 0.139274 0.11455
H_ H_ 0.24744 0.662407 0.190784 0.11455
H_ H_ 0.0539835 0.600851 0.250396 0.11455
H_ H_ 0.0232813 0.588561 0.298714 0.11455
H_ H_ 0.0600109 0.630185 0.339605 0.11455
H_ H_ 0.16033 0.745815 0.256311 0.11455
H_ H_ 0.191224 0.794238 0.296349 0.11455
H_ H_ 0.177348 0.768136 0.344936 0.11455
H_ H_ 0.180595 0.792768 0.197352 0.11455
H_ H_ 0.122187 0.848052 0.099684 0.11455
H_ H_ 0.212071 0.844123 0.112991 0.11455
H_ H_ 0.0973156 0.815487 0.213499 0.11455
H_ H_ 0.00730278 0.831984 0.208087 0.11455
H_ H_ 0.0334046 0.835715 0.11716 0.11455
H_ H_ 0.348474 0.975613 0.192834 0.11455
H_ H_ 0.343347 0.558175 0.1015 0.11455
H_ H_ 0.353665 0.963939 0.101146 0.11455
H_ H_ 0.409888 0.564595 0.21586 0.11455
H_ H_ 0.408361 0.657515 0.210097 0.11455
H_ H_ 0.342389 0.641554 0.127771 0.11455
H_ H_ 0.416733 0.896087 0.214721 0.11455
H_ H_ 0.431868 0.926659 0.265333 0.11455
H_ H_ 0.400836 0.876853 0.305252 0.11455
H_ H_ 0.295228 0.770052 0.223125 0.11455
H_ H_ 0.264498 0.709962 0.262056 0.11455
H_ H_ 0.302606 0.716189 0.310242 0.11455
H_ H_ 0.483914 0.823236 0.37239 0.11455
H_ H_ 0.494493 0.820404 0.425062 0.11455
H_ H_ 0.230325 0.813729 0.390678 0.11455
H_ H_ 0.241011 0.823647 0.441847 0.11455
H_ H_ 0.442991 0.905354 0.498692 0.11455
H_ H_ 0.439921 0.933323 0.0502933 0.11455
H_ H_ 0.417663 0.87115 0.088063 0.11455
H_ H_ 0.341062 0.748397 0.00377053 0.11455
H_ H_ 0.293649 0.710418 0.0429565 0.11455
H_ H_ 0.309608 0.730205 0.0923939 0.11455
C_ C_ 0.223999 0.676764 0.405209 0.68181
C_ C_ 0.280167 0.68077 0.401872 -0.05681
C_ C_ 0.313528 0.690104 0.425217 -0.08735
C_ C_ 0.366292 0.684715 0.420924 -0.05681
C_ C_ 0.385717 0.673128 0.392457 -0.05681
C_ C_ 0.351767 0.677095 0.369516 -0.08735
C_ C_ 0.298934 0.674346 0.374601 -0.08735
C_ C_ 0.399472 0.689726 0.443892 -0.08735
C_ C_ 0.451652 0.688287 0.438292 -0.08735
C_ C_ 0.470592 0.679199 0.41069 -0.05681
C_ C_ 0.436179 0.669891 0.388464 -0.08735
C_ C_ 0.121803 0.778201 0.413041 0.68181
C_ C_ 0.120538 0.58306 0.39686 0.68181
C_ C_ 0.12372 0.524263 0.394198 -0.05681
C_ C_ 0.133058 0.996486 0.420816 -0.08735
C_ C_ 0.128042 0.943738 0.418943 -0.05681
C_ C_ 0.131096 0.91923 0.39189 -0.05681
C_ C_ 0.131892 0.949724 0.367659 -0.08735
C_ C_ 0.13568 1.00182862 0.368265 -0.08735
C_ C_ 0.132081 0.913977 0.444017 -0.08735
C_ C_ 0.129602 0.861546 0.441942 -0.08735
C_ C_ 0.12712 0.835726 0.414631 -0.05681
C_ C_ 0.127246 0.865657 0.390065 -0.08735
C_ C_ 0.0247109 0.684714 0.406135 0.68181
C_ C_ 0.0923005 0.619646 0.481346 0.1947
C_ C_ 0.0869221 0.612129 0.010509 -0.08735
C_ C_ 0.105167 0.639985 0.0330079 -0.08735
C_ C_ 0.135631 0.683486 0.0288398 -0.05681
C_ C_ 0.148187 0.697222 1.000255384 0.18498
C_ C_ 0.18159 0.720717 0.493526 -0.08735
C_ C_ 0.197956 0.767774 0.0165159 -0.08735
C_ C_ 0.188232 0.755013 0.0451496 -0.08735
C_ C_ 0.156164 0.713028 0.0527204 0.18498
C_ C_ 0.187222 0.685506 0.099103 0.44287
C_ C_ 0.0998803 0.700024 0.092841 0.44287
C_ C_ 0.0905746 0.693675 0.122691 -0.05681
C_ C_ 0.0410817 0.697751 0.134451 -0.08735
C_ C_ 0.0339695 0.693032 0.163537 -0.08735
C_ C_ 0.0763058 0.692988 0.1833 -0.05681
C_ C_ 0.125115 0.687138 0.171298 -0.05681
C_ C_ 0.132065 0.685579 0.140901 -0.05681
C_ C_ 0.182089 0.682159 0.129027 -0.05681
C_ C_ 0.222932 0.677182 0.147429 -0.08735
C_ C_ 0.216089 0.674538 0.177497 -0.08735
C_ C_ 0.166853 0.678015 0.188865 -0.05681
C_ C_ 0.156254 0.66991 0.218144 0.44287
C_ C_ 0.0708456 0.693722 0.213835 0.44287
C_ C_ 0.096589 0.668133 0.260028 0.18498
C_ C_ 0.0666568 0.624736 0.266581 -0.08735
C_ C_ 0.0539444 0.612819 0.295591 -0.08735
C_ C_ 0.0711052 0.642331 0.317605 -0.08735
C_ C_ 0.101332 0.68418 0.312586 0.18498
C_ C_ 0.112075 0.6981 0.28316 -0.05681
C_ C_ 0.148539 0.736613 0.277428 -0.08735
C_ C_ 0.170451 0.760354 0.300894 -0.08735
C_ C_ 0.160896 0.745173 0.328602 0.1947
C_ C_ 0.258431 0.808682 0.157184 0.68181
C_ C_ 0.202261 0.807755 0.152932 -0.05681
C_ C_ 0.166726 0.799531 0.175434 -0.08735
C_ C_ 0.116658 0.811451 0.170814 -0.05681
C_ C_ 0.0970099 0.823397 0.142988 -0.05681
C_ C_ 0.13226 0.831211 0.12068 -0.08735
C_ C_ 0.184774 0.827145 0.125999 -0.08735
C_ C_ 0.0832241 0.8123 0.193152 -0.08735
C_ C_ 0.0333684 0.828201 0.189617 -0.08735
C_ C_ 0.013001 0.833477 0.162199 -0.05681
C_ C_ 0.0475255 0.837053 0.139193 -0.08735
C_ C_ 0.368608 0.711615 0.166689 0.68181
C_ C_ 0.350337 0.906768 0.148718 0.68181
C_ C_ 0.354494 0.964451 0.146147 -0.05681
C_ C_ 0.389674 0.495164 0.172436 -0.08735
C_ C_ 0.386607 0.548062 0.171578 -0.05681
C_ C_ 0.368071 0.569715 0.145786 -0.05681
C_ C_ 0.356936 0.540682 0.120955 -0.08735
C_ C_ 0.358962 -0.01116499999999998 0.119339 -0.08735
C_ C_ 0.401516 0.58024 0.194387 -0.08735
C_ C_ 0.395949 0.632366 0.192895 -0.08735
C_ C_ 0.371989 0.65462 0.168807 -0.05681
C_ C_ 0.358944 0.622401 0.145679 -0.08735
C_ C_ 0.456809 0.817288 0.15949 0.68181
C_ C_ 0.397894 0.876705 0.232983 0.1947
C_ C_ 0.407749 0.894463 0.261308 -0.08735
C_ C_ 0.385718 0.867616 0.284181 -0.08735
C_ C_ 0.352955 0.824823 0.279969 -0.05681
C_ C_ 0.342776 0.813416 0.251116 0.18498
C_ C_ 0.306415 0.777125 0.245267 -0.08735
C_ C_ 0.292187 0.740528 0.266366 -0.08735
C_ C_ 0.312144 0.745707 0.293412 -0.08735
C_ C_ 0.337569 0.790739 0.302143 0.18498
C_ C_ 0.305364 0.814345 0.350266 0.44287
C_ C_ 0.393686 0.797342 0.344942 0.44287
C_ C_ 0.402404 0.812322 0.374224 -0.05681
C_ C_ 0.450958 0.815701 0.386313 -0.08735
C_ C_ 0.457308 0.816444 0.415846 -0.08735
C_ C_ 0.414668 0.819407 0.434147 -0.05681
C_ C_ 0.36688 0.819044 0.422804 -0.05681
C_ C_ 0.361373 0.814792 0.392925 -0.05681
C_ C_ 0.312453 0.81087 0.381292 -0.05681
C_ C_ 0.269604 0.813066 0.399684 -0.08735
C_ C_ 0.275268 0.818852 0.428883 -0.08735
C_ C_ 0.324667 0.822346 0.441298 -0.05681
C_ C_ 0.333604 0.835352 0.470429 0.44287
C_ C_ 0.422149 0.822955 0.464023 0.44287
C_ C_ 0.398916 0.836359 0.00883506 0.18498
C_ C_ 0.413919 0.88459 0.0166457 -0.08735
C_ C_ 0.4244 0.894488 0.0445645 -0.08735
C_ C_ 0.418265 0.858041 0.066905 -0.08735
C_ C_ 0.387827 0.816547 0.0608593 0.18498
C_ C_ 0.38348 0.800579 0.0311017 -0.05681
C_ C_ 0.352876 0.757799 0.0249109 -0.08735
C_ C_ 0.326002 0.734423 0.0470906 -0.08735
C_ C_ 0.332952 0.750053 0.0757385 0.1947
N_ N_ 0.123916 0.658596 0.476499 -0.29468
N_ N_ 0.148053 0.698029 0.0815192 -0.17154
N_ N_ 0.109483 0.679419 0.230503 -0.17154
N_ N_ 0.126373 0.708461 0.334865 -0.29468
N_ N_ 0.365716 0.83621 0.228271 -0.29468
N_ N_ 0.345819 0.801657 0.33297 -0.17154
N_ N_ 0.381911 0.830418 0.481508 -0.17154
N_ N_ 0.363238 0.790743 0.0822077 -0.29468
O_ O_ 0.202997 0.671582 0.429352 -0.58347
O_ O_ 0.195223 0.690764 0.383977 -0.58347
O_ O_ 0.135543 0.751291 0.434041 -0.58347
O_ O_ 0.108447 0.757423 0.389629 -0.58347
O_ O_ 0.118611 0.603138 0.421034 -0.58347
O_ O_ 0.129324 0.610487 0.374895 -0.58347
O_ O_ 0.0526021 0.684457 0.428491 -0.58347
O_ O_ 0.0438338 0.678976 0.38216 -0.58347
O_ O_ 0.0627188 0.718489 0.0772472 -0.46727
O_ O_ 0.232744 0.675202 0.0880831 -0.46727
O_ O_ 0.0298422 0.712128 0.224776 -0.46727
O_ O_ 0.19446 0.659468 0.23632 -0.46727
O_ O_ 0.278455 0.81438 0.182599 -0.58347
O_ O_ 0.286712 0.802673 0.135335 -0.58347
O_ O_ 0.359174 0.738143 0.188427 -0.58347
O_ O_ 0.371179 0.733405 0.141727 -0.58347
O_ O_ 0.349025 0.887333 0.172602 -0.58347
O_ O_ 0.35323 0.879496 0.126245 -0.58347
O_ O_ 0.426865 0.821938 0.180551 -0.58347
O_ O_ 0.439017 0.817005 0.133698 -0.58347
O_ O_ 0.432365 0.781138 0.328398 -0.46727
O_ O_ 0.259187 0.822586 0.339427 -0.46727
O_ O_ 0.46583 0.80978 0.475508 -0.46727
O_ O_ 0.29619 0.853169 0.487458 -0.46727
Zn Zn 0.126506 0.687613 0.880329 0.90689
Zn Zn 0.133208 0.683026 0.928922 0.90689
Zn Zn 0.377484 0.815244 0.633324 0.90689
Zn Zn 0.363199 0.820902 0.681951 0.90689
H_ H_ 0.30712 0.695159 0.946256 0.11455
H_ H_ 0.37269 0.657291 0.849233 0.11455
H_ H_ 0.279971 0.671488 0.854082 0.11455
H_ H_ 0.392641 0.705605 0.963409 0.11455
H_ H_ 0.480587 0.669903 0.957613 0.11455
H_ H_ 0.466399 0.655809 0.869278 0.11455
H_ H_ 0.122392 0.518086 0.94251 0.11455
H_ H_ 0.171971 0.936737 0.846252 0.11455
H_ H_ 0.158304 0.5264 0.853751 0.11455
H_ H_ 0.123076 0.934427 0.962727 0.11455
H_ H_ 0.115232 0.843349 0.95829 0.11455
H_ H_ 0.152247 0.857687 0.86866 0.11455
H_ H_ 0.078635 0.610018 0.96389 0.11455
H_ H_ 0.0561989 0.575784 0.513897 0.11455
H_ H_ 0.109973 0.607042 0.554659 0.11455
H_ H_ 0.182941 0.748258 0.972768 0.11455
H_ H_ 0.214223 0.788196 0.512902 0.11455
H_ H_ 0.211345 0.752789 0.561411 0.11455
H_ H_ 1.0132618 0.703003 0.623917 0.11455
H_ H_ 1.00180181 0.685655 0.675546 0.11455
H_ H_ 0.262408 0.652121 0.636486 0.11455
H_ H_ 0.252632 0.649444 0.689228 0.11455
H_ H_ 0.0866985 0.578273 0.750882 0.11455
H_ H_ 0.0553114 0.558114 0.800262 0.11455
H_ H_ 0.0795838 0.617608 0.83919 0.11455
H_ H_ 0.138927 0.753938 0.753287 0.11455
H_ H_ 0.192674 0.79365 0.795911 0.11455
H_ H_ 0.186702 0.75865 0.842628 0.11455
H_ H_ 0.200998 0.816957 0.694318 0.11455
H_ H_ 0.128592 0.829063 0.595315 0.11455
H_ H_ 0.227995 0.827012 0.60147 0.11455
H_ H_ 0.118136 0.821914 0.714005 0.11455
H_ H_ 0.0256604 0.814592 0.708483 0.11455
H_ H_ 0.0446821 0.818915 0.615446 0.11455
H_ H_ 0.374326 0.987341 0.692187 0.11455
H_ H_ 0.325221 0.561961 0.604902 0.11455
H_ H_ 0.382026 0.973068 0.600261 0.11455
H_ H_ 0.401998 0.574498 0.715391 0.11455
H_ H_ 0.387319 0.665906 0.711033 0.11455
H_ H_ 0.363235 0.64886 0.620483 0.11455
H_ H_ 0.425704 0.88584 0.719056 0.11455
H_ H_ 0.425068 0.92182 0.766016 0.11455
H_ H_ 0.397399 0.868562 0.807221 0.11455
H_ H_ 0.305872 0.749976 0.72254 0.11455
H_ H_ 0.292924 0.684912 0.756576 0.11455
H_ H_ 0.309398 0.705271 0.808681 0.11455
H_ H_ 0.483656 0.767023 0.873779 0.11455
H_ H_ 0.50007 0.791649 0.923787 0.11455
H_ H_ 0.24458 0.852163 0.882413 0.11455
H_ H_ 0.255444 0.860061 0.936328 0.11455
H_ H_ 0.422358 0.915638 1.00025 0.11455
H_ H_ 0.461754 0.931366 0.548625 0.11455
H_ H_ 0.432407 0.878263 0.59015 0.11455
H_ H_ 0.338863 0.760336 0.509323 0.11455
H_ H_ 0.30076 0.712171 0.552342 0.11455
H_ H_ 0.321813 0.740425 0.59853 0.11455
C_ C_ 0.22985 0.686776 0.904927 0.68181
C_ C_ 0.286668 0.67797 0.901665 -0.05681
C_ C_ 0.320601 0.684749 0.925167 -0.08735
C_ C_ 0.372961 0.682307 0.920175 -0.05681
C_ C_ 0.392496 0.669459 0.893118 -0.05681
C_ C_ 0.357819 0.663613 0.87 -0.08735
C_ C_ 0.305031 0.668772 0.872882 -0.08735
C_ C_ 0.404537 0.684813 0.943485 -0.08735
C_ C_ 0.454329 0.669633 0.939756 -0.08735
C_ C_ 0.477432 0.66709 0.914205 -0.05681
C_ C_ 0.445938 0.663373 0.889888 -0.08735
C_ C_ 0.124934 0.787597 0.909414 0.68181
C_ C_ 0.14144 0.586109 0.900942 0.68181
C_ C_ 0.139681 0.52865 0.89735 -0.05681
C_ C_ 0.138201 0.999667 0.91753 -0.08735
C_ C_ 0.139537 0.947716 0.916366 -0.05681
C_ C_ 0.147603 0.926022 0.89052 -0.05681
C_ C_ 0.163778 0.953706 0.866545 -0.08735
C_ C_ 0.166042 0.00672152 0.868212 -0.08735
C_ C_ 0.133758 0.916262 0.941767 -0.08735
C_ C_ 0.132733 0.864114 0.939557 -0.08735
C_ C_ 0.128916 0.842305 0.912338 -0.05681
C_ C_ 0.141814 0.873848 0.888444 -0.08735
C_ C_ 0.0316665 0.673155 0.905308 0.68181
C_ C_ 0.0944761 0.630418 0.982919 0.1947
C_ C_ 0.0893815 0.598435 0.508411 -0.08735
C_ C_ 0.116538 0.618932 0.532355 -0.08735
C_ C_ 0.140153 0.664406 0.52747 -0.05681
C_ C_ 0.150716 0.679865 0.498605 0.18498
C_ C_ 0.178063 0.73795 0.994698 -0.08735
C_ C_ 0.19554 0.752259 0.515846 -0.08735
C_ C_ 0.190998 0.735455 0.544581 -0.08735
C_ C_ 0.158781 0.695962 0.551306 0.18498
C_ C_ 0.187305 0.66809 0.598494 0.44287
C_ C_ 0.101197 0.692482 0.592706 0.44287
C_ C_ 0.0935834 0.688594 0.623268 -0.05681
C_ C_ 0.045294 0.692044 0.636883 -0.08735
C_ C_ 0.0381283 0.685829 0.666312 -0.08735
C_ C_ 0.0820429 0.681159 0.683917 -0.05681
C_ C_ 0.130435 0.684802 0.67132 -0.05681
C_ C_ 0.13713 0.6839 0.641297 -0.05681
C_ C_ 0.185221 0.674862 0.628856 -0.05681
C_ C_ 0.225857 0.661794 0.646219 -0.08735
C_ C_ 0.219935 0.659557 0.676625 -0.08735
C_ C_ 0.172177 0.669705 0.688992 -0.05681
C_ C_ 0.163838 0.654346 0.717785 0.44287
C_ C_ 0.0773623 0.676991 0.713935 0.44287
C_ C_ 0.111155 0.652406 0.760602 0.18498
C_ C_ 0.0907265 0.605433 0.76829 -0.08735
C_ C_ 0.0747719 0.594015 0.796201 -0.08735
C_ C_ 0.0840964 0.629284 0.817244 -0.08735
C_ C_ 0.10706 0.675928 0.811294 0.18498
C_ C_ 0.113374 0.689683 0.782052 -0.05681
C_ C_ 0.139171 0.736982 0.77566 -0.08735
C_ C_ 0.167917 0.759328 0.797543 -0.08735
C_ C_ 0.164465 0.741134 0.826016 0.1947
C_ C_ 0.27388 0.821393 0.653609 0.68181
C_ C_ 0.21943 0.82407 0.64854 -0.05681
C_ C_ 0.185986 0.821777 0.671752 -0.08735
C_ C_ 0.134475 0.828747 0.668463 -0.05681
C_ C_ 0.113506 0.82511 0.640445 -0.05681
C_ C_ 0.145331 0.82569 0.616569 -0.08735
C_ C_ 0.199364 0.82378 0.61978 -0.08735
C_ C_ 0.10235 0.819631 0.69293 -0.08735
C_ C_ 0.050901 0.811916 0.688651 -0.08735
C_ C_ 0.0287866 0.815188 0.661216 -0.05681
C_ C_ 0.0617633 0.814442 0.63703 -0.08735
C_ C_ 0.375174 0.718893 0.663622 0.68181
C_ C_ 0.371508 0.915746 0.650078 0.68181
C_ C_ 0.379756 0.971748 0.646623 -0.05681
C_ C_ 0.380184 0.50473 0.673487 -0.08735
C_ C_ 0.382688 0.55813 0.670457 -0.05681
C_ C_ 0.369201 0.57973 0.644167 -0.05681
C_ C_ 0.351188 0.548791 0.621345 -0.08735
C_ C_ 0.381994 0.994881 0.619853 -0.08735
C_ C_ 0.39046 0.589673 0.694674 -0.08735
C_ C_ 0.386057 0.640902 0.693137 -0.08735
C_ C_ 0.376942 0.662512 0.66542 -0.05681
C_ C_ 0.372167 0.630911 0.640949 -0.08735
C_ C_ 0.468686 0.811851 0.66123 0.68181
C_ C_ 0.40099 0.870362 0.734673 0.1947
C_ C_ 0.405415 0.887275 0.762489 -0.08735
C_ C_ 0.38787 0.856163 0.785515 -0.08735
C_ C_ 0.359204 0.813478 0.77911 -0.05681
C_ C_ 0.347758 0.801334 0.74978 0.18498
C_ C_ 0.319268 0.758772 0.743361 -0.08735
C_ C_ 0.309231 0.720992 0.764614 -0.08735
C_ C_ 0.319459 0.733082 0.793838 -0.08735
C_ C_ 0.345079 0.777417 0.801327 0.18498
C_ C_ 0.312069 0.80622 0.848328 0.44287
C_ C_ 0.397833 0.780492 0.844857 0.44287
C_ C_ 0.408146 0.797169 0.872614 -0.05681
C_ C_ 0.454973 0.789822 0.884587 -0.08735
C_ C_ 0.462836 0.797802 0.914551 -0.08735
C_ C_ 0.421464 0.812365 0.931486 -0.05681
C_ C_ 0.373807 0.819298 0.919648 -0.05681
C_ C_ 0.365279 0.808045 0.88986 -0.05681
C_ C_ 0.317063 0.814049 0.877333 -0.05681
C_ C_ 0.28079 0.839608 0.893992 -0.08735
C_ C_ 0.287045 0.845914 0.923201 -0.08735
C_ C_ 0.333765 0.834939 0.936619 -0.05681
C_ C_ 0.341172 0.842297 0.965529 0.44287
C_ C_ 0.425802 0.811921 0.962283 0.44287
C_ C_ 0.394468 0.842422 0.511237 0.18498
C_ C_ 0.423165 0.886675 0.51674 -0.08735
C_ C_ 0.438358 0.898547 0.545148 -0.08735
C_ C_ 0.419818 0.868912 0.568029 -0.08735
C_ C_ 0.391277 0.825752 0.563584 0.18498
C_ C_ 0.38066 0.80937 0.534557 -0.05681
C_ C_ 0.345255 0.770164 0.531126 -0.08735
C_ C_ 0.327754 0.743352 0.553741 -0.08735
C_ C_ 0.339649 0.760969 0.581155 0.1947
N_ N_ 0.125344 0.671439 0.978525 -0.29468
N_ N_ 0.149089 0.681848 0.580998 -0.17154
N_ N_ 0.118102 0.663424 0.730129 -0.17154
N_ N_ 0.132115 0.701711 0.832562 -0.29468
N_ N_ 0.370335 0.828814 0.727954 -0.29468
N_ N_ 0.351986 0.788811 0.83196 -0.17154
N_ N_ 0.386257 0.828494 0.978715 -0.17154
N_ N_ 0.368491 0.802824 0.586216 -0.29468
O_ O_ 0.20989 0.693483 0.929036 -0.58347
O_ O_ 0.202175 0.68805 0.882735 -0.58347
O_ O_ 0.124191 0.759009 0.930722 -0.58347
O_ O_ 0.120032 0.766879 0.884726 -0.58347
O_ O_ 0.140241 0.606942 0.925906 -0.58347
O_ O_ 0.135968 0.613064 0.878429 -0.58347
O_ O_ 0.060717 0.673847 0.927428 -0.58347
O_ O_ 0.051193 0.680686 0.880797 -0.58347
O_ O_ 0.0637367 0.699845 0.574943 -0.46727
O_ O_ 0.231385 0.658738 0.58682 -0.46727
O_ O_ 0.032314 0.678574 0.726787 -0.46727
O_ O_ 0.204999 0.643106 0.733326 -0.46727
O_ O_ 0.291332 0.828692 0.678675 -0.58347
O_ O_ 0.302616 0.807946 0.63381 -0.58347
O_ O_ 0.359954 0.746528 0.68485 -0.58347
O_ O_ 0.383901 0.738573 0.639864 -0.58347
O_ O_ 0.366965 0.896806 0.675541 -0.58347
O_ O_ 0.37468 0.888047 0.627925 -0.58347
O_ O_ 0.437601 0.814101 0.682055 -0.58347
O_ O_ 0.453054 0.818755 0.635776 -0.58347
O_ O_ 0.436528 0.764142 0.828972 -0.46727
O_ O_ 0.266964 0.809532 0.83636 -0.46727
O_ O_ 0.46453 0.789543 0.974093 -0.46727
O_ O_ 0.307187 0.865668 0.981799 -0.46727
Zn Zn 0.631738 0.182717 0.38488 0.90689
Zn Zn 0.649341 0.181095 0.430819 0.90689
Zn Zn 0.866683 0.309799 0.13023 0.90689
Zn Zn 0.858505 0.320479 0.178135 0.90689
H_ H_ 0.817245 0.189055 0.449624 0.11455
H_ H_ 0.876355 0.177985 0.348473 0.11455
H_ H_ 0.787205 0.189917 0.356546 0.11455
H_ H_ 0.894906 0.179708 0.467294 0.11455
H_ H_ 0.990734 0.181378 0.458627 0.11455
H_ H_ 0.966615 0.172763 0.366721 0.11455
H_ H_ 0.643975 0.00962939 0.44561 0.11455
H_ H_ 0.642518 0.433798 0.344756 0.11455
H_ H_ 0.636212 0.0228009 0.353133 0.11455
H_ H_ 0.631715 0.434136 0.463647 0.11455
H_ H_ 0.632331 0.337614 0.459324 0.11455
H_ H_ 0.646031 0.352283 0.368249 0.11455
H_ H_ 0.581461 0.113491 0.466851 0.11455
H_ H_ 0.594127 0.0619656 0.0132911 0.11455
H_ H_ 0.625844 0.110308 0.0554744 0.11455
H_ H_ 0.704453 0.242183 0.474056 0.11455
H_ H_ 0.721261 0.300626 0.0155535 0.11455
H_ H_ 0.706024 0.276279 0.0655701 0.11455
H_ H_ 0.518609 0.183369 0.121589 0.11455
H_ H_ 0.50509 0.176674 0.172181 0.11455
H_ H_ 0.769084 0.188031 0.143295 0.11455
H_ H_ 0.758098 0.159357 0.193032 0.11455
H_ H_ 0.559176 0.0913539 0.251148 0.11455
H_ H_ 0.540161 0.068716 0.301474 0.11455
H_ H_ 0.583754 0.114082 0.341503 0.11455
H_ H_ 0.673873 0.234155 0.258235 0.11455
H_ H_ 0.706866 0.283397 0.299454 0.11455
H_ H_ 0.687207 0.251631 0.349334 0.11455
H_ H_ 0.688897 0.308495 0.195294 0.11455
H_ H_ 0.616525 0.317917 0.0942897 0.11455
H_ H_ 0.708139 0.318314 0.103199 0.11455
H_ H_ 0.60571 0.299006 0.213704 0.11455
H_ H_ 0.516216 0.293219 0.206703 0.11455
H_ H_ 0.534544 0.296695 0.115581 0.11455
H_ H_ 0.842666 0.480857 0.191198 0.11455
H_ H_ 0.827396 0.0642652 0.101861 0.11455
H_ H_ 0.844472 0.471185 0.0990106 0.11455
H_ H_ 0.896321 0.0706096 0.214387 0.11455
H_ H_ 0.909428 0.161717 0.20707 0.11455
H_ H_ 0.839885 0.146576 0.122514 0.11455
H_ H_ 0.902567 0.402916 0.211105 0.11455
H_ H_ 0.929046 0.429674 0.259168 0.11455
H_ H_ 0.891864 0.383196 0.301621 0.11455
H_ H_ 0.812535 0.254468 0.220064 0.11455
H_ H_ 0.796623 0.193102 0.258 0.11455
H_ H_ 0.801637 0.223056 0.307715 0.11455
H_ H_ 0.992987 0.284325 0.369489 0.11455
H_ H_ 0.004295 0.300415 0.419049 0.11455
H_ H_ 0.744321 0.348075 0.382823 0.11455
H_ H_ 0.755093 0.34589 0.434374 0.11455
H_ H_ 0.921966 0.408536 0.489537 0.11455
H_ H_ 0.955173 0.431953 0.0471123 0.11455
H_ H_ 0.921892 0.377478 0.0859306 0.11455
H_ H_ 0.83785 0.260733 0.000852269 0.11455
H_ H_ 0.806478 0.205607 0.0420407 0.11455
H_ H_ 0.824774 0.227075 0.0905455 0.11455
C_ C_ 0.739202 0.191497 0.409095 0.68181
C_ C_ 0.794843 0.187035 0.403462 -0.05681
C_ C_ 0.8291 0.184721 0.427692 -0.08735
C_ C_ 0.880744 0.18499 0.422711 -0.05681
C_ C_ 0.900664 0.184326 0.394461 -0.05681
C_ C_ 0.864523 0.18609 0.370471 -0.08735
C_ C_ 0.812849 0.19188 0.375557 -0.08735
C_ C_ 0.9132 0.184503 0.446485 -0.08735
C_ C_ 0.966361 0.178971 0.441012 -0.08735
C_ C_ 0.984477 0.178574 0.412333 -0.05681
C_ C_ 0.952797 0.179137 0.388087 -0.08735
C_ C_ 0.631522 0.283361 0.411352 0.68181
C_ C_ 0.647549 0.0834859 0.402821 0.68181
C_ C_ 0.648161 0.0276609 0.399632 -0.05681
C_ C_ 0.630965 0.499139 0.41865 -0.08735
C_ C_ 0.630919 0.446039 0.41701 -0.05681
C_ C_ 0.637056 0.422113 0.390945 -0.05681
C_ C_ 0.647631 0.450404 0.366772 -0.08735
C_ C_ 0.646967 0.503945 0.368765 -0.08735
C_ C_ 0.627479 0.415976 0.442023 -0.08735
C_ C_ 0.630511 0.361431 0.440438 -0.08735
C_ C_ 0.628416 0.338953 0.41353 -0.05681
C_ C_ 0.633174 0.368863 0.388337 -0.08735
C_ C_ 0.544333 0.185613 0.406129 0.68181
C_ C_ 0.600158 0.133893 0.484398 0.1947
C_ C_ 0.608767 0.100593 0.0107284 -0.08735
C_ C_ 0.627943 0.127672 0.0347886 -0.08735
C_ C_ 0.652672 0.174394 0.0304809 -0.05681
C_ C_ 0.659331 0.191182 1.000810698 0.18498
C_ C_ 0.692129 0.236382 0.495255 -0.08735
C_ C_ 0.705716 0.264777 0.0201366 -0.08735
C_ C_ 0.694681 0.251367 0.0480623 -0.08735
C_ C_ 0.667243 0.206366 0.0537654 0.18498
C_ C_ 0.698673 0.18207 0.100951 0.44287
C_ C_ 0.609619 0.187766 0.0938622 0.44287
C_ C_ 0.60139 0.179848 0.123075 -0.05681
C_ C_ 0.551973 0.17827 0.135406 -0.08735
C_ C_ 0.545415 0.177016 0.164746 -0.08735
C_ C_ 0.586299 0.171538 0.184059 -0.05681
C_ C_ 0.636368 0.168154 0.172977 -0.05681
C_ C_ 0.642264 0.17336 0.14212 -0.05681
C_ C_ 0.691377 0.176835 0.131141 -0.05681
C_ C_ 0.733273 0.172578 0.149549 -0.08735
C_ C_ 0.726216 0.162746 0.178076 -0.08735
C_ C_ 0.678335 0.161048 0.190688 -0.05681
C_ C_ 0.670856 0.155664 0.219614 0.44287
C_ C_ 0.581436 0.171125 0.213813 0.44287
C_ C_ 0.611595 0.149624 0.261641 0.18498
C_ C_ 0.579779 0.109793 0.268499 -0.08735
C_ C_ 0.572356 0.0933809 0.297429 -0.08735
C_ C_ 0.595023 0.120732 0.319555 -0.08735
C_ C_ 0.627936 0.161752 0.313698 0.18498
C_ C_ 0.63918 0.173739 0.284523 -0.05681
C_ C_ 0.669667 0.218438 0.279639 -0.08735
C_ C_ 0.68713 0.247177 0.303438 -0.08735
C_ C_ 0.676272 0.229099 0.331137 0.1947
C_ C_ 0.764152 0.310507 0.151103 0.68181
C_ C_ 0.70605 0.311738 0.148532 -0.05681
C_ C_ 0.673793 0.309734 0.172338 -0.08735
C_ C_ 0.622163 0.309251 0.169411 -0.05681
C_ C_ 0.600893 0.309397 0.141533 -0.05681
C_ C_ 0.632705 0.312772 0.116616 -0.08735
C_ C_ 0.683177 0.316116 0.121012 -0.08735
C_ C_ 0.590124 0.302985 0.192589 -0.08735
C_ C_ 0.538132 0.290657 0.187491 -0.08735
C_ C_ 0.515665 0.301493 0.16047 -0.05681
C_ C_ 0.548919 0.304318 0.137494 -0.08735
C_ C_ 0.873906 0.217652 0.160554 0.68181
C_ C_ 0.853705 0.41333 0.148078 0.68181
C_ C_ 0.853877 0.469411 0.145741 -0.05681
C_ C_ 0.867602 0.0026137 0.175396 -0.08735
C_ C_ 0.86789 0.0553284 0.171594 -0.05681
C_ C_ 0.85585 0.0785725 0.144265 -0.05681
C_ C_ 0.841977 0.0470225 0.121063 -0.08735
C_ C_ 0.850681 0.493864 0.118777 -0.08735
C_ C_ 0.885882 0.0855227 0.193832 -0.08735
C_ C_ 0.8919 0.137627 0.190076 -0.08735
C_ C_ 0.87571 0.161658 0.163592 -0.05681
C_ C_ 0.852055 0.130909 0.142957 -0.08735
C_ C_ 0.961935 0.315621 0.15601 0.68181
C_ C_ 0.891816 0.380743 0.229242 0.1947
C_ C_ 0.903228 0.397833 0.256411 -0.08735
C_ C_ 0.884332 0.370652 0.279868 -0.08735
C_ C_ 0.858901 0.324941 0.27495 -0.05681
C_ C_ 0.851969 0.307808 0.246735 0.18498
C_ C_ 0.826894 0.261171 0.242101 -0.08735
C_ C_ 0.812219 0.229754 0.263732 -0.08735
C_ C_ 0.820948 0.244813 0.291412 -0.08735
C_ C_ 0.844877 0.292319 0.297495 0.18498
C_ C_ 0.817726 0.322371 0.344206 0.44287
C_ C_ 0.902832 0.296413 0.338995 0.44287
C_ C_ 0.912965 0.308141 0.367245 -0.05681
C_ C_ 0.962392 0.303158 0.380605 -0.08735
C_ C_ 0.967973 0.307781 0.409825 -0.08735
C_ C_ 0.925518 0.307412 0.428164 -0.05681
C_ C_ 0.877214 0.320433 0.415972 -0.05681
C_ C_ 0.872 0.321628 0.385691 -0.05681
C_ C_ 0.823369 0.325367 0.373516 -0.05681
C_ C_ 0.780701 0.337384 0.390541 -0.08735
C_ C_ 0.786925 0.338205 0.420385 -0.08735
C_ C_ 0.834933 0.326483 0.433503 -0.05681
C_ C_ 0.840482 0.322661 0.463819 0.44287
C_ C_ 0.930134 0.308009 0.458326 0.44287
C_ C_ 0.884669 0.349204 0.00669342 0.18498
C_ C_ 0.909988 0.395633 0.0137174 -0.08735
C_ C_ 0.923126 0.405932 0.0424276 -0.08735
C_ C_ 0.90658 0.372401 0.0646613 -0.08735
C_ C_ 0.880601 0.326757 0.0582408 0.18498
C_ C_ 0.869317 0.314861 0.0291245 -0.05681
C_ C_ 0.845699 0.269028 0.0233399 -0.08735
C_ C_ 0.831351 0.238219 0.0450974 -0.08735
C_ C_ 0.839852 0.252867 0.073786 0.1947
N_ N_ 0.635218 0.171486 0.478774 -0.29468
N_ N_ 0.657854 0.192305 0.0829825 -0.17154
N_ N_ 0.62209 0.161839 0.232257 -0.17154
N_ N_ 0.646738 0.188691 0.335858 -0.29468
N_ N_ 0.865238 0.336593 0.224454 -0.29468
N_ N_ 0.855484 0.306356 0.326958 -0.17154
N_ N_ 0.887636 0.317414 0.475919 -0.17154
N_ N_ 0.864849 0.296519 0.0810785 -0.29468
O_ O_ 0.724548 0.179886 0.433694 -0.58347
O_ O_ 0.707628 0.194823 0.388283 -0.58347
O_ O_ 0.644771 0.255362 0.432733 -0.58347
O_ O_ 0.623348 0.260597 0.388553 -0.58347
O_ O_ 0.646336 0.104403 0.426942 -0.58347
O_ O_ 0.642087 0.10919 0.380265 -0.58347
O_ O_ 0.574013 0.183465 0.427489 -0.58347
O_ O_ 0.561401 0.176341 0.381593 -0.58347
O_ O_ 0.572277 0.205049 0.07837 -0.46727
O_ O_ 0.743117 0.182652 0.0904274 -0.46727
O_ O_ 0.535532 0.172841 0.22534 -0.46727
O_ O_ 0.711188 0.147537 0.236731 -0.46727
O_ O_ 0.784498 0.305284 0.175709 -0.58347
O_ O_ 0.792638 0.31329 0.12891 -0.58347
O_ O_ 0.873868 0.247166 0.181765 -0.58347
O_ O_ 0.86283 0.235298 0.136353 -0.58347
O_ O_ 0.846243 0.392025 0.172561 -0.58347
O_ O_ 0.865931 0.385412 0.127087 -0.58347
O_ O_ 0.933222 0.329967 0.176568 -0.58347
O_ O_ 0.941621 0.309722 0.131566 -0.58347
O_ O_ 0.938919 0.275666 0.323199 -0.46727
O_ O_ 0.77474 0.334819 0.332071 -0.46727
O_ O_ 0.976325 0.311946 0.469994 -0.46727
O_ O_ 0.799842 0.327903 0.479711 -0.46727
Zn Zn 0.63523 0.184445 0.884927 0.90689
Zn Zn 0.641149 0.179333 0.93235 0.90689
Zn Zn 0.877095 0.319663 0.627453 0.90689
Zn Zn 0.869011 0.319988 0.676373 0.90689
H_ H_ 0.808023 0.174068 0.947616 0.11455
H_ H_ 0.872434 0.185299 0.847962 0.11455
H_ H_ 0.784292 0.194241 0.856452 0.11455
H_ H_ 0.894911 0.178484 0.963975 0.11455
H_ H_ 0.985962 0.17544 0.954905 0.11455
H_ H_ 0.960295 0.178694 0.865445 0.11455
H_ H_ 0.664475 0.0110248 0.944087 0.11455
H_ H_ 0.630902 0.43224 0.846814 0.11455
H_ H_ 0.640487 0.0226532 0.855143 0.11455
H_ H_ 0.63813 0.431293 0.963721 0.11455
H_ H_ 0.640811 0.337541 0.95903 0.11455
H_ H_ 0.625208 0.349157 0.868502 0.11455
H_ H_ 0.584318 0.108219 0.96832 0.11455
H_ H_ 0.565828 0.0831885 0.515982 0.11455
H_ H_ 0.602046 0.131447 0.556877 0.11455
H_ H_ 0.698226 0.245164 0.975266 0.11455
H_ H_ 0.73961 0.289688 0.513346 0.11455
H_ H_ 0.715987 0.271203 0.564212 0.11455
H_ H_ 0.517501 0.212081 0.624574 0.11455
H_ H_ 0.508722 0.183747 0.674714 0.11455
H_ H_ 0.768517 0.174234 0.637628 0.11455
H_ H_ 0.760358 0.162378 0.688982 0.11455
H_ H_ 0.570842 0.0929659 0.749427 0.11455
H_ H_ 0.552323 0.0642279 0.798595 0.11455
H_ H_ 0.595414 0.113834 0.839875 0.11455
H_ H_ 0.649713 0.256939 0.757915 0.11455
H_ H_ 0.68634 0.303167 0.800064 0.11455
H_ H_ 0.678777 0.265088 0.848227 0.11455
H_ H_ 0.707754 0.312928 0.692807 0.11455
H_ H_ 0.631273 0.337559 0.597398 0.11455
H_ H_ 0.725141 0.341127 0.602857 0.11455
H_ H_ 0.625057 0.317871 0.713783 0.11455
H_ H_ 0.531331 0.301218 0.708549 0.11455
H_ H_ 0.547651 0.356188 0.620138 0.11455
H_ H_ 0.878309 0.484338 0.690805 0.11455
H_ H_ 0.868132 0.0612259 0.597486 0.11455
H_ H_ 0.869082 0.483999 0.596742 0.11455
H_ H_ 0.889124 0.0723902 0.715136 0.11455
H_ H_ 0.90434 0.167395 0.706927 0.11455
H_ H_ 0.876792 0.148786 0.617773 0.11455
H_ H_ 0.919247 0.392171 0.708521 0.11455
H_ H_ 0.936357 0.423386 0.755258 0.11455
H_ H_ 0.893472 0.385705 0.797132 0.11455
H_ H_ 0.807345 0.256458 0.72003 0.11455
H_ H_ 0.776654 0.20926 0.761857 0.11455
H_ H_ 0.800122 0.233428 0.811693 0.11455
H_ H_ 0.974386 0.287159 0.869311 0.11455
H_ H_ -0.012245999999999979 0.294011 0.921598 0.11455
H_ H_ 0.730796 0.343169 0.883552 0.11455
H_ H_ 0.742635 0.346943 0.936892 0.11455
H_ H_ 0.924174 0.421056 0.996513 0.11455
H_ H_ 0.945704 0.441589 0.539545 0.11455
H_ H_ 0.930365 0.37957 0.581204 0.11455
H_ H_ 0.842707 0.24672 0.507206 0.11455
H_ H_ 0.814251 0.201973 0.550588 0.11455
H_ H_ 0.831757 0.238378 0.59853 0.11455
C_ C_ 0.733578 0.183282 0.90804 0.68181
C_ C_ 0.787844 0.185128 0.90306 -0.05681
C_ C_ 0.821827 0.181336 0.925913 -0.08735
C_ C_ 0.875143 0.186126 0.92059 -0.05681
C_ C_ 0.893619 0.180598 0.892801 -0.05681
C_ C_ 0.858824 0.181552 0.870403 -0.08735
C_ C_ 0.80862 0.185426 0.87569 -0.08735
C_ C_ 0.909736 0.176194 0.942619 -0.08735
C_ C_ 0.960928 0.181714 0.938189 -0.08735
C_ C_ 0.982027 0.179732 0.90982 -0.05681
C_ C_ 0.94629 0.182011 0.887099 -0.08735
C_ C_ 0.637689 0.278967 0.912004 0.68181
C_ C_ 0.641749 0.0835153 0.902263 0.68181
C_ C_ 0.641172 0.0271023 0.900777 -0.05681
C_ C_ 0.631531 0.49708 0.91981 -0.08735
C_ C_ 0.628666 0.443195 0.917709 -0.05681
C_ C_ 0.629074 0.419218 0.890941 -0.05681
C_ C_ 0.63722 0.449099 0.866909 -0.08735
C_ C_ 0.639016 0.501856 0.868791 -0.08735
C_ C_ 0.631804 0.41279 0.943515 -0.08735
C_ C_ 0.631183 0.359167 0.94041 -0.08735
C_ C_ 0.630705 0.335454 0.914208 -0.05681
C_ C_ 0.625947 0.366322 0.888968 -0.08735
C_ C_ 0.53791 0.182421 0.910403 0.68181
C_ C_ 0.609592 0.124413 0.983192 0.1947
C_ C_ 0.594669 0.115782 0.512458 -0.08735
C_ C_ 0.614959 0.142517 0.535528 -0.08735
C_ C_ 0.645552 0.183952 0.529699 -0.05681
C_ C_ 0.654332 0.19881 0.500923 0.18498
C_ C_ 0.687417 0.236645 0.996551 -0.08735
C_ C_ 0.707572 0.266823 0.517783 -0.08735
C_ C_ 0.695302 0.252973 0.546774 -0.08735
C_ C_ 0.661394 0.214418 0.55254 0.18498
C_ C_ 0.692034 0.187349 0.598245 0.44287
C_ C_ 0.605766 0.206325 0.594139 0.44287
C_ C_ 0.598575 0.195581 0.623253 -0.05681
C_ C_ 0.548943 0.195282 0.635993 -0.08735
C_ C_ 0.545341 0.185795 0.665817 -0.08735
C_ C_ 0.587485 0.184798 0.684361 -0.05681
C_ C_ 0.63428 0.179485 0.671176 -0.05681
C_ C_ 0.640112 0.185958 0.641092 -0.05681
C_ C_ 0.687784 0.184466 0.628715 -0.05681
C_ C_ 0.730219 0.177902 0.646668 -0.08735
C_ C_ 0.725245 0.168625 0.675713 -0.08735
C_ C_ 0.676754 0.173362 0.688477 -0.05681
C_ C_ 0.669732 0.167632 0.719001 0.44287
C_ C_ 0.58213 0.180569 0.714072 0.44287
C_ C_ 0.612185 0.159334 0.761057 0.18498
C_ C_ 0.585835 0.11425 0.766737 -0.08735
C_ C_ 0.577007 0.0959918 0.794145 -0.08735
C_ C_ 0.595961 0.125686 0.817098 -0.08735
C_ C_ 0.619823 0.173604 0.812228 0.18498
C_ C_ 0.628497 0.189979 0.784159 -0.05681
C_ C_ 0.650388 0.238942 0.778905 -0.08735
C_ C_ 0.66677 0.267429 0.802057 -0.08735
C_ C_ 0.662529 0.245895 0.830142 0.1947
C_ C_ 0.778811 0.321436 0.651448 0.68181
C_ C_ 0.72149 0.327572 0.648497 -0.05681
C_ C_ 0.69194 0.330042 0.673044 -0.08735
C_ C_ 0.63848 0.332363 0.669989 -0.05681
C_ C_ 0.614014 0.33848 0.643179 -0.05681
C_ C_ 0.644518 0.342303 0.619119 -0.08735
C_ C_ 0.698301 0.336263 0.621315 -0.08735
C_ C_ 0.608422 0.31896 0.693166 -0.08735
C_ C_ 0.554715 0.310604 0.688867 -0.08735
C_ C_ 0.530604 0.322494 0.662346 -0.05681
C_ C_ 0.561696 0.343079 0.640839 -0.08735
C_ C_ 0.876679 0.221721 0.659683 0.68181
C_ C_ 0.870524 0.419095 0.644361 0.68181
C_ C_ 0.870195 0.475223 0.64541 -0.05681
C_ C_ 0.881117 0.00507586 0.673216 -0.08735
C_ C_ 0.881992 0.0580326 0.670174 -0.05681
C_ C_ 0.87375 0.0780353 0.642938 -0.05681
C_ C_ 0.866738 0.0463471 0.619232 -0.08735
C_ C_ 0.870802 0.503064 0.618083 -0.08735
C_ C_ 0.892191 0.090886 0.6932 -0.08735
C_ C_ 0.892948 0.143649 0.689674 -0.08735
C_ C_ 0.88633 0.164837 0.66224 -0.05681
C_ C_ 0.876431 0.131593 0.639238 -0.08735
C_ C_ 0.972591 0.331718 0.65481 0.68181
C_ C_ 0.899594 0.373774 0.726654 0.1947
C_ C_ 0.909921 0.392622 0.752634 -0.08735
C_ C_ 0.889691 0.369305 0.776802 -0.08735
C_ C_ 0.854997 0.329518 0.774567 -0.05681
C_ C_ 0.843361 0.312624 0.746063 0.18498
C_ C_ 0.819226 0.266199 0.7416 -0.08735
C_ C_ 0.799567 0.240612 0.765308 -0.08735
C_ C_ 0.807434 0.257739 0.79402 -0.08735
C_ C_ 0.835643 0.301878 0.79844 0.18498
C_ C_ 0.804981 0.33001 0.844969 0.44287
C_ C_ 0.891918 0.309015 0.84063 0.44287
C_ C_ 0.896731 0.310948 0.870617 -0.05681
C_ C_ 0.943288 0.299901 0.883416 -0.08735
C_ C_ 0.950958 0.301611 0.912569 -0.08735
C_ C_ 0.910214 0.312828 0.931067 -0.05681
C_ C_ 0.862986 0.324851 0.9182 -0.05681
C_ C_ 0.855742 0.319393 0.888509 -0.05681
C_ C_ 0.810251 0.330065 0.876282 -0.05681
C_ C_ 0.768441 0.344943 0.893314 -0.08735
C_ C_ 0.773413 0.350204 0.922929 -0.08735
C_ C_ 0.82299 0.341859 0.935522 -0.05681
C_ C_ 0.830423 0.348057 0.965326 0.44287
C_ C_ 0.916855 0.322249 0.960644 0.44287
C_ C_ 0.894937 0.336414 0.50454 0.18498
C_ C_ 0.91532 0.385159 0.508756 -0.08735
C_ C_ 0.930401 0.401262 0.536557 -0.08735
C_ C_ 0.918956 0.371561 0.560677 -0.08735
C_ C_ 0.888355 0.327284 0.55748 0.18498
C_ C_ 0.88054 0.307825 0.529202 -0.05681
C_ C_ 0.85306 0.262379 0.528474 -0.08735
C_ C_ 0.832661 0.238173 0.552729 -0.08735
C_ C_ 0.843765 0.258333 0.579736 0.1947
N_ N_ 0.633468 0.169454 0.978341 -0.29468
N_ N_ 0.652754 0.203217 0.582088 -0.17154
N_ N_ 0.62263 0.171341 0.730764 -0.17154
N_ N_ 0.63925 0.201358 0.83494 -0.29468
N_ N_ 0.868588 0.334106 0.722817 -0.29468
N_ N_ 0.845684 0.319114 0.827765 -0.17154
N_ N_ 0.876801 0.33642 0.978061 -0.17154
N_ N_ 0.871798 0.301373 0.581951 -0.29468
O_ O_ 0.715064 0.177294 0.933193 -0.58347
O_ O_ 0.704518 0.195646 0.887384 -0.58347
O_ O_ 0.650323 0.254081 0.933297 -0.58347
O_ O_ 0.621091 0.255179 0.890426 -0.58347
O_ O_ 0.639437 0.103747 0.927354 -0.58347
O_ O_ 0.647293 0.109834 0.879796 -0.58347
O_ O_ 0.56614 0.187927 0.932293 -0.58347
O_ O_ 0.55807 0.176017 0.885889 -0.58347
O_ O_ 0.56735 0.218991 0.577875 -0.46727
O_ O_ 0.737601 0.18299 0.586973 -0.46727
O_ O_ 0.541253 0.198174 0.726422 -0.46727
O_ O_ 0.709618 0.170581 0.735646 -0.46727
O_ O_ 0.798921 0.318364 0.677186 -0.58347
O_ O_ 0.803811 0.31583 0.629152 -0.58347
O_ O_ 0.870596 0.248409 0.682014 -0.58347
O_ O_ 0.889858 0.244631 0.636544 -0.58347
O_ O_ 0.873885 0.394572 0.668043 -0.58347
O_ O_ 0.87232 0.395036 0.620702 -0.58347
O_ O_ 0.944775 0.323612 0.676542 -0.58347
O_ O_ 0.951998 0.336933 0.629607 -0.58347
O_ O_ 0.926517 0.286581 0.825572 -0.46727
O_ O_ 0.767902 0.354938 0.834516 -0.46727
O_ O_ 0.95743 0.302742 0.973454 -0.46727
O_ O_ 0.792449 0.361963 0.982559 -0.46727
Zn Zn 0.620546 0.68714 0.384317 0.90689
Zn Zn 0.628427 0.679654 0.429596 0.90689
Zn Zn 0.861082 0.815577 0.133882 0.90689
Zn Zn 0.856126 0.815393 0.182713 0.90689
H_ H_ 0.796826 0.710402 0.4416 0.11455
H_ H_ 0.867024 0.670487 0.346023 0.11455
H_ H_ 0.772899 0.67951 0.353592 0.11455
H_ H_ 0.880491 0.71069 0.461428 0.11455
H_ H_ 0.973288 0.703621 0.454634 0.11455
H_ H_ 0.950719 0.675048 0.366635 0.11455
H_ H_ 0.626308 0.514603 0.439837 0.11455
H_ H_ 0.643008 0.931444 0.350651 0.11455
H_ H_ 0.654607 0.526293 0.350324 0.11455
H_ H_ 0.637273 0.928249 0.468577 0.11455
H_ H_ 0.610936 0.841433 0.461349 0.11455
H_ H_ 0.611719 0.855329 0.370002 0.11455
H_ H_ 0.586866 0.605388 0.469963 0.11455
H_ H_ 0.572619 0.572707 0.0162603 0.11455
H_ H_ 0.598989 0.629429 0.0559051 0.11455
H_ H_ 0.688083 0.748502 0.470394 0.11455
H_ H_ 0.702414 0.81572 0.0129063 0.11455
H_ H_ 0.67631 0.794155 0.061434 0.11455
H_ H_ 0.502004 0.700262 0.122438 0.11455
H_ H_ 0.489355 0.691781 0.172783 0.11455
H_ H_ 0.747253 0.648869 0.136598 0.11455
H_ H_ 0.735558 0.658681 0.191127 0.11455
H_ H_ 0.545664 0.604715 0.250229 0.11455
H_ H_ 0.529695 0.576724 0.299671 0.11455
H_ H_ 0.566481 0.622683 0.339413 0.11455
H_ H_ 0.638384 0.761204 0.261012 0.11455
H_ H_ 0.677945 0.807553 0.300736 0.11455
H_ H_ 0.667328 0.771214 0.34921 0.11455
H_ H_ 0.681642 0.797488 0.203125 0.11455
H_ H_ 0.616685 0.823039 0.103298 0.11455
H_ H_ 0.709951 0.809307 0.111542 0.11455
H_ H_ 0.601594 0.826699 0.218907 0.11455
H_ H_ 0.505797 0.820494 0.213186 0.11455
H_ H_ 0.533042 0.811625 0.121513 0.11455
H_ H_ 0.881809 0.98697 0.195783 0.11455
H_ H_ 0.841313 0.564115 0.0967791 0.11455
H_ H_ 0.838927 0.968137 0.105919 0.11455
H_ H_ 0.856739 0.564306 0.215108 0.11455
H_ H_ 0.86404 0.654399 0.213635 0.11455
H_ H_ 0.841144 0.648979 0.121291 0.11455
H_ H_ 0.91237 0.888854 0.218271 0.11455
H_ H_ 0.916834 0.929496 0.264804 0.11455
H_ H_ 0.884985 0.879789 0.30701 0.11455
H_ H_ 0.794215 0.754783 0.228168 0.11455
H_ H_ 0.7718 0.69637 0.268846 0.11455
H_ H_ 0.786659 0.722667 0.316066 0.11455
H_ H_ 0.975669 0.808709 0.374612 0.11455
H_ H_ -0.012979999999999992 0.818193 0.428318 0.11455
H_ H_ 0.726072 0.828656 0.391768 0.11455
H_ H_ 0.737652 0.85468 0.442179 0.11455
H_ H_ 0.927443 0.923474 0.502431 0.11455
H_ H_ 0.960319 0.918241 0.0500855 0.11455
H_ H_ 0.914819 0.873057 0.0901012 0.11455
H_ H_ 0.83354 0.745153 0.00799868 0.11455
H_ H_ 0.793562 0.700593 0.0506369 0.11455
H_ H_ 0.813424 0.728413 0.0993167 0.11455
C_ C_ 0.723085 0.691594 0.404184 0.68181
C_ C_ 0.779098 0.689239 0.398848 -0.05681
C_ C_ 0.8118 0.697528 0.421459 -0.08735
C_ C_ 0.863633 0.692031 0.4172 -0.05681
C_ C_ 0.884136 0.679378 0.389971 -0.05681
C_ C_ 0.851692 0.675336 0.368088 -0.08735
C_ C_ 0.797006 0.676028 0.372192 -0.08735
C_ C_ 0.895262 0.692451 0.441303 -0.08735
C_ C_ 0.946117 0.69755 0.436912 -0.08735
C_ C_ 0.968677 0.687307 0.410377 -0.05681
C_ C_ 0.93612 0.675701 0.386762 -0.08735
C_ C_ 0.618459 0.782386 0.41319 0.68181
C_ C_ 0.63117 0.584996 0.397361 0.68181
C_ C_ 0.640501 0.527872 0.394914 -0.05681
C_ C_ 0.634355 0.997507 0.424379 -0.08735
C_ C_ 0.629622 0.943983 0.422263 -0.05681
C_ C_ 0.628117 0.922443 0.394624 -0.05681
C_ C_ 0.638951 0.951305 0.370693 -0.08735
C_ C_ 0.645042 1.00327324 0.372553 -0.08735
C_ C_ 0.631625 0.91264 0.447048 -0.08735
C_ C_ 0.626325 0.860913 0.443246 -0.08735
C_ C_ 0.622388 0.839871 0.415927 -0.05681
C_ C_ 0.618922 0.870827 0.39143 -0.08735
C_ C_ 0.526224 0.674832 0.406639 0.68181
C_ C_ 0.606452 0.62577 0.485581 0.1947
C_ C_ 0.594098 0.609817 0.0114741 -0.08735
C_ C_ 0.60779 0.64221 0.0338918 -0.08735
C_ C_ 0.636033 0.68646 0.028986 -0.05681
C_ C_ 0.648023 0.697383 1.0000183081 0.18498
C_ C_ 0.683809 0.739269 0.492976 -0.08735
C_ C_ 0.688726 0.775801 0.0174312 -0.08735
C_ C_ 0.673511 0.764694 0.0449745 -0.08735
C_ C_ 0.648996 0.718989 0.0518476 0.18498
C_ C_ 0.677474 0.68341 0.0978076 0.44287
C_ C_ 0.591248 0.710106 0.0937827 0.44287
C_ C_ 0.581405 0.698997 0.122731 -0.05681
C_ C_ 0.534326 0.696423 0.134598 -0.08735
C_ C_ 0.526133 0.690037 0.164692 -0.08735
C_ C_ 0.569169 0.691362 0.183237 -0.05681
C_ C_ 0.617196 0.682337 0.170486 -0.05681
C_ C_ 0.624046 0.69229 0.140962 -0.05681
C_ C_ 0.671437 0.68033 0.128244 -0.05681
C_ C_ 0.709942 0.660517 0.14598 -0.08735
C_ C_ 0.704407 0.657692 0.176379 -0.08735
C_ C_ 0.657964 0.669617 0.188696 -0.05681
C_ C_ 0.650458 0.667298 0.218495 0.44287
C_ C_ 0.565061 0.693963 0.213435 0.44287
C_ C_ 0.594731 0.666834 0.260483 0.18498
C_ C_ 0.568317 0.621949 0.266348 -0.08735
C_ C_ 0.555447 0.609617 0.294475 -0.08735
C_ C_ 0.575711 0.636111 0.317948 -0.08735
C_ C_ 0.607401 0.679095 0.312874 0.18498
C_ C_ 0.612054 0.699054 0.284495 -0.05681
C_ C_ 0.638828 0.742107 0.280551 -0.08735
C_ C_ 0.656834 0.771217 0.304397 -0.08735
C_ C_ 0.652682 0.74974 0.331575 0.1947
C_ C_ 0.760437 0.80674 0.160901 0.68181
C_ C_ 0.703532 0.808256 0.157732 -0.05681
C_ C_ 0.669645 0.808455 0.181485 -0.08735
C_ C_ 0.617029 0.814769 0.17665 -0.05681
C_ C_ 0.598395 0.817232 0.147853 -0.05681
C_ C_ 0.630781 0.819182 0.12484 -0.08735
C_ C_ 0.683448 0.813349 0.130177 -0.08735
C_ C_ 0.584512 0.822501 0.198779 -0.08735
C_ C_ 0.531339 0.823054 0.194494 -0.08735
C_ C_ 0.511306 0.818532 0.165606 -0.05681
C_ C_ 0.546433 0.814888 0.143508 -0.08735
C_ C_ 0.856006 0.716209 0.164265 0.68181
C_ C_ 0.859209 0.914297 0.153318 0.68181
C_ C_ 0.854983 0.971619 0.15236 -0.05681
C_ C_ 0.850859 0.499945 0.170996 -0.08735
C_ C_ 0.851818 0.553334 0.169538 -0.05681
C_ C_ 0.849926 0.576928 0.142509 -0.05681
C_ C_ 0.846714 0.547157 0.116897 -0.08735
C_ C_ 0.839651 0.995003 0.125544 -0.08735
C_ C_ 0.856258 0.582443 0.194844 -0.08735
C_ C_ 0.852341 0.634639 0.193973 -0.08735
C_ C_ 0.850026 0.658748 0.166523 -0.05681
C_ C_ 0.843069 0.629391 0.142078 -0.08735
C_ C_ 0.956979 0.822386 0.156434 0.68181
C_ C_ 0.890931 0.871372 0.23646 0.1947
C_ C_ 0.895586 0.89398 0.263221 -0.08735
C_ C_ 0.876354 0.867146 0.287075 -0.08735
C_ C_ 0.847129 0.82263 0.282504 -0.05681
C_ C_ 0.835493 0.808093 0.253576 0.18498
C_ C_ 0.806911 0.76312 0.248583 -0.08735
C_ C_ 0.794671 0.731021 0.271564 -0.08735
C_ C_ 0.805969 0.74448 0.299946 -0.08735
C_ C_ 0.831064 0.791365 0.306406 0.18498
C_ C_ 0.799196 0.814643 0.353106 0.44287
C_ C_ 0.885721 0.793489 0.347904 0.44287
C_ C_ 0.895136 0.810207 0.377096 -0.05681
C_ C_ 0.943491 0.808931 0.38913 -0.08735
C_ C_ 0.951259 0.822711 0.417876 -0.08735
C_ C_ 0.909169 0.829339 0.436505 -0.05681
C_ C_ 0.859561 0.829928 0.4246 -0.05681
C_ C_ 0.853712 0.817312 0.39476 -0.05681
C_ C_ 0.80399 0.817548 0.382429 -0.05681
C_ C_ 0.763463 0.831274 0.399983 -0.08735
C_ C_ 0.769615 0.840804 0.429574 -0.08735
C_ C_ 0.81772 0.839162 0.44193 -0.05681
C_ C_ 0.826661 0.845866 0.472209 0.44287
C_ C_ 0.913306 0.828947 0.466816 0.44287
C_ C_ 0.893004 0.830185 0.0106691 0.18498
C_ C_ 0.921229 0.875745 0.017523 -0.08735
C_ C_ 0.933801 0.887893 0.0454037 -0.08735
C_ C_ 0.909996 0.860878 0.067942 -0.08735
C_ C_ 0.877536 0.819922 0.0635893 0.18498
C_ C_ 0.870291 0.80299 0.0345652 -0.05681
C_ C_ 0.842037 0.75888 0.0306962 -0.08735
C_ C_ 0.819889 0.732662 0.0543649 -0.08735
C_ C_ 0.827114 0.751193 0.0816355 0.1947
N_ N_ 0.631424 0.669331 0.478236 -0.29468
N_ N_ 0.639353 0.705713 0.0820354 -0.17154
N_ N_ 0.605653 0.677851 0.230436 -0.17154
N_ N_ 0.626075 0.705053 0.336141 -0.29468
N_ N_ 0.860182 0.831284 0.232064 -0.29468
N_ N_ 0.840079 0.803444 0.335831 -0.17154
N_ N_ 0.872631 0.83862 0.483936 -0.17154
N_ N_ 0.8547 0.794144 0.0863532 -0.29468
O_ O_ 0.705196 0.680256 0.428618 -0.58347
O_ O_ 0.693635 0.705176 0.384049 -0.58347
O_ O_ 0.630588 0.754715 0.433696 -0.58347
O_ O_ 0.608264 0.761595 0.389589 -0.58347
O_ O_ 0.626862 0.604869 0.42216 -0.58347
O_ O_ 0.634537 0.613925 0.375309 -0.58347
O_ O_ 0.553079 0.684579 0.429151 -0.58347
O_ O_ 0.547821 0.673205 0.382387 -0.58347
O_ O_ 0.556385 0.729404 0.0773557 -0.46727
O_ O_ 0.722457 0.678593 0.0870985 -0.46727
O_ O_ 0.520772 0.702015 0.224132 -0.46727
O_ O_ 0.687777 0.651431 0.234704 -0.46727
O_ O_ 0.779314 0.811569 0.186072 -0.58347
O_ O_ 0.789783 0.808553 0.139135 -0.58347
O_ O_ 0.856991 0.741425 0.186692 -0.58347
O_ O_ 0.864404 0.737316 0.140429 -0.58347
O_ O_ 0.861684 0.892148 0.177554 -0.58347
O_ O_ 0.85099 0.889066 0.130306 -0.58347
O_ O_ 0.930779 0.815795 0.178411 -0.58347
O_ O_ 0.937541 0.822684 0.13206 -0.58347
O_ O_ 0.922379 0.779076 0.331955 -0.46727
O_ O_ 0.755497 0.82797 0.340935 -0.46727
O_ O_ 0.958767 0.824571 0.479658 -0.46727
O_ O_ 0.788438 0.854212 0.488788 -0.46727
Zn Zn 0.624777 0.687211 0.882638 0.90689
Zn Zn 0.638423 0.677006 0.930347 0.90689
Zn Zn 0.878418 0.816083 0.634986 0.90689
Zn Zn 0.868019 0.81731 0.683527 0.90689
H_ H_ 0.80635 0.676928 0.940924 0.11455
H_ H_ 0.871169 0.642198 0.844743 0.11455
H_ H_ 0.776972 0.649659 0.850356 0.11455
H_ H_ 0.88834 0.661023 0.961281 0.11455
H_ H_ 0.975759 0.660687 0.953956 0.11455
H_ H_ 0.958806 0.660937 0.862786 0.11455
H_ H_ 0.630457 0.516115 0.940929 0.11455
H_ H_ 0.60716 0.934453 0.853106 0.11455
H_ H_ 0.636836 0.524455 0.849505 0.11455
H_ H_ 0.66813 0.932281 0.966745 0.11455
H_ H_ 0.655397 0.834948 0.963274 0.11455
H_ H_ 0.600448 0.85379 0.876676 0.11455
H_ H_ 0.603972 0.590203 0.968126 0.11455
H_ H_ 0.584207 0.574445 0.519314 0.11455
H_ H_ 0.615126 0.629522 0.557944 0.11455
H_ H_ 0.699821 0.738473 0.974755 0.11455
H_ H_ 0.72287 0.80642 0.508463 0.11455
H_ H_ 0.713281 0.785414 0.558897 0.11455
H_ H_ 0.523867 0.69878 0.619846 0.11455
H_ H_ 0.50546 0.686801 0.669507 0.11455
H_ H_ 0.774578 0.676731 0.64158 0.11455
H_ H_ 0.761845 0.673794 0.692808 0.11455
H_ H_ 0.56803 0.588562 0.750207 0.11455
H_ H_ 0.542367 0.566941 0.802164 0.11455
H_ H_ 0.554465 0.631124 0.837126 0.11455
H_ H_ 0.654247 0.749274 0.757265 0.11455
H_ H_ 0.68493 0.800589 0.799175 0.11455
H_ H_ 0.676028 0.765433 0.846598 0.11455
H_ H_ 0.694346 0.791678 0.701162 0.11455
H_ H_ 0.63108 0.823442 0.602808 0.11455
H_ H_ 0.722832 0.822351 0.611389 0.11455
H_ H_ 0.60837 0.79929 0.720935 0.11455
H_ H_ 0.515118 0.800146 0.711537 0.11455
H_ H_ 0.548695 0.848054 0.625192 0.11455
H_ H_ 0.894715 0.988355 0.693083 0.11455
H_ H_ 0.877101 0.573439 0.59741 0.11455
H_ H_ 0.860521 0.972232 0.605918 0.11455
H_ H_ 0.894245 0.567544 0.714961 0.11455
H_ H_ 0.87968 0.662891 0.71364 0.11455
H_ H_ 0.879658 0.652284 0.621545 0.11455
H_ H_ 0.922839 0.887288 0.72211 0.11455
H_ H_ 0.928963 0.911216 0.771738 0.11455
H_ H_ 0.881442 0.871388 0.808375 0.11455
H_ H_ 0.806201 0.749221 0.725229 0.11455
H_ H_ 0.792057 0.679882 0.759341 0.11455
H_ H_ 0.798675 0.708433 0.807921 0.11455
H_ H_ 0.989017 0.775997 0.874686 0.11455
H_ H_ 0.993638 0.771151 0.926913 0.11455
H_ H_ 0.742691 0.840795 0.886924 0.11455
H_ H_ 0.751467 0.842689 0.939901 0.11455
H_ H_ 0.936904 0.897015 0.99981924 0.11455
H_ H_ 0.965149 0.931039 0.548845 0.11455
H_ H_ 0.944441 0.874493 0.58825 0.11455
H_ H_ 0.83092 0.769371 0.511587 0.11455
H_ H_ 0.801478 0.718531 0.549811 0.11455
H_ H_ 0.826665 0.742584 0.599398 0.11455
C_ C_ 0.73121 0.682233 0.902392 0.68181
C_ C_ 0.783022 0.665548 0.896894 -0.05681
C_ C_ 0.817221 0.664222 0.920279 -0.08735
C_ C_ 0.8694 0.663499 0.915956 -0.05681
C_ C_ 0.890065 0.659917 0.887389 -0.05681
C_ C_ 0.857029 0.653296 0.864942 -0.08735
C_ C_ 0.802085 0.654084 0.869472 -0.08735
C_ C_ 0.901865 0.660004 0.939051 -0.08735
C_ C_ 0.953359 0.662859 0.934477 -0.08735
C_ C_ 0.976003 0.665323 0.907652 -0.05681
C_ C_ 0.943618 0.657562 0.884111 -0.08735
C_ C_ 0.629849 0.780536 0.915772 0.68181
C_ C_ 0.634194 0.58449 0.89843 0.68181
C_ C_ 0.635473 0.527656 0.895601 -0.05681
C_ C_ 0.64991 -0.0048319999999999474 0.924466 -0.08735
C_ C_ 0.640852 0.942788 0.923149 -0.05681
C_ C_ 0.621504 0.9223 0.898336 -0.05681
C_ C_ 0.615495 0.951854 0.873451 -0.08735
C_ C_ 0.628675 0.0039378 0.874422 -0.08735
C_ C_ 0.651038 0.912482 0.947358 -0.08735
C_ C_ 0.645445 0.860584 0.945455 -0.08735
C_ C_ 0.628592 0.836284 0.918866 -0.05681
C_ C_ 0.614942 0.86884 0.895793 -0.08735
C_ C_ 0.533502 0.675892 0.909995 0.68181
C_ C_ 0.613796 0.618498 0.984534 0.1947
C_ C_ 0.603489 0.609976 0.514183 -0.08735
C_ C_ 0.619392 0.642015 0.536033 -0.08735
C_ C_ 0.64872 0.685245 0.529478 -0.05681
C_ C_ 0.65582 0.69675 0.499804 0.18498
C_ C_ 0.678675 0.73988 0.99485 -0.08735
C_ C_ 0.707311 0.770121 0.513959 -0.08735
C_ C_ 0.698794 0.758195 0.542864 -0.08735
C_ C_ 0.672398 0.713683 0.551787 0.18498
C_ C_ 0.701234 0.692783 0.599306 0.44287
C_ C_ 0.614228 0.708254 0.593308 0.44287
C_ C_ 0.604534 0.696166 0.623302 -0.05681
C_ C_ 0.55437 0.690751 0.633184 -0.08735
C_ C_ 0.545611 0.683211 0.662398 -0.08735
C_ C_ 0.587714 0.679487 0.681964 -0.05681
C_ C_ 0.636719 0.677569 0.670387 -0.05681
C_ C_ 0.645507 0.688371 0.641382 -0.05681
C_ C_ 0.695312 0.688781 0.629855 -0.05681
C_ C_ 0.736357 0.681847 0.649064 -0.08735
C_ C_ 0.728208 0.675055 0.678918 -0.08735
C_ C_ 0.678034 0.671445 0.690079 -0.05681
C_ C_ 0.669215 0.670306 0.71945 0.44287
C_ C_ 0.579761 0.675923 0.711368 0.44287
C_ C_ 0.607903 0.659885 0.759934 0.18498
C_ C_ 0.579565 0.614086 0.766931 -0.08735
C_ C_ 0.563617 0.603138 0.794974 -0.08735
C_ C_ 0.572323 0.639396 0.816792 -0.08735
C_ C_ 0.602856 0.682118 0.811889 0.18498
C_ C_ 0.618472 0.692949 0.783251 -0.05681
C_ C_ 0.645153 0.737884 0.778908 -0.08735
C_ C_ 0.664681 0.764907 0.802556 -0.08735
C_ C_ 0.654286 0.749153 0.829615 0.1947
C_ C_ 0.773168 0.810957 0.661072 0.68181
C_ C_ 0.716576 0.810377 0.656852 -0.05681
C_ C_ 0.681358 0.804503 0.680201 -0.08735
C_ C_ 0.628644 0.808306 0.675481 -0.05681
C_ C_ 0.609579 0.81843 0.647261 -0.05681
C_ C_ 0.643872 0.822199 0.62442 -0.08735
C_ C_ 0.696504 0.817844 0.629231 -0.08735
C_ C_ 0.593873 0.806431 0.69865 -0.08735
C_ C_ 0.542651 0.810049 0.694242 -0.08735
C_ C_ 0.524709 0.818792 0.66649 -0.05681
C_ C_ 0.559959 0.829326 0.644037 -0.08735
C_ C_ 0.877425 0.718697 0.666548 0.68181
C_ C_ 0.867396 0.91614 0.652889 0.68181
C_ C_ 0.868071 0.97271 0.650556 -0.05681
C_ C_ 0.876581 0.50416 0.670461 -0.08735
C_ C_ 0.880793 0.557295 0.669235 -0.05681
C_ C_ 0.883616 0.581616 0.642553 -0.05681
C_ C_ 0.872736 0.554533 0.617886 -0.08735
C_ C_ 0.862073 0.995336 0.623935 -0.08735
C_ C_ 0.883336 0.586426 0.694808 -0.08735
C_ C_ 0.880801 0.638663 0.693457 -0.08735
C_ C_ 0.883709 0.663889 0.667852 -0.05681
C_ C_ 0.883836 0.634201 0.641594 -0.08735
C_ C_ 0.973136 0.811759 0.656554 0.68181
C_ C_ 0.896707 0.868913 0.737926 0.1947
C_ C_ 0.895901 0.889028 0.765298 -0.08735
C_ C_ 0.874881 0.858897 0.785502 -0.08735
C_ C_ 0.854967 0.810121 0.779864 -0.05681
C_ C_ 0.850015 0.795492 0.750824 0.18498
C_ C_ 0.822879 0.751299 0.744438 -0.08735
C_ C_ 0.815256 0.712806 0.764672 -0.08735
C_ C_ 0.826716 0.72534 0.793284 -0.08735
C_ C_ 0.844549 0.773851 0.802172 0.18498
C_ C_ 0.812851 0.804583 0.847726 0.44287
C_ C_ 0.897475 0.775361 0.84509 0.44287
C_ C_ 0.905877 0.788319 0.875046 -0.05681
C_ C_ 0.955163 0.780771 0.8882 -0.08735
C_ C_ 0.956151 0.776954 0.918154 -0.08735
C_ C_ 0.916455 0.795876 0.934979 -0.05681
C_ C_ 0.870641 0.806333 0.922238 -0.05681
C_ C_ 0.866444 0.804785 0.891424 -0.05681
C_ C_ 0.819184 0.816114 0.877681 -0.05681
C_ C_ 0.778337 0.829565 0.895722 -0.08735
C_ C_ 0.783827 0.832928 0.925488 -0.08735
C_ C_ 0.829347 0.823037 0.938795 -0.05681
C_ C_ 0.838316 0.83401 0.968646 0.44287
C_ C_ 0.917346 0.792727 0.964911 0.44287
C_ C_ 0.881456 0.854961 0.513523 0.18498
C_ C_ 0.91151 0.898493 0.519636 -0.08735
C_ C_ 0.933798 0.904854 0.546486 -0.08735
C_ C_ 0.922832 0.872791 0.568911 -0.08735
C_ C_ 0.883813 0.835075 0.565556 0.18498
C_ C_ 0.866604 0.82397 0.537522 -0.05681
C_ C_ 0.844552 0.77715 0.53266 -0.08735
C_ C_ 0.830851 0.745538 0.554809 -0.08735
C_ C_ 0.843026 0.760762 0.582831 0.1947
N_ N_ 0.638007 0.662971 0.978358 -0.29468
N_ N_ 0.66283 0.704338 0.582069 -0.17154
N_ N_ 0.620789 0.671168 0.729864 -0.17154
N_ N_ 0.629004 0.704099 0.833963 -0.29468
N_ N_ 0.869108 0.827478 0.73064 -0.29468
N_ N_ 0.853054 0.787628 0.832452 -0.17154
N_ N_ 0.881718 0.817643 0.981585 -0.17154
N_ N_ 0.870116 0.804329 0.587902 -0.29468
O_ O_ 0.714955 0.678353 0.928488 -0.58347
O_ O_ 0.700736 0.689101 0.881362 -0.58347
O_ O_ 0.64152 0.751554 0.936546 -0.58347
O_ O_ 0.619962 0.762802 0.891303 -0.58347
O_ O_ 0.641813 0.604691 0.922403 -0.58347
O_ O_ 0.626969 0.613805 0.87634 -0.58347
O_ O_ 0.562016 0.67529 0.930899 -0.58347
O_ O_ 0.552562 0.684501 0.886218 -0.58347
O_ O_ 0.57547 0.719522 0.575459 -0.46727
O_ O_ 0.747694 0.690587 0.588104 -0.46727
O_ O_ 0.538003 0.688349 0.721656 -0.46727
O_ O_ 0.706506 0.665926 0.737746 -0.46727
O_ O_ 0.793182 0.81013 0.68618 -0.58347
O_ O_ 0.802383 0.813905 0.639646 -0.58347
O_ O_ 0.869162 0.743728 0.688656 -0.58347
O_ O_ 0.878719 0.743313 0.642969 -0.58347
O_ O_ 0.864441 0.894424 0.677166 -0.58347
O_ O_ 0.874402 0.88909 0.630783 -0.58347
O_ O_ 0.945713 0.820204 0.677721 -0.58347
O_ O_ 0.952432 0.814285 0.631816 -0.58347
O_ O_ 0.932947 0.751102 0.831144 -0.46727
O_ O_ 0.769021 0.807102 0.834473 -0.46727
O_ O_ 0.958098 0.772759 0.976488 -0.46727
O_ O_ 0.803118 0.859615 0.983535 -0.46727
_cell_length_a 26.376
_cell_length_b 26.400000238300095
_cell_length_c 46.67800035477134
_cell_angle_alpha 90.00700052986613
_cell_angle_beta 89.99899961309502
_cell_angle_gamma 90.45000003183146
_symmetry_space_group_name_H-M         'P 1'
_symmetry_Int_Tables_number            1
loop_
_symmetry_equiv_pos_as_xyz
   'x, y, z'
                         
loop_
_atom_site_label
_atom_site_type_symbol
_atom_site_fract_x 
_atom_site_fract_y
_atom_site_fract_z
_atom_site_charge
Zn Zn 0.1298 0.18583 0.382773 0.90689
Zn Zn 0.1498 0.177678 0.4281 0.90689
Zn Zn 0.366489 0.304779 0.132608 0.90689
Zn Zn 0.357556 0.316855 0.181685 0.90689
H_ H_ 0.313984 0.196755 0.441938 0.11455
H_ H_ 0.382051 0.195911 0.345937 0.11455
H_ H_ 0.295299 0.166135 0.34997 0.11455
H_ H_ 0.397972 0.189588 0.46179 0.11455
H_ H_ 0.487429 0.191693 0.456986 0.11455
H_ H_ 0.468803 0.183304 0.365205 0.11455
H_ H_ 0.132918 0.0142526 0.443037 0.11455
H_ H_ 0.108402 0.433905 0.344889 0.11455
H_ H_ 0.131694 0.0242805 0.348079 0.11455
H_ H_ 0.141466 0.432224 0.463004 0.11455
H_ H_ 0.144876 0.339503 0.45764 0.11455
H_ H_ 0.127841 0.348065 0.365624 0.11455
H_ H_ 0.0965019 0.104579 0.465142 0.11455
H_ H_ 0.0859854 0.0638109 0.0111766 0.11455
H_ H_ 0.114028 0.11328 0.0514769 0.11455
H_ H_ 0.212535 0.238819 0.467494 0.11455
H_ H_ 0.208634 0.308828 0.0150216 0.11455
H_ H_ 0.191356 0.277841 0.066276 0.11455
H_ H_ 0.0101892 0.181255 0.121761 0.11455
H_ H_ -0.00103223 0.180117 0.17223 0.11455
H_ H_ 0.261879 0.175722 0.137182 0.11455
H_ H_ 0.251452 0.163893 0.190041 0.11455
H_ H_ 0.0479895 0.0988965 0.248179 0.11455
H_ H_ 0.0310028 0.073841 0.297175 0.11455
H_ H_ 0.066845 0.119848 0.337451 0.11455
H_ H_ 0.160743 0.246874 0.257655 0.11455
H_ H_ 0.201577 0.288018 0.299389 0.11455
H_ H_ 0.194301 0.244076 0.345953 0.11455
H_ H_ 0.19031 0.296092 0.194656 0.11455
H_ H_ 0.124865 0.329528 0.096244 0.11455
H_ H_ 0.217115 0.328407 0.105108 0.11455
H_ H_ 0.104196 0.306073 0.213751 0.11455
H_ H_ 0.0147346 0.300322 0.206901 0.11455
H_ H_ 0.0388249 0.322251 0.115599 0.11455
H_ H_ 0.402439 0.475976 0.192269 0.11455
H_ H_ 0.367091 0.0574227 0.0984428 0.11455
H_ H_ 0.36069 0.464899 0.103021 0.11455
H_ H_ 0.331871 0.0606638 0.214827 0.11455
H_ H_ 0.344919 0.152106 0.213088 0.11455
H_ H_ 0.369607 0.144229 0.123013 0.11455
H_ H_ 0.428773 0.379442 0.217841 0.11455
H_ H_ 0.436779 0.413948 0.264367 0.11455
H_ H_ 0.386499 0.376657 0.30411 0.11455
H_ H_ 0.293648 0.254501 0.22376 0.11455
H_ H_ 0.280796 0.195368 0.262795 0.11455
H_ H_ 0.296316 0.22229 0.313659 0.11455
H_ H_ 0.483689 0.291895 0.371266 0.11455
H_ H_ 0.49476 0.305023 0.422154 0.11455
H_ H_ 0.232386 0.344317 0.388831 0.11455
H_ H_ 0.256713 0.381011 0.437368 0.11455
H_ H_ 0.434748 0.422435 0.498503 0.11455
H_ H_ 0.442311 0.435155 0.0556007 0.11455
H_ H_ 0.418765 0.376184 0.0929516 0.11455
H_ H_ 0.332551 0.259452 0.00745658 0.11455
H_ H_ 0.315558 0.199251 0.0483748 0.11455
H_ H_ 0.319565 0.233347 0.0955861 0.11455
C_ C_ 0.240181 0.179884 0.402928 0.68181
C_ C_ 0.294813 0.17993 0.397905 -0.05681
C_ C_ 0.326582 0.192794 0.420273 -0.08735
C_ C_ 0.379686 0.1876 0.417018 -0.05681
C_ C_ 0.400979 0.180336 0.38969 -0.05681
C_ C_ 0.369174 0.182114 0.366869 -0.08735
C_ C_ 0.315923 0.177319 0.368947 -0.08735
C_ C_ 0.412042 0.19134 0.440333 -0.08735
C_ C_ 0.464653 0.192609 0.437549 -0.08735
C_ C_ 0.48813 0.186522 0.409913 -0.05681
C_ C_ 0.455857 0.180137 0.386119 -0.08735
C_ C_ 0.134971 0.280518 0.411159 0.68181
C_ C_ 0.145275 0.082953 0.397376 0.68181
C_ C_ 0.13453 0.0264684 0.394928 -0.05681
C_ C_ 0.131637 0.495842 0.418463 -0.08735
C_ C_ 0.129116 0.444752 0.418009 -0.05681
C_ C_ 0.12193 0.420323 0.389978 -0.05681
C_ C_ 0.11231 0.449656 0.36628 -0.08735
C_ C_ 0.112648 0.499882 0.367431 -0.08735
C_ C_ 0.137064 0.413531 0.442273 -0.08735
C_ C_ 0.138345 0.360404 0.439236 -0.08735
C_ C_ 0.13344 0.337161 0.412177 -0.05681
C_ C_ 0.128379 0.366913 0.386971 -0.08735
C_ C_ 0.0411196 0.185137 0.408755 0.68181
C_ C_ 0.112388 0.128838 0.480979 0.1947
C_ C_ 0.105176 0.101 0.00749553 -0.08735
C_ C_ 0.117057 0.130439 0.0306936 -0.08735
C_ C_ 0.137065 0.181362 0.0283235 -0.05681
C_ C_ 0.147101 0.198289 0.999867 0.18498
C_ C_ 0.202069 0.232863 0.491785 -0.08735
C_ C_ 0.185077 0.273957 0.0206222 -0.08735
C_ C_ 0.181413 0.255 0.0478789 -0.08735
C_ C_ 0.155346 0.209049 0.0525499 0.18498
C_ C_ 0.189228 0.183373 0.0986409 0.44287
C_ C_ 0.0998219 0.1905 0.0922507 0.44287
C_ C_ 0.091963 0.184775 0.122428 -0.05681
C_ C_ 0.0430081 0.18874 0.134492 -0.08735
C_ C_ 0.0361005 0.182676 0.163839 -0.08735
C_ C_ 0.0796566 0.182237 0.182012 -0.05681
C_ C_ 0.128893 0.181897 0.170553 -0.05681
C_ C_ 0.133474 0.181724 0.140666 -0.05681
C_ C_ 0.182083 0.177437 0.128356 -0.05681
C_ C_ 0.223794 0.174598 0.14657 -0.08735
C_ C_ 0.218976 0.16933 0.176523 -0.08735
C_ C_ 0.170442 0.175453 0.188731 -0.05681
C_ C_ 0.162215 0.172266 0.218992 0.44287
C_ C_ 0.0750538 0.185234 0.211283 0.44287
C_ C_ 0.103188 0.160557 0.258385 0.18498
C_ C_ 0.0682587 0.120734 0.264739 -0.08735
C_ C_ 0.0557768 0.107994 0.292654 -0.08735
C_ C_ 0.0777353 0.133809 0.316209 -0.08735
C_ C_ 0.112905 0.172025 0.311622 0.18498
C_ C_ 0.125168 0.187886 0.282175 -0.05681
C_ C_ 0.154785 0.23099 0.279227 -0.08735
C_ C_ 0.181038 0.252025 0.301547 -0.08735
C_ C_ 0.171572 0.233071 0.328827 0.1947
C_ C_ 0.264448 0.315956 0.157538 0.68181
C_ C_ 0.209808 0.316417 0.152231 -0.05681
C_ C_ 0.174657 0.308898 0.173631 -0.08735
C_ C_ 0.122437 0.311206 0.168744 -0.05681
C_ C_ 0.104963 0.318831 0.141262 -0.05681
C_ C_ 0.139418 0.323603 0.117997 -0.08735
C_ C_ 0.190648 0.325515 0.124187 -0.08735
C_ C_ 0.0899115 0.311128 0.192128 -0.08735
C_ C_ 0.0372877 0.308988 0.188053 -0.08735
C_ C_ 0.0179444 0.314533 0.159772 -0.05681
C_ C_ 0.0523702 0.321619 0.136656 -0.08735
C_ C_ 0.363483 0.212203 0.163689 0.68181
C_ C_ 0.366939 0.409564 0.15151 0.68181
C_ C_ 0.379093 0.465662 0.147942 -0.05681
C_ C_ 0.350563 -0.006584000000000034 0.171894 -0.08735
C_ C_ 0.352249 0.046982 0.17019 -0.05681
C_ C_ 0.359621 0.0712858 0.143726 -0.05681
C_ C_ 0.358115 0.0408325 0.119037 -0.08735
C_ C_ 0.369606 0.489751 0.121046 -0.08735
C_ C_ 0.34292 0.0784972 0.194826 -0.08735
C_ C_ 0.352669 0.129433 0.193604 -0.08735
C_ C_ 0.360902 0.154456 0.16666 -0.05681
C_ C_ 0.364089 0.12437 0.142586 -0.08735
C_ C_ 0.45938 0.302847 0.15633 0.68181
C_ C_ 0.408781 0.361646 0.234896 0.1947
C_ C_ 0.414584 0.378907 0.262283 -0.08735
C_ C_ 0.385202 0.356907 0.284042 -0.08735
C_ C_ 0.354049 0.316249 0.278515 -0.05681
C_ C_ 0.344519 0.304351 0.249344 0.18498
C_ C_ 0.314201 0.262211 0.244379 -0.08735
C_ C_ 0.300376 0.22969 0.267976 -0.08735
C_ C_ 0.31152 0.242435 0.296205 -0.08735
C_ C_ 0.333844 0.289688 0.3026 0.18498
C_ C_ 0.305253 0.317194 0.348848 0.44287
C_ C_ 0.391162 0.292303 0.343606 0.44287
C_ C_ 0.401598 0.305137 0.372432 -0.05681
C_ C_ 0.450288 0.301874 0.384795 -0.08735
C_ C_ 0.458074 0.309741 0.413515 -0.08735
C_ C_ 0.417855 0.317797 0.432645 -0.05681
C_ C_ 0.368972 0.325071 0.420636 -0.05681
C_ C_ 0.35948 0.319326 0.391324 -0.05681
C_ C_ 0.311953 0.324671 0.379406 -0.05681
C_ C_ 0.271222 0.340138 0.397607 -0.08735
C_ C_ 0.284095 0.355911 0.426216 -0.08735
C_ C_ 0.329779 0.34201 0.438338 -0.05681
C_ C_ 0.342907 0.352746 0.467562 0.44287
C_ C_ 0.426244 0.323213 0.461879 0.44287
C_ C_ 0.39539 0.34278 0.0116789 0.18498
C_ C_ 0.416898 0.389986 0.0205434 -0.08735
C_ C_ 0.422858 0.401946 0.0490245 -0.08735
C_ C_ 0.411683 0.36743 0.070654 -0.08735
C_ C_ 0.386374 0.323722 0.0640469 0.18498
C_ C_ 0.375502 0.311163 0.0343694 -0.05681
C_ C_ 0.346546 0.26698 0.0285561 -0.08735
C_ C_ 0.32928 0.237482 0.0506198 -0.08735
C_ C_ 0.334431 0.254737 0.0784772 0.1947
N_ N_ 0.143742 0.167937 0.476123 -0.29468
N_ N_ 0.147553 0.193304 0.0815368 -0.17154
N_ N_ 0.114234 0.17545 0.229454 -0.17154
N_ N_ 0.13467 0.196823 0.334211 -0.29468
N_ N_ 0.369739 0.328899 0.228382 -0.29468
N_ N_ 0.344161 0.301617 0.332254 -0.17154
N_ N_ 0.387286 0.336469 0.479521 -0.17154
N_ N_ 0.36479 0.295636 0.0844791 -0.29468
O_ O_ 0.224116 0.184978 0.429033 -0.58347
O_ O_ 0.207625 0.181911 0.382142 -0.58347
O_ O_ 0.140201 0.253151 0.433362 -0.58347
O_ O_ 0.130604 0.259234 0.387497 -0.58347
O_ O_ 0.157011 0.103183 0.421911 -0.58347
O_ O_ 0.132059 0.11214 0.376365 -0.58347
O_ O_ 0.0709281 0.171687 0.428335 -0.58347
O_ O_ 0.0584168 0.187544 0.383195 -0.58347
O_ O_ 0.0610944 0.204808 0.0758838 -0.46727
O_ O_ 0.235853 0.192446 0.0882306 -0.46727
O_ O_ 0.0319819 0.199979 0.222035 -0.46727
O_ O_ 0.199409 0.159505 0.235633 -0.46727
O_ O_ 0.28265 0.327657 0.180942 -0.58347
O_ O_ 0.290889 0.294772 0.137906 -0.58347
O_ O_ 0.353053 0.239592 0.184799 -0.58347
O_ O_ 0.375232 0.231531 0.139676 -0.58347
O_ O_ 0.368121 0.391106 0.176941 -0.58347
O_ O_ 0.357509 0.380794 0.130191 -0.58347
O_ O_ 0.430876 0.306163 0.177899 -0.58347
O_ O_ 0.438427 0.311462 0.132213 -0.58347
O_ O_ 0.429107 0.27955 0.32667 -0.46727
O_ O_ 0.259135 0.325415 0.337153 -0.46727
O_ O_ 0.472713 0.314965 0.472381 -0.46727
O_ O_ 0.30562 0.367067 0.485409 -0.46727
Zn Zn 0.129264 0.182785 0.881057 0.90689
Zn Zn 0.144971 0.18153 0.928017 0.90689
Zn Zn 0.381357 0.318062 0.632358 0.90689
Zn Zn 0.36959 0.32497 0.680043 0.90689
H_ H_ 0.30513 0.217441 0.941501 0.11455
H_ H_ 0.380985 0.174859 0.847918 0.11455
H_ H_ 0.283454 0.182391 0.853593 0.11455
H_ H_ 0.393189 0.21561 0.962831 0.11455
H_ H_ 0.482385 0.19993 0.95983 0.11455
H_ H_ 0.464698 0.167565 0.870509 0.11455
H_ H_ 0.130832 0.0179998 0.93796 0.11455
H_ H_ 0.142261 0.434107 0.846191 0.11455
H_ H_ 0.171938 0.0289028 0.849344 0.11455
H_ H_ 0.0991736 0.433203 0.961659 0.11455
H_ H_ 0.114321 0.340766 0.960094 0.11455
H_ H_ 0.134887 0.352117 0.868947 0.11455
H_ H_ 0.0981909 0.101362 0.96075 0.11455
H_ H_ 0.0909188 0.0760228 0.51323 0.11455
H_ H_ 0.120113 0.1241 0.553361 0.11455
H_ H_ 0.185878 0.254303 0.975472 0.11455
H_ H_ 0.233257 0.302726 0.505958 0.11455
H_ H_ 0.206792 0.29333 0.555898 0.11455
H_ H_ 0.0288357 0.23275 0.619752 0.11455
H_ H_ 0.0106242 0.207879 0.669357 0.11455
H_ H_ 0.278846 0.17563 0.638146 0.11455
H_ H_ 0.263978 0.171779 0.690819 0.11455
H_ H_ 0.0620552 0.0984765 0.745208 0.11455
H_ H_ 0.0477668 0.0735798 0.793416 0.11455
H_ H_ 0.082026 0.11684 0.834236 0.11455
H_ H_ 0.143704 0.258438 0.755596 0.11455
H_ H_ 0.179625 0.303637 0.798776 0.11455
H_ H_ 0.177895 0.262874 0.844862 0.11455
H_ H_ 0.200698 0.319338 0.694175 0.11455
H_ H_ 0.138495 0.331216 0.593383 0.11455
H_ H_ 0.231891 0.336735 0.603362 0.11455
H_ H_ 0.1144 0.318755 0.710734 0.11455
H_ H_ 0.0226228 0.324698 0.705224 0.11455
H_ H_ 0.0471918 0.344105 0.612209 0.11455
H_ H_ 0.384012 0.48708 0.694053 0.11455
H_ H_ 0.390076 0.0636897 0.594946 0.11455
H_ H_ 0.334801 0.470929 0.608609 0.11455
H_ H_ 0.350435 0.0661628 0.710505 0.11455
H_ H_ 0.358067 0.163327 0.707052 0.11455
H_ H_ 0.401023 0.146023 0.619761 0.11455
H_ H_ 0.422512 0.388933 0.716334 0.11455
H_ H_ 0.433595 0.423028 0.764696 0.11455
H_ H_ 0.394313 0.380585 0.80482 0.11455
H_ H_ 0.316308 0.257029 0.722141 0.11455
H_ H_ 0.262055 0.216933 0.763663 0.11455
H_ H_ 0.279127 0.240883 0.814541 0.11455
H_ H_ 0.47775 0.298541 0.870121 0.11455
H_ H_ 0.495284 0.3056 0.920299 0.11455
H_ H_ 0.228237 0.334125 0.892666 0.11455
H_ H_ 0.245914 0.339119 0.94428 0.11455
H_ H_ 0.425412 0.420654 0.00590945 0.11455
H_ H_ 0.448926 0.445469 0.550928 0.11455
H_ H_ 0.428785 0.382121 0.589402 0.11455
H_ H_ 0.347639 0.260768 0.50484 0.11455
H_ H_ 0.310835 0.211431 0.546165 0.11455
H_ H_ 0.333503 0.235863 0.596547 0.11455
C_ C_ 0.23473 0.197269 0.903429 0.68181
C_ C_ 0.291365 0.196953 0.898878 -0.05681
C_ C_ 0.322215 0.201088 0.923261 -0.08735
C_ C_ 0.373997 0.19616 0.919837 -0.05681
C_ C_ 0.395534 0.185362 0.893606 -0.05681
C_ C_ 0.364672 0.181773 0.86859 -0.08735
C_ C_ 0.30993 0.186746 0.871523 -0.08735
C_ C_ 0.407245 0.20178 0.943093 -0.08735
C_ C_ 0.459708 0.192468 0.940751 -0.08735
C_ C_ 0.480999 0.182629 0.914066 -0.05681
C_ C_ 0.448053 0.180725 0.890113 -0.08735
C_ C_ 0.129939 0.284023 0.91138 0.68181
C_ C_ 0.142598 0.086024 0.895132 0.68181
C_ C_ 0.152786 0.0306864 0.893642 -0.05681
C_ C_ 0.123794 0.49887 0.921717 -0.08735
C_ C_ 0.12237 0.44639 0.919148 -0.05681
C_ C_ 0.131411 0.42267 0.891948 -0.05681
C_ C_ 0.142025 0.451876 0.867091 -0.08735
C_ C_ 0.142103 0.505091 0.869914 -0.08735
C_ C_ 0.104847 0.415167 0.941882 -0.08735
C_ C_ 0.114888 0.362963 0.94088 -0.08735
C_ C_ 0.126566 0.34012 0.91379 -0.05681
C_ C_ 0.134654 0.370814 0.890188 -0.08735
C_ C_ 0.037749 0.181396 0.905453 0.68181
C_ C_ 0.110009 0.121713 0.980239 0.1947
C_ C_ 0.104575 0.114055 0.508994 -0.08735
C_ C_ 0.124728 0.141117 0.532742 -0.08735
C_ C_ 0.154465 0.18304 0.527789 -0.05681
C_ C_ 0.166376 0.195302 0.498555 0.18498
C_ C_ 0.170556 0.245497 0.996632 -0.08735
C_ C_ 0.21342 0.268937 0.512388 -0.08735
C_ C_ 0.200766 0.261439 0.540811 -0.08735
C_ C_ 0.173507 0.215993 0.548966 0.18498
C_ C_ 0.204216 0.196296 0.598193 0.44287
C_ C_ 0.116754 0.21578 0.592358 0.44287
C_ C_ 0.107809 0.21045 0.621858 -0.05681
C_ C_ 0.0586985 0.217219 0.633482 -0.08735
C_ C_ 0.0485358 0.206662 0.661678 -0.08735
C_ C_ 0.0903847 0.197059 0.68011 -0.05681
C_ C_ 0.140022 0.189468 0.668829 -0.05681
C_ C_ 0.149554 0.199642 0.640061 -0.05681
C_ C_ 0.197517 0.191079 0.627537 -0.05681
C_ C_ 0.238754 0.180434 0.645729 -0.08735
C_ C_ 0.229803 0.176509 0.67532 -0.08735
C_ C_ 0.18066 0.178477 0.686606 -0.05681
C_ C_ 0.170452 0.171703 0.715978 0.44287
C_ C_ 0.0824725 0.189859 0.708862 0.44287
C_ C_ 0.110271 0.162227 0.755246 0.18498
C_ C_ 0.0830485 0.118141 0.761282 -0.08735
C_ C_ 0.0693157 0.106385 0.789854 -0.08735
C_ C_ 0.0904844 0.129794 0.812426 -0.08735
C_ C_ 0.118418 0.174173 0.809297 0.18498
C_ C_ 0.12789 0.191354 0.779596 -0.05681
C_ C_ 0.145019 0.24167 0.776311 -0.08735
C_ C_ 0.158488 0.268873 0.80097 -0.08735
C_ C_ 0.155602 0.24713 0.828293 0.1947
C_ C_ 0.277158 0.322496 0.654752 0.68181
C_ C_ 0.221976 0.328302 0.648993 -0.05681
C_ C_ 0.186272 0.327551 0.672083 -0.08735
C_ C_ 0.134123 0.328727 0.666822 -0.05681
C_ C_ 0.115911 0.331731 0.638453 -0.05681
C_ C_ 0.151555 0.333617 0.615282 -0.08735
C_ C_ 0.203524 0.333982 0.620692 -0.08735
C_ C_ 0.0994507 0.320876 0.689545 -0.08735
C_ C_ 0.0476811 0.328927 0.686419 -0.08735
C_ C_ 0.0291804 0.33509 0.658965 -0.05681
C_ C_ 0.0632478 0.338316 0.634385 -0.08735
C_ C_ 0.37914 0.220171 0.660661 0.68181
C_ C_ 0.371997 0.417846 0.651281 0.68181
C_ C_ 0.375149 0.4734 0.649189 -0.05681
C_ C_ 0.378231 0.003216 0.671338 -0.08735
C_ C_ 0.379702 0.0564581 0.668156 -0.05681
C_ C_ 0.381783 0.0799565 0.6403 -0.05681
C_ C_ 0.386569 0.047156 0.617109 -0.08735
C_ C_ 0.354793 0.494822 0.623797 -0.08735
C_ C_ 0.365782 0.0871265 0.692065 -0.08735
C_ C_ 0.360412 0.140151 0.688341 -0.08735
C_ C_ 0.370283 0.163766 0.661651 -0.05681
C_ C_ 0.383766 0.132421 0.63772 -0.08735
C_ C_ 0.475283 0.324665 0.658329 0.68181
C_ C_ 0.397431 0.376617 0.732342 0.1947
C_ C_ 0.408964 0.392028 0.760454 -0.08735
C_ C_ 0.387846 0.368129 0.783489 -0.08735
C_ C_ 0.357319 0.325804 0.779499 -0.05681
C_ C_ 0.348841 0.307429 0.750759 0.18498
C_ C_ 0.320293 0.264524 0.745465 -0.08735
C_ C_ 0.291367 0.244204 0.768597 -0.08735
C_ C_ 0.298585 0.260923 0.796225 -0.08735
C_ C_ 0.330815 0.302729 0.80246 0.18498
C_ C_ 0.298408 0.319624 0.851683 0.44287
C_ C_ 0.386673 0.30633 0.843496 0.44287
C_ C_ 0.397689 0.316101 0.872504 -0.05681
C_ C_ 0.449382 0.314618 0.882973 -0.08735
C_ C_ 0.458383 0.31746 0.91281 -0.08735
C_ C_ 0.417457 0.320207 0.932332 -0.05681
C_ C_ 0.368527 0.323536 0.922664 -0.05681
C_ C_ 0.358099 0.320443 0.892823 -0.05681
C_ C_ 0.307434 0.320153 0.882128 -0.05681
C_ C_ 0.267657 0.328907 0.901509 -0.08735
C_ C_ 0.276872 0.330763 0.930823 -0.08735
C_ C_ 0.326141 0.330523 0.942425 -0.05681
C_ C_ 0.336985 0.335509 0.972301 0.44287
C_ C_ 0.425551 0.328593 0.961918 0.44287
C_ C_ 0.399335 0.348625 0.509402 0.18498
C_ C_ 0.418393 0.396841 0.51619 -0.08735
C_ C_ 0.430233 0.408104 0.545224 -0.08735
C_ C_ 0.416679 0.375417 0.566979 -0.08735
C_ C_ 0.391007 0.331762 0.561213 0.18498
C_ C_ 0.381977 0.318642 0.532435 -0.05681
C_ C_ 0.352398 0.273896 0.52689 -0.08735
C_ C_ 0.333995 0.244189 0.549681 -0.08735
C_ C_ 0.343062 0.259945 0.577657 0.1947
N_ N_ 0.135935 0.168395 0.976802 -0.29468
N_ N_ 0.163775 0.208487 0.580271 -0.17154
N_ N_ 0.121882 0.174855 0.726314 -0.17154
N_ N_ 0.134863 0.20151 0.832544 -0.29468
N_ N_ 0.369057 0.334994 0.728292 -0.29468
N_ N_ 0.338728 0.315211 0.833093 -0.17154
N_ N_ 0.386807 0.334212 0.980844 -0.17154
N_ N_ 0.370763 0.3031 0.583027 -0.29468
O_ O_ 0.216661 0.186518 0.926899 -0.58347
O_ O_ 0.205367 0.194701 0.881519 -0.58347
O_ O_ 0.140726 0.256932 0.933326 -0.58347
O_ O_ 0.12226 0.260989 0.888107 -0.58347
O_ O_ 0.145921 0.105766 0.919565 -0.58347
O_ O_ 0.139302 0.112529 0.872311 -0.58347
O_ O_ 0.0681237 0.177343 0.926977 -0.58347
O_ O_ 0.0551706 0.177715 0.880045 -0.58347
O_ O_ 0.0774375 0.220844 0.57533 -0.46727
O_ O_ 0.244987 0.18113 0.585631 -0.46727
O_ O_ 0.0388193 0.202292 0.720246 -0.46727
O_ O_ 0.205442 0.158339 0.734135 -0.46727
O_ O_ 0.293361 0.327396 0.680541 -0.58347
O_ O_ 0.306688 0.306876 0.635428 -0.58347
O_ O_ 0.368867 0.249404 0.682348 -0.58347
O_ O_ 0.392917 0.241815 0.638202 -0.58347
O_ O_ 0.365434 0.396335 0.675401 -0.58347
O_ O_ 0.37271 0.391945 0.628557 -0.58347
O_ O_ 0.446492 0.324691 0.679779 -0.58347
O_ O_ 0.457025 0.325388 0.632674 -0.58347
O_ O_ 0.421643 0.288522 0.826415 -0.46727
O_ O_ 0.252228 0.321889 0.840223 -0.46727
O_ O_ 0.472944 0.327372 0.971263 -0.46727
O_ O_ 0.301366 0.351112 0.989706 -0.46727
Zn Zn 0.117322 0.685356 0.38115 0.90689
Zn Zn 0.128563 0.676745 0.42846 0.90689
Zn Zn 0.363778 0.807629 0.132606 0.90689
Zn Zn 0.353009 0.814722 0.182264 0.90689
H_ H_ 0.297942 0.694077 0.447014 0.11455
H_ H_ 0.366912 0.671296 0.347856 0.11455
H_ H_ 0.271535 0.672642 0.357534 0.11455
H_ H_ 0.386864 0.708088 0.464454 0.11455
H_ H_ 0.477975 0.705087 0.453229 0.11455
H_ H_ 0.450008 0.661542 0.367346 0.11455
H_ H_ 0.138478 0.514722 0.438616 0.11455
H_ H_ 0.124244 0.934607 0.346882 0.11455
H_ H_ 0.108497 0.519181 0.346 0.11455
H_ H_ 0.125008 0.929831 0.465272 0.11455
H_ H_ 0.13347 0.838398 0.46136 0.11455
H_ H_ 0.130777 0.847235 0.368887 0.11455
H_ H_ 0.0679962 0.607094 0.464302 0.11455
H_ H_ 0.062804 0.578701 0.0134554 0.11455
H_ H_ 0.096274 0.628732 0.0540702 0.11455
H_ H_ 0.191187 0.734111 0.47281 0.11455
H_ H_ 0.223701 0.800463 0.0137854 0.11455
H_ H_ 0.210165 0.776219 0.0605581 0.11455
H_ H_ 0.0064311 0.693468 0.12148 0.11455
H_ H_ -0.00446645 0.695241 0.172198 0.11455
H_ H_ 0.257439 0.663398 0.139274 0.11455
H_ H_ 0.24744 0.662407 0.190784 0.11455
H_ H_ 0.0539835 0.600851 0.250396 0.11455
H_ H_ 0.0232813 0.588561 0.298714 0.11455
H_ H_ 0.0600109 0.630185 0.339605 0.11455
H_ H_ 0.16033 0.745815 0.256311 0.11455
H_ H_ 0.191224 0.794238 0.296349 0.11455
H_ H_ 0.177348 0.768136 0.344936 0.11455
H_ H_ 0.180595 0.792768 0.197352 0.11455
H_ H_ 0.122187 0.848052 0.099684 0.11455
H_ H_ 0.212071 0.844123 0.112991 0.11455
H_ H_ 0.0973156 0.815487 0.213499 0.11455
H_ H_ 0.00730278 0.831984 0.208087 0.11455
H_ H_ 0.0334046 0.835715 0.11716 0.11455
H_ H_ 0.348474 0.975613 0.192834 0.11455
H_ H_ 0.343347 0.558175 0.1015 0.11455
H_ H_ 0.353665 0.963939 0.101146 0.11455
H_ H_ 0.409888 0.564595 0.21586 0.11455
H_ H_ 0.408361 0.657515 0.210097 0.11455
H_ H_ 0.342389 0.641554 0.127771 0.11455
H_ H_ 0.416733 0.896087 0.214721 0.11455
H_ H_ 0.431868 0.926659 0.265333 0.11455
H_ H_ 0.400836 0.876853 0.305252 0.11455
H_ H_ 0.295228 0.770052 0.223125 0.11455
H_ H_ 0.264498 0.709962 0.262056 0.11455
H_ H_ 0.302606 0.716189 0.310242 0.11455
H_ H_ 0.483914 0.823236 0.37239 0.11455
H_ H_ 0.494493 0.820404 0.425062 0.11455
H_ H_ 0.230325 0.813729 0.390678 0.11455
H_ H_ 0.241011 0.823647 0.441847 0.11455
H_ H_ 0.442991 0.905354 0.498692 0.11455
H_ H_ 0.439921 0.933323 0.0502933 0.11455
H_ H_ 0.417663 0.87115 0.088063 0.11455
H_ H_ 0.341062 0.748397 0.00377053 0.11455
H_ H_ 0.293649 0.710418 0.0429565 0.11455
H_ H_ 0.309608 0.730205 0.0923939 0.11455
C_ C_ 0.223999 0.676764 0.405209 0.68181
C_ C_ 0.280167 0.68077 0.401872 -0.05681
C_ C_ 0.313528 0.690104 0.425217 -0.08735
C_ C_ 0.366292 0.684715 0.420924 -0.05681
C_ C_ 0.385717 0.673128 0.392457 -0.05681
C_ C_ 0.351767 0.677095 0.369516 -0.08735
C_ C_ 0.298934 0.674346 0.374601 -0.08735
C_ C_ 0.399472 0.689726 0.443892 -0.08735
C_ C_ 0.451652 0.688287 0.438292 -0.08735
C_ C_ 0.470592 0.679199 0.41069 -0.05681
C_ C_ 0.436179 0.669891 0.388464 -0.08735
C_ C_ 0.121803 0.778201 0.413041 0.68181
C_ C_ 0.120538 0.58306 0.39686 0.68181
C_ C_ 0.12372 0.524263 0.394198 -0.05681
C_ C_ 0.133058 0.996486 0.420816 -0.08735
C_ C_ 0.128042 0.943738 0.418943 -0.05681
C_ C_ 0.131096 0.91923 0.39189 -0.05681
C_ C_ 0.131892 0.949724 0.367659 -0.08735
C_ C_ 0.13568 1.00182862 0.368265 -0.08735
C_ C_ 0.132081 0.913977 0.444017 -0.08735
C_ C_ 0.129602 0.861546 0.441942 -0.08735
C_ C_ 0.12712 0.835726 0.414631 -0.05681
C_ C_ 0.127246 0.865657 0.390065 -0.08735
C_ C_ 0.0247109 0.684714 0.406135 0.68181
C_ C_ 0.0923005 0.619646 0.481346 0.1947
C_ C_ 0.0869221 0.612129 0.010509 -0.08735
C_ C_ 0.105167 0.639985 0.0330079 -0.08735
C_ C_ 0.135631 0.683486 0.0288398 -0.05681
C_ C_ 0.148187 0.697222 1.000255384 0.18498
C_ C_ 0.18159 0.720717 0.493526 -0.08735
C_ C_ 0.197956 0.767774 0.0165159 -0.08735
C_ C_ 0.188232 0.755013 0.0451496 -0.08735
C_ C_ 0.156164 0.713028 0.0527204 0.18498
C_ C_ 0.187222 0.685506 0.099103 0.44287
C_ C_ 0.0998803 0.700024 0.092841 0.44287
C_ C_ 0.0905746 0.693675 0.122691 -0.05681
C_ C_ 0.0410817 0.697751 0.134451 -0.08735
C_ C_ 0.0339695 0.693032 0.163537 -0.08735
C_ C_ 0.0763058 0.692988 0.1833 -0.05681
C_ C_ 0.125115 0.687138 0.171298 -0.05681
C_ C_ 0.132065 0.685579 0.140901 -0.05681
C_ C_ 0.182089 0.682159 0.129027 -0.05681
C_ C_ 0.222932 0.677182 0.147429 -0.08735
C_ C_ 0.216089 0.674538 0.177497 -0.08735
C_ C_ 0.166853 0.678015 0.188865 -0.05681
C_ C_ 0.156254 0.66991 0.218144 0.44287
C_ C_ 0.0708456 0.693722 0.213835 0.44287
C_ C_ 0.096589 0.668133 0.260028 0.18498
C_ C_ 0.0666568 0.624736 0.266581 -0.08735
C_ C_ 0.0539444 0.612819 0.295591 -0.08735
C_ C_ 0.0711052 0.642331 0.317605 -0.08735
C_ C_ 0.101332 0.68418 0.312586 0.18498
C_ C_ 0.112075 0.6981 0.28316 -0.05681
C_ C_ 0.148539 0.736613 0.277428 -0.08735
C_ C_ 0.170451 0.760354 0.300894 -0.08735
C_ C_ 0.160896 0.745173 0.328602 0.1947
C_ C_ 0.258431 0.808682 0.157184 0.68181
C_ C_ 0.202261 0.807755 0.152932 -0.05681
C_ C_ 0.166726 0.799531 0.175434 -0.08735
C_ C_ 0.116658 0.811451 0.170814 -0.05681
C_ C_ 0.0970099 0.823397 0.142988 -0.05681
C_ C_ 0.13226 0.831211 0.12068 -0.08735
C_ C_ 0.184774 0.827145 0.125999 -0.08735
C_ C_ 0.0832241 0.8123 0.193152 -0.08735
C_ C_ 0.0333684 0.828201 0.189617 -0.08735
C_ C_ 0.013001 0.833477 0.162199 -0.05681
C_ C_ 0.0475255 0.837053 0.139193 -0.08735
C_ C_ 0.368608 0.711615 0.166689 0.68181
C_ C_ 0.350337 0.906768 0.148718 0.68181
C_ C_ 0.354494 0.964451 0.146147 -0.05681
C_ C_ 0.389674 0.495164 0.172436 -0.08735
C_ C_ 0.386607 0.548062 0.171578 -0.05681
C_ C_ 0.368071 0.569715 0.145786 -0.05681
C_ C_ 0.356936 0.540682 0.120955 -0.08735
C_ C_ 0.358962 -0.01116499999999998 0.119339 -0.08735
C_ C_ 0.401516 0.58024 0.194387 -0.08735
C_ C_ 0.395949 0.632366 0.192895 -0.08735
C_ C_ 0.371989 0.65462 0.168807 -0.05681
C_ C_ 0.358944 0.622401 0.145679 -0.08735
C_ C_ 0.456809 0.817288 0.15949 0.68181
C_ C_ 0.397894 0.876705 0.232983 0.1947
C_ C_ 0.407749 0.894463 0.261308 -0.08735
C_ C_ 0.385718 0.867616 0.284181 -0.08735
C_ C_ 0.352955 0.824823 0.279969 -0.05681
C_ C_ 0.342776 0.813416 0.251116 0.18498
C_ C_ 0.306415 0.777125 0.245267 -0.08735
C_ C_ 0.292187 0.740528 0.266366 -0.08735
C_ C_ 0.312144 0.745707 0.293412 -0.08735
C_ C_ 0.337569 0.790739 0.302143 0.18498
C_ C_ 0.305364 0.814345 0.350266 0.44287
C_ C_ 0.393686 0.797342 0.344942 0.44287
C_ C_ 0.402404 0.812322 0.374224 -0.05681
C_ C_ 0.450958 0.815701 0.386313 -0.08735
C_ C_ 0.457308 0.816444 0.415846 -0.08735
C_ C_ 0.414668 0.819407 0.434147 -0.05681
C_ C_ 0.36688 0.819044 0.422804 -0.05681
C_ C_ 0.361373 0.814792 0.392925 -0.05681
C_ C_ 0.312453 0.81087 0.381292 -0.05681
C_ C_ 0.269604 0.813066 0.399684 -0.08735
C_ C_ 0.275268 0.818852 0.428883 -0.08735
C_ C_ 0.324667 0.822346 0.441298 -0.05681
C_ C_ 0.333604 0.835352 0.470429 0.44287
C_ C_ 0.422149 0.822955 0.464023 0.44287
C_ C_ 0.398916 0.836359 0.00883506 0.18498
C_ C_ 0.413919 0.88459 0.0166457 -0.08735
C_ C_ 0.4244 0.894488 0.0445645 -0.08735
C_ C_ 0.418265 0.858041 0.066905 -0.08735
C_ C_ 0.387827 0.816547 0.0608593 0.18498
C_ C_ 0.38348 0.800579 0.0311017 -0.05681
C_ C_ 0.352876 0.757799 0.0249109 -0.08735
C_ C_ 0.326002 0.734423 0.0470906 -0.08735
C_ C_ 0.332952 0.750053 0.0757385 0.1947
N_ N_ 0.123916 0.658596 0.476499 -0.29468
N_ N_ 0.148053 0.698029 0.0815192 -0.17154
N_ N_ 0.109483 0.679419 0.230503 -0.17154
N_ N_ 0.126373 0.708461 0.334865 -0.29468
N_ N_ 0.365716 0.83621 0.228271 -0.29468
N_ N_ 0.345819 0.801657 0.33297 -0.17154
N_ N_ 0.381911 0.830418 0.481508 -0.17154
N_ N_ 0.363238 0.790743 0.0822077 -0.29468
O_ O_ 0.202997 0.671582 0.429352 -0.58347
O_ O_ 0.195223 0.690764 0.383977 -0.58347
O_ O_ 0.135543 0.751291 0.434041 -0.58347
O_ O_ 0.108447 0.757423 0.389629 -0.58347
O_ O_ 0.118611 0.603138 0.421034 -0.58347
O_ O_ 0.129324 0.610487 0.374895 -0.58347
O_ O_ 0.0526021 0.684457 0.428491 -0.58347
O_ O_ 0.0438338 0.678976 0.38216 -0.58347
O_ O_ 0.0627188 0.718489 0.0772472 -0.46727
O_ O_ 0.232744 0.675202 0.0880831 -0.46727
O_ O_ 0.0298422 0.712128 0.224776 -0.46727
O_ O_ 0.19446 0.659468 0.23632 -0.46727
O_ O_ 0.278455 0.81438 0.182599 -0.58347
O_ O_ 0.286712 0.802673 0.135335 -0.58347
O_ O_ 0.359174 0.738143 0.188427 -0.58347
O_ O_ 0.371179 0.733405 0.141727 -0.58347
O_ O_ 0.349025 0.887333 0.172602 -0.58347
O_ O_ 0.35323 0.879496 0.126245 -0.58347
O_ O_ 0.426865 0.821938 0.180551 -0.58347
O_ O_ 0.439017 0.817005 0.133698 -0.58347
O_ O_ 0.432365 0.781138 0.328398 -0.46727
O_ O_ 0.259187 0.822586 0.339427 -0.46727
O_ O_ 0.46583 0.80978 0.475508 -0.46727
O_ O_ 0.29619 0.853169 0.487458 -0.46727
Zn Zn 0.126506 0.687613 0.880329 0.90689
Zn Zn 0.133208 0.683026 0.928922 0.90689
Zn Zn 0.377484 0.815244 0.633324 0.90689
Zn Zn 0.363199 0.820902 0.681951 0.90689
H_ H_ 0.30712 0.695159 0.946256 0.11455
H_ H_ 0.37269 0.657291 0.849233 0.11455
H_ H_ 0.279971 0.671488 0.854082 0.11455
H_ H_ 0.392641 0.705605 0.963409 0.11455
H_ H_ 0.480587 0.669903 0.957613 0.11455
H_ H_ 0.466399 0.655809 0.869278 0.11455
H_ H_ 0.122392 0.518086 0.94251 0.11455
H_ H_ 0.171971 0.936737 0.846252 0.11455
H_ H_ 0.158304 0.5264 0.853751 0.11455
H_ H_ 0.123076 0.934427 0.962727 0.11455
H_ H_ 0.115232 0.843349 0.95829 0.11455
H_ H_ 0.152247 0.857687 0.86866 0.11455
H_ H_ 0.078635 0.610018 0.96389 0.11455
H_ H_ 0.0561989 0.575784 0.513897 0.11455
H_ H_ 0.109973 0.607042 0.554659 0.11455
H_ H_ 0.182941 0.748258 0.972768 0.11455
H_ H_ 0.214223 0.788196 0.512902 0.11455
H_ H_ 0.211345 0.752789 0.561411 0.11455
H_ H_ 1.0132618 0.703003 0.623917 0.11455
H_ H_ 1.00180181 0.685655 0.675546 0.11455
H_ H_ 0.262408 0.652121 0.636486 0.11455
H_ H_ 0.252632 0.649444 0.689228 0.11455
H_ H_ 0.0866985 0.578273 0.750882 0.11455
H_ H_ 0.0553114 0.558114 0.800262 0.11455
H_ H_ 0.0795838 0.617608 0.83919 0.11455
H_ H_ 0.138927 0.753938 0.753287 0.11455
H_ H_ 0.192674 0.79365 0.795911 0.11455
H_ H_ 0.186702 0.75865 0.842628 0.11455
H_ H_ 0.200998 0.816957 0.694318 0.11455
H_ H_ 0.128592 0.829063 0.595315 0.11455
H_ H_ 0.227995 0.827012 0.60147 0.11455
H_ H_ 0.118136 0.821914 0.714005 0.11455
H_ H_ 0.0256604 0.814592 0.708483 0.11455
H_ H_ 0.0446821 0.818915 0.615446 0.11455
H_ H_ 0.374326 0.987341 0.692187 0.11455
H_ H_ 0.325221 0.561961 0.604902 0.11455
H_ H_ 0.382026 0.973068 0.600261 0.11455
H_ H_ 0.401998 0.574498 0.715391 0.11455
H_ H_ 0.387319 0.665906 0.711033 0.11455
H_ H_ 0.363235 0.64886 0.620483 0.11455
H_ H_ 0.425704 0.88584 0.719056 0.11455
H_ H_ 0.425068 0.92182 0.766016 0.11455
H_ H_ 0.397399 0.868562 0.807221 0.11455
H_ H_ 0.305872 0.749976 0.72254 0.11455
H_ H_ 0.292924 0.684912 0.756576 0.11455
H_ H_ 0.309398 0.705271 0.808681 0.11455
H_ H_ 0.483656 0.767023 0.873779 0.11455
H_ H_ 0.50007 0.791649 0.923787 0.11455
H_ H_ 0.24458 0.852163 0.882413 0.11455
H_ H_ 0.255444 0.860061 0.936328 0.11455
H_ H_ 0.422358 0.915638 1.00025 0.11455
H_ H_ 0.461754 0.931366 0.548625 0.11455
H_ H_ 0.432407 0.878263 0.59015 0.11455
H_ H_ 0.338863 0.760336 0.509323 0.11455
H_ H_ 0.30076 0.712171 0.552342 0.11455
H_ H_ 0.321813 0.740425 0.59853 0.11455
C_ C_ 0.22985 0.686776 0.904927 0.68181
C_ C_ 0.286668 0.67797 0.901665 -0.05681
C_ C_ 0.320601 0.684749 0.925167 -0.08735
C_ C_ 0.372961 0.682307 0.920175 -0.05681
C_ C_ 0.392496 0.669459 0.893118 -0.05681
C_ C_ 0.357819 0.663613 0.87 -0.08735
C_ C_ 0.305031 0.668772 0.872882 -0.08735
C_ C_ 0.404537 0.684813 0.943485 -0.08735
C_ C_ 0.454329 0.669633 0.939756 -0.08735
C_ C_ 0.477432 0.66709 0.914205 -0.05681
C_ C_ 0.445938 0.663373 0.889888 -0.08735
C_ C_ 0.124934 0.787597 0.909414 0.68181
C_ C_ 0.14144 0.586109 0.900942 0.68181
C_ C_ 0.139681 0.52865 0.89735 -0.05681
C_ C_ 0.138201 0.999667 0.91753 -0.08735
C_ C_ 0.139537 0.947716 0.916366 -0.05681
C_ C_ 0.147603 0.926022 0.89052 -0.05681
C_ C_ 0.163778 0.953706 0.866545 -0.08735
C_ C_ 0.166042 0.00672152 0.868212 -0.08735
C_ C_ 0.133758 0.916262 0.941767 -0.08735
C_ C_ 0.132733 0.864114 0.939557 -0.08735
C_ C_ 0.128916 0.842305 0.912338 -0.05681
C_ C_ 0.141814 0.873848 0.888444 -0.08735
C_ C_ 0.0316665 0.673155 0.905308 0.68181
C_ C_ 0.0944761 0.630418 0.982919 0.1947
C_ C_ 0.0893815 0.598435 0.508411 -0.08735
C_ C_ 0.116538 0.618932 0.532355 -0.08735
C_ C_ 0.140153 0.664406 0.52747 -0.05681
C_ C_ 0.150716 0.679865 0.498605 0.18498
C_ C_ 0.178063 0.73795 0.994698 -0.08735
C_ C_ 0.19554 0.752259 0.515846 -0.08735
C_ C_ 0.190998 0.735455 0.544581 -0.08735
C_ C_ 0.158781 0.695962 0.551306 0.18498
C_ C_ 0.187305 0.66809 0.598494 0.44287
C_ C_ 0.101197 0.692482 0.592706 0.44287
C_ C_ 0.0935834 0.688594 0.623268 -0.05681
C_ C_ 0.045294 0.692044 0.636883 -0.08735
C_ C_ 0.0381283 0.685829 0.666312 -0.08735
C_ C_ 0.0820429 0.681159 0.683917 -0.05681
C_ C_ 0.130435 0.684802 0.67132 -0.05681
C_ C_ 0.13713 0.6839 0.641297 -0.05681
C_ C_ 0.185221 0.674862 0.628856 -0.05681
C_ C_ 0.225857 0.661794 0.646219 -0.08735
C_ C_ 0.219935 0.659557 0.676625 -0.08735
C_ C_ 0.172177 0.669705 0.688992 -0.05681
C_ C_ 0.163838 0.654346 0.717785 0.44287
C_ C_ 0.0773623 0.676991 0.713935 0.44287
C_ C_ 0.111155 0.652406 0.760602 0.18498
C_ C_ 0.0907265 0.605433 0.76829 -0.08735
C_ C_ 0.0747719 0.594015 0.796201 -0.08735
C_ C_ 0.0840964 0.629284 0.817244 -0.08735
C_ C_ 0.10706 0.675928 0.811294 0.18498
C_ C_ 0.113374 0.689683 0.782052 -0.05681
C_ C_ 0.139171 0.736982 0.77566 -0.08735
C_ C_ 0.167917 0.759328 0.797543 -0.08735
C_ C_ 0.164465 0.741134 0.826016 0.1947
C_ C_ 0.27388 0.821393 0.653609 0.68181
C_ C_ 0.21943 0.82407 0.64854 -0.05681
C_ C_ 0.185986 0.821777 0.671752 -0.08735
C_ C_ 0.134475 0.828747 0.668463 -0.05681
C_ C_ 0.113506 0.82511 0.640445 -0.05681
C_ C_ 0.145331 0.82569 0.616569 -0.08735
C_ C_ 0.199364 0.82378 0.61978 -0.08735
C_ C_ 0.10235 0.819631 0.69293 -0.08735
C_ C_ 0.050901 0.811916 0.688651 -0.08735
C_ C_ 0.0287866 0.815188 0.661216 -0.05681
C_ C_ 0.0617633 0.814442 0.63703 -0.08735
C_ C_ 0.375174 0.718893 0.663622 0.68181
C_ C_ 0.371508 0.915746 0.650078 0.68181
C_ C_ 0.379756 0.971748 0.646623 -0.05681
C_ C_ 0.380184 0.50473 0.673487 -0.08735
C_ C_ 0.382688 0.55813 0.670457 -0.05681
C_ C_ 0.369201 0.57973 0.644167 -0.05681
C_ C_ 0.351188 0.548791 0.621345 -0.08735
C_ C_ 0.381994 0.994881 0.619853 -0.08735
C_ C_ 0.39046 0.589673 0.694674 -0.08735
C_ C_ 0.386057 0.640902 0.693137 -0.08735
C_ C_ 0.376942 0.662512 0.66542 -0.05681
C_ C_ 0.372167 0.630911 0.640949 -0.08735
C_ C_ 0.468686 0.811851 0.66123 0.68181
C_ C_ 0.40099 0.870362 0.734673 0.1947
C_ C_ 0.405415 0.887275 0.762489 -0.08735
C_ C_ 0.38787 0.856163 0.785515 -0.08735
C_ C_ 0.359204 0.813478 0.77911 -0.05681
C_ C_ 0.347758 0.801334 0.74978 0.18498
C_ C_ 0.319268 0.758772 0.743361 -0.08735
C_ C_ 0.309231 0.720992 0.764614 -0.08735
C_ C_ 0.319459 0.733082 0.793838 -0.08735
C_ C_ 0.345079 0.777417 0.801327 0.18498
C_ C_ 0.312069 0.80622 0.848328 0.44287
C_ C_ 0.397833 0.780492 0.844857 0.44287
C_ C_ 0.408146 0.797169 0.872614 -0.05681
C_ C_ 0.454973 0.789822 0.884587 -0.08735
C_ C_ 0.462836 0.797802 0.914551 -0.08735
C_ C_ 0.421464 0.812365 0.931486 -0.05681
C_ C_ 0.373807 0.819298 0.919648 -0.05681
C_ C_ 0.365279 0.808045 0.88986 -0.05681
C_ C_ 0.317063 0.814049 0.877333 -0.05681
C_ C_ 0.28079 0.839608 0.893992 -0.08735
C_ C_ 0.287045 0.845914 0.923201 -0.08735
C_ C_ 0.333765 0.834939 0.936619 -0.05681
C_ C_ 0.341172 0.842297 0.965529 0.44287
C_ C_ 0.425802 0.811921 0.962283 0.44287
C_ C_ 0.394468 0.842422 0.511237 0.18498
C_ C_ 0.423165 0.886675 0.51674 -0.08735
C_ C_ 0.438358 0.898547 0.545148 -0.08735
C_ C_ 0.419818 0.868912 0.568029 -0.08735
C_ C_ 0.391277 0.825752 0.563584 0.18498
C_ C_ 0.38066 0.80937 0.534557 -0.05681
C_ C_ 0.345255 0.770164 0.531126 -0.08735
C_ C_ 0.327754 0.743352 0.553741 -0.08735
C_ C_ 0.339649 0.760969 0.581155 0.1947
N_ N_ 0.125344 0.671439 0.978525 -0.29468
N_ N_ 0.149089 0.681848 0.580998 -0.17154
N_ N_ 0.118102 0.663424 0.730129 -0.17154
N_ N_ 0.132115 0.701711 0.832562 -0.29468
N_ N_ 0.370335 0.828814 0.727954 -0.29468
N_ N_ 0.351986 0.788811 0.83196 -0.17154
N_ N_ 0.386257 0.828494 0.978715 -0.17154
N_ N_ 0.368491 0.802824 0.586216 -0.29468
O_ O_ 0.20989 0.693483 0.929036 -0.58347
O_ O_ 0.202175 0.68805 0.882735 -0.58347
O_ O_ 0.124191 0.759009 0.930722 -0.58347
O_ O_ 0.120032 0.766879 0.884726 -0.58347
O_ O_ 0.140241 0.606942 0.925906 -0.58347
O_ O_ 0.135968 0.613064 0.878429 -0.58347
O_ O_ 0.060717 0.673847 0.927428 -0.58347
O_ O_ 0.051193 0.680686 0.880797 -0.58347
O_ O_ 0.0637367 0.699845 0.574943 -0.46727
O_ O_ 0.231385 0.658738 0.58682 -0.46727
O_ O_ 0.032314 0.678574 0.726787 -0.46727
O_ O_ 0.204999 0.643106 0.733326 -0.46727
O_ O_ 0.291332 0.828692 0.678675 -0.58347
O_ O_ 0.302616 0.807946 0.63381 -0.58347
O_ O_ 0.359954 0.746528 0.68485 -0.58347
O_ O_ 0.383901 0.738573 0.639864 -0.58347
O_ O_ 0.366965 0.896806 0.675541 -0.58347
O_ O_ 0.37468 0.888047 0.627925 -0.58347
O_ O_ 0.437601 0.814101 0.682055 -0.58347
O_ O_ 0.453054 0.818755 0.635776 -0.58347
O_ O_ 0.436528 0.764142 0.828972 -0.46727
O_ O_ 0.266964 0.809532 0.83636 -0.46727
O_ O_ 0.46453 0.789543 0.974093 -0.46727
O_ O_ 0.307187 0.865668 0.981799 -0.46727
Zn Zn 0.631738 0.182717 0.38488 0.90689
Zn Zn 0.649341 0.181095 0.430819 0.90689
Zn Zn 0.866683 0.309799 0.13023 0.90689
Zn Zn 0.858505 0.320479 0.178135 0.90689
H_ H_ 0.817245 0.189055 0.449624 0.11455
H_ H_ 0.876355 0.177985 0.348473 0.11455
H_ H_ 0.787205 0.189917 0.356546 0.11455
H_ H_ 0.894906 0.179708 0.467294 0.11455
H_ H_ 0.990734 0.181378 0.458627 0.11455
H_ H_ 0.966615 0.172763 0.366721 0.11455
H_ H_ 0.643975 0.00962939 0.44561 0.11455
H_ H_ 0.642518 0.433798 0.344756 0.11455
H_ H_ 0.636212 0.0228009 0.353133 0.11455
H_ H_ 0.631715 0.434136 0.463647 0.11455
H_ H_ 0.632331 0.337614 0.459324 0.11455
H_ H_ 0.646031 0.352283 0.368249 0.11455
H_ H_ 0.581461 0.113491 0.466851 0.11455
H_ H_ 0.594127 0.0619656 0.0132911 0.11455
H_ H_ 0.625844 0.110308 0.0554744 0.11455
H_ H_ 0.704453 0.242183 0.474056 0.11455
H_ H_ 0.721261 0.300626 0.0155535 0.11455
H_ H_ 0.706024 0.276279 0.0655701 0.11455
H_ H_ 0.518609 0.183369 0.121589 0.11455
H_ H_ 0.50509 0.176674 0.172181 0.11455
H_ H_ 0.769084 0.188031 0.143295 0.11455
H_ H_ 0.758098 0.159357 0.193032 0.11455
H_ H_ 0.559176 0.0913539 0.251148 0.11455
H_ H_ 0.540161 0.068716 0.301474 0.11455
H_ H_ 0.583754 0.114082 0.341503 0.11455
H_ H_ 0.673873 0.234155 0.258235 0.11455
H_ H_ 0.706866 0.283397 0.299454 0.11455
H_ H_ 0.687207 0.251631 0.349334 0.11455
H_ H_ 0.688897 0.308495 0.195294 0.11455
H_ H_ 0.616525 0.317917 0.0942897 0.11455
H_ H_ 0.708139 0.318314 0.103199 0.11455
H_ H_ 0.60571 0.299006 0.213704 0.11455
H_ H_ 0.516216 0.293219 0.206703 0.11455
H_ H_ 0.534544 0.296695 0.115581 0.11455
H_ H_ 0.842666 0.480857 0.191198 0.11455
H_ H_ 0.827396 0.0642652 0.101861 0.11455
H_ H_ 0.844472 0.471185 0.0990106 0.11455
H_ H_ 0.896321 0.0706096 0.214387 0.11455
H_ H_ 0.909428 0.161717 0.20707 0.11455
H_ H_ 0.839885 0.146576 0.122514 0.11455
H_ H_ 0.902567 0.402916 0.211105 0.11455
H_ H_ 0.929046 0.429674 0.259168 0.11455
H_ H_ 0.891864 0.383196 0.301621 0.11455
H_ H_ 0.812535 0.254468 0.220064 0.11455
H_ H_ 0.796623 0.193102 0.258 0.11455
H_ H_ 0.801637 0.223056 0.307715 0.11455
H_ H_ 0.992987 0.284325 0.369489 0.11455
H_ H_ 0.004295 0.300415 0.419049 0.11455
H_ H_ 0.744321 0.348075 0.382823 0.11455
H_ H_ 0.755093 0.34589 0.434374 0.11455
H_ H_ 0.921966 0.408536 0.489537 0.11455
H_ H_ 0.955173 0.431953 0.0471123 0.11455
H_ H_ 0.921892 0.377478 0.0859306 0.11455
H_ H_ 0.83785 0.260733 0.000852269 0.11455
H_ H_ 0.806478 0.205607 0.0420407 0.11455
H_ H_ 0.824774 0.227075 0.0905455 0.11455
C_ C_ 0.739202 0.191497 0.409095 0.68181
C_ C_ 0.794843 0.187035 0.403462 -0.05681
C_ C_ 0.8291 0.184721 0.427692 -0.08735
C_ C_ 0.880744 0.18499 0.422711 -0.05681
C_ C_ 0.900664 0.184326 0.394461 -0.05681
C_ C_ 0.864523 0.18609 0.370471 -0.08735
C_ C_ 0.812849 0.19188 0.375557 -0.08735
C_ C_ 0.9132 0.184503 0.446485 -0.08735
C_ C_ 0.966361 0.178971 0.441012 -0.08735
C_ C_ 0.984477 0.178574 0.412333 -0.05681
C_ C_ 0.952797 0.179137 0.388087 -0.08735
C_ C_ 0.631522 0.283361 0.411352 0.68181
C_ C_ 0.647549 0.0834859 0.402821 0.68181
C_ C_ 0.648161 0.0276609 0.399632 -0.05681
C_ C_ 0.630965 0.499139 0.41865 -0.08735
C_ C_ 0.630919 0.446039 0.41701 -0.05681
C_ C_ 0.637056 0.422113 0.390945 -0.05681
C_ C_ 0.647631 0.450404 0.366772 -0.08735
C_ C_ 0.646967 0.503945 0.368765 -0.08735
C_ C_ 0.627479 0.415976 0.442023 -0.08735
C_ C_ 0.630511 0.361431 0.440438 -0.08735
C_ C_ 0.628416 0.338953 0.41353 -0.05681
C_ C_ 0.633174 0.368863 0.388337 -0.08735
C_ C_ 0.544333 0.185613 0.406129 0.68181
C_ C_ 0.600158 0.133893 0.484398 0.1947
C_ C_ 0.608767 0.100593 0.0107284 -0.08735
C_ C_ 0.627943 0.127672 0.0347886 -0.08735
C_ C_ 0.652672 0.174394 0.0304809 -0.05681
C_ C_ 0.659331 0.191182 1.000810698 0.18498
C_ C_ 0.692129 0.236382 0.495255 -0.08735
C_ C_ 0.705716 0.264777 0.0201366 -0.08735
C_ C_ 0.694681 0.251367 0.0480623 -0.08735
C_ C_ 0.667243 0.206366 0.0537654 0.18498
C_ C_ 0.698673 0.18207 0.100951 0.44287
C_ C_ 0.609619 0.187766 0.0938622 0.44287
C_ C_ 0.60139 0.179848 0.123075 -0.05681
C_ C_ 0.551973 0.17827 0.135406 -0.08735
C_ C_ 0.545415 0.177016 0.164746 -0.08735
C_ C_ 0.586299 0.171538 0.184059 -0.05681
C_ C_ 0.636368 0.168154 0.172977 -0.05681
C_ C_ 0.642264 0.17336 0.14212 -0.05681
C_ C_ 0.691377 0.176835 0.131141 -0.05681
C_ C_ 0.733273 0.172578 0.149549 -0.08735
C_ C_ 0.726216 0.162746 0.178076 -0.08735
C_ C_ 0.678335 0.161048 0.190688 -0.05681
C_ C_ 0.670856 0.155664 0.219614 0.44287
C_ C_ 0.581436 0.171125 0.213813 0.44287
C_ C_ 0.611595 0.149624 0.261641 0.18498
C_ C_ 0.579779 0.109793 0.268499 -0.08735
C_ C_ 0.572356 0.0933809 0.297429 -0.08735
C_ C_ 0.595023 0.120732 0.319555 -0.08735
C_ C_ 0.627936 0.161752 0.313698 0.18498
C_ C_ 0.63918 0.173739 0.284523 -0.05681
C_ C_ 0.669667 0.218438 0.279639 -0.08735
C_ C_ 0.68713 0.247177 0.303438 -0.08735
C_ C_ 0.676272 0.229099 0.331137 0.1947
C_ C_ 0.764152 0.310507 0.151103 0.68181
C_ C_ 0.70605 0.311738 0.148532 -0.05681
C_ C_ 0.673793 0.309734 0.172338 -0.08735
C_ C_ 0.622163 0.309251 0.169411 -0.05681
C_ C_ 0.600893 0.309397 0.141533 -0.05681
C_ C_ 0.632705 0.312772 0.116616 -0.08735
C_ C_ 0.683177 0.316116 0.121012 -0.08735
C_ C_ 0.590124 0.302985 0.192589 -0.08735
C_ C_ 0.538132 0.290657 0.187491 -0.08735
C_ C_ 0.515665 0.301493 0.16047 -0.05681
C_ C_ 0.548919 0.304318 0.137494 -0.08735
C_ C_ 0.873906 0.217652 0.160554 0.68181
C_ C_ 0.853705 0.41333 0.148078 0.68181
C_ C_ 0.853877 0.469411 0.145741 -0.05681
C_ C_ 0.867602 0.0026137 0.175396 -0.08735
C_ C_ 0.86789 0.0553284 0.171594 -0.05681
C_ C_ 0.85585 0.0785725 0.144265 -0.05681
C_ C_ 0.841977 0.0470225 0.121063 -0.08735
C_ C_ 0.850681 0.493864 0.118777 -0.08735
C_ C_ 0.885882 0.0855227 0.193832 -0.08735
C_ C_ 0.8919 0.137627 0.190076 -0.08735
C_ C_ 0.87571 0.161658 0.163592 -0.05681
C_ C_ 0.852055 0.130909 0.142957 -0.08735
C_ C_ 0.961935 0.315621 0.15601 0.68181
C_ C_ 0.891816 0.380743 0.229242 0.1947
C_ C_ 0.903228 0.397833 0.256411 -0.08735
C_ C_ 0.884332 0.370652 0.279868 -0.08735
C_ C_ 0.858901 0.324941 0.27495 -0.05681
C_ C_ 0.851969 0.307808 0.246735 0.18498
C_ C_ 0.826894 0.261171 0.242101 -0.08735
C_ C_ 0.812219 0.229754 0.263732 -0.08735
C_ C_ 0.820948 0.244813 0.291412 -0.08735
C_ C_ 0.844877 0.292319 0.297495 0.18498
C_ C_ 0.817726 0.322371 0.344206 0.44287
C_ C_ 0.902832 0.296413 0.338995 0.44287
C_ C_ 0.912965 0.308141 0.367245 -0.05681
C_ C_ 0.962392 0.303158 0.380605 -0.08735
C_ C_ 0.967973 0.307781 0.409825 -0.08735
C_ C_ 0.925518 0.307412 0.428164 -0.05681
C_ C_ 0.877214 0.320433 0.415972 -0.05681
C_ C_ 0.872 0.321628 0.385691 -0.05681
C_ C_ 0.823369 0.325367 0.373516 -0.05681
C_ C_ 0.780701 0.337384 0.390541 -0.08735
C_ C_ 0.786925 0.338205 0.420385 -0.08735
C_ C_ 0.834933 0.326483 0.433503 -0.05681
C_ C_ 0.840482 0.322661 0.463819 0.44287
C_ C_ 0.930134 0.308009 0.458326 0.44287
C_ C_ 0.884669 0.349204 0.00669342 0.18498
C_ C_ 0.909988 0.395633 0.0137174 -0.08735
C_ C_ 0.923126 0.405932 0.0424276 -0.08735
C_ C_ 0.90658 0.372401 0.0646613 -0.08735
C_ C_ 0.880601 0.326757 0.0582408 0.18498
C_ C_ 0.869317 0.314861 0.0291245 -0.05681
C_ C_ 0.845699 0.269028 0.0233399 -0.08735
C_ C_ 0.831351 0.238219 0.0450974 -0.08735
C_ C_ 0.839852 0.252867 0.073786 0.1947
N_ N_ 0.635218 0.171486 0.478774 -0.29468
N_ N_ 0.657854 0.192305 0.0829825 -0.17154
N_ N_ 0.62209 0.161839 0.232257 -0.17154
N_ N_ 0.646738 0.188691 0.335858 -0.29468
N_ N_ 0.865238 0.336593 0.224454 -0.29468
N_ N_ 0.855484 0.306356 0.326958 -0.17154
N_ N_ 0.887636 0.317414 0.475919 -0.17154
N_ N_ 0.864849 0.296519 0.0810785 -0.29468
O_ O_ 0.724548 0.179886 0.433694 -0.58347
O_ O_ 0.707628 0.194823 0.388283 -0.58347
O_ O_ 0.644771 0.255362 0.432733 -0.58347
O_ O_ 0.623348 0.260597 0.388553 -0.58347
O_ O_ 0.646336 0.104403 0.426942 -0.58347
O_ O_ 0.642087 0.10919 0.380265 -0.58347
O_ O_ 0.574013 0.183465 0.427489 -0.58347
O_ O_ 0.561401 0.176341 0.381593 -0.58347
O_ O_ 0.572277 0.205049 0.07837 -0.46727
O_ O_ 0.743117 0.182652 0.0904274 -0.46727
O_ O_ 0.535532 0.172841 0.22534 -0.46727
O_ O_ 0.711188 0.147537 0.236731 -0.46727
O_ O_ 0.784498 0.305284 0.175709 -0.58347
O_ O_ 0.792638 0.31329 0.12891 -0.58347
O_ O_ 0.873868 0.247166 0.181765 -0.58347
O_ O_ 0.86283 0.235298 0.136353 -0.58347
O_ O_ 0.846243 0.392025 0.172561 -0.58347
O_ O_ 0.865931 0.385412 0.127087 -0.58347
O_ O_ 0.933222 0.329967 0.176568 -0.58347
O_ O_ 0.941621 0.309722 0.131566 -0.58347
O_ O_ 0.938919 0.275666 0.323199 -0.46727
O_ O_ 0.77474 0.334819 0.332071 -0.46727
O_ O_ 0.976325 0.311946 0.469994 -0.46727
O_ O_ 0.799842 0.327903 0.479711 -0.46727
Zn Zn 0.63523 0.184445 0.884927 0.90689
Zn Zn 0.641149 0.179333 0.93235 0.90689
Zn Zn 0.877095 0.319663 0.627453 0.90689
Zn Zn 0.869011 0.319988 0.676373 0.90689
H_ H_ 0.808023 0.174068 0.947616 0.11455
H_ H_ 0.872434 0.185299 0.847962 0.11455
H_ H_ 0.784292 0.194241 0.856452 0.11455
H_ H_ 0.894911 0.178484 0.963975 0.11455
H_ H_ 0.985962 0.17544 0.954905 0.11455
H_ H_ 0.960295 0.178694 0.865445 0.11455
H_ H_ 0.664475 0.0110248 0.944087 0.11455
H_ H_ 0.630902 0.43224 0.846814 0.11455
H_ H_ 0.640487 0.0226532 0.855143 0.11455
H_ H_ 0.63813 0.431293 0.963721 0.11455
H_ H_ 0.640811 0.337541 0.95903 0.11455
H_ H_ 0.625208 0.349157 0.868502 0.11455
H_ H_ 0.584318 0.108219 0.96832 0.11455
H_ H_ 0.565828 0.0831885 0.515982 0.11455
H_ H_ 0.602046 0.131447 0.556877 0.11455
H_ H_ 0.698226 0.245164 0.975266 0.11455
H_ H_ 0.73961 0.289688 0.513346 0.11455
H_ H_ 0.715987 0.271203 0.564212 0.11455
H_ H_ 0.517501 0.212081 0.624574 0.11455
H_ H_ 0.508722 0.183747 0.674714 0.11455
H_ H_ 0.768517 0.174234 0.637628 0.11455
H_ H_ 0.760358 0.162378 0.688982 0.11455
H_ H_ 0.570842 0.0929659 0.749427 0.11455
H_ H_ 0.552323 0.0642279 0.798595 0.11455
H_ H_ 0.595414 0.113834 0.839875 0.11455
H_ H_ 0.649713 0.256939 0.757915 0.11455
H_ H_ 0.68634 0.303167 0.800064 0.11455
H_ H_ 0.678777 0.265088 0.848227 0.11455
H_ H_ 0.707754 0.312928 0.692807 0.11455
H_ H_ 0.631273 0.337559 0.597398 0.11455
H_ H_ 0.725141 0.341127 0.602857 0.11455
H_ H_ 0.625057 0.317871 0.713783 0.11455
H_ H_ 0.531331 0.301218 0.708549 0.11455
H_ H_ 0.547651 0.356188 0.620138 0.11455
H_ H_ 0.878309 0.484338 0.690805 0.11455
H_ H_ 0.868132 0.0612259 0.597486 0.11455
H_ H_ 0.869082 0.483999 0.596742 0.11455
H_ H_ 0.889124 0.0723902 0.715136 0.11455
H_ H_ 0.90434 0.167395 0.706927 0.11455
H_ H_ 0.876792 0.148786 0.617773 0.11455
H_ H_ 0.919247 0.392171 0.708521 0.11455
H_ H_ 0.936357 0.423386 0.755258 0.11455
H_ H_ 0.893472 0.385705 0.797132 0.11455
H_ H_ 0.807345 0.256458 0.72003 0.11455
H_ H_ 0.776654 0.20926 0.761857 0.11455
H_ H_ 0.800122 0.233428 0.811693 0.11455
H_ H_ 0.974386 0.287159 0.869311 0.11455
H_ H_ -0.012245999999999979 0.294011 0.921598 0.11455
H_ H_ 0.730796 0.343169 0.883552 0.11455
H_ H_ 0.742635 0.346943 0.936892 0.11455
H_ H_ 0.924174 0.421056 0.996513 0.11455
H_ H_ 0.945704 0.441589 0.539545 0.11455
H_ H_ 0.930365 0.37957 0.581204 0.11455
H_ H_ 0.842707 0.24672 0.507206 0.11455
H_ H_ 0.814251 0.201973 0.550588 0.11455
H_ H_ 0.831757 0.238378 0.59853 0.11455
C_ C_ 0.733578 0.183282 0.90804 0.68181
C_ C_ 0.787844 0.185128 0.90306 -0.05681
C_ C_ 0.821827 0.181336 0.925913 -0.08735
C_ C_ 0.875143 0.186126 0.92059 -0.05681
C_ C_ 0.893619 0.180598 0.892801 -0.05681
C_ C_ 0.858824 0.181552 0.870403 -0.08735
C_ C_ 0.80862 0.185426 0.87569 -0.08735
C_ C_ 0.909736 0.176194 0.942619 -0.08735
C_ C_ 0.960928 0.181714 0.938189 -0.08735
C_ C_ 0.982027 0.179732 0.90982 -0.05681
C_ C_ 0.94629 0.182011 0.887099 -0.08735
C_ C_ 0.637689 0.278967 0.912004 0.68181
C_ C_ 0.641749 0.0835153 0.902263 0.68181
C_ C_ 0.641172 0.0271023 0.900777 -0.05681
C_ C_ 0.631531 0.49708 0.91981 -0.08735
C_ C_ 0.628666 0.443195 0.917709 -0.05681
C_ C_ 0.629074 0.419218 0.890941 -0.05681
C_ C_ 0.63722 0.449099 0.866909 -0.08735
C_ C_ 0.639016 0.501856 0.868791 -0.08735
C_ C_ 0.631804 0.41279 0.943515 -0.08735
C_ C_ 0.631183 0.359167 0.94041 -0.08735
C_ C_ 0.630705 0.335454 0.914208 -0.05681
C_ C_ 0.625947 0.366322 0.888968 -0.08735
C_ C_ 0.53791 0.182421 0.910403 0.68181
C_ C_ 0.609592 0.124413 0.983192 0.1947
C_ C_ 0.594669 0.115782 0.512458 -0.08735
C_ C_ 0.614959 0.142517 0.535528 -0.08735
C_ C_ 0.645552 0.183952 0.529699 -0.05681
C_ C_ 0.654332 0.19881 0.500923 0.18498
C_ C_ 0.687417 0.236645 0.996551 -0.08735
C_ C_ 0.707572 0.266823 0.517783 -0.08735
C_ C_ 0.695302 0.252973 0.546774 -0.08735
C_ C_ 0.661394 0.214418 0.55254 0.18498
C_ C_ 0.692034 0.187349 0.598245 0.44287
C_ C_ 0.605766 0.206325 0.594139 0.44287
C_ C_ 0.598575 0.195581 0.623253 -0.05681
C_ C_ 0.548943 0.195282 0.635993 -0.08735
C_ C_ 0.545341 0.185795 0.665817 -0.08735
C_ C_ 0.587485 0.184798 0.684361 -0.05681
C_ C_ 0.63428 0.179485 0.671176 -0.05681
C_ C_ 0.640112 0.185958 0.641092 -0.05681
C_ C_ 0.687784 0.184466 0.628715 -0.05681
C_ C_ 0.730219 0.177902 0.646668 -0.08735
C_ C_ 0.725245 0.168625 0.675713 -0.08735
C_ C_ 0.676754 0.173362 0.688477 -0.05681
C_ C_ 0.669732 0.167632 0.719001 0.44287
C_ C_ 0.58213 0.180569 0.714072 0.44287
C_ C_ 0.612185 0.159334 0.761057 0.18498
C_ C_ 0.585835 0.11425 0.766737 -0.08735
C_ C_ 0.577007 0.0959918 0.794145 -0.08735
C_ C_ 0.595961 0.125686 0.817098 -0.08735
C_ C_ 0.619823 0.173604 0.812228 0.18498
C_ C_ 0.628497 0.189979 0.784159 -0.05681
C_ C_ 0.650388 0.238942 0.778905 -0.08735
C_ C_ 0.66677 0.267429 0.802057 -0.08735
C_ C_ 0.662529 0.245895 0.830142 0.1947
C_ C_ 0.778811 0.321436 0.651448 0.68181
C_ C_ 0.72149 0.327572 0.648497 -0.05681
C_ C_ 0.69194 0.330042 0.673044 -0.08735
C_ C_ 0.63848 0.332363 0.669989 -0.05681
C_ C_ 0.614014 0.33848 0.643179 -0.05681
C_ C_ 0.644518 0.342303 0.619119 -0.08735
C_ C_ 0.698301 0.336263 0.621315 -0.08735
C_ C_ 0.608422 0.31896 0.693166 -0.08735
C_ C_ 0.554715 0.310604 0.688867 -0.08735
C_ C_ 0.530604 0.322494 0.662346 -0.05681
C_ C_ 0.561696 0.343079 0.640839 -0.08735
C_ C_ 0.876679 0.221721 0.659683 0.68181
C_ C_ 0.870524 0.419095 0.644361 0.68181
C_ C_ 0.870195 0.475223 0.64541 -0.05681
C_ C_ 0.881117 0.00507586 0.673216 -0.08735
C_ C_ 0.881992 0.0580326 0.670174 -0.05681
C_ C_ 0.87375 0.0780353 0.642938 -0.05681
C_ C_ 0.866738 0.0463471 0.619232 -0.08735
C_ C_ 0.870802 0.503064 0.618083 -0.08735
C_ C_ 0.892191 0.090886 0.6932 -0.08735
C_ C_ 0.892948 0.143649 0.689674 -0.08735
C_ C_ 0.88633 0.164837 0.66224 -0.05681
C_ C_ 0.876431 0.131593 0.639238 -0.08735
C_ C_ 0.972591 0.331718 0.65481 0.68181
C_ C_ 0.899594 0.373774 0.726654 0.1947
C_ C_ 0.909921 0.392622 0.752634 -0.08735
C_ C_ 0.889691 0.369305 0.776802 -0.08735
C_ C_ 0.854997 0.329518 0.774567 -0.05681
C_ C_ 0.843361 0.312624 0.746063 0.18498
C_ C_ 0.819226 0.266199 0.7416 -0.08735
C_ C_ 0.799567 0.240612 0.765308 -0.08735
C_ C_ 0.807434 0.257739 0.79402 -0.08735
C_ C_ 0.835643 0.301878 0.79844 0.18498
C_ C_ 0.804981 0.33001 0.844969 0.44287
C_ C_ 0.891918 0.309015 0.84063 0.44287
C_ C_ 0.896731 0.310948 0.870617 -0.05681
C_ C_ 0.943288 0.299901 0.883416 -0.08735
C_ C_ 0.950958 0.301611 0.912569 -0.08735
C_ C_ 0.910214 0.312828 0.931067 -0.05681
C_ C_ 0.862986 0.324851 0.9182 -0.05681
C_ C_ 0.855742 0.319393 0.888509 -0.05681
C_ C_ 0.810251 0.330065 0.876282 -0.05681
C_ C_ 0.768441 0.344943 0.893314 -0.08735
C_ C_ 0.773413 0.350204 0.922929 -0.08735
C_ C_ 0.82299 0.341859 0.935522 -0.05681
C_ C_ 0.830423 0.348057 0.965326 0.44287
C_ C_ 0.916855 0.322249 0.960644 0.44287
C_ C_ 0.894937 0.336414 0.50454 0.18498
C_ C_ 0.91532 0.385159 0.508756 -0.08735
C_ C_ 0.930401 0.401262 0.536557 -0.08735
C_ C_ 0.918956 0.371561 0.560677 -0.08735
C_ C_ 0.888355 0.327284 0.55748 0.18498
C_ C_ 0.88054 0.307825 0.529202 -0.05681
C_ C_ 0.85306 0.262379 0.528474 -0.08735
C_ C_ 0.832661 0.238173 0.552729 -0.08735
C_ C_ 0.843765 0.258333 0.579736 0.1947
N_ N_ 0.633468 0.169454 0.978341 -0.29468
N_ N_ 0.652754 0.203217 0.582088 -0.17154
N_ N_ 0.62263 0.171341 0.730764 -0.17154
N_ N_ 0.63925 0.201358 0.83494 -0.29468
N_ N_ 0.868588 0.334106 0.722817 -0.29468
N_ N_ 0.845684 0.319114 0.827765 -0.17154
N_ N_ 0.876801 0.33642 0.978061 -0.17154
N_ N_ 0.871798 0.301373 0.581951 -0.29468
O_ O_ 0.715064 0.177294 0.933193 -0.58347
O_ O_ 0.704518 0.195646 0.887384 -0.58347
O_ O_ 0.650323 0.254081 0.933297 -0.58347
O_ O_ 0.621091 0.255179 0.890426 -0.58347
O_ O_ 0.639437 0.103747 0.927354 -0.58347
O_ O_ 0.647293 0.109834 0.879796 -0.58347
O_ O_ 0.56614 0.187927 0.932293 -0.58347
O_ O_ 0.55807 0.176017 0.885889 -0.58347
O_ O_ 0.56735 0.218991 0.577875 -0.46727
O_ O_ 0.737601 0.18299 0.586973 -0.46727
O_ O_ 0.541253 0.198174 0.726422 -0.46727
O_ O_ 0.709618 0.170581 0.735646 -0.46727
O_ O_ 0.798921 0.318364 0.677186 -0.58347
O_ O_ 0.803811 0.31583 0.629152 -0.58347
O_ O_ 0.870596 0.248409 0.682014 -0.58347
O_ O_ 0.889858 0.244631 0.636544 -0.58347
O_ O_ 0.873885 0.394572 0.668043 -0.58347
O_ O_ 0.87232 0.395036 0.620702 -0.58347
O_ O_ 0.944775 0.323612 0.676542 -0.58347
O_ O_ 0.951998 0.336933 0.629607 -0.58347
O_ O_ 0.926517 0.286581 0.825572 -0.46727
O_ O_ 0.767902 0.354938 0.834516 -0.46727
O_ O_ 0.95743 0.302742 0.973454 -0.46727
O_ O_ 0.792449 0.361963 0.982559 -0.46727
Zn Zn 0.620546 0.68714 0.384317 0.90689
Zn Zn 0.628427 0.679654 0.429596 0.90689
Zn Zn 0.861082 0.815577 0.133882 0.90689
Zn Zn 0.856126 0.815393 0.182713 0.90689
H_ H_ 0.796826 0.710402 0.4416 0.11455
H_ H_ 0.867024 0.670487 0.346023 0.11455
H_ H_ 0.772899 0.67951 0.353592 0.11455
H_ H_ 0.880491 0.71069 0.461428 0.11455
H_ H_ 0.973288 0.703621 0.454634 0.11455
H_ H_ 0.950719 0.675048 0.366635 0.11455
H_ H_ 0.626308 0.514603 0.439837 0.11455
H_ H_ 0.643008 0.931444 0.350651 0.11455
H_ H_ 0.654607 0.526293 0.350324 0.11455
H_ H_ 0.637273 0.928249 0.468577 0.11455
H_ H_ 0.610936 0.841433 0.461349 0.11455
H_ H_ 0.611719 0.855329 0.370002 0.11455
H_ H_ 0.586866 0.605388 0.469963 0.11455
H_ H_ 0.572619 0.572707 0.0162603 0.11455
H_ H_ 0.598989 0.629429 0.0559051 0.11455
H_ H_ 0.688083 0.748502 0.470394 0.11455
H_ H_ 0.702414 0.81572 0.0129063 0.11455
H_ H_ 0.67631 0.794155 0.061434 0.11455
H_ H_ 0.502004 0.700262 0.122438 0.11455
H_ H_ 0.489355 0.691781 0.172783 0.11455
H_ H_ 0.747253 0.648869 0.136598 0.11455
H_ H_ 0.735558 0.658681 0.191127 0.11455
H_ H_ 0.545664 0.604715 0.250229 0.11455
H_ H_ 0.529695 0.576724 0.299671 0.11455
H_ H_ 0.566481 0.622683 0.339413 0.11455
H_ H_ 0.638384 0.761204 0.261012 0.11455
H_ H_ 0.677945 0.807553 0.300736 0.11455
H_ H_ 0.667328 0.771214 0.34921 0.11455
H_ H_ 0.681642 0.797488 0.203125 0.11455
H_ H_ 0.616685 0.823039 0.103298 0.11455
H_ H_ 0.709951 0.809307 0.111542 0.11455
H_ H_ 0.601594 0.826699 0.218907 0.11455
H_ H_ 0.505797 0.820494 0.213186 0.11455
H_ H_ 0.533042 0.811625 0.121513 0.11455
H_ H_ 0.881809 0.98697 0.195783 0.11455
H_ H_ 0.841313 0.564115 0.0967791 0.11455
H_ H_ 0.838927 0.968137 0.105919 0.11455
H_ H_ 0.856739 0.564306 0.215108 0.11455
H_ H_ 0.86404 0.654399 0.213635 0.11455
H_ H_ 0.841144 0.648979 0.121291 0.11455
H_ H_ 0.91237 0.888854 0.218271 0.11455
H_ H_ 0.916834 0.929496 0.264804 0.11455
H_ H_ 0.884985 0.879789 0.30701 0.11455
H_ H_ 0.794215 0.754783 0.228168 0.11455
H_ H_ 0.7718 0.69637 0.268846 0.11455
H_ H_ 0.786659 0.722667 0.316066 0.11455
H_ H_ 0.975669 0.808709 0.374612 0.11455
H_ H_ -0.012979999999999992 0.818193 0.428318 0.11455
H_ H_ 0.726072 0.828656 0.391768 0.11455
H_ H_ 0.737652 0.85468 0.442179 0.11455
H_ H_ 0.927443 0.923474 0.502431 0.11455
H_ H_ 0.960319 0.918241 0.0500855 0.11455
H_ H_ 0.914819 0.873057 0.0901012 0.11455
H_ H_ 0.83354 0.745153 0.00799868 0.11455
H_ H_ 0.793562 0.700593 0.0506369 0.11455
H_ H_ 0.813424 0.728413 0.0993167 0.11455
C_ C_ 0.723085 0.691594 0.404184 0.68181
C_ C_ 0.779098 0.689239 0.398848 -0.05681
C_ C_ 0.8118 0.697528 0.421459 -0.08735
C_ C_ 0.863633 0.692031 0.4172 -0.05681
C_ C_ 0.884136 0.679378 0.389971 -0.05681
C_ C_ 0.851692 0.675336 0.368088 -0.08735
C_ C_ 0.797006 0.676028 0.372192 -0.08735
C_ C_ 0.895262 0.692451 0.441303 -0.08735
C_ C_ 0.946117 0.69755 0.436912 -0.08735
C_ C_ 0.968677 0.687307 0.410377 -0.05681
C_ C_ 0.93612 0.675701 0.386762 -0.08735
C_ C_ 0.618459 0.782386 0.41319 0.68181
C_ C_ 0.63117 0.584996 0.397361 0.68181
C_ C_ 0.640501 0.527872 0.394914 -0.05681
C_ C_ 0.634355 0.997507 0.424379 -0.08735
C_ C_ 0.629622 0.943983 0.422263 -0.05681
C_ C_ 0.628117 0.922443 0.394624 -0.05681
C_ C_ 0.638951 0.951305 0.370693 -0.08735
C_ C_ 0.645042 1.00327324 0.372553 -0.08735
C_ C_ 0.631625 0.91264 0.447048 -0.08735
C_ C_ 0.626325 0.860913 0.443246 -0.08735
C_ C_ 0.622388 0.839871 0.415927 -0.05681
C_ C_ 0.618922 0.870827 0.39143 -0.08735
C_ C_ 0.526224 0.674832 0.406639 0.68181
C_ C_ 0.606452 0.62577 0.485581 0.1947
C_ C_ 0.594098 0.609817 0.0114741 -0.08735
C_ C_ 0.60779 0.64221 0.0338918 -0.08735
C_ C_ 0.636033 0.68646 0.028986 -0.05681
C_ C_ 0.648023 0.697383 1.0000183081 0.18498
C_ C_ 0.683809 0.739269 0.492976 -0.08735
C_ C_ 0.688726 0.775801 0.0174312 -0.08735
C_ C_ 0.673511 0.764694 0.0449745 -0.08735
C_ C_ 0.648996 0.718989 0.0518476 0.18498
C_ C_ 0.677474 0.68341 0.0978076 0.44287
C_ C_ 0.591248 0.710106 0.0937827 0.44287
C_ C_ 0.581405 0.698997 0.122731 -0.05681
C_ C_ 0.534326 0.696423 0.134598 -0.08735
C_ C_ 0.526133 0.690037 0.164692 -0.08735
C_ C_ 0.569169 0.691362 0.183237 -0.05681
C_ C_ 0.617196 0.682337 0.170486 -0.05681
C_ C_ 0.624046 0.69229 0.140962 -0.05681
C_ C_ 0.671437 0.68033 0.128244 -0.05681
C_ C_ 0.709942 0.660517 0.14598 -0.08735
C_ C_ 0.704407 0.657692 0.176379 -0.08735
C_ C_ 0.657964 0.669617 0.188696 -0.05681
C_ C_ 0.650458 0.667298 0.218495 0.44287
C_ C_ 0.565061 0.693963 0.213435 0.44287
C_ C_ 0.594731 0.666834 0.260483 0.18498
C_ C_ 0.568317 0.621949 0.266348 -0.08735
C_ C_ 0.555447 0.609617 0.294475 -0.08735
C_ C_ 0.575711 0.636111 0.317948 -0.08735
C_ C_ 0.607401 0.679095 0.312874 0.18498
C_ C_ 0.612054 0.699054 0.284495 -0.05681
C_ C_ 0.638828 0.742107 0.280551 -0.08735
C_ C_ 0.656834 0.771217 0.304397 -0.08735
C_ C_ 0.652682 0.74974 0.331575 0.1947
C_ C_ 0.760437 0.80674 0.160901 0.68181
C_ C_ 0.703532 0.808256 0.157732 -0.05681
C_ C_ 0.669645 0.808455 0.181485 -0.08735
C_ C_ 0.617029 0.814769 0.17665 -0.05681
C_ C_ 0.598395 0.817232 0.147853 -0.05681
C_ C_ 0.630781 0.819182 0.12484 -0.08735
C_ C_ 0.683448 0.813349 0.130177 -0.08735
C_ C_ 0.584512 0.822501 0.198779 -0.08735
C_ C_ 0.531339 0.823054 0.194494 -0.08735
C_ C_ 0.511306 0.818532 0.165606 -0.05681
C_ C_ 0.546433 0.814888 0.143508 -0.08735
C_ C_ 0.856006 0.716209 0.164265 0.68181
C_ C_ 0.859209 0.914297 0.153318 0.68181
C_ C_ 0.854983 0.971619 0.15236 -0.05681
C_ C_ 0.850859 0.499945 0.170996 -0.08735
C_ C_ 0.851818 0.553334 0.169538 -0.05681
C_ C_ 0.849926 0.576928 0.142509 -0.05681
C_ C_ 0.846714 0.547157 0.116897 -0.08735
C_ C_ 0.839651 0.995003 0.125544 -0.08735
C_ C_ 0.856258 0.582443 0.194844 -0.08735
C_ C_ 0.852341 0.634639 0.193973 -0.08735
C_ C_ 0.850026 0.658748 0.166523 -0.05681
C_ C_ 0.843069 0.629391 0.142078 -0.08735
C_ C_ 0.956979 0.822386 0.156434 0.68181
C_ C_ 0.890931 0.871372 0.23646 0.1947
C_ C_ 0.895586 0.89398 0.263221 -0.08735
C_ C_ 0.876354 0.867146 0.287075 -0.08735
C_ C_ 0.847129 0.82263 0.282504 -0.05681
C_ C_ 0.835493 0.808093 0.253576 0.18498
C_ C_ 0.806911 0.76312 0.248583 -0.08735
C_ C_ 0.794671 0.731021 0.271564 -0.08735
C_ C_ 0.805969 0.74448 0.299946 -0.08735
C_ C_ 0.831064 0.791365 0.306406 0.18498
C_ C_ 0.799196 0.814643 0.353106 0.44287
C_ C_ 0.885721 0.793489 0.347904 0.44287
C_ C_ 0.895136 0.810207 0.377096 -0.05681
C_ C_ 0.943491 0.808931 0.38913 -0.08735
C_ C_ 0.951259 0.822711 0.417876 -0.08735
C_ C_ 0.909169 0.829339 0.436505 -0.05681
C_ C_ 0.859561 0.829928 0.4246 -0.05681
C_ C_ 0.853712 0.817312 0.39476 -0.05681
C_ C_ 0.80399 0.817548 0.382429 -0.05681
C_ C_ 0.763463 0.831274 0.399983 -0.08735
C_ C_ 0.769615 0.840804 0.429574 -0.08735
C_ C_ 0.81772 0.839162 0.44193 -0.05681
C_ C_ 0.826661 0.845866 0.472209 0.44287
C_ C_ 0.913306 0.828947 0.466816 0.44287
C_ C_ 0.893004 0.830185 0.0106691 0.18498
C_ C_ 0.921229 0.875745 0.017523 -0.08735
C_ C_ 0.933801 0.887893 0.0454037 -0.08735
C_ C_ 0.909996 0.860878 0.067942 -0.08735
C_ C_ 0.877536 0.819922 0.0635893 0.18498
C_ C_ 0.870291 0.80299 0.0345652 -0.05681
C_ C_ 0.842037 0.75888 0.0306962 -0.08735
C_ C_ 0.819889 0.732662 0.0543649 -0.08735
C_ C_ 0.827114 0.751193 0.0816355 0.1947
N_ N_ 0.631424 0.669331 0.478236 -0.29468
N_ N_ 0.639353 0.705713 0.0820354 -0.17154
N_ N_ 0.605653 0.677851 0.230436 -0.17154
N_ N_ 0.626075 0.705053 0.336141 -0.29468
N_ N_ 0.860182 0.831284 0.232064 -0.29468
N_ N_ 0.840079 0.803444 0.335831 -0.17154
N_ N_ 0.872631 0.83862 0.483936 -0.17154
N_ N_ 0.8547 0.794144 0.0863532 -0.29468
O_ O_ 0.705196 0.680256 0.428618 -0.58347
O_ O_ 0.693635 0.705176 0.384049 -0.58347
O_ O_ 0.630588 0.754715 0.433696 -0.58347
O_ O_ 0.608264 0.761595 0.389589 -0.58347
O_ O_ 0.626862 0.604869 0.42216 -0.58347
O_ O_ 0.634537 0.613925 0.375309 -0.58347
O_ O_ 0.553079 0.684579 0.429151 -0.58347
O_ O_ 0.547821 0.673205 0.382387 -0.58347
O_ O_ 0.556385 0.729404 0.0773557 -0.46727
O_ O_ 0.722457 0.678593 0.0870985 -0.46727
O_ O_ 0.520772 0.702015 0.224132 -0.46727
O_ O_ 0.687777 0.651431 0.234704 -0.46727
O_ O_ 0.779314 0.811569 0.186072 -0.58347
O_ O_ 0.789783 0.808553 0.139135 -0.58347
O_ O_ 0.856991 0.741425 0.186692 -0.58347
O_ O_ 0.864404 0.737316 0.140429 -0.58347
O_ O_ 0.861684 0.892148 0.177554 -0.58347
O_ O_ 0.85099 0.889066 0.130306 -0.58347
O_ O_ 0.930779 0.815795 0.178411 -0.58347
O_ O_ 0.937541 0.822684 0.13206 -0.58347
O_ O_ 0.922379 0.779076 0.331955 -0.46727
O_ O_ 0.755497 0.82797 0.340935 -0.46727
O_ O_ 0.958767 0.824571 0.479658 -0.46727
O_ O_ 0.788438 0.854212 0.488788 -0.46727
Zn Zn 0.624777 0.687211 0.882638 0.90689
Zn Zn 0.638423 0.677006 0.930347 0.90689
Zn Zn 0.878418 0.816083 0.634986 0.90689
Zn Zn 0.868019 0.81731 0.683527 0.90689
H_ H_ 0.80635 0.676928 0.940924 0.11455
H_ H_ 0.871169 0.642198 0.844743 0.11455
H_ H_ 0.776972 0.649659 0.850356 0.11455
H_ H_ 0.88834 0.661023 0.961281 0.11455
H_ H_ 0.975759 0.660687 0.953956 0.11455
H_ H_ 0.958806 0.660937 0.862786 0.11455
H_ H_ 0.630457 0.516115 0.940929 0.11455
H_ H_ 0.60716 0.934453 0.853106 0.11455
H_ H_ 0.636836 0.524455 0.849505 0.11455
H_ H_ 0.66813 0.932281 0.966745 0.11455
H_ H_ 0.655397 0.834948 0.963274 0.11455
H_ H_ 0.600448 0.85379 0.876676 0.11455
H_ H_ 0.603972 0.590203 0.968126 0.11455
H_ H_ 0.584207 0.574445 0.519314 0.11455
H_ H_ 0.615126 0.629522 0.557944 0.11455
H_ H_ 0.699821 0.738473 0.974755 0.11455
H_ H_ 0.72287 0.80642 0.508463 0.11455
H_ H_ 0.713281 0.785414 0.558897 0.11455
H_ H_ 0.523867 0.69878 0.619846 0.11455
H_ H_ 0.50546 0.686801 0.669507 0.11455
H_ H_ 0.774578 0.676731 0.64158 0.11455
H_ H_ 0.761845 0.673794 0.692808 0.11455
H_ H_ 0.56803 0.588562 0.750207 0.11455
H_ H_ 0.542367 0.566941 0.802164 0.11455
H_ H_ 0.554465 0.631124 0.837126 0.11455
H_ H_ 0.654247 0.749274 0.757265 0.11455
H_ H_ 0.68493 0.800589 0.799175 0.11455
H_ H_ 0.676028 0.765433 0.846598 0.11455
H_ H_ 0.694346 0.791678 0.701162 0.11455
H_ H_ 0.63108 0.823442 0.602808 0.11455
H_ H_ 0.722832 0.822351 0.611389 0.11455
H_ H_ 0.60837 0.79929 0.720935 0.11455
H_ H_ 0.515118 0.800146 0.711537 0.11455
H_ H_ 0.548695 0.848054 0.625192 0.11455
H_ H_ 0.894715 0.988355 0.693083 0.11455
H_ H_ 0.877101 0.573439 0.59741 0.11455
H_ H_ 0.860521 0.972232 0.605918 0.11455
H_ H_ 0.894245 0.567544 0.714961 0.11455
H_ H_ 0.87968 0.662891 0.71364 0.11455
H_ H_ 0.879658 0.652284 0.621545 0.11455
H_ H_ 0.922839 0.887288 0.72211 0.11455
H_ H_ 0.928963 0.911216 0.771738 0.11455
H_ H_ 0.881442 0.871388 0.808375 0.11455
H_ H_ 0.806201 0.749221 0.725229 0.11455
H_ H_ 0.792057 0.679882 0.759341 0.11455
H_ H_ 0.798675 0.708433 0.807921 0.11455
H_ H_ 0.989017 0.775997 0.874686 0.11455
H_ H_ 0.993638 0.771151 0.926913 0.11455
H_ H_ 0.742691 0.840795 0.886924 0.11455
H_ H_ 0.751467 0.842689 0.939901 0.11455
H_ H_ 0.936904 0.897015 0.99981924 0.11455
H_ H_ 0.965149 0.931039 0.548845 0.11455
H_ H_ 0.944441 0.874493 0.58825 0.11455
H_ H_ 0.83092 0.769371 0.511587 0.11455
H_ H_ 0.801478 0.718531 0.549811 0.11455
H_ H_ 0.826665 0.742584 0.599398 0.11455
C_ C_ 0.73121 0.682233 0.902392 0.68181
C_ C_ 0.783022 0.665548 0.896894 -0.05681
C_ C_ 0.817221 0.664222 0.920279 -0.08735
C_ C_ 0.8694 0.663499 0.915956 -0.05681
C_ C_ 0.890065 0.659917 0.887389 -0.05681
C_ C_ 0.857029 0.653296 0.864942 -0.08735
C_ C_ 0.802085 0.654084 0.869472 -0.08735
C_ C_ 0.901865 0.660004 0.939051 -0.08735
C_ C_ 0.953359 0.662859 0.934477 -0.08735
C_ C_ 0.976003 0.665323 0.907652 -0.05681
C_ C_ 0.943618 0.657562 0.884111 -0.08735
C_ C_ 0.629849 0.780536 0.915772 0.68181
C_ C_ 0.634194 0.58449 0.89843 0.68181
C_ C_ 0.635473 0.527656 0.895601 -0.05681
C_ C_ 0.64991 -0.0048319999999999474 0.924466 -0.08735
C_ C_ 0.640852 0.942788 0.923149 -0.05681
C_ C_ 0.621504 0.9223 0.898336 -0.05681
C_ C_ 0.615495 0.951854 0.873451 -0.08735
C_ C_ 0.628675 0.0039378 0.874422 -0.08735
C_ C_ 0.651038 0.912482 0.947358 -0.08735
C_ C_ 0.645445 0.860584 0.945455 -0.08735
C_ C_ 0.628592 0.836284 0.918866 -0.05681
C_ C_ 0.614942 0.86884 0.895793 -0.08735
C_ C_ 0.533502 0.675892 0.909995 0.68181
C_ C_ 0.613796 0.618498 0.984534 0.1947
C_ C_ 0.603489 0.609976 0.514183 -0.08735
C_ C_ 0.619392 0.642015 0.536033 -0.08735
C_ C_ 0.64872 0.685245 0.529478 -0.05681
C_ C_ 0.65582 0.69675 0.499804 0.18498
C_ C_ 0.678675 0.73988 0.99485 -0.08735
C_ C_ 0.707311 0.770121 0.513959 -0.08735
C_ C_ 0.698794 0.758195 0.542864 -0.08735
C_ C_ 0.672398 0.713683 0.551787 0.18498
C_ C_ 0.701234 0.692783 0.599306 0.44287
C_ C_ 0.614228 0.708254 0.593308 0.44287
C_ C_ 0.604534 0.696166 0.623302 -0.05681
C_ C_ 0.55437 0.690751 0.633184 -0.08735
C_ C_ 0.545611 0.683211 0.662398 -0.08735
C_ C_ 0.587714 0.679487 0.681964 -0.05681
C_ C_ 0.636719 0.677569 0.670387 -0.05681
C_ C_ 0.645507 0.688371 0.641382 -0.05681
C_ C_ 0.695312 0.688781 0.629855 -0.05681
C_ C_ 0.736357 0.681847 0.649064 -0.08735
C_ C_ 0.728208 0.675055 0.678918 -0.08735
C_ C_ 0.678034 0.671445 0.690079 -0.05681
C_ C_ 0.669215 0.670306 0.71945 0.44287
C_ C_ 0.579761 0.675923 0.711368 0.44287
C_ C_ 0.607903 0.659885 0.759934 0.18498
C_ C_ 0.579565 0.614086 0.766931 -0.08735
C_ C_ 0.563617 0.603138 0.794974 -0.08735
C_ C_ 0.572323 0.639396 0.816792 -0.08735
C_ C_ 0.602856 0.682118 0.811889 0.18498
C_ C_ 0.618472 0.692949 0.783251 -0.05681
C_ C_ 0.645153 0.737884 0.778908 -0.08735
C_ C_ 0.664681 0.764907 0.802556 -0.08735
C_ C_ 0.654286 0.749153 0.829615 0.1947
C_ C_ 0.773168 0.810957 0.661072 0.68181
C_ C_ 0.716576 0.810377 0.656852 -0.05681
C_ C_ 0.681358 0.804503 0.680201 -0.08735
C_ C_ 0.628644 0.808306 0.675481 -0.05681
C_ C_ 0.609579 0.81843 0.647261 -0.05681
C_ C_ 0.643872 0.822199 0.62442 -0.08735
C_ C_ 0.696504 0.817844 0.629231 -0.08735
C_ C_ 0.593873 0.806431 0.69865 -0.08735
C_ C_ 0.542651 0.810049 0.694242 -0.08735
C_ C_ 0.524709 0.818792 0.66649 -0.05681
C_ C_ 0.559959 0.829326 0.644037 -0.08735
C_ C_ 0.877425 0.718697 0.666548 0.68181
C_ C_ 0.867396 0.91614 0.652889 0.68181
C_ C_ 0.868071 0.97271 0.650556 -0.05681
C_ C_ 0.876581 0.50416 0.670461 -0.08735
C_ C_ 0.880793 0.557295 0.669235 -0.05681
C_ C_ 0.883616 0.581616 0.642553 -0.05681
C_ C_ 0.872736 0.554533 0.617886 -0.08735
C_ C_ 0.862073 0.995336 0.623935 -0.08735
C_ C_ 0.883336 0.586426 0.694808 -0.08735
C_ C_ 0.880801 0.638663 0.693457 -0.08735
C_ C_ 0.883709 0.663889 0.667852 -0.05681
C_ C_ 0.883836 0.634201 0.641594 -0.08735
C_ C_ 0.973136 0.811759 0.656554 0.68181
C_ C_ 0.896707 0.868913 0.737926 0.1947
C_ C_ 0.895901 0.889028 0.765298 -0.08735
C_ C_ 0.874881 0.858897 0.785502 -0.08735
C_ C_ 0.854967 0.810121 0.779864 -0.05681
C_ C_ 0.850015 0.795492 0.750824 0.18498
C_ C_ 0.822879 0.751299 0.744438 -0.08735
C_ C_ 0.815256 0.712806 0.764672 -0.08735
C_ C_ 0.826716 0.72534 0.793284 -0.08735
C_ C_ 0.844549 0.773851 0.802172 0.18498
C_ C_ 0.812851 0.804583 0.847726 0.44287
C_ C_ 0.897475 0.775361 0.84509 0.44287
C_ C_ 0.905877 0.788319 0.875046 -0.05681
C_ C_ 0.955163 0.780771 0.8882 -0.08735
C_ C_ 0.956151 0.776954 0.918154 -0.08735
C_ C_ 0.916455 0.795876 0.934979 -0.05681
C_ C_ 0.870641 0.806333 0.922238 -0.05681
C_ C_ 0.866444 0.804785 0.891424 -0.05681
C_ C_ 0.819184 0.816114 0.877681 -0.05681
C_ C_ 0.778337 0.829565 0.895722 -0.08735
C_ C_ 0.783827 0.832928 0.925488 -0.08735
C_ C_ 0.829347 0.823037 0.938795 -0.05681
C_ C_ 0.838316 0.83401 0.968646 0.44287
C_ C_ 0.917346 0.792727 0.964911 0.44287
C_ C_ 0.881456 0.854961 0.513523 0.18498
C_ C_ 0.91151 0.898493 0.519636 -0.08735
C_ C_ 0.933798 0.904854 0.546486 -0.08735
C_ C_ 0.922832 0.872791 0.568911 -0.08735
C_ C_ 0.883813 0.835075 0.565556 0.18498
C_ C_ 0.866604 0.82397 0.537522 -0.05681
C_ C_ 0.844552 0.77715 0.53266 -0.08735
C_ C_ 0.830851 0.745538 0.554809 -0.08735
C_ C_ 0.843026 0.760762 0.582831 0.1947
N_ N_ 0.638007 0.662971 0.978358 -0.29468
N_ N_ 0.66283 0.704338 0.582069 -0.17154
N_ N_ 0.620789 0.671168 0.729864 -0.17154
N_ N_ 0.629004 0.704099 0.833963 -0.29468
N_ N_ 0.869108 0.827478 0.73064 -0.29468
N_ N_ 0.853054 0.787628 0.832452 -0.17154
N_ N_ 0.881718 0.817643 0.981585 -0.17154
N_ N_ 0.870116 0.804329 0.587902 -0.29468
O_ O_ 0.714955 0.678353 0.928488 -0.58347
O_ O_ 0.700736 0.689101 0.881362 -0.58347
O_ O_ 0.64152 0.751554 0.936546 -0.58347
O_ O_ 0.619962 0.762802 0.891303 -0.58347
O_ O_ 0.641813 0.604691 0.922403 -0.58347
O_ O_ 0.626969 0.613805 0.87634 -0.58347
O_ O_ 0.562016 0.67529 0.930899 -0.58347
O_ O_ 0.552562 0.684501 0.886218 -0.58347
O_ O_ 0.57547 0.719522 0.575459 -0.46727
O_ O_ 0.747694 0.690587 0.588104 -0.46727
O_ O_ 0.538003 0.688349 0.721656 -0.46727
O_ O_ 0.706506 0.665926 0.737746 -0.46727
O_ O_ 0.793182 0.81013 0.68618 -0.58347
O_ O_ 0.802383 0.813905 0.639646 -0.58347
O_ O_ 0.869162 0.743728 0.688656 -0.58347
O_ O_ 0.878719 0.743313 0.642969 -0.58347
O_ O_ 0.864441 0.894424 0.677166 -0.58347
O_ O_ 0.874402 0.88909 0.630783 -0.58347
O_ O_ 0.945713 0.820204 0.677721 -0.58347
O_ O_ 0.952432 0.814285 0.631816 -0.58347
O_ O_ 0.932947 0.751102 0.831144 -0.46727
O_ O_ 0.769021 0.807102 0.834473 -0.46727
O_ O_ 0.958098 0.772759 0.976488 -0.46727
O_ O_ 0.803118 0.859615 0.983535 -0.46727
