_cell_length_a 26.376
_cell_length_b 26.400000238300095
_cell_length_c 46.67800035477134
_cell_angle_alpha 90.00700052986613
_cell_angle_beta 89.99899961309502
_cell_angle_gamma 90.45000003183146
_symmetry_space_group_name_H-M         'P 1'
_symmetry_Int_Tables_number            1
loop_
_symmetry_equiv_pos_as_xyz
   'x, y, z'
                         
loop_
_atom_site_label
_atom_site_type_symbol
_atom_site_fract_x 
_atom_site_fract_y
_atom_site_fract_z
_atom_site_charge
Zn Zn 0.121338 0.186203 0.381712 0.90689
Zn Zn 0.131584 0.177341 0.429964 0.90689
Zn Zn 0.383667 0.323268 0.132302 0.90689
Zn Zn 0.371094 0.333485 0.180354 0.90689
H_ H_ 0.297324 0.197843 0.444354 0.11455
H_ H_ 0.367308 0.161626 0.349031 0.11455
H_ H_ 0.281245 0.173797 0.354604 0.11455
H_ H_ 0.379708 0.192393 0.466603 0.11455
H_ H_ 0.475353 0.190915 0.460816 0.11455
H_ H_ 0.455419 0.177945 0.367742 0.11455
H_ H_ 0.155087 0.011253 0.437624 0.11455
H_ H_ 0.110331 0.434031 0.349118 0.11455
H_ H_ 0.107722 0.0223551 0.352001 0.11455
H_ H_ 0.133686 0.433337 0.467093 0.11455
H_ H_ 0.136049 0.338216 0.462604 0.11455
H_ H_ 0.111491 0.348059 0.370794 0.11455
H_ H_ 0.0853766 0.111542 0.466456 0.11455
H_ H_ 0.0862112 0.0748163 0.013635 0.11455
H_ H_ 0.118869 0.118067 0.0540614 0.11455
H_ H_ 0.202035 0.240163 0.474801 0.11455
H_ H_ 0.225126 0.306277 0.0165275 0.11455
H_ H_ 0.205017 0.282786 0.0644875 0.11455
H_ H_ 0.0206301 0.206094 0.11779 0.11455
H_ H_ 0.00794645 0.197999 0.16956 0.11455
H_ H_ 0.271922 0.158324 0.140492 0.11455
H_ H_ 0.256576 0.160769 0.193603 0.11455
H_ H_ 0.0600028 0.0982387 0.246202 0.11455
H_ H_ 0.0261513 0.0839993 0.294861 0.11455
H_ H_ 0.0648564 0.129789 0.335213 0.11455
H_ H_ 0.159193 0.250673 0.258378 0.11455
H_ H_ 0.190657 0.296084 0.300132 0.11455
H_ H_ 0.175072 0.259995 0.348753 0.11455
H_ H_ 0.199793 0.323698 0.195063 0.11455
H_ H_ 0.134147 0.332865 0.0962129 0.11455
H_ H_ 0.227731 0.330988 0.105922 0.11455
H_ H_ 0.114545 0.315508 0.212846 0.11455
H_ H_ 0.0256938 0.317612 0.204612 0.11455
H_ H_ 0.0506741 0.328971 0.11434 0.11455
H_ H_ 0.377218 0.497995 0.193823 0.11455
H_ H_ 0.375373 0.0725385 0.0955799 0.11455
H_ H_ 0.375636 0.484263 0.101468 0.11455
H_ H_ 0.350709 0.0790978 0.211617 0.11455
H_ H_ 0.353493 0.169912 0.210402 0.11455
H_ H_ 0.379271 0.158662 0.118142 0.11455
H_ H_ 0.438345 0.3982 0.216219 0.11455
H_ H_ 0.453821 0.42582 0.263883 0.11455
H_ H_ 0.422389 0.371457 0.304413 0.11455
H_ H_ 0.314672 0.266214 0.220259 0.11455
H_ H_ 0.287627 0.211166 0.26111 0.11455
H_ H_ 0.317561 0.219954 0.308644 0.11455
H_ H_ 0.496263 0.302834 0.375556 0.11455
H_ H_ 0.503129 0.301696 0.426937 0.11455
H_ H_ 0.243255 0.33159 0.381935 0.11455
H_ H_ 0.24784 0.330619 0.433202 0.11455
H_ H_ 0.424722 0.409667 0.497285 0.11455
H_ H_ 0.475382 0.434299 0.0447243 0.11455
H_ H_ 0.436056 0.392455 0.0873716 0.11455
H_ H_ 0.352657 0.259817 0.00783511 0.11455
H_ H_ 0.310622 0.22268 0.0489586 0.11455
H_ H_ 0.334515 0.249919 0.0967775 0.11455
C_ C_ 0.227069 0.184475 0.404365 0.68181
C_ C_ 0.281915 0.187128 0.399976 -0.05681
C_ C_ 0.315674 0.192445 0.423469 -0.08735
C_ C_ 0.366512 0.180111 0.421555 -0.05681
C_ C_ 0.387641 0.177762 0.39337 -0.05681
C_ C_ 0.355149 0.175979 0.369088 -0.08735
C_ C_ 0.302428 0.179683 0.373899 -0.08735
C_ C_ 0.397568 0.18792 0.445882 -0.08735
C_ C_ 0.450573 0.182408 0.442463 -0.08735
C_ C_ 0.471734 0.176091 0.415014 -0.05681
C_ C_ 0.43897 0.175528 0.390162 -0.08735
C_ C_ 0.126278 0.280235 0.413603 0.68181
C_ C_ 0.130652 0.0799141 0.398304 0.68181
C_ C_ 0.127174 0.0222664 0.395897 -0.05681
C_ C_ 0.12589 0.495624 0.423619 -0.08735
C_ C_ 0.121727 0.442619 0.420933 -0.05681
C_ C_ 0.116737 0.420053 0.393626 -0.05681
C_ C_ 0.11395 0.450872 0.369646 -0.08735
C_ C_ 0.116685 0.502394 0.371603 -0.08735
C_ C_ 0.127437 0.414315 0.446214 -0.08735
C_ C_ 0.126064 0.361697 0.443002 -0.08735
C_ C_ 0.123818 0.336347 0.416419 -0.05681
C_ C_ 0.118028 0.366879 0.391617 -0.08735
C_ C_ 0.0282513 0.182708 0.406369 0.68181
C_ C_ 0.0957913 0.135713 0.483449 0.1947
C_ C_ 0.10767 0.106879 0.00998268 -0.08735
C_ C_ 0.127684 0.133601 0.0330773 -0.08735
C_ C_ 0.156891 0.178488 0.0291423 -0.05681
C_ C_ 0.165191 0.193392 1.00000686448 0.18498
C_ C_ 0.18719 0.236675 0.494817 -0.08735
C_ C_ 0.206152 0.271146 0.0198631 -0.08735
C_ C_ 0.198389 0.254242 0.04775 -0.08735
C_ C_ 0.175032 0.20895 0.052703 0.18498
C_ C_ 0.202934 0.185479 0.0994953 0.44287
C_ C_ 0.113558 0.199087 0.0918791 0.44287
C_ C_ 0.103364 0.190152 0.120356 -0.05681
C_ C_ 0.0538187 0.198978 0.131963 -0.08735
C_ C_ 0.0473973 0.202283 0.16151 -0.08735
C_ C_ 0.0890479 0.192687 0.180936 -0.05681
C_ C_ 0.137627 0.181113 0.169398 -0.05681
C_ C_ 0.145454 0.184146 0.139935 -0.05681
C_ C_ 0.196194 0.180716 0.129044 -0.05681
C_ C_ 0.235822 0.1724 0.149059 -0.08735
C_ C_ 0.226521 0.171443 0.178777 -0.08735
C_ C_ 0.177076 0.173395 0.188963 -0.05681
C_ C_ 0.166558 0.162347 0.217775 0.44287
C_ C_ 0.081096 0.188739 0.211565 0.44287
C_ C_ 0.107771 0.159957 0.258556 0.18498
C_ C_ 0.0711639 0.122498 0.263722 -0.08735
C_ C_ 0.0537482 0.112038 0.291538 -0.08735
C_ C_ 0.0756685 0.137289 0.315054 -0.08735
C_ C_ 0.107784 0.178525 0.310621 0.18498
C_ C_ 0.124291 0.18974 0.282747 -0.05681
C_ C_ 0.150675 0.234959 0.278888 -0.08735
C_ C_ 0.17118 0.260008 0.303363 -0.08735
C_ C_ 0.161051 0.241955 0.330605 0.1947
C_ C_ 0.275622 0.327819 0.154747 0.68181
C_ C_ 0.220756 0.324336 0.15033 -0.05681
C_ C_ 0.18608 0.323935 0.174634 -0.08735
C_ C_ 0.134302 0.323688 0.168941 -0.05681
C_ C_ 0.114787 0.327729 0.140518 -0.05681
C_ C_ 0.147857 0.331981 0.117882 -0.08735
C_ C_ 0.20124 0.328044 0.122629 -0.08735
C_ C_ 0.100984 0.325463 0.191638 -0.08735
C_ C_ 0.0488973 0.329565 0.187052 -0.08735
C_ C_ 0.02933 0.330468 0.159402 -0.05681
C_ C_ 0.0626911 0.331666 0.136137 -0.08735
C_ C_ 0.376687 0.22831 0.162862 0.68181
C_ C_ 0.383542 0.427988 0.151357 0.68181
C_ C_ 0.386825 0.48551 0.148094 -0.05681
C_ C_ 0.352102 0.0101944 0.169173 -0.08735
C_ C_ 0.358443 0.062866 0.166719 -0.05681
C_ C_ 0.362995 0.0874998 0.140394 -0.05681
C_ C_ 0.369166 0.0569696 0.1159 -0.08735
C_ C_ 0.382275 0.506734 0.120651 -0.08735
C_ C_ 0.362902 0.093884 0.191689 -0.08735
C_ C_ 0.362691 0.147168 0.191566 -0.08735
C_ C_ 0.369113 0.171073 0.165531 -0.05681
C_ C_ 0.373432 0.140175 0.138754 -0.08735
C_ C_ 0.475477 0.332687 0.15366 0.68181
C_ C_ 0.417379 0.381714 0.233375 0.1947
C_ C_ 0.425339 0.397206 0.261403 -0.08735
C_ C_ 0.408036 0.366393 0.283233 -0.08735
C_ C_ 0.379421 0.322278 0.277892 -0.05681
C_ C_ 0.365688 0.31299 0.249685 0.18498
C_ C_ 0.333678 0.270286 0.24285 -0.08735
C_ C_ 0.319155 0.236846 0.264145 -0.08735
C_ C_ 0.334559 0.244897 0.292364 -0.08735
C_ C_ 0.357605 0.289901 0.300105 0.18498
C_ C_ 0.319708 0.309053 0.345941 0.44287
C_ C_ 0.408027 0.296944 0.344076 0.44287
C_ C_ 0.413192 0.307287 0.373247 -0.05681
C_ C_ 0.46181 0.301221 0.387775 -0.08735
C_ C_ 0.464119 0.305816 0.418113 -0.08735
C_ C_ 0.420155 0.311553 0.433908 -0.05681
C_ C_ 0.37497 0.320038 0.419778 -0.05681
C_ C_ 0.370443 0.315985 0.389342 -0.05681
C_ C_ 0.323343 0.321404 0.37499 -0.05681
C_ C_ 0.279759 0.330084 0.391872 -0.08735
C_ C_ 0.282125 0.332749 0.421707 -0.08735
C_ C_ 0.329961 0.330014 0.435398 -0.05681
C_ C_ 0.333617 0.334626 0.465184 0.44287
C_ C_ 0.421476 0.316572 0.463486 0.44287
C_ C_ 0.410822 0.34346 0.00944798 0.18498
C_ C_ 0.440447 0.385881 0.0146824 -0.08735
C_ C_ 0.44871 0.402394 0.0421221 -0.08735
C_ C_ 0.423978 0.380352 0.0657572 -0.08735
C_ C_ 0.398474 0.334781 0.0623853 0.18498
C_ C_ 0.387696 0.31953 0.0336208 -0.05681
C_ C_ 0.361323 0.273526 0.0292096 -0.08735
C_ C_ 0.341916 0.248309 0.0529257 -0.08735
C_ C_ 0.355491 0.263878 0.0800135 0.1947
N_ N_ 0.129384 0.173326 0.478137 -0.29468
N_ N_ 0.162761 0.193996 0.0812089 -0.17154
N_ N_ 0.120875 0.171984 0.22868 -0.17154
N_ N_ 0.127261 0.204709 0.334748 -0.29468
N_ N_ 0.386599 0.341125 0.227661 -0.29468
N_ N_ 0.362554 0.303184 0.330526 -0.17154
N_ N_ 0.38016 0.330384 0.477812 -0.17154
N_ N_ 0.382003 0.30765 0.0852388 -0.29468
O_ O_ 0.207943 0.178073 0.429608 -0.58347
O_ O_ 0.19823 0.189983 0.382082 -0.58347
O_ O_ 0.125567 0.253597 0.436617 -0.58347
O_ O_ 0.123662 0.258382 0.389315 -0.58347
O_ O_ 0.133759 0.100672 0.42288 -0.58347
O_ O_ 0.124301 0.109273 0.376726 -0.58347
O_ O_ 0.0550964 0.178467 0.428898 -0.58347
O_ O_ 0.0484782 0.184927 0.381747 -0.58347
O_ O_ 0.0761684 0.212743 0.0746229 -0.46727
O_ O_ 0.246442 0.17288 0.0882027 -0.46727
O_ O_ 0.0417084 0.212892 0.223846 -0.46727
O_ O_ 0.200223 0.143148 0.234962 -0.46727
O_ O_ 0.293609 0.339653 0.179599 -0.58347
O_ O_ 0.305374 0.314839 0.135088 -0.58347
O_ O_ 0.368964 0.257291 0.184394 -0.58347
O_ O_ 0.384488 0.24704 0.138086 -0.58347
O_ O_ 0.384392 0.40955 0.176228 -0.58347
O_ O_ 0.38251 0.400396 0.129525 -0.58347
O_ O_ 0.446744 0.33235 0.17537 -0.58347
O_ O_ 0.45558 0.33686 0.128769 -0.58347
O_ O_ 0.448724 0.286431 0.328771 -0.46727
O_ O_ 0.275131 0.312921 0.333205 -0.46727
O_ O_ 0.465327 0.317681 0.476415 -0.46727
O_ O_ 0.292943 0.345261 0.480437 -0.46727
Zn Zn 0.132369 0.177528 0.884187 0.90689
Zn Zn 0.148136 0.173024 0.929844 0.90689
Zn Zn 0.370543 0.310507 0.630299 0.90689
Zn Zn 0.362302 0.316256 0.678985 0.90689
H_ H_ 0.316893 0.199396 0.941744 0.11455
H_ H_ 0.379967 0.129556 0.85056 0.11455
H_ H_ 0.284483 0.139774 0.85897 0.11455
H_ H_ 0.402444 0.183892 0.961793 0.11455
H_ H_ 0.495272 0.18707 0.954218 0.11455
H_ H_ 0.467393 0.135386 0.8683 0.11455
H_ H_ 0.151424 0.0110023 0.942926 0.11455
H_ H_ 0.0786494 0.434575 0.859175 0.11455
H_ H_ 0.17545 0.0222758 0.852638 0.11455
H_ H_ 0.172976 0.41914 0.966549 0.11455
H_ H_ 0.164794 0.331196 0.960365 0.11455
H_ H_ 0.102901 0.347943 0.874246 0.11455
H_ H_ 0.111109 0.094718 0.964743 0.11455
H_ H_ 0.0678435 0.0819274 0.514957 0.11455
H_ H_ 0.0939677 0.133926 0.556067 0.11455
H_ H_ 0.202629 0.249042 0.973216 0.11455
H_ H_ 0.242362 0.287283 0.512582 0.11455
H_ H_ 0.210042 0.278034 0.561758 0.11455
H_ H_ 0.00809879 0.22428 0.622008 0.11455
H_ H_ -0.006649000000000016 0.198345 0.671693 0.11455
H_ H_ 0.258491 0.164586 0.640336 0.11455
H_ H_ 0.239821 0.153164 0.689598 0.11455
H_ H_ 0.0371739 0.103041 0.747953 0.11455
H_ H_ 0.0231327 0.0711294 0.796456 0.11455
H_ H_ 0.0689954 0.109372 0.836416 0.11455
H_ H_ 0.149731 0.24449 0.756076 0.11455
H_ H_ 0.19575 0.284558 0.796742 0.11455
H_ H_ 0.184504 0.250881 0.845856 0.11455
H_ H_ 0.190651 0.310055 0.693233 0.11455
H_ H_ 0.124353 0.320647 0.595114 0.11455
H_ H_ 0.212787 0.330974 0.602701 0.11455
H_ H_ 0.102896 0.326192 0.713261 0.11455
H_ H_ 0.0171004 0.316015 0.703284 0.11455
H_ H_ 0.0389867 0.327103 0.614631 0.11455
H_ H_ 0.375856 0.481135 0.69118 0.11455
H_ H_ 0.38771 0.0586989 0.598108 0.11455
H_ H_ 0.343862 0.469812 0.600582 0.11455
H_ H_ 0.348146 0.0665572 0.713654 0.11455
H_ H_ 0.356202 0.154144 0.71102 0.11455
H_ H_ 0.38011 0.14942 0.619786 0.11455
H_ H_ 0.409101 0.396738 0.71593 0.11455
H_ H_ 0.428296 0.423124 0.764598 0.11455
H_ H_ 0.395334 0.377204 0.80575 0.11455
H_ H_ 0.294468 0.254657 0.724087 0.11455
H_ H_ 0.271675 0.200238 0.765554 0.11455
H_ H_ 0.290286 0.220731 0.812339 0.11455
H_ H_ 0.483259 0.265436 0.869106 0.11455
H_ H_ 0.502142 0.27101 0.919779 0.11455
H_ H_ 0.239902 0.328865 0.894422 0.11455
H_ H_ 0.261779 0.35666 0.942058 0.11455
H_ H_ 0.453138 0.411084 -0.0022199999999999998 0.11455
H_ H_ 0.456745 0.421838 0.548825 0.11455
H_ H_ 0.430691 0.373706 0.58726 0.11455
H_ H_ 0.343533 0.25201 0.503688 0.11455
H_ H_ 0.304766 0.204981 0.54207 0.11455
H_ H_ 0.314928 0.233829 0.594183 0.11455
C_ C_ 0.241389 0.180625 0.903308 0.68181
C_ C_ 0.296373 0.173754 0.899476 -0.05681
C_ C_ 0.3312 0.181142 0.922354 -0.08735
C_ C_ 0.384155 0.168565 0.918739 -0.05681
C_ C_ 0.402408 0.156768 0.892035 -0.05681
C_ C_ 0.366699 0.144068 0.8701 -0.08735
C_ C_ 0.314486 0.155009 0.873634 -0.08735
C_ C_ 0.415798 0.170942 0.942106 -0.08735
C_ C_ 0.468946 0.170072 0.93878 -0.08735
C_ C_ 0.488647 0.158687 0.91072 -0.05681
C_ C_ 0.453929 0.144964 0.889026 -0.08735
C_ C_ 0.136325 0.273725 0.911861 0.68181
C_ C_ 0.150938 0.0784977 0.900391 0.68181
C_ C_ 0.160226 0.0229382 0.897745 -0.05681
C_ C_ 0.150272 0.491547 0.925802 -0.08735
C_ C_ 0.140873 0.437873 0.923568 -0.05681
C_ C_ 0.11816 0.416676 0.898705 -0.05681
C_ C_ 0.0997384 0.450829 0.877734 -0.08735
C_ C_ 0.114768 0.503115 0.878568 -0.08735
C_ C_ 0.157703 0.404605 0.945591 -0.08735
C_ C_ 0.152106 0.352845 0.941846 -0.08735
C_ C_ 0.134373 0.330217 0.91624 -0.05681
C_ C_ 0.115444 0.362906 0.89454 -0.08735
C_ C_ 0.0415643 0.171533 0.90776 0.68181
C_ C_ 0.122288 0.118396 0.983043 0.1947
C_ C_ 0.0930584 0.114129 0.511425 -0.08735
C_ C_ 0.109278 0.143522 0.534713 -0.08735
C_ C_ 0.133864 0.191127 0.529141 -0.05681
C_ C_ 0.147045 0.202136 0.499995 0.18498
C_ C_ 0.190554 0.240414 0.995891 -0.08735
C_ C_ 0.208375 0.262905 0.516937 -0.08735
C_ C_ 0.190157 0.257115 0.544738 -0.08735
C_ C_ 0.155475 0.220657 0.551588 0.18498
C_ C_ 0.183002 0.188823 0.597074 0.44287
C_ C_ 0.0980964 0.218826 0.592106 0.44287
C_ C_ 0.0900096 0.208593 0.621998 -0.05681
C_ C_ 0.0403408 0.212739 0.634004 -0.08735
C_ C_ 0.0331716 0.202252 0.663891 -0.08735
C_ C_ 0.0737231 0.190758 0.681803 -0.05681
C_ C_ 0.122506 0.183268 0.669196 -0.05681
C_ C_ 0.130175 0.193225 0.639615 -0.05681
C_ C_ 0.177457 0.182446 0.627783 -0.05681
C_ C_ 0.218135 0.169671 0.646653 -0.08735
C_ C_ 0.211297 0.159902 0.676015 -0.08735
C_ C_ 0.161095 0.163762 0.68702 -0.05681
C_ C_ 0.151549 0.153778 0.716217 0.44287
C_ C_ 0.0669298 0.186895 0.711855 0.44287
C_ C_ 0.0984239 0.155631 0.759065 0.18498
C_ C_ 0.0584803 0.121044 0.76533 -0.08735
C_ C_ 0.0529606 0.101203 0.792429 -0.08735
C_ C_ 0.0827682 0.120008 0.815128 -0.08735
C_ C_ 0.112978 0.165772 0.811045 0.18498
C_ C_ 0.120127 0.18394 0.782117 -0.05681
C_ C_ 0.148112 0.226542 0.777743 -0.08735
C_ C_ 0.173116 0.250316 0.800685 -0.08735
C_ C_ 0.164812 0.232594 0.828594 0.1947
C_ C_ 0.265994 0.319439 0.65167 0.68181
C_ C_ 0.210435 0.325416 0.648698 -0.05681
C_ C_ 0.176335 0.319945 0.672565 -0.08735
C_ C_ 0.125095 0.329556 0.668476 -0.05681
C_ C_ 0.106082 0.330151 0.640551 -0.05681
C_ C_ 0.137603 0.325976 0.616491 -0.08735
C_ C_ 0.189625 0.328976 0.621248 -0.08735
C_ C_ 0.0918614 0.331261 0.691824 -0.08735
C_ C_ 0.0401586 0.333994 0.687009 -0.08735
C_ C_ 0.0211508 0.333711 0.658939 -0.05681
C_ C_ 0.0530972 0.332718 0.636547 -0.08735
C_ C_ 0.360641 0.215153 0.661654 0.68181
C_ C_ 0.360712 0.412 0.649175 0.68181
C_ C_ 0.360848 0.467445 0.646285 -0.05681
C_ C_ 0.348499 0.0009300000000000974 0.669555 -0.08735
C_ C_ 0.36036 0.0510472 0.668572 -0.05681
C_ C_ 0.367203 0.0741854 0.64108 -0.05681
C_ C_ 0.373935 0.0443762 0.616989 -0.08735
C_ C_ 0.352148 0.491691 0.6198 -0.08735
C_ C_ 0.353793 0.0814989 0.692525 -0.08735
C_ C_ 0.355229 0.134238 0.690433 -0.08735
C_ C_ 0.361682 0.159534 0.66372 -0.05681
C_ C_ 0.367246 0.12828 0.639765 -0.08735
C_ C_ 0.465836 0.313481 0.658385 0.68181
C_ C_ 0.391197 0.375217 0.73209 0.1947
C_ C_ 0.40339 0.390295 0.760891 -0.08735
C_ C_ 0.385197 0.361499 0.783748 -0.08735
C_ C_ 0.353194 0.317916 0.778645 -0.05681
C_ C_ 0.339734 0.307648 0.749789 0.18498
C_ C_ 0.310845 0.263737 0.745066 -0.08735
C_ C_ 0.295242 0.234984 0.768079 -0.08735
C_ C_ 0.305407 0.24873 0.796002 -0.08735
C_ C_ 0.333533 0.290268 0.802233 0.18498
C_ C_ 0.310589 0.311312 0.851465 0.44287
C_ C_ 0.392631 0.28234 0.842258 0.44287
C_ C_ 0.404171 0.286612 0.872848 -0.05681
C_ C_ 0.453018 0.277911 0.884212 -0.08735
C_ C_ 0.464272 0.283047 0.913084 -0.08735
C_ C_ 0.428651 0.306925 0.932057 -0.05681
C_ C_ 0.379175 0.315588 0.921212 -0.05681
C_ C_ 0.36563 0.303782 0.89101 -0.05681
C_ C_ 0.318083 0.313244 0.880992 -0.05681
C_ C_ 0.28081 0.332245 0.89983 -0.08735
C_ C_ 0.292794 0.343557 0.928535 -0.08735
C_ C_ 0.341153 0.332381 0.9391 -0.05681
C_ C_ 0.353513 0.341553 0.967822 0.44287
C_ C_ 0.438521 0.315614 0.961698 0.44287
C_ C_ 0.387171 0.344489 0.508366 0.18498
C_ C_ 0.414658 0.388597 0.514944 -0.08735
C_ C_ 0.424829 0.400563 0.543912 -0.08735
C_ C_ 0.407859 0.371375 0.566368 -0.08735
C_ C_ 0.379983 0.326888 0.560352 0.18498
C_ C_ 0.370879 0.313984 0.531277 -0.05681
C_ C_ 0.345555 0.268527 0.52482 -0.08735
C_ C_ 0.324227 0.2401 0.547465 -0.08735
C_ C_ 0.3357 0.252135 0.576345 0.1947
N_ N_ 0.148914 0.163166 0.978 -0.29468
N_ N_ 0.145048 0.209112 0.580316 -0.17154
N_ N_ 0.107109 0.16785 0.728696 -0.17154
N_ N_ 0.134571 0.190522 0.833678 -0.29468
N_ N_ 0.360872 0.332291 0.727806 -0.29468
N_ N_ 0.348544 0.299762 0.831755 -0.17154
N_ N_ 0.399215 0.330783 0.979075 -0.17154
N_ N_ 0.365972 0.295311 0.581823 -0.29468
O_ O_ 0.225186 0.185032 0.929256 -0.58347
O_ O_ 0.210539 0.181656 0.882103 -0.58347
O_ O_ 0.138801 0.24603 0.93359 -0.58347
O_ O_ 0.129926 0.252732 0.887129 -0.58347
O_ O_ 0.161721 0.0977093 0.924002 -0.58347
O_ O_ 0.131881 0.102933 0.879631 -0.58347
O_ O_ 0.0696924 0.165702 0.928885 -0.58347
O_ O_ 0.0596049 0.176146 0.882387 -0.58347
O_ O_ 0.0653682 0.245362 0.577546 -0.46727
O_ O_ 0.226725 0.176591 0.583875 -0.46727
O_ O_ 0.0235636 0.197341 0.723652 -0.46727
O_ O_ 0.1881 0.137145 0.73321 -0.46727
O_ O_ 0.285463 0.322098 0.676312 -0.58347
O_ O_ 0.292463 0.304764 0.630508 -0.58347
O_ O_ 0.355139 0.243757 0.683524 -0.58347
O_ O_ 0.369256 0.235419 0.637424 -0.58347
O_ O_ 0.354422 0.390084 0.673432 -0.58347
O_ O_ 0.366473 0.384399 0.626372 -0.58347
O_ O_ 0.436454 0.320864 0.680076 -0.58347
O_ O_ 0.44696 0.312345 0.633367 -0.58347
O_ O_ 0.429775 0.267792 0.823661 -0.46727
O_ O_ 0.266607 0.327763 0.841497 -0.46727
O_ O_ 0.483369 0.305317 0.972739 -0.46727
O_ O_ 0.322245 0.362411 0.984821 -0.46727
Zn Zn 0.121695 0.678278 0.38406 0.90689
Zn Zn 0.132244 0.675127 0.431792 0.90689
Zn Zn 0.376981 0.823956 0.130793 0.90689
Zn Zn 0.367941 0.830278 0.177983 0.90689
H_ H_ 0.297915 0.693059 0.447971 0.11455
H_ H_ 0.368968 0.694337 0.349616 0.11455
H_ H_ 0.275114 0.693332 0.356028 0.11455
H_ H_ 0.381487 0.658051 0.463711 0.11455
H_ H_ 0.474215 0.665645 0.458439 0.11455
H_ H_ 0.452162 0.699068 0.367665 0.11455
H_ H_ 0.138104 0.512042 0.444744 0.11455
H_ H_ 0.0944302 0.93152 0.349102 0.11455
H_ H_ 0.114445 0.525003 0.353254 0.11455
H_ H_ 0.172262 0.927049 0.457813 0.11455
H_ H_ 0.158 0.833331 0.4566 0.11455
H_ H_ 0.102727 0.841639 0.371305 0.11455
H_ H_ 0.0869747 0.591626 0.468101 0.11455
H_ H_ 0.0787706 0.571888 0.0225616 0.11455
H_ H_ 0.106212 0.622739 0.0632022 0.11455
H_ H_ 0.184975 0.738219 0.476429 0.11455
H_ H_ 0.228313 0.793295 0.0145175 0.11455
H_ H_ 0.209985 0.772835 0.0652334 0.11455
H_ H_ 0.0136382 0.704277 0.122617 0.11455
H_ H_ 0.0027200000000000557 0.69693 0.176588 0.11455
H_ H_ 0.265822 0.698904 0.143786 0.11455
H_ H_ 0.254203 0.675715 0.196621 0.11455
H_ H_ 0.0643778 0.585885 0.249344 0.11455
H_ H_ 0.0327574 0.565155 0.298951 0.11455
H_ H_ 0.0510702 0.627353 0.337125 0.11455
H_ H_ 0.141915 0.74905 0.259386 0.11455
H_ H_ 0.185282 0.794644 0.298954 0.11455
H_ H_ 0.158872 0.769169 0.349117 0.11455
H_ H_ 0.201288 0.819908 0.192923 0.11455
H_ H_ 0.130461 0.827124 0.095504 0.11455
H_ H_ 0.219826 0.833682 0.103542 0.11455
H_ H_ 0.117136 0.807953 0.212632 0.11455
H_ H_ 0.0259114 0.808102 0.207174 0.11455
H_ H_ 0.0411746 0.833071 0.117408 0.11455
H_ H_ 0.340761 0.993673 0.18908 0.11455
H_ H_ 0.396564 0.570793 0.096544 0.11455
H_ H_ 0.369967 0.981793 0.0980442 0.11455
H_ H_ 0.359255 0.583716 0.212324 0.11455
H_ H_ 0.359058 0.673274 0.207978 0.11455
H_ H_ 0.390282 0.662004 0.116531 0.11455
H_ H_ 0.427799 0.900536 0.212128 0.11455
H_ H_ 0.420335 0.943346 0.263559 0.11455
H_ H_ 0.387811 0.901604 0.301112 0.11455
H_ H_ 0.30897 0.774734 0.222031 0.11455
H_ H_ 0.269279 0.722962 0.263217 0.11455
H_ H_ 0.300192 0.7401 0.311232 0.11455
H_ H_ 0.476728 0.804182 0.370138 0.11455
H_ H_ 0.492388 0.813498 0.421226 0.11455
H_ H_ 0.226933 0.831029 0.388857 0.11455
H_ H_ 0.242498 0.827745 0.441616 0.11455
H_ H_ 0.430219 0.900277 0.499862 0.11455
H_ H_ 0.458436 0.939646 0.0493541 0.11455
H_ H_ 0.445316 0.87108 0.0871055 0.11455
H_ H_ 0.334135 0.761788 0.00832673 0.11455
H_ H_ 0.290611 0.728253 0.0471684 0.11455
H_ H_ 0.317798 0.743205 0.0966169 0.11455
C_ C_ 0.225167 0.685784 0.406882 0.68181
C_ C_ 0.278886 0.688538 0.403093 -0.05681
C_ C_ 0.313358 0.69277 0.426378 -0.08735
C_ C_ 0.365488 0.689081 0.422133 -0.05681
C_ C_ 0.38621 0.687421 0.393776 -0.05681
C_ C_ 0.354332 0.688904 0.371203 -0.08735
C_ C_ 0.300488 0.686806 0.375801 -0.08735
C_ C_ 0.397266 0.673176 0.44359 -0.08735
C_ C_ 0.448515 0.668993 0.43934 -0.08735
C_ C_ 0.46911 0.681143 0.412052 -0.05681
C_ C_ 0.438599 0.685817 0.388544 -0.08735
C_ C_ 0.122517 0.775291 0.415068 0.68181
C_ C_ 0.129553 0.582139 0.399368 0.68181
C_ C_ 0.12391 0.525658 0.397799 -0.05681
C_ C_ 0.13968 0.99256 0.419438 -0.08735
C_ C_ 0.140019 0.939425 0.416479 -0.05681
C_ C_ 0.128902 0.915347 0.39047 -0.05681
C_ C_ 0.113698 0.946716 0.368156 -0.08735
C_ C_ 0.111879 0.99891 0.370199 -0.08735
C_ C_ 0.154794 0.907935 0.439472 -0.08735
C_ C_ 0.144305 0.856519 0.439939 -0.08735
C_ C_ 0.128819 0.833625 0.415033 -0.05681
C_ C_ 0.118492 0.862252 0.389804 -0.08735
C_ C_ 0.0267757 0.66951 0.410863 0.68181
C_ C_ 0.100534 0.613572 0.484697 0.1947
C_ C_ 0.0966828 0.606667 0.0177164 -0.08735
C_ C_ 0.116891 0.634224 0.0408321 -0.08735
C_ C_ 0.143541 0.678705 0.0352805 -0.05681
C_ C_ 0.153275 0.690518 1.00515911 0.18498
C_ C_ 0.171583 0.727714 0.497689 -0.08735
C_ C_ 0.205536 0.761866 0.0197078 -0.08735
C_ C_ 0.190265 0.753203 0.0480819 -0.08735
C_ C_ 0.164581 0.709452 0.0563539 0.18498
C_ C_ 0.196623 0.691437 0.103569 0.44287
C_ C_ 0.108499 0.710717 0.0976839 0.44287
C_ C_ 0.0968518 0.69509 0.12641 -0.05681
C_ C_ 0.0454648 0.696928 0.136525 -0.08735
C_ C_ 0.0384736 0.69383 0.165407 -0.08735
C_ C_ 0.0782611 0.680618 0.184268 -0.05681
C_ C_ 0.127623 0.675069 0.173804 -0.05681
C_ C_ 0.137663 0.682302 0.143977 -0.05681
C_ C_ 0.186964 0.68841 0.133513 -0.05681
C_ C_ 0.228913 0.686439 0.152945 -0.08735
C_ C_ 0.221017 0.67405 0.182371 -0.08735
C_ C_ 0.168836 0.6697 0.192412 -0.05681
C_ C_ 0.158568 0.660034 0.221366 0.44287
C_ C_ 0.0709683 0.678669 0.214564 0.44287
C_ C_ 0.0999708 0.65579 0.261485 0.18498
C_ C_ 0.0714784 0.613155 0.267639 -0.08735
C_ C_ 0.0602099 0.597892 0.295174 -0.08735
C_ C_ 0.0738221 0.627768 0.318612 -0.08735
C_ C_ 0.098962 0.675085 0.313219 0.18498
C_ C_ 0.113461 0.688762 0.284156 -0.05681
C_ C_ 0.137286 0.734087 0.280556 -0.08735
C_ C_ 0.157393 0.761333 0.302443 -0.08735
C_ C_ 0.143734 0.748503 0.330783 0.1947
C_ C_ 0.273196 0.823557 0.152757 0.68181
C_ C_ 0.216724 0.824504 0.149255 -0.05681
C_ C_ 0.185236 0.821861 0.172606 -0.08735
C_ C_ 0.132989 0.820622 0.167979 -0.05681
C_ C_ 0.110765 0.82354 0.140484 -0.05681
C_ C_ 0.142695 0.824491 0.116993 -0.08735
C_ C_ 0.19621 0.822358 0.121744 -0.08735
C_ C_ 0.101061 0.812408 0.191163 -0.08735
C_ C_ 0.0471696 0.8098 0.188072 -0.08735
C_ C_ 0.0258585 0.821949 0.161502 -0.05681
C_ C_ 0.0580998 0.823488 0.137272 -0.08735
C_ C_ 0.376723 0.729559 0.160474 0.68181
C_ C_ 0.364415 0.92433 0.146351 0.68181
C_ C_ 0.35743 0.979435 0.144218 -0.05681
C_ C_ 0.380525 0.515123 0.172622 -0.08735
C_ C_ 0.37784 0.567707 0.169297 -0.05681
C_ C_ 0.386777 0.59098 0.142234 -0.05681
C_ C_ 0.389724 0.557509 0.117678 -0.08735
C_ C_ 0.362252 0.00492194 0.117566 -0.08735
C_ C_ 0.365186 0.598514 0.192209 -0.08735
C_ C_ 0.370329 0.6516 0.190072 -0.08735
C_ C_ 0.378665 0.674232 0.162888 -0.05681
C_ C_ 0.390547 0.643905 0.138336 -0.08735
C_ C_ 0.472077 0.825859 0.154988 0.68181
C_ C_ 0.401742 0.888682 0.23 0.1947
C_ C_ 0.403342 0.908072 0.257441 -0.08735
C_ C_ 0.3793 0.885989 0.280125 -0.08735
C_ C_ 0.352866 0.840079 0.27721 -0.05681
C_ C_ 0.346889 0.823138 0.248446 0.18498
C_ C_ 0.315705 0.783197 0.243676 -0.08735
C_ C_ 0.295161 0.755748 0.266453 -0.08735
C_ C_ 0.308513 0.766623 0.294469 -0.08735
C_ C_ 0.333076 0.811506 0.300643 0.18498
C_ C_ 0.302812 0.833749 0.347813 0.44287
C_ C_ 0.390253 0.815616 0.341061 0.44287
C_ C_ 0.398783 0.819288 0.371595 -0.05681
C_ C_ 0.446553 0.815057 0.383323 -0.08735
C_ C_ 0.452723 0.813412 0.413022 -0.08735
C_ C_ 0.411407 0.816802 0.432004 -0.05681
C_ C_ 0.363521 0.824417 0.420151 -0.05681
C_ C_ 0.356583 0.825923 0.390315 -0.05681
C_ C_ 0.307111 0.832696 0.378733 -0.05681
C_ C_ 0.265294 0.837029 0.397517 -0.08735
C_ C_ 0.272099 0.832411 0.427639 -0.08735
C_ C_ 0.321161 0.82932 0.439221 -0.05681
C_ C_ 0.328728 0.825075 0.468783 0.44287
C_ C_ 0.414757 0.809615 0.462572 0.44287
C_ C_ 0.394008 0.852678 0.0114074 0.18498
C_ C_ 0.421093 0.895455 0.0183515 -0.08735
C_ C_ 0.438581 0.906237 0.0452332 -0.08735
C_ C_ 0.42613 0.869942 0.0669286 -0.08735
C_ C_ 0.393919 0.82863 0.0615347 0.18498
C_ C_ 0.377632 0.818227 0.0332571 -0.05681
C_ C_ 0.343134 0.779742 0.0289269 -0.08735
C_ C_ 0.317407 0.758794 0.0517072 -0.08735
C_ C_ 0.334678 0.768394 0.0798563 0.1947
N_ N_ 0.128879 0.655055 0.479256 -0.29468
N_ N_ 0.156506 0.700766 0.0865023 -0.17154
N_ N_ 0.110296 0.666979 0.23186 -0.17154
N_ N_ 0.117642 0.704993 0.335432 -0.29468
N_ N_ 0.370329 0.847714 0.225752 -0.29468
N_ N_ 0.342358 0.82428 0.329872 -0.17154
N_ N_ 0.375298 0.818698 0.480704 -0.17154
N_ N_ 0.37217 0.802091 0.0848125 -0.29468
O_ O_ 0.206353 0.675915 0.430738 -0.58347
O_ O_ 0.195862 0.683421 0.384951 -0.58347
O_ O_ 0.13475 0.748441 0.436831 -0.58347
O_ O_ 0.112651 0.751943 0.391576 -0.58347
O_ O_ 0.12773 0.60233 0.425251 -0.58347
O_ O_ 0.124197 0.608607 0.377084 -0.58347
O_ O_ 0.057451 0.678463 0.431366 -0.58347
O_ O_ 0.0458585 0.669997 0.385579 -0.58347
O_ O_ 0.071051 0.726346 0.0811681 -0.46727
O_ O_ 0.243155 0.685683 0.0934319 -0.46727
O_ O_ 0.0237227 0.682719 0.22567 -0.46727
O_ O_ 0.196818 0.651674 0.23977 -0.46727
O_ O_ 0.292999 0.831827 0.176924 -0.58347
O_ O_ 0.301145 0.813837 0.130974 -0.58347
O_ O_ 0.369218 0.757275 0.18244 -0.58347
O_ O_ 0.384917 0.751193 0.136852 -0.58347
O_ O_ 0.36952 0.906842 0.17097 -0.58347
O_ O_ 0.366114 0.896234 0.124803 -0.58347
O_ O_ 0.443356 0.829731 0.17695 -0.58347
O_ O_ 0.452525 0.829661 0.13096 -0.58347
O_ O_ 0.426303 0.804364 0.322496 -0.46727
O_ O_ 0.25609 0.836497 0.338131 -0.46727
O_ O_ 0.456788 0.797859 0.473732 -0.46727
O_ O_ 0.291714 0.841249 0.485698 -0.46727
Zn Zn 0.13074 0.679909 0.886968 0.90689
Zn Zn 0.13977 0.674243 0.935529 0.90689
Zn Zn 0.361691 0.809324 0.632221 0.90689
Zn Zn 0.356305 0.81493 0.679667 0.90689
H_ H_ 0.31697 0.686607 0.946985 0.11455
H_ H_ 0.371759 0.647155 0.850284 0.11455
H_ H_ 0.279981 0.642755 0.863184 0.11455
H_ H_ 0.398668 0.694524 0.963655 0.11455
H_ H_ 0.490512 0.699831 0.953028 0.11455
H_ H_ 0.456936 0.683777 0.865683 0.11455
H_ H_ 0.165641 0.506888 0.945024 0.11455
H_ H_ 0.164277 0.93028 0.847838 0.11455
H_ H_ 0.0989038 0.52882 0.862284 0.11455
H_ H_ 0.130363 0.92414 0.963897 0.11455
H_ H_ 0.12208 0.835677 0.959859 0.11455
H_ H_ 0.152303 0.845685 0.868112 0.11455
H_ H_ 0.0887215 0.600117 0.97031 0.11455
H_ H_ 0.0697049 0.563668 0.514995 0.11455
H_ H_ 0.100441 0.6078 0.555487 0.11455
H_ H_ 0.198686 0.737355 0.977104 0.11455
H_ H_ 0.20117 0.799755 0.51388 0.11455
H_ H_ 0.177139 0.780702 0.563924 0.11455
H_ H_ 0.999517924 0.69176 0.624152 0.11455
H_ H_ 0.986759 0.690043 0.674983 0.11455
H_ H_ 0.255169 0.668647 0.64253 0.11455
H_ H_ 0.243168 0.660729 0.694774 0.11455
H_ H_ 0.0497355 0.578281 0.756449 0.11455
H_ H_ 0.0319222 0.561721 0.807158 0.11455
H_ H_ 0.058466 0.618001 0.844614 0.11455
H_ H_ 0.148538 0.734442 0.759935 0.11455
H_ H_ 0.185591 0.780726 0.798951 0.11455
H_ H_ 0.185792 0.748534 0.845958 0.11455
H_ H_ 0.188239 0.803029 0.696581 0.11455
H_ H_ 0.116946 0.80602 0.600432 0.11455
H_ H_ 0.208239 0.821773 0.607298 0.11455
H_ H_ 0.104828 0.821188 0.718141 0.11455
H_ H_ 0.0158064 0.791863 0.707863 0.11455
H_ H_ 0.0312218 0.806618 0.619681 0.11455
H_ H_ 0.337701 0.98405 0.689943 0.11455
H_ H_ 0.327848 0.561518 0.597998 0.11455
H_ H_ 0.388481 0.967896 0.602737 0.11455
H_ H_ 0.388803 0.568001 0.713016 0.11455
H_ H_ 0.388494 0.661873 0.70635 0.11455
H_ H_ 0.34238 0.644166 0.619259 0.11455
H_ H_ 0.418044 0.882673 0.71367 0.11455
H_ H_ 0.438427 0.919112 0.76187 0.11455
H_ H_ 0.395105 0.880859 0.802806 0.11455
H_ H_ 0.300768 0.747927 0.726004 0.11455
H_ H_ 0.25622 0.718123 0.765815 0.11455
H_ H_ 0.278323 0.742759 0.816007 0.11455
H_ H_ 0.479927 0.778383 0.874327 0.11455
H_ H_ 0.494623 0.798899 0.925864 0.11455
H_ H_ 0.243434 0.875899 0.88796 0.11455
H_ H_ 0.257728 0.887201 0.937324 0.11455
H_ H_ 0.425362 0.923959 1.00348 0.11455
H_ H_ 0.449444 0.921095 0.550212 0.11455
H_ H_ 0.416913 0.871613 0.587439 0.11455
H_ H_ 0.329758 0.74929 0.50728 0.11455
H_ H_ 0.287106 0.707564 0.54808 0.11455
H_ H_ 0.304623 0.736298 0.598199 0.11455
C_ C_ 0.23455 0.676665 0.909914 0.68181
C_ C_ 0.290114 0.668923 0.904742 -0.05681
C_ C_ 0.325874 0.671841 0.926802 -0.08735
C_ C_ 0.378416 0.67305 0.921251 -0.05681
C_ C_ 0.393366 0.668082 0.893267 -0.05681
C_ C_ 0.358393 0.65601 0.871852 -0.08735
C_ C_ 0.306923 0.657931 0.87697 -0.08735
C_ C_ 0.413875 0.68444 0.943619 -0.08735
C_ C_ 0.46494 0.682926 0.937503 -0.08735
C_ C_ 0.480362 0.680232 0.909013 -0.05681
C_ C_ 0.444346 0.677631 0.886693 -0.08735
C_ C_ 0.135989 0.775201 0.913497 0.68181
C_ C_ 0.139363 0.58079 0.905968 0.68181
C_ C_ 0.134774 0.524216 0.904092 -0.05681
C_ C_ 0.152957 0.991743 0.922028 -0.08735
C_ C_ 0.150838 0.936986 0.919834 -0.05681
C_ C_ 0.152622 0.915312 0.89255 -0.05681
C_ C_ 0.164192 0.948014 0.868642 -0.08735
C_ C_ 0.16855 0.000486001 0.87134 -0.08735
C_ C_ 0.137306 0.907147 0.943464 -0.08735
C_ C_ 0.129027 0.855551 0.940987 -0.08735
C_ C_ 0.136875 0.831684 0.914403 -0.05681
C_ C_ 0.146688 0.862081 0.889655 -0.08735
C_ C_ 0.0369994 0.677085 0.908887 0.68181
C_ C_ 0.103891 0.621651 0.989043 0.1947
C_ C_ 0.0959619 0.594288 0.512155 -0.08735
C_ C_ 0.112554 0.622235 0.535197 -0.08735
C_ C_ 0.134797 0.670466 0.530776 -0.05681
C_ C_ 0.144452 0.684137 0.502262 0.18498
C_ C_ 0.183464 0.732839 0.998657 -0.08735
C_ C_ 0.18161 0.763213 0.519043 -0.08735
C_ C_ 0.169621 0.752767 0.5473 -0.08735
C_ C_ 0.145134 0.703599 0.554301 0.18498
C_ C_ 0.180114 0.684325 0.601541 0.44287
C_ C_ 0.0907282 0.692152 0.595697 0.44287
C_ C_ 0.0833184 0.685288 0.625977 -0.05681
C_ C_ 0.0330835 0.684165 0.636935 -0.08735
C_ C_ 0.0260782 0.680013 0.666551 -0.08735
C_ C_ 0.0674794 0.67351 0.685643 -0.05681
C_ C_ 0.117748 0.674305 0.673946 -0.05681
C_ C_ 0.125753 0.679293 0.643561 -0.05681
C_ C_ 0.174811 0.672059 0.630583 -0.05681
C_ C_ 0.215577 0.668127 0.650544 -0.08735
C_ C_ 0.207668 0.667368 0.680569 -0.08735
C_ C_ 0.159562 0.666547 0.692211 -0.05681
C_ C_ 0.151769 0.658428 0.722011 0.44287
C_ C_ 0.0611568 0.66625 0.715429 0.44287
C_ C_ 0.0959767 0.644358 0.764819 0.18498
C_ C_ 0.069348 0.600906 0.772306 -0.08735
C_ C_ 0.0565133 0.59274 0.801541 -0.08735
C_ C_ 0.0725088 0.624524 0.823197 -0.08735
C_ C_ 0.104909 0.663117 0.81655 0.18498
C_ C_ 0.113129 0.67769 0.787258 -0.05681
C_ C_ 0.143636 0.720674 0.780919 -0.08735
C_ C_ 0.169263 0.744735 0.80287 -0.08735
C_ C_ 0.165318 0.726816 0.830364 0.1947
C_ C_ 0.259802 0.811819 0.656807 0.68181
C_ C_ 0.20492 0.811541 0.652733 -0.05681
C_ C_ 0.171387 0.812385 0.676353 -0.08735
C_ C_ 0.119649 0.81793 0.672808 -0.05681
C_ C_ 0.0991177 0.818761 0.644769 -0.05681
C_ C_ 0.13204 0.815832 0.621317 -0.08735
C_ C_ 0.184721 0.819937 0.624893 -0.08735
C_ C_ 0.0882636 0.816058 0.695859 -0.08735
C_ C_ 0.0361064 0.806578 0.691551 -0.08735
C_ C_ 0.0137141 0.816036 0.664504 -0.05681
C_ C_ 0.0449251 0.816583 0.64075 -0.08735
C_ C_ 0.360318 0.713675 0.660424 0.68181
C_ C_ 0.361928 0.911424 0.647732 0.68181
C_ C_ 0.360764 0.96831 0.645381 -0.05681
C_ C_ 0.363491 0.499183 0.671334 -0.08735
C_ C_ 0.363018 0.552278 0.669126 -0.05681
C_ C_ 0.352788 0.574053 0.642747 -0.05681
C_ C_ 0.345304 0.545279 0.618343 -0.08735
C_ C_ 0.371881 0.991767 0.618925 -0.08735
C_ C_ 0.375454 0.583519 0.692791 -0.08735
C_ C_ 0.374499 0.636052 0.689312 -0.08735
C_ C_ 0.36251 0.657546 0.663741 -0.05681
C_ C_ 0.349504 0.626937 0.64058 -0.08735
C_ C_ 0.45715 0.813637 0.657895 0.68181
C_ C_ 0.402149 0.863664 0.73169 0.1947
C_ C_ 0.412109 0.886066 0.758695 -0.08735
C_ C_ 0.387492 0.86502 0.782074 -0.08735
C_ C_ 0.357409 0.822599 0.779264 -0.05681
C_ C_ 0.34642 0.803432 0.751127 0.18498
C_ C_ 0.311796 0.761839 0.747226 -0.08735
C_ C_ 0.285422 0.745789 0.771042 -0.08735
C_ C_ 0.29996 0.758286 0.798667 -0.08735
C_ C_ 0.336432 0.796759 0.803628 0.18498
C_ C_ 0.308922 0.83178 0.848917 0.44287
C_ C_ 0.395553 0.804047 0.843699 0.44287
C_ C_ 0.401302 0.804625 0.873783 -0.05681
C_ C_ 0.449751 0.794268 0.88671 -0.08735
C_ C_ 0.458105 0.805864 0.915652 -0.08735
C_ C_ 0.418696 0.822791 0.933919 -0.05681
C_ C_ 0.370447 0.827588 0.922364 -0.05681
C_ C_ 0.363662 0.823623 0.891508 -0.05681
C_ C_ 0.317528 0.841181 0.878613 -0.05681
C_ C_ 0.27833 0.859666 0.896027 -0.08735
C_ C_ 0.28714 0.866738 0.925986 -0.08735
C_ C_ 0.330425 0.846135 0.939261 -0.05681
C_ C_ 0.339643 0.85482 0.96834 0.44287
C_ C_ 0.42395 0.824817 0.964358 0.44287
C_ C_ 0.385081 0.83481 0.510111 0.18498
C_ C_ 0.414845 0.876116 0.516795 -0.08735
C_ C_ 0.428036 0.887743 0.545394 -0.08735
C_ C_ 0.411811 0.858239 0.56735 -0.08735
C_ C_ 0.382548 0.815482 0.562151 0.18498
C_ C_ 0.365421 0.807382 0.533655 -0.05681
C_ C_ 0.33743 0.762308 0.529709 -0.08735
C_ C_ 0.317449 0.735995 0.552293 -0.08735
C_ C_ 0.327055 0.752814 0.581335 0.1947
N_ N_ 0.127533 0.665882 0.983498 -0.29468
N_ N_ 0.138743 0.692452 0.584251 -0.17154
N_ N_ 0.102787 0.656704 0.733817 -0.17154
N_ N_ 0.128419 0.690985 0.837274 -0.29468
N_ N_ 0.3706 0.826107 0.728133 -0.29468
N_ N_ 0.347753 0.815699 0.831887 -0.17154
N_ N_ 0.385545 0.840213 0.98127 -0.17154
N_ N_ 0.362328 0.78998 0.585711 -0.29468
O_ O_ 0.215726 0.677192 0.93479 -0.58347
O_ O_ 0.206254 0.686528 0.888474 -0.58347
O_ O_ 0.129136 0.748099 0.936503 -0.58347
O_ O_ 0.134087 0.755793 0.888544 -0.58347
O_ O_ 0.144544 0.601628 0.930443 -0.58347
O_ O_ 0.130497 0.607612 0.883542 -0.58347
O_ O_ 0.064114 0.671735 0.931076 -0.58347
O_ O_ 0.0580174 0.674756 0.884465 -0.58347
O_ O_ 0.0540563 0.695679 0.578236 -0.46727
O_ O_ 0.227313 0.685388 0.592478 -0.46727
O_ O_ 0.0146339 0.666031 0.726632 -0.46727
O_ O_ 0.191527 0.653495 0.738285 -0.46727
O_ O_ 0.27985 0.823422 0.680225 -0.58347
O_ O_ 0.286109 0.800733 0.635369 -0.58347
O_ O_ 0.343744 0.738993 0.681414 -0.58347
O_ O_ 0.365637 0.734915 0.636203 -0.58347
O_ O_ 0.367182 0.892697 0.672523 -0.58347
O_ O_ 0.357995 0.88396 0.625054 -0.58347
O_ O_ 0.430489 0.80733 0.679142 -0.58347
O_ O_ 0.43748 0.812603 0.63309 -0.58347
O_ O_ 0.428325 0.77993 0.828567 -0.46727
O_ O_ 0.26276 0.837571 0.837887 -0.46727
O_ O_ 0.466951 0.813403 0.976006 -0.46727
O_ O_ 0.302415 0.870432 0.984961 -0.46727
Zn Zn 0.617607 0.188372 0.382456 0.90689
Zn Zn 0.634987 0.180272 0.429215 0.90689
Zn Zn 0.880759 0.32039 0.132477 0.90689
Zn Zn 0.869757 0.324342 0.181503 0.90689
H_ H_ 0.797808 0.1832 0.442093 0.11455
H_ H_ 0.868607 0.18528 0.344386 0.11455
H_ H_ 0.773857 0.191203 0.351771 0.11455
H_ H_ 0.881655 0.186415 0.462295 0.11455
H_ H_ 0.975455 0.168656 0.454319 0.11455
H_ H_ 0.947333 0.193722 0.362336 0.11455
H_ H_ 0.660876 0.0165274 0.437987 0.11455
H_ H_ 0.605311 0.436874 0.34407 0.11455
H_ H_ 0.585589 0.0256141 0.357304 0.11455
H_ H_ 0.646423 0.437145 0.459818 0.11455
H_ H_ 0.640644 0.343134 0.456819 0.11455
H_ H_ 0.600798 0.352867 0.367875 0.11455
H_ H_ 0.591976 0.0997533 0.468561 0.11455
H_ H_ 0.559503 0.0903114 0.0145068 0.11455
H_ H_ 0.607068 0.129477 0.0556933 0.11455
H_ H_ 0.696712 0.245374 0.476216 0.11455
H_ H_ 0.719051 0.309808 0.0139428 0.11455
H_ H_ 0.704949 0.284982 0.0609021 0.11455
H_ H_ 0.508641 0.21335 0.119853 0.11455
H_ H_ 0.492518 0.202708 0.169459 0.11455
H_ H_ 0.754112 0.183838 0.142149 0.11455
H_ H_ 0.743136 0.182514 0.195066 0.11455
H_ H_ 0.5511 0.103406 0.248941 0.11455
H_ H_ 0.541579 0.0709129 0.299674 0.11455
H_ H_ 0.557329 0.132022 0.337973 0.11455
H_ H_ 0.629263 0.269507 0.260622 0.11455
H_ H_ 0.673163 0.307545 0.303267 0.11455
H_ H_ 0.664323 0.27068 0.347905 0.11455
H_ H_ 0.701786 0.319898 0.19548 0.11455
H_ H_ 0.6371 0.332268 0.0966822 0.11455
H_ H_ 0.729703 0.331783 0.105621 0.11455
H_ H_ 0.614448 0.322867 0.21441 0.11455
H_ H_ 0.526444 0.310711 0.204002 0.11455
H_ H_ 0.550422 0.34185 0.112912 0.11455
H_ H_ 0.889593 0.490701 0.192711 0.11455
H_ H_ 0.893607 0.0652464 0.0942287 0.11455
H_ H_ 0.825816 0.478234 0.109356 0.11455
H_ H_ 0.850903 0.0754325 0.211263 0.11455
H_ H_ 0.85485 0.163172 0.20569 0.11455
H_ H_ 0.896624 0.150202 0.116093 0.11455
H_ H_ 0.931608 0.39325 0.215542 0.11455
H_ H_ 0.937692 0.428547 0.265411 0.11455
H_ H_ 0.885649 0.391603 0.30455 0.11455
H_ H_ 0.823473 0.252739 0.225495 0.11455
H_ H_ 0.762019 0.226773 0.260506 0.11455
H_ H_ 0.789574 0.239433 0.314368 0.11455
H_ H_ 0.981439 0.313169 0.369101 0.11455
H_ H_ -0.0008040000000000269 0.312292 0.422712 0.11455
H_ H_ 0.734874 0.311718 0.38758 0.11455
H_ H_ 0.745755 0.312472 0.442943 0.11455
H_ H_ 0.932328 0.40462 0.499113 0.11455
H_ H_ 0.964309 0.441429 0.0471805 0.11455
H_ H_ 0.944839 0.385808 0.0875176 0.11455
H_ H_ 0.851081 0.262541 0.00827889 0.11455
H_ H_ 0.806076 0.220702 0.0481767 0.11455
H_ H_ 0.81423 0.255327 0.0984024 0.11455
C_ C_ 0.725092 0.182573 0.402675 0.68181
C_ C_ 0.779579 0.192366 0.397578 -0.05681
C_ C_ 0.812282 0.192572 0.420969 -0.08735
C_ C_ 0.864644 0.189793 0.416468 -0.05681
C_ C_ 0.884569 0.186683 0.38834 -0.05681
C_ C_ 0.852132 0.19119 0.365028 -0.08735
C_ C_ 0.799182 0.191564 0.369465 -0.08735
C_ C_ 0.897443 0.179843 0.440788 -0.08735
C_ C_ 0.948961 0.175298 0.435676 -0.08735
C_ C_ 0.970925 0.182678 0.408117 -0.05681
C_ C_ 0.936801 0.190391 0.384661 -0.08735
C_ C_ 0.622289 0.285253 0.410597 0.68181
C_ C_ 0.629792 0.0849118 0.399355 0.68181
C_ C_ 0.631751 0.0284462 0.395755 -0.05681
C_ C_ 0.636508 0.500194 0.416805 -0.08735
C_ C_ 0.6328 0.447666 0.415238 -0.05681
C_ C_ 0.617048 0.422916 0.388874 -0.05681
C_ C_ 0.607592 0.453349 0.364682 -0.08735
C_ C_ 0.611589 0.506615 0.366691 -0.08735
C_ C_ 0.632043 0.419343 0.440567 -0.08735
C_ C_ 0.628808 0.365422 0.438459 -0.08735
C_ C_ 0.616984 0.340127 0.413227 -0.05681
C_ C_ 0.609852 0.371054 0.388363 -0.08735
C_ C_ 0.527965 0.181722 0.410022 0.68181
C_ C_ 0.612012 0.120081 0.484283 0.1947
C_ C_ 0.586314 0.120893 0.0111412 -0.08735
C_ C_ 0.608632 0.146603 0.0339764 -0.08735
C_ C_ 0.640616 0.18789 0.0293464 -0.05681
C_ C_ 0.657576 0.196427 1.000523627 0.18498
C_ C_ 0.674181 0.242007 0.496478 -0.08735
C_ C_ 0.702005 0.271897 0.0174804 -0.08735
C_ C_ 0.687514 0.261451 0.0449654 -0.08735
C_ C_ 0.657449 0.220819 0.0525886 0.18498
C_ C_ 0.686883 0.19628 0.101144 0.44287
C_ C_ 0.600508 0.214135 0.0938603 0.44287
C_ C_ 0.588572 0.205807 0.122677 -0.05681
C_ C_ 0.539265 0.202786 0.133639 -0.08735
C_ C_ 0.530093 0.201808 0.162988 -0.08735
C_ C_ 0.569276 0.197131 0.183157 -0.05681
C_ C_ 0.619352 0.195483 0.172235 -0.05681
C_ C_ 0.628648 0.197734 0.142194 -0.05681
C_ C_ 0.677319 0.191549 0.131568 -0.05681
C_ C_ 0.716845 0.181495 0.150234 -0.08735
C_ C_ 0.710011 0.180668 0.180464 -0.08735
C_ C_ 0.659435 0.183632 0.1908 -0.05681
C_ C_ 0.647625 0.177319 0.219923 0.44287
C_ C_ 0.559048 0.195196 0.212702 0.44287
C_ C_ 0.588172 0.170941 0.260328 0.18498
C_ C_ 0.566367 0.12314 0.267305 -0.08735
C_ C_ 0.555315 0.109036 0.294834 -0.08735
C_ C_ 0.570917 0.139682 0.31739 -0.08735
C_ C_ 0.601642 0.181729 0.313023 0.18498
C_ C_ 0.609259 0.200065 0.284245 -0.05681
C_ C_ 0.633367 0.247 0.279885 -0.08735
C_ C_ 0.651085 0.270906 0.304345 -0.08735
C_ C_ 0.645137 0.251702 0.330926 0.1947
C_ C_ 0.778001 0.316154 0.157687 0.68181
C_ C_ 0.723255 0.323887 0.151875 -0.05681
C_ C_ 0.689508 0.325628 0.174514 -0.08735
C_ C_ 0.636588 0.330116 0.169121 -0.05681
C_ C_ 0.616457 0.333026 0.140353 -0.05681
C_ C_ 0.651462 0.332896 0.118589 -0.08735
C_ C_ 0.703761 0.328406 0.12411 -0.08735
C_ C_ 0.601439 0.326336 0.191064 -0.08735
C_ C_ 0.549142 0.327169 0.186358 -0.08735
C_ C_ 0.530193 0.332916 0.158803 -0.05681
C_ C_ 0.565098 0.335712 0.135054 -0.08735
C_ C_ 0.879077 0.222647 0.158077 0.68181
C_ C_ 0.870226 0.421225 0.152764 0.68181
C_ C_ 0.862925 0.476787 0.150655 -0.05681
C_ C_ 0.864742 0.00599383 0.17113 -0.08735
C_ C_ 0.865242 0.0599501 0.166415 -0.05681
C_ C_ 0.879317 0.0798577 0.13979 -0.05681
C_ C_ 0.879552 0.0507365 0.114944 -0.08735
C_ C_ 0.842279 0.500804 0.125627 -0.08735
C_ C_ 0.858887 0.0907644 0.189642 -0.08735
C_ C_ 0.860213 0.144327 0.185738 -0.08735
C_ C_ 0.873854 0.166684 0.159806 -0.05681
C_ C_ 0.885551 0.133793 0.136432 -0.08735
C_ C_ 0.973607 0.331658 0.154969 0.68181
C_ C_ 0.911805 0.377558 0.233496 0.1947
C_ C_ 0.916676 0.39469 0.261538 -0.08735
C_ C_ 0.888407 0.373152 0.283641 -0.08735
C_ C_ 0.860413 0.328533 0.279169 -0.05681
C_ C_ 0.856764 0.311157 0.250555 0.18498
C_ C_ 0.822855 0.271653 0.245491 -0.08735
C_ C_ 0.795437 0.248721 0.266696 -0.08735
C_ C_ 0.805754 0.260254 0.296013 -0.08735
C_ C_ 0.836406 0.302638 0.302475 0.18498
C_ C_ 0.806575 0.328398 0.350148 0.44287
C_ C_ 0.892704 0.311649 0.3431 0.44287
C_ C_ 0.902126 0.31338 0.373152 -0.05681
C_ C_ 0.950762 0.314263 0.384912 -0.08735
C_ C_ 0.960616 0.313975 0.415395 -0.08735
C_ C_ 0.918032 0.315245 0.433873 -0.05681
C_ C_ 0.868315 0.316057 0.421491 -0.05681
C_ C_ 0.862121 0.318606 0.391836 -0.05681
C_ C_ 0.81239 0.326318 0.380409 -0.05681
C_ C_ 0.769956 0.322315 0.398357 -0.08735
C_ C_ 0.776422 0.322276 0.427938 -0.08735
C_ C_ 0.825774 0.321692 0.439586 -0.05681
C_ C_ 0.834092 0.323752 0.469234 0.44287
C_ C_ 0.923135 0.318244 0.463257 0.44287
C_ C_ 0.89916 0.352865 0.0106869 0.18498
C_ C_ 0.929496 0.393193 0.0166231 -0.08735
C_ C_ 0.942224 0.407628 0.0444354 -0.08735
C_ C_ 0.925738 0.379943 0.0675084 -0.08735
C_ C_ 0.895018 0.337668 0.0630793 0.18498
C_ C_ 0.881681 0.322612 0.0338733 -0.05681
C_ C_ 0.853605 0.277149 0.0295523 -0.08735
C_ C_ 0.833192 0.251293 0.0532887 -0.08735
C_ C_ 0.839148 0.271407 0.0803731 0.1947
N_ N_ 0.633007 0.164904 0.478155 -0.29468
N_ N_ 0.648506 0.20864 0.0832386 -0.17154
N_ N_ 0.597848 0.181988 0.230532 -0.17154
N_ N_ 0.621794 0.206995 0.335354 -0.29468
N_ N_ 0.879304 0.338196 0.228817 -0.29468
N_ N_ 0.845526 0.314648 0.33211 -0.17154
N_ N_ 0.881534 0.325871 0.480108 -0.17154
N_ N_ 0.874595 0.30908 0.0852987 -0.29468
O_ O_ 0.709103 0.176876 0.428937 -0.58347
O_ O_ 0.694396 0.195941 0.384028 -0.58347
O_ O_ 0.634745 0.257249 0.43229 -0.58347
O_ O_ 0.609479 0.265053 0.386921 -0.58347
O_ O_ 0.634615 0.106666 0.422802 -0.58347
O_ O_ 0.622477 0.110859 0.37726 -0.58347
O_ O_ 0.559586 0.179466 0.430306 -0.58347
O_ O_ 0.543806 0.184261 0.384442 -0.58347
O_ O_ 0.566077 0.233656 0.0761657 -0.46727
O_ O_ 0.731905 0.191081 0.0908668 -0.46727
O_ O_ 0.513263 0.197603 0.222467 -0.46727
O_ O_ 0.682528 0.15797 0.237418 -0.46727
O_ O_ 0.794526 0.320593 0.183145 -0.58347
O_ O_ 0.808515 0.320558 0.137153 -0.58347
O_ O_ 0.875928 0.248195 0.181039 -0.58347
O_ O_ 0.877119 0.244824 0.133835 -0.58347
O_ O_ 0.861804 0.399375 0.176356 -0.58347
O_ O_ 0.884882 0.395107 0.130485 -0.58347
O_ O_ 0.94597 0.331259 0.177236 -0.58347
O_ O_ 0.952573 0.323856 0.131128 -0.58347
O_ O_ 0.930856 0.303727 0.326154 -0.46727
O_ O_ 0.760613 0.333479 0.33938 -0.46727
O_ O_ 0.968141 0.312402 0.475751 -0.46727
O_ O_ 0.795837 0.333755 0.486517 -0.46727
Zn Zn 0.636418 0.178764 0.883666 0.90689
Zn Zn 0.646328 0.174364 0.931349 0.90689
Zn Zn 0.873521 0.309172 0.632117 0.90689
Zn Zn 0.865474 0.317511 0.681242 0.90689
H_ H_ 0.814692 0.18037 0.946771 0.11455
H_ H_ 0.875333 0.149731 0.849588 0.11455
H_ H_ 0.787029 0.159359 0.859035 0.11455
H_ H_ 0.901499 0.175409 0.96578 0.11455
H_ H_ 0.992558 0.165094 0.957689 0.11455
H_ H_ 0.968232 0.165649 0.866257 0.11455
H_ H_ 0.640161 0.00675976 0.945801 0.11455
H_ H_ 0.673503 0.433514 0.851316 0.11455
H_ H_ 0.646598 0.025548 0.85412 0.11455
H_ H_ 0.631608 0.427175 0.965587 0.11455
H_ H_ 0.636496 0.335029 0.960327 0.11455
H_ H_ 0.641841 0.35025 0.869111 0.11455
H_ H_ 0.574739 0.121736 0.966854 0.11455
H_ H_ 0.592524 0.0668469 0.516843 0.11455
H_ H_ 0.613989 0.114642 0.555327 0.11455
H_ H_ 0.703244 0.245163 0.97496 0.11455
H_ H_ 0.713682 0.30503 0.51448 0.11455
H_ H_ 0.697815 0.279309 0.563045 0.11455
H_ H_ 0.514608 0.202554 0.626421 0.11455
H_ H_ 0.504705 0.187687 0.676614 0.11455
H_ H_ 0.766328 0.165199 0.63669 0.11455
H_ H_ 0.760186 0.163239 0.688603 0.11455
H_ H_ 0.586338 0.0778096 0.752069 0.11455
H_ H_ 0.561834 0.0594525 0.801746 0.11455
H_ H_ 0.59517 0.11185 0.839647 0.11455
H_ H_ 0.680093 0.240842 0.75946 0.11455
H_ H_ 0.702431 0.290302 0.801253 0.11455
H_ H_ 0.68827 0.258959 0.848352 0.11455
H_ H_ 0.693478 0.315465 0.702882 0.11455
H_ H_ 0.629912 0.325598 0.60407 0.11455
H_ H_ 0.719602 0.31063 0.611571 0.11455
H_ H_ 0.605807 0.306188 0.720473 0.11455
H_ H_ 0.518393 0.308403 0.710534 0.11455
H_ H_ 0.544534 0.320365 0.618974 0.11455
H_ H_ 0.870974 0.482754 0.693239 0.11455
H_ H_ 0.876947 0.0584051 0.598812 0.11455
H_ H_ 0.841983 0.472282 0.602414 0.11455
H_ H_ 0.849755 0.0663942 0.714012 0.11455
H_ H_ 0.856347 0.160185 0.710431 0.11455
H_ H_ 0.879228 0.145462 0.619474 0.11455
H_ H_ 0.927873 0.384275 0.717494 0.11455
H_ H_ 0.924252 0.421864 0.766358 0.11455
H_ H_ 0.88319 0.380362 0.806748 0.11455
H_ H_ 0.808526 0.244504 0.72737 0.11455
H_ H_ 0.784386 0.190098 0.768036 0.11455
H_ H_ 0.818364 0.209713 0.814771 0.11455
H_ H_ 0.983515 0.283321 0.87251 0.11455
H_ H_ -0.0027840000000000087 0.293921 0.926084 0.11455
H_ H_ 0.745148 0.363585 0.888985 0.11455
H_ H_ 0.762328 0.3837 0.939041 0.11455
H_ H_ 0.94549 0.410856 0.998549 0.11455
H_ H_ 0.965574 0.419597 0.54503 0.11455
H_ H_ 0.92772 0.377119 0.58779 0.11455
H_ H_ 0.846872 0.240926 0.507126 0.11455
H_ H_ 0.819167 0.194056 0.548947 0.11455
H_ H_ 0.835251 0.222483 0.598044 0.11455
C_ C_ 0.738608 0.179413 0.909685 0.68181
C_ C_ 0.795325 0.174744 0.903276 -0.05681
C_ C_ 0.82975 0.174381 0.925885 -0.08735
C_ C_ 0.881192 0.169695 0.921607 -0.05681
C_ C_ 0.899157 0.163613 0.89272 -0.05681
C_ C_ 0.864297 0.159561 0.870377 -0.08735
C_ C_ 0.811968 0.160006 0.876029 -0.08735
C_ C_ 0.912851 0.16853 0.944246 -0.08735
C_ C_ 0.964924 0.167752 0.939061 -0.08735
C_ C_ 0.986097 0.169571 0.911245 -0.05681
C_ C_ 0.951984 0.164686 0.887871 -0.08735
C_ C_ 0.637572 0.276198 0.91179 0.68181
C_ C_ 0.647822 0.079513 0.904061 0.68181
C_ C_ 0.647151 0.0232633 0.900783 -0.05681
C_ C_ 0.645812 0.492959 0.923938 -0.08735
C_ C_ 0.64331 0.440292 0.921297 -0.05681
C_ C_ 0.65166 0.417493 0.894202 -0.05681
C_ C_ 0.664174 0.449225 0.871887 -0.08735
C_ C_ 0.658931 0.50127 0.872618 -0.08735
C_ C_ 0.628613 0.410316 0.944015 -0.08735
C_ C_ 0.631718 0.35708 0.9413 -0.08735
C_ C_ 0.636555 0.333455 0.914791 -0.05681
C_ C_ 0.638967 0.365897 0.89052 -0.08735
C_ C_ 0.544256 0.16392 0.906005 0.68181
C_ C_ 0.595969 0.136827 0.983762 0.1947
C_ C_ 0.615767 0.0967388 0.511976 -0.08735
C_ C_ 0.625017 0.129359 0.534296 -0.08735
C_ C_ 0.644499 0.177921 0.529753 -0.05681
C_ C_ 0.648651 0.195627 0.500483 0.18498
C_ C_ 0.690121 0.239168 0.995287 -0.08735
C_ C_ 0.69297 0.270582 0.518906 -0.08735
C_ C_ 0.681089 0.257513 0.546691 -0.08735
C_ C_ 0.658015 0.210341 0.553568 0.18498
C_ C_ 0.693973 0.184502 0.599843 0.44287
C_ C_ 0.604223 0.195196 0.595969 0.44287
C_ C_ 0.597449 0.195358 0.62567 -0.05681
C_ C_ 0.549383 0.195358 0.638782 -0.08735
C_ C_ 0.544535 0.187625 0.667941 -0.08735
C_ C_ 0.588289 0.174644 0.685181 -0.05681
C_ C_ 0.635997 0.176718 0.672177 -0.05681
C_ C_ 0.640315 0.185837 0.64272 -0.05681
C_ C_ 0.687719 0.181433 0.629397 -0.05681
C_ C_ 0.731929 0.173044 0.646377 -0.08735
C_ C_ 0.727514 0.170799 0.675741 -0.08735
C_ C_ 0.679924 0.170906 0.689358 -0.05681
C_ C_ 0.674608 0.162363 0.719087 0.44287
C_ C_ 0.584993 0.170726 0.715019 0.44287
C_ C_ 0.623142 0.151806 0.761518 0.18498
C_ C_ 0.599726 0.104218 0.768535 -0.08735
C_ C_ 0.585044 0.0925623 0.79638 -0.08735
C_ C_ 0.604883 0.120821 0.818609 -0.08735
C_ C_ 0.628174 0.167155 0.813972 0.18498
C_ C_ 0.634761 0.18434 0.784316 -0.05681
C_ C_ 0.664607 0.228353 0.779707 -0.08735
C_ C_ 0.685302 0.251947 0.804704 -0.08735
C_ C_ 0.673299 0.237357 0.831249 0.1947
C_ C_ 0.770813 0.303563 0.659812 0.68181
C_ C_ 0.713335 0.304892 0.657505 -0.05681
C_ C_ 0.679496 0.310695 0.681078 -0.08735
C_ C_ 0.628419 0.316804 0.675758 -0.05681
C_ C_ 0.608731 0.320713 0.647806 -0.05681
C_ C_ 0.642396 0.323877 0.625869 -0.08735
C_ C_ 0.693291 0.309365 0.629264 -0.08735
C_ C_ 0.592679 0.31221 0.698522 -0.08735
C_ C_ 0.540821 0.312808 0.692751 -0.08735
C_ C_ 0.521602 0.312148 0.664692 -0.05681
C_ C_ 0.556323 0.316592 0.641467 -0.08735
C_ C_ 0.876671 0.215877 0.662993 0.68181
C_ C_ 0.862839 0.412915 0.650206 0.68181
C_ C_ 0.861445 0.469634 0.647341 -0.05681
C_ C_ 0.848311 -0.001762999999999959 0.671999 -0.08735
C_ C_ 0.857101 0.0519004 0.670186 -0.05681
C_ C_ 0.864781 0.0735114 0.642572 -0.05681
C_ C_ 0.868141 0.0414672 0.619376 -0.08735
C_ C_ 0.854211 0.492994 0.620566 -0.08735
C_ C_ 0.851649 0.0831816 0.693677 -0.08735
C_ C_ 0.859157 0.135711 0.691425 -0.08735
C_ C_ 0.8703 0.158746 0.665046 -0.05681
C_ C_ 0.867047 0.1286 0.640612 -0.08735
C_ C_ 0.965932 0.321034 0.655832 0.68181
C_ C_ 0.900981 0.368838 0.734149 0.1947
C_ C_ 0.903327 0.387193 0.762338 -0.08735
C_ C_ 0.877318 0.365135 0.784951 -0.08735
C_ C_ 0.853198 0.318575 0.781389 -0.05681
C_ C_ 0.845983 0.301544 0.75203 0.18498
C_ C_ 0.818381 0.255891 0.748188 -0.08735
C_ C_ 0.798467 0.228394 0.771799 -0.08735
C_ C_ 0.814605 0.240755 0.79968 -0.08735
C_ C_ 0.83976 0.286757 0.804841 0.18498
C_ C_ 0.811312 0.318366 0.851311 0.44287
C_ C_ 0.895668 0.294012 0.845214 0.44287
C_ C_ 0.904383 0.30066 0.875127 -0.05681
C_ C_ 0.952239 0.287674 0.886928 -0.08735
C_ C_ 0.960146 0.298248 0.916802 -0.08735
C_ C_ 0.921258 0.311392 0.934842 -0.05681
C_ C_ 0.873756 0.322286 0.923145 -0.05681
C_ C_ 0.865549 0.319587 0.892903 -0.05681
C_ C_ 0.818466 0.331362 0.881239 -0.05681
C_ C_ 0.781887 0.35188 0.898311 -0.08735
C_ C_ 0.789913 0.359525 0.927184 -0.08735
C_ C_ 0.835615 0.342402 0.940797 -0.05681
C_ C_ 0.845084 0.349375 0.969683 0.44287
C_ C_ 0.926582 0.313395 0.964839 0.44287
C_ C_ 0.890765 0.338481 0.510317 0.18498
C_ C_ 0.91577 0.383828 0.516342 -0.08735
C_ C_ 0.936073 0.393408 0.543068 -0.08735
C_ C_ 0.916757 0.364849 0.566526 -0.08735
C_ C_ 0.889896 0.319677 0.562432 0.18498
C_ C_ 0.879018 0.304312 0.533218 -0.05681
C_ C_ 0.855285 0.257006 0.528596 -0.08735
C_ C_ 0.841551 0.228047 0.55204 -0.08735
C_ C_ 0.845508 0.247294 0.580138 0.1947
N_ N_ 0.633056 0.17193 0.979734 -0.29468
N_ N_ 0.652138 0.194402 0.583339 -0.17154
N_ N_ 0.628049 0.165617 0.731516 -0.17154
N_ N_ 0.640005 0.197351 0.836233 -0.29468
N_ N_ 0.866213 0.33066 0.7293 -0.29468
N_ N_ 0.848261 0.300236 0.834659 -0.17154
N_ N_ 0.891638 0.338877 0.981797 -0.17154
N_ N_ 0.869174 0.293266 0.584197 -0.29468
O_ O_ 0.719262 0.165643 0.93346 -0.58347
O_ O_ 0.708809 0.192237 0.889469 -0.58347
O_ O_ 0.649682 0.249417 0.933604 -0.58347
O_ O_ 0.627088 0.255335 0.887952 -0.58347
O_ O_ 0.639617 0.0999865 0.927713 -0.58347
O_ O_ 0.654093 0.10508 0.882331 -0.58347
O_ O_ 0.571594 0.177049 0.927523 -0.58347
O_ O_ 0.563643 0.163064 0.880676 -0.58347
O_ O_ 0.564593 0.197646 0.579459 -0.46727
O_ O_ 0.738469 0.177678 0.586943 -0.46727
O_ O_ 0.539362 0.166718 0.727377 -0.46727
O_ O_ 0.713041 0.152494 0.735213 -0.46727
O_ O_ 0.793686 0.311216 0.683352 -0.58347
O_ O_ 0.795829 0.294626 0.636492 -0.58347
O_ O_ 0.870217 0.243052 0.68559 -0.58347
O_ O_ 0.884138 0.235202 0.639674 -0.58347
O_ O_ 0.866093 0.393165 0.674873 -0.58347
O_ O_ 0.86402 0.384249 0.628194 -0.58347
O_ O_ 0.939925 0.314438 0.678825 -0.58347
O_ O_ 0.943724 0.326217 0.631855 -0.58347
O_ O_ 0.927922 0.265827 0.829928 -0.46727
O_ O_ 0.767576 0.328516 0.840057 -0.46727
O_ O_ 0.972313 0.307883 0.975857 -0.46727
O_ O_ 0.811312 0.372326 0.985661 -0.46727
Zn Zn 0.622335 0.689438 0.37857 0.90689
Zn Zn 0.627702 0.680762 0.426573 0.90689
Zn Zn 0.875148 0.817234 0.130807 0.90689
Zn Zn 0.868997 0.823488 0.180338 0.90689
H_ H_ 0.794759 0.685708 0.443625 0.11455
H_ H_ 0.871317 0.652743 0.348286 0.11455
H_ H_ 0.779193 0.655374 0.353768 0.11455
H_ H_ 0.87646 0.691493 0.463826 0.11455
H_ H_ 0.96917 0.698958 0.457086 0.11455
H_ H_ 0.957532 0.645742 0.370534 0.11455
H_ H_ 0.650542 0.517895 0.436449 0.11455
H_ H_ 0.582913 0.936578 0.354314 0.11455
H_ H_ 0.598943 0.530956 0.348356 0.11455
H_ H_ 0.65724 0.929456 0.463031 0.11455
H_ H_ 0.642003 0.838005 0.459409 0.11455
H_ H_ 0.617037 0.852989 0.369138 0.11455
H_ H_ 0.567118 0.605259 0.463181 0.11455
H_ H_ 0.553527 0.587009 0.0084312 0.11455
H_ H_ 0.588135 0.62505 0.0481432 0.11455
H_ H_ 0.701245 0.72667 0.469778 0.11455
H_ H_ 0.713779 0.799283 0.00379939 0.11455
H_ H_ 0.696655 0.777527 0.0555167 0.11455
H_ H_ 0.519209 0.717843 0.119544 0.11455
H_ H_ 0.509321 0.692963 0.169969 0.11455
H_ H_ 0.771039 0.674699 0.130504 0.11455
H_ H_ 0.766087 0.672886 0.182402 0.11455
H_ H_ 0.587477 0.588693 0.243631 0.11455
H_ H_ 0.560793 0.566277 0.292236 0.11455
H_ H_ 0.580331 0.623792 0.333267 0.11455
H_ H_ 0.6709 0.756994 0.254531 0.11455
H_ H_ 0.688272 0.806769 0.298684 0.11455
H_ H_ 0.665641 0.777151 0.344576 0.11455
H_ H_ 0.70207 0.81185 0.192765 0.11455
H_ H_ 0.631345 0.827109 0.0946768 0.11455
H_ H_ 0.720724 0.820438 0.103514 0.11455
H_ H_ 0.615571 0.815426 0.212757 0.11455
H_ H_ 0.522558 0.815782 0.204218 0.11455
H_ H_ 0.549763 0.841588 0.113985 0.11455
H_ H_ 0.871922 0.988655 0.192563 0.11455
H_ H_ 0.831346 0.571788 0.102971 0.11455
H_ H_ 0.865164 0.975676 0.101162 0.11455
H_ H_ 0.917242 0.577155 0.209499 0.11455
H_ H_ 0.919888 0.668343 0.20449 0.11455
H_ H_ 0.860803 0.653184 0.119789 0.11455
H_ H_ 0.917781 0.904816 0.218078 0.11455
H_ H_ 0.928242 0.928452 0.269533 0.11455
H_ H_ 0.88688 0.875929 0.309757 0.11455
H_ H_ 0.805011 0.762368 0.220275 0.11455
H_ H_ 0.793964 0.69563 0.257416 0.11455
H_ H_ 0.809764 0.715547 0.308702 0.11455
H_ H_ 0.989726 0.786953 0.372476 0.11455
H_ H_ 0.00048000000000003595 0.794473 0.425568 0.11455
H_ H_ 0.737195 0.808826 0.390157 0.11455
H_ H_ 0.750372 0.808262 0.439561 0.11455
H_ H_ 0.940413 0.900096 0.498245 0.11455
H_ H_ 0.934365 0.947612 0.0413973 0.11455
H_ H_ 0.919342 0.890071 0.08444 0.11455
H_ H_ 0.83591 0.75833 0.00791913 0.11455
H_ H_ 0.819941 0.702765 0.0501817 0.11455
H_ H_ 0.834633 0.735892 0.0982205 0.11455
C_ C_ 0.723339 0.68838 0.400058 0.68181
C_ C_ 0.779025 0.682034 0.397809 -0.05681
C_ C_ 0.80927 0.675737 0.422282 -0.08735
C_ C_ 0.862394 0.669187 0.42042 -0.05681
C_ C_ 0.886113 0.660049 0.393837 -0.05681
C_ C_ 0.853209 0.654999 0.369339 -0.08735
C_ C_ 0.801156 0.667559 0.371793 -0.08735
C_ C_ 0.893402 0.678038 0.444103 -0.08735
C_ C_ 0.946479 0.679331 0.441446 -0.08735
C_ C_ 0.969947 0.665664 0.414931 -0.05681
C_ C_ 0.938276 0.656124 0.391432 -0.08735
C_ C_ 0.628539 0.781469 0.411625 0.68181
C_ C_ 0.626383 0.588024 0.39415 0.68181
C_ C_ 0.62756 0.530679 0.392183 -0.05681
C_ C_ 0.646618 0.99553 0.418835 -0.08735
C_ C_ 0.638928 0.943737 0.417896 -0.05681
C_ C_ 0.624823 0.921807 0.391668 -0.05681
C_ C_ 0.608386 0.952777 0.369397 -0.08735
C_ C_ 0.612395 1.0046125 0.370775 -0.08735
C_ C_ 0.65306 0.914031 0.441591 -0.08735
C_ C_ 0.641273 0.861397 0.440386 -0.08735
C_ C_ 0.628046 0.838617 0.41415 -0.05681
C_ C_ 0.624465 0.869384 0.3894 -0.08735
C_ C_ 0.525226 0.683339 0.408868 0.68181
C_ C_ 0.59037 0.621349 0.47938 0.1947
C_ C_ 0.582506 0.611904 0.0047453 -0.08735
C_ C_ 0.601137 0.638747 0.0281017 -0.08735
C_ C_ 0.63825 0.678782 0.0242695 -0.05681
C_ C_ 0.651604 0.690044 0.994856 0.18498
C_ C_ 0.685696 0.721506 0.490502 -0.08735
C_ C_ 0.696999 0.765384 0.0101916 -0.08735
C_ C_ 0.684866 0.75521 0.0384835 -0.08735
C_ C_ 0.656164 0.712381 0.0458552 0.18498
C_ C_ 0.693768 0.68973 0.0913456 0.44287
C_ C_ 0.605124 0.707321 0.0890055 0.44287
C_ C_ 0.601239 0.705012 0.119279 -0.05681
C_ C_ 0.553086 0.703823 0.132363 -0.08735
C_ C_ 0.548297 0.690354 0.160465 -0.08735
C_ C_ 0.591739 0.687602 0.178422 -0.05681
C_ C_ 0.639726 0.682551 0.165495 -0.05681
C_ C_ 0.643632 0.691057 0.135139 -0.05681
C_ C_ 0.692458 0.689397 0.121679 -0.05681
C_ C_ 0.733648 0.678273 0.139404 -0.08735
C_ C_ 0.731206 0.679111 0.169479 -0.08735
C_ C_ 0.682953 0.675441 0.182702 -0.05681
C_ C_ 0.679047 0.671356 0.212175 0.44287
C_ C_ 0.588541 0.686127 0.209456 0.44287
C_ C_ 0.62486 0.659461 0.255929 0.18498
C_ C_ 0.599042 0.612453 0.262103 -0.08735
C_ C_ 0.580841 0.601 0.288913 -0.08735
C_ C_ 0.589785 0.634988 0.311647 -0.08735
C_ C_ 0.616141 0.681505 0.307668 0.18498
C_ C_ 0.63119 0.695833 0.279139 -0.05681
C_ C_ 0.660477 0.740947 0.276055 -0.08735
C_ C_ 0.670238 0.771852 0.300106 -0.08735
C_ C_ 0.656013 0.753174 0.32691 0.1947
C_ C_ 0.776475 0.819469 0.153271 0.68181
C_ C_ 0.720048 0.818442 0.1489 -0.05681
C_ C_ 0.686591 0.816449 0.171913 -0.08735
C_ C_ 0.634309 0.816779 0.168282 -0.05681
C_ C_ 0.613006 0.820543 0.139814 -0.05681
C_ C_ 0.646404 0.824794 0.11604 -0.08735
C_ C_ 0.699098 0.824054 0.121485 -0.08735
C_ C_ 0.600156 0.820796 0.190949 -0.08735
C_ C_ 0.546603 0.818621 0.185911 -0.08735
C_ C_ 0.52663 0.828496 0.15866 -0.05681
C_ C_ 0.562792 0.832263 0.13584 -0.08735
C_ C_ 0.885025 0.724563 0.159996 0.68181
C_ C_ 0.862993 0.918658 0.149483 0.68181
C_ C_ 0.862396 0.975701 0.146098 -0.05681
C_ C_ 0.879778 0.508226 0.172523 -0.08735
C_ C_ 0.883006 0.561908 0.169634 -0.05681
C_ C_ 0.867787 0.584299 0.142707 -0.05681
C_ C_ 0.847659 0.55467 0.12138 -0.08735
C_ C_ 0.870551 0.997531 0.118796 -0.08735
C_ C_ 0.901741 0.59299 0.190665 -0.08735
C_ C_ 0.901229 0.645178 0.188396 -0.08735
C_ C_ 0.889613 0.667567 0.162974 -0.05681
C_ C_ 0.878171 0.636228 0.13859 -0.08735
C_ C_ 0.969691 0.828015 0.158918 0.68181
C_ C_ 0.898554 0.882208 0.235342 0.1947
C_ C_ 0.904994 0.896257 0.263779 -0.08735
C_ C_ 0.884135 0.865162 0.285778 -0.08735
C_ C_ 0.85754 0.822049 0.279763 -0.05681
C_ C_ 0.846402 0.812823 0.249919 0.18498
C_ C_ 0.820205 0.768411 0.242505 -0.08735
C_ C_ 0.808526 0.732711 0.263362 -0.08735
C_ C_ 0.82043 0.74087 0.292538 -0.08735
C_ C_ 0.845868 0.783151 0.300718 0.18498
C_ C_ 0.811658 0.802025 0.348966 0.44287
C_ C_ 0.899106 0.784946 0.343869 0.44287
C_ C_ 0.908508 0.792252 0.37369 -0.05681
C_ C_ 0.957485 0.793362 0.386746 -0.08735
C_ C_ 0.96271 0.799177 0.416231 -0.08735
C_ C_ 0.919137 0.807402 0.433991 -0.05681
C_ C_ 0.871436 0.812668 0.422064 -0.05681
C_ C_ 0.865792 0.803957 0.391979 -0.05681
C_ C_ 0.817501 0.806494 0.378789 -0.05681
C_ C_ 0.775778 0.812585 0.39758 -0.08735
C_ C_ 0.782419 0.822769 0.427298 -0.08735
C_ C_ 0.829895 0.821203 0.439708 -0.05681
C_ C_ 0.837155 0.82908 0.469516 0.44287
C_ C_ 0.924794 0.81226 0.463576 0.44287
C_ C_ 0.881931 0.850175 0.00844709 0.18498
C_ C_ 0.906724 0.896021 0.0126643 -0.08735
C_ C_ 0.912847 0.913868 0.039661 -0.08735
C_ C_ 0.902064 0.882568 0.0634894 -0.08735
C_ C_ 0.883956 0.834076 0.0592631 0.18498
C_ C_ 0.870448 0.818035 0.0316179 -0.05681
C_ C_ 0.841435 0.7733 0.0282229 -0.08735
C_ C_ 0.834211 0.740706 0.0521583 -0.08735
C_ C_ 0.843077 0.760555 0.0792205 0.1947
N_ N_ 0.622727 0.66304 0.47395 -0.29468
N_ N_ 0.651405 0.698694 0.0760685 -0.17154
N_ N_ 0.631627 0.674979 0.225619 -0.17154
N_ N_ 0.628121 0.711033 0.331439 -0.29468
N_ N_ 0.871912 0.839699 0.228859 -0.29468
N_ N_ 0.853609 0.793395 0.331962 -0.17154
N_ N_ 0.884479 0.820836 0.481536 -0.17154
N_ N_ 0.874297 0.801759 0.082241 -0.29468
O_ O_ 0.700809 0.67388 0.421601 -0.58347
O_ O_ 0.698149 0.699639 0.377778 -0.58347
O_ O_ 0.62839 0.75457 0.433461 -0.58347
O_ O_ 0.619041 0.761896 0.387341 -0.58347
O_ O_ 0.619027 0.605696 0.418038 -0.58347
O_ O_ 0.632128 0.616335 0.373078 -0.58347
O_ O_ 0.554432 0.68203 0.430709 -0.58347
O_ O_ 0.546467 0.683231 0.384651 -0.58347
O_ O_ 0.56683 0.724192 0.0726552 -0.46727
O_ O_ 0.735421 0.681225 0.0780582 -0.46727
O_ O_ 0.543727 0.694983 0.222208 -0.46727
O_ O_ 0.720153 0.66214 0.226367 -0.46727
O_ O_ 0.795184 0.822945 0.178086 -0.58347
O_ O_ 0.804929 0.803967 0.133132 -0.58347
O_ O_ 0.866733 0.74937 0.180956 -0.58347
O_ O_ 0.896743 0.745745 0.136373 -0.58347
O_ O_ 0.86871 0.901317 0.174923 -0.58347
O_ O_ 0.857096 0.889878 0.128122 -0.58347
O_ O_ 0.943918 0.8239 0.181709 -0.58347
O_ O_ 0.948677 0.833962 0.134207 -0.58347
O_ O_ 0.935604 0.773372 0.327331 -0.46727
O_ O_ 0.768605 0.811034 0.336706 -0.46727
O_ O_ 0.969478 0.805682 0.475107 -0.46727
O_ O_ 0.798849 0.837982 0.485676 -0.46727
Zn Zn 0.631034 0.68172 0.8797 0.90689
Zn Zn 0.639102 0.674696 0.92578 0.90689
Zn Zn 0.861217 0.810676 0.634343 0.90689
Zn Zn 0.855195 0.816266 0.682033 0.90689
H_ H_ 0.809762 0.682504 0.949708 0.11455
H_ H_ 0.871628 0.640773 0.850462 0.11455
H_ H_ 0.783725 0.641734 0.859505 0.11455
H_ H_ 0.895645 0.685217 0.966915 0.11455
H_ H_ 0.983269 0.673745 0.961341 0.11455
H_ H_ 0.961764 0.671472 0.866889 0.11455
H_ H_ 0.649026 0.508604 0.945363 0.11455
H_ H_ 0.637126 0.928801 0.849353 0.11455
H_ H_ 0.656945 0.524018 0.852772 0.11455
H_ H_ 0.625322 0.92045 0.965301 0.11455
H_ H_ 0.623869 0.830603 0.960944 0.11455
H_ H_ 0.639352 0.848793 0.869711 0.11455
H_ H_ 0.566072 0.616601 0.960355 0.11455
H_ H_ 0.562517 0.570736 0.511708 0.11455
H_ H_ 0.599479 0.61201 0.551452 0.11455
H_ H_ 0.697973 0.736511 0.968052 0.11455
H_ H_ 0.731922 0.778328 0.510229 0.11455
H_ H_ 0.699972 0.762766 0.559284 0.11455
H_ H_ 0.51059 0.698943 0.619747 0.11455
H_ H_ 0.50584 0.700377 0.67281 0.11455
H_ H_ 0.768738 0.669542 0.636412 0.11455
H_ H_ 0.750244 0.652816 0.686909 0.11455
H_ H_ 0.568308 0.593424 0.745679 0.11455
H_ H_ 0.554585 0.567237 0.795558 0.11455
H_ H_ 0.582453 0.616567 0.836234 0.11455
H_ H_ 0.65853 0.750895 0.755579 0.11455
H_ H_ 0.701959 0.791596 0.798883 0.11455
H_ H_ 0.682757 0.760684 0.847957 0.11455
H_ H_ 0.686927 0.792084 0.690716 0.11455
H_ H_ 0.614547 0.840379 0.595688 0.11455
H_ H_ 0.708297 0.83883 0.603315 0.11455
H_ H_ 0.603051 0.800938 0.711809 0.11455
H_ H_ 0.510711 0.806207 0.706696 0.11455
H_ H_ 0.531696 0.824675 0.614308 0.11455
H_ H_ 0.834322 0.980517 0.692378 0.11455
H_ H_ 0.841659 0.562258 0.599837 0.11455
H_ H_ 0.87906 0.965169 0.602688 0.11455
H_ H_ 0.884736 0.565198 0.716367 0.11455
H_ H_ 0.876147 0.656854 0.712034 0.11455
H_ H_ 0.862952 0.650051 0.6207 0.11455
H_ H_ 0.908928 0.887436 0.718543 0.11455
H_ H_ 0.916595 0.920235 0.768948 0.11455
H_ H_ 0.873853 0.870458 0.807042 0.11455
H_ H_ 0.802161 0.739655 0.724843 0.11455
H_ H_ 0.775551 0.687129 0.765426 0.11455
H_ H_ 0.790638 0.713519 0.815261 0.11455
H_ H_ 0.973201 0.793392 0.869104 0.11455
H_ H_ 0.987446 0.803214 0.922067 0.11455
H_ H_ 0.733022 0.851334 0.882441 0.11455
H_ H_ 0.741187 0.858456 0.936111 0.11455
H_ H_ 0.912154 0.918146 0.992877 0.11455
H_ H_ 0.954066 0.931248 0.547456 0.11455
H_ H_ 0.934407 0.871893 0.587977 0.11455
H_ H_ 0.848892 0.744998 0.510251 0.11455
H_ H_ 0.810836 0.699634 0.552265 0.11455
H_ H_ 0.820878 0.736838 0.599083 0.11455
C_ C_ 0.732848 0.677739 0.907165 0.68181
C_ C_ 0.787748 0.670041 0.903449 -0.05681
C_ C_ 0.821102 0.677565 0.926959 -0.08735
C_ C_ 0.874759 0.673753 0.922502 -0.05681
C_ C_ 0.894143 0.662975 0.893957 -0.05681
C_ C_ 0.859252 0.656865 0.871566 -0.08735
C_ C_ 0.807165 0.65588 0.876451 -0.08735
C_ C_ 0.90777 0.674969 0.945766 -0.08735
C_ C_ 0.961748 0.672942 0.941667 -0.08735
C_ C_ 0.981036 0.673784 0.912348 -0.05681
C_ C_ 0.946739 0.669093 0.888893 -0.08735
C_ C_ 0.628787 0.775897 0.910118 0.68181
C_ C_ 0.643727 0.583125 0.900484 0.68181
C_ C_ 0.650884 0.526113 0.899642 -0.05681
C_ C_ 0.641928 -0.008395999999999959 0.925654 -0.08735
C_ C_ 0.638027 0.938171 0.921359 -0.05681
C_ C_ 0.63514 0.916093 0.894133 -0.05681
C_ C_ 0.636256 0.947257 0.870301 -0.08735
C_ C_ 0.642299 0.000849319 0.873368 -0.08735
C_ C_ 0.635165 0.905778 0.945494 -0.08735
C_ C_ 0.630705 0.853296 0.941778 -0.08735
C_ C_ 0.628235 0.831995 0.913612 -0.05681
C_ C_ 0.629556 0.864561 0.889947 -0.08735
C_ C_ 0.534893 0.678454 0.903337 0.68181
C_ C_ 0.591062 0.631043 0.977356 0.1947
C_ C_ 0.583187 0.605027 0.507424 -0.08735
C_ C_ 0.607504 0.628126 0.530245 -0.08735
C_ C_ 0.640458 0.667191 0.524967 -0.05681
C_ C_ 0.651049 0.682128 0.496004 0.18498
C_ C_ 0.68534 0.73122 0.989166 -0.08735
C_ C_ 0.702546 0.751216 0.51381 -0.08735
C_ C_ 0.684791 0.741907 0.541324 -0.08735
C_ C_ 0.656705 0.698963 0.547179 0.18498
C_ C_ 0.690184 0.676656 0.594805 0.44287
C_ C_ 0.600469 0.692557 0.589534 0.44287
C_ C_ 0.594489 0.691283 0.620062 -0.05681
C_ C_ 0.546612 0.698864 0.633176 -0.08735
C_ C_ 0.542176 0.69604 0.663571 -0.08735
C_ C_ 0.584362 0.691339 0.680832 -0.05681
C_ C_ 0.630871 0.679286 0.667077 -0.05681
C_ C_ 0.635278 0.680131 0.637171 -0.05681
C_ C_ 0.684256 0.677141 0.6246 -0.05681
C_ C_ 0.727605 0.672511 0.643816 -0.08735
C_ C_ 0.720073 0.665448 0.673264 -0.08735
C_ C_ 0.67186 0.667641 0.68504 -0.05681
C_ C_ 0.662424 0.656133 0.715275 0.44287
C_ C_ 0.582983 0.694434 0.71169 0.44287
C_ C_ 0.608029 0.662141 0.757449 0.18498
C_ C_ 0.581773 0.617612 0.762755 -0.08735
C_ C_ 0.579371 0.596988 0.790255 -0.08735
C_ C_ 0.594276 0.626232 0.813823 -0.08735
C_ C_ 0.623447 0.670188 0.809689 0.18498
C_ C_ 0.633674 0.686649 0.780969 -0.05681
C_ C_ 0.660548 0.733161 0.776667 -0.08735
C_ C_ 0.679522 0.758102 0.801055 -0.08735
C_ C_ 0.66963 0.740257 0.829668 0.1947
C_ C_ 0.760472 0.813065 0.651853 0.68181
C_ C_ 0.705171 0.818176 0.648305 -0.05681
C_ C_ 0.67183 0.810116 0.671417 -0.08735
C_ C_ 0.619898 0.815768 0.668328 -0.05681
C_ C_ 0.599871 0.822224 0.640954 -0.05681
C_ C_ 0.632803 0.834138 0.617652 -0.08735
C_ C_ 0.685731 0.828345 0.620955 -0.08735
C_ C_ 0.587457 0.812556 0.691976 -0.08735
C_ C_ 0.536138 0.813684 0.688853 -0.08735
C_ C_ 0.514602 0.817414 0.660952 -0.05681
C_ C_ 0.545837 0.822226 0.63705 -0.08735
C_ C_ 0.863763 0.714333 0.664421 0.68181
C_ C_ 0.857531 0.909723 0.650682 0.68181
C_ C_ 0.860702 0.967107 0.648792 -0.05681
C_ C_ 0.868352 0.500647 0.673082 -0.08735
C_ C_ 0.870886 0.552906 0.670655 -0.05681
C_ C_ 0.864038 0.575324 0.643395 -0.05681
C_ C_ 0.858409 0.545028 0.619081 -0.08735
C_ C_ 0.870695 0.98897 0.621959 -0.08735
C_ C_ 0.876483 0.583129 0.695718 -0.08735
C_ C_ 0.873303 0.636821 0.693262 -0.08735
C_ C_ 0.861953 0.65882 0.666334 -0.05681
C_ C_ 0.861102 0.629087 0.641494 -0.08735
C_ C_ 0.956089 0.814304 0.660806 0.68181
C_ C_ 0.884786 0.870018 0.734859 0.1947
C_ C_ 0.895045 0.885676 0.764006 -0.08735
C_ C_ 0.869245 0.859673 0.786001 -0.08735
C_ C_ 0.847542 0.811721 0.780006 -0.05681
C_ C_ 0.837209 0.797757 0.75128 0.18498
C_ C_ 0.810624 0.751976 0.746768 -0.08735
C_ C_ 0.79618 0.719292 0.769195 -0.08735
C_ C_ 0.804978 0.734295 0.796658 -0.08735
C_ C_ 0.831741 0.778916 0.802372 0.18498
C_ C_ 0.802139 0.819156 0.847306 0.44287
C_ C_ 0.885672 0.786172 0.84345 0.44287
C_ C_ 0.894462 0.800623 0.873048 -0.05681
C_ C_ 0.941712 0.797658 0.884115 -0.08735
C_ C_ 0.949602 0.798832 0.913713 -0.08735
C_ C_ 0.906647 0.809665 0.931752 -0.05681
C_ C_ 0.859931 0.825085 0.919054 -0.05681
C_ C_ 0.855765 0.821334 0.888563 -0.05681
C_ C_ 0.80844 0.828221 0.875949 -0.05681
C_ C_ 0.768462 0.846276 0.893164 -0.08735
C_ C_ 0.774516 0.852247 0.923521 -0.08735
C_ C_ 0.819722 0.838308 0.936923 -0.05681
C_ C_ 0.827538 0.846035 0.966646 0.44287
C_ C_ 0.91362 0.817662 0.962233 0.44287
C_ C_ 0.894193 0.839385 0.511302 0.18498
C_ C_ 0.926157 0.880296 0.51554 -0.08735
C_ C_ 0.937778 0.894277 0.543132 -0.08735
C_ C_ 0.922604 0.865796 0.567549 -0.08735
C_ C_ 0.884532 0.828696 0.563606 0.18498
C_ C_ 0.874909 0.810928 0.53492 -0.05681
C_ C_ 0.854347 0.761469 0.531624 -0.08735
C_ C_ 0.832605 0.736198 0.554782 -0.08735
C_ C_ 0.838326 0.756439 0.582579 0.1947
N_ N_ 0.628675 0.665458 0.972238 -0.29468
N_ N_ 0.648009 0.687883 0.577889 -0.17154
N_ N_ 0.618166 0.67243 0.727917 -0.17154
N_ N_ 0.640779 0.697238 0.833663 -0.29468
N_ N_ 0.856841 0.826536 0.729012 -0.29468
N_ N_ 0.838497 0.794426 0.831952 -0.17154
N_ N_ 0.873276 0.83471 0.97924 -0.17154
N_ N_ 0.865731 0.800778 0.586096 -0.29468
O_ O_ 0.711995 0.673429 0.931265 -0.58347
O_ O_ 0.705883 0.687385 0.885571 -0.58347
O_ O_ 0.637523 0.748604 0.931184 -0.58347
O_ O_ 0.61505 0.758684 0.885375 -0.58347
O_ O_ 0.638024 0.604473 0.924505 -0.58347
O_ O_ 0.64297 0.608177 0.877145 -0.58347
O_ O_ 0.566595 0.675219 0.924926 -0.58347
O_ O_ 0.553882 0.674197 0.878378 -0.58347
O_ O_ 0.561978 0.707236 0.573315 -0.46727
O_ O_ 0.734566 0.666785 0.583835 -0.46727
O_ O_ 0.541602 0.716239 0.72416 -0.46727
O_ O_ 0.700435 0.639671 0.731802 -0.46727
O_ O_ 0.779734 0.816499 0.67629 -0.58347
O_ O_ 0.788337 0.800546 0.630493 -0.58347
O_ O_ 0.855848 0.739627 0.687445 -0.58347
O_ O_ 0.871576 0.737857 0.641336 -0.58347
O_ O_ 0.857322 0.88875 0.675812 -0.58347
O_ O_ 0.851716 0.881359 0.628583 -0.58347
O_ O_ 0.928154 0.817948 0.683368 -0.58347
O_ O_ 0.934462 0.821401 0.636727 -0.58347
O_ O_ 0.919964 0.762831 0.827208 -0.46727
O_ O_ 0.761325 0.835219 0.833961 -0.46727
O_ O_ 0.954705 0.803219 0.975503 -0.46727
O_ O_ 0.790595 0.86007 0.984012 -0.46727
_cell_length_a 26.376
_cell_length_b 26.400000238300095
_cell_length_c 46.67800035477134
_cell_angle_alpha 90.00700052986613
_cell_angle_beta 89.99899961309502
_cell_angle_gamma 90.45000003183146
_symmetry_space_group_name_H-M         'P 1'
_symmetry_Int_Tables_number            1
loop_
_symmetry_equiv_pos_as_xyz
   'x, y, z'
                         
loop_
_atom_site_label
_atom_site_type_symbol
_atom_site_fract_x 
_atom_site_fract_y
_atom_site_fract_z
_atom_site_charge
Zn Zn 0.121338 0.186203 0.381712 0.90689
Zn Zn 0.131584 0.177341 0.429964 0.90689
Zn Zn 0.383667 0.323268 0.132302 0.90689
Zn Zn 0.371094 0.333485 0.180354 0.90689
H_ H_ 0.297324 0.197843 0.444354 0.11455
H_ H_ 0.367308 0.161626 0.349031 0.11455
H_ H_ 0.281245 0.173797 0.354604 0.11455
H_ H_ 0.379708 0.192393 0.466603 0.11455
H_ H_ 0.475353 0.190915 0.460816 0.11455
H_ H_ 0.455419 0.177945 0.367742 0.11455
H_ H_ 0.155087 0.011253 0.437624 0.11455
H_ H_ 0.110331 0.434031 0.349118 0.11455
H_ H_ 0.107722 0.0223551 0.352001 0.11455
H_ H_ 0.133686 0.433337 0.467093 0.11455
H_ H_ 0.136049 0.338216 0.462604 0.11455
H_ H_ 0.111491 0.348059 0.370794 0.11455
H_ H_ 0.0853766 0.111542 0.466456 0.11455
H_ H_ 0.0862112 0.0748163 0.013635 0.11455
H_ H_ 0.118869 0.118067 0.0540614 0.11455
H_ H_ 0.202035 0.240163 0.474801 0.11455
H_ H_ 0.225126 0.306277 0.0165275 0.11455
H_ H_ 0.205017 0.282786 0.0644875 0.11455
H_ H_ 0.0206301 0.206094 0.11779 0.11455
H_ H_ 0.00794645 0.197999 0.16956 0.11455
H_ H_ 0.271922 0.158324 0.140492 0.11455
H_ H_ 0.256576 0.160769 0.193603 0.11455
H_ H_ 0.0600028 0.0982387 0.246202 0.11455
H_ H_ 0.0261513 0.0839993 0.294861 0.11455
H_ H_ 0.0648564 0.129789 0.335213 0.11455
H_ H_ 0.159193 0.250673 0.258378 0.11455
H_ H_ 0.190657 0.296084 0.300132 0.11455
H_ H_ 0.175072 0.259995 0.348753 0.11455
H_ H_ 0.199793 0.323698 0.195063 0.11455
H_ H_ 0.134147 0.332865 0.0962129 0.11455
H_ H_ 0.227731 0.330988 0.105922 0.11455
H_ H_ 0.114545 0.315508 0.212846 0.11455
H_ H_ 0.0256938 0.317612 0.204612 0.11455
H_ H_ 0.0506741 0.328971 0.11434 0.11455
H_ H_ 0.377218 0.497995 0.193823 0.11455
H_ H_ 0.375373 0.0725385 0.0955799 0.11455
H_ H_ 0.375636 0.484263 0.101468 0.11455
H_ H_ 0.350709 0.0790978 0.211617 0.11455
H_ H_ 0.353493 0.169912 0.210402 0.11455
H_ H_ 0.379271 0.158662 0.118142 0.11455
H_ H_ 0.438345 0.3982 0.216219 0.11455
H_ H_ 0.453821 0.42582 0.263883 0.11455
H_ H_ 0.422389 0.371457 0.304413 0.11455
H_ H_ 0.314672 0.266214 0.220259 0.11455
H_ H_ 0.287627 0.211166 0.26111 0.11455
H_ H_ 0.317561 0.219954 0.308644 0.11455
H_ H_ 0.496263 0.302834 0.375556 0.11455
H_ H_ 0.503129 0.301696 0.426937 0.11455
H_ H_ 0.243255 0.33159 0.381935 0.11455
H_ H_ 0.24784 0.330619 0.433202 0.11455
H_ H_ 0.424722 0.409667 0.497285 0.11455
H_ H_ 0.475382 0.434299 0.0447243 0.11455
H_ H_ 0.436056 0.392455 0.0873716 0.11455
H_ H_ 0.352657 0.259817 0.00783511 0.11455
H_ H_ 0.310622 0.22268 0.0489586 0.11455
H_ H_ 0.334515 0.249919 0.0967775 0.11455
C_ C_ 0.227069 0.184475 0.404365 0.68181
C_ C_ 0.281915 0.187128 0.399976 -0.05681
C_ C_ 0.315674 0.192445 0.423469 -0.08735
C_ C_ 0.366512 0.180111 0.421555 -0.05681
C_ C_ 0.387641 0.177762 0.39337 -0.05681
C_ C_ 0.355149 0.175979 0.369088 -0.08735
C_ C_ 0.302428 0.179683 0.373899 -0.08735
C_ C_ 0.397568 0.18792 0.445882 -0.08735
C_ C_ 0.450573 0.182408 0.442463 -0.08735
C_ C_ 0.471734 0.176091 0.415014 -0.05681
C_ C_ 0.43897 0.175528 0.390162 -0.08735
C_ C_ 0.126278 0.280235 0.413603 0.68181
C_ C_ 0.130652 0.0799141 0.398304 0.68181
C_ C_ 0.127174 0.0222664 0.395897 -0.05681
C_ C_ 0.12589 0.495624 0.423619 -0.08735
C_ C_ 0.121727 0.442619 0.420933 -0.05681
C_ C_ 0.116737 0.420053 0.393626 -0.05681
C_ C_ 0.11395 0.450872 0.369646 -0.08735
C_ C_ 0.116685 0.502394 0.371603 -0.08735
C_ C_ 0.127437 0.414315 0.446214 -0.08735
C_ C_ 0.126064 0.361697 0.443002 -0.08735
C_ C_ 0.123818 0.336347 0.416419 -0.05681
C_ C_ 0.118028 0.366879 0.391617 -0.08735
C_ C_ 0.0282513 0.182708 0.406369 0.68181
C_ C_ 0.0957913 0.135713 0.483449 0.1947
C_ C_ 0.10767 0.106879 0.00998268 -0.08735
C_ C_ 0.127684 0.133601 0.0330773 -0.08735
C_ C_ 0.156891 0.178488 0.0291423 -0.05681
C_ C_ 0.165191 0.193392 1.00000686448 0.18498
C_ C_ 0.18719 0.236675 0.494817 -0.08735
C_ C_ 0.206152 0.271146 0.0198631 -0.08735
C_ C_ 0.198389 0.254242 0.04775 -0.08735
C_ C_ 0.175032 0.20895 0.052703 0.18498
C_ C_ 0.202934 0.185479 0.0994953 0.44287
C_ C_ 0.113558 0.199087 0.0918791 0.44287
C_ C_ 0.103364 0.190152 0.120356 -0.05681
C_ C_ 0.0538187 0.198978 0.131963 -0.08735
C_ C_ 0.0473973 0.202283 0.16151 -0.08735
C_ C_ 0.0890479 0.192687 0.180936 -0.05681
C_ C_ 0.137627 0.181113 0.169398 -0.05681
C_ C_ 0.145454 0.184146 0.139935 -0.05681
C_ C_ 0.196194 0.180716 0.129044 -0.05681
C_ C_ 0.235822 0.1724 0.149059 -0.08735
C_ C_ 0.226521 0.171443 0.178777 -0.08735
C_ C_ 0.177076 0.173395 0.188963 -0.05681
C_ C_ 0.166558 0.162347 0.217775 0.44287
C_ C_ 0.081096 0.188739 0.211565 0.44287
C_ C_ 0.107771 0.159957 0.258556 0.18498
C_ C_ 0.0711639 0.122498 0.263722 -0.08735
C_ C_ 0.0537482 0.112038 0.291538 -0.08735
C_ C_ 0.0756685 0.137289 0.315054 -0.08735
C_ C_ 0.107784 0.178525 0.310621 0.18498
C_ C_ 0.124291 0.18974 0.282747 -0.05681
C_ C_ 0.150675 0.234959 0.278888 -0.08735
C_ C_ 0.17118 0.260008 0.303363 -0.08735
C_ C_ 0.161051 0.241955 0.330605 0.1947
C_ C_ 0.275622 0.327819 0.154747 0.68181
C_ C_ 0.220756 0.324336 0.15033 -0.05681
C_ C_ 0.18608 0.323935 0.174634 -0.08735
C_ C_ 0.134302 0.323688 0.168941 -0.05681
C_ C_ 0.114787 0.327729 0.140518 -0.05681
C_ C_ 0.147857 0.331981 0.117882 -0.08735
C_ C_ 0.20124 0.328044 0.122629 -0.08735
C_ C_ 0.100984 0.325463 0.191638 -0.08735
C_ C_ 0.0488973 0.329565 0.187052 -0.08735
C_ C_ 0.02933 0.330468 0.159402 -0.05681
C_ C_ 0.0626911 0.331666 0.136137 -0.08735
C_ C_ 0.376687 0.22831 0.162862 0.68181
C_ C_ 0.383542 0.427988 0.151357 0.68181
C_ C_ 0.386825 0.48551 0.148094 -0.05681
C_ C_ 0.352102 0.0101944 0.169173 -0.08735
C_ C_ 0.358443 0.062866 0.166719 -0.05681
C_ C_ 0.362995 0.0874998 0.140394 -0.05681
C_ C_ 0.369166 0.0569696 0.1159 -0.08735
C_ C_ 0.382275 0.506734 0.120651 -0.08735
C_ C_ 0.362902 0.093884 0.191689 -0.08735
C_ C_ 0.362691 0.147168 0.191566 -0.08735
C_ C_ 0.369113 0.171073 0.165531 -0.05681
C_ C_ 0.373432 0.140175 0.138754 -0.08735
C_ C_ 0.475477 0.332687 0.15366 0.68181
C_ C_ 0.417379 0.381714 0.233375 0.1947
C_ C_ 0.425339 0.397206 0.261403 -0.08735
C_ C_ 0.408036 0.366393 0.283233 -0.08735
C_ C_ 0.379421 0.322278 0.277892 -0.05681
C_ C_ 0.365688 0.31299 0.249685 0.18498
C_ C_ 0.333678 0.270286 0.24285 -0.08735
C_ C_ 0.319155 0.236846 0.264145 -0.08735
C_ C_ 0.334559 0.244897 0.292364 -0.08735
C_ C_ 0.357605 0.289901 0.300105 0.18498
C_ C_ 0.319708 0.309053 0.345941 0.44287
C_ C_ 0.408027 0.296944 0.344076 0.44287
C_ C_ 0.413192 0.307287 0.373247 -0.05681
C_ C_ 0.46181 0.301221 0.387775 -0.08735
C_ C_ 0.464119 0.305816 0.418113 -0.08735
C_ C_ 0.420155 0.311553 0.433908 -0.05681
C_ C_ 0.37497 0.320038 0.419778 -0.05681
C_ C_ 0.370443 0.315985 0.389342 -0.05681
C_ C_ 0.323343 0.321404 0.37499 -0.05681
C_ C_ 0.279759 0.330084 0.391872 -0.08735
C_ C_ 0.282125 0.332749 0.421707 -0.08735
C_ C_ 0.329961 0.330014 0.435398 -0.05681
C_ C_ 0.333617 0.334626 0.465184 0.44287
C_ C_ 0.421476 0.316572 0.463486 0.44287
C_ C_ 0.410822 0.34346 0.00944798 0.18498
C_ C_ 0.440447 0.385881 0.0146824 -0.08735
C_ C_ 0.44871 0.402394 0.0421221 -0.08735
C_ C_ 0.423978 0.380352 0.0657572 -0.08735
C_ C_ 0.398474 0.334781 0.0623853 0.18498
C_ C_ 0.387696 0.31953 0.0336208 -0.05681
C_ C_ 0.361323 0.273526 0.0292096 -0.08735
C_ C_ 0.341916 0.248309 0.0529257 -0.08735
C_ C_ 0.355491 0.263878 0.0800135 0.1947
N_ N_ 0.129384 0.173326 0.478137 -0.29468
N_ N_ 0.162761 0.193996 0.0812089 -0.17154
N_ N_ 0.120875 0.171984 0.22868 -0.17154
N_ N_ 0.127261 0.204709 0.334748 -0.29468
N_ N_ 0.386599 0.341125 0.227661 -0.29468
N_ N_ 0.362554 0.303184 0.330526 -0.17154
N_ N_ 0.38016 0.330384 0.477812 -0.17154
N_ N_ 0.382003 0.30765 0.0852388 -0.29468
O_ O_ 0.207943 0.178073 0.429608 -0.58347
O_ O_ 0.19823 0.189983 0.382082 -0.58347
O_ O_ 0.125567 0.253597 0.436617 -0.58347
O_ O_ 0.123662 0.258382 0.389315 -0.58347
O_ O_ 0.133759 0.100672 0.42288 -0.58347
O_ O_ 0.124301 0.109273 0.376726 -0.58347
O_ O_ 0.0550964 0.178467 0.428898 -0.58347
O_ O_ 0.0484782 0.184927 0.381747 -0.58347
O_ O_ 0.0761684 0.212743 0.0746229 -0.46727
O_ O_ 0.246442 0.17288 0.0882027 -0.46727
O_ O_ 0.0417084 0.212892 0.223846 -0.46727
O_ O_ 0.200223 0.143148 0.234962 -0.46727
O_ O_ 0.293609 0.339653 0.179599 -0.58347
O_ O_ 0.305374 0.314839 0.135088 -0.58347
O_ O_ 0.368964 0.257291 0.184394 -0.58347
O_ O_ 0.384488 0.24704 0.138086 -0.58347
O_ O_ 0.384392 0.40955 0.176228 -0.58347
O_ O_ 0.38251 0.400396 0.129525 -0.58347
O_ O_ 0.446744 0.33235 0.17537 -0.58347
O_ O_ 0.45558 0.33686 0.128769 -0.58347
O_ O_ 0.448724 0.286431 0.328771 -0.46727
O_ O_ 0.275131 0.312921 0.333205 -0.46727
O_ O_ 0.465327 0.317681 0.476415 -0.46727
O_ O_ 0.292943 0.345261 0.480437 -0.46727
Zn Zn 0.132369 0.177528 0.884187 0.90689
Zn Zn 0.148136 0.173024 0.929844 0.90689
Zn Zn 0.370543 0.310507 0.630299 0.90689
Zn Zn 0.362302 0.316256 0.678985 0.90689
H_ H_ 0.316893 0.199396 0.941744 0.11455
H_ H_ 0.379967 0.129556 0.85056 0.11455
H_ H_ 0.284483 0.139774 0.85897 0.11455
H_ H_ 0.402444 0.183892 0.961793 0.11455
H_ H_ 0.495272 0.18707 0.954218 0.11455
H_ H_ 0.467393 0.135386 0.8683 0.11455
H_ H_ 0.151424 0.0110023 0.942926 0.11455
H_ H_ 0.0786494 0.434575 0.859175 0.11455
H_ H_ 0.17545 0.0222758 0.852638 0.11455
H_ H_ 0.172976 0.41914 0.966549 0.11455
H_ H_ 0.164794 0.331196 0.960365 0.11455
H_ H_ 0.102901 0.347943 0.874246 0.11455
H_ H_ 0.111109 0.094718 0.964743 0.11455
H_ H_ 0.0678435 0.0819274 0.514957 0.11455
H_ H_ 0.0939677 0.133926 0.556067 0.11455
H_ H_ 0.202629 0.249042 0.973216 0.11455
H_ H_ 0.242362 0.287283 0.512582 0.11455
H_ H_ 0.210042 0.278034 0.561758 0.11455
H_ H_ 0.00809879 0.22428 0.622008 0.11455
H_ H_ -0.006649000000000016 0.198345 0.671693 0.11455
H_ H_ 0.258491 0.164586 0.640336 0.11455
H_ H_ 0.239821 0.153164 0.689598 0.11455
H_ H_ 0.0371739 0.103041 0.747953 0.11455
H_ H_ 0.0231327 0.0711294 0.796456 0.11455
H_ H_ 0.0689954 0.109372 0.836416 0.11455
H_ H_ 0.149731 0.24449 0.756076 0.11455
H_ H_ 0.19575 0.284558 0.796742 0.11455
H_ H_ 0.184504 0.250881 0.845856 0.11455
H_ H_ 0.190651 0.310055 0.693233 0.11455
H_ H_ 0.124353 0.320647 0.595114 0.11455
H_ H_ 0.212787 0.330974 0.602701 0.11455
H_ H_ 0.102896 0.326192 0.713261 0.11455
H_ H_ 0.0171004 0.316015 0.703284 0.11455
H_ H_ 0.0389867 0.327103 0.614631 0.11455
H_ H_ 0.375856 0.481135 0.69118 0.11455
H_ H_ 0.38771 0.0586989 0.598108 0.11455
H_ H_ 0.343862 0.469812 0.600582 0.11455
H_ H_ 0.348146 0.0665572 0.713654 0.11455
H_ H_ 0.356202 0.154144 0.71102 0.11455
H_ H_ 0.38011 0.14942 0.619786 0.11455
H_ H_ 0.409101 0.396738 0.71593 0.11455
H_ H_ 0.428296 0.423124 0.764598 0.11455
H_ H_ 0.395334 0.377204 0.80575 0.11455
H_ H_ 0.294468 0.254657 0.724087 0.11455
H_ H_ 0.271675 0.200238 0.765554 0.11455
H_ H_ 0.290286 0.220731 0.812339 0.11455
H_ H_ 0.483259 0.265436 0.869106 0.11455
H_ H_ 0.502142 0.27101 0.919779 0.11455
H_ H_ 0.239902 0.328865 0.894422 0.11455
H_ H_ 0.261779 0.35666 0.942058 0.11455
H_ H_ 0.453138 0.411084 -0.0022199999999999998 0.11455
H_ H_ 0.456745 0.421838 0.548825 0.11455
H_ H_ 0.430691 0.373706 0.58726 0.11455
H_ H_ 0.343533 0.25201 0.503688 0.11455
H_ H_ 0.304766 0.204981 0.54207 0.11455
H_ H_ 0.314928 0.233829 0.594183 0.11455
C_ C_ 0.241389 0.180625 0.903308 0.68181
C_ C_ 0.296373 0.173754 0.899476 -0.05681
C_ C_ 0.3312 0.181142 0.922354 -0.08735
C_ C_ 0.384155 0.168565 0.918739 -0.05681
C_ C_ 0.402408 0.156768 0.892035 -0.05681
C_ C_ 0.366699 0.144068 0.8701 -0.08735
C_ C_ 0.314486 0.155009 0.873634 -0.08735
C_ C_ 0.415798 0.170942 0.942106 -0.08735
C_ C_ 0.468946 0.170072 0.93878 -0.08735
C_ C_ 0.488647 0.158687 0.91072 -0.05681
C_ C_ 0.453929 0.144964 0.889026 -0.08735
C_ C_ 0.136325 0.273725 0.911861 0.68181
C_ C_ 0.150938 0.0784977 0.900391 0.68181
C_ C_ 0.160226 0.0229382 0.897745 -0.05681
C_ C_ 0.150272 0.491547 0.925802 -0.08735
C_ C_ 0.140873 0.437873 0.923568 -0.05681
C_ C_ 0.11816 0.416676 0.898705 -0.05681
C_ C_ 0.0997384 0.450829 0.877734 -0.08735
C_ C_ 0.114768 0.503115 0.878568 -0.08735
C_ C_ 0.157703 0.404605 0.945591 -0.08735
C_ C_ 0.152106 0.352845 0.941846 -0.08735
C_ C_ 0.134373 0.330217 0.91624 -0.05681
C_ C_ 0.115444 0.362906 0.89454 -0.08735
C_ C_ 0.0415643 0.171533 0.90776 0.68181
C_ C_ 0.122288 0.118396 0.983043 0.1947
C_ C_ 0.0930584 0.114129 0.511425 -0.08735
C_ C_ 0.109278 0.143522 0.534713 -0.08735
C_ C_ 0.133864 0.191127 0.529141 -0.05681
C_ C_ 0.147045 0.202136 0.499995 0.18498
C_ C_ 0.190554 0.240414 0.995891 -0.08735
C_ C_ 0.208375 0.262905 0.516937 -0.08735
C_ C_ 0.190157 0.257115 0.544738 -0.08735
C_ C_ 0.155475 0.220657 0.551588 0.18498
C_ C_ 0.183002 0.188823 0.597074 0.44287
C_ C_ 0.0980964 0.218826 0.592106 0.44287
C_ C_ 0.0900096 0.208593 0.621998 -0.05681
C_ C_ 0.0403408 0.212739 0.634004 -0.08735
C_ C_ 0.0331716 0.202252 0.663891 -0.08735
C_ C_ 0.0737231 0.190758 0.681803 -0.05681
C_ C_ 0.122506 0.183268 0.669196 -0.05681
C_ C_ 0.130175 0.193225 0.639615 -0.05681
C_ C_ 0.177457 0.182446 0.627783 -0.05681
C_ C_ 0.218135 0.169671 0.646653 -0.08735
C_ C_ 0.211297 0.159902 0.676015 -0.08735
C_ C_ 0.161095 0.163762 0.68702 -0.05681
C_ C_ 0.151549 0.153778 0.716217 0.44287
C_ C_ 0.0669298 0.186895 0.711855 0.44287
C_ C_ 0.0984239 0.155631 0.759065 0.18498
C_ C_ 0.0584803 0.121044 0.76533 -0.08735
C_ C_ 0.0529606 0.101203 0.792429 -0.08735
C_ C_ 0.0827682 0.120008 0.815128 -0.08735
C_ C_ 0.112978 0.165772 0.811045 0.18498
C_ C_ 0.120127 0.18394 0.782117 -0.05681
C_ C_ 0.148112 0.226542 0.777743 -0.08735
C_ C_ 0.173116 0.250316 0.800685 -0.08735
C_ C_ 0.164812 0.232594 0.828594 0.1947
C_ C_ 0.265994 0.319439 0.65167 0.68181
C_ C_ 0.210435 0.325416 0.648698 -0.05681
C_ C_ 0.176335 0.319945 0.672565 -0.08735
C_ C_ 0.125095 0.329556 0.668476 -0.05681
C_ C_ 0.106082 0.330151 0.640551 -0.05681
C_ C_ 0.137603 0.325976 0.616491 -0.08735
C_ C_ 0.189625 0.328976 0.621248 -0.08735
C_ C_ 0.0918614 0.331261 0.691824 -0.08735
C_ C_ 0.0401586 0.333994 0.687009 -0.08735
C_ C_ 0.0211508 0.333711 0.658939 -0.05681
C_ C_ 0.0530972 0.332718 0.636547 -0.08735
C_ C_ 0.360641 0.215153 0.661654 0.68181
C_ C_ 0.360712 0.412 0.649175 0.68181
C_ C_ 0.360848 0.467445 0.646285 -0.05681
C_ C_ 0.348499 0.0009300000000000974 0.669555 -0.08735
C_ C_ 0.36036 0.0510472 0.668572 -0.05681
C_ C_ 0.367203 0.0741854 0.64108 -0.05681
C_ C_ 0.373935 0.0443762 0.616989 -0.08735
C_ C_ 0.352148 0.491691 0.6198 -0.08735
C_ C_ 0.353793 0.0814989 0.692525 -0.08735
C_ C_ 0.355229 0.134238 0.690433 -0.08735
C_ C_ 0.361682 0.159534 0.66372 -0.05681
C_ C_ 0.367246 0.12828 0.639765 -0.08735
C_ C_ 0.465836 0.313481 0.658385 0.68181
C_ C_ 0.391197 0.375217 0.73209 0.1947
C_ C_ 0.40339 0.390295 0.760891 -0.08735
C_ C_ 0.385197 0.361499 0.783748 -0.08735
C_ C_ 0.353194 0.317916 0.778645 -0.05681
C_ C_ 0.339734 0.307648 0.749789 0.18498
C_ C_ 0.310845 0.263737 0.745066 -0.08735
C_ C_ 0.295242 0.234984 0.768079 -0.08735
C_ C_ 0.305407 0.24873 0.796002 -0.08735
C_ C_ 0.333533 0.290268 0.802233 0.18498
C_ C_ 0.310589 0.311312 0.851465 0.44287
C_ C_ 0.392631 0.28234 0.842258 0.44287
C_ C_ 0.404171 0.286612 0.872848 -0.05681
C_ C_ 0.453018 0.277911 0.884212 -0.08735
C_ C_ 0.464272 0.283047 0.913084 -0.08735
C_ C_ 0.428651 0.306925 0.932057 -0.05681
C_ C_ 0.379175 0.315588 0.921212 -0.05681
C_ C_ 0.36563 0.303782 0.89101 -0.05681
C_ C_ 0.318083 0.313244 0.880992 -0.05681
C_ C_ 0.28081 0.332245 0.89983 -0.08735
C_ C_ 0.292794 0.343557 0.928535 -0.08735
C_ C_ 0.341153 0.332381 0.9391 -0.05681
C_ C_ 0.353513 0.341553 0.967822 0.44287
C_ C_ 0.438521 0.315614 0.961698 0.44287
C_ C_ 0.387171 0.344489 0.508366 0.18498
C_ C_ 0.414658 0.388597 0.514944 -0.08735
C_ C_ 0.424829 0.400563 0.543912 -0.08735
C_ C_ 0.407859 0.371375 0.566368 -0.08735
C_ C_ 0.379983 0.326888 0.560352 0.18498
C_ C_ 0.370879 0.313984 0.531277 -0.05681
C_ C_ 0.345555 0.268527 0.52482 -0.08735
C_ C_ 0.324227 0.2401 0.547465 -0.08735
C_ C_ 0.3357 0.252135 0.576345 0.1947
N_ N_ 0.148914 0.163166 0.978 -0.29468
N_ N_ 0.145048 0.209112 0.580316 -0.17154
N_ N_ 0.107109 0.16785 0.728696 -0.17154
N_ N_ 0.134571 0.190522 0.833678 -0.29468
N_ N_ 0.360872 0.332291 0.727806 -0.29468
N_ N_ 0.348544 0.299762 0.831755 -0.17154
N_ N_ 0.399215 0.330783 0.979075 -0.17154
N_ N_ 0.365972 0.295311 0.581823 -0.29468
O_ O_ 0.225186 0.185032 0.929256 -0.58347
O_ O_ 0.210539 0.181656 0.882103 -0.58347
O_ O_ 0.138801 0.24603 0.93359 -0.58347
O_ O_ 0.129926 0.252732 0.887129 -0.58347
O_ O_ 0.161721 0.0977093 0.924002 -0.58347
O_ O_ 0.131881 0.102933 0.879631 -0.58347
O_ O_ 0.0696924 0.165702 0.928885 -0.58347
O_ O_ 0.0596049 0.176146 0.882387 -0.58347
O_ O_ 0.0653682 0.245362 0.577546 -0.46727
O_ O_ 0.226725 0.176591 0.583875 -0.46727
O_ O_ 0.0235636 0.197341 0.723652 -0.46727
O_ O_ 0.1881 0.137145 0.73321 -0.46727
O_ O_ 0.285463 0.322098 0.676312 -0.58347
O_ O_ 0.292463 0.304764 0.630508 -0.58347
O_ O_ 0.355139 0.243757 0.683524 -0.58347
O_ O_ 0.369256 0.235419 0.637424 -0.58347
O_ O_ 0.354422 0.390084 0.673432 -0.58347
O_ O_ 0.366473 0.384399 0.626372 -0.58347
O_ O_ 0.436454 0.320864 0.680076 -0.58347
O_ O_ 0.44696 0.312345 0.633367 -0.58347
O_ O_ 0.429775 0.267792 0.823661 -0.46727
O_ O_ 0.266607 0.327763 0.841497 -0.46727
O_ O_ 0.483369 0.305317 0.972739 -0.46727
O_ O_ 0.322245 0.362411 0.984821 -0.46727
Zn Zn 0.121695 0.678278 0.38406 0.90689
Zn Zn 0.132244 0.675127 0.431792 0.90689
Zn Zn 0.376981 0.823956 0.130793 0.90689
Zn Zn 0.367941 0.830278 0.177983 0.90689
H_ H_ 0.297915 0.693059 0.447971 0.11455
H_ H_ 0.368968 0.694337 0.349616 0.11455
H_ H_ 0.275114 0.693332 0.356028 0.11455
H_ H_ 0.381487 0.658051 0.463711 0.11455
H_ H_ 0.474215 0.665645 0.458439 0.11455
H_ H_ 0.452162 0.699068 0.367665 0.11455
H_ H_ 0.138104 0.512042 0.444744 0.11455
H_ H_ 0.0944302 0.93152 0.349102 0.11455
H_ H_ 0.114445 0.525003 0.353254 0.11455
H_ H_ 0.172262 0.927049 0.457813 0.11455
H_ H_ 0.158 0.833331 0.4566 0.11455
H_ H_ 0.102727 0.841639 0.371305 0.11455
H_ H_ 0.0869747 0.591626 0.468101 0.11455
H_ H_ 0.0787706 0.571888 0.0225616 0.11455
H_ H_ 0.106212 0.622739 0.0632022 0.11455
H_ H_ 0.184975 0.738219 0.476429 0.11455
H_ H_ 0.228313 0.793295 0.0145175 0.11455
H_ H_ 0.209985 0.772835 0.0652334 0.11455
H_ H_ 0.0136382 0.704277 0.122617 0.11455
H_ H_ 0.0027200000000000557 0.69693 0.176588 0.11455
H_ H_ 0.265822 0.698904 0.143786 0.11455
H_ H_ 0.254203 0.675715 0.196621 0.11455
H_ H_ 0.0643778 0.585885 0.249344 0.11455
H_ H_ 0.0327574 0.565155 0.298951 0.11455
H_ H_ 0.0510702 0.627353 0.337125 0.11455
H_ H_ 0.141915 0.74905 0.259386 0.11455
H_ H_ 0.185282 0.794644 0.298954 0.11455
H_ H_ 0.158872 0.769169 0.349117 0.11455
H_ H_ 0.201288 0.819908 0.192923 0.11455
H_ H_ 0.130461 0.827124 0.095504 0.11455
H_ H_ 0.219826 0.833682 0.103542 0.11455
H_ H_ 0.117136 0.807953 0.212632 0.11455
H_ H_ 0.0259114 0.808102 0.207174 0.11455
H_ H_ 0.0411746 0.833071 0.117408 0.11455
H_ H_ 0.340761 0.993673 0.18908 0.11455
H_ H_ 0.396564 0.570793 0.096544 0.11455
H_ H_ 0.369967 0.981793 0.0980442 0.11455
H_ H_ 0.359255 0.583716 0.212324 0.11455
H_ H_ 0.359058 0.673274 0.207978 0.11455
H_ H_ 0.390282 0.662004 0.116531 0.11455
H_ H_ 0.427799 0.900536 0.212128 0.11455
H_ H_ 0.420335 0.943346 0.263559 0.11455
H_ H_ 0.387811 0.901604 0.301112 0.11455
H_ H_ 0.30897 0.774734 0.222031 0.11455
H_ H_ 0.269279 0.722962 0.263217 0.11455
H_ H_ 0.300192 0.7401 0.311232 0.11455
H_ H_ 0.476728 0.804182 0.370138 0.11455
H_ H_ 0.492388 0.813498 0.421226 0.11455
H_ H_ 0.226933 0.831029 0.388857 0.11455
H_ H_ 0.242498 0.827745 0.441616 0.11455
H_ H_ 0.430219 0.900277 0.499862 0.11455
H_ H_ 0.458436 0.939646 0.0493541 0.11455
H_ H_ 0.445316 0.87108 0.0871055 0.11455
H_ H_ 0.334135 0.761788 0.00832673 0.11455
H_ H_ 0.290611 0.728253 0.0471684 0.11455
H_ H_ 0.317798 0.743205 0.0966169 0.11455
C_ C_ 0.225167 0.685784 0.406882 0.68181
C_ C_ 0.278886 0.688538 0.403093 -0.05681
C_ C_ 0.313358 0.69277 0.426378 -0.08735
C_ C_ 0.365488 0.689081 0.422133 -0.05681
C_ C_ 0.38621 0.687421 0.393776 -0.05681
C_ C_ 0.354332 0.688904 0.371203 -0.08735
C_ C_ 0.300488 0.686806 0.375801 -0.08735
C_ C_ 0.397266 0.673176 0.44359 -0.08735
C_ C_ 0.448515 0.668993 0.43934 -0.08735
C_ C_ 0.46911 0.681143 0.412052 -0.05681
C_ C_ 0.438599 0.685817 0.388544 -0.08735
C_ C_ 0.122517 0.775291 0.415068 0.68181
C_ C_ 0.129553 0.582139 0.399368 0.68181
C_ C_ 0.12391 0.525658 0.397799 -0.05681
C_ C_ 0.13968 0.99256 0.419438 -0.08735
C_ C_ 0.140019 0.939425 0.416479 -0.05681
C_ C_ 0.128902 0.915347 0.39047 -0.05681
C_ C_ 0.113698 0.946716 0.368156 -0.08735
C_ C_ 0.111879 0.99891 0.370199 -0.08735
C_ C_ 0.154794 0.907935 0.439472 -0.08735
C_ C_ 0.144305 0.856519 0.439939 -0.08735
C_ C_ 0.128819 0.833625 0.415033 -0.05681
C_ C_ 0.118492 0.862252 0.389804 -0.08735
C_ C_ 0.0267757 0.66951 0.410863 0.68181
C_ C_ 0.100534 0.613572 0.484697 0.1947
C_ C_ 0.0966828 0.606667 0.0177164 -0.08735
C_ C_ 0.116891 0.634224 0.0408321 -0.08735
C_ C_ 0.143541 0.678705 0.0352805 -0.05681
C_ C_ 0.153275 0.690518 1.00515911 0.18498
C_ C_ 0.171583 0.727714 0.497689 -0.08735
C_ C_ 0.205536 0.761866 0.0197078 -0.08735
C_ C_ 0.190265 0.753203 0.0480819 -0.08735
C_ C_ 0.164581 0.709452 0.0563539 0.18498
C_ C_ 0.196623 0.691437 0.103569 0.44287
C_ C_ 0.108499 0.710717 0.0976839 0.44287
C_ C_ 0.0968518 0.69509 0.12641 -0.05681
C_ C_ 0.0454648 0.696928 0.136525 -0.08735
C_ C_ 0.0384736 0.69383 0.165407 -0.08735
C_ C_ 0.0782611 0.680618 0.184268 -0.05681
C_ C_ 0.127623 0.675069 0.173804 -0.05681
C_ C_ 0.137663 0.682302 0.143977 -0.05681
C_ C_ 0.186964 0.68841 0.133513 -0.05681
C_ C_ 0.228913 0.686439 0.152945 -0.08735
C_ C_ 0.221017 0.67405 0.182371 -0.08735
C_ C_ 0.168836 0.6697 0.192412 -0.05681
C_ C_ 0.158568 0.660034 0.221366 0.44287
C_ C_ 0.0709683 0.678669 0.214564 0.44287
C_ C_ 0.0999708 0.65579 0.261485 0.18498
C_ C_ 0.0714784 0.613155 0.267639 -0.08735
C_ C_ 0.0602099 0.597892 0.295174 -0.08735
C_ C_ 0.0738221 0.627768 0.318612 -0.08735
C_ C_ 0.098962 0.675085 0.313219 0.18498
C_ C_ 0.113461 0.688762 0.284156 -0.05681
C_ C_ 0.137286 0.734087 0.280556 -0.08735
C_ C_ 0.157393 0.761333 0.302443 -0.08735
C_ C_ 0.143734 0.748503 0.330783 0.1947
C_ C_ 0.273196 0.823557 0.152757 0.68181
C_ C_ 0.216724 0.824504 0.149255 -0.05681
C_ C_ 0.185236 0.821861 0.172606 -0.08735
C_ C_ 0.132989 0.820622 0.167979 -0.05681
C_ C_ 0.110765 0.82354 0.140484 -0.05681
C_ C_ 0.142695 0.824491 0.116993 -0.08735
C_ C_ 0.19621 0.822358 0.121744 -0.08735
C_ C_ 0.101061 0.812408 0.191163 -0.08735
C_ C_ 0.0471696 0.8098 0.188072 -0.08735
C_ C_ 0.0258585 0.821949 0.161502 -0.05681
C_ C_ 0.0580998 0.823488 0.137272 -0.08735
C_ C_ 0.376723 0.729559 0.160474 0.68181
C_ C_ 0.364415 0.92433 0.146351 0.68181
C_ C_ 0.35743 0.979435 0.144218 -0.05681
C_ C_ 0.380525 0.515123 0.172622 -0.08735
C_ C_ 0.37784 0.567707 0.169297 -0.05681
C_ C_ 0.386777 0.59098 0.142234 -0.05681
C_ C_ 0.389724 0.557509 0.117678 -0.08735
C_ C_ 0.362252 0.00492194 0.117566 -0.08735
C_ C_ 0.365186 0.598514 0.192209 -0.08735
C_ C_ 0.370329 0.6516 0.190072 -0.08735
C_ C_ 0.378665 0.674232 0.162888 -0.05681
C_ C_ 0.390547 0.643905 0.138336 -0.08735
C_ C_ 0.472077 0.825859 0.154988 0.68181
C_ C_ 0.401742 0.888682 0.23 0.1947
C_ C_ 0.403342 0.908072 0.257441 -0.08735
C_ C_ 0.3793 0.885989 0.280125 -0.08735
C_ C_ 0.352866 0.840079 0.27721 -0.05681
C_ C_ 0.346889 0.823138 0.248446 0.18498
C_ C_ 0.315705 0.783197 0.243676 -0.08735
C_ C_ 0.295161 0.755748 0.266453 -0.08735
C_ C_ 0.308513 0.766623 0.294469 -0.08735
C_ C_ 0.333076 0.811506 0.300643 0.18498
C_ C_ 0.302812 0.833749 0.347813 0.44287
C_ C_ 0.390253 0.815616 0.341061 0.44287
C_ C_ 0.398783 0.819288 0.371595 -0.05681
C_ C_ 0.446553 0.815057 0.383323 -0.08735
C_ C_ 0.452723 0.813412 0.413022 -0.08735
C_ C_ 0.411407 0.816802 0.432004 -0.05681
C_ C_ 0.363521 0.824417 0.420151 -0.05681
C_ C_ 0.356583 0.825923 0.390315 -0.05681
C_ C_ 0.307111 0.832696 0.378733 -0.05681
C_ C_ 0.265294 0.837029 0.397517 -0.08735
C_ C_ 0.272099 0.832411 0.427639 -0.08735
C_ C_ 0.321161 0.82932 0.439221 -0.05681
C_ C_ 0.328728 0.825075 0.468783 0.44287
C_ C_ 0.414757 0.809615 0.462572 0.44287
C_ C_ 0.394008 0.852678 0.0114074 0.18498
C_ C_ 0.421093 0.895455 0.0183515 -0.08735
C_ C_ 0.438581 0.906237 0.0452332 -0.08735
C_ C_ 0.42613 0.869942 0.0669286 -0.08735
C_ C_ 0.393919 0.82863 0.0615347 0.18498
C_ C_ 0.377632 0.818227 0.0332571 -0.05681
C_ C_ 0.343134 0.779742 0.0289269 -0.08735
C_ C_ 0.317407 0.758794 0.0517072 -0.08735
C_ C_ 0.334678 0.768394 0.0798563 0.1947
N_ N_ 0.128879 0.655055 0.479256 -0.29468
N_ N_ 0.156506 0.700766 0.0865023 -0.17154
N_ N_ 0.110296 0.666979 0.23186 -0.17154
N_ N_ 0.117642 0.704993 0.335432 -0.29468
N_ N_ 0.370329 0.847714 0.225752 -0.29468
N_ N_ 0.342358 0.82428 0.329872 -0.17154
N_ N_ 0.375298 0.818698 0.480704 -0.17154
N_ N_ 0.37217 0.802091 0.0848125 -0.29468
O_ O_ 0.206353 0.675915 0.430738 -0.58347
O_ O_ 0.195862 0.683421 0.384951 -0.58347
O_ O_ 0.13475 0.748441 0.436831 -0.58347
O_ O_ 0.112651 0.751943 0.391576 -0.58347
O_ O_ 0.12773 0.60233 0.425251 -0.58347
O_ O_ 0.124197 0.608607 0.377084 -0.58347
O_ O_ 0.057451 0.678463 0.431366 -0.58347
O_ O_ 0.0458585 0.669997 0.385579 -0.58347
O_ O_ 0.071051 0.726346 0.0811681 -0.46727
O_ O_ 0.243155 0.685683 0.0934319 -0.46727
O_ O_ 0.0237227 0.682719 0.22567 -0.46727
O_ O_ 0.196818 0.651674 0.23977 -0.46727
O_ O_ 0.292999 0.831827 0.176924 -0.58347
O_ O_ 0.301145 0.813837 0.130974 -0.58347
O_ O_ 0.369218 0.757275 0.18244 -0.58347
O_ O_ 0.384917 0.751193 0.136852 -0.58347
O_ O_ 0.36952 0.906842 0.17097 -0.58347
O_ O_ 0.366114 0.896234 0.124803 -0.58347
O_ O_ 0.443356 0.829731 0.17695 -0.58347
O_ O_ 0.452525 0.829661 0.13096 -0.58347
O_ O_ 0.426303 0.804364 0.322496 -0.46727
O_ O_ 0.25609 0.836497 0.338131 -0.46727
O_ O_ 0.456788 0.797859 0.473732 -0.46727
O_ O_ 0.291714 0.841249 0.485698 -0.46727
Zn Zn 0.13074 0.679909 0.886968 0.90689
Zn Zn 0.13977 0.674243 0.935529 0.90689
Zn Zn 0.361691 0.809324 0.632221 0.90689
Zn Zn 0.356305 0.81493 0.679667 0.90689
H_ H_ 0.31697 0.686607 0.946985 0.11455
H_ H_ 0.371759 0.647155 0.850284 0.11455
H_ H_ 0.279981 0.642755 0.863184 0.11455
H_ H_ 0.398668 0.694524 0.963655 0.11455
H_ H_ 0.490512 0.699831 0.953028 0.11455
H_ H_ 0.456936 0.683777 0.865683 0.11455
H_ H_ 0.165641 0.506888 0.945024 0.11455
H_ H_ 0.164277 0.93028 0.847838 0.11455
H_ H_ 0.0989038 0.52882 0.862284 0.11455
H_ H_ 0.130363 0.92414 0.963897 0.11455
H_ H_ 0.12208 0.835677 0.959859 0.11455
H_ H_ 0.152303 0.845685 0.868112 0.11455
H_ H_ 0.0887215 0.600117 0.97031 0.11455
H_ H_ 0.0697049 0.563668 0.514995 0.11455
H_ H_ 0.100441 0.6078 0.555487 0.11455
H_ H_ 0.198686 0.737355 0.977104 0.11455
H_ H_ 0.20117 0.799755 0.51388 0.11455
H_ H_ 0.177139 0.780702 0.563924 0.11455
H_ H_ 0.999517924 0.69176 0.624152 0.11455
H_ H_ 0.986759 0.690043 0.674983 0.11455
H_ H_ 0.255169 0.668647 0.64253 0.11455
H_ H_ 0.243168 0.660729 0.694774 0.11455
H_ H_ 0.0497355 0.578281 0.756449 0.11455
H_ H_ 0.0319222 0.561721 0.807158 0.11455
H_ H_ 0.058466 0.618001 0.844614 0.11455
H_ H_ 0.148538 0.734442 0.759935 0.11455
H_ H_ 0.185591 0.780726 0.798951 0.11455
H_ H_ 0.185792 0.748534 0.845958 0.11455
H_ H_ 0.188239 0.803029 0.696581 0.11455
H_ H_ 0.116946 0.80602 0.600432 0.11455
H_ H_ 0.208239 0.821773 0.607298 0.11455
H_ H_ 0.104828 0.821188 0.718141 0.11455
H_ H_ 0.0158064 0.791863 0.707863 0.11455
H_ H_ 0.0312218 0.806618 0.619681 0.11455
H_ H_ 0.337701 0.98405 0.689943 0.11455
H_ H_ 0.327848 0.561518 0.597998 0.11455
H_ H_ 0.388481 0.967896 0.602737 0.11455
H_ H_ 0.388803 0.568001 0.713016 0.11455
H_ H_ 0.388494 0.661873 0.70635 0.11455
H_ H_ 0.34238 0.644166 0.619259 0.11455
H_ H_ 0.418044 0.882673 0.71367 0.11455
H_ H_ 0.438427 0.919112 0.76187 0.11455
H_ H_ 0.395105 0.880859 0.802806 0.11455
H_ H_ 0.300768 0.747927 0.726004 0.11455
H_ H_ 0.25622 0.718123 0.765815 0.11455
H_ H_ 0.278323 0.742759 0.816007 0.11455
H_ H_ 0.479927 0.778383 0.874327 0.11455
H_ H_ 0.494623 0.798899 0.925864 0.11455
H_ H_ 0.243434 0.875899 0.88796 0.11455
H_ H_ 0.257728 0.887201 0.937324 0.11455
H_ H_ 0.425362 0.923959 1.00348 0.11455
H_ H_ 0.449444 0.921095 0.550212 0.11455
H_ H_ 0.416913 0.871613 0.587439 0.11455
H_ H_ 0.329758 0.74929 0.50728 0.11455
H_ H_ 0.287106 0.707564 0.54808 0.11455
H_ H_ 0.304623 0.736298 0.598199 0.11455
C_ C_ 0.23455 0.676665 0.909914 0.68181
C_ C_ 0.290114 0.668923 0.904742 -0.05681
C_ C_ 0.325874 0.671841 0.926802 -0.08735
C_ C_ 0.378416 0.67305 0.921251 -0.05681
C_ C_ 0.393366 0.668082 0.893267 -0.05681
C_ C_ 0.358393 0.65601 0.871852 -0.08735
C_ C_ 0.306923 0.657931 0.87697 -0.08735
C_ C_ 0.413875 0.68444 0.943619 -0.08735
C_ C_ 0.46494 0.682926 0.937503 -0.08735
C_ C_ 0.480362 0.680232 0.909013 -0.05681
C_ C_ 0.444346 0.677631 0.886693 -0.08735
C_ C_ 0.135989 0.775201 0.913497 0.68181
C_ C_ 0.139363 0.58079 0.905968 0.68181
C_ C_ 0.134774 0.524216 0.904092 -0.05681
C_ C_ 0.152957 0.991743 0.922028 -0.08735
C_ C_ 0.150838 0.936986 0.919834 -0.05681
C_ C_ 0.152622 0.915312 0.89255 -0.05681
C_ C_ 0.164192 0.948014 0.868642 -0.08735
C_ C_ 0.16855 0.000486001 0.87134 -0.08735
C_ C_ 0.137306 0.907147 0.943464 -0.08735
C_ C_ 0.129027 0.855551 0.940987 -0.08735
C_ C_ 0.136875 0.831684 0.914403 -0.05681
C_ C_ 0.146688 0.862081 0.889655 -0.08735
C_ C_ 0.0369994 0.677085 0.908887 0.68181
C_ C_ 0.103891 0.621651 0.989043 0.1947
C_ C_ 0.0959619 0.594288 0.512155 -0.08735
C_ C_ 0.112554 0.622235 0.535197 -0.08735
C_ C_ 0.134797 0.670466 0.530776 -0.05681
C_ C_ 0.144452 0.684137 0.502262 0.18498
C_ C_ 0.183464 0.732839 0.998657 -0.08735
C_ C_ 0.18161 0.763213 0.519043 -0.08735
C_ C_ 0.169621 0.752767 0.5473 -0.08735
C_ C_ 0.145134 0.703599 0.554301 0.18498
C_ C_ 0.180114 0.684325 0.601541 0.44287
C_ C_ 0.0907282 0.692152 0.595697 0.44287
C_ C_ 0.0833184 0.685288 0.625977 -0.05681
C_ C_ 0.0330835 0.684165 0.636935 -0.08735
C_ C_ 0.0260782 0.680013 0.666551 -0.08735
C_ C_ 0.0674794 0.67351 0.685643 -0.05681
C_ C_ 0.117748 0.674305 0.673946 -0.05681
C_ C_ 0.125753 0.679293 0.643561 -0.05681
C_ C_ 0.174811 0.672059 0.630583 -0.05681
C_ C_ 0.215577 0.668127 0.650544 -0.08735
C_ C_ 0.207668 0.667368 0.680569 -0.08735
C_ C_ 0.159562 0.666547 0.692211 -0.05681
C_ C_ 0.151769 0.658428 0.722011 0.44287
C_ C_ 0.0611568 0.66625 0.715429 0.44287
C_ C_ 0.0959767 0.644358 0.764819 0.18498
C_ C_ 0.069348 0.600906 0.772306 -0.08735
C_ C_ 0.0565133 0.59274 0.801541 -0.08735
C_ C_ 0.0725088 0.624524 0.823197 -0.08735
C_ C_ 0.104909 0.663117 0.81655 0.18498
C_ C_ 0.113129 0.67769 0.787258 -0.05681
C_ C_ 0.143636 0.720674 0.780919 -0.08735
C_ C_ 0.169263 0.744735 0.80287 -0.08735
C_ C_ 0.165318 0.726816 0.830364 0.1947
C_ C_ 0.259802 0.811819 0.656807 0.68181
C_ C_ 0.20492 0.811541 0.652733 -0.05681
C_ C_ 0.171387 0.812385 0.676353 -0.08735
C_ C_ 0.119649 0.81793 0.672808 -0.05681
C_ C_ 0.0991177 0.818761 0.644769 -0.05681
C_ C_ 0.13204 0.815832 0.621317 -0.08735
C_ C_ 0.184721 0.819937 0.624893 -0.08735
C_ C_ 0.0882636 0.816058 0.695859 -0.08735
C_ C_ 0.0361064 0.806578 0.691551 -0.08735
C_ C_ 0.0137141 0.816036 0.664504 -0.05681
C_ C_ 0.0449251 0.816583 0.64075 -0.08735
C_ C_ 0.360318 0.713675 0.660424 0.68181
C_ C_ 0.361928 0.911424 0.647732 0.68181
C_ C_ 0.360764 0.96831 0.645381 -0.05681
C_ C_ 0.363491 0.499183 0.671334 -0.08735
C_ C_ 0.363018 0.552278 0.669126 -0.05681
C_ C_ 0.352788 0.574053 0.642747 -0.05681
C_ C_ 0.345304 0.545279 0.618343 -0.08735
C_ C_ 0.371881 0.991767 0.618925 -0.08735
C_ C_ 0.375454 0.583519 0.692791 -0.08735
C_ C_ 0.374499 0.636052 0.689312 -0.08735
C_ C_ 0.36251 0.657546 0.663741 -0.05681
C_ C_ 0.349504 0.626937 0.64058 -0.08735
C_ C_ 0.45715 0.813637 0.657895 0.68181
C_ C_ 0.402149 0.863664 0.73169 0.1947
C_ C_ 0.412109 0.886066 0.758695 -0.08735
C_ C_ 0.387492 0.86502 0.782074 -0.08735
C_ C_ 0.357409 0.822599 0.779264 -0.05681
C_ C_ 0.34642 0.803432 0.751127 0.18498
C_ C_ 0.311796 0.761839 0.747226 -0.08735
C_ C_ 0.285422 0.745789 0.771042 -0.08735
C_ C_ 0.29996 0.758286 0.798667 -0.08735
C_ C_ 0.336432 0.796759 0.803628 0.18498
C_ C_ 0.308922 0.83178 0.848917 0.44287
C_ C_ 0.395553 0.804047 0.843699 0.44287
C_ C_ 0.401302 0.804625 0.873783 -0.05681
C_ C_ 0.449751 0.794268 0.88671 -0.08735
C_ C_ 0.458105 0.805864 0.915652 -0.08735
C_ C_ 0.418696 0.822791 0.933919 -0.05681
C_ C_ 0.370447 0.827588 0.922364 -0.05681
C_ C_ 0.363662 0.823623 0.891508 -0.05681
C_ C_ 0.317528 0.841181 0.878613 -0.05681
C_ C_ 0.27833 0.859666 0.896027 -0.08735
C_ C_ 0.28714 0.866738 0.925986 -0.08735
C_ C_ 0.330425 0.846135 0.939261 -0.05681
C_ C_ 0.339643 0.85482 0.96834 0.44287
C_ C_ 0.42395 0.824817 0.964358 0.44287
C_ C_ 0.385081 0.83481 0.510111 0.18498
C_ C_ 0.414845 0.876116 0.516795 -0.08735
C_ C_ 0.428036 0.887743 0.545394 -0.08735
C_ C_ 0.411811 0.858239 0.56735 -0.08735
C_ C_ 0.382548 0.815482 0.562151 0.18498
C_ C_ 0.365421 0.807382 0.533655 -0.05681
C_ C_ 0.33743 0.762308 0.529709 -0.08735
C_ C_ 0.317449 0.735995 0.552293 -0.08735
C_ C_ 0.327055 0.752814 0.581335 0.1947
N_ N_ 0.127533 0.665882 0.983498 -0.29468
N_ N_ 0.138743 0.692452 0.584251 -0.17154
N_ N_ 0.102787 0.656704 0.733817 -0.17154
N_ N_ 0.128419 0.690985 0.837274 -0.29468
N_ N_ 0.3706 0.826107 0.728133 -0.29468
N_ N_ 0.347753 0.815699 0.831887 -0.17154
N_ N_ 0.385545 0.840213 0.98127 -0.17154
N_ N_ 0.362328 0.78998 0.585711 -0.29468
O_ O_ 0.215726 0.677192 0.93479 -0.58347
O_ O_ 0.206254 0.686528 0.888474 -0.58347
O_ O_ 0.129136 0.748099 0.936503 -0.58347
O_ O_ 0.134087 0.755793 0.888544 -0.58347
O_ O_ 0.144544 0.601628 0.930443 -0.58347
O_ O_ 0.130497 0.607612 0.883542 -0.58347
O_ O_ 0.064114 0.671735 0.931076 -0.58347
O_ O_ 0.0580174 0.674756 0.884465 -0.58347
O_ O_ 0.0540563 0.695679 0.578236 -0.46727
O_ O_ 0.227313 0.685388 0.592478 -0.46727
O_ O_ 0.0146339 0.666031 0.726632 -0.46727
O_ O_ 0.191527 0.653495 0.738285 -0.46727
O_ O_ 0.27985 0.823422 0.680225 -0.58347
O_ O_ 0.286109 0.800733 0.635369 -0.58347
O_ O_ 0.343744 0.738993 0.681414 -0.58347
O_ O_ 0.365637 0.734915 0.636203 -0.58347
O_ O_ 0.367182 0.892697 0.672523 -0.58347
O_ O_ 0.357995 0.88396 0.625054 -0.58347
O_ O_ 0.430489 0.80733 0.679142 -0.58347
O_ O_ 0.43748 0.812603 0.63309 -0.58347
O_ O_ 0.428325 0.77993 0.828567 -0.46727
O_ O_ 0.26276 0.837571 0.837887 -0.46727
O_ O_ 0.466951 0.813403 0.976006 -0.46727
O_ O_ 0.302415 0.870432 0.984961 -0.46727
Zn Zn 0.617607 0.188372 0.382456 0.90689
Zn Zn 0.634987 0.180272 0.429215 0.90689
Zn Zn 0.880759 0.32039 0.132477 0.90689
Zn Zn 0.869757 0.324342 0.181503 0.90689
H_ H_ 0.797808 0.1832 0.442093 0.11455
H_ H_ 0.868607 0.18528 0.344386 0.11455
H_ H_ 0.773857 0.191203 0.351771 0.11455
H_ H_ 0.881655 0.186415 0.462295 0.11455
H_ H_ 0.975455 0.168656 0.454319 0.11455
H_ H_ 0.947333 0.193722 0.362336 0.11455
H_ H_ 0.660876 0.0165274 0.437987 0.11455
H_ H_ 0.605311 0.436874 0.34407 0.11455
H_ H_ 0.585589 0.0256141 0.357304 0.11455
H_ H_ 0.646423 0.437145 0.459818 0.11455
H_ H_ 0.640644 0.343134 0.456819 0.11455
H_ H_ 0.600798 0.352867 0.367875 0.11455
H_ H_ 0.591976 0.0997533 0.468561 0.11455
H_ H_ 0.559503 0.0903114 0.0145068 0.11455
H_ H_ 0.607068 0.129477 0.0556933 0.11455
H_ H_ 0.696712 0.245374 0.476216 0.11455
H_ H_ 0.719051 0.309808 0.0139428 0.11455
H_ H_ 0.704949 0.284982 0.0609021 0.11455
H_ H_ 0.508641 0.21335 0.119853 0.11455
H_ H_ 0.492518 0.202708 0.169459 0.11455
H_ H_ 0.754112 0.183838 0.142149 0.11455
H_ H_ 0.743136 0.182514 0.195066 0.11455
H_ H_ 0.5511 0.103406 0.248941 0.11455
H_ H_ 0.541579 0.0709129 0.299674 0.11455
H_ H_ 0.557329 0.132022 0.337973 0.11455
H_ H_ 0.629263 0.269507 0.260622 0.11455
H_ H_ 0.673163 0.307545 0.303267 0.11455
H_ H_ 0.664323 0.27068 0.347905 0.11455
H_ H_ 0.701786 0.319898 0.19548 0.11455
H_ H_ 0.6371 0.332268 0.0966822 0.11455
H_ H_ 0.729703 0.331783 0.105621 0.11455
H_ H_ 0.614448 0.322867 0.21441 0.11455
H_ H_ 0.526444 0.310711 0.204002 0.11455
H_ H_ 0.550422 0.34185 0.112912 0.11455
H_ H_ 0.889593 0.490701 0.192711 0.11455
H_ H_ 0.893607 0.0652464 0.0942287 0.11455
H_ H_ 0.825816 0.478234 0.109356 0.11455
H_ H_ 0.850903 0.0754325 0.211263 0.11455
H_ H_ 0.85485 0.163172 0.20569 0.11455
H_ H_ 0.896624 0.150202 0.116093 0.11455
H_ H_ 0.931608 0.39325 0.215542 0.11455
H_ H_ 0.937692 0.428547 0.265411 0.11455
H_ H_ 0.885649 0.391603 0.30455 0.11455
H_ H_ 0.823473 0.252739 0.225495 0.11455
H_ H_ 0.762019 0.226773 0.260506 0.11455
H_ H_ 0.789574 0.239433 0.314368 0.11455
H_ H_ 0.981439 0.313169 0.369101 0.11455
H_ H_ -0.0008040000000000269 0.312292 0.422712 0.11455
H_ H_ 0.734874 0.311718 0.38758 0.11455
H_ H_ 0.745755 0.312472 0.442943 0.11455
H_ H_ 0.932328 0.40462 0.499113 0.11455
H_ H_ 0.964309 0.441429 0.0471805 0.11455
H_ H_ 0.944839 0.385808 0.0875176 0.11455
H_ H_ 0.851081 0.262541 0.00827889 0.11455
H_ H_ 0.806076 0.220702 0.0481767 0.11455
H_ H_ 0.81423 0.255327 0.0984024 0.11455
C_ C_ 0.725092 0.182573 0.402675 0.68181
C_ C_ 0.779579 0.192366 0.397578 -0.05681
C_ C_ 0.812282 0.192572 0.420969 -0.08735
C_ C_ 0.864644 0.189793 0.416468 -0.05681
C_ C_ 0.884569 0.186683 0.38834 -0.05681
C_ C_ 0.852132 0.19119 0.365028 -0.08735
C_ C_ 0.799182 0.191564 0.369465 -0.08735
C_ C_ 0.897443 0.179843 0.440788 -0.08735
C_ C_ 0.948961 0.175298 0.435676 -0.08735
C_ C_ 0.970925 0.182678 0.408117 -0.05681
C_ C_ 0.936801 0.190391 0.384661 -0.08735
C_ C_ 0.622289 0.285253 0.410597 0.68181
C_ C_ 0.629792 0.0849118 0.399355 0.68181
C_ C_ 0.631751 0.0284462 0.395755 -0.05681
C_ C_ 0.636508 0.500194 0.416805 -0.08735
C_ C_ 0.6328 0.447666 0.415238 -0.05681
C_ C_ 0.617048 0.422916 0.388874 -0.05681
C_ C_ 0.607592 0.453349 0.364682 -0.08735
C_ C_ 0.611589 0.506615 0.366691 -0.08735
C_ C_ 0.632043 0.419343 0.440567 -0.08735
C_ C_ 0.628808 0.365422 0.438459 -0.08735
C_ C_ 0.616984 0.340127 0.413227 -0.05681
C_ C_ 0.609852 0.371054 0.388363 -0.08735
C_ C_ 0.527965 0.181722 0.410022 0.68181
C_ C_ 0.612012 0.120081 0.484283 0.1947
C_ C_ 0.586314 0.120893 0.0111412 -0.08735
C_ C_ 0.608632 0.146603 0.0339764 -0.08735
C_ C_ 0.640616 0.18789 0.0293464 -0.05681
C_ C_ 0.657576 0.196427 1.000523627 0.18498
C_ C_ 0.674181 0.242007 0.496478 -0.08735
C_ C_ 0.702005 0.271897 0.0174804 -0.08735
C_ C_ 0.687514 0.261451 0.0449654 -0.08735
C_ C_ 0.657449 0.220819 0.0525886 0.18498
C_ C_ 0.686883 0.19628 0.101144 0.44287
C_ C_ 0.600508 0.214135 0.0938603 0.44287
C_ C_ 0.588572 0.205807 0.122677 -0.05681
C_ C_ 0.539265 0.202786 0.133639 -0.08735
C_ C_ 0.530093 0.201808 0.162988 -0.08735
C_ C_ 0.569276 0.197131 0.183157 -0.05681
C_ C_ 0.619352 0.195483 0.172235 -0.05681
C_ C_ 0.628648 0.197734 0.142194 -0.05681
C_ C_ 0.677319 0.191549 0.131568 -0.05681
C_ C_ 0.716845 0.181495 0.150234 -0.08735
C_ C_ 0.710011 0.180668 0.180464 -0.08735
C_ C_ 0.659435 0.183632 0.1908 -0.05681
C_ C_ 0.647625 0.177319 0.219923 0.44287
C_ C_ 0.559048 0.195196 0.212702 0.44287
C_ C_ 0.588172 0.170941 0.260328 0.18498
C_ C_ 0.566367 0.12314 0.267305 -0.08735
C_ C_ 0.555315 0.109036 0.294834 -0.08735
C_ C_ 0.570917 0.139682 0.31739 -0.08735
C_ C_ 0.601642 0.181729 0.313023 0.18498
C_ C_ 0.609259 0.200065 0.284245 -0.05681
C_ C_ 0.633367 0.247 0.279885 -0.08735
C_ C_ 0.651085 0.270906 0.304345 -0.08735
C_ C_ 0.645137 0.251702 0.330926 0.1947
C_ C_ 0.778001 0.316154 0.157687 0.68181
C_ C_ 0.723255 0.323887 0.151875 -0.05681
C_ C_ 0.689508 0.325628 0.174514 -0.08735
C_ C_ 0.636588 0.330116 0.169121 -0.05681
C_ C_ 0.616457 0.333026 0.140353 -0.05681
C_ C_ 0.651462 0.332896 0.118589 -0.08735
C_ C_ 0.703761 0.328406 0.12411 -0.08735
C_ C_ 0.601439 0.326336 0.191064 -0.08735
C_ C_ 0.549142 0.327169 0.186358 -0.08735
C_ C_ 0.530193 0.332916 0.158803 -0.05681
C_ C_ 0.565098 0.335712 0.135054 -0.08735
C_ C_ 0.879077 0.222647 0.158077 0.68181
C_ C_ 0.870226 0.421225 0.152764 0.68181
C_ C_ 0.862925 0.476787 0.150655 -0.05681
C_ C_ 0.864742 0.00599383 0.17113 -0.08735
C_ C_ 0.865242 0.0599501 0.166415 -0.05681
C_ C_ 0.879317 0.0798577 0.13979 -0.05681
C_ C_ 0.879552 0.0507365 0.114944 -0.08735
C_ C_ 0.842279 0.500804 0.125627 -0.08735
C_ C_ 0.858887 0.0907644 0.189642 -0.08735
C_ C_ 0.860213 0.144327 0.185738 -0.08735
C_ C_ 0.873854 0.166684 0.159806 -0.05681
C_ C_ 0.885551 0.133793 0.136432 -0.08735
C_ C_ 0.973607 0.331658 0.154969 0.68181
C_ C_ 0.911805 0.377558 0.233496 0.1947
C_ C_ 0.916676 0.39469 0.261538 -0.08735
C_ C_ 0.888407 0.373152 0.283641 -0.08735
C_ C_ 0.860413 0.328533 0.279169 -0.05681
C_ C_ 0.856764 0.311157 0.250555 0.18498
C_ C_ 0.822855 0.271653 0.245491 -0.08735
C_ C_ 0.795437 0.248721 0.266696 -0.08735
C_ C_ 0.805754 0.260254 0.296013 -0.08735
C_ C_ 0.836406 0.302638 0.302475 0.18498
C_ C_ 0.806575 0.328398 0.350148 0.44287
C_ C_ 0.892704 0.311649 0.3431 0.44287
C_ C_ 0.902126 0.31338 0.373152 -0.05681
C_ C_ 0.950762 0.314263 0.384912 -0.08735
C_ C_ 0.960616 0.313975 0.415395 -0.08735
C_ C_ 0.918032 0.315245 0.433873 -0.05681
C_ C_ 0.868315 0.316057 0.421491 -0.05681
C_ C_ 0.862121 0.318606 0.391836 -0.05681
C_ C_ 0.81239 0.326318 0.380409 -0.05681
C_ C_ 0.769956 0.322315 0.398357 -0.08735
C_ C_ 0.776422 0.322276 0.427938 -0.08735
C_ C_ 0.825774 0.321692 0.439586 -0.05681
C_ C_ 0.834092 0.323752 0.469234 0.44287
C_ C_ 0.923135 0.318244 0.463257 0.44287
C_ C_ 0.89916 0.352865 0.0106869 0.18498
C_ C_ 0.929496 0.393193 0.0166231 -0.08735
C_ C_ 0.942224 0.407628 0.0444354 -0.08735
C_ C_ 0.925738 0.379943 0.0675084 -0.08735
C_ C_ 0.895018 0.337668 0.0630793 0.18498
C_ C_ 0.881681 0.322612 0.0338733 -0.05681
C_ C_ 0.853605 0.277149 0.0295523 -0.08735
C_ C_ 0.833192 0.251293 0.0532887 -0.08735
C_ C_ 0.839148 0.271407 0.0803731 0.1947
N_ N_ 0.633007 0.164904 0.478155 -0.29468
N_ N_ 0.648506 0.20864 0.0832386 -0.17154
N_ N_ 0.597848 0.181988 0.230532 -0.17154
N_ N_ 0.621794 0.206995 0.335354 -0.29468
N_ N_ 0.879304 0.338196 0.228817 -0.29468
N_ N_ 0.845526 0.314648 0.33211 -0.17154
N_ N_ 0.881534 0.325871 0.480108 -0.17154
N_ N_ 0.874595 0.30908 0.0852987 -0.29468
O_ O_ 0.709103 0.176876 0.428937 -0.58347
O_ O_ 0.694396 0.195941 0.384028 -0.58347
O_ O_ 0.634745 0.257249 0.43229 -0.58347
O_ O_ 0.609479 0.265053 0.386921 -0.58347
O_ O_ 0.634615 0.106666 0.422802 -0.58347
O_ O_ 0.622477 0.110859 0.37726 -0.58347
O_ O_ 0.559586 0.179466 0.430306 -0.58347
O_ O_ 0.543806 0.184261 0.384442 -0.58347
O_ O_ 0.566077 0.233656 0.0761657 -0.46727
O_ O_ 0.731905 0.191081 0.0908668 -0.46727
O_ O_ 0.513263 0.197603 0.222467 -0.46727
O_ O_ 0.682528 0.15797 0.237418 -0.46727
O_ O_ 0.794526 0.320593 0.183145 -0.58347
O_ O_ 0.808515 0.320558 0.137153 -0.58347
O_ O_ 0.875928 0.248195 0.181039 -0.58347
O_ O_ 0.877119 0.244824 0.133835 -0.58347
O_ O_ 0.861804 0.399375 0.176356 -0.58347
O_ O_ 0.884882 0.395107 0.130485 -0.58347
O_ O_ 0.94597 0.331259 0.177236 -0.58347
O_ O_ 0.952573 0.323856 0.131128 -0.58347
O_ O_ 0.930856 0.303727 0.326154 -0.46727
O_ O_ 0.760613 0.333479 0.33938 -0.46727
O_ O_ 0.968141 0.312402 0.475751 -0.46727
O_ O_ 0.795837 0.333755 0.486517 -0.46727
Zn Zn 0.636418 0.178764 0.883666 0.90689
Zn Zn 0.646328 0.174364 0.931349 0.90689
Zn Zn 0.873521 0.309172 0.632117 0.90689
Zn Zn 0.865474 0.317511 0.681242 0.90689
H_ H_ 0.814692 0.18037 0.946771 0.11455
H_ H_ 0.875333 0.149731 0.849588 0.11455
H_ H_ 0.787029 0.159359 0.859035 0.11455
H_ H_ 0.901499 0.175409 0.96578 0.11455
H_ H_ 0.992558 0.165094 0.957689 0.11455
H_ H_ 0.968232 0.165649 0.866257 0.11455
H_ H_ 0.640161 0.00675976 0.945801 0.11455
H_ H_ 0.673503 0.433514 0.851316 0.11455
H_ H_ 0.646598 0.025548 0.85412 0.11455
H_ H_ 0.631608 0.427175 0.965587 0.11455
H_ H_ 0.636496 0.335029 0.960327 0.11455
H_ H_ 0.641841 0.35025 0.869111 0.11455
H_ H_ 0.574739 0.121736 0.966854 0.11455
H_ H_ 0.592524 0.0668469 0.516843 0.11455
H_ H_ 0.613989 0.114642 0.555327 0.11455
H_ H_ 0.703244 0.245163 0.97496 0.11455
H_ H_ 0.713682 0.30503 0.51448 0.11455
H_ H_ 0.697815 0.279309 0.563045 0.11455
H_ H_ 0.514608 0.202554 0.626421 0.11455
H_ H_ 0.504705 0.187687 0.676614 0.11455
H_ H_ 0.766328 0.165199 0.63669 0.11455
H_ H_ 0.760186 0.163239 0.688603 0.11455
H_ H_ 0.586338 0.0778096 0.752069 0.11455
H_ H_ 0.561834 0.0594525 0.801746 0.11455
H_ H_ 0.59517 0.11185 0.839647 0.11455
H_ H_ 0.680093 0.240842 0.75946 0.11455
H_ H_ 0.702431 0.290302 0.801253 0.11455
H_ H_ 0.68827 0.258959 0.848352 0.11455
H_ H_ 0.693478 0.315465 0.702882 0.11455
H_ H_ 0.629912 0.325598 0.60407 0.11455
H_ H_ 0.719602 0.31063 0.611571 0.11455
H_ H_ 0.605807 0.306188 0.720473 0.11455
H_ H_ 0.518393 0.308403 0.710534 0.11455
H_ H_ 0.544534 0.320365 0.618974 0.11455
H_ H_ 0.870974 0.482754 0.693239 0.11455
H_ H_ 0.876947 0.0584051 0.598812 0.11455
H_ H_ 0.841983 0.472282 0.602414 0.11455
H_ H_ 0.849755 0.0663942 0.714012 0.11455
H_ H_ 0.856347 0.160185 0.710431 0.11455
H_ H_ 0.879228 0.145462 0.619474 0.11455
H_ H_ 0.927873 0.384275 0.717494 0.11455
H_ H_ 0.924252 0.421864 0.766358 0.11455
H_ H_ 0.88319 0.380362 0.806748 0.11455
H_ H_ 0.808526 0.244504 0.72737 0.11455
H_ H_ 0.784386 0.190098 0.768036 0.11455
H_ H_ 0.818364 0.209713 0.814771 0.11455
H_ H_ 0.983515 0.283321 0.87251 0.11455
H_ H_ -0.0027840000000000087 0.293921 0.926084 0.11455
H_ H_ 0.745148 0.363585 0.888985 0.11455
H_ H_ 0.762328 0.3837 0.939041 0.11455
H_ H_ 0.94549 0.410856 0.998549 0.11455
H_ H_ 0.965574 0.419597 0.54503 0.11455
H_ H_ 0.92772 0.377119 0.58779 0.11455
H_ H_ 0.846872 0.240926 0.507126 0.11455
H_ H_ 0.819167 0.194056 0.548947 0.11455
H_ H_ 0.835251 0.222483 0.598044 0.11455
C_ C_ 0.738608 0.179413 0.909685 0.68181
C_ C_ 0.795325 0.174744 0.903276 -0.05681
C_ C_ 0.82975 0.174381 0.925885 -0.08735
C_ C_ 0.881192 0.169695 0.921607 -0.05681
C_ C_ 0.899157 0.163613 0.89272 -0.05681
C_ C_ 0.864297 0.159561 0.870377 -0.08735
C_ C_ 0.811968 0.160006 0.876029 -0.08735
C_ C_ 0.912851 0.16853 0.944246 -0.08735
C_ C_ 0.964924 0.167752 0.939061 -0.08735
C_ C_ 0.986097 0.169571 0.911245 -0.05681
C_ C_ 0.951984 0.164686 0.887871 -0.08735
C_ C_ 0.637572 0.276198 0.91179 0.68181
C_ C_ 0.647822 0.079513 0.904061 0.68181
C_ C_ 0.647151 0.0232633 0.900783 -0.05681
C_ C_ 0.645812 0.492959 0.923938 -0.08735
C_ C_ 0.64331 0.440292 0.921297 -0.05681
C_ C_ 0.65166 0.417493 0.894202 -0.05681
C_ C_ 0.664174 0.449225 0.871887 -0.08735
C_ C_ 0.658931 0.50127 0.872618 -0.08735
C_ C_ 0.628613 0.410316 0.944015 -0.08735
C_ C_ 0.631718 0.35708 0.9413 -0.08735
C_ C_ 0.636555 0.333455 0.914791 -0.05681
C_ C_ 0.638967 0.365897 0.89052 -0.08735
C_ C_ 0.544256 0.16392 0.906005 0.68181
C_ C_ 0.595969 0.136827 0.983762 0.1947
C_ C_ 0.615767 0.0967388 0.511976 -0.08735
C_ C_ 0.625017 0.129359 0.534296 -0.08735
C_ C_ 0.644499 0.177921 0.529753 -0.05681
C_ C_ 0.648651 0.195627 0.500483 0.18498
C_ C_ 0.690121 0.239168 0.995287 -0.08735
C_ C_ 0.69297 0.270582 0.518906 -0.08735
C_ C_ 0.681089 0.257513 0.546691 -0.08735
C_ C_ 0.658015 0.210341 0.553568 0.18498
C_ C_ 0.693973 0.184502 0.599843 0.44287
C_ C_ 0.604223 0.195196 0.595969 0.44287
C_ C_ 0.597449 0.195358 0.62567 -0.05681
C_ C_ 0.549383 0.195358 0.638782 -0.08735
C_ C_ 0.544535 0.187625 0.667941 -0.08735
C_ C_ 0.588289 0.174644 0.685181 -0.05681
C_ C_ 0.635997 0.176718 0.672177 -0.05681
C_ C_ 0.640315 0.185837 0.64272 -0.05681
C_ C_ 0.687719 0.181433 0.629397 -0.05681
C_ C_ 0.731929 0.173044 0.646377 -0.08735
C_ C_ 0.727514 0.170799 0.675741 -0.08735
C_ C_ 0.679924 0.170906 0.689358 -0.05681
C_ C_ 0.674608 0.162363 0.719087 0.44287
C_ C_ 0.584993 0.170726 0.715019 0.44287
C_ C_ 0.623142 0.151806 0.761518 0.18498
C_ C_ 0.599726 0.104218 0.768535 -0.08735
C_ C_ 0.585044 0.0925623 0.79638 -0.08735
C_ C_ 0.604883 0.120821 0.818609 -0.08735
C_ C_ 0.628174 0.167155 0.813972 0.18498
C_ C_ 0.634761 0.18434 0.784316 -0.05681
C_ C_ 0.664607 0.228353 0.779707 -0.08735
C_ C_ 0.685302 0.251947 0.804704 -0.08735
C_ C_ 0.673299 0.237357 0.831249 0.1947
C_ C_ 0.770813 0.303563 0.659812 0.68181
C_ C_ 0.713335 0.304892 0.657505 -0.05681
C_ C_ 0.679496 0.310695 0.681078 -0.08735
C_ C_ 0.628419 0.316804 0.675758 -0.05681
C_ C_ 0.608731 0.320713 0.647806 -0.05681
C_ C_ 0.642396 0.323877 0.625869 -0.08735
C_ C_ 0.693291 0.309365 0.629264 -0.08735
C_ C_ 0.592679 0.31221 0.698522 -0.08735
C_ C_ 0.540821 0.312808 0.692751 -0.08735
C_ C_ 0.521602 0.312148 0.664692 -0.05681
C_ C_ 0.556323 0.316592 0.641467 -0.08735
C_ C_ 0.876671 0.215877 0.662993 0.68181
C_ C_ 0.862839 0.412915 0.650206 0.68181
C_ C_ 0.861445 0.469634 0.647341 -0.05681
C_ C_ 0.848311 -0.001762999999999959 0.671999 -0.08735
C_ C_ 0.857101 0.0519004 0.670186 -0.05681
C_ C_ 0.864781 0.0735114 0.642572 -0.05681
C_ C_ 0.868141 0.0414672 0.619376 -0.08735
C_ C_ 0.854211 0.492994 0.620566 -0.08735
C_ C_ 0.851649 0.0831816 0.693677 -0.08735
C_ C_ 0.859157 0.135711 0.691425 -0.08735
C_ C_ 0.8703 0.158746 0.665046 -0.05681
C_ C_ 0.867047 0.1286 0.640612 -0.08735
C_ C_ 0.965932 0.321034 0.655832 0.68181
C_ C_ 0.900981 0.368838 0.734149 0.1947
C_ C_ 0.903327 0.387193 0.762338 -0.08735
C_ C_ 0.877318 0.365135 0.784951 -0.08735
C_ C_ 0.853198 0.318575 0.781389 -0.05681
C_ C_ 0.845983 0.301544 0.75203 0.18498
C_ C_ 0.818381 0.255891 0.748188 -0.08735
C_ C_ 0.798467 0.228394 0.771799 -0.08735
C_ C_ 0.814605 0.240755 0.79968 -0.08735
C_ C_ 0.83976 0.286757 0.804841 0.18498
C_ C_ 0.811312 0.318366 0.851311 0.44287
C_ C_ 0.895668 0.294012 0.845214 0.44287
C_ C_ 0.904383 0.30066 0.875127 -0.05681
C_ C_ 0.952239 0.287674 0.886928 -0.08735
C_ C_ 0.960146 0.298248 0.916802 -0.08735
C_ C_ 0.921258 0.311392 0.934842 -0.05681
C_ C_ 0.873756 0.322286 0.923145 -0.05681
C_ C_ 0.865549 0.319587 0.892903 -0.05681
C_ C_ 0.818466 0.331362 0.881239 -0.05681
C_ C_ 0.781887 0.35188 0.898311 -0.08735
C_ C_ 0.789913 0.359525 0.927184 -0.08735
C_ C_ 0.835615 0.342402 0.940797 -0.05681
C_ C_ 0.845084 0.349375 0.969683 0.44287
C_ C_ 0.926582 0.313395 0.964839 0.44287
C_ C_ 0.890765 0.338481 0.510317 0.18498
C_ C_ 0.91577 0.383828 0.516342 -0.08735
C_ C_ 0.936073 0.393408 0.543068 -0.08735
C_ C_ 0.916757 0.364849 0.566526 -0.08735
C_ C_ 0.889896 0.319677 0.562432 0.18498
C_ C_ 0.879018 0.304312 0.533218 -0.05681
C_ C_ 0.855285 0.257006 0.528596 -0.08735
C_ C_ 0.841551 0.228047 0.55204 -0.08735
C_ C_ 0.845508 0.247294 0.580138 0.1947
N_ N_ 0.633056 0.17193 0.979734 -0.29468
N_ N_ 0.652138 0.194402 0.583339 -0.17154
N_ N_ 0.628049 0.165617 0.731516 -0.17154
N_ N_ 0.640005 0.197351 0.836233 -0.29468
N_ N_ 0.866213 0.33066 0.7293 -0.29468
N_ N_ 0.848261 0.300236 0.834659 -0.17154
N_ N_ 0.891638 0.338877 0.981797 -0.17154
N_ N_ 0.869174 0.293266 0.584197 -0.29468
O_ O_ 0.719262 0.165643 0.93346 -0.58347
O_ O_ 0.708809 0.192237 0.889469 -0.58347
O_ O_ 0.649682 0.249417 0.933604 -0.58347
O_ O_ 0.627088 0.255335 0.887952 -0.58347
O_ O_ 0.639617 0.0999865 0.927713 -0.58347
O_ O_ 0.654093 0.10508 0.882331 -0.58347
O_ O_ 0.571594 0.177049 0.927523 -0.58347
O_ O_ 0.563643 0.163064 0.880676 -0.58347
O_ O_ 0.564593 0.197646 0.579459 -0.46727
O_ O_ 0.738469 0.177678 0.586943 -0.46727
O_ O_ 0.539362 0.166718 0.727377 -0.46727
O_ O_ 0.713041 0.152494 0.735213 -0.46727
O_ O_ 0.793686 0.311216 0.683352 -0.58347
O_ O_ 0.795829 0.294626 0.636492 -0.58347
O_ O_ 0.870217 0.243052 0.68559 -0.58347
O_ O_ 0.884138 0.235202 0.639674 -0.58347
O_ O_ 0.866093 0.393165 0.674873 -0.58347
O_ O_ 0.86402 0.384249 0.628194 -0.58347
O_ O_ 0.939925 0.314438 0.678825 -0.58347
O_ O_ 0.943724 0.326217 0.631855 -0.58347
O_ O_ 0.927922 0.265827 0.829928 -0.46727
O_ O_ 0.767576 0.328516 0.840057 -0.46727
O_ O_ 0.972313 0.307883 0.975857 -0.46727
O_ O_ 0.811312 0.372326 0.985661 -0.46727
Zn Zn 0.622335 0.689438 0.37857 0.90689
Zn Zn 0.627702 0.680762 0.426573 0.90689
Zn Zn 0.875148 0.817234 0.130807 0.90689
Zn Zn 0.868997 0.823488 0.180338 0.90689
H_ H_ 0.794759 0.685708 0.443625 0.11455
H_ H_ 0.871317 0.652743 0.348286 0.11455
H_ H_ 0.779193 0.655374 0.353768 0.11455
H_ H_ 0.87646 0.691493 0.463826 0.11455
H_ H_ 0.96917 0.698958 0.457086 0.11455
H_ H_ 0.957532 0.645742 0.370534 0.11455
H_ H_ 0.650542 0.517895 0.436449 0.11455
H_ H_ 0.582913 0.936578 0.354314 0.11455
H_ H_ 0.598943 0.530956 0.348356 0.11455
H_ H_ 0.65724 0.929456 0.463031 0.11455
H_ H_ 0.642003 0.838005 0.459409 0.11455
H_ H_ 0.617037 0.852989 0.369138 0.11455
H_ H_ 0.567118 0.605259 0.463181 0.11455
H_ H_ 0.553527 0.587009 0.0084312 0.11455
H_ H_ 0.588135 0.62505 0.0481432 0.11455
H_ H_ 0.701245 0.72667 0.469778 0.11455
H_ H_ 0.713779 0.799283 0.00379939 0.11455
H_ H_ 0.696655 0.777527 0.0555167 0.11455
H_ H_ 0.519209 0.717843 0.119544 0.11455
H_ H_ 0.509321 0.692963 0.169969 0.11455
H_ H_ 0.771039 0.674699 0.130504 0.11455
H_ H_ 0.766087 0.672886 0.182402 0.11455
H_ H_ 0.587477 0.588693 0.243631 0.11455
H_ H_ 0.560793 0.566277 0.292236 0.11455
H_ H_ 0.580331 0.623792 0.333267 0.11455
H_ H_ 0.6709 0.756994 0.254531 0.11455
H_ H_ 0.688272 0.806769 0.298684 0.11455
H_ H_ 0.665641 0.777151 0.344576 0.11455
H_ H_ 0.70207 0.81185 0.192765 0.11455
H_ H_ 0.631345 0.827109 0.0946768 0.11455
H_ H_ 0.720724 0.820438 0.103514 0.11455
H_ H_ 0.615571 0.815426 0.212757 0.11455
H_ H_ 0.522558 0.815782 0.204218 0.11455
H_ H_ 0.549763 0.841588 0.113985 0.11455
H_ H_ 0.871922 0.988655 0.192563 0.11455
H_ H_ 0.831346 0.571788 0.102971 0.11455
H_ H_ 0.865164 0.975676 0.101162 0.11455
H_ H_ 0.917242 0.577155 0.209499 0.11455
H_ H_ 0.919888 0.668343 0.20449 0.11455
H_ H_ 0.860803 0.653184 0.119789 0.11455
H_ H_ 0.917781 0.904816 0.218078 0.11455
H_ H_ 0.928242 0.928452 0.269533 0.11455
H_ H_ 0.88688 0.875929 0.309757 0.11455
H_ H_ 0.805011 0.762368 0.220275 0.11455
H_ H_ 0.793964 0.69563 0.257416 0.11455
H_ H_ 0.809764 0.715547 0.308702 0.11455
H_ H_ 0.989726 0.786953 0.372476 0.11455
H_ H_ 0.00048000000000003595 0.794473 0.425568 0.11455
H_ H_ 0.737195 0.808826 0.390157 0.11455
H_ H_ 0.750372 0.808262 0.439561 0.11455
H_ H_ 0.940413 0.900096 0.498245 0.11455
H_ H_ 0.934365 0.947612 0.0413973 0.11455
H_ H_ 0.919342 0.890071 0.08444 0.11455
H_ H_ 0.83591 0.75833 0.00791913 0.11455
H_ H_ 0.819941 0.702765 0.0501817 0.11455
H_ H_ 0.834633 0.735892 0.0982205 0.11455
C_ C_ 0.723339 0.68838 0.400058 0.68181
C_ C_ 0.779025 0.682034 0.397809 -0.05681
C_ C_ 0.80927 0.675737 0.422282 -0.08735
C_ C_ 0.862394 0.669187 0.42042 -0.05681
C_ C_ 0.886113 0.660049 0.393837 -0.05681
C_ C_ 0.853209 0.654999 0.369339 -0.08735
C_ C_ 0.801156 0.667559 0.371793 -0.08735
C_ C_ 0.893402 0.678038 0.444103 -0.08735
C_ C_ 0.946479 0.679331 0.441446 -0.08735
C_ C_ 0.969947 0.665664 0.414931 -0.05681
C_ C_ 0.938276 0.656124 0.391432 -0.08735
C_ C_ 0.628539 0.781469 0.411625 0.68181
C_ C_ 0.626383 0.588024 0.39415 0.68181
C_ C_ 0.62756 0.530679 0.392183 -0.05681
C_ C_ 0.646618 0.99553 0.418835 -0.08735
C_ C_ 0.638928 0.943737 0.417896 -0.05681
C_ C_ 0.624823 0.921807 0.391668 -0.05681
C_ C_ 0.608386 0.952777 0.369397 -0.08735
C_ C_ 0.612395 1.0046125 0.370775 -0.08735
C_ C_ 0.65306 0.914031 0.441591 -0.08735
C_ C_ 0.641273 0.861397 0.440386 -0.08735
C_ C_ 0.628046 0.838617 0.41415 -0.05681
C_ C_ 0.624465 0.869384 0.3894 -0.08735
C_ C_ 0.525226 0.683339 0.408868 0.68181
C_ C_ 0.59037 0.621349 0.47938 0.1947
C_ C_ 0.582506 0.611904 0.0047453 -0.08735
C_ C_ 0.601137 0.638747 0.0281017 -0.08735
C_ C_ 0.63825 0.678782 0.0242695 -0.05681
C_ C_ 0.651604 0.690044 0.994856 0.18498
C_ C_ 0.685696 0.721506 0.490502 -0.08735
C_ C_ 0.696999 0.765384 0.0101916 -0.08735
C_ C_ 0.684866 0.75521 0.0384835 -0.08735
C_ C_ 0.656164 0.712381 0.0458552 0.18498
C_ C_ 0.693768 0.68973 0.0913456 0.44287
C_ C_ 0.605124 0.707321 0.0890055 0.44287
C_ C_ 0.601239 0.705012 0.119279 -0.05681
C_ C_ 0.553086 0.703823 0.132363 -0.08735
C_ C_ 0.548297 0.690354 0.160465 -0.08735
C_ C_ 0.591739 0.687602 0.178422 -0.05681
C_ C_ 0.639726 0.682551 0.165495 -0.05681
C_ C_ 0.643632 0.691057 0.135139 -0.05681
C_ C_ 0.692458 0.689397 0.121679 -0.05681
C_ C_ 0.733648 0.678273 0.139404 -0.08735
C_ C_ 0.731206 0.679111 0.169479 -0.08735
C_ C_ 0.682953 0.675441 0.182702 -0.05681
C_ C_ 0.679047 0.671356 0.212175 0.44287
C_ C_ 0.588541 0.686127 0.209456 0.44287
C_ C_ 0.62486 0.659461 0.255929 0.18498
C_ C_ 0.599042 0.612453 0.262103 -0.08735
C_ C_ 0.580841 0.601 0.288913 -0.08735
C_ C_ 0.589785 0.634988 0.311647 -0.08735
C_ C_ 0.616141 0.681505 0.307668 0.18498
C_ C_ 0.63119 0.695833 0.279139 -0.05681
C_ C_ 0.660477 0.740947 0.276055 -0.08735
C_ C_ 0.670238 0.771852 0.300106 -0.08735
C_ C_ 0.656013 0.753174 0.32691 0.1947
C_ C_ 0.776475 0.819469 0.153271 0.68181
C_ C_ 0.720048 0.818442 0.1489 -0.05681
C_ C_ 0.686591 0.816449 0.171913 -0.08735
C_ C_ 0.634309 0.816779 0.168282 -0.05681
C_ C_ 0.613006 0.820543 0.139814 -0.05681
C_ C_ 0.646404 0.824794 0.11604 -0.08735
C_ C_ 0.699098 0.824054 0.121485 -0.08735
C_ C_ 0.600156 0.820796 0.190949 -0.08735
C_ C_ 0.546603 0.818621 0.185911 -0.08735
C_ C_ 0.52663 0.828496 0.15866 -0.05681
C_ C_ 0.562792 0.832263 0.13584 -0.08735
C_ C_ 0.885025 0.724563 0.159996 0.68181
C_ C_ 0.862993 0.918658 0.149483 0.68181
C_ C_ 0.862396 0.975701 0.146098 -0.05681
C_ C_ 0.879778 0.508226 0.172523 -0.08735
C_ C_ 0.883006 0.561908 0.169634 -0.05681
C_ C_ 0.867787 0.584299 0.142707 -0.05681
C_ C_ 0.847659 0.55467 0.12138 -0.08735
C_ C_ 0.870551 0.997531 0.118796 -0.08735
C_ C_ 0.901741 0.59299 0.190665 -0.08735
C_ C_ 0.901229 0.645178 0.188396 -0.08735
C_ C_ 0.889613 0.667567 0.162974 -0.05681
C_ C_ 0.878171 0.636228 0.13859 -0.08735
C_ C_ 0.969691 0.828015 0.158918 0.68181
C_ C_ 0.898554 0.882208 0.235342 0.1947
C_ C_ 0.904994 0.896257 0.263779 -0.08735
C_ C_ 0.884135 0.865162 0.285778 -0.08735
C_ C_ 0.85754 0.822049 0.279763 -0.05681
C_ C_ 0.846402 0.812823 0.249919 0.18498
C_ C_ 0.820205 0.768411 0.242505 -0.08735
C_ C_ 0.808526 0.732711 0.263362 -0.08735
C_ C_ 0.82043 0.74087 0.292538 -0.08735
C_ C_ 0.845868 0.783151 0.300718 0.18498
C_ C_ 0.811658 0.802025 0.348966 0.44287
C_ C_ 0.899106 0.784946 0.343869 0.44287
C_ C_ 0.908508 0.792252 0.37369 -0.05681
C_ C_ 0.957485 0.793362 0.386746 -0.08735
C_ C_ 0.96271 0.799177 0.416231 -0.08735
C_ C_ 0.919137 0.807402 0.433991 -0.05681
C_ C_ 0.871436 0.812668 0.422064 -0.05681
C_ C_ 0.865792 0.803957 0.391979 -0.05681
C_ C_ 0.817501 0.806494 0.378789 -0.05681
C_ C_ 0.775778 0.812585 0.39758 -0.08735
C_ C_ 0.782419 0.822769 0.427298 -0.08735
C_ C_ 0.829895 0.821203 0.439708 -0.05681
C_ C_ 0.837155 0.82908 0.469516 0.44287
C_ C_ 0.924794 0.81226 0.463576 0.44287
C_ C_ 0.881931 0.850175 0.00844709 0.18498
C_ C_ 0.906724 0.896021 0.0126643 -0.08735
C_ C_ 0.912847 0.913868 0.039661 -0.08735
C_ C_ 0.902064 0.882568 0.0634894 -0.08735
C_ C_ 0.883956 0.834076 0.0592631 0.18498
C_ C_ 0.870448 0.818035 0.0316179 -0.05681
C_ C_ 0.841435 0.7733 0.0282229 -0.08735
C_ C_ 0.834211 0.740706 0.0521583 -0.08735
C_ C_ 0.843077 0.760555 0.0792205 0.1947
N_ N_ 0.622727 0.66304 0.47395 -0.29468
N_ N_ 0.651405 0.698694 0.0760685 -0.17154
N_ N_ 0.631627 0.674979 0.225619 -0.17154
N_ N_ 0.628121 0.711033 0.331439 -0.29468
N_ N_ 0.871912 0.839699 0.228859 -0.29468
N_ N_ 0.853609 0.793395 0.331962 -0.17154
N_ N_ 0.884479 0.820836 0.481536 -0.17154
N_ N_ 0.874297 0.801759 0.082241 -0.29468
O_ O_ 0.700809 0.67388 0.421601 -0.58347
O_ O_ 0.698149 0.699639 0.377778 -0.58347
O_ O_ 0.62839 0.75457 0.433461 -0.58347
O_ O_ 0.619041 0.761896 0.387341 -0.58347
O_ O_ 0.619027 0.605696 0.418038 -0.58347
O_ O_ 0.632128 0.616335 0.373078 -0.58347
O_ O_ 0.554432 0.68203 0.430709 -0.58347
O_ O_ 0.546467 0.683231 0.384651 -0.58347
O_ O_ 0.56683 0.724192 0.0726552 -0.46727
O_ O_ 0.735421 0.681225 0.0780582 -0.46727
O_ O_ 0.543727 0.694983 0.222208 -0.46727
O_ O_ 0.720153 0.66214 0.226367 -0.46727
O_ O_ 0.795184 0.822945 0.178086 -0.58347
O_ O_ 0.804929 0.803967 0.133132 -0.58347
O_ O_ 0.866733 0.74937 0.180956 -0.58347
O_ O_ 0.896743 0.745745 0.136373 -0.58347
O_ O_ 0.86871 0.901317 0.174923 -0.58347
O_ O_ 0.857096 0.889878 0.128122 -0.58347
O_ O_ 0.943918 0.8239 0.181709 -0.58347
O_ O_ 0.948677 0.833962 0.134207 -0.58347
O_ O_ 0.935604 0.773372 0.327331 -0.46727
O_ O_ 0.768605 0.811034 0.336706 -0.46727
O_ O_ 0.969478 0.805682 0.475107 -0.46727
O_ O_ 0.798849 0.837982 0.485676 -0.46727
Zn Zn 0.631034 0.68172 0.8797 0.90689
Zn Zn 0.639102 0.674696 0.92578 0.90689
Zn Zn 0.861217 0.810676 0.634343 0.90689
Zn Zn 0.855195 0.816266 0.682033 0.90689
H_ H_ 0.809762 0.682504 0.949708 0.11455
H_ H_ 0.871628 0.640773 0.850462 0.11455
H_ H_ 0.783725 0.641734 0.859505 0.11455
H_ H_ 0.895645 0.685217 0.966915 0.11455
H_ H_ 0.983269 0.673745 0.961341 0.11455
H_ H_ 0.961764 0.671472 0.866889 0.11455
H_ H_ 0.649026 0.508604 0.945363 0.11455
H_ H_ 0.637126 0.928801 0.849353 0.11455
H_ H_ 0.656945 0.524018 0.852772 0.11455
H_ H_ 0.625322 0.92045 0.965301 0.11455
H_ H_ 0.623869 0.830603 0.960944 0.11455
H_ H_ 0.639352 0.848793 0.869711 0.11455
H_ H_ 0.566072 0.616601 0.960355 0.11455
H_ H_ 0.562517 0.570736 0.511708 0.11455
H_ H_ 0.599479 0.61201 0.551452 0.11455
H_ H_ 0.697973 0.736511 0.968052 0.11455
H_ H_ 0.731922 0.778328 0.510229 0.11455
H_ H_ 0.699972 0.762766 0.559284 0.11455
H_ H_ 0.51059 0.698943 0.619747 0.11455
H_ H_ 0.50584 0.700377 0.67281 0.11455
H_ H_ 0.768738 0.669542 0.636412 0.11455
H_ H_ 0.750244 0.652816 0.686909 0.11455
H_ H_ 0.568308 0.593424 0.745679 0.11455
H_ H_ 0.554585 0.567237 0.795558 0.11455
H_ H_ 0.582453 0.616567 0.836234 0.11455
H_ H_ 0.65853 0.750895 0.755579 0.11455
H_ H_ 0.701959 0.791596 0.798883 0.11455
H_ H_ 0.682757 0.760684 0.847957 0.11455
H_ H_ 0.686927 0.792084 0.690716 0.11455
H_ H_ 0.614547 0.840379 0.595688 0.11455
H_ H_ 0.708297 0.83883 0.603315 0.11455
H_ H_ 0.603051 0.800938 0.711809 0.11455
H_ H_ 0.510711 0.806207 0.706696 0.11455
H_ H_ 0.531696 0.824675 0.614308 0.11455
H_ H_ 0.834322 0.980517 0.692378 0.11455
H_ H_ 0.841659 0.562258 0.599837 0.11455
H_ H_ 0.87906 0.965169 0.602688 0.11455
H_ H_ 0.884736 0.565198 0.716367 0.11455
H_ H_ 0.876147 0.656854 0.712034 0.11455
H_ H_ 0.862952 0.650051 0.6207 0.11455
H_ H_ 0.908928 0.887436 0.718543 0.11455
H_ H_ 0.916595 0.920235 0.768948 0.11455
H_ H_ 0.873853 0.870458 0.807042 0.11455
H_ H_ 0.802161 0.739655 0.724843 0.11455
H_ H_ 0.775551 0.687129 0.765426 0.11455
H_ H_ 0.790638 0.713519 0.815261 0.11455
H_ H_ 0.973201 0.793392 0.869104 0.11455
H_ H_ 0.987446 0.803214 0.922067 0.11455
H_ H_ 0.733022 0.851334 0.882441 0.11455
H_ H_ 0.741187 0.858456 0.936111 0.11455
H_ H_ 0.912154 0.918146 0.992877 0.11455
H_ H_ 0.954066 0.931248 0.547456 0.11455
H_ H_ 0.934407 0.871893 0.587977 0.11455
H_ H_ 0.848892 0.744998 0.510251 0.11455
H_ H_ 0.810836 0.699634 0.552265 0.11455
H_ H_ 0.820878 0.736838 0.599083 0.11455
C_ C_ 0.732848 0.677739 0.907165 0.68181
C_ C_ 0.787748 0.670041 0.903449 -0.05681
C_ C_ 0.821102 0.677565 0.926959 -0.08735
C_ C_ 0.874759 0.673753 0.922502 -0.05681
C_ C_ 0.894143 0.662975 0.893957 -0.05681
C_ C_ 0.859252 0.656865 0.871566 -0.08735
C_ C_ 0.807165 0.65588 0.876451 -0.08735
C_ C_ 0.90777 0.674969 0.945766 -0.08735
C_ C_ 0.961748 0.672942 0.941667 -0.08735
C_ C_ 0.981036 0.673784 0.912348 -0.05681
C_ C_ 0.946739 0.669093 0.888893 -0.08735
C_ C_ 0.628787 0.775897 0.910118 0.68181
C_ C_ 0.643727 0.583125 0.900484 0.68181
C_ C_ 0.650884 0.526113 0.899642 -0.05681
C_ C_ 0.641928 -0.008395999999999959 0.925654 -0.08735
C_ C_ 0.638027 0.938171 0.921359 -0.05681
C_ C_ 0.63514 0.916093 0.894133 -0.05681
C_ C_ 0.636256 0.947257 0.870301 -0.08735
C_ C_ 0.642299 0.000849319 0.873368 -0.08735
C_ C_ 0.635165 0.905778 0.945494 -0.08735
C_ C_ 0.630705 0.853296 0.941778 -0.08735
C_ C_ 0.628235 0.831995 0.913612 -0.05681
C_ C_ 0.629556 0.864561 0.889947 -0.08735
C_ C_ 0.534893 0.678454 0.903337 0.68181
C_ C_ 0.591062 0.631043 0.977356 0.1947
C_ C_ 0.583187 0.605027 0.507424 -0.08735
C_ C_ 0.607504 0.628126 0.530245 -0.08735
C_ C_ 0.640458 0.667191 0.524967 -0.05681
C_ C_ 0.651049 0.682128 0.496004 0.18498
C_ C_ 0.68534 0.73122 0.989166 -0.08735
C_ C_ 0.702546 0.751216 0.51381 -0.08735
C_ C_ 0.684791 0.741907 0.541324 -0.08735
C_ C_ 0.656705 0.698963 0.547179 0.18498
C_ C_ 0.690184 0.676656 0.594805 0.44287
C_ C_ 0.600469 0.692557 0.589534 0.44287
C_ C_ 0.594489 0.691283 0.620062 -0.05681
C_ C_ 0.546612 0.698864 0.633176 -0.08735
C_ C_ 0.542176 0.69604 0.663571 -0.08735
C_ C_ 0.584362 0.691339 0.680832 -0.05681
C_ C_ 0.630871 0.679286 0.667077 -0.05681
C_ C_ 0.635278 0.680131 0.637171 -0.05681
C_ C_ 0.684256 0.677141 0.6246 -0.05681
C_ C_ 0.727605 0.672511 0.643816 -0.08735
C_ C_ 0.720073 0.665448 0.673264 -0.08735
C_ C_ 0.67186 0.667641 0.68504 -0.05681
C_ C_ 0.662424 0.656133 0.715275 0.44287
C_ C_ 0.582983 0.694434 0.71169 0.44287
C_ C_ 0.608029 0.662141 0.757449 0.18498
C_ C_ 0.581773 0.617612 0.762755 -0.08735
C_ C_ 0.579371 0.596988 0.790255 -0.08735
C_ C_ 0.594276 0.626232 0.813823 -0.08735
C_ C_ 0.623447 0.670188 0.809689 0.18498
C_ C_ 0.633674 0.686649 0.780969 -0.05681
C_ C_ 0.660548 0.733161 0.776667 -0.08735
C_ C_ 0.679522 0.758102 0.801055 -0.08735
C_ C_ 0.66963 0.740257 0.829668 0.1947
C_ C_ 0.760472 0.813065 0.651853 0.68181
C_ C_ 0.705171 0.818176 0.648305 -0.05681
C_ C_ 0.67183 0.810116 0.671417 -0.08735
C_ C_ 0.619898 0.815768 0.668328 -0.05681
C_ C_ 0.599871 0.822224 0.640954 -0.05681
C_ C_ 0.632803 0.834138 0.617652 -0.08735
C_ C_ 0.685731 0.828345 0.620955 -0.08735
C_ C_ 0.587457 0.812556 0.691976 -0.08735
C_ C_ 0.536138 0.813684 0.688853 -0.08735
C_ C_ 0.514602 0.817414 0.660952 -0.05681
C_ C_ 0.545837 0.822226 0.63705 -0.08735
C_ C_ 0.863763 0.714333 0.664421 0.68181
C_ C_ 0.857531 0.909723 0.650682 0.68181
C_ C_ 0.860702 0.967107 0.648792 -0.05681
C_ C_ 0.868352 0.500647 0.673082 -0.08735
C_ C_ 0.870886 0.552906 0.670655 -0.05681
C_ C_ 0.864038 0.575324 0.643395 -0.05681
C_ C_ 0.858409 0.545028 0.619081 -0.08735
C_ C_ 0.870695 0.98897 0.621959 -0.08735
C_ C_ 0.876483 0.583129 0.695718 -0.08735
C_ C_ 0.873303 0.636821 0.693262 -0.08735
C_ C_ 0.861953 0.65882 0.666334 -0.05681
C_ C_ 0.861102 0.629087 0.641494 -0.08735
C_ C_ 0.956089 0.814304 0.660806 0.68181
C_ C_ 0.884786 0.870018 0.734859 0.1947
C_ C_ 0.895045 0.885676 0.764006 -0.08735
C_ C_ 0.869245 0.859673 0.786001 -0.08735
C_ C_ 0.847542 0.811721 0.780006 -0.05681
C_ C_ 0.837209 0.797757 0.75128 0.18498
C_ C_ 0.810624 0.751976 0.746768 -0.08735
C_ C_ 0.79618 0.719292 0.769195 -0.08735
C_ C_ 0.804978 0.734295 0.796658 -0.08735
C_ C_ 0.831741 0.778916 0.802372 0.18498
C_ C_ 0.802139 0.819156 0.847306 0.44287
C_ C_ 0.885672 0.786172 0.84345 0.44287
C_ C_ 0.894462 0.800623 0.873048 -0.05681
C_ C_ 0.941712 0.797658 0.884115 -0.08735
C_ C_ 0.949602 0.798832 0.913713 -0.08735
C_ C_ 0.906647 0.809665 0.931752 -0.05681
C_ C_ 0.859931 0.825085 0.919054 -0.05681
C_ C_ 0.855765 0.821334 0.888563 -0.05681
C_ C_ 0.80844 0.828221 0.875949 -0.05681
C_ C_ 0.768462 0.846276 0.893164 -0.08735
C_ C_ 0.774516 0.852247 0.923521 -0.08735
C_ C_ 0.819722 0.838308 0.936923 -0.05681
C_ C_ 0.827538 0.846035 0.966646 0.44287
C_ C_ 0.91362 0.817662 0.962233 0.44287
C_ C_ 0.894193 0.839385 0.511302 0.18498
C_ C_ 0.926157 0.880296 0.51554 -0.08735
C_ C_ 0.937778 0.894277 0.543132 -0.08735
C_ C_ 0.922604 0.865796 0.567549 -0.08735
C_ C_ 0.884532 0.828696 0.563606 0.18498
C_ C_ 0.874909 0.810928 0.53492 -0.05681
C_ C_ 0.854347 0.761469 0.531624 -0.08735
C_ C_ 0.832605 0.736198 0.554782 -0.08735
C_ C_ 0.838326 0.756439 0.582579 0.1947
N_ N_ 0.628675 0.665458 0.972238 -0.29468
N_ N_ 0.648009 0.687883 0.577889 -0.17154
N_ N_ 0.618166 0.67243 0.727917 -0.17154
N_ N_ 0.640779 0.697238 0.833663 -0.29468
N_ N_ 0.856841 0.826536 0.729012 -0.29468
N_ N_ 0.838497 0.794426 0.831952 -0.17154
N_ N_ 0.873276 0.83471 0.97924 -0.17154
N_ N_ 0.865731 0.800778 0.586096 -0.29468
O_ O_ 0.711995 0.673429 0.931265 -0.58347
O_ O_ 0.705883 0.687385 0.885571 -0.58347
O_ O_ 0.637523 0.748604 0.931184 -0.58347
O_ O_ 0.61505 0.758684 0.885375 -0.58347
O_ O_ 0.638024 0.604473 0.924505 -0.58347
O_ O_ 0.64297 0.608177 0.877145 -0.58347
O_ O_ 0.566595 0.675219 0.924926 -0.58347
O_ O_ 0.553882 0.674197 0.878378 -0.58347
O_ O_ 0.561978 0.707236 0.573315 -0.46727
O_ O_ 0.734566 0.666785 0.583835 -0.46727
O_ O_ 0.541602 0.716239 0.72416 -0.46727
O_ O_ 0.700435 0.639671 0.731802 -0.46727
O_ O_ 0.779734 0.816499 0.67629 -0.58347
O_ O_ 0.788337 0.800546 0.630493 -0.58347
O_ O_ 0.855848 0.739627 0.687445 -0.58347
O_ O_ 0.871576 0.737857 0.641336 -0.58347
O_ O_ 0.857322 0.88875 0.675812 -0.58347
O_ O_ 0.851716 0.881359 0.628583 -0.58347
O_ O_ 0.928154 0.817948 0.683368 -0.58347
O_ O_ 0.934462 0.821401 0.636727 -0.58347
O_ O_ 0.919964 0.762831 0.827208 -0.46727
O_ O_ 0.761325 0.835219 0.833961 -0.46727
O_ O_ 0.954705 0.803219 0.975503 -0.46727
O_ O_ 0.790595 0.86007 0.984012 -0.46727
