_cell_length_a 26.376
_cell_length_b 26.400000238300095
_cell_length_c 46.67800035477134
_cell_angle_alpha 90.00700052986613
_cell_angle_beta 89.99899961309502
_cell_angle_gamma 90.45000003183146
_symmetry_space_group_name_H-M         'P 1'
_symmetry_Int_Tables_number            1
loop_
_symmetry_equiv_pos_as_xyz
   'x, y, z'
                         
loop_
_atom_site_label
_atom_site_type_symbol
_atom_site_fract_x 
_atom_site_fract_y
_atom_site_fract_z
_atom_site_charge
Zn Zn 0.132033 0.186144 0.379331 0.90689
Zn Zn 0.137995 0.178268 0.4275 0.90689
Zn Zn 0.367777 0.303568 0.133759 0.90689
Zn Zn 0.359161 0.314819 0.179978 0.90689
H_ H_ 0.302939 0.192023 0.446723 0.11455
H_ H_ 0.38349 0.14287 0.355772 0.11455
H_ H_ 0.287926 0.151847 0.358728 0.11455
H_ H_ 0.388325 0.192845 0.46932 0.11455
H_ H_ 0.478254 0.178424 0.463435 0.11455
H_ H_ 0.462274 0.156151 0.37382 0.11455
H_ H_ 0.138243 0.0175084 0.436223 0.11455
H_ H_ 0.122197 0.43381 0.345821 0.11455
H_ H_ 0.172683 0.0324526 0.347863 0.11455
H_ H_ 0.134884 0.430028 0.46638 0.11455
H_ H_ 0.123744 0.340763 0.461405 0.11455
H_ H_ 0.129336 0.348227 0.372102 0.11455
H_ H_ 0.0861508 0.103905 0.461758 0.11455
H_ H_ 0.0727711 0.0697154 0.0138522 0.11455
H_ H_ 0.100103 0.120627 0.0559113 0.11455
H_ H_ 0.200363 0.239591 0.472968 0.11455
H_ H_ 0.209738 0.303158 0.0141801 0.11455
H_ H_ 0.194868 0.278568 0.0625404 0.11455
H_ H_ 0.0125626 0.223973 0.124912 0.11455
H_ H_ 0.0024276 0.217013 0.176594 0.11455
H_ H_ 0.255279 0.161298 0.137793 0.11455
H_ H_ 0.24167 0.127879 0.185091 0.11455
H_ H_ 0.0633375 0.0873331 0.249287 0.11455
H_ H_ 0.0355083 0.0724404 0.30057 0.11455
H_ H_ 0.0778892 0.120289 0.33789 0.11455
H_ H_ 0.142695 0.250751 0.255471 0.11455
H_ H_ 0.185227 0.29837 0.294939 0.11455
H_ H_ 0.174208 0.267164 0.344532 0.11455
H_ H_ 0.191382 0.305974 0.198773 0.11455
H_ H_ 0.121553 0.322373 0.0984715 0.11455
H_ H_ 0.214612 0.325363 0.106801 0.11455
H_ H_ 0.101444 0.309296 0.216821 0.11455
H_ H_ 0.0138025 0.327265 0.211483 0.11455
H_ H_ 0.0306875 0.331526 0.118884 0.11455
H_ H_ 0.334252 0.481251 0.189158 0.11455
H_ H_ 0.364533 0.0607636 0.0973197 0.11455
H_ H_ 0.369227 0.462839 0.0979772 0.11455
H_ H_ 0.375536 0.0644206 0.216214 0.11455
H_ H_ 0.379092 0.156505 0.212628 0.11455
H_ H_ 0.359283 0.14085 0.12122 0.11455
H_ H_ 0.412765 0.3924 0.215136 0.11455
H_ H_ 0.426716 0.42036 0.265898 0.11455
H_ H_ 0.395954 0.372465 0.305576 0.11455
H_ H_ 0.294512 0.259679 0.226257 0.11455
H_ H_ 0.264836 0.204727 0.264213 0.11455
H_ H_ 0.289221 0.222732 0.312587 0.11455
H_ H_ 0.487239 0.292249 0.371506 0.11455
H_ H_ 0.496126 0.291611 0.4219 0.11455
H_ H_ 0.243879 0.355106 0.382085 0.11455
H_ H_ 0.258031 0.380108 0.43089 0.11455
H_ H_ 0.433907 0.424057 0.49869 0.11455
H_ H_ 0.44469 0.419452 0.0458065 0.11455
H_ H_ 0.420537 0.365648 0.0876919 0.11455
H_ H_ 0.323625 0.240929 0.0087498 0.11455
H_ H_ 0.290732 0.19634 0.050602 0.11455
H_ H_ 0.314322 0.226607 0.099216 0.11455
C_ C_ 0.232425 0.186822 0.403837 0.68181
C_ C_ 0.288798 0.183972 0.401027 -0.05681
C_ C_ 0.320967 0.185922 0.425899 -0.08735
C_ C_ 0.372457 0.181195 0.424369 -0.05681
C_ C_ 0.393776 0.169824 0.397608 -0.05681
C_ C_ 0.362864 0.158978 0.374155 -0.08735
C_ C_ 0.312159 0.164921 0.375495 -0.08735
C_ C_ 0.401985 0.180834 0.448464 -0.08735
C_ C_ 0.454691 0.179121 0.445373 -0.08735
C_ C_ 0.479181 0.174245 0.416995 -0.05681
C_ C_ 0.447145 0.170636 0.393234 -0.08735
C_ C_ 0.130217 0.280681 0.413361 0.68181
C_ C_ 0.148053 0.0862546 0.39534 0.68181
C_ C_ 0.148405 0.030779 0.392688 -0.05681
C_ C_ 0.135901 0.501175 0.421318 -0.08735
C_ C_ 0.136086 0.445769 0.419367 -0.05681
C_ C_ 0.130315 0.422479 0.392948 -0.05681
C_ C_ 0.130322 0.450858 0.367493 -0.08735
C_ C_ 0.138374 0.503121 0.369487 -0.08735
C_ C_ 0.13329 0.415228 0.445293 -0.08735
C_ C_ 0.128493 0.362298 0.442908 -0.08735
C_ C_ 0.13028 0.338861 0.416331 -0.05681
C_ C_ 0.129535 0.368743 0.391496 -0.08735
C_ C_ 0.0360831 0.171026 0.403505 0.68181
C_ C_ 0.105709 0.12125 0.479392 0.1947
C_ C_ 0.0939552 0.106443 0.0107046 -0.08735
C_ C_ 0.107918 0.136272 0.0343504 -0.08735
C_ C_ 0.135272 0.180375 0.0292208 -0.05681
C_ C_ 0.143407 0.19576 1.00001 0.18498
C_ C_ 0.186325 0.233501 0.492202 -0.08735
C_ C_ 0.18408 0.271919 0.0181973 -0.08735
C_ C_ 0.176708 0.258143 0.0460609 -0.08735
C_ C_ 0.148201 0.213674 0.0525066 0.18498
C_ C_ 0.181283 0.178891 0.0982597 0.44287
C_ C_ 0.0950573 0.203546 0.0958262 0.44287
C_ C_ 0.0875557 0.19561 0.12453 -0.05681
C_ C_ 0.0387236 0.20306 0.13716 -0.08735
C_ C_ 0.0344854 0.200007 0.166871 -0.08735
C_ C_ 0.0744866 0.182782 0.184344 -0.05681
C_ C_ 0.122463 0.170582 0.171922 -0.05681
C_ C_ 0.127965 0.176869 0.142298 -0.05681
C_ C_ 0.176202 0.169783 0.128519 -0.05681
C_ C_ 0.218341 0.16259 0.14617 -0.08735
C_ C_ 0.210789 0.148453 0.174721 -0.08735
C_ C_ 0.165733 0.159873 0.188319 -0.05681
C_ C_ 0.159592 0.15733 0.217866 0.44287
C_ C_ 0.0734031 0.185478 0.214333 0.44287
C_ C_ 0.104398 0.15476 0.259989 0.18498
C_ C_ 0.0792184 0.108574 0.267063 -0.08735
C_ C_ 0.0660772 0.100489 0.295487 -0.08735
C_ C_ 0.087527 0.128664 0.317123 -0.08735
C_ C_ 0.116077 0.172513 0.311385 0.18498
C_ C_ 0.126021 0.185406 0.28268 -0.05681
C_ C_ 0.145247 0.232616 0.276645 -0.08735
C_ C_ 0.164965 0.263224 0.299049 -0.08735
C_ C_ 0.160315 0.246463 0.327524 0.1947
C_ C_ 0.262767 0.301041 0.158898 0.68181
C_ C_ 0.207433 0.309342 0.154104 -0.05681
C_ C_ 0.174821 0.309068 0.17669 -0.08735
C_ C_ 0.123259 0.315769 0.171709 -0.05681
C_ C_ 0.101548 0.324498 0.143932 -0.05681
C_ C_ 0.135196 0.325597 0.120099 -0.08735
C_ C_ 0.188632 0.318582 0.124938 -0.08735
C_ C_ 0.0890187 0.3162 0.195655 -0.08735
C_ C_ 0.037868 0.325868 0.192114 -0.08735
C_ C_ 0.01732 0.331126 0.164809 -0.05681
C_ C_ 0.0491578 0.32913 0.140522 -0.08735
C_ C_ 0.375019 0.21233 0.163672 0.68181
C_ C_ 0.351264 0.407307 0.149114 0.68181
C_ C_ 0.350905 0.46649 0.143734 -0.05681
C_ C_ 0.377951 -0.004145999999999983 0.171343 -0.08735
C_ C_ 0.378189 0.0496079 0.169623 -0.05681
C_ C_ 0.36997 0.0731654 0.143582 -0.05681
C_ C_ 0.363126 0.0440907 0.118588 -0.08735
C_ C_ 0.360651 0.486951 0.116939 -0.08735
C_ C_ 0.379182 0.0796995 0.195269 -0.08735
C_ C_ 0.381116 0.132707 0.193488 -0.08735
C_ C_ 0.374611 0.154468 0.166822 -0.05681
C_ C_ 0.364276 0.124966 0.142489 -0.08735
C_ C_ 0.461976 0.313364 0.15418 0.68181
C_ C_ 0.398669 0.368907 0.232712 0.1947
C_ C_ 0.405598 0.386243 0.260848 -0.08735
C_ C_ 0.387917 0.358947 0.283719 -0.08735
C_ C_ 0.362129 0.313119 0.278606 -0.05681
C_ C_ 0.34962 0.300476 0.249552 0.18498
C_ C_ 0.316008 0.25992 0.245225 -0.08735
C_ C_ 0.294377 0.23276 0.268342 -0.08735
C_ C_ 0.312121 0.239645 0.295131 -0.08735
C_ C_ 0.348089 0.280578 0.300406 0.18498
C_ C_ 0.313293 0.310426 0.345769 0.44287
C_ C_ 0.399705 0.288747 0.342762 0.44287
C_ C_ 0.406737 0.304172 0.37157 -0.05681
C_ C_ 0.453647 0.297997 0.385045 -0.08735
C_ C_ 0.459669 0.302228 0.414349 -0.08735
C_ C_ 0.420066 0.32062 0.430592 -0.05681
C_ C_ 0.371657 0.326128 0.417334 -0.05681
C_ C_ 0.365942 0.321074 0.387867 -0.05681
C_ C_ 0.319333 0.325616 0.374895 -0.05681
C_ C_ 0.27793 0.343267 0.391597 -0.08735
C_ C_ 0.284346 0.354256 0.420767 -0.08735
C_ C_ 0.330856 0.344089 0.434146 -0.05681
C_ C_ 0.335467 0.346902 0.464572 0.44287
C_ C_ 0.424627 0.329208 0.461064 0.44287
C_ C_ 0.38019 0.328352 0.00907834 0.18498
C_ C_ 0.407574 0.372165 0.014529 -0.08735
C_ C_ 0.424357 0.384667 0.0418649 -0.08735
C_ C_ 0.40926 0.354672 0.0661596 -0.08735
C_ C_ 0.372237 0.315987 0.06213 0.18498
C_ C_ 0.359102 0.300533 0.0329098 -0.05681
C_ C_ 0.331247 0.257165 0.0296752 -0.08735
C_ C_ 0.313766 0.23135 0.052737 -0.08735
C_ C_ 0.324762 0.248638 0.0810013 0.1947
N_ N_ 0.134719 0.164143 0.473989 -0.29468
N_ N_ 0.141197 0.198495 0.0829861 -0.17154
N_ N_ 0.112826 0.166001 0.229963 -0.17154
N_ N_ 0.135982 0.201284 0.332631 -0.29468
N_ N_ 0.36995 0.327069 0.227221 -0.29468
N_ N_ 0.353896 0.294966 0.329917 -0.17154
N_ N_ 0.381995 0.339 0.477649 -0.17154
N_ N_ 0.357584 0.287398 0.085095 -0.29468
O_ O_ 0.212761 0.183727 0.428395 -0.58347
O_ O_ 0.205027 0.199132 0.382799 -0.58347
O_ O_ 0.135416 0.250785 0.435482 -0.58347
O_ O_ 0.121857 0.261522 0.388186 -0.58347
O_ O_ 0.139132 0.105198 0.420481 -0.58347
O_ O_ 0.149982 0.112398 0.373167 -0.58347
O_ O_ 0.0627591 0.16962 0.426349 -0.58347
O_ O_ 0.055606 0.174822 0.378797 -0.58347
O_ O_ 0.0594212 0.22669 0.0807548 -0.46727
O_ O_ 0.220321 0.16217 0.0847561 -0.46727
O_ O_ 0.0375422 0.212079 0.227237 -0.46727
O_ O_ 0.195557 0.141149 0.234857 -0.46727
O_ O_ 0.282823 0.309752 0.183173 -0.58347
O_ O_ 0.29211 0.300333 0.137478 -0.58347
O_ O_ 0.371482 0.241359 0.185617 -0.58347
O_ O_ 0.371249 0.230577 0.139009 -0.58347
O_ O_ 0.351413 0.389775 0.174426 -0.58347
O_ O_ 0.361812 0.379544 0.127844 -0.58347
O_ O_ 0.432364 0.326339 0.174333 -0.58347
O_ O_ 0.443388 0.307709 0.129711 -0.58347
O_ O_ 0.437251 0.267805 0.328456 -0.46727
O_ O_ 0.271227 0.316955 0.332433 -0.46727
O_ O_ 0.465732 0.313411 0.474256 -0.46727
O_ O_ 0.295704 0.36056 0.480014 -0.46727
Zn Zn 0.113438 0.185189 0.880081 0.90689
Zn Zn 0.127352 0.180695 0.928348 0.90689
Zn Zn 0.374305 0.31875 0.630366 0.90689
Zn Zn 0.362572 0.324106 0.677729 0.90689
H_ H_ 0.287747 0.198231 0.945024 0.11455
H_ H_ 0.358949 0.150016 0.849678 0.11455
H_ H_ 0.267806 0.143658 0.861787 0.11455
H_ H_ 0.374353 0.183391 0.96823 0.11455
H_ H_ 0.463383 0.198575 0.960076 0.11455
H_ H_ 0.447421 0.159512 0.86952 0.11455
H_ H_ 0.108886 0.0193849 0.939273 0.11455
H_ H_ 0.101948 0.441404 0.848168 0.11455
H_ H_ 0.17171 0.0291579 0.853321 0.11455
H_ H_ 0.126028 0.430291 0.966133 0.11455
H_ H_ 0.110322 0.338271 0.96065 0.11455
H_ H_ 0.109648 0.357054 0.868456 0.11455
H_ H_ 0.0805407 0.105652 0.964476 0.11455
H_ H_ 0.0923928 0.0612053 0.509035 0.11455
H_ H_ 0.112861 0.113411 0.550806 0.11455
H_ H_ 0.170648 0.256515 0.972609 0.11455
H_ H_ 0.2172 0.304346 0.51133 0.11455
H_ H_ 0.192536 0.277496 0.561678 0.11455
H_ H_ 0.0223935 0.223226 0.620532 0.11455
H_ H_ 0.0101209 0.204219 0.671517 0.11455
H_ H_ 0.265485 0.150306 0.637046 0.11455
H_ H_ 0.254475 0.144653 0.688705 0.11455
H_ H_ 0.0638699 0.0873309 0.744061 0.11455
H_ H_ 0.0385683 0.068504 0.79389 0.11455
H_ H_ 0.0704612 0.118208 0.83602 0.11455
H_ H_ 0.155887 0.244804 0.75547 0.11455
H_ H_ 0.186846 0.29312 0.795894 0.11455
H_ H_ 0.167281 0.263382 0.845001 0.11455
H_ H_ 0.193569 0.310947 0.694031 0.11455
H_ H_ 0.127419 0.346642 0.596594 0.11455
H_ H_ 0.220604 0.330796 0.603122 0.11455
H_ H_ 0.107055 0.313222 0.713021 0.11455
H_ H_ 0.0160807 0.310907 0.705172 0.11455
H_ H_ 0.0405675 0.339521 0.615994 0.11455
H_ H_ 0.352433 0.491199 0.694098 0.11455
H_ H_ 0.38417 0.062528 0.593595 0.11455
H_ H_ 0.357646 0.47969 0.60212 0.11455
H_ H_ 0.356067 0.0746933 0.711728 0.11455
H_ H_ 0.363066 0.164749 0.704116 0.11455
H_ H_ 0.385432 0.144697 0.614522 0.11455
H_ H_ 0.420148 0.390296 0.71445 0.11455
H_ H_ 0.45933 0.39523 0.760879 0.11455
H_ H_ 0.410387 0.367312 0.801518 0.11455
H_ H_ 0.312757 0.248519 0.72217 0.11455
H_ H_ 0.259954 0.21794 0.760992 0.11455
H_ H_ 0.285359 0.233955 0.813459 0.11455
H_ H_ 0.478549 0.291353 0.873955 0.11455
H_ H_ 0.48763 0.294274 0.925396 0.11455
H_ H_ 0.226382 0.334761 0.885177 0.11455
H_ H_ 0.233884 0.336011 0.937443 0.11455
H_ H_ 0.415346 0.397669 -0.00325874 0.11455
H_ H_ 0.460486 0.438942 0.548224 0.11455
H_ H_ 0.422893 0.384082 0.586539 0.11455
H_ H_ 0.330663 0.266838 0.502857 0.11455
H_ H_ 0.29231 0.221101 0.543685 0.11455
H_ H_ 0.319916 0.237245 0.591408 0.11455
C_ C_ 0.216961 0.187626 0.906689 0.68181
C_ C_ 0.271682 0.182294 0.902119 -0.05681
C_ C_ 0.305911 0.187285 0.924913 -0.08735
C_ C_ 0.356649 0.169955 0.923148 -0.05681
C_ C_ 0.377153 0.159549 0.896203 -0.05681
C_ C_ 0.345208 0.158155 0.872394 -0.08735
C_ C_ 0.291457 0.164376 0.876506 -0.08735
C_ C_ 0.388981 0.179022 0.946066 -0.08735
C_ C_ 0.441697 0.18563 0.941562 -0.08735
C_ C_ 0.46324 0.180161 0.914168 -0.05681
C_ C_ 0.430584 0.165028 0.891194 -0.08735
C_ C_ 0.110631 0.281001 0.911475 0.68181
C_ C_ 0.141477 0.0849615 0.898204 0.68181
C_ C_ 0.139256 0.0275785 0.896157 -0.05681
C_ C_ 0.121287 0.499617 0.923732 -0.08735
C_ C_ 0.116315 0.445691 0.921684 -0.05681
C_ C_ 0.108635 0.424681 0.893693 -0.05681
C_ C_ 0.10277 0.456932 0.869415 -0.08735
C_ C_ 0.113929 0.508723 0.871805 -0.08735
C_ C_ 0.120495 0.414206 0.944795 -0.08735
C_ C_ 0.116066 0.360202 0.941496 -0.08735
C_ C_ 0.108372 0.33789 0.91453 -0.05681
C_ C_ 0.108599 0.371335 0.890409 -0.08735
C_ C_ 0.0203177 0.166705 0.90356 0.68181
C_ C_ 0.0997567 0.124058 0.982025 0.1947
C_ C_ 0.101785 0.100632 0.506592 -0.08735
C_ C_ 0.121725 0.126728 0.529799 -0.08735
C_ C_ 0.149805 0.172017 0.525451 -0.05681
C_ C_ 0.156492 0.189301 0.496428 0.18498
C_ C_ 0.163126 0.244381 0.995153 -0.08735
C_ C_ 0.199284 0.266748 0.51612 -0.08735
C_ C_ 0.182854 0.254368 0.543307 -0.08735
C_ C_ 0.163776 0.205519 0.549592 0.18498
C_ C_ 0.195803 0.174128 0.595926 0.44287
C_ C_ 0.108888 0.19386 0.591367 0.44287
C_ C_ 0.0992394 0.191941 0.621339 -0.05681
C_ C_ 0.0510057 0.202463 0.633689 -0.08735
C_ C_ 0.0466923 0.19723 0.663484 -0.08735
C_ C_ 0.0870608 0.183988 0.680878 -0.05681
C_ C_ 0.134061 0.176451 0.668823 -0.05681
C_ C_ 0.139698 0.178116 0.639358 -0.05681
C_ C_ 0.189876 0.172464 0.627334 -0.05681
C_ C_ 0.229577 0.162003 0.645272 -0.08735
C_ C_ 0.221722 0.156828 0.675119 -0.08735
C_ C_ 0.172922 0.161075 0.687045 -0.05681
C_ C_ 0.165295 0.156153 0.716309 0.44287
C_ C_ 0.0815025 0.181678 0.710683 0.44287
C_ C_ 0.109108 0.15054 0.755952 0.18498
C_ C_ 0.0800712 0.108479 0.761567 -0.08735
C_ C_ 0.0664113 0.0958643 0.790143 -0.08735
C_ C_ 0.0769332 0.130006 0.813477 -0.08735
C_ C_ 0.109641 0.169567 0.809116 0.18498
C_ C_ 0.123264 0.182552 0.780006 -0.05681
C_ C_ 0.14785 0.231283 0.776094 -0.08735
C_ C_ 0.168163 0.256989 0.799301 -0.08735
C_ C_ 0.157941 0.239134 0.827292 0.1947
C_ C_ 0.268135 0.317611 0.653745 0.68181
C_ C_ 0.213397 0.325969 0.649819 -0.05681
C_ C_ 0.180687 0.31984 0.673034 -0.08735
C_ C_ 0.126408 0.319551 0.66776 -0.05681
C_ C_ 0.107189 0.324481 0.639057 -0.05681
C_ C_ 0.140453 0.336397 0.617465 -0.08735
C_ C_ 0.193819 0.333942 0.621691 -0.08735
C_ C_ 0.0925974 0.319304 0.69094 -0.08735
C_ C_ 0.0394711 0.313364 0.685635 -0.08735
C_ C_ 0.0184324 0.319109 0.658089 -0.05681
C_ C_ 0.0533952 0.326077 0.63477 -0.08735
C_ C_ 0.376569 0.222333 0.656375 0.68181
C_ C_ 0.361368 0.420516 0.650418 0.68181
C_ C_ 0.353474 0.4764 0.648095 -0.05681
C_ C_ 0.364733 0.00356074 0.669175 -0.08735
C_ C_ 0.364627 0.0580062 0.666198 -0.05681
C_ C_ 0.37086 0.077567 0.63855 -0.05681
C_ C_ 0.376816 0.0455257 0.615224 -0.08735
C_ C_ 0.361013 0.501127 0.621456 -0.08735
C_ C_ 0.362481 0.0896708 0.689708 -0.08735
C_ C_ 0.37073 0.142449 0.685631 -0.08735
C_ C_ 0.371483 0.164791 0.6588 -0.05681
C_ C_ 0.376231 0.130248 0.63523 -0.08735
C_ C_ 0.466704 0.323737 0.65202 0.68181
C_ C_ 0.405994 0.365224 0.730727 0.1947
C_ C_ 0.424589 0.37383 0.757507 -0.08735
C_ C_ 0.401116 0.351674 0.782217 -0.08735
C_ C_ 0.361743 0.31866 0.7785 -0.05681
C_ C_ 0.349234 0.303835 0.749007 0.18498
C_ C_ 0.316809 0.264571 0.743562 -0.08735
C_ C_ 0.292427 0.240827 0.765983 -0.08735
C_ C_ 0.302646 0.253313 0.793981 -0.08735
C_ C_ 0.333868 0.294749 0.801045 0.18498
C_ C_ 0.301702 0.312094 0.84806 0.44287
C_ C_ 0.39198 0.302619 0.842753 0.44287
C_ C_ 0.397908 0.305819 0.87307 -0.05681
C_ C_ 0.446206 0.298704 0.886418 -0.08735
C_ C_ 0.451137 0.3015 0.91662 -0.08735
C_ C_ 0.408057 0.305543 0.933185 -0.05681
C_ C_ 0.360362 0.312261 0.920053 -0.05681
C_ C_ 0.354099 0.313227 0.889982 -0.05681
C_ C_ 0.305343 0.314967 0.877116 -0.05681
C_ C_ 0.262695 0.324785 0.894423 -0.08735
C_ C_ 0.267407 0.328657 0.923725 -0.08735
C_ C_ 0.315737 0.321091 0.937251 -0.05681
C_ C_ 0.323604 0.32306 0.967791 0.44287
C_ C_ 0.41037 0.306408 0.962677 0.44287
C_ C_ 0.391013 0.352215 0.507926 0.18498
C_ C_ 0.424809 0.392039 0.514733 -0.08735
C_ C_ 0.436604 0.403892 0.543679 -0.08735
C_ C_ 0.414034 0.37628 0.565556 -0.08735
C_ C_ 0.380663 0.335653 0.559319 0.18498
C_ C_ 0.369005 0.323432 0.530482 -0.05681
C_ C_ 0.338358 0.281 0.524866 -0.08735
C_ C_ 0.317621 0.253514 0.54839 -0.08735
C_ C_ 0.331756 0.264986 0.575598 0.1947
N_ N_ 0.128402 0.164676 0.976734 -0.29468
N_ N_ 0.155123 0.190126 0.579703 -0.17154
N_ N_ 0.119125 0.166156 0.727133 -0.17154
N_ N_ 0.12699 0.198101 0.832539 -0.29468
N_ N_ 0.369249 0.331636 0.726789 -0.29468
N_ N_ 0.344052 0.308466 0.831014 -0.17154
N_ N_ 0.370353 0.315613 0.979262 -0.17154
N_ N_ 0.363064 0.30459 0.581351 -0.29468
O_ O_ 0.198904 0.197262 0.930966 -0.58347
O_ O_ 0.191024 0.188532 0.88428 -0.58347
O_ O_ 0.111798 0.253361 0.934162 -0.58347
O_ O_ 0.107924 0.261868 0.885767 -0.58347
O_ O_ 0.13713 0.105132 0.922884 -0.58347
O_ O_ 0.127725 0.108418 0.876422 -0.58347
O_ O_ 0.0502917 0.164817 0.924763 -0.58347
O_ O_ 0.0383478 0.175873 0.878715 -0.58347
O_ O_ 0.0714803 0.20968 0.574914 -0.46727
O_ O_ 0.238894 0.162193 0.58377 -0.46727
O_ O_ 0.038982 0.194755 0.722551 -0.46727
O_ O_ 0.203161 0.142414 0.732812 -0.46727
O_ O_ 0.288006 0.326683 0.677681 -0.58347
O_ O_ 0.296712 0.306801 0.632286 -0.58347
O_ O_ 0.366038 0.250271 0.678672 -0.58347
O_ O_ 0.383654 0.244041 0.631469 -0.58347
O_ O_ 0.361779 0.397822 0.67389 -0.58347
O_ O_ 0.358882 0.392344 0.627669 -0.58347
O_ O_ 0.436412 0.322165 0.674434 -0.58347
O_ O_ 0.447343 0.328781 0.627104 -0.58347
O_ O_ 0.424784 0.279187 0.828907 -0.46727
O_ O_ 0.256514 0.31524 0.835029 -0.46727
O_ O_ 0.455936 0.299487 0.973434 -0.46727
O_ O_ 0.286781 0.334221 0.985139 -0.46727
Zn Zn 0.130993 0.687661 0.38227 0.90689
Zn Zn 0.14659 0.684797 0.429211 0.90689
Zn Zn 0.375537 0.806623 0.134006 0.90689
Zn Zn 0.366389 0.812093 0.18061 0.90689
H_ H_ 0.311331 0.698648 0.442595 0.11455
H_ H_ 0.381757 0.649606 0.346374 0.11455
H_ H_ 0.292875 0.662832 0.353865 0.11455
H_ H_ 0.394452 0.698971 0.46174 0.11455
H_ H_ 0.483374 0.696808 0.455272 0.11455
H_ H_ 0.463702 0.684159 0.365908 0.11455
H_ H_ 0.142342 0.517414 0.442197 0.11455
H_ H_ 0.183223 0.939969 0.345256 0.11455
H_ H_ 0.140359 0.528692 0.350559 0.11455
H_ H_ 0.135165 0.937584 0.458472 0.11455
H_ H_ 0.148945 0.846362 0.457427 0.11455
H_ H_ 0.153302 0.853284 0.364753 0.11455
H_ H_ 0.0868383 0.618036 0.466815 0.11455
H_ H_ 0.0492337 0.585287 0.0118681 0.11455
H_ H_ 0.0933857 0.620745 0.0528522 0.11455
H_ H_ 0.201507 0.751313 0.470818 0.11455
H_ H_ 0.224624 0.788358 0.0157686 0.11455
H_ H_ 0.195206 0.767461 0.0672956 0.11455
H_ H_ 0.0185552 0.692151 0.123277 0.11455
H_ H_ 0.0096916 0.695269 0.17709 0.11455
H_ H_ 0.27269 0.658848 0.14143 0.11455
H_ H_ 0.259438 0.656211 0.193979 0.11455
H_ H_ 0.0839835 0.570807 0.259295 0.11455
H_ H_ 0.046462 0.565056 0.305597 0.11455
H_ H_ 0.0531454 0.638849 0.339488 0.11455
H_ H_ 0.165987 0.730866 0.253793 0.11455
H_ H_ 0.207564 0.775829 0.291618 0.11455
H_ H_ 0.190794 0.760703 0.341859 0.11455
H_ H_ 0.196828 0.790369 0.196681 0.11455
H_ H_ 0.129264 0.830838 0.0978329 0.11455
H_ H_ 0.224508 0.820325 0.106218 0.11455
H_ H_ 0.107979 0.783183 0.211976 0.11455
H_ H_ 0.0166497 0.800498 0.205307 0.11455
H_ H_ 0.0444525 0.820894 0.1157 0.11455
H_ H_ 0.3671 0.978214 0.191395 0.11455
H_ H_ 0.379649 0.552908 0.0939044 0.11455
H_ H_ 0.355695 0.970674 0.100234 0.11455
H_ H_ 0.368044 0.56103 0.212765 0.11455
H_ H_ 0.403554 0.642686 0.207443 0.11455
H_ H_ 0.370102 0.64038 0.115758 0.11455
H_ H_ 0.413936 0.8921 0.213214 0.11455
H_ H_ 0.438282 0.923539 0.260618 0.11455
H_ H_ 0.409675 0.877852 0.304212 0.11455
H_ H_ 0.312262 0.752246 0.227192 0.11455
H_ H_ 0.274053 0.712841 0.269899 0.11455
H_ H_ 0.306111 0.72728 0.317673 0.11455
H_ H_ 0.503142 0.783778 0.374114 0.11455
H_ H_ 0.515192 0.801146 0.426464 0.11455
H_ H_ 0.263036 0.865256 0.385565 0.11455
H_ H_ 0.269462 0.863142 0.440215 0.11455
H_ H_ 0.462404 0.905095 0.502683 0.11455
H_ H_ 0.446258 0.934449 0.0524939 0.11455
H_ H_ 0.440697 0.862838 0.0908477 0.11455
H_ H_ 0.348945 0.74516 0.00918589 0.11455
H_ H_ 0.305505 0.706368 0.0473113 0.11455
H_ H_ 0.316497 0.734533 0.0986465 0.11455
C_ C_ 0.238132 0.680873 0.403221 0.68181
C_ C_ 0.293791 0.677954 0.399434 -0.05681
C_ C_ 0.325989 0.686633 0.422303 -0.08735
C_ C_ 0.378501 0.682102 0.41839 -0.05681
C_ C_ 0.399447 0.668231 0.391044 -0.05681
C_ C_ 0.367905 0.656147 0.368117 -0.08735
C_ C_ 0.315144 0.661046 0.372318 -0.08735
C_ C_ 0.410218 0.695353 0.440922 -0.08735
C_ C_ 0.462972 0.693193 0.436042 -0.08735
C_ C_ 0.483029 0.680293 0.409359 -0.05681
C_ C_ 0.451209 0.670129 0.386463 -0.08735
C_ C_ 0.147855 0.784779 0.409322 0.68181
C_ C_ 0.137224 0.586888 0.398102 0.68181
C_ C_ 0.136604 0.530321 0.396502 -0.05681
C_ C_ 0.139262 0.99880536 0.41574 -0.08735
C_ C_ 0.144475 0.947061 0.413531 -0.05681
C_ C_ 0.153352 0.924046 0.38652 -0.05681
C_ C_ 0.162602 0.955227 0.36286 -0.08735
C_ C_ 0.159891 1.00737811 0.366005 -0.08735
C_ C_ 0.137615 0.917368 0.438623 -0.08735
C_ C_ 0.146557 0.868091 0.436991 -0.08735
C_ C_ 0.14587 0.84296 0.411005 -0.05681
C_ C_ 0.153145 0.870417 0.385042 -0.08735
C_ C_ 0.0395833 0.688615 0.408905 0.68181
C_ C_ 0.10945 0.6306 0.484485 0.1947
C_ C_ 0.078295 0.614294 0.00864579 -0.08735
C_ C_ 0.101265 0.634154 0.0326795 -0.08735
C_ C_ 0.138817 0.672646 0.0298084 -0.05681
C_ C_ 0.154476 0.686038 1.00240887 0.18498
C_ C_ 0.194827 0.737969 0.492987 -0.08735
C_ C_ 0.205168 0.75468 0.0217087 -0.08735
C_ C_ 0.190235 0.741685 0.0500336 -0.08735
C_ C_ 0.162395 0.697198 0.0538798 0.18498
C_ C_ 0.197048 0.668335 0.10066 0.44287
C_ C_ 0.108511 0.682541 0.0965764 0.44287
C_ C_ 0.100538 0.676587 0.126661 -0.05681
C_ C_ 0.0503859 0.683794 0.138295 -0.08735
C_ C_ 0.04402 0.67976 0.167885 -0.08735
C_ C_ 0.0877576 0.667696 0.18506 -0.05681
C_ C_ 0.136646 0.662615 0.17364 -0.05681
C_ C_ 0.142804 0.666356 0.143815 -0.05681
C_ C_ 0.190852 0.664003 0.132243 -0.05681
C_ C_ 0.233468 0.657588 0.150849 -0.08735
C_ C_ 0.227305 0.653147 0.180244 -0.08735
C_ C_ 0.178151 0.649877 0.191066 -0.05681
C_ C_ 0.1674 0.639805 0.220389 0.44287
C_ C_ 0.0805413 0.664053 0.215137 0.44287
C_ C_ 0.110673 0.645632 0.2621 0.18498
C_ C_ 0.0832416 0.602813 0.271106 -0.08735
C_ C_ 0.0659896 0.59804 0.299223 -0.08735
C_ C_ 0.0753962 0.638035 0.319561 -0.08735
C_ C_ 0.104865 0.681154 0.311686 0.18498
C_ C_ 0.122127 0.684037 0.282537 -0.05681
C_ C_ 0.154882 0.723614 0.275979 -0.08735
C_ C_ 0.17609 0.752759 0.297455 -0.08735
C_ C_ 0.165397 0.743437 0.32642 0.1947
C_ C_ 0.270873 0.808768 0.155863 0.68181
C_ C_ 0.21658 0.806217 0.151773 -0.05681
C_ C_ 0.182035 0.803438 0.175424 -0.08735
C_ C_ 0.129239 0.809708 0.170896 -0.05681
C_ C_ 0.112015 0.816389 0.142477 -0.05681
C_ C_ 0.1442 0.818108 0.118323 -0.08735
C_ C_ 0.196642 0.81505 0.123611 -0.08735
C_ C_ 0.0954033 0.796994 0.191751 -0.08735
C_ C_ 0.0429027 0.800027 0.186513 -0.08735
C_ C_ 0.0226397 0.81367 0.158744 -0.05681
C_ C_ 0.0580618 0.819748 0.137226 -0.08735
C_ C_ 0.379258 0.707817 0.161918 0.68181
C_ C_ 0.364129 0.908538 0.147788 0.68181
C_ C_ 0.372425 0.965537 0.145985 -0.05681
C_ C_ 0.345975 0.495849 0.168461 -0.08735
C_ C_ 0.35786 0.547725 0.165888 -0.05681
C_ C_ 0.365139 0.570622 0.138283 -0.05681
C_ C_ 0.364278 0.539584 0.113829 -0.08735
C_ C_ 0.363268 -0.008714 0.119388 -0.08735
C_ C_ 0.370981 0.576553 0.191137 -0.08735
C_ C_ 0.385801 0.626015 0.188184 -0.08735
C_ C_ 0.385977 0.652775 0.161891 -0.05681
C_ C_ 0.373718 0.624087 0.136318 -0.08735
C_ C_ 0.469857 0.819982 0.158325 0.68181
C_ C_ 0.40705 0.868944 0.232489 0.1947
C_ C_ 0.417328 0.888343 0.259577 -0.08735
C_ C_ 0.400957 0.862958 0.283259 -0.08735
C_ C_ 0.378011 0.816099 0.281095 -0.05681
C_ C_ 0.363957 0.800777 0.252298 0.18498
C_ C_ 0.327482 0.762045 0.248321 -0.08735
C_ C_ 0.307398 0.736316 0.271808 -0.08735
C_ C_ 0.323814 0.746925 0.299702 -0.08735
C_ C_ 0.359845 0.785958 0.304482 0.18498
C_ C_ 0.326184 0.818566 0.348857 0.44287
C_ C_ 0.412753 0.789329 0.345559 0.44287
C_ C_ 0.420551 0.796525 0.374962 -0.05681
C_ C_ 0.470249 0.792683 0.387852 -0.08735
C_ C_ 0.478087 0.805415 0.416928 -0.08735
C_ C_ 0.435799 0.816005 0.434179 -0.05681
C_ C_ 0.387425 0.820215 0.422381 -0.05681
C_ C_ 0.379838 0.815067 0.392225 -0.05681
C_ C_ 0.333617 0.826948 0.37905 -0.05681
C_ C_ 0.296299 0.847738 0.396487 -0.08735
C_ C_ 0.303359 0.854085 0.426647 -0.08735
C_ C_ 0.347813 0.836653 0.439923 -0.05681
C_ C_ 0.356325 0.848001 0.469958 0.44287
C_ C_ 0.440056 0.818681 0.465274 0.44287
C_ C_ 0.396488 0.839072 0.0117761 0.18498
C_ C_ 0.420784 0.883976 0.0191802 -0.08735
C_ C_ 0.436777 0.893444 0.047848 -0.08735
C_ C_ 0.425469 0.859378 0.0702611 -0.08735
C_ C_ 0.395476 0.817422 0.0644314 0.18498
C_ C_ 0.385435 0.804056 0.0351087 -0.05681
C_ C_ 0.35726 0.759799 0.0300725 -0.08735
C_ C_ 0.331471 0.735004 0.05232 -0.08735
C_ C_ 0.339574 0.751302 0.0809943 0.1947
N_ N_ 0.142707 0.668985 0.477056 -0.29468
N_ N_ 0.154887 0.67881 0.0839415 -0.17154
N_ N_ 0.121476 0.654678 0.232385 -0.17154
N_ N_ 0.133124 0.703777 0.334057 -0.29468
N_ N_ 0.373538 0.829844 0.229166 -0.29468
N_ N_ 0.366378 0.79928 0.333509 -0.17154
N_ N_ 0.400625 0.832947 0.482773 -0.17154
N_ N_ 0.370884 0.791693 0.0856928 -0.29468
O_ O_ 0.218541 0.681773 0.428223 -0.58347
O_ O_ 0.208563 0.68347 0.382069 -0.58347
O_ O_ 0.146406 0.761403 0.432755 -0.58347
O_ O_ 0.137887 0.762144 0.385386 -0.58347
O_ O_ 0.145268 0.607749 0.421618 -0.58347
O_ O_ 0.125011 0.612074 0.377001 -0.58347
O_ O_ 0.0696552 0.687626 0.429084 -0.58347
O_ O_ 0.057303 0.691397 0.383355 -0.58347
O_ O_ 0.0685793 0.695407 0.0809531 -0.46727
O_ O_ 0.240393 0.663778 0.08864 -0.46727
O_ O_ 0.0340416 0.670537 0.226017 -0.46727
O_ O_ 0.203385 0.627178 0.237519 -0.46727
O_ O_ 0.289612 0.805797 0.180964 -0.58347
O_ O_ 0.300902 0.804478 0.135571 -0.58347
O_ O_ 0.379055 0.733203 0.185585 -0.58347
O_ O_ 0.383217 0.730869 0.138018 -0.58347
O_ O_ 0.358702 0.8878 0.172831 -0.58347
O_ O_ 0.372632 0.881542 0.126367 -0.58347
O_ O_ 0.441606 0.820293 0.180012 -0.58347
O_ O_ 0.450063 0.812947 0.134245 -0.58347
O_ O_ 0.453716 0.781941 0.328524 -0.46727
O_ O_ 0.282126 0.823691 0.335726 -0.46727
O_ O_ 0.485971 0.814673 0.476753 -0.46727
O_ O_ 0.31689 0.861557 0.486525 -0.46727
Zn Zn 0.129963 0.688092 0.882748 0.90689
Zn Zn 0.138153 0.681753 0.932133 0.90689
Zn Zn 0.383908 0.819257 0.633127 0.90689
Zn Zn 0.37119 0.826266 0.680846 0.90689
H_ H_ 0.310294 0.690203 0.947767 0.11455
H_ H_ 0.372278 0.678882 0.851162 0.11455
H_ H_ 0.284619 0.670514 0.858203 0.11455
H_ H_ 0.39334 0.676723 0.96746 0.11455
H_ H_ 0.484786 0.663683 0.95928 0.11455
H_ H_ 0.462222 0.677739 0.867657 0.11455
H_ H_ 0.132183 0.517089 0.944167 0.11455
H_ H_ 0.176584 0.932515 0.850811 0.11455
H_ H_ 0.106441 0.534267 0.85273 0.11455
H_ H_ 0.0984952 0.930925 0.963329 0.11455
H_ H_ 0.109789 0.839942 0.961383 0.11455
H_ H_ 0.162148 0.853318 0.873874 0.11455
H_ H_ 0.0701546 0.615447 0.962933 0.11455
H_ H_ 0.0733048 0.582545 0.516873 0.11455
H_ H_ 0.136231 0.620197 0.555765 0.11455
H_ H_ 0.192671 0.74045 0.976018 0.11455
H_ H_ 0.240072 0.800619 0.510631 0.11455
H_ H_ 0.218117 0.776609 0.561002 0.11455
H_ H_ 1.0183574 0.713164 0.61899 0.11455
H_ H_ 1.0107295 0.714973 0.66972 0.11455
H_ H_ 0.271567 0.692315 0.640375 0.11455
H_ H_ 0.258734 0.681179 0.690772 0.11455
H_ H_ 0.0714062 0.600705 0.747359 0.11455
H_ H_ 0.0495874 0.574627 0.796234 0.11455
H_ H_ 0.0632699 0.633688 0.834039 0.11455
H_ H_ 0.156478 0.766558 0.757149 0.11455
H_ H_ 0.19275 0.809528 0.798636 0.11455
H_ H_ 0.18156 0.773473 0.846533 0.11455
H_ H_ 0.202624 0.822232 0.695207 0.11455
H_ H_ 0.133066 0.829067 0.597279 0.11455
H_ H_ 0.227563 0.826026 0.604923 0.11455
H_ H_ 0.117597 0.852547 0.712477 0.11455
H_ H_ 0.0248951 0.855217 0.707186 0.11455
H_ H_ 0.0496722 0.836978 0.614546 0.11455
H_ H_ 0.347897 0.986607 0.688908 0.11455
H_ H_ 0.36976 0.569975 0.598552 0.11455
H_ H_ 0.382387 0.9687 0.598418 0.11455
H_ H_ 0.35937 0.571754 0.716017 0.11455
H_ H_ 0.372024 0.662776 0.713175 0.11455
H_ H_ 0.390079 0.653302 0.622597 0.11455
H_ H_ 0.429757 0.904995 0.716379 0.11455
H_ H_ 0.452656 0.924719 0.763959 0.11455
H_ H_ 0.402778 0.894171 0.805906 0.11455
H_ H_ 0.316351 0.767262 0.722638 0.11455
H_ H_ 0.275585 0.719312 0.763184 0.11455
H_ H_ 0.293708 0.745205 0.811478 0.11455
H_ H_ 0.480463 0.774831 0.87567 0.11455
H_ H_ 0.495781 0.786028 0.927148 0.11455
H_ H_ 0.248203 0.875543 0.891509 0.11455
H_ H_ 0.256172 0.867762 0.942187 0.11455
H_ H_ 0.434447 0.907932 1.000564644 0.11455
H_ H_ 0.478213 0.933375 0.552903 0.11455
H_ H_ 0.447298 0.874973 0.592887 0.11455
H_ H_ 0.348926 0.763543 0.509964 0.11455
H_ H_ 0.315732 0.712686 0.5504 0.11455
H_ H_ 0.326996 0.747889 0.598287 0.11455
C_ C_ 0.232322 0.688693 0.905899 0.68181
C_ C_ 0.289284 0.687015 0.90267 -0.05681
C_ C_ 0.323652 0.691164 0.926491 -0.08735
C_ C_ 0.375916 0.683632 0.922487 -0.05681
C_ C_ 0.394261 0.680381 0.893749 -0.05681
C_ C_ 0.360426 0.680156 0.872648 -0.08735
C_ C_ 0.309872 0.687888 0.875255 -0.08735
C_ C_ 0.409602 0.678992 0.946184 -0.08735
C_ C_ 0.461275 0.670849 0.941575 -0.08735
C_ C_ 0.480562 0.673624 0.912589 -0.05681
C_ C_ 0.446503 0.677101 0.889344 -0.08735
C_ C_ 0.128271 0.785163 0.913744 0.68181
C_ C_ 0.135682 0.584917 0.900781 0.68181
C_ C_ 0.122509 0.530889 0.89912 -0.05681
C_ C_ 0.122714 0.999947 0.919962 -0.08735
C_ C_ 0.127085 0.946902 0.920321 -0.05681
C_ C_ 0.144062 0.923229 0.893952 -0.05681
C_ C_ 0.162306 0.952252 0.870209 -0.08735
C_ C_ 0.15937 0.00490998 0.871369 -0.08735
C_ C_ 0.115563 0.916341 0.944326 -0.08735
C_ C_ 0.119412 0.863643 0.942567 -0.08735
C_ C_ 0.130297 0.841033 0.916407 -0.05681
C_ C_ 0.141355 0.869846 0.892056 -0.08735
C_ C_ 0.034767 0.685382 0.905486 0.68181
C_ C_ 0.0906857 0.630408 0.981904 0.1947
C_ C_ 0.101508 0.613936 0.513397 -0.08735
C_ C_ 0.130789 0.638005 0.53424 -0.08735
C_ C_ 0.154588 0.682132 0.528319 -0.05681
C_ C_ 0.163211 0.695828 0.498766 0.18498
C_ C_ 0.187742 0.727243 0.998191 -0.08735
C_ C_ 0.21702 0.766459 0.515223 -0.08735
C_ C_ 0.202354 0.756934 0.543108 -0.08735
C_ C_ 0.17226 0.714581 0.549964 0.18498
C_ C_ 0.200035 0.697035 0.598433 0.44287
C_ C_ 0.11142 0.704356 0.590178 0.44287
C_ C_ 0.101504 0.702695 0.619985 -0.05681
C_ C_ 0.0531216 0.70885 0.631461 -0.08735
C_ C_ 0.0459957 0.709153 0.661189 -0.08735
C_ C_ 0.0869411 0.700003 0.680037 -0.05681
C_ C_ 0.135369 0.691086 0.669517 -0.05681
C_ C_ 0.143098 0.696133 0.639825 -0.05681
C_ C_ 0.191188 0.691452 0.627427 -0.05681
C_ C_ 0.231324 0.684354 0.646778 -0.08735
C_ C_ 0.224928 0.682908 0.67691 -0.08735
C_ C_ 0.175731 0.684839 0.68811 -0.05681
C_ C_ 0.165699 0.678698 0.71857 0.44287
C_ C_ 0.0787805 0.690255 0.710354 0.44287
C_ C_ 0.108852 0.671419 0.757998 0.18498
C_ C_ 0.0868522 0.624068 0.764674 -0.08735
C_ C_ 0.073441 0.608399 0.792075 -0.08735
C_ C_ 0.0835186 0.642921 0.814645 -0.08735
C_ C_ 0.112738 0.688185 0.810943 0.18498
C_ C_ 0.121908 0.705254 0.782018 -0.05681
C_ C_ 0.149303 0.74993 0.777738 -0.08735
C_ C_ 0.172228 0.773131 0.801437 -0.08735
C_ C_ 0.164361 0.753821 0.829498 0.1947
C_ C_ 0.275914 0.824816 0.655818 0.68181
C_ C_ 0.22 0.829908 0.65116 -0.05681
C_ C_ 0.186266 0.828295 0.674286 -0.08735
C_ C_ 0.133445 0.832417 0.669616 -0.05681
C_ C_ 0.11493 0.833554 0.640905 -0.05681
C_ C_ 0.148636 0.830689 0.618715 -0.08735
C_ C_ 0.200588 0.828176 0.623456 -0.08735
C_ C_ 0.103667 0.850791 0.691956 -0.08735
C_ C_ 0.0505615 0.847212 0.687297 -0.08735
C_ C_ 0.0301062 0.839721 0.659647 -0.05681
C_ C_ 0.0627128 0.841367 0.636253 -0.08735
C_ C_ 0.374296 0.721608 0.663529 0.68181
C_ C_ 0.37054 0.916611 0.647092 0.68181
C_ C_ 0.367174 0.971532 0.645101 -0.05681
C_ C_ 0.355622 0.507191 0.672386 -0.08735
C_ C_ 0.36392 0.560912 0.670209 -0.05681
C_ C_ 0.373561 0.58211 0.643839 -0.05681
C_ C_ 0.369348 0.552996 0.618821 -0.08735
C_ C_ 0.378359 0.994192 0.617293 -0.08735
C_ C_ 0.361982 0.590014 0.695009 -0.08735
C_ C_ 0.368021 0.642395 0.693824 -0.08735
C_ C_ 0.377863 0.665623 0.666973 -0.05681
C_ C_ 0.383104 0.635232 0.642896 -0.08735
C_ C_ 0.473827 0.826521 0.659598 0.68181
C_ C_ 0.412793 0.880889 0.733296 0.1947
C_ C_ 0.424611 0.896685 0.76119 -0.08735
C_ C_ 0.395828 0.878099 0.784754 -0.08735
C_ C_ 0.364488 0.83593 0.780238 -0.05681
C_ C_ 0.355905 0.820329 0.750512 0.18498
C_ C_ 0.325106 0.778776 0.744765 -0.08735
C_ C_ 0.298156 0.753644 0.768179 -0.08735
C_ C_ 0.309007 0.768414 0.795753 -0.08735
C_ C_ 0.338987 0.811739 0.803941 0.18498
C_ C_ 0.313939 0.840204 0.851155 0.44287
C_ C_ 0.395505 0.806234 0.844403 0.44287
C_ C_ 0.406685 0.81181 0.874888 -0.05681
C_ C_ 0.452717 0.797133 0.887761 -0.08735
C_ C_ 0.461427 0.801097 0.917401 -0.08735
C_ C_ 0.420139 0.813955 0.934206 -0.05681
C_ C_ 0.373677 0.830869 0.922398 -0.05681
C_ C_ 0.366131 0.827323 0.892371 -0.05681
C_ C_ 0.318793 0.838825 0.881566 -0.05681
C_ C_ 0.283098 0.864743 0.89971 -0.08735
C_ C_ 0.287141 0.858283 0.929059 -0.08735
C_ C_ 0.33588 0.849468 0.940291 -0.05681
C_ C_ 0.342191 0.846761 0.970455 0.44287
C_ C_ 0.426919 0.815615 0.964934 0.44287
C_ C_ 0.409808 0.843936 0.512513 0.18498
C_ C_ 0.440663 0.888966 0.519772 -0.08735
C_ C_ 0.453865 0.900176 0.547735 -0.08735
C_ C_ 0.43531 0.86805 0.570055 -0.08735
C_ C_ 0.401144 0.829239 0.564394 0.18498
C_ C_ 0.392065 0.813541 0.535112 -0.05681
C_ C_ 0.359576 0.772177 0.53104 -0.08735
C_ C_ 0.340707 0.743226 0.55402 -0.08735
C_ C_ 0.349579 0.761646 0.581633 0.1947
N_ N_ 0.129854 0.664541 0.978589 -0.29468
N_ N_ 0.159603 0.707462 0.580486 -0.17154
N_ N_ 0.118199 0.68233 0.728241 -0.17154
N_ N_ 0.135311 0.712326 0.834879 -0.29468
N_ N_ 0.382182 0.841659 0.728474 -0.29468
N_ N_ 0.350755 0.822266 0.833768 -0.17154
N_ N_ 0.387159 0.830055 0.981944 -0.17154
N_ N_ 0.379357 0.803283 0.586 -0.29468
O_ O_ 0.213046 0.68612 0.93128 -0.58347
O_ O_ 0.205576 0.68742 0.884507 -0.58347
O_ O_ 0.135845 0.757871 0.935798 -0.58347
O_ O_ 0.123422 0.766097 0.888184 -0.58347
O_ O_ 0.144407 0.606019 0.924435 -0.58347
O_ O_ 0.137562 0.609162 0.877844 -0.58347
O_ O_ 0.0647396 0.676507 0.926791 -0.58347
O_ O_ 0.0547044 0.688204 0.879719 -0.58347
O_ O_ 0.0715567 0.70504 0.572652 -0.46727
O_ O_ 0.244644 0.689292 0.586203 -0.46727
O_ O_ 0.0337315 0.696411 0.722525 -0.46727
O_ O_ 0.201069 0.66457 0.736543 -0.46727
O_ O_ 0.295737 0.835416 0.679673 -0.58347
O_ O_ 0.30433 0.815651 0.634121 -0.58347
O_ O_ 0.36528 0.747082 0.685571 -0.58347
O_ O_ 0.385595 0.741735 0.639442 -0.58347
O_ O_ 0.376625 0.898655 0.672137 -0.58347
O_ O_ 0.376772 0.891049 0.625305 -0.58347
O_ O_ 0.446538 0.827081 0.681455 -0.58347
O_ O_ 0.455749 0.823187 0.635421 -0.58347
O_ O_ 0.428266 0.78195 0.828082 -0.46727
O_ O_ 0.268336 0.845074 0.840786 -0.46727
O_ O_ 0.46458 0.79361 0.977802 -0.46727
O_ O_ 0.301689 0.852938 0.987752 -0.46727
Zn Zn 0.629925 0.181437 0.384514 0.90689
Zn Zn 0.637041 0.175437 0.431999 0.90689
Zn Zn 0.870069 0.308375 0.133473 0.90689
Zn Zn 0.855508 0.318173 0.181993 0.90689
H_ H_ 0.804479 0.174651 0.444655 0.11455
H_ H_ 0.874373 0.1577 0.346037 0.11455
H_ H_ 0.783383 0.172186 0.353834 0.11455
H_ H_ 0.893626 0.19283 0.461151 0.11455
H_ H_ 0.979953 0.18031 0.45444 0.11455
H_ H_ 0.961048 0.165512 0.362887 0.11455
H_ H_ 0.658166 0.00738517 0.439453 0.11455
H_ H_ 0.628859 0.427311 0.34859 0.11455
H_ H_ 0.601705 0.0255007 0.354031 0.11455
H_ H_ 0.647934 0.422833 0.466444 0.11455
H_ H_ 0.646547 0.33505 0.462537 0.11455
H_ H_ 0.623577 0.34741 0.371591 0.11455
H_ H_ 0.590728 0.10542 0.471929 0.11455
H_ H_ 0.551662 0.0748893 0.0128059 0.11455
H_ H_ 0.591788 0.117001 0.0549151 0.11455
H_ H_ 0.691767 0.253657 0.472928 0.11455
H_ H_ 0.711879 0.293428 0.0160618 0.11455
H_ H_ 0.680847 0.27448 0.0645169 0.11455
H_ H_ 0.504463 0.199893 0.129742 0.11455
H_ H_ 0.501655 0.180824 0.182152 0.11455
H_ H_ 0.75274 0.141645 0.134913 0.11455
H_ H_ 0.746703 0.131613 0.185702 0.11455
H_ H_ 0.595578 0.0647308 0.252508 0.11455
H_ H_ 0.563009 0.0484068 0.301073 0.11455
H_ H_ 0.579495 0.106401 0.340724 0.11455
H_ H_ 0.66041 0.23716 0.25913 0.11455
H_ H_ 0.681093 0.287498 0.30111 0.11455
H_ H_ 0.673358 0.256594 0.348353 0.11455
H_ H_ 0.690846 0.277752 0.193772 0.11455
H_ H_ 0.624068 0.330282 0.0970937 0.11455
H_ H_ 0.720247 0.314393 0.104849 0.11455
H_ H_ 0.603152 0.29416 0.210917 0.11455
H_ H_ 0.512758 0.292225 0.202427 0.11455
H_ H_ 0.535554 0.329912 0.11596 0.11455
H_ H_ 0.847793 0.484897 0.191887 0.11455
H_ H_ 0.900326 0.0580732 0.0994157 0.11455
H_ H_ 0.832726 0.467403 0.100172 0.11455
H_ H_ 0.858144 0.0651689 0.21351 0.11455
H_ H_ 0.865721 0.157674 0.212512 0.11455
H_ H_ 0.901231 0.144626 0.12167 0.11455
H_ H_ 0.891406 0.401321 0.218088 0.11455
H_ H_ 0.886011 0.438869 0.266689 0.11455
H_ H_ 0.881878 0.375646 0.30737 0.11455
H_ H_ 0.812222 0.241867 0.22501 0.11455
H_ H_ 0.79235 0.184882 0.264677 0.11455
H_ H_ 0.808139 0.208628 0.314077 0.11455
H_ H_ 0.989904 0.313089 0.370759 0.11455
H_ H_ 0.00280432 0.326762 0.422511 0.11455
H_ H_ 0.737774 0.305231 0.394974 0.11455
H_ H_ 0.753273 0.322035 0.444103 0.11455
H_ H_ 0.953502 0.403806 0.500914 0.11455
H_ H_ 0.951297 0.438271 0.0488439 0.11455
H_ H_ 0.921461 0.387503 0.0897184 0.11455
H_ H_ 0.83246 0.255221 0.00612891 0.11455
H_ H_ 0.79352 0.216966 0.0489051 0.11455
H_ H_ 0.822157 0.233737 0.0975821 0.11455
C_ C_ 0.7297 0.174308 0.404166 0.68181
C_ C_ 0.786705 0.172068 0.400165 -0.05681
C_ C_ 0.822132 0.174252 0.423017 -0.08735
C_ C_ 0.874105 0.17541 0.418455 -0.05681
C_ C_ 0.89341 0.170506 0.390293 -0.05681
C_ C_ 0.858872 0.163388 0.367626 -0.08735
C_ C_ 0.806901 0.163196 0.372453 -0.08735
C_ C_ 0.907338 0.177209 0.441077 -0.08735
C_ C_ 0.957473 0.174983 0.436386 -0.08735
C_ C_ 0.978844 0.173419 0.408271 -0.05681
C_ C_ 0.945849 0.168341 0.385506 -0.08735
C_ C_ 0.627974 0.277832 0.413703 0.68181
C_ C_ 0.630118 0.0820352 0.401816 0.68181
C_ C_ 0.627256 0.0248794 0.398019 -0.05681
C_ C_ 0.653366 0.491555 0.42312 -0.08735
C_ C_ 0.646506 0.439623 0.420682 -0.05681
C_ C_ 0.637979 0.416412 0.393324 -0.05681
C_ C_ 0.633368 0.445894 0.368939 -0.08735
C_ C_ 0.63705 0.498526 0.371364 -0.08735
C_ C_ 0.650114 0.407703 0.445488 -0.08735
C_ C_ 0.646783 0.356131 0.442882 -0.08735
C_ C_ 0.631556 0.332832 0.416157 -0.05681
C_ C_ 0.632247 0.363898 0.391689 -0.08735
C_ C_ 0.535511 0.173679 0.41418 0.68181
C_ C_ 0.6092 0.128683 0.48752 0.1947
C_ C_ 0.576341 0.107401 0.0102687 -0.08735
C_ C_ 0.599734 0.129276 0.0338029 -0.08735
C_ C_ 0.626672 0.176288 0.0290849 -0.05681
C_ C_ 0.63634 0.192138 1.000173816 0.18498
C_ C_ 0.679192 0.247883 0.493932 -0.08735
C_ C_ 0.681106 0.264887 0.0183579 -0.08735
C_ C_ 0.666031 0.250956 0.0469051 -0.08735
C_ C_ 0.642111 0.204712 0.052114 0.18498
C_ C_ 0.677797 0.179324 0.0980822 0.44287
C_ C_ 0.591528 0.195317 0.0968857 0.44287
C_ C_ 0.585957 0.18762 0.12691 -0.05681
C_ C_ 0.538964 0.190895 0.140756 -0.08735
C_ C_ 0.537995 0.187108 0.17031 -0.08735
C_ C_ 0.58203 0.180777 0.186864 -0.05681
C_ C_ 0.624977 0.166657 0.172624 -0.05681
C_ C_ 0.628342 0.172563 0.142262 -0.05681
C_ C_ 0.674693 0.165138 0.127721 -0.05681
C_ C_ 0.717636 0.147437 0.144664 -0.08735
C_ C_ 0.714504 0.142599 0.174 -0.08735
C_ C_ 0.66888 0.156113 0.188144 -0.05681
C_ C_ 0.665041 0.151846 0.218004 0.44287
C_ C_ 0.579714 0.173626 0.217235 0.44287
C_ C_ 0.617284 0.143163 0.262115 0.18498
C_ C_ 0.59761 0.0936639 0.269153 -0.08735
C_ C_ 0.585246 0.0816882 0.29721 -0.08735
C_ C_ 0.588115 0.11704 0.318503 -0.08735
C_ C_ 0.61485 0.160922 0.313172 0.18498
C_ C_ 0.624192 0.177417 0.285356 -0.05681
C_ C_ 0.650971 0.222757 0.280533 -0.08735
C_ C_ 0.668529 0.250867 0.30453 -0.08735
C_ C_ 0.664019 0.230438 0.331678 0.1947
C_ C_ 0.766178 0.300469 0.156075 0.68181
C_ C_ 0.710154 0.300219 0.150466 -0.05681
C_ C_ 0.675857 0.292099 0.172923 -0.08735
C_ C_ 0.622786 0.302277 0.167606 -0.05681
C_ C_ 0.604025 0.315298 0.139792 -0.05681
C_ C_ 0.638435 0.319624 0.117676 -0.08735
C_ C_ 0.692047 0.309445 0.121887 -0.08735
C_ C_ 0.588496 0.301259 0.190526 -0.08735
C_ C_ 0.537917 0.300528 0.185687 -0.08735
C_ C_ 0.517296 0.312174 0.157937 -0.05681
C_ C_ 0.549974 0.323513 0.136224 -0.08735
C_ C_ 0.880748 0.21498 0.162918 0.68181
C_ C_ 0.843437 0.412276 0.150781 0.68181
C_ C_ 0.838882 0.469175 0.147001 -0.05681
C_ C_ 0.863819 -0.00031999999999998696 0.172871 -0.08735
C_ C_ 0.874844 0.0520883 0.170692 -0.05681
C_ C_ 0.892361 0.0727336 0.146074 -0.05681
C_ C_ 0.899406 0.0426276 0.12128 -0.08735
C_ C_ 0.839156 0.491088 0.119306 -0.08735
C_ C_ 0.863223 0.0831053 0.193467 -0.08735
C_ C_ 0.870492 0.135279 0.192583 -0.08735
C_ C_ 0.88128 0.158441 0.166001 -0.05681
C_ C_ 0.892579 0.126694 0.143019 -0.08735
C_ C_ 0.960256 0.330357 0.161503 0.68181
C_ C_ 0.873124 0.381296 0.235272 0.1947
C_ C_ 0.873792 0.399488 0.263255 -0.08735
C_ C_ 0.867422 0.366179 0.28622 -0.08735
C_ C_ 0.854022 0.314544 0.281099 -0.05681
C_ C_ 0.845517 0.298872 0.251884 0.18498
C_ C_ 0.828117 0.250373 0.245495 -0.08735
C_ C_ 0.81248 0.219 0.267676 -0.08735
C_ C_ 0.819382 0.233127 0.297304 -0.08735
C_ C_ 0.843503 0.280303 0.304094 0.18498
C_ C_ 0.811386 0.301505 0.351535 0.44287
C_ C_ 0.899797 0.293688 0.344371 0.44287
C_ C_ 0.908119 0.302248 0.373469 -0.05681
C_ C_ 0.957784 0.309914 0.3848 -0.08735
C_ C_ 0.964806 0.320195 0.413531 -0.08735
C_ C_ 0.925006 0.317082 0.433449 -0.05681
C_ C_ 0.876229 0.319957 0.422359 -0.05681
C_ C_ 0.867158 0.312201 0.39211 -0.05681
C_ C_ 0.818556 0.311548 0.380774 -0.05681
C_ C_ 0.777856 0.312741 0.400902 -0.08735
C_ C_ 0.785814 0.318559 0.429933 -0.08735
C_ C_ 0.835343 0.321413 0.440728 -0.05681
C_ C_ 0.844601 0.337951 0.469449 0.44287
C_ C_ 0.931617 0.325092 0.46298 0.44287
C_ C_ 0.895211 0.342171 0.0102441 0.18498
C_ C_ 0.921613 0.388055 0.0171072 -0.08735
C_ C_ 0.93238 0.402029 0.0444282 -0.08735
C_ C_ 0.914977 0.37162 0.0681322 -0.08735
C_ C_ 0.88709 0.326709 0.0624891 0.18498
C_ C_ 0.875436 0.313484 0.0331349 -0.05681
C_ C_ 0.842128 0.271369 0.0279841 -0.08735
C_ C_ 0.822551 0.243986 0.0510498 -0.08735
C_ C_ 0.837957 0.256609 0.0791194 0.1947
N_ N_ 0.637449 0.170529 0.480721 -0.29468
N_ N_ 0.636499 0.190043 0.082959 -0.17154
N_ N_ 0.620526 0.157172 0.231425 -0.17154
N_ N_ 0.629635 0.192389 0.336358 -0.29468
N_ N_ 0.855791 0.332907 0.229907 -0.29468
N_ N_ 0.853046 0.291228 0.333963 -0.17154
N_ N_ 0.891677 0.335237 0.480399 -0.17154
N_ N_ 0.867234 0.29797 0.0840208 -0.29468
O_ O_ 0.712299 0.173986 0.429334 -0.58347
O_ O_ 0.703059 0.187824 0.38263 -0.58347
O_ O_ 0.637695 0.250267 0.435683 -0.58347
O_ O_ 0.619533 0.257519 0.38914 -0.58347
O_ O_ 0.63651 0.0994877 0.426464 -0.58347
O_ O_ 0.639393 0.109798 0.380554 -0.58347
O_ O_ 0.565057 0.178308 0.435701 -0.58347
O_ O_ 0.552458 0.174597 0.389172 -0.58347
O_ O_ 0.553779 0.212345 0.0824597 -0.46727
O_ O_ 0.723018 0.173913 0.08647 -0.46727
O_ O_ 0.537172 0.177193 0.230583 -0.46727
O_ O_ 0.704644 0.141398 0.233563 -0.46727
O_ O_ 0.782305 0.306314 0.181413 -0.58347
O_ O_ 0.795841 0.296333 0.134722 -0.58347
O_ O_ 0.872996 0.242766 0.184215 -0.58347
O_ O_ 0.876452 0.233193 0.137485 -0.58347
O_ O_ 0.836015 0.389141 0.17497 -0.58347
O_ O_ 0.858604 0.386388 0.129658 -0.58347
O_ O_ 0.931908 0.340401 0.183096 -0.58347
O_ O_ 0.94069 0.321408 0.13715 -0.58347
O_ O_ 0.938734 0.296856 0.326817 -0.46727
O_ O_ 0.767944 0.313065 0.340141 -0.46727
O_ O_ 0.977905 0.323641 0.472392 -0.46727
O_ O_ 0.806921 0.349481 0.486195 -0.46727
Zn Zn 0.612201 0.187536 0.882715 0.90689
Zn Zn 0.621722 0.178835 0.930011 0.90689
Zn Zn 0.86818 0.319863 0.633228 0.90689
Zn Zn 0.862919 0.325504 0.680509 0.90689
H_ H_ 0.791798 0.19966 0.943009 0.11455
H_ H_ 0.861707 0.16332 0.845632 0.11455
H_ H_ 0.768286 0.170455 0.851547 0.11455
H_ H_ 0.882471 0.165778 0.962769 0.11455
H_ H_ 0.969963 0.151348 0.953798 0.11455
H_ H_ 0.944158 0.164669 0.864682 0.11455
H_ H_ 0.615402 0.0127984 0.943355 0.11455
H_ H_ 0.642384 0.432756 0.846209 0.11455
H_ H_ 0.609012 0.0235447 0.851867 0.11455
H_ H_ 0.62239 0.432134 0.964641 0.11455
H_ H_ 0.608127 0.342456 0.96169 0.11455
H_ H_ 0.653425 0.350035 0.871557 0.11455
H_ H_ 0.557751 0.113871 0.966618 0.11455
H_ H_ 0.574364 0.0836477 0.521678 0.11455
H_ H_ 0.620969 0.131835 0.559868 0.11455
H_ H_ 0.676856 0.24314 0.97392 0.11455
H_ H_ 0.724428 0.312418 0.512475 0.11455
H_ H_ 0.69523 0.297761 0.562242 0.11455
H_ H_ 0.508835 0.213911 0.620327 0.11455
H_ H_ 0.494788 0.200628 0.673572 0.11455
H_ H_ 0.757151 0.195217 0.64291 0.11455
H_ H_ 0.744526 0.177426 0.69403 0.11455
H_ H_ 0.553443 0.0953212 0.745255 0.11455
H_ H_ 0.539768 0.0681873 0.797374 0.11455
H_ H_ 0.550493 0.126225 0.836201 0.11455
H_ H_ 0.649122 0.252213 0.75801 0.11455
H_ H_ 0.686809 0.29134 0.800392 0.11455
H_ H_ 0.673785 0.256994 0.847423 0.11455
H_ H_ 0.692012 0.299193 0.690404 0.11455
H_ H_ 0.63428 0.367639 0.598118 0.11455
H_ H_ 0.72239 0.373994 0.611337 0.11455
H_ H_ 0.60805 0.308426 0.711896 0.11455
H_ H_ 0.516545 0.324758 0.70375 0.11455
H_ H_ 0.542403 0.348779 0.614207 0.11455
H_ H_ 0.866616 0.48903 0.693835 0.11455
H_ H_ 0.888175 0.0664604 0.598289 0.11455
H_ H_ 0.859563 0.472378 0.601561 0.11455
H_ H_ 0.82714 0.0741241 0.710797 0.11455
H_ H_ 0.832085 0.169114 0.70675 0.11455
H_ H_ 0.902332 0.154267 0.62404 0.11455
H_ H_ 0.934515 0.383176 0.715076 0.11455
H_ H_ 0.95497 0.416343 0.761888 0.11455
H_ H_ 0.909909 0.380108 0.805141 0.11455
H_ H_ 0.797594 0.271577 0.722838 0.11455
H_ H_ 0.753316 0.227689 0.76366 0.11455
H_ H_ 0.781508 0.244414 0.813025 0.11455
H_ H_ 0.983022 0.276936 0.874072 0.11455
H_ H_ -0.005911 0.284971 0.923656 0.11455
H_ H_ 0.744319 0.369255 0.886332 0.11455
H_ H_ 0.749993 0.365827 0.939267 0.11455
H_ H_ 0.946483 0.405533 1.000246859 0.11455
H_ H_ 0.963284 0.43417 0.550862 0.11455
H_ H_ 0.916308 0.39347 0.590047 0.11455
H_ H_ 0.84308 0.258464 0.509568 0.11455
H_ H_ 0.818359 0.204612 0.549547 0.11455
H_ H_ 0.826723 0.239746 0.597047 0.11455
C_ C_ 0.716283 0.180692 0.902901 0.68181
C_ C_ 0.773493 0.183947 0.89898 -0.05681
C_ C_ 0.806716 0.184087 0.923329 -0.08735
C_ C_ 0.859045 0.170654 0.919449 -0.05681
C_ C_ 0.877853 0.165009 0.890986 -0.05681
C_ C_ 0.844511 0.165512 0.867201 -0.08735
C_ C_ 0.792217 0.170345 0.87201 -0.08735
C_ C_ 0.893573 0.163676 0.941404 -0.08735
C_ C_ 0.944497 0.148738 0.936544 -0.08735
C_ C_ 0.964268 0.157125 0.908188 -0.05681
C_ C_ 0.930332 0.158448 0.8856 -0.08735
C_ C_ 0.620279 0.282049 0.912646 0.68181
C_ C_ 0.61316 0.082953 0.90062 0.68181
C_ C_ 0.613074 0.0251237 0.897565 -0.05681
C_ C_ 0.642351 0.496727 0.921851 -0.08735
C_ C_ 0.640365 0.444858 0.919469 -0.05681
C_ C_ 0.644039 0.421559 0.892926 -0.05681
C_ C_ 0.650024 0.449967 0.868133 -0.08735
C_ C_ 0.653108 0.502361 0.870587 -0.08735
C_ C_ 0.630155 0.414438 0.94396 -0.08735
C_ C_ 0.622812 0.362445 0.942248 -0.08735
C_ C_ 0.629457 0.338449 0.914892 -0.05681
C_ C_ 0.64291 0.367953 0.891263 -0.08735
C_ C_ 0.518245 0.189187 0.910536 0.68181
C_ C_ 0.583677 0.125538 0.982497 0.1947
C_ C_ 0.600814 0.116898 0.51645 -0.08735
C_ C_ 0.621805 0.145503 0.538133 -0.08735
C_ C_ 0.642846 0.192803 0.530433 -0.05681
C_ C_ 0.654163 0.203362 0.501413 0.18498
C_ C_ 0.665236 0.234604 0.995462 -0.08735
C_ C_ 0.698101 0.281008 0.517159 -0.08735
C_ C_ 0.682702 0.2717 0.545745 -0.08735
C_ C_ 0.654924 0.227696 0.552951 0.18498
C_ C_ 0.687712 0.208195 0.6018 0.44287
C_ C_ 0.598512 0.218057 0.592742 0.44287
C_ C_ 0.588945 0.208401 0.622271 -0.05681
C_ C_ 0.539743 0.205048 0.634319 -0.08735
C_ C_ 0.531295 0.200141 0.664316 -0.08735
C_ C_ 0.572397 0.198939 0.683066 -0.05681
C_ C_ 0.622803 0.199688 0.671371 -0.05681
C_ C_ 0.630555 0.201632 0.641373 -0.05681
C_ C_ 0.679828 0.201772 0.631116 -0.05681
C_ C_ 0.720601 0.193279 0.650371 -0.08735
C_ C_ 0.713749 0.185951 0.680067 -0.08735
C_ C_ 0.664086 0.190948 0.690829 -0.05681
C_ C_ 0.651443 0.175115 0.719474 0.44287
C_ C_ 0.562659 0.192831 0.712983 0.44287
C_ C_ 0.593903 0.162919 0.75868 0.18498
C_ C_ 0.567895 0.117653 0.762959 -0.08735
C_ C_ 0.557611 0.104448 0.79209 -0.08735
C_ C_ 0.569345 0.13331 0.815356 -0.08735
C_ C_ 0.599205 0.17732 0.81051 0.18498
C_ C_ 0.609328 0.194335 0.782453 -0.05681
C_ C_ 0.636187 0.239265 0.779009 -0.08735
C_ C_ 0.659223 0.26314 0.80227 -0.08735
C_ C_ 0.654225 0.241614 0.829042 0.1947
C_ C_ 0.768814 0.327543 0.65409 0.68181
C_ C_ 0.714397 0.331597 0.650212 -0.05681
C_ C_ 0.679459 0.3151 0.670774 -0.08735
C_ C_ 0.627306 0.325557 0.667614 -0.05681
C_ C_ 0.608727 0.337786 0.640121 -0.05681
C_ C_ 0.643943 0.360306 0.620684 -0.08735
C_ C_ 0.695749 0.35784 0.626366 -0.08735
C_ C_ 0.592854 0.317649 0.690079 -0.08735
C_ C_ 0.540724 0.321476 0.684626 -0.08735
C_ C_ 0.523794 0.328561 0.657454 -0.05681
C_ C_ 0.557493 0.33915 0.635143 -0.08735
C_ C_ 0.872791 0.225468 0.662806 0.68181
C_ C_ 0.864182 0.420618 0.651479 0.68181
C_ C_ 0.866193 0.475524 0.647358 -0.05681
C_ C_ 0.85882 0.00865222 0.670965 -0.08735
C_ C_ 0.85401 0.0610063 0.667734 -0.05681
C_ C_ 0.874713 0.083159 0.642698 -0.05681
C_ C_ 0.881393 0.0518322 0.618781 -0.08735
C_ C_ 0.863858 0.498297 0.620389 -0.08735
C_ C_ 0.8399 0.091371 0.690954 -0.08735
C_ C_ 0.84202 0.146295 0.688706 -0.08735
C_ C_ 0.86339 0.168241 0.664142 -0.05681
C_ C_ 0.886655 0.136522 0.642033 -0.08735
C_ C_ 0.961912 0.316836 0.652863 0.68181
C_ C_ 0.911359 0.370552 0.732305 0.1947
C_ C_ 0.923676 0.389472 0.759684 -0.08735
C_ C_ 0.900468 0.367735 0.784207 -0.08735
C_ C_ 0.862596 0.327583 0.780007 -0.05681
C_ C_ 0.848182 0.315813 0.750316 0.18498
C_ C_ 0.808131 0.280344 0.744826 -0.08735
C_ C_ 0.784529 0.25555 0.767775 -0.08735
C_ C_ 0.800393 0.265792 0.796121 -0.08735
C_ C_ 0.836323 0.302161 0.80261 0.18498
C_ C_ 0.810369 0.329537 0.849656 0.44287
C_ C_ 0.892259 0.297524 0.844179 0.44287
C_ C_ 0.902963 0.305995 0.873359 -0.05681
C_ C_ 0.951409 0.294247 0.885346 -0.08735
C_ C_ 0.957187 0.293538 0.914301 -0.08735
C_ C_ 0.914805 0.304594 0.933691 -0.05681
C_ C_ 0.867007 0.316645 0.921642 -0.05681
C_ C_ 0.861121 0.315696 0.891007 -0.05681
C_ C_ 0.816458 0.332528 0.879591 -0.05681
C_ C_ 0.775924 0.348838 0.896534 -0.08735
C_ C_ 0.78201 0.351944 0.926342 -0.08735
C_ C_ 0.82819 0.33723 0.938502 -0.05681
C_ C_ 0.837639 0.34025 0.96858 0.44287
C_ C_ 0.922136 0.312663 0.963221 0.44287
C_ C_ 0.900457 0.343884 0.511223 0.18498
C_ C_ 0.934083 0.38283 0.5177 -0.08735
C_ C_ 0.939433 0.399277 0.546405 -0.08735
C_ C_ 0.909191 0.380442 0.567583 -0.08735
C_ C_ 0.887189 0.332922 0.563017 0.18498
C_ C_ 0.878307 0.314512 0.534157 -0.05681
C_ C_ 0.851711 0.26935 0.529437 -0.08735
C_ C_ 0.833355 0.243206 0.552934 -0.08735
C_ C_ 0.838762 0.264163 0.58044 0.1947
N_ N_ 0.616751 0.165247 0.977757 -0.29468
N_ N_ 0.648301 0.214343 0.583265 -0.17154
N_ N_ 0.602785 0.180353 0.730601 -0.17154
N_ N_ 0.622072 0.201841 0.832729 -0.29468
N_ N_ 0.873471 0.337737 0.728111 -0.29468
N_ N_ 0.849138 0.312533 0.83232 -0.17154
N_ N_ 0.884608 0.330801 0.980609 -0.17154
N_ N_ 0.863211 0.307556 0.58564 -0.29468
O_ O_ 0.697361 0.174905 0.927681 -0.58347
O_ O_ 0.687697 0.186674 0.881362 -0.58347
O_ O_ 0.627151 0.252895 0.934925 -0.58347
O_ O_ 0.611844 0.262767 0.88909 -0.58347
O_ O_ 0.611206 0.101528 0.925489 -0.58347
O_ O_ 0.617336 0.110908 0.878726 -0.58347
O_ O_ 0.545145 0.181743 0.932441 -0.58347
O_ O_ 0.536988 0.185856 0.885657 -0.58347
O_ O_ 0.560239 0.215893 0.573389 -0.46727
O_ O_ 0.734454 0.208332 0.591036 -0.46727
O_ O_ 0.515693 0.197063 0.724029 -0.46727
O_ O_ 0.688589 0.158784 0.735032 -0.46727
O_ O_ 0.788495 0.330262 0.678467 -0.58347
O_ O_ 0.794379 0.3122 0.633975 -0.58347
O_ O_ 0.854773 0.251713 0.682873 -0.58347
O_ O_ 0.883378 0.244538 0.638762 -0.58347
O_ O_ 0.872801 0.400528 0.675546 -0.58347
O_ O_ 0.853861 0.392957 0.630228 -0.58347
O_ O_ 0.936169 0.316555 0.67499 -0.58347
O_ O_ 0.942515 0.327779 0.629824 -0.58347
O_ O_ 0.927309 0.277037 0.829477 -0.46727
O_ O_ 0.763279 0.330877 0.839382 -0.46727
O_ O_ 0.966481 0.302935 0.973773 -0.46727
O_ O_ 0.802492 0.363693 0.984684 -0.46727
Zn Zn 0.636417 0.68136 0.382184 0.90689
Zn Zn 0.641256 0.677569 0.429937 0.90689
Zn Zn 0.873972 0.806431 0.131113 0.90689
Zn Zn 0.8635 0.812626 0.178902 0.90689
H_ H_ 0.81046 0.689284 0.447039 0.11455
H_ H_ 0.883407 0.684844 0.349208 0.11455
H_ H_ 0.794754 0.655777 0.357153 0.11455
H_ H_ 0.897725 0.700005 0.465503 0.11455
H_ H_ 0.991079 0.694407 0.459317 0.11455
H_ H_ 0.969961 0.689663 0.368169 0.11455
H_ H_ 0.652866 0.508853 0.443609 0.11455
H_ H_ 0.595242 0.931598 0.351136 0.11455
H_ H_ 0.630427 0.518209 0.352816 0.11455
H_ H_ 0.630138 0.927175 0.465613 0.11455
H_ H_ 0.626974 0.833517 0.461946 0.11455
H_ H_ 0.611288 0.850552 0.37036 0.11455
H_ H_ 0.576632 0.617206 0.466549 0.11455
H_ H_ 0.581293 0.564207 0.011525 0.11455
H_ H_ 0.621935 0.608505 0.0536026 0.11455
H_ H_ 0.712383 0.731776 0.473251 0.11455
H_ H_ 0.716025 0.800762 0.0149153 0.11455
H_ H_ 0.689731 0.780996 0.0618349 0.11455
H_ H_ 0.519082 0.705581 0.12434 0.11455
H_ H_ 0.507503 0.686046 0.17515 0.11455
H_ H_ 0.766582 0.660534 0.138206 0.11455
H_ H_ 0.75834 0.642619 0.187669 0.11455
H_ H_ 0.566268 0.587671 0.251138 0.11455
H_ H_ 0.562923 0.557274 0.29993 0.11455
H_ H_ 0.586063 0.613798 0.339923 0.11455
H_ H_ 0.668417 0.738213 0.258468 0.11455
H_ H_ 0.699169 0.791233 0.29837 0.11455
H_ H_ 0.680949 0.762961 0.34868 0.11455
H_ H_ 0.693643 0.781988 0.196734 0.11455
H_ H_ 0.632067 0.840155 0.0985722 0.11455
H_ H_ 0.727236 0.822836 0.107348 0.11455
H_ H_ 0.611046 0.788696 0.214962 0.11455
H_ H_ 0.521883 0.79787 0.20884 0.11455
H_ H_ 0.545163 0.837506 0.119224 0.11455
H_ H_ 0.852652 0.980333 0.192241 0.11455
H_ H_ 0.841989 0.559277 0.0929512 0.11455
H_ H_ 0.901693 0.961927 0.105639 0.11455
H_ H_ 0.871312 0.56639 0.212018 0.11455
H_ H_ 0.902165 0.652817 0.205626 0.11455
H_ H_ 0.867874 0.642394 0.114666 0.11455
H_ H_ 0.931108 0.8786 0.216107 0.11455
H_ H_ 0.940359 0.911293 0.262959 0.11455
H_ H_ 0.885553 0.879692 0.30291 0.11455
H_ H_ 0.818978 0.737778 0.225394 0.11455
H_ H_ 0.770927 0.703569 0.265215 0.11455
H_ H_ 0.786875 0.724283 0.313363 0.11455
H_ H_ 0.98292 0.816228 0.37217 0.11455
H_ H_ -0.009963000000000055 0.840839 0.421583 0.11455
H_ H_ 0.729049 0.833583 0.388752 0.11455
H_ H_ 0.739639 0.843728 0.440917 0.11455
H_ H_ 0.918694 0.919882 0.49687 0.11455
H_ H_ 0.95232 0.927049 0.0499524 0.11455
H_ H_ 0.930997 0.868026 0.0886887 0.11455
H_ H_ 0.83226 0.748057 0.00773776 0.11455
H_ H_ 0.796878 0.704559 0.0488755 0.11455
H_ H_ 0.824355 0.728209 0.0975845 0.11455
C_ C_ 0.737775 0.678221 0.404796 0.68181
C_ C_ 0.793947 0.673346 0.401981 -0.05681
C_ C_ 0.825973 0.684034 0.425375 -0.08735
C_ C_ 0.879417 0.685199 0.421871 -0.05681
C_ C_ 0.899548 0.685641 0.394294 -0.05681
C_ C_ 0.868237 0.678469 0.370701 -0.08735
C_ C_ 0.815519 0.67386 0.375284 -0.08735
C_ C_ 0.911637 0.688847 0.445521 -0.08735
C_ C_ 0.965131 0.688289 0.4411 -0.08735
C_ C_ 0.986266 0.689727 0.412893 -0.05681
C_ C_ 0.951625 0.687949 0.389873 -0.08735
C_ C_ 0.631753 0.779508 0.411186 0.68181
C_ C_ 0.644973 0.579615 0.400904 0.68181
C_ C_ 0.64498 0.522419 0.398933 -0.05681
C_ C_ 0.638556 0.991727 0.421214 -0.08735
C_ C_ 0.63095 0.940935 0.419079 -0.05681
C_ C_ 0.620009 0.919574 0.393555 -0.05681
C_ C_ 0.612258 0.950342 0.369783 -0.08735
C_ C_ 0.615314 1.00317 0.371346 -0.08735
C_ C_ 0.632583 0.909384 0.443861 -0.08735
C_ C_ 0.627695 0.856635 0.441681 -0.08735
C_ C_ 0.617773 0.835247 0.414918 -0.05681
C_ C_ 0.610903 0.866385 0.391784 -0.08735
C_ C_ 0.540164 0.677905 0.405732 0.68181
C_ C_ 0.597983 0.630619 0.484023 0.1947
C_ C_ 0.601938 0.601946 0.00874355 -0.08735
C_ C_ 0.627795 0.624408 0.0318382 -0.08735
C_ C_ 0.650646 0.672258 0.0275929 -0.05681
C_ C_ 0.656093 0.690811 0.999672 0.18498
C_ C_ 0.694881 0.728754 0.494415 -0.08735
C_ C_ 0.693712 0.768574 0.0176898 -0.08735
C_ C_ 0.677335 0.757257 0.0458758 -0.08735
C_ C_ 0.659438 0.707437 0.0517496 0.18498
C_ C_ 0.694483 0.681376 0.099552 0.44287
C_ C_ 0.607492 0.698933 0.0938988 0.44287
C_ C_ 0.599113 0.690235 0.123601 -0.05681
C_ C_ 0.548625 0.687934 0.134843 -0.08735
C_ C_ 0.543059 0.679731 0.165115 -0.08735
C_ C_ 0.585468 0.674129 0.183619 -0.05681
C_ C_ 0.633637 0.666492 0.170685 -0.05681
C_ C_ 0.641291 0.677126 0.140915 -0.05681
C_ C_ 0.688447 0.675339 0.129039 -0.05681
C_ C_ 0.729896 0.663713 0.146829 -0.08735
C_ C_ 0.724256 0.652487 0.176123 -0.08735
C_ C_ 0.675853 0.658321 0.188727 -0.05681
C_ C_ 0.667841 0.652077 0.218186 0.44287
C_ C_ 0.581922 0.673316 0.213906 0.44287
C_ C_ 0.614952 0.648951 0.260853 0.18498
C_ C_ 0.588659 0.604161 0.267758 -0.08735
C_ C_ 0.580805 0.593266 0.296581 -0.08735
C_ C_ 0.5954 0.62427 0.319033 -0.08735
C_ C_ 0.622825 0.667408 0.313513 0.18498
C_ C_ 0.633741 0.680339 0.284256 -0.05681
C_ C_ 0.657613 0.72658 0.279537 -0.08735
C_ C_ 0.679909 0.752971 0.30258 -0.08735
C_ C_ 0.672155 0.736692 0.330911 0.1947
C_ C_ 0.771865 0.801442 0.158566 0.68181
C_ C_ 0.715914 0.806065 0.153022 -0.05681
C_ C_ 0.680316 0.790661 0.174195 -0.08735
C_ C_ 0.630421 0.799251 0.170324 -0.05681
C_ C_ 0.611319 0.816689 0.143556 -0.05681
C_ C_ 0.646638 0.823709 0.120095 -0.08735
C_ C_ 0.699344 0.821418 0.124487 -0.08735
C_ C_ 0.595801 0.791093 0.193056 -0.08735
C_ C_ 0.545763 0.805365 0.190429 -0.08735
C_ C_ 0.523543 0.814529 0.162267 -0.05681
C_ C_ 0.558858 0.822887 0.13907 -0.08735
C_ C_ 0.881463 0.711394 0.157209 0.68181
C_ C_ 0.862763 0.910323 0.151285 0.68181
C_ C_ 0.870995 0.967513 0.149342 -0.05681
C_ C_ 0.851411 0.499446 0.170568 -0.08735
C_ C_ 0.865251 0.551675 0.165989 -0.05681
C_ C_ 0.868517 0.572333 0.138359 -0.05681
C_ C_ 0.851529 0.54227 0.11463 -0.08735
C_ C_ 0.890609 0.988928 0.123705 -0.08735
C_ C_ 0.879605 0.580478 0.189726 -0.08735
C_ C_ 0.891555 0.631461 0.186687 -0.08735
C_ C_ 0.885939 0.654863 0.158982 -0.05681
C_ C_ 0.874928 0.625263 0.135043 -0.08735
C_ C_ 0.967101 0.811617 0.154273 0.68181
C_ C_ 0.908993 0.860615 0.233558 0.1947
C_ C_ 0.915601 0.878714 0.261296 -0.08735
C_ C_ 0.886008 0.86162 0.28364 -0.08735
C_ C_ 0.85492 0.819681 0.279126 -0.05681
C_ C_ 0.851696 0.800131 0.250257 0.18498
C_ C_ 0.822869 0.755926 0.246302 -0.08735
C_ C_ 0.793477 0.735696 0.268578 -0.08735
C_ C_ 0.806926 0.746223 0.296315 -0.08735
C_ C_ 0.835468 0.791873 0.302238 0.18498
C_ C_ 0.801652 0.814571 0.350281 0.44287
C_ C_ 0.890708 0.806041 0.343714 0.44287
C_ C_ 0.897822 0.811299 0.37331 -0.05681
C_ C_ 0.947842 0.818227 0.384878 -0.08735
C_ C_ 0.952205 0.830442 0.414313 -0.08735
C_ C_ 0.911495 0.828239 0.432609 -0.05681
C_ C_ 0.861748 0.825259 0.421775 -0.05681
C_ C_ 0.856262 0.817558 0.391677 -0.05681
C_ C_ 0.807749 0.82183 0.380061 -0.05681
C_ C_ 0.766552 0.829545 0.397736 -0.08735
C_ C_ 0.771104 0.831128 0.427255 -0.08735
C_ C_ 0.819905 0.829293 0.439665 -0.05681
C_ C_ 0.829567 0.833874 0.469087 0.44287
C_ C_ 0.919271 0.831312 0.462414 0.44287
C_ C_ 0.884577 0.840534 0.0107282 0.18498
C_ C_ 0.91332 0.883841 0.0172426 -0.08735
C_ C_ 0.931649 0.891484 0.0457246 -0.08735
C_ C_ 0.91853 0.858539 0.0676733 -0.08735
C_ C_ 0.888394 0.815855 0.062046 0.18498
C_ C_ 0.871708 0.804192 0.0332608 -0.05681
C_ C_ 0.842892 0.759701 0.0290757 -0.08735
C_ C_ 0.817123 0.739541 0.052275 -0.08735
C_ C_ 0.831571 0.753834 0.0795311 0.1947
N_ N_ 0.633422 0.666141 0.477866 -0.29468
N_ N_ 0.653073 0.692525 0.081565 -0.17154
N_ N_ 0.621425 0.659552 0.230495 -0.17154
N_ N_ 0.642231 0.69452 0.335213 -0.29468
N_ N_ 0.877446 0.820988 0.22784 -0.29468
N_ N_ 0.843013 0.805295 0.332497 -0.17154
N_ N_ 0.877335 0.831487 0.480535 -0.17154
N_ N_ 0.868195 0.789599 0.0837918 -0.29468
O_ O_ 0.716639 0.669776 0.428564 -0.58347
O_ O_ 0.711359 0.688219 0.383313 -0.58347
O_ O_ 0.647507 0.755404 0.432266 -0.58347
O_ O_ 0.622053 0.755321 0.388846 -0.58347
O_ O_ 0.634595 0.600216 0.423646 -0.58347
O_ O_ 0.650007 0.60378 0.378385 -0.58347
O_ O_ 0.566918 0.688813 0.427216 -0.58347
O_ O_ 0.560513 0.670807 0.380901 -0.58347
O_ O_ 0.566872 0.714118 0.0788403 -0.46727
O_ O_ 0.737287 0.667606 0.087413 -0.46727
O_ O_ 0.541484 0.69103 0.225739 -0.46727
O_ O_ 0.706641 0.640572 0.235563 -0.46727
O_ O_ 0.790259 0.812891 0.182757 -0.58347
O_ O_ 0.801808 0.79586 0.13714 -0.58347
O_ O_ 0.872822 0.736518 0.180072 -0.58347
O_ O_ 0.884176 0.733223 0.133163 -0.58347
O_ O_ 0.862833 0.889754 0.17578 -0.58347
O_ O_ 0.860168 0.884528 0.128615 -0.58347
O_ O_ 0.937506 0.810872 0.175959 -0.58347
O_ O_ 0.946873 0.815573 0.129548 -0.58347
O_ O_ 0.929979 0.798938 0.32728 -0.46727
O_ O_ 0.757553 0.825544 0.338635 -0.46727
O_ O_ 0.964525 0.824997 0.472879 -0.46727
O_ O_ 0.791644 0.847134 0.486667 -0.46727
Zn Zn 0.627069 0.683703 0.880541 0.90689
Zn Zn 0.638912 0.676006 0.929559 0.90689
Zn Zn 0.878051 0.816496 0.634505 0.90689
Zn Zn 0.870121 0.829544 0.67989 0.90689
H_ H_ 0.806185 0.695861 0.944164 0.11455
H_ H_ 0.872566 0.694054 0.844004 0.11455
H_ H_ 0.779984 0.691901 0.851647 0.11455
H_ H_ 0.890367 0.689669 0.962716 0.11455
H_ H_ 0.982339 0.673922 0.95357 0.11455
H_ H_ 0.965177 0.685937 0.863046 0.11455
H_ H_ 0.654613 0.512773 0.942066 0.11455
H_ H_ 0.599412 0.93094 0.847249 0.11455
H_ H_ 0.652004 0.524185 0.85094 0.11455
H_ H_ 0.624151 0.926796 0.965163 0.11455
H_ H_ 0.623823 0.83466 0.960025 0.11455
H_ H_ 0.603599 0.846686 0.868676 0.11455
H_ H_ 0.585836 0.605075 0.963311 0.11455
H_ H_ 0.570055 0.576438 0.515872 0.11455
H_ H_ 0.603822 0.626161 0.555973 0.11455
H_ H_ 0.696108 0.742982 0.974787 0.11455
H_ H_ 0.731005 0.793986 0.510404 0.11455
H_ H_ 0.711309 0.779127 0.559731 0.11455
H_ H_ 0.510286 0.709855 0.619654 0.11455
H_ H_ 0.491998 0.707521 0.669788 0.11455
H_ H_ 0.757359 0.672395 0.639567 0.11455
H_ H_ 0.744949 0.669084 0.691693 0.11455
H_ H_ 0.559224 0.610766 0.745947 0.11455
H_ H_ 0.551658 0.571859 0.794589 0.11455
H_ H_ 0.579741 0.617739 0.836148 0.11455
H_ H_ 0.638769 0.773379 0.761407 0.11455
H_ H_ 0.676328 0.814318 0.800369 0.11455
H_ H_ 0.660808 0.775451 0.850486 0.11455
H_ H_ 0.706607 0.823497 0.693228 0.11455
H_ H_ 0.632557 0.844441 0.597193 0.11455
H_ H_ 0.730279 0.839711 0.604795 0.11455
H_ H_ 0.619519 0.832274 0.71531 0.11455
H_ H_ 0.527037 0.821734 0.708337 0.11455
H_ H_ 0.547323 0.836614 0.617869 0.11455
H_ H_ 0.850194 0.990727 0.69067 0.11455
H_ H_ 0.873532 0.564925 0.597164 0.11455
H_ H_ 0.866295 0.979103 0.601659 0.11455
H_ H_ 0.867547 0.575183 0.715214 0.11455
H_ H_ 0.892545 0.66848 0.709343 0.11455
H_ H_ 0.86969 0.652304 0.619203 0.11455
H_ H_ 0.923691 0.900924 0.719501 0.11455
H_ H_ 0.933963 0.92659 0.767792 0.11455
H_ H_ 0.875941 0.894316 0.804683 0.11455
H_ H_ 0.807229 0.76174 0.719767 0.11455
H_ H_ 0.760477 0.720479 0.760241 0.11455
H_ H_ 0.782221 0.731606 0.809283 0.11455
H_ H_ 0.972477 0.799402 0.870393 0.11455
H_ H_ 0.986908 0.805097 0.923639 0.11455
H_ H_ 0.725558 0.832007 0.890675 0.11455
H_ H_ 0.743069 0.851605 0.939689 0.11455
H_ H_ 0.927625 0.910342 1.00162895 0.11455
H_ H_ 0.93501 0.950194 0.546368 0.11455
H_ H_ 0.928401 0.892538 0.587989 0.11455
H_ H_ 0.824897 0.766325 0.511124 0.11455
H_ H_ 0.809372 0.712885 0.552045 0.11455
H_ H_ 0.836122 0.740038 0.598098 0.11455
C_ C_ 0.732288 0.694598 0.904322 0.68181
C_ C_ 0.786944 0.696054 0.899602 -0.05681
C_ C_ 0.821323 0.696864 0.922427 -0.08735
C_ C_ 0.873961 0.693015 0.917204 -0.05681
C_ C_ 0.893066 0.689368 0.888349 -0.05681
C_ C_ 0.858266 0.687339 0.865201 -0.08735
C_ C_ 0.805364 0.689456 0.87102 -0.08735
C_ C_ 0.90641 0.692442 0.941084 -0.08735
C_ C_ 0.95718 0.689558 0.936812 -0.08735
C_ C_ 0.978394 0.686656 0.909209 -0.05681
C_ C_ 0.946161 0.688535 0.884058 -0.08735
C_ C_ 0.621916 0.777855 0.909963 0.68181
C_ C_ 0.640649 0.583606 0.898783 0.68181
C_ C_ 0.641893 0.526541 0.896385 -0.05681
C_ C_ 0.618648 -0.006002999999999981 0.921697 -0.08735
C_ C_ 0.614051 0.940391 0.91962 -0.05681
C_ C_ 0.604029 0.91619 0.892894 -0.05681
C_ C_ 0.601662 0.947235 0.867803 -0.08735
C_ C_ 0.609199 0.000671076 0.870389 -0.08735
C_ C_ 0.617392 0.909872 0.943953 -0.08735
C_ C_ 0.618936 0.857017 0.940839 -0.08735
C_ C_ 0.613447 0.8343 0.913606 -0.05681
C_ C_ 0.608581 0.865167 0.889565 -0.08735
C_ C_ 0.534782 0.669988 0.906727 0.68181
C_ C_ 0.606399 0.62267 0.981387 0.1947
C_ C_ 0.587747 0.613488 0.512143 -0.08735
C_ C_ 0.60747 0.641619 0.534864 -0.08735
C_ C_ 0.639797 0.684386 0.528822 -0.05681
C_ C_ 0.656247 0.691944 0.499691 0.18498
C_ C_ 0.686318 0.732802 0.996121 -0.08735
C_ C_ 0.707008 0.762105 0.515365 -0.08735
C_ C_ 0.690707 0.757591 0.544401 -0.08735
C_ C_ 0.65816 0.716852 0.550993 0.18498
C_ C_ 0.686448 0.694664 0.599864 0.44287
C_ C_ 0.601246 0.713474 0.592712 0.44287
C_ C_ 0.589973 0.704456 0.623273 -0.05681
C_ C_ 0.540348 0.705145 0.633748 -0.08735
C_ C_ 0.53243 0.703617 0.663756 -0.08735
C_ C_ 0.574101 0.699533 0.683469 -0.05681
C_ C_ 0.623564 0.692524 0.672059 -0.05681
C_ C_ 0.631216 0.696316 0.642229 -0.05681
C_ C_ 0.680171 0.691901 0.630438 -0.05681
C_ C_ 0.721322 0.685968 0.648869 -0.08735
C_ C_ 0.71309 0.679662 0.67888 -0.08735
C_ C_ 0.663866 0.682875 0.690759 -0.05681
C_ C_ 0.65432 0.684151 0.720115 0.44287
C_ C_ 0.567411 0.700428 0.712127 0.44287
C_ C_ 0.597395 0.678408 0.759595 0.18498
C_ C_ 0.575111 0.631314 0.763709 -0.08735
C_ C_ 0.572037 0.607939 0.790804 -0.08735
C_ C_ 0.59061 0.633062 0.81533 -0.08735
C_ C_ 0.61107 0.683064 0.811639 0.18498
C_ C_ 0.614805 0.705288 0.783405 -0.05681
C_ C_ 0.637291 0.753331 0.78138 -0.08735
C_ C_ 0.655908 0.777366 0.804986 -0.08735
C_ C_ 0.648536 0.75636 0.831631 0.1947
C_ C_ 0.777401 0.822296 0.653862 0.68181
C_ C_ 0.722138 0.824124 0.648587 -0.05681
C_ C_ 0.690059 0.825482 0.672113 -0.08735
C_ C_ 0.636126 0.833917 0.669797 -0.05681
C_ C_ 0.616931 0.835989 0.64177 -0.05681
C_ C_ 0.650907 0.835731 0.616927 -0.08735
C_ C_ 0.702632 0.83063 0.621279 -0.08735
C_ C_ 0.603462 0.831716 0.693714 -0.08735
C_ C_ 0.550364 0.830689 0.690324 -0.08735
C_ C_ 0.529982 0.835429 0.662581 -0.05681
C_ C_ 0.563793 0.8366 0.638855 -0.08735
C_ C_ 0.879201 0.723729 0.661053 0.68181
C_ C_ 0.868515 0.921486 0.65243 0.68181
C_ C_ 0.868812 0.976647 0.647041 -0.05681
C_ C_ 0.866217 0.506835 0.671883 -0.08735
C_ C_ 0.865815 0.559311 0.669671 -0.05681
C_ C_ 0.868928 0.581207 0.641854 -0.05681
C_ C_ 0.869556 0.550413 0.618141 -0.08735
C_ C_ 0.875195 0.999409 0.620423 -0.08735
C_ C_ 0.872133 0.590922 0.694481 -0.08735
C_ C_ 0.876449 0.645124 0.690808 -0.08735
C_ C_ 0.875758 0.667283 0.663686 -0.05681
C_ C_ 0.871909 0.634716 0.639911 -0.08735
C_ C_ 0.973453 0.829208 0.657459 0.68181
C_ C_ 0.903602 0.87957 0.735314 0.1947
C_ C_ 0.907296 0.896682 0.762726 -0.08735
C_ C_ 0.875178 0.876742 0.783294 -0.08735
C_ C_ 0.854741 0.829427 0.779341 -0.05681
C_ C_ 0.848224 0.813289 0.749355 0.18498
C_ C_ 0.811291 0.776195 0.742392 -0.08735
C_ C_ 0.784521 0.75215 0.764044 -0.08735
C_ C_ 0.796422 0.760624 0.793446 -0.08735
C_ C_ 0.829413 0.801575 0.801314 0.18498
C_ C_ 0.798447 0.825842 0.849633 0.44287
C_ C_ 0.884493 0.807196 0.84239 0.44287
C_ C_ 0.895572 0.817842 0.871371 -0.05681
C_ C_ 0.942646 0.807944 0.884223 -0.08735
C_ C_ 0.952472 0.818156 0.913313 -0.08735
C_ C_ 0.910976 0.816998 0.933179 -0.05681
C_ C_ 0.860801 0.821397 0.921279 -0.05681
C_ C_ 0.855308 0.822684 0.890681 -0.05681
C_ C_ 0.804934 0.81836 0.879758 -0.05681
C_ C_ 0.763105 0.822856 0.898647 -0.08735
C_ C_ 0.771056 0.832638 0.927303 -0.08735
C_ C_ 0.817837 0.827505 0.939913 -0.05681
C_ C_ 0.825967 0.828402 0.970284 0.44287
C_ C_ 0.917432 0.822078 0.963681 0.44287
C_ C_ 0.88975 0.845868 0.511002 0.18498
C_ C_ 0.912402 0.893929 0.515703 -0.08735
C_ C_ 0.927454 0.911282 0.542699 -0.08735
C_ C_ 0.916502 0.879152 0.565708 -0.08735
C_ C_ 0.889698 0.832488 0.562359 0.18498
C_ C_ 0.878087 0.815614 0.534135 -0.05681
C_ C_ 0.847378 0.771275 0.530516 -0.08735
C_ C_ 0.832017 0.746126 0.555102 -0.08735
C_ C_ 0.849204 0.761912 0.581694 0.1947
N_ N_ 0.633147 0.66676 0.977521 -0.29468
N_ N_ 0.647661 0.703728 0.58142 -0.17154
N_ N_ 0.60772 0.69273 0.730121 -0.17154
N_ N_ 0.629017 0.707945 0.8343 -0.29468
N_ N_ 0.871098 0.841911 0.728627 -0.29468
N_ N_ 0.83824 0.813403 0.831236 -0.17154
N_ N_ 0.876278 0.82784 0.981006 -0.17154
N_ N_ 0.878028 0.804424 0.585431 -0.29468
O_ O_ 0.715138 0.680347 0.92793 -0.58347
O_ O_ 0.701102 0.707116 0.884585 -0.58347
O_ O_ 0.637726 0.75398 0.931396 -0.58347
O_ O_ 0.604601 0.753286 0.888383 -0.58347
O_ O_ 0.641219 0.603116 0.923754 -0.58347
O_ O_ 0.646668 0.609975 0.87629 -0.58347
O_ O_ 0.565332 0.670717 0.92865 -0.58347
O_ O_ 0.553025 0.669343 0.880398 -0.58347
O_ O_ 0.56289 0.72544 0.576 -0.46727
O_ O_ 0.73226 0.683053 0.588492 -0.46727
O_ O_ 0.523934 0.709735 0.722819 -0.46727
O_ O_ 0.691933 0.673656 0.738286 -0.46727
O_ O_ 0.796178 0.833253 0.678526 -0.58347
O_ O_ 0.804891 0.80926 0.633563 -0.58347
O_ O_ 0.868227 0.752733 0.682766 -0.58347
O_ O_ 0.89356 0.743265 0.638226 -0.58347
O_ O_ 0.871137 0.903458 0.676741 -0.58347
O_ O_ 0.865804 0.890741 0.631452 -0.58347
O_ O_ 0.945511 0.830153 0.680454 -0.58347
O_ O_ 0.952001 0.82465 0.633246 -0.58347
O_ O_ 0.921794 0.790229 0.825951 -0.46727
O_ O_ 0.754099 0.837614 0.840127 -0.46727
O_ O_ 0.963239 0.820586 0.974898 -0.46727
O_ O_ 0.78807 0.843962 0.987645 -0.46727
_cell_length_a 26.376
_cell_length_b 26.400000238300095
_cell_length_c 46.67800035477134
_cell_angle_alpha 90.00700052986613
_cell_angle_beta 89.99899961309502
_cell_angle_gamma 90.45000003183146
_symmetry_space_group_name_H-M         'P 1'
_symmetry_Int_Tables_number            1
loop_
_symmetry_equiv_pos_as_xyz
   'x, y, z'
                         
loop_
_atom_site_label
_atom_site_type_symbol
_atom_site_fract_x 
_atom_site_fract_y
_atom_site_fract_z
_atom_site_charge
Zn Zn 0.132033 0.186144 0.379331 0.90689
Zn Zn 0.137995 0.178268 0.4275 0.90689
Zn Zn 0.367777 0.303568 0.133759 0.90689
Zn Zn 0.359161 0.314819 0.179978 0.90689
H_ H_ 0.302939 0.192023 0.446723 0.11455
H_ H_ 0.38349 0.14287 0.355772 0.11455
H_ H_ 0.287926 0.151847 0.358728 0.11455
H_ H_ 0.388325 0.192845 0.46932 0.11455
H_ H_ 0.478254 0.178424 0.463435 0.11455
H_ H_ 0.462274 0.156151 0.37382 0.11455
H_ H_ 0.138243 0.0175084 0.436223 0.11455
H_ H_ 0.122197 0.43381 0.345821 0.11455
H_ H_ 0.172683 0.0324526 0.347863 0.11455
H_ H_ 0.134884 0.430028 0.46638 0.11455
H_ H_ 0.123744 0.340763 0.461405 0.11455
H_ H_ 0.129336 0.348227 0.372102 0.11455
H_ H_ 0.0861508 0.103905 0.461758 0.11455
H_ H_ 0.0727711 0.0697154 0.0138522 0.11455
H_ H_ 0.100103 0.120627 0.0559113 0.11455
H_ H_ 0.200363 0.239591 0.472968 0.11455
H_ H_ 0.209738 0.303158 0.0141801 0.11455
H_ H_ 0.194868 0.278568 0.0625404 0.11455
H_ H_ 0.0125626 0.223973 0.124912 0.11455
H_ H_ 0.0024276 0.217013 0.176594 0.11455
H_ H_ 0.255279 0.161298 0.137793 0.11455
H_ H_ 0.24167 0.127879 0.185091 0.11455
H_ H_ 0.0633375 0.0873331 0.249287 0.11455
H_ H_ 0.0355083 0.0724404 0.30057 0.11455
H_ H_ 0.0778892 0.120289 0.33789 0.11455
H_ H_ 0.142695 0.250751 0.255471 0.11455
H_ H_ 0.185227 0.29837 0.294939 0.11455
H_ H_ 0.174208 0.267164 0.344532 0.11455
H_ H_ 0.191382 0.305974 0.198773 0.11455
H_ H_ 0.121553 0.322373 0.0984715 0.11455
H_ H_ 0.214612 0.325363 0.106801 0.11455
H_ H_ 0.101444 0.309296 0.216821 0.11455
H_ H_ 0.0138025 0.327265 0.211483 0.11455
H_ H_ 0.0306875 0.331526 0.118884 0.11455
H_ H_ 0.334252 0.481251 0.189158 0.11455
H_ H_ 0.364533 0.0607636 0.0973197 0.11455
H_ H_ 0.369227 0.462839 0.0979772 0.11455
H_ H_ 0.375536 0.0644206 0.216214 0.11455
H_ H_ 0.379092 0.156505 0.212628 0.11455
H_ H_ 0.359283 0.14085 0.12122 0.11455
H_ H_ 0.412765 0.3924 0.215136 0.11455
H_ H_ 0.426716 0.42036 0.265898 0.11455
H_ H_ 0.395954 0.372465 0.305576 0.11455
H_ H_ 0.294512 0.259679 0.226257 0.11455
H_ H_ 0.264836 0.204727 0.264213 0.11455
H_ H_ 0.289221 0.222732 0.312587 0.11455
H_ H_ 0.487239 0.292249 0.371506 0.11455
H_ H_ 0.496126 0.291611 0.4219 0.11455
H_ H_ 0.243879 0.355106 0.382085 0.11455
H_ H_ 0.258031 0.380108 0.43089 0.11455
H_ H_ 0.433907 0.424057 0.49869 0.11455
H_ H_ 0.44469 0.419452 0.0458065 0.11455
H_ H_ 0.420537 0.365648 0.0876919 0.11455
H_ H_ 0.323625 0.240929 0.0087498 0.11455
H_ H_ 0.290732 0.19634 0.050602 0.11455
H_ H_ 0.314322 0.226607 0.099216 0.11455
C_ C_ 0.232425 0.186822 0.403837 0.68181
C_ C_ 0.288798 0.183972 0.401027 -0.05681
C_ C_ 0.320967 0.185922 0.425899 -0.08735
C_ C_ 0.372457 0.181195 0.424369 -0.05681
C_ C_ 0.393776 0.169824 0.397608 -0.05681
C_ C_ 0.362864 0.158978 0.374155 -0.08735
C_ C_ 0.312159 0.164921 0.375495 -0.08735
C_ C_ 0.401985 0.180834 0.448464 -0.08735
C_ C_ 0.454691 0.179121 0.445373 -0.08735
C_ C_ 0.479181 0.174245 0.416995 -0.05681
C_ C_ 0.447145 0.170636 0.393234 -0.08735
C_ C_ 0.130217 0.280681 0.413361 0.68181
C_ C_ 0.148053 0.0862546 0.39534 0.68181
C_ C_ 0.148405 0.030779 0.392688 -0.05681
C_ C_ 0.135901 0.501175 0.421318 -0.08735
C_ C_ 0.136086 0.445769 0.419367 -0.05681
C_ C_ 0.130315 0.422479 0.392948 -0.05681
C_ C_ 0.130322 0.450858 0.367493 -0.08735
C_ C_ 0.138374 0.503121 0.369487 -0.08735
C_ C_ 0.13329 0.415228 0.445293 -0.08735
C_ C_ 0.128493 0.362298 0.442908 -0.08735
C_ C_ 0.13028 0.338861 0.416331 -0.05681
C_ C_ 0.129535 0.368743 0.391496 -0.08735
C_ C_ 0.0360831 0.171026 0.403505 0.68181
C_ C_ 0.105709 0.12125 0.479392 0.1947
C_ C_ 0.0939552 0.106443 0.0107046 -0.08735
C_ C_ 0.107918 0.136272 0.0343504 -0.08735
C_ C_ 0.135272 0.180375 0.0292208 -0.05681
C_ C_ 0.143407 0.19576 1.00001 0.18498
C_ C_ 0.186325 0.233501 0.492202 -0.08735
C_ C_ 0.18408 0.271919 0.0181973 -0.08735
C_ C_ 0.176708 0.258143 0.0460609 -0.08735
C_ C_ 0.148201 0.213674 0.0525066 0.18498
C_ C_ 0.181283 0.178891 0.0982597 0.44287
C_ C_ 0.0950573 0.203546 0.0958262 0.44287
C_ C_ 0.0875557 0.19561 0.12453 -0.05681
C_ C_ 0.0387236 0.20306 0.13716 -0.08735
C_ C_ 0.0344854 0.200007 0.166871 -0.08735
C_ C_ 0.0744866 0.182782 0.184344 -0.05681
C_ C_ 0.122463 0.170582 0.171922 -0.05681
C_ C_ 0.127965 0.176869 0.142298 -0.05681
C_ C_ 0.176202 0.169783 0.128519 -0.05681
C_ C_ 0.218341 0.16259 0.14617 -0.08735
C_ C_ 0.210789 0.148453 0.174721 -0.08735
C_ C_ 0.165733 0.159873 0.188319 -0.05681
C_ C_ 0.159592 0.15733 0.217866 0.44287
C_ C_ 0.0734031 0.185478 0.214333 0.44287
C_ C_ 0.104398 0.15476 0.259989 0.18498
C_ C_ 0.0792184 0.108574 0.267063 -0.08735
C_ C_ 0.0660772 0.100489 0.295487 -0.08735
C_ C_ 0.087527 0.128664 0.317123 -0.08735
C_ C_ 0.116077 0.172513 0.311385 0.18498
C_ C_ 0.126021 0.185406 0.28268 -0.05681
C_ C_ 0.145247 0.232616 0.276645 -0.08735
C_ C_ 0.164965 0.263224 0.299049 -0.08735
C_ C_ 0.160315 0.246463 0.327524 0.1947
C_ C_ 0.262767 0.301041 0.158898 0.68181
C_ C_ 0.207433 0.309342 0.154104 -0.05681
C_ C_ 0.174821 0.309068 0.17669 -0.08735
C_ C_ 0.123259 0.315769 0.171709 -0.05681
C_ C_ 0.101548 0.324498 0.143932 -0.05681
C_ C_ 0.135196 0.325597 0.120099 -0.08735
C_ C_ 0.188632 0.318582 0.124938 -0.08735
C_ C_ 0.0890187 0.3162 0.195655 -0.08735
C_ C_ 0.037868 0.325868 0.192114 -0.08735
C_ C_ 0.01732 0.331126 0.164809 -0.05681
C_ C_ 0.0491578 0.32913 0.140522 -0.08735
C_ C_ 0.375019 0.21233 0.163672 0.68181
C_ C_ 0.351264 0.407307 0.149114 0.68181
C_ C_ 0.350905 0.46649 0.143734 -0.05681
C_ C_ 0.377951 -0.004145999999999983 0.171343 -0.08735
C_ C_ 0.378189 0.0496079 0.169623 -0.05681
C_ C_ 0.36997 0.0731654 0.143582 -0.05681
C_ C_ 0.363126 0.0440907 0.118588 -0.08735
C_ C_ 0.360651 0.486951 0.116939 -0.08735
C_ C_ 0.379182 0.0796995 0.195269 -0.08735
C_ C_ 0.381116 0.132707 0.193488 -0.08735
C_ C_ 0.374611 0.154468 0.166822 -0.05681
C_ C_ 0.364276 0.124966 0.142489 -0.08735
C_ C_ 0.461976 0.313364 0.15418 0.68181
C_ C_ 0.398669 0.368907 0.232712 0.1947
C_ C_ 0.405598 0.386243 0.260848 -0.08735
C_ C_ 0.387917 0.358947 0.283719 -0.08735
C_ C_ 0.362129 0.313119 0.278606 -0.05681
C_ C_ 0.34962 0.300476 0.249552 0.18498
C_ C_ 0.316008 0.25992 0.245225 -0.08735
C_ C_ 0.294377 0.23276 0.268342 -0.08735
C_ C_ 0.312121 0.239645 0.295131 -0.08735
C_ C_ 0.348089 0.280578 0.300406 0.18498
C_ C_ 0.313293 0.310426 0.345769 0.44287
C_ C_ 0.399705 0.288747 0.342762 0.44287
C_ C_ 0.406737 0.304172 0.37157 -0.05681
C_ C_ 0.453647 0.297997 0.385045 -0.08735
C_ C_ 0.459669 0.302228 0.414349 -0.08735
C_ C_ 0.420066 0.32062 0.430592 -0.05681
C_ C_ 0.371657 0.326128 0.417334 -0.05681
C_ C_ 0.365942 0.321074 0.387867 -0.05681
C_ C_ 0.319333 0.325616 0.374895 -0.05681
C_ C_ 0.27793 0.343267 0.391597 -0.08735
C_ C_ 0.284346 0.354256 0.420767 -0.08735
C_ C_ 0.330856 0.344089 0.434146 -0.05681
C_ C_ 0.335467 0.346902 0.464572 0.44287
C_ C_ 0.424627 0.329208 0.461064 0.44287
C_ C_ 0.38019 0.328352 0.00907834 0.18498
C_ C_ 0.407574 0.372165 0.014529 -0.08735
C_ C_ 0.424357 0.384667 0.0418649 -0.08735
C_ C_ 0.40926 0.354672 0.0661596 -0.08735
C_ C_ 0.372237 0.315987 0.06213 0.18498
C_ C_ 0.359102 0.300533 0.0329098 -0.05681
C_ C_ 0.331247 0.257165 0.0296752 -0.08735
C_ C_ 0.313766 0.23135 0.052737 -0.08735
C_ C_ 0.324762 0.248638 0.0810013 0.1947
N_ N_ 0.134719 0.164143 0.473989 -0.29468
N_ N_ 0.141197 0.198495 0.0829861 -0.17154
N_ N_ 0.112826 0.166001 0.229963 -0.17154
N_ N_ 0.135982 0.201284 0.332631 -0.29468
N_ N_ 0.36995 0.327069 0.227221 -0.29468
N_ N_ 0.353896 0.294966 0.329917 -0.17154
N_ N_ 0.381995 0.339 0.477649 -0.17154
N_ N_ 0.357584 0.287398 0.085095 -0.29468
O_ O_ 0.212761 0.183727 0.428395 -0.58347
O_ O_ 0.205027 0.199132 0.382799 -0.58347
O_ O_ 0.135416 0.250785 0.435482 -0.58347
O_ O_ 0.121857 0.261522 0.388186 -0.58347
O_ O_ 0.139132 0.105198 0.420481 -0.58347
O_ O_ 0.149982 0.112398 0.373167 -0.58347
O_ O_ 0.0627591 0.16962 0.426349 -0.58347
O_ O_ 0.055606 0.174822 0.378797 -0.58347
O_ O_ 0.0594212 0.22669 0.0807548 -0.46727
O_ O_ 0.220321 0.16217 0.0847561 -0.46727
O_ O_ 0.0375422 0.212079 0.227237 -0.46727
O_ O_ 0.195557 0.141149 0.234857 -0.46727
O_ O_ 0.282823 0.309752 0.183173 -0.58347
O_ O_ 0.29211 0.300333 0.137478 -0.58347
O_ O_ 0.371482 0.241359 0.185617 -0.58347
O_ O_ 0.371249 0.230577 0.139009 -0.58347
O_ O_ 0.351413 0.389775 0.174426 -0.58347
O_ O_ 0.361812 0.379544 0.127844 -0.58347
O_ O_ 0.432364 0.326339 0.174333 -0.58347
O_ O_ 0.443388 0.307709 0.129711 -0.58347
O_ O_ 0.437251 0.267805 0.328456 -0.46727
O_ O_ 0.271227 0.316955 0.332433 -0.46727
O_ O_ 0.465732 0.313411 0.474256 -0.46727
O_ O_ 0.295704 0.36056 0.480014 -0.46727
Zn Zn 0.113438 0.185189 0.880081 0.90689
Zn Zn 0.127352 0.180695 0.928348 0.90689
Zn Zn 0.374305 0.31875 0.630366 0.90689
Zn Zn 0.362572 0.324106 0.677729 0.90689
H_ H_ 0.287747 0.198231 0.945024 0.11455
H_ H_ 0.358949 0.150016 0.849678 0.11455
H_ H_ 0.267806 0.143658 0.861787 0.11455
H_ H_ 0.374353 0.183391 0.96823 0.11455
H_ H_ 0.463383 0.198575 0.960076 0.11455
H_ H_ 0.447421 0.159512 0.86952 0.11455
H_ H_ 0.108886 0.0193849 0.939273 0.11455
H_ H_ 0.101948 0.441404 0.848168 0.11455
H_ H_ 0.17171 0.0291579 0.853321 0.11455
H_ H_ 0.126028 0.430291 0.966133 0.11455
H_ H_ 0.110322 0.338271 0.96065 0.11455
H_ H_ 0.109648 0.357054 0.868456 0.11455
H_ H_ 0.0805407 0.105652 0.964476 0.11455
H_ H_ 0.0923928 0.0612053 0.509035 0.11455
H_ H_ 0.112861 0.113411 0.550806 0.11455
H_ H_ 0.170648 0.256515 0.972609 0.11455
H_ H_ 0.2172 0.304346 0.51133 0.11455
H_ H_ 0.192536 0.277496 0.561678 0.11455
H_ H_ 0.0223935 0.223226 0.620532 0.11455
H_ H_ 0.0101209 0.204219 0.671517 0.11455
H_ H_ 0.265485 0.150306 0.637046 0.11455
H_ H_ 0.254475 0.144653 0.688705 0.11455
H_ H_ 0.0638699 0.0873309 0.744061 0.11455
H_ H_ 0.0385683 0.068504 0.79389 0.11455
H_ H_ 0.0704612 0.118208 0.83602 0.11455
H_ H_ 0.155887 0.244804 0.75547 0.11455
H_ H_ 0.186846 0.29312 0.795894 0.11455
H_ H_ 0.167281 0.263382 0.845001 0.11455
H_ H_ 0.193569 0.310947 0.694031 0.11455
H_ H_ 0.127419 0.346642 0.596594 0.11455
H_ H_ 0.220604 0.330796 0.603122 0.11455
H_ H_ 0.107055 0.313222 0.713021 0.11455
H_ H_ 0.0160807 0.310907 0.705172 0.11455
H_ H_ 0.0405675 0.339521 0.615994 0.11455
H_ H_ 0.352433 0.491199 0.694098 0.11455
H_ H_ 0.38417 0.062528 0.593595 0.11455
H_ H_ 0.357646 0.47969 0.60212 0.11455
H_ H_ 0.356067 0.0746933 0.711728 0.11455
H_ H_ 0.363066 0.164749 0.704116 0.11455
H_ H_ 0.385432 0.144697 0.614522 0.11455
H_ H_ 0.420148 0.390296 0.71445 0.11455
H_ H_ 0.45933 0.39523 0.760879 0.11455
H_ H_ 0.410387 0.367312 0.801518 0.11455
H_ H_ 0.312757 0.248519 0.72217 0.11455
H_ H_ 0.259954 0.21794 0.760992 0.11455
H_ H_ 0.285359 0.233955 0.813459 0.11455
H_ H_ 0.478549 0.291353 0.873955 0.11455
H_ H_ 0.48763 0.294274 0.925396 0.11455
H_ H_ 0.226382 0.334761 0.885177 0.11455
H_ H_ 0.233884 0.336011 0.937443 0.11455
H_ H_ 0.415346 0.397669 -0.00325874 0.11455
H_ H_ 0.460486 0.438942 0.548224 0.11455
H_ H_ 0.422893 0.384082 0.586539 0.11455
H_ H_ 0.330663 0.266838 0.502857 0.11455
H_ H_ 0.29231 0.221101 0.543685 0.11455
H_ H_ 0.319916 0.237245 0.591408 0.11455
C_ C_ 0.216961 0.187626 0.906689 0.68181
C_ C_ 0.271682 0.182294 0.902119 -0.05681
C_ C_ 0.305911 0.187285 0.924913 -0.08735
C_ C_ 0.356649 0.169955 0.923148 -0.05681
C_ C_ 0.377153 0.159549 0.896203 -0.05681
C_ C_ 0.345208 0.158155 0.872394 -0.08735
C_ C_ 0.291457 0.164376 0.876506 -0.08735
C_ C_ 0.388981 0.179022 0.946066 -0.08735
C_ C_ 0.441697 0.18563 0.941562 -0.08735
C_ C_ 0.46324 0.180161 0.914168 -0.05681
C_ C_ 0.430584 0.165028 0.891194 -0.08735
C_ C_ 0.110631 0.281001 0.911475 0.68181
C_ C_ 0.141477 0.0849615 0.898204 0.68181
C_ C_ 0.139256 0.0275785 0.896157 -0.05681
C_ C_ 0.121287 0.499617 0.923732 -0.08735
C_ C_ 0.116315 0.445691 0.921684 -0.05681
C_ C_ 0.108635 0.424681 0.893693 -0.05681
C_ C_ 0.10277 0.456932 0.869415 -0.08735
C_ C_ 0.113929 0.508723 0.871805 -0.08735
C_ C_ 0.120495 0.414206 0.944795 -0.08735
C_ C_ 0.116066 0.360202 0.941496 -0.08735
C_ C_ 0.108372 0.33789 0.91453 -0.05681
C_ C_ 0.108599 0.371335 0.890409 -0.08735
C_ C_ 0.0203177 0.166705 0.90356 0.68181
C_ C_ 0.0997567 0.124058 0.982025 0.1947
C_ C_ 0.101785 0.100632 0.506592 -0.08735
C_ C_ 0.121725 0.126728 0.529799 -0.08735
C_ C_ 0.149805 0.172017 0.525451 -0.05681
C_ C_ 0.156492 0.189301 0.496428 0.18498
C_ C_ 0.163126 0.244381 0.995153 -0.08735
C_ C_ 0.199284 0.266748 0.51612 -0.08735
C_ C_ 0.182854 0.254368 0.543307 -0.08735
C_ C_ 0.163776 0.205519 0.549592 0.18498
C_ C_ 0.195803 0.174128 0.595926 0.44287
C_ C_ 0.108888 0.19386 0.591367 0.44287
C_ C_ 0.0992394 0.191941 0.621339 -0.05681
C_ C_ 0.0510057 0.202463 0.633689 -0.08735
C_ C_ 0.0466923 0.19723 0.663484 -0.08735
C_ C_ 0.0870608 0.183988 0.680878 -0.05681
C_ C_ 0.134061 0.176451 0.668823 -0.05681
C_ C_ 0.139698 0.178116 0.639358 -0.05681
C_ C_ 0.189876 0.172464 0.627334 -0.05681
C_ C_ 0.229577 0.162003 0.645272 -0.08735
C_ C_ 0.221722 0.156828 0.675119 -0.08735
C_ C_ 0.172922 0.161075 0.687045 -0.05681
C_ C_ 0.165295 0.156153 0.716309 0.44287
C_ C_ 0.0815025 0.181678 0.710683 0.44287
C_ C_ 0.109108 0.15054 0.755952 0.18498
C_ C_ 0.0800712 0.108479 0.761567 -0.08735
C_ C_ 0.0664113 0.0958643 0.790143 -0.08735
C_ C_ 0.0769332 0.130006 0.813477 -0.08735
C_ C_ 0.109641 0.169567 0.809116 0.18498
C_ C_ 0.123264 0.182552 0.780006 -0.05681
C_ C_ 0.14785 0.231283 0.776094 -0.08735
C_ C_ 0.168163 0.256989 0.799301 -0.08735
C_ C_ 0.157941 0.239134 0.827292 0.1947
C_ C_ 0.268135 0.317611 0.653745 0.68181
C_ C_ 0.213397 0.325969 0.649819 -0.05681
C_ C_ 0.180687 0.31984 0.673034 -0.08735
C_ C_ 0.126408 0.319551 0.66776 -0.05681
C_ C_ 0.107189 0.324481 0.639057 -0.05681
C_ C_ 0.140453 0.336397 0.617465 -0.08735
C_ C_ 0.193819 0.333942 0.621691 -0.08735
C_ C_ 0.0925974 0.319304 0.69094 -0.08735
C_ C_ 0.0394711 0.313364 0.685635 -0.08735
C_ C_ 0.0184324 0.319109 0.658089 -0.05681
C_ C_ 0.0533952 0.326077 0.63477 -0.08735
C_ C_ 0.376569 0.222333 0.656375 0.68181
C_ C_ 0.361368 0.420516 0.650418 0.68181
C_ C_ 0.353474 0.4764 0.648095 -0.05681
C_ C_ 0.364733 0.00356074 0.669175 -0.08735
C_ C_ 0.364627 0.0580062 0.666198 -0.05681
C_ C_ 0.37086 0.077567 0.63855 -0.05681
C_ C_ 0.376816 0.0455257 0.615224 -0.08735
C_ C_ 0.361013 0.501127 0.621456 -0.08735
C_ C_ 0.362481 0.0896708 0.689708 -0.08735
C_ C_ 0.37073 0.142449 0.685631 -0.08735
C_ C_ 0.371483 0.164791 0.6588 -0.05681
C_ C_ 0.376231 0.130248 0.63523 -0.08735
C_ C_ 0.466704 0.323737 0.65202 0.68181
C_ C_ 0.405994 0.365224 0.730727 0.1947
C_ C_ 0.424589 0.37383 0.757507 -0.08735
C_ C_ 0.401116 0.351674 0.782217 -0.08735
C_ C_ 0.361743 0.31866 0.7785 -0.05681
C_ C_ 0.349234 0.303835 0.749007 0.18498
C_ C_ 0.316809 0.264571 0.743562 -0.08735
C_ C_ 0.292427 0.240827 0.765983 -0.08735
C_ C_ 0.302646 0.253313 0.793981 -0.08735
C_ C_ 0.333868 0.294749 0.801045 0.18498
C_ C_ 0.301702 0.312094 0.84806 0.44287
C_ C_ 0.39198 0.302619 0.842753 0.44287
C_ C_ 0.397908 0.305819 0.87307 -0.05681
C_ C_ 0.446206 0.298704 0.886418 -0.08735
C_ C_ 0.451137 0.3015 0.91662 -0.08735
C_ C_ 0.408057 0.305543 0.933185 -0.05681
C_ C_ 0.360362 0.312261 0.920053 -0.05681
C_ C_ 0.354099 0.313227 0.889982 -0.05681
C_ C_ 0.305343 0.314967 0.877116 -0.05681
C_ C_ 0.262695 0.324785 0.894423 -0.08735
C_ C_ 0.267407 0.328657 0.923725 -0.08735
C_ C_ 0.315737 0.321091 0.937251 -0.05681
C_ C_ 0.323604 0.32306 0.967791 0.44287
C_ C_ 0.41037 0.306408 0.962677 0.44287
C_ C_ 0.391013 0.352215 0.507926 0.18498
C_ C_ 0.424809 0.392039 0.514733 -0.08735
C_ C_ 0.436604 0.403892 0.543679 -0.08735
C_ C_ 0.414034 0.37628 0.565556 -0.08735
C_ C_ 0.380663 0.335653 0.559319 0.18498
C_ C_ 0.369005 0.323432 0.530482 -0.05681
C_ C_ 0.338358 0.281 0.524866 -0.08735
C_ C_ 0.317621 0.253514 0.54839 -0.08735
C_ C_ 0.331756 0.264986 0.575598 0.1947
N_ N_ 0.128402 0.164676 0.976734 -0.29468
N_ N_ 0.155123 0.190126 0.579703 -0.17154
N_ N_ 0.119125 0.166156 0.727133 -0.17154
N_ N_ 0.12699 0.198101 0.832539 -0.29468
N_ N_ 0.369249 0.331636 0.726789 -0.29468
N_ N_ 0.344052 0.308466 0.831014 -0.17154
N_ N_ 0.370353 0.315613 0.979262 -0.17154
N_ N_ 0.363064 0.30459 0.581351 -0.29468
O_ O_ 0.198904 0.197262 0.930966 -0.58347
O_ O_ 0.191024 0.188532 0.88428 -0.58347
O_ O_ 0.111798 0.253361 0.934162 -0.58347
O_ O_ 0.107924 0.261868 0.885767 -0.58347
O_ O_ 0.13713 0.105132 0.922884 -0.58347
O_ O_ 0.127725 0.108418 0.876422 -0.58347
O_ O_ 0.0502917 0.164817 0.924763 -0.58347
O_ O_ 0.0383478 0.175873 0.878715 -0.58347
O_ O_ 0.0714803 0.20968 0.574914 -0.46727
O_ O_ 0.238894 0.162193 0.58377 -0.46727
O_ O_ 0.038982 0.194755 0.722551 -0.46727
O_ O_ 0.203161 0.142414 0.732812 -0.46727
O_ O_ 0.288006 0.326683 0.677681 -0.58347
O_ O_ 0.296712 0.306801 0.632286 -0.58347
O_ O_ 0.366038 0.250271 0.678672 -0.58347
O_ O_ 0.383654 0.244041 0.631469 -0.58347
O_ O_ 0.361779 0.397822 0.67389 -0.58347
O_ O_ 0.358882 0.392344 0.627669 -0.58347
O_ O_ 0.436412 0.322165 0.674434 -0.58347
O_ O_ 0.447343 0.328781 0.627104 -0.58347
O_ O_ 0.424784 0.279187 0.828907 -0.46727
O_ O_ 0.256514 0.31524 0.835029 -0.46727
O_ O_ 0.455936 0.299487 0.973434 -0.46727
O_ O_ 0.286781 0.334221 0.985139 -0.46727
Zn Zn 0.130993 0.687661 0.38227 0.90689
Zn Zn 0.14659 0.684797 0.429211 0.90689
Zn Zn 0.375537 0.806623 0.134006 0.90689
Zn Zn 0.366389 0.812093 0.18061 0.90689
H_ H_ 0.311331 0.698648 0.442595 0.11455
H_ H_ 0.381757 0.649606 0.346374 0.11455
H_ H_ 0.292875 0.662832 0.353865 0.11455
H_ H_ 0.394452 0.698971 0.46174 0.11455
H_ H_ 0.483374 0.696808 0.455272 0.11455
H_ H_ 0.463702 0.684159 0.365908 0.11455
H_ H_ 0.142342 0.517414 0.442197 0.11455
H_ H_ 0.183223 0.939969 0.345256 0.11455
H_ H_ 0.140359 0.528692 0.350559 0.11455
H_ H_ 0.135165 0.937584 0.458472 0.11455
H_ H_ 0.148945 0.846362 0.457427 0.11455
H_ H_ 0.153302 0.853284 0.364753 0.11455
H_ H_ 0.0868383 0.618036 0.466815 0.11455
H_ H_ 0.0492337 0.585287 0.0118681 0.11455
H_ H_ 0.0933857 0.620745 0.0528522 0.11455
H_ H_ 0.201507 0.751313 0.470818 0.11455
H_ H_ 0.224624 0.788358 0.0157686 0.11455
H_ H_ 0.195206 0.767461 0.0672956 0.11455
H_ H_ 0.0185552 0.692151 0.123277 0.11455
H_ H_ 0.0096916 0.695269 0.17709 0.11455
H_ H_ 0.27269 0.658848 0.14143 0.11455
H_ H_ 0.259438 0.656211 0.193979 0.11455
H_ H_ 0.0839835 0.570807 0.259295 0.11455
H_ H_ 0.046462 0.565056 0.305597 0.11455
H_ H_ 0.0531454 0.638849 0.339488 0.11455
H_ H_ 0.165987 0.730866 0.253793 0.11455
H_ H_ 0.207564 0.775829 0.291618 0.11455
H_ H_ 0.190794 0.760703 0.341859 0.11455
H_ H_ 0.196828 0.790369 0.196681 0.11455
H_ H_ 0.129264 0.830838 0.0978329 0.11455
H_ H_ 0.224508 0.820325 0.106218 0.11455
H_ H_ 0.107979 0.783183 0.211976 0.11455
H_ H_ 0.0166497 0.800498 0.205307 0.11455
H_ H_ 0.0444525 0.820894 0.1157 0.11455
H_ H_ 0.3671 0.978214 0.191395 0.11455
H_ H_ 0.379649 0.552908 0.0939044 0.11455
H_ H_ 0.355695 0.970674 0.100234 0.11455
H_ H_ 0.368044 0.56103 0.212765 0.11455
H_ H_ 0.403554 0.642686 0.207443 0.11455
H_ H_ 0.370102 0.64038 0.115758 0.11455
H_ H_ 0.413936 0.8921 0.213214 0.11455
H_ H_ 0.438282 0.923539 0.260618 0.11455
H_ H_ 0.409675 0.877852 0.304212 0.11455
H_ H_ 0.312262 0.752246 0.227192 0.11455
H_ H_ 0.274053 0.712841 0.269899 0.11455
H_ H_ 0.306111 0.72728 0.317673 0.11455
H_ H_ 0.503142 0.783778 0.374114 0.11455
H_ H_ 0.515192 0.801146 0.426464 0.11455
H_ H_ 0.263036 0.865256 0.385565 0.11455
H_ H_ 0.269462 0.863142 0.440215 0.11455
H_ H_ 0.462404 0.905095 0.502683 0.11455
H_ H_ 0.446258 0.934449 0.0524939 0.11455
H_ H_ 0.440697 0.862838 0.0908477 0.11455
H_ H_ 0.348945 0.74516 0.00918589 0.11455
H_ H_ 0.305505 0.706368 0.0473113 0.11455
H_ H_ 0.316497 0.734533 0.0986465 0.11455
C_ C_ 0.238132 0.680873 0.403221 0.68181
C_ C_ 0.293791 0.677954 0.399434 -0.05681
C_ C_ 0.325989 0.686633 0.422303 -0.08735
C_ C_ 0.378501 0.682102 0.41839 -0.05681
C_ C_ 0.399447 0.668231 0.391044 -0.05681
C_ C_ 0.367905 0.656147 0.368117 -0.08735
C_ C_ 0.315144 0.661046 0.372318 -0.08735
C_ C_ 0.410218 0.695353 0.440922 -0.08735
C_ C_ 0.462972 0.693193 0.436042 -0.08735
C_ C_ 0.483029 0.680293 0.409359 -0.05681
C_ C_ 0.451209 0.670129 0.386463 -0.08735
C_ C_ 0.147855 0.784779 0.409322 0.68181
C_ C_ 0.137224 0.586888 0.398102 0.68181
C_ C_ 0.136604 0.530321 0.396502 -0.05681
C_ C_ 0.139262 0.99880536 0.41574 -0.08735
C_ C_ 0.144475 0.947061 0.413531 -0.05681
C_ C_ 0.153352 0.924046 0.38652 -0.05681
C_ C_ 0.162602 0.955227 0.36286 -0.08735
C_ C_ 0.159891 1.00737811 0.366005 -0.08735
C_ C_ 0.137615 0.917368 0.438623 -0.08735
C_ C_ 0.146557 0.868091 0.436991 -0.08735
C_ C_ 0.14587 0.84296 0.411005 -0.05681
C_ C_ 0.153145 0.870417 0.385042 -0.08735
C_ C_ 0.0395833 0.688615 0.408905 0.68181
C_ C_ 0.10945 0.6306 0.484485 0.1947
C_ C_ 0.078295 0.614294 0.00864579 -0.08735
C_ C_ 0.101265 0.634154 0.0326795 -0.08735
C_ C_ 0.138817 0.672646 0.0298084 -0.05681
C_ C_ 0.154476 0.686038 1.00240887 0.18498
C_ C_ 0.194827 0.737969 0.492987 -0.08735
C_ C_ 0.205168 0.75468 0.0217087 -0.08735
C_ C_ 0.190235 0.741685 0.0500336 -0.08735
C_ C_ 0.162395 0.697198 0.0538798 0.18498
C_ C_ 0.197048 0.668335 0.10066 0.44287
C_ C_ 0.108511 0.682541 0.0965764 0.44287
C_ C_ 0.100538 0.676587 0.126661 -0.05681
C_ C_ 0.0503859 0.683794 0.138295 -0.08735
C_ C_ 0.04402 0.67976 0.167885 -0.08735
C_ C_ 0.0877576 0.667696 0.18506 -0.05681
C_ C_ 0.136646 0.662615 0.17364 -0.05681
C_ C_ 0.142804 0.666356 0.143815 -0.05681
C_ C_ 0.190852 0.664003 0.132243 -0.05681
C_ C_ 0.233468 0.657588 0.150849 -0.08735
C_ C_ 0.227305 0.653147 0.180244 -0.08735
C_ C_ 0.178151 0.649877 0.191066 -0.05681
C_ C_ 0.1674 0.639805 0.220389 0.44287
C_ C_ 0.0805413 0.664053 0.215137 0.44287
C_ C_ 0.110673 0.645632 0.2621 0.18498
C_ C_ 0.0832416 0.602813 0.271106 -0.08735
C_ C_ 0.0659896 0.59804 0.299223 -0.08735
C_ C_ 0.0753962 0.638035 0.319561 -0.08735
C_ C_ 0.104865 0.681154 0.311686 0.18498
C_ C_ 0.122127 0.684037 0.282537 -0.05681
C_ C_ 0.154882 0.723614 0.275979 -0.08735
C_ C_ 0.17609 0.752759 0.297455 -0.08735
C_ C_ 0.165397 0.743437 0.32642 0.1947
C_ C_ 0.270873 0.808768 0.155863 0.68181
C_ C_ 0.21658 0.806217 0.151773 -0.05681
C_ C_ 0.182035 0.803438 0.175424 -0.08735
C_ C_ 0.129239 0.809708 0.170896 -0.05681
C_ C_ 0.112015 0.816389 0.142477 -0.05681
C_ C_ 0.1442 0.818108 0.118323 -0.08735
C_ C_ 0.196642 0.81505 0.123611 -0.08735
C_ C_ 0.0954033 0.796994 0.191751 -0.08735
C_ C_ 0.0429027 0.800027 0.186513 -0.08735
C_ C_ 0.0226397 0.81367 0.158744 -0.05681
C_ C_ 0.0580618 0.819748 0.137226 -0.08735
C_ C_ 0.379258 0.707817 0.161918 0.68181
C_ C_ 0.364129 0.908538 0.147788 0.68181
C_ C_ 0.372425 0.965537 0.145985 -0.05681
C_ C_ 0.345975 0.495849 0.168461 -0.08735
C_ C_ 0.35786 0.547725 0.165888 -0.05681
C_ C_ 0.365139 0.570622 0.138283 -0.05681
C_ C_ 0.364278 0.539584 0.113829 -0.08735
C_ C_ 0.363268 -0.008714 0.119388 -0.08735
C_ C_ 0.370981 0.576553 0.191137 -0.08735
C_ C_ 0.385801 0.626015 0.188184 -0.08735
C_ C_ 0.385977 0.652775 0.161891 -0.05681
C_ C_ 0.373718 0.624087 0.136318 -0.08735
C_ C_ 0.469857 0.819982 0.158325 0.68181
C_ C_ 0.40705 0.868944 0.232489 0.1947
C_ C_ 0.417328 0.888343 0.259577 -0.08735
C_ C_ 0.400957 0.862958 0.283259 -0.08735
C_ C_ 0.378011 0.816099 0.281095 -0.05681
C_ C_ 0.363957 0.800777 0.252298 0.18498
C_ C_ 0.327482 0.762045 0.248321 -0.08735
C_ C_ 0.307398 0.736316 0.271808 -0.08735
C_ C_ 0.323814 0.746925 0.299702 -0.08735
C_ C_ 0.359845 0.785958 0.304482 0.18498
C_ C_ 0.326184 0.818566 0.348857 0.44287
C_ C_ 0.412753 0.789329 0.345559 0.44287
C_ C_ 0.420551 0.796525 0.374962 -0.05681
C_ C_ 0.470249 0.792683 0.387852 -0.08735
C_ C_ 0.478087 0.805415 0.416928 -0.08735
C_ C_ 0.435799 0.816005 0.434179 -0.05681
C_ C_ 0.387425 0.820215 0.422381 -0.05681
C_ C_ 0.379838 0.815067 0.392225 -0.05681
C_ C_ 0.333617 0.826948 0.37905 -0.05681
C_ C_ 0.296299 0.847738 0.396487 -0.08735
C_ C_ 0.303359 0.854085 0.426647 -0.08735
C_ C_ 0.347813 0.836653 0.439923 -0.05681
C_ C_ 0.356325 0.848001 0.469958 0.44287
C_ C_ 0.440056 0.818681 0.465274 0.44287
C_ C_ 0.396488 0.839072 0.0117761 0.18498
C_ C_ 0.420784 0.883976 0.0191802 -0.08735
C_ C_ 0.436777 0.893444 0.047848 -0.08735
C_ C_ 0.425469 0.859378 0.0702611 -0.08735
C_ C_ 0.395476 0.817422 0.0644314 0.18498
C_ C_ 0.385435 0.804056 0.0351087 -0.05681
C_ C_ 0.35726 0.759799 0.0300725 -0.08735
C_ C_ 0.331471 0.735004 0.05232 -0.08735
C_ C_ 0.339574 0.751302 0.0809943 0.1947
N_ N_ 0.142707 0.668985 0.477056 -0.29468
N_ N_ 0.154887 0.67881 0.0839415 -0.17154
N_ N_ 0.121476 0.654678 0.232385 -0.17154
N_ N_ 0.133124 0.703777 0.334057 -0.29468
N_ N_ 0.373538 0.829844 0.229166 -0.29468
N_ N_ 0.366378 0.79928 0.333509 -0.17154
N_ N_ 0.400625 0.832947 0.482773 -0.17154
N_ N_ 0.370884 0.791693 0.0856928 -0.29468
O_ O_ 0.218541 0.681773 0.428223 -0.58347
O_ O_ 0.208563 0.68347 0.382069 -0.58347
O_ O_ 0.146406 0.761403 0.432755 -0.58347
O_ O_ 0.137887 0.762144 0.385386 -0.58347
O_ O_ 0.145268 0.607749 0.421618 -0.58347
O_ O_ 0.125011 0.612074 0.377001 -0.58347
O_ O_ 0.0696552 0.687626 0.429084 -0.58347
O_ O_ 0.057303 0.691397 0.383355 -0.58347
O_ O_ 0.0685793 0.695407 0.0809531 -0.46727
O_ O_ 0.240393 0.663778 0.08864 -0.46727
O_ O_ 0.0340416 0.670537 0.226017 -0.46727
O_ O_ 0.203385 0.627178 0.237519 -0.46727
O_ O_ 0.289612 0.805797 0.180964 -0.58347
O_ O_ 0.300902 0.804478 0.135571 -0.58347
O_ O_ 0.379055 0.733203 0.185585 -0.58347
O_ O_ 0.383217 0.730869 0.138018 -0.58347
O_ O_ 0.358702 0.8878 0.172831 -0.58347
O_ O_ 0.372632 0.881542 0.126367 -0.58347
O_ O_ 0.441606 0.820293 0.180012 -0.58347
O_ O_ 0.450063 0.812947 0.134245 -0.58347
O_ O_ 0.453716 0.781941 0.328524 -0.46727
O_ O_ 0.282126 0.823691 0.335726 -0.46727
O_ O_ 0.485971 0.814673 0.476753 -0.46727
O_ O_ 0.31689 0.861557 0.486525 -0.46727
Zn Zn 0.129963 0.688092 0.882748 0.90689
Zn Zn 0.138153 0.681753 0.932133 0.90689
Zn Zn 0.383908 0.819257 0.633127 0.90689
Zn Zn 0.37119 0.826266 0.680846 0.90689
H_ H_ 0.310294 0.690203 0.947767 0.11455
H_ H_ 0.372278 0.678882 0.851162 0.11455
H_ H_ 0.284619 0.670514 0.858203 0.11455
H_ H_ 0.39334 0.676723 0.96746 0.11455
H_ H_ 0.484786 0.663683 0.95928 0.11455
H_ H_ 0.462222 0.677739 0.867657 0.11455
H_ H_ 0.132183 0.517089 0.944167 0.11455
H_ H_ 0.176584 0.932515 0.850811 0.11455
H_ H_ 0.106441 0.534267 0.85273 0.11455
H_ H_ 0.0984952 0.930925 0.963329 0.11455
H_ H_ 0.109789 0.839942 0.961383 0.11455
H_ H_ 0.162148 0.853318 0.873874 0.11455
H_ H_ 0.0701546 0.615447 0.962933 0.11455
H_ H_ 0.0733048 0.582545 0.516873 0.11455
H_ H_ 0.136231 0.620197 0.555765 0.11455
H_ H_ 0.192671 0.74045 0.976018 0.11455
H_ H_ 0.240072 0.800619 0.510631 0.11455
H_ H_ 0.218117 0.776609 0.561002 0.11455
H_ H_ 1.0183574 0.713164 0.61899 0.11455
H_ H_ 1.0107295 0.714973 0.66972 0.11455
H_ H_ 0.271567 0.692315 0.640375 0.11455
H_ H_ 0.258734 0.681179 0.690772 0.11455
H_ H_ 0.0714062 0.600705 0.747359 0.11455
H_ H_ 0.0495874 0.574627 0.796234 0.11455
H_ H_ 0.0632699 0.633688 0.834039 0.11455
H_ H_ 0.156478 0.766558 0.757149 0.11455
H_ H_ 0.19275 0.809528 0.798636 0.11455
H_ H_ 0.18156 0.773473 0.846533 0.11455
H_ H_ 0.202624 0.822232 0.695207 0.11455
H_ H_ 0.133066 0.829067 0.597279 0.11455
H_ H_ 0.227563 0.826026 0.604923 0.11455
H_ H_ 0.117597 0.852547 0.712477 0.11455
H_ H_ 0.0248951 0.855217 0.707186 0.11455
H_ H_ 0.0496722 0.836978 0.614546 0.11455
H_ H_ 0.347897 0.986607 0.688908 0.11455
H_ H_ 0.36976 0.569975 0.598552 0.11455
H_ H_ 0.382387 0.9687 0.598418 0.11455
H_ H_ 0.35937 0.571754 0.716017 0.11455
H_ H_ 0.372024 0.662776 0.713175 0.11455
H_ H_ 0.390079 0.653302 0.622597 0.11455
H_ H_ 0.429757 0.904995 0.716379 0.11455
H_ H_ 0.452656 0.924719 0.763959 0.11455
H_ H_ 0.402778 0.894171 0.805906 0.11455
H_ H_ 0.316351 0.767262 0.722638 0.11455
H_ H_ 0.275585 0.719312 0.763184 0.11455
H_ H_ 0.293708 0.745205 0.811478 0.11455
H_ H_ 0.480463 0.774831 0.87567 0.11455
H_ H_ 0.495781 0.786028 0.927148 0.11455
H_ H_ 0.248203 0.875543 0.891509 0.11455
H_ H_ 0.256172 0.867762 0.942187 0.11455
H_ H_ 0.434447 0.907932 1.000564644 0.11455
H_ H_ 0.478213 0.933375 0.552903 0.11455
H_ H_ 0.447298 0.874973 0.592887 0.11455
H_ H_ 0.348926 0.763543 0.509964 0.11455
H_ H_ 0.315732 0.712686 0.5504 0.11455
H_ H_ 0.326996 0.747889 0.598287 0.11455
C_ C_ 0.232322 0.688693 0.905899 0.68181
C_ C_ 0.289284 0.687015 0.90267 -0.05681
C_ C_ 0.323652 0.691164 0.926491 -0.08735
C_ C_ 0.375916 0.683632 0.922487 -0.05681
C_ C_ 0.394261 0.680381 0.893749 -0.05681
C_ C_ 0.360426 0.680156 0.872648 -0.08735
C_ C_ 0.309872 0.687888 0.875255 -0.08735
C_ C_ 0.409602 0.678992 0.946184 -0.08735
C_ C_ 0.461275 0.670849 0.941575 -0.08735
C_ C_ 0.480562 0.673624 0.912589 -0.05681
C_ C_ 0.446503 0.677101 0.889344 -0.08735
C_ C_ 0.128271 0.785163 0.913744 0.68181
C_ C_ 0.135682 0.584917 0.900781 0.68181
C_ C_ 0.122509 0.530889 0.89912 -0.05681
C_ C_ 0.122714 0.999947 0.919962 -0.08735
C_ C_ 0.127085 0.946902 0.920321 -0.05681
C_ C_ 0.144062 0.923229 0.893952 -0.05681
C_ C_ 0.162306 0.952252 0.870209 -0.08735
C_ C_ 0.15937 0.00490998 0.871369 -0.08735
C_ C_ 0.115563 0.916341 0.944326 -0.08735
C_ C_ 0.119412 0.863643 0.942567 -0.08735
C_ C_ 0.130297 0.841033 0.916407 -0.05681
C_ C_ 0.141355 0.869846 0.892056 -0.08735
C_ C_ 0.034767 0.685382 0.905486 0.68181
C_ C_ 0.0906857 0.630408 0.981904 0.1947
C_ C_ 0.101508 0.613936 0.513397 -0.08735
C_ C_ 0.130789 0.638005 0.53424 -0.08735
C_ C_ 0.154588 0.682132 0.528319 -0.05681
C_ C_ 0.163211 0.695828 0.498766 0.18498
C_ C_ 0.187742 0.727243 0.998191 -0.08735
C_ C_ 0.21702 0.766459 0.515223 -0.08735
C_ C_ 0.202354 0.756934 0.543108 -0.08735
C_ C_ 0.17226 0.714581 0.549964 0.18498
C_ C_ 0.200035 0.697035 0.598433 0.44287
C_ C_ 0.11142 0.704356 0.590178 0.44287
C_ C_ 0.101504 0.702695 0.619985 -0.05681
C_ C_ 0.0531216 0.70885 0.631461 -0.08735
C_ C_ 0.0459957 0.709153 0.661189 -0.08735
C_ C_ 0.0869411 0.700003 0.680037 -0.05681
C_ C_ 0.135369 0.691086 0.669517 -0.05681
C_ C_ 0.143098 0.696133 0.639825 -0.05681
C_ C_ 0.191188 0.691452 0.627427 -0.05681
C_ C_ 0.231324 0.684354 0.646778 -0.08735
C_ C_ 0.224928 0.682908 0.67691 -0.08735
C_ C_ 0.175731 0.684839 0.68811 -0.05681
C_ C_ 0.165699 0.678698 0.71857 0.44287
C_ C_ 0.0787805 0.690255 0.710354 0.44287
C_ C_ 0.108852 0.671419 0.757998 0.18498
C_ C_ 0.0868522 0.624068 0.764674 -0.08735
C_ C_ 0.073441 0.608399 0.792075 -0.08735
C_ C_ 0.0835186 0.642921 0.814645 -0.08735
C_ C_ 0.112738 0.688185 0.810943 0.18498
C_ C_ 0.121908 0.705254 0.782018 -0.05681
C_ C_ 0.149303 0.74993 0.777738 -0.08735
C_ C_ 0.172228 0.773131 0.801437 -0.08735
C_ C_ 0.164361 0.753821 0.829498 0.1947
C_ C_ 0.275914 0.824816 0.655818 0.68181
C_ C_ 0.22 0.829908 0.65116 -0.05681
C_ C_ 0.186266 0.828295 0.674286 -0.08735
C_ C_ 0.133445 0.832417 0.669616 -0.05681
C_ C_ 0.11493 0.833554 0.640905 -0.05681
C_ C_ 0.148636 0.830689 0.618715 -0.08735
C_ C_ 0.200588 0.828176 0.623456 -0.08735
C_ C_ 0.103667 0.850791 0.691956 -0.08735
C_ C_ 0.0505615 0.847212 0.687297 -0.08735
C_ C_ 0.0301062 0.839721 0.659647 -0.05681
C_ C_ 0.0627128 0.841367 0.636253 -0.08735
C_ C_ 0.374296 0.721608 0.663529 0.68181
C_ C_ 0.37054 0.916611 0.647092 0.68181
C_ C_ 0.367174 0.971532 0.645101 -0.05681
C_ C_ 0.355622 0.507191 0.672386 -0.08735
C_ C_ 0.36392 0.560912 0.670209 -0.05681
C_ C_ 0.373561 0.58211 0.643839 -0.05681
C_ C_ 0.369348 0.552996 0.618821 -0.08735
C_ C_ 0.378359 0.994192 0.617293 -0.08735
C_ C_ 0.361982 0.590014 0.695009 -0.08735
C_ C_ 0.368021 0.642395 0.693824 -0.08735
C_ C_ 0.377863 0.665623 0.666973 -0.05681
C_ C_ 0.383104 0.635232 0.642896 -0.08735
C_ C_ 0.473827 0.826521 0.659598 0.68181
C_ C_ 0.412793 0.880889 0.733296 0.1947
C_ C_ 0.424611 0.896685 0.76119 -0.08735
C_ C_ 0.395828 0.878099 0.784754 -0.08735
C_ C_ 0.364488 0.83593 0.780238 -0.05681
C_ C_ 0.355905 0.820329 0.750512 0.18498
C_ C_ 0.325106 0.778776 0.744765 -0.08735
C_ C_ 0.298156 0.753644 0.768179 -0.08735
C_ C_ 0.309007 0.768414 0.795753 -0.08735
C_ C_ 0.338987 0.811739 0.803941 0.18498
C_ C_ 0.313939 0.840204 0.851155 0.44287
C_ C_ 0.395505 0.806234 0.844403 0.44287
C_ C_ 0.406685 0.81181 0.874888 -0.05681
C_ C_ 0.452717 0.797133 0.887761 -0.08735
C_ C_ 0.461427 0.801097 0.917401 -0.08735
C_ C_ 0.420139 0.813955 0.934206 -0.05681
C_ C_ 0.373677 0.830869 0.922398 -0.05681
C_ C_ 0.366131 0.827323 0.892371 -0.05681
C_ C_ 0.318793 0.838825 0.881566 -0.05681
C_ C_ 0.283098 0.864743 0.89971 -0.08735
C_ C_ 0.287141 0.858283 0.929059 -0.08735
C_ C_ 0.33588 0.849468 0.940291 -0.05681
C_ C_ 0.342191 0.846761 0.970455 0.44287
C_ C_ 0.426919 0.815615 0.964934 0.44287
C_ C_ 0.409808 0.843936 0.512513 0.18498
C_ C_ 0.440663 0.888966 0.519772 -0.08735
C_ C_ 0.453865 0.900176 0.547735 -0.08735
C_ C_ 0.43531 0.86805 0.570055 -0.08735
C_ C_ 0.401144 0.829239 0.564394 0.18498
C_ C_ 0.392065 0.813541 0.535112 -0.05681
C_ C_ 0.359576 0.772177 0.53104 -0.08735
C_ C_ 0.340707 0.743226 0.55402 -0.08735
C_ C_ 0.349579 0.761646 0.581633 0.1947
N_ N_ 0.129854 0.664541 0.978589 -0.29468
N_ N_ 0.159603 0.707462 0.580486 -0.17154
N_ N_ 0.118199 0.68233 0.728241 -0.17154
N_ N_ 0.135311 0.712326 0.834879 -0.29468
N_ N_ 0.382182 0.841659 0.728474 -0.29468
N_ N_ 0.350755 0.822266 0.833768 -0.17154
N_ N_ 0.387159 0.830055 0.981944 -0.17154
N_ N_ 0.379357 0.803283 0.586 -0.29468
O_ O_ 0.213046 0.68612 0.93128 -0.58347
O_ O_ 0.205576 0.68742 0.884507 -0.58347
O_ O_ 0.135845 0.757871 0.935798 -0.58347
O_ O_ 0.123422 0.766097 0.888184 -0.58347
O_ O_ 0.144407 0.606019 0.924435 -0.58347
O_ O_ 0.137562 0.609162 0.877844 -0.58347
O_ O_ 0.0647396 0.676507 0.926791 -0.58347
O_ O_ 0.0547044 0.688204 0.879719 -0.58347
O_ O_ 0.0715567 0.70504 0.572652 -0.46727
O_ O_ 0.244644 0.689292 0.586203 -0.46727
O_ O_ 0.0337315 0.696411 0.722525 -0.46727
O_ O_ 0.201069 0.66457 0.736543 -0.46727
O_ O_ 0.295737 0.835416 0.679673 -0.58347
O_ O_ 0.30433 0.815651 0.634121 -0.58347
O_ O_ 0.36528 0.747082 0.685571 -0.58347
O_ O_ 0.385595 0.741735 0.639442 -0.58347
O_ O_ 0.376625 0.898655 0.672137 -0.58347
O_ O_ 0.376772 0.891049 0.625305 -0.58347
O_ O_ 0.446538 0.827081 0.681455 -0.58347
O_ O_ 0.455749 0.823187 0.635421 -0.58347
O_ O_ 0.428266 0.78195 0.828082 -0.46727
O_ O_ 0.268336 0.845074 0.840786 -0.46727
O_ O_ 0.46458 0.79361 0.977802 -0.46727
O_ O_ 0.301689 0.852938 0.987752 -0.46727
Zn Zn 0.629925 0.181437 0.384514 0.90689
Zn Zn 0.637041 0.175437 0.431999 0.90689
Zn Zn 0.870069 0.308375 0.133473 0.90689
Zn Zn 0.855508 0.318173 0.181993 0.90689
H_ H_ 0.804479 0.174651 0.444655 0.11455
H_ H_ 0.874373 0.1577 0.346037 0.11455
H_ H_ 0.783383 0.172186 0.353834 0.11455
H_ H_ 0.893626 0.19283 0.461151 0.11455
H_ H_ 0.979953 0.18031 0.45444 0.11455
H_ H_ 0.961048 0.165512 0.362887 0.11455
H_ H_ 0.658166 0.00738517 0.439453 0.11455
H_ H_ 0.628859 0.427311 0.34859 0.11455
H_ H_ 0.601705 0.0255007 0.354031 0.11455
H_ H_ 0.647934 0.422833 0.466444 0.11455
H_ H_ 0.646547 0.33505 0.462537 0.11455
H_ H_ 0.623577 0.34741 0.371591 0.11455
H_ H_ 0.590728 0.10542 0.471929 0.11455
H_ H_ 0.551662 0.0748893 0.0128059 0.11455
H_ H_ 0.591788 0.117001 0.0549151 0.11455
H_ H_ 0.691767 0.253657 0.472928 0.11455
H_ H_ 0.711879 0.293428 0.0160618 0.11455
H_ H_ 0.680847 0.27448 0.0645169 0.11455
H_ H_ 0.504463 0.199893 0.129742 0.11455
H_ H_ 0.501655 0.180824 0.182152 0.11455
H_ H_ 0.75274 0.141645 0.134913 0.11455
H_ H_ 0.746703 0.131613 0.185702 0.11455
H_ H_ 0.595578 0.0647308 0.252508 0.11455
H_ H_ 0.563009 0.0484068 0.301073 0.11455
H_ H_ 0.579495 0.106401 0.340724 0.11455
H_ H_ 0.66041 0.23716 0.25913 0.11455
H_ H_ 0.681093 0.287498 0.30111 0.11455
H_ H_ 0.673358 0.256594 0.348353 0.11455
H_ H_ 0.690846 0.277752 0.193772 0.11455
H_ H_ 0.624068 0.330282 0.0970937 0.11455
H_ H_ 0.720247 0.314393 0.104849 0.11455
H_ H_ 0.603152 0.29416 0.210917 0.11455
H_ H_ 0.512758 0.292225 0.202427 0.11455
H_ H_ 0.535554 0.329912 0.11596 0.11455
H_ H_ 0.847793 0.484897 0.191887 0.11455
H_ H_ 0.900326 0.0580732 0.0994157 0.11455
H_ H_ 0.832726 0.467403 0.100172 0.11455
H_ H_ 0.858144 0.0651689 0.21351 0.11455
H_ H_ 0.865721 0.157674 0.212512 0.11455
H_ H_ 0.901231 0.144626 0.12167 0.11455
H_ H_ 0.891406 0.401321 0.218088 0.11455
H_ H_ 0.886011 0.438869 0.266689 0.11455
H_ H_ 0.881878 0.375646 0.30737 0.11455
H_ H_ 0.812222 0.241867 0.22501 0.11455
H_ H_ 0.79235 0.184882 0.264677 0.11455
H_ H_ 0.808139 0.208628 0.314077 0.11455
H_ H_ 0.989904 0.313089 0.370759 0.11455
H_ H_ 0.00280432 0.326762 0.422511 0.11455
H_ H_ 0.737774 0.305231 0.394974 0.11455
H_ H_ 0.753273 0.322035 0.444103 0.11455
H_ H_ 0.953502 0.403806 0.500914 0.11455
H_ H_ 0.951297 0.438271 0.0488439 0.11455
H_ H_ 0.921461 0.387503 0.0897184 0.11455
H_ H_ 0.83246 0.255221 0.00612891 0.11455
H_ H_ 0.79352 0.216966 0.0489051 0.11455
H_ H_ 0.822157 0.233737 0.0975821 0.11455
C_ C_ 0.7297 0.174308 0.404166 0.68181
C_ C_ 0.786705 0.172068 0.400165 -0.05681
C_ C_ 0.822132 0.174252 0.423017 -0.08735
C_ C_ 0.874105 0.17541 0.418455 -0.05681
C_ C_ 0.89341 0.170506 0.390293 -0.05681
C_ C_ 0.858872 0.163388 0.367626 -0.08735
C_ C_ 0.806901 0.163196 0.372453 -0.08735
C_ C_ 0.907338 0.177209 0.441077 -0.08735
C_ C_ 0.957473 0.174983 0.436386 -0.08735
C_ C_ 0.978844 0.173419 0.408271 -0.05681
C_ C_ 0.945849 0.168341 0.385506 -0.08735
C_ C_ 0.627974 0.277832 0.413703 0.68181
C_ C_ 0.630118 0.0820352 0.401816 0.68181
C_ C_ 0.627256 0.0248794 0.398019 -0.05681
C_ C_ 0.653366 0.491555 0.42312 -0.08735
C_ C_ 0.646506 0.439623 0.420682 -0.05681
C_ C_ 0.637979 0.416412 0.393324 -0.05681
C_ C_ 0.633368 0.445894 0.368939 -0.08735
C_ C_ 0.63705 0.498526 0.371364 -0.08735
C_ C_ 0.650114 0.407703 0.445488 -0.08735
C_ C_ 0.646783 0.356131 0.442882 -0.08735
C_ C_ 0.631556 0.332832 0.416157 -0.05681
C_ C_ 0.632247 0.363898 0.391689 -0.08735
C_ C_ 0.535511 0.173679 0.41418 0.68181
C_ C_ 0.6092 0.128683 0.48752 0.1947
C_ C_ 0.576341 0.107401 0.0102687 -0.08735
C_ C_ 0.599734 0.129276 0.0338029 -0.08735
C_ C_ 0.626672 0.176288 0.0290849 -0.05681
C_ C_ 0.63634 0.192138 1.000173816 0.18498
C_ C_ 0.679192 0.247883 0.493932 -0.08735
C_ C_ 0.681106 0.264887 0.0183579 -0.08735
C_ C_ 0.666031 0.250956 0.0469051 -0.08735
C_ C_ 0.642111 0.204712 0.052114 0.18498
C_ C_ 0.677797 0.179324 0.0980822 0.44287
C_ C_ 0.591528 0.195317 0.0968857 0.44287
C_ C_ 0.585957 0.18762 0.12691 -0.05681
C_ C_ 0.538964 0.190895 0.140756 -0.08735
C_ C_ 0.537995 0.187108 0.17031 -0.08735
C_ C_ 0.58203 0.180777 0.186864 -0.05681
C_ C_ 0.624977 0.166657 0.172624 -0.05681
C_ C_ 0.628342 0.172563 0.142262 -0.05681
C_ C_ 0.674693 0.165138 0.127721 -0.05681
C_ C_ 0.717636 0.147437 0.144664 -0.08735
C_ C_ 0.714504 0.142599 0.174 -0.08735
C_ C_ 0.66888 0.156113 0.188144 -0.05681
C_ C_ 0.665041 0.151846 0.218004 0.44287
C_ C_ 0.579714 0.173626 0.217235 0.44287
C_ C_ 0.617284 0.143163 0.262115 0.18498
C_ C_ 0.59761 0.0936639 0.269153 -0.08735
C_ C_ 0.585246 0.0816882 0.29721 -0.08735
C_ C_ 0.588115 0.11704 0.318503 -0.08735
C_ C_ 0.61485 0.160922 0.313172 0.18498
C_ C_ 0.624192 0.177417 0.285356 -0.05681
C_ C_ 0.650971 0.222757 0.280533 -0.08735
C_ C_ 0.668529 0.250867 0.30453 -0.08735
C_ C_ 0.664019 0.230438 0.331678 0.1947
C_ C_ 0.766178 0.300469 0.156075 0.68181
C_ C_ 0.710154 0.300219 0.150466 -0.05681
C_ C_ 0.675857 0.292099 0.172923 -0.08735
C_ C_ 0.622786 0.302277 0.167606 -0.05681
C_ C_ 0.604025 0.315298 0.139792 -0.05681
C_ C_ 0.638435 0.319624 0.117676 -0.08735
C_ C_ 0.692047 0.309445 0.121887 -0.08735
C_ C_ 0.588496 0.301259 0.190526 -0.08735
C_ C_ 0.537917 0.300528 0.185687 -0.08735
C_ C_ 0.517296 0.312174 0.157937 -0.05681
C_ C_ 0.549974 0.323513 0.136224 -0.08735
C_ C_ 0.880748 0.21498 0.162918 0.68181
C_ C_ 0.843437 0.412276 0.150781 0.68181
C_ C_ 0.838882 0.469175 0.147001 -0.05681
C_ C_ 0.863819 -0.00031999999999998696 0.172871 -0.08735
C_ C_ 0.874844 0.0520883 0.170692 -0.05681
C_ C_ 0.892361 0.0727336 0.146074 -0.05681
C_ C_ 0.899406 0.0426276 0.12128 -0.08735
C_ C_ 0.839156 0.491088 0.119306 -0.08735
C_ C_ 0.863223 0.0831053 0.193467 -0.08735
C_ C_ 0.870492 0.135279 0.192583 -0.08735
C_ C_ 0.88128 0.158441 0.166001 -0.05681
C_ C_ 0.892579 0.126694 0.143019 -0.08735
C_ C_ 0.960256 0.330357 0.161503 0.68181
C_ C_ 0.873124 0.381296 0.235272 0.1947
C_ C_ 0.873792 0.399488 0.263255 -0.08735
C_ C_ 0.867422 0.366179 0.28622 -0.08735
C_ C_ 0.854022 0.314544 0.281099 -0.05681
C_ C_ 0.845517 0.298872 0.251884 0.18498
C_ C_ 0.828117 0.250373 0.245495 -0.08735
C_ C_ 0.81248 0.219 0.267676 -0.08735
C_ C_ 0.819382 0.233127 0.297304 -0.08735
C_ C_ 0.843503 0.280303 0.304094 0.18498
C_ C_ 0.811386 0.301505 0.351535 0.44287
C_ C_ 0.899797 0.293688 0.344371 0.44287
C_ C_ 0.908119 0.302248 0.373469 -0.05681
C_ C_ 0.957784 0.309914 0.3848 -0.08735
C_ C_ 0.964806 0.320195 0.413531 -0.08735
C_ C_ 0.925006 0.317082 0.433449 -0.05681
C_ C_ 0.876229 0.319957 0.422359 -0.05681
C_ C_ 0.867158 0.312201 0.39211 -0.05681
C_ C_ 0.818556 0.311548 0.380774 -0.05681
C_ C_ 0.777856 0.312741 0.400902 -0.08735
C_ C_ 0.785814 0.318559 0.429933 -0.08735
C_ C_ 0.835343 0.321413 0.440728 -0.05681
C_ C_ 0.844601 0.337951 0.469449 0.44287
C_ C_ 0.931617 0.325092 0.46298 0.44287
C_ C_ 0.895211 0.342171 0.0102441 0.18498
C_ C_ 0.921613 0.388055 0.0171072 -0.08735
C_ C_ 0.93238 0.402029 0.0444282 -0.08735
C_ C_ 0.914977 0.37162 0.0681322 -0.08735
C_ C_ 0.88709 0.326709 0.0624891 0.18498
C_ C_ 0.875436 0.313484 0.0331349 -0.05681
C_ C_ 0.842128 0.271369 0.0279841 -0.08735
C_ C_ 0.822551 0.243986 0.0510498 -0.08735
C_ C_ 0.837957 0.256609 0.0791194 0.1947
N_ N_ 0.637449 0.170529 0.480721 -0.29468
N_ N_ 0.636499 0.190043 0.082959 -0.17154
N_ N_ 0.620526 0.157172 0.231425 -0.17154
N_ N_ 0.629635 0.192389 0.336358 -0.29468
N_ N_ 0.855791 0.332907 0.229907 -0.29468
N_ N_ 0.853046 0.291228 0.333963 -0.17154
N_ N_ 0.891677 0.335237 0.480399 -0.17154
N_ N_ 0.867234 0.29797 0.0840208 -0.29468
O_ O_ 0.712299 0.173986 0.429334 -0.58347
O_ O_ 0.703059 0.187824 0.38263 -0.58347
O_ O_ 0.637695 0.250267 0.435683 -0.58347
O_ O_ 0.619533 0.257519 0.38914 -0.58347
O_ O_ 0.63651 0.0994877 0.426464 -0.58347
O_ O_ 0.639393 0.109798 0.380554 -0.58347
O_ O_ 0.565057 0.178308 0.435701 -0.58347
O_ O_ 0.552458 0.174597 0.389172 -0.58347
O_ O_ 0.553779 0.212345 0.0824597 -0.46727
O_ O_ 0.723018 0.173913 0.08647 -0.46727
O_ O_ 0.537172 0.177193 0.230583 -0.46727
O_ O_ 0.704644 0.141398 0.233563 -0.46727
O_ O_ 0.782305 0.306314 0.181413 -0.58347
O_ O_ 0.795841 0.296333 0.134722 -0.58347
O_ O_ 0.872996 0.242766 0.184215 -0.58347
O_ O_ 0.876452 0.233193 0.137485 -0.58347
O_ O_ 0.836015 0.389141 0.17497 -0.58347
O_ O_ 0.858604 0.386388 0.129658 -0.58347
O_ O_ 0.931908 0.340401 0.183096 -0.58347
O_ O_ 0.94069 0.321408 0.13715 -0.58347
O_ O_ 0.938734 0.296856 0.326817 -0.46727
O_ O_ 0.767944 0.313065 0.340141 -0.46727
O_ O_ 0.977905 0.323641 0.472392 -0.46727
O_ O_ 0.806921 0.349481 0.486195 -0.46727
Zn Zn 0.612201 0.187536 0.882715 0.90689
Zn Zn 0.621722 0.178835 0.930011 0.90689
Zn Zn 0.86818 0.319863 0.633228 0.90689
Zn Zn 0.862919 0.325504 0.680509 0.90689
H_ H_ 0.791798 0.19966 0.943009 0.11455
H_ H_ 0.861707 0.16332 0.845632 0.11455
H_ H_ 0.768286 0.170455 0.851547 0.11455
H_ H_ 0.882471 0.165778 0.962769 0.11455
H_ H_ 0.969963 0.151348 0.953798 0.11455
H_ H_ 0.944158 0.164669 0.864682 0.11455
H_ H_ 0.615402 0.0127984 0.943355 0.11455
H_ H_ 0.642384 0.432756 0.846209 0.11455
H_ H_ 0.609012 0.0235447 0.851867 0.11455
H_ H_ 0.62239 0.432134 0.964641 0.11455
H_ H_ 0.608127 0.342456 0.96169 0.11455
H_ H_ 0.653425 0.350035 0.871557 0.11455
H_ H_ 0.557751 0.113871 0.966618 0.11455
H_ H_ 0.574364 0.0836477 0.521678 0.11455
H_ H_ 0.620969 0.131835 0.559868 0.11455
H_ H_ 0.676856 0.24314 0.97392 0.11455
H_ H_ 0.724428 0.312418 0.512475 0.11455
H_ H_ 0.69523 0.297761 0.562242 0.11455
H_ H_ 0.508835 0.213911 0.620327 0.11455
H_ H_ 0.494788 0.200628 0.673572 0.11455
H_ H_ 0.757151 0.195217 0.64291 0.11455
H_ H_ 0.744526 0.177426 0.69403 0.11455
H_ H_ 0.553443 0.0953212 0.745255 0.11455
H_ H_ 0.539768 0.0681873 0.797374 0.11455
H_ H_ 0.550493 0.126225 0.836201 0.11455
H_ H_ 0.649122 0.252213 0.75801 0.11455
H_ H_ 0.686809 0.29134 0.800392 0.11455
H_ H_ 0.673785 0.256994 0.847423 0.11455
H_ H_ 0.692012 0.299193 0.690404 0.11455
H_ H_ 0.63428 0.367639 0.598118 0.11455
H_ H_ 0.72239 0.373994 0.611337 0.11455
H_ H_ 0.60805 0.308426 0.711896 0.11455
H_ H_ 0.516545 0.324758 0.70375 0.11455
H_ H_ 0.542403 0.348779 0.614207 0.11455
H_ H_ 0.866616 0.48903 0.693835 0.11455
H_ H_ 0.888175 0.0664604 0.598289 0.11455
H_ H_ 0.859563 0.472378 0.601561 0.11455
H_ H_ 0.82714 0.0741241 0.710797 0.11455
H_ H_ 0.832085 0.169114 0.70675 0.11455
H_ H_ 0.902332 0.154267 0.62404 0.11455
H_ H_ 0.934515 0.383176 0.715076 0.11455
H_ H_ 0.95497 0.416343 0.761888 0.11455
H_ H_ 0.909909 0.380108 0.805141 0.11455
H_ H_ 0.797594 0.271577 0.722838 0.11455
H_ H_ 0.753316 0.227689 0.76366 0.11455
H_ H_ 0.781508 0.244414 0.813025 0.11455
H_ H_ 0.983022 0.276936 0.874072 0.11455
H_ H_ -0.005911 0.284971 0.923656 0.11455
H_ H_ 0.744319 0.369255 0.886332 0.11455
H_ H_ 0.749993 0.365827 0.939267 0.11455
H_ H_ 0.946483 0.405533 1.000246859 0.11455
H_ H_ 0.963284 0.43417 0.550862 0.11455
H_ H_ 0.916308 0.39347 0.590047 0.11455
H_ H_ 0.84308 0.258464 0.509568 0.11455
H_ H_ 0.818359 0.204612 0.549547 0.11455
H_ H_ 0.826723 0.239746 0.597047 0.11455
C_ C_ 0.716283 0.180692 0.902901 0.68181
C_ C_ 0.773493 0.183947 0.89898 -0.05681
C_ C_ 0.806716 0.184087 0.923329 -0.08735
C_ C_ 0.859045 0.170654 0.919449 -0.05681
C_ C_ 0.877853 0.165009 0.890986 -0.05681
C_ C_ 0.844511 0.165512 0.867201 -0.08735
C_ C_ 0.792217 0.170345 0.87201 -0.08735
C_ C_ 0.893573 0.163676 0.941404 -0.08735
C_ C_ 0.944497 0.148738 0.936544 -0.08735
C_ C_ 0.964268 0.157125 0.908188 -0.05681
C_ C_ 0.930332 0.158448 0.8856 -0.08735
C_ C_ 0.620279 0.282049 0.912646 0.68181
C_ C_ 0.61316 0.082953 0.90062 0.68181
C_ C_ 0.613074 0.0251237 0.897565 -0.05681
C_ C_ 0.642351 0.496727 0.921851 -0.08735
C_ C_ 0.640365 0.444858 0.919469 -0.05681
C_ C_ 0.644039 0.421559 0.892926 -0.05681
C_ C_ 0.650024 0.449967 0.868133 -0.08735
C_ C_ 0.653108 0.502361 0.870587 -0.08735
C_ C_ 0.630155 0.414438 0.94396 -0.08735
C_ C_ 0.622812 0.362445 0.942248 -0.08735
C_ C_ 0.629457 0.338449 0.914892 -0.05681
C_ C_ 0.64291 0.367953 0.891263 -0.08735
C_ C_ 0.518245 0.189187 0.910536 0.68181
C_ C_ 0.583677 0.125538 0.982497 0.1947
C_ C_ 0.600814 0.116898 0.51645 -0.08735
C_ C_ 0.621805 0.145503 0.538133 -0.08735
C_ C_ 0.642846 0.192803 0.530433 -0.05681
C_ C_ 0.654163 0.203362 0.501413 0.18498
C_ C_ 0.665236 0.234604 0.995462 -0.08735
C_ C_ 0.698101 0.281008 0.517159 -0.08735
C_ C_ 0.682702 0.2717 0.545745 -0.08735
C_ C_ 0.654924 0.227696 0.552951 0.18498
C_ C_ 0.687712 0.208195 0.6018 0.44287
C_ C_ 0.598512 0.218057 0.592742 0.44287
C_ C_ 0.588945 0.208401 0.622271 -0.05681
C_ C_ 0.539743 0.205048 0.634319 -0.08735
C_ C_ 0.531295 0.200141 0.664316 -0.08735
C_ C_ 0.572397 0.198939 0.683066 -0.05681
C_ C_ 0.622803 0.199688 0.671371 -0.05681
C_ C_ 0.630555 0.201632 0.641373 -0.05681
C_ C_ 0.679828 0.201772 0.631116 -0.05681
C_ C_ 0.720601 0.193279 0.650371 -0.08735
C_ C_ 0.713749 0.185951 0.680067 -0.08735
C_ C_ 0.664086 0.190948 0.690829 -0.05681
C_ C_ 0.651443 0.175115 0.719474 0.44287
C_ C_ 0.562659 0.192831 0.712983 0.44287
C_ C_ 0.593903 0.162919 0.75868 0.18498
C_ C_ 0.567895 0.117653 0.762959 -0.08735
C_ C_ 0.557611 0.104448 0.79209 -0.08735
C_ C_ 0.569345 0.13331 0.815356 -0.08735
C_ C_ 0.599205 0.17732 0.81051 0.18498
C_ C_ 0.609328 0.194335 0.782453 -0.05681
C_ C_ 0.636187 0.239265 0.779009 -0.08735
C_ C_ 0.659223 0.26314 0.80227 -0.08735
C_ C_ 0.654225 0.241614 0.829042 0.1947
C_ C_ 0.768814 0.327543 0.65409 0.68181
C_ C_ 0.714397 0.331597 0.650212 -0.05681
C_ C_ 0.679459 0.3151 0.670774 -0.08735
C_ C_ 0.627306 0.325557 0.667614 -0.05681
C_ C_ 0.608727 0.337786 0.640121 -0.05681
C_ C_ 0.643943 0.360306 0.620684 -0.08735
C_ C_ 0.695749 0.35784 0.626366 -0.08735
C_ C_ 0.592854 0.317649 0.690079 -0.08735
C_ C_ 0.540724 0.321476 0.684626 -0.08735
C_ C_ 0.523794 0.328561 0.657454 -0.05681
C_ C_ 0.557493 0.33915 0.635143 -0.08735
C_ C_ 0.872791 0.225468 0.662806 0.68181
C_ C_ 0.864182 0.420618 0.651479 0.68181
C_ C_ 0.866193 0.475524 0.647358 -0.05681
C_ C_ 0.85882 0.00865222 0.670965 -0.08735
C_ C_ 0.85401 0.0610063 0.667734 -0.05681
C_ C_ 0.874713 0.083159 0.642698 -0.05681
C_ C_ 0.881393 0.0518322 0.618781 -0.08735
C_ C_ 0.863858 0.498297 0.620389 -0.08735
C_ C_ 0.8399 0.091371 0.690954 -0.08735
C_ C_ 0.84202 0.146295 0.688706 -0.08735
C_ C_ 0.86339 0.168241 0.664142 -0.05681
C_ C_ 0.886655 0.136522 0.642033 -0.08735
C_ C_ 0.961912 0.316836 0.652863 0.68181
C_ C_ 0.911359 0.370552 0.732305 0.1947
C_ C_ 0.923676 0.389472 0.759684 -0.08735
C_ C_ 0.900468 0.367735 0.784207 -0.08735
C_ C_ 0.862596 0.327583 0.780007 -0.05681
C_ C_ 0.848182 0.315813 0.750316 0.18498
C_ C_ 0.808131 0.280344 0.744826 -0.08735
C_ C_ 0.784529 0.25555 0.767775 -0.08735
C_ C_ 0.800393 0.265792 0.796121 -0.08735
C_ C_ 0.836323 0.302161 0.80261 0.18498
C_ C_ 0.810369 0.329537 0.849656 0.44287
C_ C_ 0.892259 0.297524 0.844179 0.44287
C_ C_ 0.902963 0.305995 0.873359 -0.05681
C_ C_ 0.951409 0.294247 0.885346 -0.08735
C_ C_ 0.957187 0.293538 0.914301 -0.08735
C_ C_ 0.914805 0.304594 0.933691 -0.05681
C_ C_ 0.867007 0.316645 0.921642 -0.05681
C_ C_ 0.861121 0.315696 0.891007 -0.05681
C_ C_ 0.816458 0.332528 0.879591 -0.05681
C_ C_ 0.775924 0.348838 0.896534 -0.08735
C_ C_ 0.78201 0.351944 0.926342 -0.08735
C_ C_ 0.82819 0.33723 0.938502 -0.05681
C_ C_ 0.837639 0.34025 0.96858 0.44287
C_ C_ 0.922136 0.312663 0.963221 0.44287
C_ C_ 0.900457 0.343884 0.511223 0.18498
C_ C_ 0.934083 0.38283 0.5177 -0.08735
C_ C_ 0.939433 0.399277 0.546405 -0.08735
C_ C_ 0.909191 0.380442 0.567583 -0.08735
C_ C_ 0.887189 0.332922 0.563017 0.18498
C_ C_ 0.878307 0.314512 0.534157 -0.05681
C_ C_ 0.851711 0.26935 0.529437 -0.08735
C_ C_ 0.833355 0.243206 0.552934 -0.08735
C_ C_ 0.838762 0.264163 0.58044 0.1947
N_ N_ 0.616751 0.165247 0.977757 -0.29468
N_ N_ 0.648301 0.214343 0.583265 -0.17154
N_ N_ 0.602785 0.180353 0.730601 -0.17154
N_ N_ 0.622072 0.201841 0.832729 -0.29468
N_ N_ 0.873471 0.337737 0.728111 -0.29468
N_ N_ 0.849138 0.312533 0.83232 -0.17154
N_ N_ 0.884608 0.330801 0.980609 -0.17154
N_ N_ 0.863211 0.307556 0.58564 -0.29468
O_ O_ 0.697361 0.174905 0.927681 -0.58347
O_ O_ 0.687697 0.186674 0.881362 -0.58347
O_ O_ 0.627151 0.252895 0.934925 -0.58347
O_ O_ 0.611844 0.262767 0.88909 -0.58347
O_ O_ 0.611206 0.101528 0.925489 -0.58347
O_ O_ 0.617336 0.110908 0.878726 -0.58347
O_ O_ 0.545145 0.181743 0.932441 -0.58347
O_ O_ 0.536988 0.185856 0.885657 -0.58347
O_ O_ 0.560239 0.215893 0.573389 -0.46727
O_ O_ 0.734454 0.208332 0.591036 -0.46727
O_ O_ 0.515693 0.197063 0.724029 -0.46727
O_ O_ 0.688589 0.158784 0.735032 -0.46727
O_ O_ 0.788495 0.330262 0.678467 -0.58347
O_ O_ 0.794379 0.3122 0.633975 -0.58347
O_ O_ 0.854773 0.251713 0.682873 -0.58347
O_ O_ 0.883378 0.244538 0.638762 -0.58347
O_ O_ 0.872801 0.400528 0.675546 -0.58347
O_ O_ 0.853861 0.392957 0.630228 -0.58347
O_ O_ 0.936169 0.316555 0.67499 -0.58347
O_ O_ 0.942515 0.327779 0.629824 -0.58347
O_ O_ 0.927309 0.277037 0.829477 -0.46727
O_ O_ 0.763279 0.330877 0.839382 -0.46727
O_ O_ 0.966481 0.302935 0.973773 -0.46727
O_ O_ 0.802492 0.363693 0.984684 -0.46727
Zn Zn 0.636417 0.68136 0.382184 0.90689
Zn Zn 0.641256 0.677569 0.429937 0.90689
Zn Zn 0.873972 0.806431 0.131113 0.90689
Zn Zn 0.8635 0.812626 0.178902 0.90689
H_ H_ 0.81046 0.689284 0.447039 0.11455
H_ H_ 0.883407 0.684844 0.349208 0.11455
H_ H_ 0.794754 0.655777 0.357153 0.11455
H_ H_ 0.897725 0.700005 0.465503 0.11455
H_ H_ 0.991079 0.694407 0.459317 0.11455
H_ H_ 0.969961 0.689663 0.368169 0.11455
H_ H_ 0.652866 0.508853 0.443609 0.11455
H_ H_ 0.595242 0.931598 0.351136 0.11455
H_ H_ 0.630427 0.518209 0.352816 0.11455
H_ H_ 0.630138 0.927175 0.465613 0.11455
H_ H_ 0.626974 0.833517 0.461946 0.11455
H_ H_ 0.611288 0.850552 0.37036 0.11455
H_ H_ 0.576632 0.617206 0.466549 0.11455
H_ H_ 0.581293 0.564207 0.011525 0.11455
H_ H_ 0.621935 0.608505 0.0536026 0.11455
H_ H_ 0.712383 0.731776 0.473251 0.11455
H_ H_ 0.716025 0.800762 0.0149153 0.11455
H_ H_ 0.689731 0.780996 0.0618349 0.11455
H_ H_ 0.519082 0.705581 0.12434 0.11455
H_ H_ 0.507503 0.686046 0.17515 0.11455
H_ H_ 0.766582 0.660534 0.138206 0.11455
H_ H_ 0.75834 0.642619 0.187669 0.11455
H_ H_ 0.566268 0.587671 0.251138 0.11455
H_ H_ 0.562923 0.557274 0.29993 0.11455
H_ H_ 0.586063 0.613798 0.339923 0.11455
H_ H_ 0.668417 0.738213 0.258468 0.11455
H_ H_ 0.699169 0.791233 0.29837 0.11455
H_ H_ 0.680949 0.762961 0.34868 0.11455
H_ H_ 0.693643 0.781988 0.196734 0.11455
H_ H_ 0.632067 0.840155 0.0985722 0.11455
H_ H_ 0.727236 0.822836 0.107348 0.11455
H_ H_ 0.611046 0.788696 0.214962 0.11455
H_ H_ 0.521883 0.79787 0.20884 0.11455
H_ H_ 0.545163 0.837506 0.119224 0.11455
H_ H_ 0.852652 0.980333 0.192241 0.11455
H_ H_ 0.841989 0.559277 0.0929512 0.11455
H_ H_ 0.901693 0.961927 0.105639 0.11455
H_ H_ 0.871312 0.56639 0.212018 0.11455
H_ H_ 0.902165 0.652817 0.205626 0.11455
H_ H_ 0.867874 0.642394 0.114666 0.11455
H_ H_ 0.931108 0.8786 0.216107 0.11455
H_ H_ 0.940359 0.911293 0.262959 0.11455
H_ H_ 0.885553 0.879692 0.30291 0.11455
H_ H_ 0.818978 0.737778 0.225394 0.11455
H_ H_ 0.770927 0.703569 0.265215 0.11455
H_ H_ 0.786875 0.724283 0.313363 0.11455
H_ H_ 0.98292 0.816228 0.37217 0.11455
H_ H_ -0.009963000000000055 0.840839 0.421583 0.11455
H_ H_ 0.729049 0.833583 0.388752 0.11455
H_ H_ 0.739639 0.843728 0.440917 0.11455
H_ H_ 0.918694 0.919882 0.49687 0.11455
H_ H_ 0.95232 0.927049 0.0499524 0.11455
H_ H_ 0.930997 0.868026 0.0886887 0.11455
H_ H_ 0.83226 0.748057 0.00773776 0.11455
H_ H_ 0.796878 0.704559 0.0488755 0.11455
H_ H_ 0.824355 0.728209 0.0975845 0.11455
C_ C_ 0.737775 0.678221 0.404796 0.68181
C_ C_ 0.793947 0.673346 0.401981 -0.05681
C_ C_ 0.825973 0.684034 0.425375 -0.08735
C_ C_ 0.879417 0.685199 0.421871 -0.05681
C_ C_ 0.899548 0.685641 0.394294 -0.05681
C_ C_ 0.868237 0.678469 0.370701 -0.08735
C_ C_ 0.815519 0.67386 0.375284 -0.08735
C_ C_ 0.911637 0.688847 0.445521 -0.08735
C_ C_ 0.965131 0.688289 0.4411 -0.08735
C_ C_ 0.986266 0.689727 0.412893 -0.05681
C_ C_ 0.951625 0.687949 0.389873 -0.08735
C_ C_ 0.631753 0.779508 0.411186 0.68181
C_ C_ 0.644973 0.579615 0.400904 0.68181
C_ C_ 0.64498 0.522419 0.398933 -0.05681
C_ C_ 0.638556 0.991727 0.421214 -0.08735
C_ C_ 0.63095 0.940935 0.419079 -0.05681
C_ C_ 0.620009 0.919574 0.393555 -0.05681
C_ C_ 0.612258 0.950342 0.369783 -0.08735
C_ C_ 0.615314 1.00317 0.371346 -0.08735
C_ C_ 0.632583 0.909384 0.443861 -0.08735
C_ C_ 0.627695 0.856635 0.441681 -0.08735
C_ C_ 0.617773 0.835247 0.414918 -0.05681
C_ C_ 0.610903 0.866385 0.391784 -0.08735
C_ C_ 0.540164 0.677905 0.405732 0.68181
C_ C_ 0.597983 0.630619 0.484023 0.1947
C_ C_ 0.601938 0.601946 0.00874355 -0.08735
C_ C_ 0.627795 0.624408 0.0318382 -0.08735
C_ C_ 0.650646 0.672258 0.0275929 -0.05681
C_ C_ 0.656093 0.690811 0.999672 0.18498
C_ C_ 0.694881 0.728754 0.494415 -0.08735
C_ C_ 0.693712 0.768574 0.0176898 -0.08735
C_ C_ 0.677335 0.757257 0.0458758 -0.08735
C_ C_ 0.659438 0.707437 0.0517496 0.18498
C_ C_ 0.694483 0.681376 0.099552 0.44287
C_ C_ 0.607492 0.698933 0.0938988 0.44287
C_ C_ 0.599113 0.690235 0.123601 -0.05681
C_ C_ 0.548625 0.687934 0.134843 -0.08735
C_ C_ 0.543059 0.679731 0.165115 -0.08735
C_ C_ 0.585468 0.674129 0.183619 -0.05681
C_ C_ 0.633637 0.666492 0.170685 -0.05681
C_ C_ 0.641291 0.677126 0.140915 -0.05681
C_ C_ 0.688447 0.675339 0.129039 -0.05681
C_ C_ 0.729896 0.663713 0.146829 -0.08735
C_ C_ 0.724256 0.652487 0.176123 -0.08735
C_ C_ 0.675853 0.658321 0.188727 -0.05681
C_ C_ 0.667841 0.652077 0.218186 0.44287
C_ C_ 0.581922 0.673316 0.213906 0.44287
C_ C_ 0.614952 0.648951 0.260853 0.18498
C_ C_ 0.588659 0.604161 0.267758 -0.08735
C_ C_ 0.580805 0.593266 0.296581 -0.08735
C_ C_ 0.5954 0.62427 0.319033 -0.08735
C_ C_ 0.622825 0.667408 0.313513 0.18498
C_ C_ 0.633741 0.680339 0.284256 -0.05681
C_ C_ 0.657613 0.72658 0.279537 -0.08735
C_ C_ 0.679909 0.752971 0.30258 -0.08735
C_ C_ 0.672155 0.736692 0.330911 0.1947
C_ C_ 0.771865 0.801442 0.158566 0.68181
C_ C_ 0.715914 0.806065 0.153022 -0.05681
C_ C_ 0.680316 0.790661 0.174195 -0.08735
C_ C_ 0.630421 0.799251 0.170324 -0.05681
C_ C_ 0.611319 0.816689 0.143556 -0.05681
C_ C_ 0.646638 0.823709 0.120095 -0.08735
C_ C_ 0.699344 0.821418 0.124487 -0.08735
C_ C_ 0.595801 0.791093 0.193056 -0.08735
C_ C_ 0.545763 0.805365 0.190429 -0.08735
C_ C_ 0.523543 0.814529 0.162267 -0.05681
C_ C_ 0.558858 0.822887 0.13907 -0.08735
C_ C_ 0.881463 0.711394 0.157209 0.68181
C_ C_ 0.862763 0.910323 0.151285 0.68181
C_ C_ 0.870995 0.967513 0.149342 -0.05681
C_ C_ 0.851411 0.499446 0.170568 -0.08735
C_ C_ 0.865251 0.551675 0.165989 -0.05681
C_ C_ 0.868517 0.572333 0.138359 -0.05681
C_ C_ 0.851529 0.54227 0.11463 -0.08735
C_ C_ 0.890609 0.988928 0.123705 -0.08735
C_ C_ 0.879605 0.580478 0.189726 -0.08735
C_ C_ 0.891555 0.631461 0.186687 -0.08735
C_ C_ 0.885939 0.654863 0.158982 -0.05681
C_ C_ 0.874928 0.625263 0.135043 -0.08735
C_ C_ 0.967101 0.811617 0.154273 0.68181
C_ C_ 0.908993 0.860615 0.233558 0.1947
C_ C_ 0.915601 0.878714 0.261296 -0.08735
C_ C_ 0.886008 0.86162 0.28364 -0.08735
C_ C_ 0.85492 0.819681 0.279126 -0.05681
C_ C_ 0.851696 0.800131 0.250257 0.18498
C_ C_ 0.822869 0.755926 0.246302 -0.08735
C_ C_ 0.793477 0.735696 0.268578 -0.08735
C_ C_ 0.806926 0.746223 0.296315 -0.08735
C_ C_ 0.835468 0.791873 0.302238 0.18498
C_ C_ 0.801652 0.814571 0.350281 0.44287
C_ C_ 0.890708 0.806041 0.343714 0.44287
C_ C_ 0.897822 0.811299 0.37331 -0.05681
C_ C_ 0.947842 0.818227 0.384878 -0.08735
C_ C_ 0.952205 0.830442 0.414313 -0.08735
C_ C_ 0.911495 0.828239 0.432609 -0.05681
C_ C_ 0.861748 0.825259 0.421775 -0.05681
C_ C_ 0.856262 0.817558 0.391677 -0.05681
C_ C_ 0.807749 0.82183 0.380061 -0.05681
C_ C_ 0.766552 0.829545 0.397736 -0.08735
C_ C_ 0.771104 0.831128 0.427255 -0.08735
C_ C_ 0.819905 0.829293 0.439665 -0.05681
C_ C_ 0.829567 0.833874 0.469087 0.44287
C_ C_ 0.919271 0.831312 0.462414 0.44287
C_ C_ 0.884577 0.840534 0.0107282 0.18498
C_ C_ 0.91332 0.883841 0.0172426 -0.08735
C_ C_ 0.931649 0.891484 0.0457246 -0.08735
C_ C_ 0.91853 0.858539 0.0676733 -0.08735
C_ C_ 0.888394 0.815855 0.062046 0.18498
C_ C_ 0.871708 0.804192 0.0332608 -0.05681
C_ C_ 0.842892 0.759701 0.0290757 -0.08735
C_ C_ 0.817123 0.739541 0.052275 -0.08735
C_ C_ 0.831571 0.753834 0.0795311 0.1947
N_ N_ 0.633422 0.666141 0.477866 -0.29468
N_ N_ 0.653073 0.692525 0.081565 -0.17154
N_ N_ 0.621425 0.659552 0.230495 -0.17154
N_ N_ 0.642231 0.69452 0.335213 -0.29468
N_ N_ 0.877446 0.820988 0.22784 -0.29468
N_ N_ 0.843013 0.805295 0.332497 -0.17154
N_ N_ 0.877335 0.831487 0.480535 -0.17154
N_ N_ 0.868195 0.789599 0.0837918 -0.29468
O_ O_ 0.716639 0.669776 0.428564 -0.58347
O_ O_ 0.711359 0.688219 0.383313 -0.58347
O_ O_ 0.647507 0.755404 0.432266 -0.58347
O_ O_ 0.622053 0.755321 0.388846 -0.58347
O_ O_ 0.634595 0.600216 0.423646 -0.58347
O_ O_ 0.650007 0.60378 0.378385 -0.58347
O_ O_ 0.566918 0.688813 0.427216 -0.58347
O_ O_ 0.560513 0.670807 0.380901 -0.58347
O_ O_ 0.566872 0.714118 0.0788403 -0.46727
O_ O_ 0.737287 0.667606 0.087413 -0.46727
O_ O_ 0.541484 0.69103 0.225739 -0.46727
O_ O_ 0.706641 0.640572 0.235563 -0.46727
O_ O_ 0.790259 0.812891 0.182757 -0.58347
O_ O_ 0.801808 0.79586 0.13714 -0.58347
O_ O_ 0.872822 0.736518 0.180072 -0.58347
O_ O_ 0.884176 0.733223 0.133163 -0.58347
O_ O_ 0.862833 0.889754 0.17578 -0.58347
O_ O_ 0.860168 0.884528 0.128615 -0.58347
O_ O_ 0.937506 0.810872 0.175959 -0.58347
O_ O_ 0.946873 0.815573 0.129548 -0.58347
O_ O_ 0.929979 0.798938 0.32728 -0.46727
O_ O_ 0.757553 0.825544 0.338635 -0.46727
O_ O_ 0.964525 0.824997 0.472879 -0.46727
O_ O_ 0.791644 0.847134 0.486667 -0.46727
Zn Zn 0.627069 0.683703 0.880541 0.90689
Zn Zn 0.638912 0.676006 0.929559 0.90689
Zn Zn 0.878051 0.816496 0.634505 0.90689
Zn Zn 0.870121 0.829544 0.67989 0.90689
H_ H_ 0.806185 0.695861 0.944164 0.11455
H_ H_ 0.872566 0.694054 0.844004 0.11455
H_ H_ 0.779984 0.691901 0.851647 0.11455
H_ H_ 0.890367 0.689669 0.962716 0.11455
H_ H_ 0.982339 0.673922 0.95357 0.11455
H_ H_ 0.965177 0.685937 0.863046 0.11455
H_ H_ 0.654613 0.512773 0.942066 0.11455
H_ H_ 0.599412 0.93094 0.847249 0.11455
H_ H_ 0.652004 0.524185 0.85094 0.11455
H_ H_ 0.624151 0.926796 0.965163 0.11455
H_ H_ 0.623823 0.83466 0.960025 0.11455
H_ H_ 0.603599 0.846686 0.868676 0.11455
H_ H_ 0.585836 0.605075 0.963311 0.11455
H_ H_ 0.570055 0.576438 0.515872 0.11455
H_ H_ 0.603822 0.626161 0.555973 0.11455
H_ H_ 0.696108 0.742982 0.974787 0.11455
H_ H_ 0.731005 0.793986 0.510404 0.11455
H_ H_ 0.711309 0.779127 0.559731 0.11455
H_ H_ 0.510286 0.709855 0.619654 0.11455
H_ H_ 0.491998 0.707521 0.669788 0.11455
H_ H_ 0.757359 0.672395 0.639567 0.11455
H_ H_ 0.744949 0.669084 0.691693 0.11455
H_ H_ 0.559224 0.610766 0.745947 0.11455
H_ H_ 0.551658 0.571859 0.794589 0.11455
H_ H_ 0.579741 0.617739 0.836148 0.11455
H_ H_ 0.638769 0.773379 0.761407 0.11455
H_ H_ 0.676328 0.814318 0.800369 0.11455
H_ H_ 0.660808 0.775451 0.850486 0.11455
H_ H_ 0.706607 0.823497 0.693228 0.11455
H_ H_ 0.632557 0.844441 0.597193 0.11455
H_ H_ 0.730279 0.839711 0.604795 0.11455
H_ H_ 0.619519 0.832274 0.71531 0.11455
H_ H_ 0.527037 0.821734 0.708337 0.11455
H_ H_ 0.547323 0.836614 0.617869 0.11455
H_ H_ 0.850194 0.990727 0.69067 0.11455
H_ H_ 0.873532 0.564925 0.597164 0.11455
H_ H_ 0.866295 0.979103 0.601659 0.11455
H_ H_ 0.867547 0.575183 0.715214 0.11455
H_ H_ 0.892545 0.66848 0.709343 0.11455
H_ H_ 0.86969 0.652304 0.619203 0.11455
H_ H_ 0.923691 0.900924 0.719501 0.11455
H_ H_ 0.933963 0.92659 0.767792 0.11455
H_ H_ 0.875941 0.894316 0.804683 0.11455
H_ H_ 0.807229 0.76174 0.719767 0.11455
H_ H_ 0.760477 0.720479 0.760241 0.11455
H_ H_ 0.782221 0.731606 0.809283 0.11455
H_ H_ 0.972477 0.799402 0.870393 0.11455
H_ H_ 0.986908 0.805097 0.923639 0.11455
H_ H_ 0.725558 0.832007 0.890675 0.11455
H_ H_ 0.743069 0.851605 0.939689 0.11455
H_ H_ 0.927625 0.910342 1.00162895 0.11455
H_ H_ 0.93501 0.950194 0.546368 0.11455
H_ H_ 0.928401 0.892538 0.587989 0.11455
H_ H_ 0.824897 0.766325 0.511124 0.11455
H_ H_ 0.809372 0.712885 0.552045 0.11455
H_ H_ 0.836122 0.740038 0.598098 0.11455
C_ C_ 0.732288 0.694598 0.904322 0.68181
C_ C_ 0.786944 0.696054 0.899602 -0.05681
C_ C_ 0.821323 0.696864 0.922427 -0.08735
C_ C_ 0.873961 0.693015 0.917204 -0.05681
C_ C_ 0.893066 0.689368 0.888349 -0.05681
C_ C_ 0.858266 0.687339 0.865201 -0.08735
C_ C_ 0.805364 0.689456 0.87102 -0.08735
C_ C_ 0.90641 0.692442 0.941084 -0.08735
C_ C_ 0.95718 0.689558 0.936812 -0.08735
C_ C_ 0.978394 0.686656 0.909209 -0.05681
C_ C_ 0.946161 0.688535 0.884058 -0.08735
C_ C_ 0.621916 0.777855 0.909963 0.68181
C_ C_ 0.640649 0.583606 0.898783 0.68181
C_ C_ 0.641893 0.526541 0.896385 -0.05681
C_ C_ 0.618648 -0.006002999999999981 0.921697 -0.08735
C_ C_ 0.614051 0.940391 0.91962 -0.05681
C_ C_ 0.604029 0.91619 0.892894 -0.05681
C_ C_ 0.601662 0.947235 0.867803 -0.08735
C_ C_ 0.609199 0.000671076 0.870389 -0.08735
C_ C_ 0.617392 0.909872 0.943953 -0.08735
C_ C_ 0.618936 0.857017 0.940839 -0.08735
C_ C_ 0.613447 0.8343 0.913606 -0.05681
C_ C_ 0.608581 0.865167 0.889565 -0.08735
C_ C_ 0.534782 0.669988 0.906727 0.68181
C_ C_ 0.606399 0.62267 0.981387 0.1947
C_ C_ 0.587747 0.613488 0.512143 -0.08735
C_ C_ 0.60747 0.641619 0.534864 -0.08735
C_ C_ 0.639797 0.684386 0.528822 -0.05681
C_ C_ 0.656247 0.691944 0.499691 0.18498
C_ C_ 0.686318 0.732802 0.996121 -0.08735
C_ C_ 0.707008 0.762105 0.515365 -0.08735
C_ C_ 0.690707 0.757591 0.544401 -0.08735
C_ C_ 0.65816 0.716852 0.550993 0.18498
C_ C_ 0.686448 0.694664 0.599864 0.44287
C_ C_ 0.601246 0.713474 0.592712 0.44287
C_ C_ 0.589973 0.704456 0.623273 -0.05681
C_ C_ 0.540348 0.705145 0.633748 -0.08735
C_ C_ 0.53243 0.703617 0.663756 -0.08735
C_ C_ 0.574101 0.699533 0.683469 -0.05681
C_ C_ 0.623564 0.692524 0.672059 -0.05681
C_ C_ 0.631216 0.696316 0.642229 -0.05681
C_ C_ 0.680171 0.691901 0.630438 -0.05681
C_ C_ 0.721322 0.685968 0.648869 -0.08735
C_ C_ 0.71309 0.679662 0.67888 -0.08735
C_ C_ 0.663866 0.682875 0.690759 -0.05681
C_ C_ 0.65432 0.684151 0.720115 0.44287
C_ C_ 0.567411 0.700428 0.712127 0.44287
C_ C_ 0.597395 0.678408 0.759595 0.18498
C_ C_ 0.575111 0.631314 0.763709 -0.08735
C_ C_ 0.572037 0.607939 0.790804 -0.08735
C_ C_ 0.59061 0.633062 0.81533 -0.08735
C_ C_ 0.61107 0.683064 0.811639 0.18498
C_ C_ 0.614805 0.705288 0.783405 -0.05681
C_ C_ 0.637291 0.753331 0.78138 -0.08735
C_ C_ 0.655908 0.777366 0.804986 -0.08735
C_ C_ 0.648536 0.75636 0.831631 0.1947
C_ C_ 0.777401 0.822296 0.653862 0.68181
C_ C_ 0.722138 0.824124 0.648587 -0.05681
C_ C_ 0.690059 0.825482 0.672113 -0.08735
C_ C_ 0.636126 0.833917 0.669797 -0.05681
C_ C_ 0.616931 0.835989 0.64177 -0.05681
C_ C_ 0.650907 0.835731 0.616927 -0.08735
C_ C_ 0.702632 0.83063 0.621279 -0.08735
C_ C_ 0.603462 0.831716 0.693714 -0.08735
C_ C_ 0.550364 0.830689 0.690324 -0.08735
C_ C_ 0.529982 0.835429 0.662581 -0.05681
C_ C_ 0.563793 0.8366 0.638855 -0.08735
C_ C_ 0.879201 0.723729 0.661053 0.68181
C_ C_ 0.868515 0.921486 0.65243 0.68181
C_ C_ 0.868812 0.976647 0.647041 -0.05681
C_ C_ 0.866217 0.506835 0.671883 -0.08735
C_ C_ 0.865815 0.559311 0.669671 -0.05681
C_ C_ 0.868928 0.581207 0.641854 -0.05681
C_ C_ 0.869556 0.550413 0.618141 -0.08735
C_ C_ 0.875195 0.999409 0.620423 -0.08735
C_ C_ 0.872133 0.590922 0.694481 -0.08735
C_ C_ 0.876449 0.645124 0.690808 -0.08735
C_ C_ 0.875758 0.667283 0.663686 -0.05681
C_ C_ 0.871909 0.634716 0.639911 -0.08735
C_ C_ 0.973453 0.829208 0.657459 0.68181
C_ C_ 0.903602 0.87957 0.735314 0.1947
C_ C_ 0.907296 0.896682 0.762726 -0.08735
C_ C_ 0.875178 0.876742 0.783294 -0.08735
C_ C_ 0.854741 0.829427 0.779341 -0.05681
C_ C_ 0.848224 0.813289 0.749355 0.18498
C_ C_ 0.811291 0.776195 0.742392 -0.08735
C_ C_ 0.784521 0.75215 0.764044 -0.08735
C_ C_ 0.796422 0.760624 0.793446 -0.08735
C_ C_ 0.829413 0.801575 0.801314 0.18498
C_ C_ 0.798447 0.825842 0.849633 0.44287
C_ C_ 0.884493 0.807196 0.84239 0.44287
C_ C_ 0.895572 0.817842 0.871371 -0.05681
C_ C_ 0.942646 0.807944 0.884223 -0.08735
C_ C_ 0.952472 0.818156 0.913313 -0.08735
C_ C_ 0.910976 0.816998 0.933179 -0.05681
C_ C_ 0.860801 0.821397 0.921279 -0.05681
C_ C_ 0.855308 0.822684 0.890681 -0.05681
C_ C_ 0.804934 0.81836 0.879758 -0.05681
C_ C_ 0.763105 0.822856 0.898647 -0.08735
C_ C_ 0.771056 0.832638 0.927303 -0.08735
C_ C_ 0.817837 0.827505 0.939913 -0.05681
C_ C_ 0.825967 0.828402 0.970284 0.44287
C_ C_ 0.917432 0.822078 0.963681 0.44287
C_ C_ 0.88975 0.845868 0.511002 0.18498
C_ C_ 0.912402 0.893929 0.515703 -0.08735
C_ C_ 0.927454 0.911282 0.542699 -0.08735
C_ C_ 0.916502 0.879152 0.565708 -0.08735
C_ C_ 0.889698 0.832488 0.562359 0.18498
C_ C_ 0.878087 0.815614 0.534135 -0.05681
C_ C_ 0.847378 0.771275 0.530516 -0.08735
C_ C_ 0.832017 0.746126 0.555102 -0.08735
C_ C_ 0.849204 0.761912 0.581694 0.1947
N_ N_ 0.633147 0.66676 0.977521 -0.29468
N_ N_ 0.647661 0.703728 0.58142 -0.17154
N_ N_ 0.60772 0.69273 0.730121 -0.17154
N_ N_ 0.629017 0.707945 0.8343 -0.29468
N_ N_ 0.871098 0.841911 0.728627 -0.29468
N_ N_ 0.83824 0.813403 0.831236 -0.17154
N_ N_ 0.876278 0.82784 0.981006 -0.17154
N_ N_ 0.878028 0.804424 0.585431 -0.29468
O_ O_ 0.715138 0.680347 0.92793 -0.58347
O_ O_ 0.701102 0.707116 0.884585 -0.58347
O_ O_ 0.637726 0.75398 0.931396 -0.58347
O_ O_ 0.604601 0.753286 0.888383 -0.58347
O_ O_ 0.641219 0.603116 0.923754 -0.58347
O_ O_ 0.646668 0.609975 0.87629 -0.58347
O_ O_ 0.565332 0.670717 0.92865 -0.58347
O_ O_ 0.553025 0.669343 0.880398 -0.58347
O_ O_ 0.56289 0.72544 0.576 -0.46727
O_ O_ 0.73226 0.683053 0.588492 -0.46727
O_ O_ 0.523934 0.709735 0.722819 -0.46727
O_ O_ 0.691933 0.673656 0.738286 -0.46727
O_ O_ 0.796178 0.833253 0.678526 -0.58347
O_ O_ 0.804891 0.80926 0.633563 -0.58347
O_ O_ 0.868227 0.752733 0.682766 -0.58347
O_ O_ 0.89356 0.743265 0.638226 -0.58347
O_ O_ 0.871137 0.903458 0.676741 -0.58347
O_ O_ 0.865804 0.890741 0.631452 -0.58347
O_ O_ 0.945511 0.830153 0.680454 -0.58347
O_ O_ 0.952001 0.82465 0.633246 -0.58347
O_ O_ 0.921794 0.790229 0.825951 -0.46727
O_ O_ 0.754099 0.837614 0.840127 -0.46727
O_ O_ 0.963239 0.820586 0.974898 -0.46727
O_ O_ 0.78807 0.843962 0.987645 -0.46727
