_cell_length_a 37.182
_cell_length_b 28.859999711636867
_cell_length_c 34.91799971958237
_cell_angle_alpha 99.03900022175671
_cell_angle_beta 89.94700000122975
_cell_angle_gamma 108.70800079762363
_symmetry_space_group_name_H-M         'P 1'
_symmetry_Int_Tables_number            1
loop_
_symmetry_equiv_pos_as_xyz
   'x, y, z'
                         
loop_
_atom_site_label
_atom_site_type_symbol
_atom_site_fract_x 
_atom_site_fract_y
_atom_site_fract_z
_atom_site_charge
Zn Zn 0.255495 0.200179 0.184484 0.88731
Zn Zn 0.491257 0.20492 0.186307 0.88731
Zn Zn 0.159591 0.170542 0.269817 0.96553
Zn Zn 0.413863 0.191509 0.292915 0.96553
Zn Zn 0.14181 0.316224 0.0736077 0.88731
Zn Zn 0.398888 0.312823 0.0631205 0.88731
Zn Zn 0.0724224 0.323044 0.482713 0.96553
Zn Zn 0.322235 0.319253 0.467494 0.96553
Zn Zn 0.013647 0.313872 0.315249 0.88731
Zn Zn 0.245387 0.306388 0.316925 0.88731
Zn Zn 0.0820565 0.305914 0.204911 0.96553
Zn Zn 0.340776 0.340162 0.226873 0.96553
Zn Zn 0.0989721 0.196784 0.43007 0.88731
Zn Zn 0.351424 0.192356 0.431896 0.88731
Zn Zn 0.178095 0.18409 0.0306662 0.96553
Zn Zn 0.427532 0.181751 0.0215931 0.96553
H_ H_ 0.0379156 0.175351 0.199301 0.44417
H_ H_ 0.277955 0.154443 0.205642 0.44417
H_ H_ 0.0102222 0.180665 0.235 0.44417
H_ H_ 0.307353 0.20992 0.211152 0.44417
H_ H_ 0.158469 0.216131 0.161613 0.33755
H_ H_ 0.395725 0.226793 0.182753 0.33755
H_ H_ 0.204081 0.300672 0.218269 0.33755
H_ H_ 0.444617 0.319081 0.225334 0.33755
H_ H_ 0.978677 0.348194 0.167825 0.33755
H_ H_ 0.234502 0.357151 0.172563 0.33755
H_ H_ 0.988995 0.266763 0.117466 0.33755
H_ H_ 0.262229 0.289437 0.129059 0.33755
H_ H_ 0.0814927 0.0986668 0.131534 0.33755
H_ H_ 0.314481 0.0887788 0.156547 0.33755
H_ H_ 0.0677653 0.027377 0.0829297 0.33755
H_ H_ 0.309673 0.0058292 0.122461 0.33755
H_ H_ 0.185191 0.0518475 0.0726066 0.33755
H_ H_ 0.412275 0.0726899 0.0655985 0.33755
H_ H_ 0.200308 0.130788 0.114125 0.33755
H_ H_ 0.423435 0.153331 0.118315 0.33755
H_ H_ 0.0227592 0.375109 0.0160175 0.33755
H_ H_ 0.291508 0.360834 0.0342814 0.33755
H_ H_ 0.034158 0.461455 0.0468408 0.33755
H_ H_ 0.31511 0.434274 0.0856738 0.33755
H_ H_ 0.154543 0.478253 0.0547238 0.33755
H_ H_ 0.413865 0.492234 0.0180152 0.33755
H_ H_ 0.144576 0.399831 0.518807 0.33755
H_ H_ 0.388433 0.407197 0.47782 0.33755
H_ H_ 0.1861 0.376893 0.0629011 0.44417
H_ H_ 0.431276 0.360075 0.0242839 0.44417
H_ H_ 0.177688 0.333568 0.028733 0.44417
H_ H_ 0.449717 0.321936 0.0374607 0.44417
H_ H_ 0.0412037 0.28785 0.0849352 0.33755
H_ H_ 0.291174 0.276214 0.0671673 0.33755
H_ H_ 0.0340725 0.195759 0.0310808 0.33755
H_ H_ 0.286255 0.173133 0.0237709 0.33755
H_ H_ 0.051095 0.142597 0.0686382 0.33755
H_ H_ 0.308915 0.136831 0.0733665 0.33755
H_ H_ 0.104601 0.217777 0.125829 0.33755
H_ H_ 0.365986 0.221925 0.110459 0.33755
H_ H_ 0.182637 0.407696 0.142616 0.33755
H_ H_ 0.346738 0.361248 0.130224 0.33755
H_ H_ 0.156732 0.443173 0.199694 0.33755
H_ H_ 0.349829 0.432961 0.184942 0.33755
H_ H_ 0.20771 0.588135 0.165813 0.33755
H_ H_ 0.450992 0.514484 0.140928 0.33755
H_ H_ 0.230162 0.549819 0.108548 0.33755
H_ H_ 0.455376 0.441605 0.105164 0.33755
H_ H_ 0.0921144 0.0845957 0.231587 0.33755
H_ H_ 0.364919 0.116013 0.225278 0.33755
H_ H_ 0.0919234 0.0141581 0.174894 0.33755
H_ H_ 0.379338 0.0452702 0.184692 0.33755
H_ H_ 0.203408 0.0305848 0.218122 0.33755
H_ H_ 0.455157 0.04635 0.27743 0.33755
H_ H_ 0.207883 0.114104 0.253645 0.33755
H_ H_ 0.425309 0.103667 0.319237 0.33755
H_ H_ 0.230248 0.35314 0.28808 0.44417
H_ H_ 0.469237 0.328838 0.289658 0.44417
H_ H_ 0.195527 0.305051 0.291206 0.44417
H_ H_ 0.508752 0.345435 0.269925 0.44417
H_ H_ 0.102042 0.278438 0.312979 0.33755
H_ H_ 0.340643 0.284109 0.32958 0.33755
H_ H_ 0.0596528 0.183893 0.271466 0.33755
H_ H_ 0.301699 0.196295 0.275979 0.33755
H_ H_ 0.265554 0.145766 0.322727 0.33755
H_ H_ 0.514065 0.142475 0.325121 0.33755
H_ H_ 0.243616 0.220195 0.365665 0.33755
H_ H_ 0.515245 0.226983 0.378388 0.33755
H_ H_ 0.1741 0.391185 0.340011 0.33755
H_ H_ 0.416087 0.40072 0.353218 0.33755
H_ H_ 0.19242 0.479409 0.379608 0.33755
H_ H_ 0.436176 0.474037 0.404152 0.33755
H_ H_ 0.0873777 0.432092 0.437907 0.33755
H_ H_ 0.313624 0.45219 0.425041 0.33755
H_ H_ 0.0718069 0.351253 0.395085 0.33755
H_ H_ 0.301114 0.372903 0.375041 0.33755
H_ H_ 0.208582 0.135964 0.464522 0.33755
H_ H_ 0.473424 0.12673 0.478405 0.33755
H_ H_ 0.185448 0.0637933 0.414697 0.33755
H_ H_ 0.463867 0.0471848 0.445061 0.33755
H_ H_ 0.0948398 0.006299999999999972 0.485117 0.33755
H_ H_ 0.342247 0.0201802 0.443377 0.33755
H_ H_ 0.106974 0.103892 0.0184282 0.33755
H_ H_ 0.363161 0.100487 0.996129 0.33755
H_ H_ 0.0613452 0.167068 0.471272 0.44417
H_ H_ 0.301611 0.189078 0.457709 0.44417
H_ H_ 0.0479692 0.206224 0.452256 0.44417
H_ H_ 0.311793 0.143435 0.46338 0.44417
H_ H_ 0.208674 0.227068 0.428163 0.33755
H_ H_ 0.458718 0.217949 0.416948 0.33755
H_ H_ 0.214461 0.313146 0.479644 0.33755
H_ H_ 0.459579 0.311789 0.46795 0.33755
H_ H_ 0.198312 0.365644 0.431193 0.33755
H_ H_ 0.442439 0.353421 0.418551 0.33755
H_ H_ 0.140014 0.290112 0.38267 0.33755
H_ H_ 0.392716 0.278951 0.371613 0.33755
H_ H_ 0.155792 0.161673 0.366028 0.33755
H_ H_ 0.334316 0.100182 0.369177 0.33755
H_ H_ 0.15905 0.0899574 0.317255 0.33755
H_ H_ 0.344098 0.0570083 0.301894 0.33755
H_ H_ 0.0569313 0.998683 0.361283 0.33755
H_ H_ 0.284762 0.916224 0.336792 0.33755
H_ H_ 0.0569582 0.0696892 0.408964 0.33755
H_ H_ 0.263802 0.96112 0.394527 0.33755
H_ H_ 0.130257 0.378268 0.269155 0.33755
H_ H_ 0.401394 0.422372 0.277902 0.33755
H_ H_ 0.107918 0.439685 0.315303 0.33755
H_ H_ 0.401729 0.494648 0.324213 0.33755
H_ H_ 0.038674 0.454215 0.223203 0.33755
H_ H_ 0.2882 0.477525 0.284313 0.33755
H_ H_ 0.0695604 0.397958 0.176776 0.33755
H_ H_ 0.286158 0.39629 0.239422 0.33755
C_ C_ 0.187328 0.236341 0.174534 0.04924
C_ C_ 0.426099 0.250794 0.188791 0.04924
C_ C_ 0.189801 0.290393 0.188705 -0.19469
C_ C_ 0.428747 0.304906 0.196155 -0.19469
C_ C_ 0.217843 0.318394 0.160595 -0.19469
C_ C_ 0.456567 0.324649 0.164429 -0.19469
C_ C_ 0.977726 0.26848 0.147491 0.04924
C_ C_ 0.243945 0.284794 0.156211 0.04924
C_ C_ 0.185334 0.202252 0.204067 0.65653
C_ C_ 0.432959 0.223542 0.221028 0.65653
C_ C_ 0.154322 0.305861 0.198068 0.65653
C_ C_ 0.39975 0.328846 0.202224 0.65653
C_ C_ 0.202033 0.323011 0.119952 0.65653
C_ C_ 0.443134 0.333272 0.127357 0.65653
C_ C_ 0.0119115 0.279856 0.176782 0.65653
C_ C_ 0.274328 0.296757 0.188448 0.65653
C_ C_ 0.104303 0.0861966 0.122686 0.19216
C_ C_ 0.337438 0.0836708 0.139616 0.19216
C_ C_ 0.0932799 0.0413051 0.0979948 -0.19675
C_ C_ 0.334502 0.0372588 0.117465 -0.19675
C_ C_ 0.122425 0.0240112 0.0811319 0.08851
C_ C_ 0.361525 0.0326764 0.0921696 0.08851
C_ C_ 0.160605 0.0572809 0.0884619 -0.19675
C_ C_ 0.392843 0.076201 0.0901253 -0.19675
C_ C_ 0.169718 0.104534 0.10945 0.19216
C_ C_ 0.396076 0.121549 0.114081 0.19216
C_ C_ 0.0510164 0.397607 0.0248248 0.19216
C_ C_ 0.318788 0.389685 0.0307553 0.19216
C_ C_ 0.0577567 0.445359 0.0424948 -0.19675
C_ C_ 0.329752 0.433992 0.0570865 -0.19675
C_ C_ 0.094534 0.472094 0.0585319 0.08851
C_ C_ 0.36594 0.471088 0.0549101 0.08851
C_ C_ 0.124311 0.456772 0.0467961 -0.19675
C_ C_ 0.389355 0.461942 0.0257989 -0.19675
C_ C_ 0.116443 0.410405 0.0227868 0.19216
C_ C_ 0.376166 0.416715 1.000291086 0.19216
C_ C_ 0.0570069 0.263794 0.0723584 0.04924
C_ C_ 0.310182 0.251612 0.0587645 0.04924
C_ C_ 0.0319579 0.208237 0.0619181 -0.19469
C_ C_ 0.287496 0.194462 0.0548662 -0.19469
C_ C_ 0.052053 0.181234 0.0853204 -0.19469
C_ C_ 0.309601 0.175178 0.0831349 -0.19469
C_ C_ 0.0921407 0.221581 0.0978764 0.04924
C_ C_ 0.347431 0.220115 0.0856868 0.04924
C_ C_ 0.0760529 0.286796 0.0382058 0.65653
C_ C_ 0.325267 0.274209 0.0236592 0.65653
C_ C_ 0.988039 0.188468 0.0576462 0.65653
C_ C_ 0.244427 0.179449 0.0534754 0.65653
C_ C_ 0.0312926 0.167263 0.12217 0.65653
C_ C_ 0.289576 0.172487 0.121228 0.65653
C_ C_ 0.125179 0.219898 0.0698648 0.65653
C_ C_ 0.374889 0.213947 0.0547314 0.65653
C_ C_ 0.187865 0.447158 0.147442 0.19216
C_ C_ 0.369903 0.395008 0.135361 0.19216
C_ C_ 0.171462 0.466929 0.179343 -0.19675
C_ C_ 0.368717 0.43714 0.162565 -0.19675
C_ C_ 0.177615 0.517604 0.185706 0.08851
C_ C_ 0.401068 0.479891 0.167833 0.08851
C_ C_ 0.200838 0.548579 0.161089 -0.19675
C_ C_ 0.430719 0.480719 0.144237 -0.19675
C_ C_ 0.215159 0.526029 0.129742 0.19216
C_ C_ 0.430008 0.439974 0.117667 0.19216
C_ C_ 0.116628 0.0765646 0.222063 0.19216
C_ C_ 0.385069 0.101252 0.235849 0.19216
C_ C_ 0.114821 0.031856 0.198648 -0.19675
C_ C_ 0.394216 0.0624862 0.213346 -0.19675
C_ C_ 0.147209 0.0173859 0.194995 0.08851
C_ C_ 0.419855 0.0421528 0.226499 0.08851
C_ C_ 0.179181 0.0445947 0.216916 -0.19675
C_ C_ 0.435553 0.059685 0.264585 -0.19675
C_ C_ 0.181006 0.0912633 0.237408 0.19216
C_ C_ 0.424786 0.0987037 0.286965 0.19216
C_ C_ 0.0721482 0.256232 0.309469 0.04924
C_ C_ 0.312249 0.264638 0.315594 0.04924
C_ C_ 0.0677964 0.199768 0.302835 -0.19469
C_ C_ 0.309814 0.210567 0.306758 -0.19469
C_ C_ 0.0351444 0.176057 0.327373 -0.19469
C_ C_ 0.28202 0.18555 0.335447 -0.19469
C_ C_ 0.258912 0.219555 0.338857 0.04924
C_ C_ 0.522156 0.223685 0.346733 0.04924
C_ C_ 0.0651422 0.280977 0.277323 0.65653
C_ C_ 0.310236 0.291772 0.282732 0.65653
C_ C_ 0.101601 0.182011 0.302597 0.65653
C_ C_ 0.343932 0.191818 0.300239 0.65653
C_ C_ 0.0512511 0.168524 0.365796 0.65653
C_ C_ 0.297572 0.178767 0.372994 0.65653
C_ C_ 0.225707 0.209295 0.307895 0.65653
C_ C_ 0.486555 0.223889 0.323532 0.65653
C_ C_ 0.154895 0.403686 0.360756 0.19216
C_ C_ 0.396399 0.414007 0.371588 0.19216
C_ C_ 0.166001 0.451588 0.383351 -0.19675
C_ C_ 0.405406 0.456215 0.399808 -0.19675
C_ C_ 0.142785 0.464575 0.41096 0.08851
C_ C_ 0.376881 0.475105 0.417498 0.08851
C_ C_ 0.106608 0.429838 0.413795 -0.19675
C_ C_ 0.338112 0.444604 0.408846 -0.19675
C_ C_ 0.0964195 0.379965 0.39161 0.19216
C_ C_ 0.329686 0.400792 0.379472 0.19216
C_ C_ 0.181986 0.108752 0.466954 0.19216
C_ C_ 0.445594 0.100733 0.474933 0.19216
C_ C_ 0.171463 0.0645191 0.441431 -0.19675
C_ C_ 0.439296 0.054852 0.454672 -0.19675
C_ C_ 0.137742 0.0263484 0.446006 0.08851
C_ C_ 0.402159 0.0257203 0.441457 0.08851
C_ C_ 0.116018 0.0354427 0.476005 -0.19675
C_ C_ 0.372079 0.042116 0.454513 -0.19675
C_ C_ 0.128784 0.076988 0.504486 0.19216
C_ C_ 0.378486 0.0843237 0.481025 0.19216
C_ C_ 0.189683 0.248969 0.437769 0.04924
C_ C_ 0.439443 0.241069 0.426774 0.04924
C_ C_ 0.214839 0.303074 0.447955 -0.19469
C_ C_ 0.463 0.295729 0.436056 -0.19469
C_ C_ 0.195935 0.326826 0.420943 -0.19469
C_ C_ 0.444616 0.31884 0.406933 -0.19469
C_ C_ 0.155139 0.289354 0.411759 0.04924
C_ C_ 0.404298 0.280144 0.401355 0.04924
C_ C_ 0.17052 0.217331 0.467334 0.65653
C_ C_ 0.422864 0.21425 0.459813 0.65653
C_ C_ 0.256208 0.317089 0.448863 0.65653
C_ C_ 0.506259 0.314832 0.439812 0.65653
C_ C_ 0.21607 0.33121 0.383715 0.65653
C_ C_ 0.466329 0.328219 0.370287 0.65653
C_ C_ 0.124467 0.293168 0.441083 0.65653
C_ C_ 0.375749 0.289324 0.430393 0.65653
C_ C_ 0.133691 0.125116 0.364447 0.19216
C_ C_ 0.319711 0.0595608 0.35926 0.19216
C_ C_ 0.134095 0.0845555 0.336187 -0.19675
C_ C_ 0.328716 0.0370948 0.323653 -0.19675
C_ C_ 0.108577 0.0392116 0.33583 0.08851
C_ C_ 0.320696 0.985515 0.319647 0.08851
C_ C_ 0.0812998 0.0321806 0.363474 -0.19675
C_ C_ 0.295768 0.95782 0.343284 -0.19675
C_ C_ 0.0813955 0.0736077 0.391745 0.19216
C_ C_ 0.282423 0.981634 0.375372 0.19216
C_ C_ 0.109888 0.39356 0.259716 0.19216
C_ C_ 0.376499 0.432683 0.27821 0.19216
C_ C_ 0.0990122 0.429819 0.28469 -0.19675
C_ C_ 0.376482 0.473291 0.304608 -0.19675
C_ C_ 0.0729773 0.451162 0.271041 0.08851
C_ C_ 0.345403 0.490892 0.306812 0.08851
C_ C_ 0.0613259 0.438949 0.231913 -0.19675
C_ C_ 0.312351 0.46389 0.283277 -0.19675
C_ C_ 0.0730612 0.403188 0.208207 0.19216
C_ C_ 0.311862 0.417848 0.260395 0.19216
N_ N_ 0.141964 0.114031 0.130478 -0.35746
N_ N_ 0.368449 0.123957 0.138915 -0.35746
N_ N_ 0.0804025 0.383093 0.0108929 -0.35746
N_ N_ 0.343083 0.381357 0.00563807 -0.35746
N_ N_ 0.206843 0.476205 0.122291 -0.35746
N_ N_ 0.401967 0.397805 0.114193 -0.35746
N_ N_ 0.148539 0.103599 0.241448 -0.35746
N_ N_ 0.40378 0.121635 0.270576 -0.35746
N_ N_ 0.118811 0.373896 0.363103 -0.35746
N_ N_ 0.358425 0.387422 0.364186 -0.35746
N_ N_ 0.161742 0.111398 0.499417 -0.35746
N_ N_ 0.416292 0.11258 0.492598 -0.35746
N_ N_ 0.110116 0.116299 0.393335 -0.35746
N_ N_ 0.296197 0.0322256 0.382673 -0.35746
N_ N_ 0.0937264 0.3789 0.22285 -0.35746
N_ N_ 0.345018 0.406049 0.25531 -0.35746
O_ O_ 0.217501 0.234632 0.1501 -0.2869
O_ O_ 0.448895 0.243437 0.157099 -0.2869
O_ O_ 0.0177947 0.177857 0.211645 -0.71937
O_ O_ 0.285841 0.184874 0.206414 -0.71937
O_ O_ 0.213079 0.185622 0.213283 -0.57331
O_ O_ 0.449965 0.19034 0.215026 -0.57331
O_ O_ 0.15726 0.198478 0.226668 -0.57331
O_ O_ 0.419053 0.231769 0.25448 -0.57331
O_ O_ 0.121333 0.280129 0.182388 -0.57331
O_ O_ 0.36505 0.300759 0.202559 -0.57331
O_ O_ 0.158961 0.34754 0.220047 -0.64513
O_ O_ 0.406722 0.374451 0.215525 -0.64513
O_ O_ 0.167194 0.327026 0.119312 -0.57331
O_ O_ 0.414143 0.302165 0.109411 -0.57331
O_ O_ 0.226809 0.347132 0.0981575 -0.64513
O_ O_ 0.467574 0.361976 0.109188 -0.64513
O_ O_ 0.0458701 0.304404 0.166777 -0.57331
O_ O_ 0.301373 0.337217 0.191284 -0.57331
O_ O_ 0.0116195 0.251333 0.202738 -0.57331
O_ O_ 0.276115 0.263141 0.208536 -0.57331
O_ O_ 0.0849379 0.266603 0.100188 -0.2869
O_ O_ 0.338379 0.26266 0.0877877 -0.2869
O_ O_ 0.172389 0.351118 0.0486902 -0.71937
O_ O_ 0.434364 0.338439 0.0369805 -0.71937
O_ O_ 0.10909 0.321762 0.0422632 -0.57331
O_ O_ 0.360901 0.30162 0.0218752 -0.57331
O_ O_ 0.0545367 0.283285 0.00796435 -0.57331
O_ O_ 0.300765 0.275459 0.997834 -0.57331
O_ O_ 0.226017 0.210269 0.0583471 -0.57331
O_ O_ 0.475573 0.223299 0.043802 -0.57331
O_ O_ 0.971895 0.139591 0.0528236 -0.64513
O_ O_ 0.226122 0.132193 0.0509909 -0.64513
O_ O_ 0.00930403 0.190882 0.135496 -0.57331
O_ O_ 0.278682 0.208367 0.138223 -0.57331
O_ O_ 0.0305849 0.126504 0.132577 -0.64513
O_ O_ 0.278571 0.129546 0.13273 -0.64513
O_ O_ 0.133416 0.178392 0.0603406 -0.57331
O_ O_ 0.381578 0.171256 0.0449658 -0.57331
O_ O_ 0.143325 0.258471 0.0534773 -0.57331
O_ O_ 0.40287 0.25129 0.0470212 -0.57331
O_ O_ 0.0485859 0.263892 0.33982 -0.2869
O_ O_ 0.284963 0.266999 0.343606 -0.2869
O_ O_ 0.216908 0.32484 0.292918 -0.71937
O_ O_ 0.491677 0.33165 0.285408 -0.71937
O_ O_ 0.0512051 0.317231 0.28297 -0.57331
O_ O_ 0.28768 0.319307 0.28553 -0.57331
O_ O_ 0.0804643 0.271834 0.244051 -0.57331
O_ O_ 0.340279 0.305313 0.265831 -0.57331
O_ O_ 0.134008 0.211824 0.297468 -0.57331
O_ O_ 0.377524 0.216776 0.316321 -0.57331
O_ O_ 0.0952922 0.1353 0.291901 -0.64513
O_ O_ 0.339277 0.147205 0.281428 -0.64513
O_ O_ 0.0827485 0.199929 0.382901 -0.57331
O_ O_ 0.334689 0.196255 0.38262 -0.57331
O_ O_ 0.0335741 0.132401 0.383052 -0.64513
O_ O_ 0.277828 0.141968 0.391213 -0.64513
O_ O_ 0.197043 0.169455 0.305836 -0.57331
O_ O_ 0.452958 0.199279 0.332977 -0.57331
O_ O_ 0.222156 0.245198 0.291692 -0.57331
O_ O_ 0.488707 0.245801 0.293588 -0.57331
O_ O_ 0.163274 0.245547 0.407359 -0.2869
O_ O_ 0.410463 0.234961 0.400552 -0.2869
O_ O_ 0.0620774 0.189463 0.457333 -0.71937
O_ O_ 0.315493 0.171742 0.457092 -0.71937
O_ O_ 0.135148 0.184858 0.460907 -0.57331
O_ O_ 0.38855 0.180765 0.45719 -0.57331
O_ O_ 0.191641 0.215668 0.496502 -0.57331
O_ O_ 0.446542 0.216632 0.487988 -0.57331
O_ O_ 0.026519 0.293225 0.456032 -0.57331
O_ O_ 0.272834 0.285388 0.449463 -0.57331
O_ O_ 0.276508 0.363649 0.44865 -0.64513
O_ O_ 0.523165 0.362124 0.447701 -0.64513
O_ O_ 0.220587 0.294296 0.361174 -0.57331
O_ O_ 0.497395 0.318391 0.363951 -0.57331
O_ O_ 0.234218 0.374984 0.377077 -0.64513
O_ O_ 0.460804 0.363673 0.354208 -0.64513
O_ O_ 0.114447 0.332499 0.450128 -0.57331
O_ O_ 0.366457 0.329027 0.435701 -0.57331
O_ O_ 0.109077 0.255884 0.459023 -0.57331
O_ O_ 0.359481 0.255127 0.45208 -0.57331
Zn Zn 0.253752 0.195541 0.683199 0.88731
Zn Zn 0.486066 0.191078 0.684708 0.88731
Zn Zn 0.159567 0.167781 0.76932 0.96553
Zn Zn 0.4131 0.191016 0.794014 0.96553
Zn Zn 0.145905 0.302323 0.570787 0.88731
Zn Zn 0.394587 0.304853 0.562705 0.88731
Zn Zn 0.073633 0.322984 0.976775 0.96553
Zn Zn 0.324643 0.321795 0.966984 0.96553
Zn Zn 0.0114227 0.309678 0.811956 0.88731
Zn Zn 0.24239 0.302883 0.81719 0.88731
Zn Zn 0.0845644 0.306884 0.696774 0.96553
Zn Zn 0.338941 0.337466 0.72889 0.96553
Zn Zn 0.105299 0.196808 0.928734 0.88731
Zn Zn 0.351065 0.18748 0.924911 0.88731
Zn Zn 0.174101 0.174706 0.533359 0.96553
Zn Zn 0.42538 0.177222 0.523266 0.96553
H_ H_ 0.9999868797 0.168095 0.736261 0.44417
H_ H_ 0.304009 0.197133 0.709661 0.44417
H_ H_ 0.0287047 0.16173 0.705928 0.44417
H_ H_ 0.273453 0.143291 0.703308 0.44417
H_ H_ 0.159274 0.21457 0.663598 0.33755
H_ H_ 0.396109 0.229922 0.686168 0.33755
H_ H_ 0.202799 0.307393 0.715393 0.33755
H_ H_ 0.448167 0.3256 0.723655 0.33755
H_ H_ 0.979795 0.349626 0.672557 0.33755
H_ H_ 0.239554 0.354993 0.66893 0.33755
H_ H_ 0.981839 0.259526 0.624 0.33755
H_ H_ 0.261265 0.286268 0.627718 0.33755
H_ H_ 0.0837638 0.0958497 0.637159 0.33755
H_ H_ 0.316592 0.0892833 0.647383 0.33755
H_ H_ 0.0666472 0.0207833 0.587243 0.33755
H_ H_ 0.314222 0.00702658 0.616974 0.33755
H_ H_ 0.186728 0.0449336 0.578401 0.33755
H_ H_ 0.41834 0.0644417 0.563221 0.33755
H_ H_ 0.198489 0.127491 0.614991 0.33755
H_ H_ 0.422177 0.148091 0.600952 0.33755
H_ H_ 0.0259279 0.371788 0.527552 0.33755
H_ H_ 0.285955 0.357043 0.534608 0.33755
H_ H_ 0.0344239 0.45145 0.557856 0.33755
H_ H_ 0.3051 0.437078 0.579025 0.33755
H_ H_ 0.152669 0.477005 0.564466 0.33755
H_ H_ 0.405757 0.489177 0.516603 0.33755
H_ H_ 0.140318 0.396409 0.0161352 0.33755
H_ H_ 0.396025 0.40699 0.982043 0.33755
H_ H_ 0.193406 0.352474 0.547402 0.44417
H_ H_ 0.424733 0.327541 0.515466 0.44417
H_ H_ 0.16434 0.308724 0.515259 0.44417
H_ H_ 0.451854 0.31567 0.544873 0.44417
H_ H_ 0.0405394 0.277111 0.585742 0.33755
H_ H_ 0.292981 0.276822 0.568379 0.33755
H_ H_ 0.0423734 0.189454 0.534682 0.33755
H_ H_ 0.285383 0.180857 0.519226 0.33755
H_ H_ 0.0512354 0.137411 0.578434 0.33755
H_ H_ 0.30276 0.13574 0.569371 0.33755
H_ H_ 0.100499 0.210891 0.632116 0.33755
H_ H_ 0.360167 0.211883 0.613696 0.33755
H_ H_ 0.186388 0.408671 0.647977 0.33755
H_ H_ 0.361485 0.356511 0.630815 0.33755
H_ H_ 0.156974 0.446608 0.698193 0.33755
H_ H_ 0.352985 0.425698 0.677035 0.33755
H_ H_ 0.221393 0.589146 0.669012 0.33755
H_ H_ 0.451136 0.528403 0.639904 0.33755
H_ H_ 0.255848 0.546087 0.622614 0.33755
H_ H_ 0.453507 0.459464 0.586065 0.33755
H_ H_ 0.0886349 0.083917 0.727349 0.33755
H_ H_ 0.37464 0.13506 0.720009 0.33755
H_ H_ 0.0816768 0.00515953 0.688324 0.33755
H_ H_ 0.383202 0.062403 0.676455 0.33755
H_ H_ 0.203103 0.0350998 0.705783 0.33755
H_ H_ 0.441635 0.0327712 0.767304 0.33755
H_ H_ 0.207873 0.116187 0.747337 0.33755
H_ H_ 0.430953 0.0995459 0.811464 0.33755
H_ H_ 0.216167 0.350865 0.799158 0.44417
H_ H_ 0.470234 0.319078 0.791594 0.44417
H_ H_ 0.192912 0.295264 0.779252 0.44417
H_ H_ 0.503407 0.335723 0.762717 0.44417
H_ H_ 0.101996 0.277649 0.818092 0.33755
H_ H_ 0.339694 0.282931 0.835067 0.33755
H_ H_ 0.059886 0.187167 0.771318 0.33755
H_ H_ 0.292552 0.196978 0.778706 0.33755
H_ H_ 0.26195 0.142853 0.822444 0.33755
H_ H_ 0.514081 0.138085 0.830573 0.33755
H_ H_ 0.239023 0.211656 0.868689 0.33755
H_ H_ 0.512513 0.232677 0.872679 0.33755
H_ H_ 0.181651 0.411407 0.839535 0.33755
H_ H_ 0.417876 0.403019 0.857803 0.33755
H_ H_ 0.192342 0.490854 0.880565 0.33755
H_ H_ 0.43381 0.479829 0.908049 0.33755
H_ H_ 0.0962044 0.431588 0.940143 0.33755
H_ H_ 0.318877 0.447217 0.932148 0.33755
H_ H_ 0.0818142 0.350001 0.897359 0.33755
H_ H_ 0.304693 0.366542 0.893137 0.33755
H_ H_ 0.215244 0.136592 0.973723 0.33755
H_ H_ 0.479543 0.124484 0.997113 0.33755
H_ H_ 0.200077 0.0514108 0.934076 0.33755
H_ H_ 0.465071 0.0369021 0.961561 0.33755
H_ H_ 0.0848794 0.0273544 0.967991 0.33755
H_ H_ 0.351538 0.0340353 0.936476 0.33755
H_ H_ 0.114493 0.0813522 0.53016 0.33755
H_ H_ 0.355315 0.0971007 0.487821 0.33755
H_ H_ 0.0501083 0.188887 0.95211 0.44417
H_ H_ 0.320563 0.169639 0.976731 0.44417
H_ H_ 0.0762457 0.178083 0.981191 0.44417
H_ H_ 0.304965 0.128162 0.936845 0.44417
H_ H_ 0.210854 0.227317 0.92401 0.33755
H_ H_ 0.459456 0.222043 0.909352 0.33755
H_ H_ 0.213781 0.321275 0.977057 0.33755
H_ H_ 0.456655 0.307702 0.967158 0.33755
H_ H_ 0.19562 0.364606 0.932336 0.33755
H_ H_ 0.443482 0.355153 0.918353 0.33755
H_ H_ 0.145207 0.295982 0.884445 0.33755
H_ H_ 0.388457 0.284495 0.87198 0.33755
H_ H_ 0.154071 0.148649 0.860793 0.33755
H_ H_ 0.317458 0.0972398 0.842354 0.33755
H_ H_ 0.157113 0.0764769 0.815814 0.33755
H_ H_ 0.332643 0.0466637 0.782281 0.33755
H_ H_ 0.0614082 0.987282 0.868222 0.33755
H_ H_ 0.284479 0.915616 0.832523 0.33755
H_ H_ 0.0550541 0.0652397 0.906748 0.33755
H_ H_ 0.25928 0.965815 0.886706 0.33755
H_ H_ 0.125302 0.366357 0.76193 0.33755
H_ H_ 0.407089 0.420723 0.768792 0.33755
H_ H_ 0.111298 0.430395 0.812299 0.33755
H_ H_ 0.405461 0.49423 0.822034 0.33755
H_ H_ 0.0458222 0.456631 0.721183 0.33755
H_ H_ 0.293275 0.473147 0.783961 0.33755
H_ H_ 0.0595881 0.390597 0.676208 0.33755
H_ H_ 0.289583 0.390096 0.750728 0.33755
C_ C_ 0.188834 0.237023 0.677331 0.04924
C_ C_ 0.42691 0.246114 0.691536 0.04924
C_ C_ 0.189773 0.292803 0.686456 -0.19469
C_ C_ 0.434539 0.303467 0.696257 -0.19469
C_ C_ 0.220746 0.317672 0.658876 -0.19469
C_ C_ 0.461132 0.317201 0.662799 -0.19469
C_ C_ 0.974664 0.269525 0.654762 0.04924
C_ C_ 0.244212 0.279858 0.652648 0.04924
C_ C_ 0.189465 0.210944 0.709701 0.65653
C_ C_ 0.434105 0.22441 0.725315 0.65653
C_ C_ 0.155777 0.311582 0.688667 0.65653
C_ C_ 0.400532 0.324168 0.702613 0.65653
C_ C_ 0.207762 0.32497 0.618762 0.65653
C_ C_ 0.447267 0.329583 0.62672 0.65653
C_ C_ 0.0109519 0.275792 0.67781 0.65653
C_ C_ 0.277681 0.289517 0.680062 0.65653
C_ C_ 0.104627 0.087254 0.619878 0.19216
C_ C_ 0.338289 0.0824515 0.628895 0.19216
C_ C_ 0.096191 0.0414637 0.595562 -0.19675
C_ C_ 0.335629 0.0368495 0.608491 -0.19675
C_ C_ 0.126347 0.0232589 0.58197 0.08851
C_ C_ 0.361711 0.0287989 0.582295 0.08851
C_ C_ 0.164281 0.0561863 0.59001 -0.19675
C_ C_ 0.395313 0.0697412 0.580527 -0.19675
C_ C_ 0.170454 0.101718 0.611118 0.19216
C_ C_ 0.39899 0.116012 0.603942 0.19216
C_ C_ 0.0520102 0.398704 0.526886 0.19216
C_ C_ 0.312411 0.386182 0.532864 0.19216
C_ C_ 0.0581235 0.445176 0.548992 -0.19675
C_ C_ 0.322253 0.433003 0.556035 -0.19675
C_ C_ 0.0950682 0.475337 0.56165 0.08851
C_ C_ 0.358922 0.469884 0.554411 0.08851
C_ C_ 0.125762 0.459272 0.551319 -0.19675
C_ C_ 0.381777 0.45969 0.525332 -0.19675
C_ C_ 0.118707 0.414026 0.526122 0.19216
C_ C_ 0.369115 0.415226 0.498713 0.19216
C_ C_ 0.0589296 0.254558 0.574939 0.04924
C_ C_ 0.310372 0.252081 0.557978 0.04924
C_ C_ 0.0351118 0.19846 0.56489 -0.19469
C_ C_ 0.283155 0.195619 0.549816 -0.19469
C_ C_ 0.0518317 0.174534 0.593113 -0.19469
C_ C_ 0.302903 0.174677 0.579544 -0.19469
C_ C_ 0.0927134 0.213599 0.601614 0.04924
C_ C_ 0.34535 0.214392 0.586404 0.04924
C_ C_ 0.0736321 0.28494 0.542815 0.65653
C_ C_ 0.326442 0.273122 0.523789 0.65653
C_ C_ 0.991355 0.177631 0.561185 0.65653
C_ C_ 0.240795 0.18081 0.552155 0.65653
C_ C_ 0.0278481 0.162732 0.628939 0.65653
C_ C_ 0.28476 0.165713 0.617771 0.65653
C_ C_ 0.125935 0.208413 0.574162 0.65653
C_ C_ 0.374224 0.206102 0.556666 0.65653
C_ C_ 0.200931 0.445614 0.660896 0.19216
C_ C_ 0.380316 0.393862 0.63166 0.19216
C_ C_ 0.183273 0.468276 0.688286 -0.19675
C_ C_ 0.375258 0.43272 0.658196 -0.19675
C_ C_ 0.190139 0.520701 0.692042 0.08851
C_ C_ 0.400999 0.481005 0.662445 0.08851
C_ C_ 0.213598 0.547373 0.665171 -0.19675
C_ C_ 0.430877 0.490946 0.637129 -0.19675
C_ C_ 0.236255 0.52597 0.640392 0.19216
C_ C_ 0.433583 0.451059 0.608809 0.19216
C_ C_ 0.112681 0.071503 0.724582 0.19216
C_ C_ 0.384867 0.10957 0.731074 0.19216
C_ C_ 0.109704 0.0251152 0.701716 -0.19675
C_ C_ 0.38988 0.0692235 0.706818 -0.19675
C_ C_ 0.142524 0.0124341 0.695153 0.08851
C_ C_ 0.41624 0.04839 0.71927 0.08851
C_ C_ 0.177218 0.0451421 0.712691 -0.19675
C_ C_ 0.427486 0.0558749 0.756955 -0.19675
C_ C_ 0.179956 0.0911832 0.733848 0.19216
C_ C_ 0.417759 0.0907129 0.781922 0.19216
C_ C_ 0.0734694 0.256781 0.80806 0.04924
C_ C_ 0.311097 0.264401 0.821 0.04924
C_ C_ 0.0702359 0.20151 0.801488 -0.19469
C_ C_ 0.308181 0.209405 0.808982 -0.19469
C_ C_ 0.03905 0.179496 0.830309 -0.19469
C_ C_ 0.278783 0.181821 0.835501 -0.19469
C_ C_ 0.256308 0.217912 0.843044 0.04924
C_ C_ 0.522725 0.221985 0.844686 0.04924
C_ C_ 0.0656604 0.278798 0.772581 0.65653
C_ C_ 0.309079 0.296886 0.790896 0.65653
C_ C_ 0.100973 0.177949 0.801951 0.65653
C_ C_ 0.342864 0.19343 0.798908 0.65653
C_ C_ 0.0557032 0.175764 0.869301 0.65653
C_ C_ 0.293254 0.173788 0.872973 0.65653
C_ C_ 0.224047 0.208812 0.812219 0.65653
C_ C_ 0.485701 0.220155 0.823644 0.65653
C_ C_ 0.160409 0.417655 0.859822 0.19216
C_ C_ 0.39423 0.412968 0.87305 0.19216
C_ C_ 0.166715 0.462616 0.883779 -0.19675
C_ C_ 0.404305 0.457064 0.899941 -0.19675
C_ C_ 0.141006 0.469552 0.91232 0.08851
C_ C_ 0.377127 0.473991 0.917652 0.08851
C_ C_ 0.110451 0.428632 0.916905 -0.19675
C_ C_ 0.3391 0.439259 0.913756 -0.19675
C_ C_ 0.104897 0.384169 0.89286 0.19216
C_ C_ 0.330905 0.391493 0.891302 0.19216
C_ C_ 0.187753 0.109456 0.974193 0.19216
C_ C_ 0.451206 0.102205 0.983827 0.19216
C_ C_ 0.17886 0.061657 0.952276 -0.19675
C_ C_ 0.442104 0.0545329 0.964921 -0.19675
C_ C_ 0.139575 0.0300808 0.950931 0.08851
C_ C_ 0.406853 0.0307828 0.946005 0.08851
C_ C_ 0.11415 0.0470133 0.973409 -0.19675
C_ C_ 0.378131 0.0483444 0.953949 -0.19675
C_ C_ 0.126381 0.0907297 0.999626045 0.19216
C_ C_ 0.385266 0.0901859 0.982301 0.19216
C_ C_ 0.191209 0.249344 0.935522 0.04924
C_ C_ 0.437191 0.239731 0.921758 0.04924
C_ C_ 0.214977 0.303904 0.94659 -0.19469
C_ C_ 0.459433 0.294709 0.934506 -0.19469
C_ C_ 0.196734 0.328897 0.920554 -0.19469
C_ C_ 0.443918 0.319105 0.904017 -0.19469
C_ C_ 0.157171 0.291152 0.91008 0.04924
C_ C_ 0.402369 0.28021 0.897615 0.04924
C_ C_ 0.174583 0.224102 0.967121 0.65653
C_ C_ 0.423784 0.209384 0.953706 0.65653
C_ C_ 0.257932 0.318902 0.949779 0.65653
C_ C_ 0.50168 0.320117 0.942151 0.65653
C_ C_ 0.216018 0.33208 0.882885 0.65653
C_ C_ 0.469458 0.332108 0.870319 0.65653
C_ C_ 0.125617 0.29259 0.938728 0.65653
C_ C_ 0.371484 0.284817 0.927163 0.65653
C_ C_ 0.136365 0.112235 0.863426 0.19216
C_ C_ 0.311453 0.0577629 0.841146 0.19216
C_ C_ 0.137282 0.0706576 0.837018 -0.19675
C_ C_ 0.320424 0.0300456 0.807963 -0.19675
C_ C_ 0.104036 0.025983 0.833694 0.08851
C_ C_ 0.311993 0.980435 0.8067 0.08851
C_ C_ 0.0782663 0.023326 0.863906 -0.19675
C_ C_ 0.290089 0.955698 0.83471 -0.19675
C_ C_ 0.0806385 0.066665 0.890068 0.19216
C_ C_ 0.277393 0.983885 0.865559 0.19216
C_ C_ 0.110449 0.389557 0.752996 0.19216
C_ C_ 0.381476 0.431982 0.774284 0.19216
C_ C_ 0.100723 0.424788 0.781119 -0.19675
C_ C_ 0.381337 0.474099 0.801328 -0.19675
C_ C_ 0.0768868 0.448945 0.768609 0.08851
C_ C_ 0.350431 0.490062 0.804517 0.08851
C_ C_ 0.0617336 0.437287 0.730745 -0.19675
C_ C_ 0.318394 0.463857 0.782462 -0.19675
C_ C_ 0.0707877 0.400214 0.705362 0.19216
C_ C_ 0.316076 0.416292 0.761468 0.19216
N_ N_ 0.141062 0.115027 0.626828 -0.35746
N_ N_ 0.370199 0.120563 0.62621 -0.35746
N_ N_ 0.0825472 0.386834 0.513216 -0.35746
N_ N_ 0.332184 0.381679 0.499976 -0.35746
N_ N_ 0.227211 0.473854 0.637677 -0.35746
N_ N_ 0.406456 0.403923 0.605456 -0.35746
N_ N_ 0.148591 0.105411 0.736589 -0.35746
N_ N_ 0.402429 0.122963 0.768225 -0.35746
N_ N_ 0.129359 0.380284 0.865519 -0.35746
N_ N_ 0.358416 0.381388 0.870065 -0.35746
N_ N_ 0.161971 0.120679 0.999372 -0.35746
N_ N_ 0.42149 0.117147 0.994058 -0.35746
N_ N_ 0.109885 0.107951 0.890693 -0.35746
N_ N_ 0.28951 0.0342009 0.868502 -0.35746
N_ N_ 0.0903476 0.373814 0.719078 -0.35746
N_ N_ 0.347672 0.402733 0.755908 -0.35746
O_ O_ 0.216396 0.234357 0.649007 -0.2869
O_ O_ 0.449958 0.235489 0.660464 -0.2869
O_ O_ 0.00949825 0.168014 0.714507 -0.71937
O_ O_ 0.282011 0.174111 0.704408 -0.71937
O_ O_ 0.213112 0.18582 0.713026 -0.57331
O_ O_ 0.453964 0.194396 0.721245 -0.57331
O_ O_ 0.161527 0.206397 0.733183 -0.57331
O_ O_ 0.414394 0.227464 0.754822 -0.57331
O_ O_ 0.122001 0.281558 0.680891 -0.57331
O_ O_ 0.367307 0.296759 0.709022 -0.57331
O_ O_ 0.160029 0.358387 0.705274 -0.64513
O_ O_ 0.406686 0.371455 0.706139 -0.64513
O_ O_ 0.173479 0.326753 0.61438 -0.57331
O_ O_ 0.411864 0.309487 0.611819 -0.57331
O_ O_ 0.23698 0.351323 0.600553 -0.64513
O_ O_ 0.472664 0.355535 0.604584 -0.64513
O_ O_ 0.0420696 0.299668 0.66504 -0.57331
O_ O_ 0.300066 0.335504 0.691875 -0.57331
O_ O_ 0.0106519 0.250102 0.703333 -0.57331
O_ O_ 0.275991 0.259424 0.704129 -0.57331
O_ O_ 0.0867686 0.25911 0.604304 -0.2869
O_ O_ 0.339025 0.258577 0.586598 -0.2869
O_ O_ 0.173339 0.327849 0.537593 -0.71937
O_ O_ 0.431358 0.318772 0.535051 -0.71937
O_ O_ 0.108774 0.313748 0.544517 -0.57331
O_ O_ 0.359043 0.30894 0.529303 -0.57331
O_ O_ 0.0500422 0.283667 0.515885 -0.57331
O_ O_ 0.304285 0.270659 0.495339 -0.57331
O_ O_ 0.222056 0.212857 0.557693 -0.57331
O_ O_ 0.472293 0.211031 0.552437 -0.57331
O_ O_ 0.974285 0.129527 0.554387 -0.64513
O_ O_ 0.221019 0.132653 0.546188 -0.64513
O_ O_ 0.000310362 0.180935 0.637143 -0.57331
O_ O_ 0.278909 0.202181 0.640362 -0.57331
O_ O_ 0.0295556 0.125079 0.644789 -0.64513
O_ O_ 0.271095 0.11931 0.625085 -0.64513
O_ O_ 0.130032 0.165501 0.565907 -0.57331
O_ O_ 0.378301 0.163539 0.54782 -0.57331
O_ O_ 0.143491 0.242031 0.553117 -0.57331
O_ O_ 0.399062 0.243187 0.544133 -0.57331
O_ O_ 0.0498745 0.264198 0.838738 -0.2869
O_ O_ 0.283781 0.265057 0.848864 -0.2869
O_ O_ 0.209716 0.318545 0.792672 -0.71937
O_ O_ 0.493645 0.328428 0.784376 -0.71937
O_ O_ 0.043407 0.306269 0.775103 -0.57331
O_ O_ 0.288725 0.327311 0.797809 -0.57331
O_ O_ 0.0826021 0.270854 0.740825 -0.57331
O_ O_ 0.336014 0.305661 0.767307 -0.57331
O_ O_ 0.137008 0.205381 0.801199 -0.57331
O_ O_ 0.376786 0.215254 0.81687 -0.57331
O_ O_ 0.0905362 0.129465 0.792627 -0.64513
O_ O_ 0.335115 0.146857 0.778273 -0.64513
O_ O_ 0.0874876 0.208545 0.884077 -0.57331
O_ O_ 0.327966 0.175709 0.878052 -0.57331
O_ O_ 0.0366914 0.141435 0.888511 -0.64513
O_ O_ 0.268323 0.150588 0.893819 -0.64513
O_ O_ 0.197049 0.16672 0.80415 -0.57331
O_ O_ 0.452599 0.18671 0.825658 -0.57331
O_ O_ 0.226198 0.241586 0.790629 -0.57331
O_ O_ 0.486943 0.251393 0.799966 -0.57331
O_ O_ 0.164759 0.244898 0.905092 -0.2869
O_ O_ 0.407413 0.234868 0.89388 -0.2869
O_ O_ 0.0697365 0.185649 0.96021 -0.71937
O_ O_ 0.317677 0.155355 0.952682 -0.71937
O_ O_ 0.139265 0.19424 0.965004 -0.57331
O_ O_ 0.390666 0.174204 0.948906 -0.57331
O_ O_ 0.19739 0.22472 -0.005800000000000027 -0.57331
O_ O_ 0.445638 0.22075 0.984923 -0.57331
O_ O_ 0.0245267 0.290799 0.952737 -0.57331
O_ O_ 0.277358 0.289112 0.940998 -0.57331
O_ O_ 0.277131 0.367826 0.954864 -0.64513
O_ O_ 0.514328 0.370938 0.953255 -0.64513
O_ O_ 0.220579 0.29241 0.861303 -0.57331
O_ O_ 0.498902 0.316315 0.862692 -0.57331
O_ O_ 0.225439 0.373245 0.869108 -0.64513
O_ O_ 0.464396 0.364079 0.850828 -0.64513
O_ O_ 0.117244 0.333253 0.949977 -0.57331
O_ O_ 0.363122 0.326106 0.935364 -0.57331
O_ O_ 0.105406 0.253662 0.951591 -0.57331
O_ O_ 0.353307 0.246858 0.944478 -0.57331
Zn Zn 0.236636 0.693736 0.187175 0.88731
Zn Zn 0.499944 0.69745 0.181602 0.88731
Zn Zn 0.160231 0.686661 0.286765 0.96553
Zn Zn 0.415928 0.675564 0.278115 0.96553
Zn Zn 0.145927 0.800461 0.0666267 0.88731
Zn Zn 0.390205 0.803407 0.071782 0.88731
Zn Zn 0.0816077 0.820724 0.46835 0.96553
Zn Zn 0.328376 0.826376 0.481903 0.96553
Zn Zn 1.00320769 0.8163 0.323296 0.88731
Zn Zn 0.262294 0.806344 0.31388 0.88731
Zn Zn 0.0948913 0.838199 0.231153 0.96553
Zn Zn 0.33463 0.811581 0.206758 0.96553
Zn Zn 0.111498 0.693445 0.425606 0.88731
Zn Zn 0.352498 0.697474 0.432347 0.88731
Zn Zn 0.174206 0.672771 0.0200314 0.96553
Zn Zn 0.421685 0.67638 0.0329104 0.96553
H_ H_ 0.0530169 0.687501 0.208964 0.44417
H_ H_ 0.28562 0.691159 0.20528 0.44417
H_ H_ 0.0157227 0.640402 0.201233 0.44417
H_ H_ 0.25302 0.669522 0.236148 0.44417
H_ H_ 0.147933 0.730559 0.179546 0.33755
H_ H_ 0.409083 0.718679 0.163667 0.33755
H_ H_ 0.210192 0.81485 0.221129 0.33755
H_ H_ 0.45192 0.812266 0.21779 0.33755
H_ H_ 0.990896 0.860518 0.172617 0.33755
H_ H_ 0.236571 0.855371 0.169239 0.33755
H_ H_ 0.0155121 0.78381 0.133899 0.33755
H_ H_ 0.241176 0.770416 0.121671 0.33755
H_ H_ 0.0620673 0.590845 0.143816 0.33755
H_ H_ 0.328406 0.5939 0.13343 0.33755
H_ H_ 0.0605553 0.503604 0.113829 0.33755
H_ H_ 0.313253 0.518133 0.0901719 0.33755
H_ H_ 0.154736 0.555755 0.0516039 0.33755
H_ H_ 0.434913 0.555166 0.0652738 0.33755
H_ H_ 0.169533 0.638791 0.0994806 0.33755
H_ H_ 0.445981 0.633533 0.106177 0.33755
H_ H_ 0.0509045 0.859875 0.0449253 0.33755
H_ H_ 0.274922 0.888766 0.0213244 0.33755
H_ H_ 0.066864 0.937041 0.0859121 0.33755
H_ H_ 0.295973 0.977699 0.0453652 0.33755
H_ H_ 0.160644 0.999115 0.0165819 0.33755
H_ H_ 0.412877 0.985291 0.0613531 0.33755
H_ H_ 0.151876 0.915995 0.479353 0.33755
H_ H_ 0.399457 0.898497 0.518924 0.33755
H_ H_ 0.20015 0.811586 0.0465898 0.44417
H_ H_ 0.442363 0.83389 0.0449421 0.44417
H_ H_ 0.174684 0.829052 0.0188621 0.44417
H_ H_ 0.405062 0.818197 0.0169725 0.44417
H_ H_ 0.0393497 0.765461 0.07484 0.33755
H_ H_ 0.283198 0.772015 0.0805578 0.33755
H_ H_ 0.0464949 0.673702 0.0260284 0.33755
H_ H_ 0.286481 0.685088 0.0302048 0.33755
H_ H_ 0.0506981 0.628138 0.0756835 0.33755
H_ H_ 0.308057 0.642416 0.0813522 0.33755
H_ H_ 0.111318 0.708016 0.116942 0.33755
H_ H_ 0.357655 0.722288 0.129543 0.33755
H_ H_ 0.10279 0.853476 0.141771 0.33755
H_ H_ 0.430893 0.913984 0.133335 0.33755
H_ H_ 0.0924759 0.925395 0.177052 0.33755
H_ H_ 0.407286 0.942306 0.196015 0.33755
H_ H_ 0.203216 0.00990722 0.142133 0.33755
H_ H_ 0.479011 0.0911222 0.188365 0.33755
H_ H_ 0.207011 0.932861 0.100534 0.33755
H_ H_ 0.501964 0.0566413 0.125213 0.33755
H_ H_ 0.115147 0.626575 0.219112 0.33755
H_ H_ 0.350772 0.600635 0.227225 0.33755
H_ H_ 0.124993 0.556721 0.174722 0.33755
H_ H_ 0.343701 0.52053 0.179274 0.33755
H_ H_ 0.193573 0.530002 0.260498 0.33755
H_ H_ 0.458756 0.541074 0.217503 0.33755
H_ H_ 0.170392 0.594175 0.312912 0.33755
H_ H_ 0.467225 0.622648 0.249602 0.33755
H_ H_ 0.247645 0.845331 0.272625 0.44417
H_ H_ 0.477003 0.861259 0.299878 0.44417
H_ H_ 0.212767 0.813753 0.292896 0.44417
H_ H_ 0.442034 0.80943 0.293681 0.44417
H_ H_ 0.0927806 0.783008 0.33562 0.33755
H_ H_ 0.35755 0.775062 0.318923 0.33755
H_ H_ 0.0422513 0.695885 0.286967 0.33755
H_ H_ 0.308723 0.69066 0.27175 0.33755
H_ H_ 0.265329 0.641149 0.319194 0.33755
H_ H_ 0.511873 0.644933 0.333942 0.33755
H_ H_ 0.255687 0.720415 0.366714 0.33755
H_ H_ 0.498024 0.72836 0.376026 0.33755
H_ H_ 0.169511 0.903347 0.361327 0.33755
H_ H_ 0.43575 0.914889 0.347627 0.33755
H_ H_ 0.185529 0.988643 0.402156 0.33755
H_ H_ 0.442445 0.0007900000000000684 0.383547 0.33755
H_ H_ 0.0648057 0.951349 0.429309 0.33755
H_ H_ 0.342142 0.935882 0.443251 0.33755
H_ H_ 0.0548684 0.865545 0.39552 0.33755
H_ H_ 0.326338 0.858298 0.394248 0.33755
H_ H_ 0.225299 0.602747 0.493589 0.33755
H_ H_ 0.4562 0.637311 0.468599 0.33755
H_ H_ 0.20622 0.516693 0.459431 0.33755
H_ H_ 0.43727 0.56234 0.418638 0.33755
H_ H_ 0.0985549 0.525451 0.424836 0.33755
H_ H_ 0.335272 0.50574 0.475052 0.33755
H_ H_ 0.103478 0.592365 0.990817 0.33755
H_ H_ 0.353186 0.588301 0.0178421 0.33755
H_ H_ 0.0624522 0.646242 0.446244 0.44417
H_ H_ 0.299922 0.687415 0.451681 0.44417
H_ H_ 0.0900676 0.679574 0.480382 0.44417
H_ H_ 0.323979 0.667047 0.478542 0.44417
H_ H_ 0.217788 0.725925 0.421404 0.33755
H_ H_ 0.462666 0.734665 0.43624 0.33755
H_ H_ 0.216053 0.808801 0.471453 0.33755
H_ H_ 0.460074 0.818817 0.482149 0.33755
H_ H_ 0.206272 0.86766 0.426961 0.33755
H_ H_ 0.445733 0.868332 0.434359 0.33755
H_ H_ 0.153235 0.788691 0.374835 0.33755
H_ H_ 0.390394 0.788577 0.388494 0.33755
H_ H_ 0.0692179 0.605224 0.33513 0.33755
H_ H_ 0.396676 0.654009 0.369864 0.33755
H_ H_ 0.0806477 0.55102 0.275338 0.33755
H_ H_ 0.394478 0.586408 0.319083 0.33755
H_ H_ 0.0205847 0.42063 0.326582 0.33755
H_ H_ 0.295166 0.491479 0.363063 0.33755
H_ H_ 0.00707036 0.47383 0.381234 0.33755
H_ H_ 0.294077 0.56406 0.409787 0.33755
H_ H_ 0.158301 0.911739 0.280865 0.33755
H_ H_ 0.388616 0.880867 0.275996 0.33755
H_ H_ 0.164836 0.998913 0.316105 0.33755
H_ H_ 0.384268 0.955359 0.313545 0.33755
H_ H_ 0.0512547 0.977703 0.288073 0.33755
H_ H_ 0.287101 0.950965 0.243815 0.33755
H_ H_ 0.0480851 0.901979 0.242708 0.33755
H_ H_ 0.30989 0.892216 0.191662 0.33755
C_ C_ 0.178716 0.743864 0.184813 0.04924
C_ C_ 0.43652 0.741817 0.17794 0.04924
C_ C_ 0.188436 0.801429 0.196914 -0.19469
C_ C_ 0.439795 0.797352 0.188368 -0.19469
C_ C_ 0.213231 0.818667 0.161501 -0.19469
C_ C_ 0.468631 0.820261 0.158848 -0.19469
C_ C_ 0.996449 0.783835 0.15868 0.04924
C_ C_ 0.22922 0.775565 0.150122 0.04924
C_ C_ 0.183173 0.718946 0.21852 0.65653
C_ C_ 0.436899 0.713093 0.210583 0.65653
C_ C_ 0.158005 0.827379 0.207331 0.65653
C_ C_ 0.404991 0.813392 0.19344 0.65653
C_ C_ 0.194192 0.827556 0.125757 0.65653
C_ C_ 0.456049 0.825166 0.120052 0.65653
C_ C_ 0.0282473 0.794596 0.189098 0.65653
C_ C_ 0.263719 0.780997 0.177196 0.65653
C_ C_ 0.0841278 0.583066 0.124493 0.19216
C_ C_ 0.352449 0.586943 0.117566 0.19216
C_ C_ 0.0781353 0.534349 0.105089 -0.19675
C_ C_ 0.344443 0.538438 0.0953695 -0.19675
C_ C_ 0.1022 0.52392 0.0772099 0.08851
C_ C_ 0.373742 0.522987 0.0795058 0.08851
C_ C_ 0.136273 0.561708 0.0749138 -0.19675
C_ C_ 0.410985 0.561624 0.0803078 -0.19675
C_ C_ 0.144915 0.607885 0.101013 0.19216
C_ C_ 0.418146 0.6051 0.105207 0.19216
C_ C_ 0.0755726 0.890467 0.0366314 0.19216
C_ C_ 0.306647 0.910953 0.029397 0.19216
C_ C_ 0.0829916 0.936378 0.0603575 -0.19675
C_ C_ 0.315772 0.959913 0.0475342 -0.19675
C_ C_ 0.115207 0.975704 0.0560363 0.08851
C_ C_ 0.353211 0.984161 0.0645306 0.08851
C_ C_ 0.137776 0.967782 0.0235421 -0.19675
C_ C_ 0.382364 0.964016 0.0529064 -0.19675
C_ C_ 0.128286 0.921245 1.000506699 0.19216
C_ C_ 0.372312 0.917412 0.0305308 0.19216
C_ C_ 0.0588223 0.744597 0.064449 0.04924
C_ C_ 0.303449 0.75166 0.0698231 0.04924
C_ C_ 0.0364355 0.687866 0.0538967 -0.19469
C_ C_ 0.280913 0.694832 0.059635 -0.19469
C_ C_ 0.0538413 0.66842 0.0846952 -0.19469
C_ C_ 0.302098 0.676517 0.0901978 -0.19469
C_ C_ 0.0943467 0.707702 0.0907885 0.04924
C_ C_ 0.341016 0.715024 0.0991177 0.04924
C_ C_ 0.075758 0.772657 0.0321202 0.65653
C_ C_ 0.319834 0.782493 0.0404582 0.65653
C_ C_ 0.992977 0.666864 0.0469896 0.65653
C_ C_ 0.237421 0.674568 0.0567505 0.65653
C_ C_ 0.0314731 0.666223 0.119659 0.65653
C_ C_ 0.282969 0.672177 0.128125 0.65653
C_ C_ 0.125344 0.703852 0.0632887 0.65653
C_ C_ 0.372197 0.707121 0.0734899 0.65653
C_ C_ 0.119477 0.889873 0.135888 0.19216
C_ C_ 0.437687 0.952995 0.143573 0.19216
C_ C_ 0.117923 0.928837 0.163027 -0.19675
C_ C_ 0.424527 0.970562 0.179805 -0.19675
C_ C_ 0.146497 0.976374 0.16313 0.08851
C_ C_ 0.440297 0.0209597 0.196405 0.08851
C_ C_ 0.179719 0.977374 0.14183 -0.19675
C_ C_ 0.468344 0.0519579 0.176027 -0.19675
C_ C_ 0.179921 0.934184 0.116571 0.19216
C_ C_ 0.478451 0.0344371 0.138701 0.19216
C_ C_ 0.129386 0.604255 0.229827 0.19216
C_ C_ 0.373245 0.585644 0.224165 0.19216
C_ C_ 0.134413 0.564275 0.205153 -0.19675
C_ C_ 0.369754 0.539747 0.198908 -0.19675
C_ C_ 0.1577 0.539892 0.215587 0.08851
C_ C_ 0.401816 0.524516 0.196022 0.08851
C_ C_ 0.170733 0.547758 0.254794 -0.19675
C_ C_ 0.434288 0.551485 0.220314 -0.19675
C_ C_ 0.162756 0.586139 0.280658 0.19216
C_ C_ 0.43723 0.596345 0.243697 0.19216
C_ C_ 0.063335 0.767565 0.323712 0.04924
C_ C_ 0.32599 0.755307 0.311217 0.04924
C_ C_ 0.0592776 0.711213 0.312044 -0.19469
C_ C_ 0.317261 0.699129 0.302251 -0.19469
C_ C_ 0.0320776 0.690481 0.34376 -0.19469
C_ C_ 0.286659 0.677972 0.330344 -0.19469
C_ C_ 0.26846 0.719154 0.338606 0.04924
C_ C_ 0.508362 0.723959 0.346837 0.04924
C_ C_ 0.062092 0.795129 0.290619 0.65653
C_ C_ 0.319935 0.782772 0.277918 0.65653
C_ C_ 0.0929592 0.692759 0.302126 0.65653
C_ C_ 0.349579 0.678278 0.303436 0.65653
C_ C_ 0.0510237 0.691564 0.383263 0.65653
C_ C_ 0.300018 0.670372 0.368714 0.65653
C_ C_ 0.233346 0.711929 0.310175 0.65653
C_ C_ 0.472181 0.710636 0.3219 0.65653
C_ C_ 0.147326 0.916917 0.376958 0.19216
C_ C_ 0.415367 0.921625 0.367892 0.19216
C_ C_ 0.15705 0.964846 0.398397 -0.19675
C_ C_ 0.420248 0.967992 0.389354 -0.19675
C_ C_ 0.126917 0.978244 0.417689 0.08851
C_ C_ 0.39508 0.974457 0.418149 0.08851
C_ C_ 0.0904913 0.940904 0.41679 -0.19675
C_ C_ 0.361162 0.933895 0.421119 -0.19675
C_ C_ 0.0838021 0.89474 0.392145 0.19216
C_ C_ 0.353126 0.890803 0.391719 0.19216
C_ C_ 0.195438 0.584135 0.480916 0.19216
C_ C_ 0.429516 0.607164 0.470006 0.19216
C_ C_ 0.187891 0.537303 0.456505 -0.19675
C_ C_ 0.418881 0.565064 0.442402 -0.19675
C_ C_ 0.154553 0.517234 0.432661 0.08851
C_ C_ 0.386505 0.525004 0.445092 0.08851
C_ C_ 0.125975 0.542861 0.439455 -0.19675
C_ C_ 0.36025 0.534968 0.4706 -0.19675
C_ C_ 0.131452 0.582183 0.471956 0.19216
C_ C_ 0.371604 0.580696 0.498449 0.19216
C_ C_ 0.199436 0.745663 0.430313 0.04924
C_ C_ 0.441006 0.751143 0.444699 0.04924
C_ C_ 0.220445 0.800583 0.441378 -0.19469
C_ C_ 0.463832 0.806678 0.451478 -0.19469
C_ C_ 0.202661 0.826952 0.414056 -0.19469
C_ C_ 0.445721 0.828365 0.422556 -0.19469
C_ C_ 0.164227 0.788579 0.403431 0.04924
C_ C_ 0.406758 0.790507 0.413704 0.04924
C_ C_ 0.179644 0.712547 0.460211 0.65653
C_ C_ 0.420044 0.72324 0.476577 0.65653
C_ C_ 0.263635 0.819037 0.443369 0.65653
C_ C_ 0.506598 0.822964 0.455485 0.65653
C_ C_ 0.224514 0.838909 0.377466 0.65653
C_ C_ 0.465645 0.831781 0.384149 0.65653
C_ C_ 0.130244 0.790049 0.428373 0.65653
C_ C_ 0.375396 0.792327 0.440774 0.65653
C_ C_ 0.0569783 0.563819 0.330331 0.19216
C_ C_ 0.375737 0.616862 0.369668 0.19216
C_ C_ 0.0648686 0.532451 0.298089 -0.19675
C_ C_ 0.378064 0.578461 0.342195 -0.19675
C_ C_ 0.0555378 0.481234 0.298935 0.08851
C_ C_ 0.346648 0.533285 0.337867 0.08851
C_ C_ 0.0322913 0.46179 0.326378 -0.19675
C_ C_ 0.318158 0.52761 0.364446 -0.19675
C_ C_ 0.0231189 0.491268 0.357478 0.19216
C_ C_ 0.317786 0.566424 0.392662 0.19216
C_ C_ 0.135377 0.928909 0.28047 0.19216
C_ C_ 0.368583 0.899229 0.266522 0.19216
C_ C_ 0.139037 0.976232 0.301844 -0.19675
C_ C_ 0.363838 0.939271 0.290292 -0.19675
C_ C_ 0.108591 0.992532 0.30692 0.08851
C_ C_ 0.333586 0.957495 0.285105 0.08851
C_ C_ 0.0753998 0.964453 0.28447 -0.19675
C_ C_ 0.312502 0.939439 0.248885 -0.19675
C_ C_ 0.0725067 0.920867 0.260947 0.19216
C_ C_ 0.323338 0.904558 0.221493 0.19216
N_ N_ 0.117391 0.617489 0.121245 -0.35746
N_ N_ 0.388304 0.616187 0.124897 -0.35746
N_ N_ 0.0964164 0.884134 0.00633356 -0.35746
N_ N_ 0.33556 0.892467 0.0185246 -0.35746
N_ N_ 0.149128 0.891973 0.112685 -0.35746
N_ N_ 0.463502 0.985489 0.123353 -0.35746
N_ N_ 0.146018 0.616315 0.266348 -0.35746
N_ N_ 0.406299 0.61302 0.246401 -0.35746
N_ N_ 0.111095 0.885388 0.373106 -0.35746
N_ N_ 0.382291 0.883861 0.370166 -0.35746
N_ N_ 0.167629 0.605421 0.489655 -0.35746
N_ N_ 0.407022 0.612146 0.499682 -0.35746
N_ N_ 0.0347943 0.541463 0.357691 -0.35746
N_ N_ 0.349535 0.607963 0.397142 -0.35746
N_ N_ 0.10214 0.902699 0.258893 -0.35746
N_ N_ 0.348003 0.882215 0.232044 -0.35746
O_ O_ 0.197557 0.730512 0.152143 -0.2869
O_ O_ 0.462708 0.735288 0.149555 -0.2869
O_ O_ 0.0300718 0.67022 0.203314 -0.71937
O_ O_ 0.263678 0.682249 0.216584 -0.71937
O_ O_ 0.19749 0.683058 0.213893 -0.57331
O_ O_ 0.459785 0.686979 0.210619 -0.57331
O_ O_ 0.162461 0.724011 0.247353 -0.57331
O_ O_ 0.414464 0.714375 0.239108 -0.57331
O_ O_ 0.120762 0.804005 0.205063 -0.57331
O_ O_ 0.370928 0.784086 0.186434 -0.57331
O_ O_ 0.170428 0.8755 0.21508 -0.64513
O_ O_ 0.408784 0.85872 0.213159 -0.64513
O_ O_ 0.162148 0.792458 0.112103 -0.57331
O_ O_ 0.423585 0.832578 0.117438 -0.57331
O_ O_ 0.214833 0.85626 0.104326 -0.64513
O_ O_ 0.483648 0.845536 0.0975835 -0.64513
O_ O_ 0.0562591 0.837616 0.193468 -0.57331
O_ O_ 0.297188 0.805106 0.169519 -0.57331
O_ O_ 0.032876 0.757769 0.20417 -0.57331
O_ O_ 0.26038 0.757013 0.206679 -0.57331
O_ O_ 0.0873888 0.753105 0.0946975 -0.2869
O_ O_ 0.331488 0.758973 0.100207 -0.2869
O_ O_ 0.180401 0.817744 0.0375604 -0.71937
O_ O_ 0.418105 0.822459 0.0379644 -0.71937
O_ O_ 0.10985 0.805741 0.0358095 -0.57331
O_ O_ 0.351597 0.821838 0.0509288 -0.57331
O_ O_ 0.0545736 0.770788 1.00339008 -0.57331
O_ O_ 0.298867 0.780836 0.00990791 -0.57331
O_ O_ 0.216979 0.702688 0.0538655 -0.57331
O_ O_ 0.470104 0.702172 0.0623337 -0.57331
O_ O_ 0.975184 0.618552 0.0440523 -0.64513
O_ O_ 0.22052 0.625838 0.0523751 -0.64513
O_ O_ 0.0391592 0.70655 0.146554 -0.57331
O_ O_ 0.254746 0.687969 0.138398 -0.57331
O_ O_ 0.0135394 0.621492 0.128722 -0.64513
O_ O_ 0.287034 0.639409 0.147388 -0.64513
O_ O_ 0.130405 0.661338 0.0503064 -0.57331
O_ O_ 0.379018 0.665728 0.0662043 -0.57331
O_ O_ 0.145409 0.741322 0.0483127 -0.57331
O_ O_ 0.391956 0.742556 0.0554609 -0.57331
O_ O_ 0.0397093 0.774724 0.354382 -0.2869
O_ O_ 0.300241 0.76173 0.340248 -0.2869
O_ O_ 0.235965 0.82607 0.286926 -0.71937
O_ O_ 0.465381 0.828843 0.297139 -0.71937
O_ O_ 0.0425171 0.826422 0.291761 -0.57331
O_ O_ 0.303246 0.817173 0.284327 -0.57331
O_ O_ 0.0895173 0.795804 0.266093 -0.57331
O_ O_ 0.333071 0.773021 0.242719 -0.57331
O_ O_ 0.128595 0.715954 0.314951 -0.57331
O_ O_ 0.383915 0.706184 0.306235 -0.57331
O_ O_ 0.0830202 0.649567 0.279223 -0.64513
O_ O_ 0.342554 0.629036 0.291676 -0.64513
O_ O_ 0.0832035 0.678494 0.381225 -0.57331
O_ O_ 0.331122 0.701158 0.386559 -0.57331
O_ O_ 0.0307324 0.683773 0.41389 -0.64513
O_ O_ 0.276723 0.637438 0.386666 -0.64513
O_ O_ 0.199328 0.687485 0.319257 -0.57331
O_ O_ 0.447141 0.666862 0.315653 -0.57331
O_ O_ 0.23721 0.746957 0.289152 -0.57331
O_ O_ 0.470683 0.740619 0.297912 -0.57331
O_ O_ 0.171883 0.744239 0.399972 -0.2869
O_ O_ 0.415529 0.744643 0.412967 -0.2869
O_ O_ 0.0821855 0.66881 0.457231 -0.71937
O_ O_ 0.318945 0.680362 0.459815 -0.71937
O_ O_ 0.147093 0.678565 0.450798 -0.57331
O_ O_ 0.387264 0.687972 0.468405 -0.57331
O_ O_ 0.198448 0.711652 0.490849 -0.57331
O_ O_ 0.441102 0.720455 0.505515 -0.57331
O_ O_ 0.0328552 0.797608 0.446172 -0.57331
O_ O_ 0.283397 0.791876 0.453252 -0.57331
O_ O_ 0.280911 0.866911 0.444277 -0.64513
O_ O_ 0.52493 0.870079 0.462105 -0.64513
O_ O_ 0.240352 0.80697 0.359214 -0.57331
O_ O_ 0.472623 0.793768 0.365223 -0.57331
O_ O_ 0.222266 0.878588 0.362357 -0.64513
O_ O_ 0.473591 0.874674 0.371876 -0.64513
O_ O_ 0.119678 0.828812 0.435801 -0.57331
O_ O_ 0.367413 0.833852 0.447 -0.57331
O_ O_ 0.118384 0.755443 0.450081 -0.57331
O_ O_ 0.353487 0.75566 0.456265 -0.57331
Zn Zn 0.239352 0.690116 0.687205 0.88731
Zn Zn 0.50606 0.699147 0.687378 0.88731
Zn Zn 0.162869 0.685659 0.79093 0.96553
Zn Zn 0.413294 0.674687 0.776025 0.96553
Zn Zn 0.147623 0.792398 0.564604 0.88731
Zn Zn 0.386914 0.802031 0.578505 0.88731
Zn Zn 0.076722 0.81821 0.975259 0.96553
Zn Zn 0.325329 0.829332 0.983424 0.96553
Zn Zn 1.00130012 0.80246 0.822161 0.88731
Zn Zn 0.258309 0.814168 0.814083 0.88731
Zn Zn 0.0864786 0.824812 0.730931 0.96553
Zn Zn 0.338723 0.816308 0.703039 0.96553
Zn Zn 0.112676 0.692167 0.927004 0.88731
Zn Zn 0.357385 0.709025 0.931862 0.88731
Zn Zn 0.173299 0.667175 0.521017 0.96553
Zn Zn 0.420576 0.673405 0.534228 0.96553
H_ H_ 0.0576553 0.693977 0.714444 0.44417
H_ H_ 0.285542 0.678725 0.708002 0.44417
H_ H_ 0.0346052 0.636908 0.69686 0.44417
H_ H_ 0.250885 0.656636 0.732346 0.44417
H_ H_ 0.146474 0.723647 0.679492 0.33755
H_ H_ 0.411194 0.714324 0.667785 0.33755
H_ H_ 0.196177 0.811677 0.727796 0.33755
H_ H_ 0.461103 0.805033 0.721604 0.33755
H_ H_ 0.989462 0.85155 0.679558 0.33755
H_ H_ 0.233406 0.858255 0.671175 0.33755
H_ H_ 0.00686664 0.783589 0.629315 0.33755
H_ H_ 0.237811 0.775456 0.625983 0.33755
H_ H_ 0.0620887 0.594124 0.648349 0.33755
H_ H_ 0.327203 0.586431 0.643152 0.33755
H_ H_ 0.0490779 0.507999 0.612676 0.33755
H_ H_ 0.310873 0.514152 0.592307 0.33755
H_ H_ 0.154337 0.564307 0.55732 0.33755
H_ H_ 0.427038 0.551396 0.562856 0.33755
H_ H_ 0.173072 0.642218 0.60851 0.33755
H_ H_ 0.442329 0.627362 0.609025 0.33755
H_ H_ 0.0464455 0.858762 0.533409 0.33755
H_ H_ 0.279654 0.878666 0.517285 0.33755
H_ H_ 0.0642692 0.935537 0.583664 0.33755
H_ H_ 0.294618 0.969709 0.544891 0.33755
H_ H_ 0.166892 0.987965 0.523314 0.33755
H_ H_ 0.410075 0.976145 0.566375 0.33755
H_ H_ 0.14567 0.91269 0.977713 0.33755
H_ H_ 0.392932 0.898018 0.0311068 0.33755
H_ H_ 0.178297 0.827324 0.519774 0.44417
H_ H_ 0.430416 0.86492 0.564126 0.44417
H_ H_ 0.203816 0.798002 0.539791 0.44417
H_ H_ 0.422774 0.815798 0.531827 0.44417
H_ H_ 0.0380647 0.763346 0.568341 0.33755
H_ H_ 0.293868 0.787018 0.589382 0.33755
H_ H_ 0.0343653 0.675837 0.517853 0.33755
H_ H_ 0.274761 0.688102 0.531574 0.33755
H_ H_ 0.0460041 0.62518 0.566218 0.33755
H_ H_ 0.29317 0.637656 0.570383 0.33755
H_ H_ 0.106292 0.70064 0.611194 0.33755
H_ H_ 0.352929 0.703642 0.621103 0.33755
H_ H_ 0.0955954 0.841118 0.642828 0.33755
H_ H_ 0.420327 0.903365 0.645635 0.33755
H_ H_ 0.0957497 0.911851 0.691171 0.33755
H_ H_ 0.405817 0.9502 0.707146 0.33755
H_ H_ 0.192761 1.00422696 0.639872 0.33755
H_ H_ 0.473093 0.0868675 0.667466 0.33755
H_ H_ 0.188119 0.93226 0.586984 0.33755
H_ H_ 0.488265 0.0388473 0.611915 0.33755
H_ H_ 0.122648 0.63013 0.718817 0.33755
H_ H_ 0.344897 0.594092 0.729468 0.33755
H_ H_ 0.132084 0.559466 0.676291 0.33755
H_ H_ 0.34022 0.509065 0.688063 0.33755
H_ H_ 0.197235 0.535187 0.767014 0.33755
H_ H_ 0.459306 0.539118 0.712619 0.33755
H_ H_ 0.176771 0.597668 0.814203 0.33755
H_ H_ 0.460515 0.618134 0.757812 0.33755
H_ H_ 0.238489 0.845351 0.772324 0.44417
H_ H_ 0.485704 0.859827 0.792518 0.44417
H_ H_ 0.202523 0.811902 0.79366 0.44417
H_ H_ 0.451587 0.815244 0.798635 0.44417
H_ H_ 0.0976692 0.777315 0.833954 0.33755
H_ H_ 0.351474 0.796075 0.818269 0.33755
H_ H_ 0.0445254 0.688301 0.78788 0.33755
H_ H_ 0.306701 0.696425 0.772623 0.33755
H_ H_ 0.271534 0.652162 0.819477 0.33755
H_ H_ 0.516102 0.648198 0.833799 0.33755
H_ H_ 0.260742 0.730788 0.869345 0.33755
H_ H_ 0.493844 0.726273 0.872795 0.33755
H_ H_ 0.155427 0.907695 0.853143 0.33755
H_ H_ 0.447549 0.924739 0.851429 0.33755
H_ H_ 0.168986 0.995382 0.88282 0.33755
H_ H_ 0.455408 1.0038212 0.892778 0.33755
H_ H_ 0.0764835 0.947498 0.959424 0.33755
H_ H_ 0.347591 0.94374 0.943266 0.33755
H_ H_ 0.0494779 0.872256 0.904799 0.33755
H_ H_ 0.335859 0.863201 0.898026 0.33755
H_ H_ 0.221514 0.616734 0.978697 0.33755
H_ H_ 0.45124 0.639237 0.956895 0.33755
H_ H_ 0.211146 0.538499 0.938816 0.33755
H_ H_ 0.43531 0.558629 0.912655 0.33755
H_ H_ 0.0901944 0.508999 0.948389 0.33755
H_ H_ 0.337655 0.506281 0.982806 0.33755
H_ H_ 0.111305 0.602296 0.47747 0.33755
H_ H_ 0.353188 0.587383 0.521204 0.33755
H_ H_ 0.0950374 0.68728 0.984373 0.44417
H_ H_ 0.322085 0.679191 0.978658 0.44417
H_ H_ 0.0685663 0.642892 0.952088 0.44417
H_ H_ 0.303274 0.707923 0.955438 0.44417
H_ H_ 0.211786 0.719617 0.913426 0.33755
H_ H_ 0.464359 0.731651 0.932401 0.33755
H_ H_ 0.215021 0.808916 0.973907 0.33755
H_ H_ 0.464807 0.822949 0.984199 0.33755
H_ H_ 0.200478 0.863741 0.929438 0.33755
H_ H_ 0.457836 0.878173 0.935293 0.33755
H_ H_ 0.142974 0.787151 0.877153 0.33755
H_ H_ 0.395376 0.797153 0.888534 0.33755
H_ H_ 0.0710297 0.587014 0.845115 0.33755
H_ H_ 0.391447 0.661649 0.85821 0.33755
H_ H_ 0.0743716 0.546417 0.782388 0.33755
H_ H_ 0.389666 0.591722 0.806265 0.33755
H_ H_ 0.0228538 0.406699 0.817499 0.33755
H_ H_ 0.30429 0.493678 0.86718 0.33755
H_ H_ 0.0172824 0.452074 0.885777 0.33755
H_ H_ 0.307699 0.569709 0.915011 0.33755
H_ H_ 0.155241 0.905053 0.779523 0.33755
H_ H_ 0.378509 0.872876 0.773687 0.33755
H_ H_ 0.164148 0.992001 0.81353 0.33755
H_ H_ 0.358594 0.928856 0.821055 0.33755
H_ H_ 0.0461126 0.961841 0.789763 0.33755
H_ H_ 0.296786 0.958047 0.728015 0.33755
H_ H_ 0.0396604 0.878273 0.755021 0.33755
H_ H_ 0.317462 0.899194 0.685142 0.33755
C_ C_ 0.175415 0.744717 0.687869 0.04924
C_ C_ 0.438808 0.738979 0.681603 0.04924
C_ C_ 0.186042 0.800866 0.697501 -0.19469
C_ C_ 0.444607 0.794159 0.694949 -0.19469
C_ C_ 0.21373 0.819897 0.666162 -0.19469
C_ C_ 0.468197 0.813502 0.658733 -0.19469
C_ C_ 0.992706 0.774715 0.656688 0.04924
C_ C_ 0.228994 0.776029 0.654148 0.04924
C_ C_ 0.181972 0.720785 0.722042 0.65653
C_ C_ 0.439959 0.711356 0.714384 0.65653
C_ C_ 0.153476 0.823449 0.701525 0.65653
C_ C_ 0.411244 0.811027 0.70712 0.65653
C_ C_ 0.195054 0.825524 0.629542 0.65653
C_ C_ 0.448465 0.814732 0.622332 0.65653
C_ C_ 0.0285697 0.784707 0.683756 0.65653
C_ C_ 0.266867 0.782473 0.676714 0.65653
C_ C_ 0.0827963 0.585843 0.630353 0.19216
C_ C_ 0.350253 0.577373 0.627337 0.19216
C_ C_ 0.0743003 0.537371 0.608819 -0.19675
C_ C_ 0.340407 0.533583 0.601538 -0.19675
C_ C_ 0.102928 0.527286 0.586131 0.08851
C_ C_ 0.370135 0.521073 0.581011 0.08851
C_ C_ 0.138642 0.563795 0.583702 -0.19675
C_ C_ 0.406731 0.552979 0.584784 -0.19675
C_ C_ 0.145224 0.611872 0.608008 0.19216
C_ C_ 0.413564 0.599704 0.60788 0.19216
C_ C_ 0.0719282 0.888979 0.531241 0.19216
C_ C_ 0.308952 0.905548 0.522524 0.19216
C_ C_ 0.0825452 0.932207 0.559255 -0.19675
C_ C_ 0.317467 0.957536 0.538353 -0.19675
C_ C_ 0.117337 0.970212 0.558567 0.08851
C_ C_ 0.35398 0.981619 0.554016 0.08851
C_ C_ 0.138964 0.962538 0.526829 -0.19675
C_ C_ 0.383346 0.960487 0.548423 -0.19675
C_ C_ 0.12918 0.921379 0.499529 0.19216
C_ C_ 0.376697 0.915881 0.524651 0.19216
C_ C_ 0.058164 0.743056 0.558831 0.04924
C_ C_ 0.304185 0.755521 0.575495 0.04924
C_ C_ 0.0330434 0.687417 0.549048 -0.19469
C_ C_ 0.275951 0.700576 0.564495 -0.19469
C_ C_ 0.0501335 0.663669 0.576932 -0.19469
C_ C_ 0.294854 0.673093 0.588727 -0.19469
C_ C_ 0.0911228 0.702404 0.584462 0.04924
C_ C_ 0.3374 0.708055 0.595646 0.04924
C_ C_ 0.0770346 0.770138 0.527328 0.65653
C_ C_ 0.323286 0.779634 0.540592 0.65653
C_ C_ 0.990182 0.671046 0.550885 0.65653
C_ C_ 0.232384 0.682072 0.563159 0.65653
C_ C_ 0.0311642 0.660402 0.616341 0.65653
C_ C_ 0.277195 0.65979 0.625956 0.65653
C_ C_ 0.121418 0.69691 0.554955 0.65653
C_ C_ 0.368471 0.705959 0.568661 0.65653
C_ C_ 0.11418 0.878597 0.640777 0.19216
C_ C_ 0.436916 0.943574 0.653159 0.19216
C_ C_ 0.116012 0.919179 0.669019 -0.19675
C_ C_ 0.423319 0.970496 0.684047 -0.19675
C_ C_ 0.141999 0.965367 0.67032 0.08851
C_ C_ 0.435046 0.0218462 0.690145 0.08851
C_ C_ 0.166891 0.971649 0.638182 -0.19675
C_ C_ 0.459693 0.0451141 0.664475 -0.19675
C_ C_ 0.166933 0.929901 0.609496 0.19216
C_ C_ 0.46986 0.0175504 0.632342 0.19216
C_ C_ 0.136535 0.606248 0.731567 0.19216
C_ C_ 0.370084 0.581896 0.723452 0.19216
C_ C_ 0.142327 0.566415 0.706725 -0.19675
C_ C_ 0.367579 0.535102 0.700617 -0.19675
C_ C_ 0.168145 0.54418 0.718381 0.08851
C_ C_ 0.400374 0.520808 0.694589 0.08851
C_ C_ 0.177708 0.551793 0.758081 -0.19675
C_ C_ 0.435063 0.553204 0.715119 -0.19675
C_ C_ 0.167447 0.587694 0.783605 0.19216
C_ C_ 0.434556 0.594546 0.740538 0.19216
C_ C_ 0.0669036 0.75479 0.824439 0.04924
C_ C_ 0.324173 0.766373 0.811159 0.04924
C_ C_ 0.0604424 0.699391 0.815383 -0.19469
C_ C_ 0.319712 0.709148 0.803201 -0.19469
C_ C_ 0.0346994 0.679564 0.849131 -0.19469
C_ C_ 0.29045 0.687991 0.831776 -0.19469
C_ C_ 0.270227 0.727682 0.839903 0.04924
C_ C_ 0.510176 0.723362 0.845599 0.04924
C_ C_ 0.0644548 0.783211 0.793187 0.65653
C_ C_ 0.315965 0.788914 0.775121 0.65653
C_ C_ 0.0929295 0.680543 0.803309 0.65653
C_ C_ 0.351642 0.689329 0.795661 0.65653
C_ C_ 0.0466828 0.673698 0.888354 0.65653
C_ C_ 0.306695 0.680651 0.870225 0.65653
C_ C_ 0.235796 0.720048 0.813465 0.65653
C_ C_ 0.476885 0.716699 0.816376 0.65653
C_ C_ 0.134616 0.918328 0.872885 0.19216
C_ C_ 0.423558 0.928027 0.870218 0.19216
C_ C_ 0.146401 0.966453 0.893745 -0.19675
C_ C_ 0.427856 0.975322 0.89372 -0.19675
C_ C_ 0.125606 0.977724 0.925726 0.08851
C_ C_ 0.399218 0.981591 0.919626 0.08851
C_ C_ 0.0916521 0.939928 0.931116 -0.19675
C_ C_ 0.365841 0.941699 0.91979 -0.19675
C_ C_ 0.0794122 0.895124 0.90553 0.19216
C_ C_ 0.361235 0.89435 0.897477 0.19216
C_ C_ 0.192931 0.595635 0.970969 0.19216
C_ C_ 0.426756 0.610222 0.961956 0.19216
C_ C_ 0.185603 0.548074 0.948839 -0.19675
C_ C_ 0.417993 0.563335 0.938106 -0.19675
C_ C_ 0.147354 0.517729 0.940124 0.08851
C_ C_ 0.386488 0.523929 0.944121 0.08851
C_ C_ 0.117919 0.533814 0.95385 -0.19675
C_ C_ 0.363139 0.533806 0.97515 -0.19675
C_ C_ 0.12701 0.580001 0.976874 0.19216
C_ C_ 0.37268 0.579616 0.997669 0.19216
C_ C_ 0.197006 0.744179 0.927638 0.04924
C_ C_ 0.44619 0.756017 0.942764 0.04924
C_ C_ 0.218494 0.800436 0.941918 -0.19469
C_ C_ 0.470403 0.811899 0.95344 -0.19469
C_ C_ 0.198565 0.82436 0.916279 -0.19469
C_ C_ 0.453665 0.838909 0.925289 -0.19469
C_ C_ 0.158318 0.785664 0.905009 0.04924
C_ C_ 0.412668 0.798675 0.916143 0.04924
C_ C_ 0.180485 0.710786 0.956878 0.65653
C_ C_ 0.423731 0.723453 0.970364 0.65653
C_ C_ 0.26067 0.822207 0.94385 0.65653
C_ C_ 0.513378 0.830394 0.957783 0.65653
C_ C_ 0.216606 0.835745 0.878044 0.65653
C_ C_ 0.477027 0.848333 0.888715 0.65653
C_ C_ 0.130117 0.786393 0.935092 0.65653
C_ C_ 0.378973 0.802371 0.942235 0.65653
C_ C_ 0.0589155 0.549157 0.839379 0.19216
C_ C_ 0.373555 0.622996 0.859888 0.19216
C_ C_ 0.0659702 0.524294 0.80458 -0.19675
C_ C_ 0.372167 0.582991 0.830769 -0.19675
C_ C_ 0.0566888 0.473568 0.798035 0.08851
C_ C_ 0.349782 0.534816 0.833655 0.08851
C_ C_ 0.0351381 0.447778 0.82555 -0.19675
C_ C_ 0.32583 0.528173 0.86715 -0.19675
C_ C_ 0.0289648 0.472569 0.861285 0.19216
C_ C_ 0.327259 0.57009 0.89448 0.19216
C_ C_ 0.132835 0.92028 0.77894 0.19216
C_ C_ 0.363583 0.8949 0.763094 0.19216
C_ C_ 0.136481 0.96757 0.799372 -0.19675
C_ C_ 0.355364 0.930344 0.79003 -0.19675
C_ C_ 0.104335 0.981288 0.806259 0.08851
C_ C_ 0.330347 0.952607 0.777489 0.08851
C_ C_ 0.0701677 0.948968 0.788978 -0.19675
C_ C_ 0.313109 0.937954 0.73908 -0.19675
C_ C_ 0.0674665 0.905002 0.76396 0.19216
C_ C_ 0.322447 0.903682 0.714005 0.19216
N_ N_ 0.117573 0.618778 0.631063 -0.35746
N_ N_ 0.38615 0.608195 0.62973 -0.35746
N_ N_ 0.0952652 0.885328 0.50069 -0.35746
N_ N_ 0.33944 0.890166 0.511116 -0.35746
N_ N_ 0.138541 0.884441 0.610588 -0.35746
N_ N_ 0.456147 0.967341 0.62546 -0.35746
N_ N_ 0.150235 0.615272 0.768894 -0.35746
N_ N_ 0.404292 0.611243 0.743262 -0.35746
N_ N_ 0.100066 0.885791 0.874278 -0.35746
N_ N_ 0.389289 0.891233 0.871451 -0.35746
N_ N_ 0.163338 0.608046 0.987543 -0.35746
N_ N_ 0.405735 0.61493 -0.006739999999999968 -0.35746
N_ N_ 0.0432252 0.523021 0.867742 -0.35746
N_ N_ 0.353103 0.615825 0.891416 -0.35746
N_ N_ 0.0993452 0.891876 0.758255 -0.35746
N_ N_ 0.34563 0.881621 0.727635 -0.35746
O_ O_ 0.198245 0.733361 0.657676 -0.2869
O_ O_ 0.466391 0.732698 0.653964 -0.2869
O_ O_ 0.0386124 0.668734 0.703601 -0.71937
O_ O_ 0.263165 0.670109 0.713746 -0.71937
O_ O_ 0.196957 0.683754 0.717343 -0.57331
O_ O_ 0.464571 0.686191 0.71681 -0.57331
O_ O_ 0.15871 0.721725 0.750487 -0.57331
O_ O_ 0.412977 0.706723 0.738217 -0.57331
O_ O_ 0.118707 0.795358 0.70212 -0.57331
O_ O_ 0.379823 0.796691 0.68482 -0.57331
O_ O_ 0.162921 0.871681 0.714175 -0.64513
O_ O_ 0.418674 0.852673 0.732424 -0.64513
O_ O_ 0.163994 0.790872 0.614069 -0.57331
O_ O_ 0.418465 0.827794 0.621695 -0.57331
O_ O_ 0.214076 0.859199 0.609851 -0.64513
O_ O_ 0.471606 0.824545 0.592824 -0.64513
O_ O_ 0.0481381 0.830232 0.696649 -0.57331
O_ O_ 0.298901 0.809105 0.664616 -0.57331
O_ O_ 0.0327167 0.750309 0.70143 -0.57331
O_ O_ 0.266947 0.751706 0.700524 -0.57331
O_ O_ 0.0828215 0.747021 0.590172 -0.2869
O_ O_ 0.332231 0.756751 0.601906 -0.2869
O_ O_ 0.184781 0.807661 0.534384 -0.71937
O_ O_ 0.418905 0.834857 0.553419 -0.71937
O_ O_ 0.112371 0.801373 0.533291 -0.57331
O_ O_ 0.356586 0.814772 0.545636 -0.57331
O_ O_ 0.0562803 0.778614 0.501951 -0.57331
O_ O_ 0.299877 0.781244 0.512011 -0.57331
O_ O_ 0.214015 0.709145 0.551813 -0.57331
O_ O_ 0.467356 0.685827 0.560173 -0.57331
O_ O_ 0.972127 0.623323 0.543181 -0.64513
O_ O_ 0.21653 0.635238 0.560139 -0.64513
O_ O_ 0.0352618 0.698046 0.642249 -0.57331
O_ O_ 0.246563 0.670092 0.636937 -0.57331
O_ O_ 0.0105225 0.615498 0.62282 -0.64513
O_ O_ 0.289911 0.630742 0.644452 -0.64513
O_ O_ 0.122938 0.651469 0.540891 -0.57331
O_ O_ 0.376047 0.663703 0.56077 -0.57331
O_ O_ 0.147698 0.731966 0.545516 -0.57331
O_ O_ 0.39028 0.744831 0.555363 -0.57331
O_ O_ 0.0424259 0.763432 0.854969 -0.2869
O_ O_ 0.298898 0.773649 0.839967 -0.2869
O_ O_ 0.226468 0.826203 0.786967 -0.71937
O_ O_ 0.474907 0.833583 0.799255 -0.71937
O_ O_ 0.042402 0.811652 0.794255 -0.57331
O_ O_ 0.297132 0.821695 0.779834 -0.57331
O_ O_ 0.0880771 0.784151 0.765895 -0.57331
O_ O_ 0.333533 0.781823 0.742953 -0.57331
O_ O_ 0.127496 0.705003 0.817448 -0.57331
O_ O_ 0.385976 0.715804 0.794822 -0.57331
O_ O_ 0.0854159 0.640128 0.777238 -0.64513
O_ O_ 0.341656 0.640844 0.789218 -0.64513
O_ O_ 0.0759991 0.658793 0.890563 -0.57331
O_ O_ 0.334818 0.716377 0.888747 -0.57331
O_ O_ 0.0188188 0.660037 0.911825 -0.64513
O_ O_ 0.281594 0.65075 0.889304 -0.64513
O_ O_ 0.205026 0.686472 0.818584 -0.57331
O_ O_ 0.448819 0.675427 0.811298 -0.57331
O_ O_ 0.232707 0.7542 0.794571 -0.57331
O_ O_ 0.476619 0.753135 0.796919 -0.57331
O_ O_ 0.167931 0.741766 0.900313 -0.2869
O_ O_ 0.42134 0.75422 0.91154 -0.2869
O_ O_ 0.0871446 0.668688 0.961893 -0.71937
O_ O_ 0.320526 0.696304 0.962146 -0.71937
O_ O_ 0.146974 0.676682 0.949959 -0.57331
O_ O_ 0.388311 0.693072 0.964428 -0.57331
O_ O_ 0.200223 0.710285 0.986501 -0.57331
O_ O_ 0.442419 0.722874 0.00151192 -0.57331
O_ O_ 0.029926 0.802489 0.949069 -0.57331
O_ O_ 0.282402 0.79597 0.94956 -0.57331
O_ O_ 0.275668 0.869759 0.947977 -0.64513
O_ O_ 0.529001 0.875809 0.972901 -0.64513
O_ O_ 0.237388 0.809894 0.862029 -0.57331
O_ O_ 0.478959 0.811444 0.863757 -0.57331
O_ O_ 0.213656 0.872661 0.862753 -0.64513
O_ O_ 0.494733 0.892258 0.881731 -0.64513
O_ O_ 0.115631 0.822904 0.941561 -0.57331
O_ O_ 0.369005 0.843069 0.952473 -0.57331
O_ O_ 0.117598 0.751532 0.954385 -0.57331
O_ O_ 0.365049 0.767471 0.96208 -0.57331
Zn Zn 0.750567 0.194951 0.178427 0.88731
Zn Zn 0.987715 0.187746 0.18305 0.88731
Zn Zn 0.661988 0.168267 0.271745 0.96553
Zn Zn 0.911747 0.189031 0.285294 0.96553
Zn Zn 0.645132 0.316623 0.0716822 0.88731
Zn Zn 0.892001 0.299891 0.0600024 0.88731
Zn Zn 0.570859 0.322562 0.479789 0.96553
Zn Zn 0.821878 0.317214 0.46774 0.96553
Zn Zn 0.508823 0.306668 0.314295 0.88731
Zn Zn 0.745771 0.310584 0.316814 0.88731
Zn Zn 0.589884 0.317486 0.209322 0.96553
Zn Zn 0.838193 0.327553 0.217114 0.96553
Zn Zn 0.599762 0.191331 0.430265 0.88731
Zn Zn 0.861038 0.196701 0.425494 0.88731
Zn Zn 0.67155 0.180623 0.0324048 0.96553
Zn Zn 0.926216 0.174354 0.0161829 0.96553
H_ H_ 0.539461 0.190513 0.207581 0.44417
H_ H_ 0.764635 0.146733 0.204859 0.44417
H_ H_ 0.510509 0.188499 0.238982 0.44417
H_ H_ 0.798108 0.19724 0.20915 0.44417
H_ H_ 0.660813 0.219083 0.168221 0.33755
H_ H_ 0.894482 0.214789 0.169246 0.33755
H_ H_ 0.709398 0.307536 0.220942 0.33755
H_ H_ 0.942516 0.306719 0.217524 0.33755
H_ H_ 0.4747 0.363438 0.17477 0.33755
H_ H_ 0.737076 0.357145 0.169425 0.33755
H_ H_ 0.492632 0.28676 0.128192 0.33755
H_ H_ 0.756493 0.283131 0.120519 0.33755
H_ H_ 0.577473 0.10654 0.129214 0.33755
H_ H_ 0.811407 0.0829292 0.140681 0.33755
H_ H_ 0.560416 0.0295753 0.0816563 0.33755
H_ H_ 0.796742 1.00556141 0.0969149 0.33755
H_ H_ 0.681494 0.0474071 0.0765351 0.33755
H_ H_ 0.912902 0.0614885 0.053469 0.33755
H_ H_ 0.694598 0.132075 0.115512 0.33755
H_ H_ 0.920644 0.133571 0.0985223 0.33755
H_ H_ 0.523284 0.384648 0.023335 0.33755
H_ H_ 0.778499 0.371575 0.0309673 0.33755
H_ H_ 0.53622 0.468888 0.0582241 0.33755
H_ H_ 0.80151 0.441261 0.0855125 0.33755
H_ H_ 0.656093 0.49408 0.0493664 0.33755
H_ H_ 0.909863 0.480951 0.0335576 0.33755
H_ H_ 0.636366 0.402129 0.506056 0.33755
H_ H_ 0.887909 0.410732 0.476634 0.33755
H_ H_ 0.682042 0.373481 0.0440671 0.44417
H_ H_ 0.931117 0.341317 0.0256045 0.44417
H_ H_ 0.688466 0.321835 0.0369668 0.44417
H_ H_ 0.946062 0.298315 0.038042 0.44417
H_ H_ 0.543779 0.29059 0.0871666 0.33755
H_ H_ 0.787909 0.268874 0.065116 0.33755
H_ H_ 0.537452 0.198347 0.03153 0.33755
H_ H_ 0.780321 0.179845 0.0154457 0.33755
H_ H_ 0.557631 0.157374 0.079934 0.33755
H_ H_ 0.802225 0.130091 0.0645235 0.33755
H_ H_ 0.60808 0.225565 0.126482 0.33755
H_ H_ 0.85443 0.205304 0.10911 0.33755
H_ H_ 0.681436 0.406403 0.153859 0.33755
H_ H_ 0.851524 0.355423 0.136761 0.33755
H_ H_ 0.660243 0.449363 0.211615 0.33755
H_ H_ 0.849292 0.426049 0.186327 0.33755
H_ H_ 0.719241 0.587374 0.174839 0.33755
H_ H_ 0.955286 0.514096 0.14704 0.33755
H_ H_ 0.727254 0.543007 0.112915 0.33755
H_ H_ 0.95524 0.441326 0.0995667 0.33755
H_ H_ 0.596274 0.0875239 0.22227 0.33755
H_ H_ 0.868576 0.128351 0.218344 0.33755
H_ H_ 0.59156 0.00295211 0.192932 0.33755
H_ H_ 0.868591 0.0511839 0.174429 0.33755
H_ H_ 0.712333 0.033347 0.207266 0.33755
H_ H_ 0.952306 0.0421093 0.254414 0.33755
H_ H_ 0.713171 0.113096 0.250286 0.33755
H_ H_ 0.927784 0.0925361 0.306181 0.33755
H_ H_ 0.72013 0.355048 0.290541 0.44417
H_ H_ 0.968426 0.324467 0.292937 0.44417
H_ H_ 0.691226 0.299627 0.288436 0.44417
H_ H_ 0.00199957 0.33823 0.265147 0.44417
H_ H_ 0.606903 0.270599 0.317689 0.33755
H_ H_ 0.842751 0.286202 0.322813 0.33755
H_ H_ 0.557988 0.184145 0.276534 0.33755
H_ H_ 0.789662 0.195384 0.277213 0.33755
H_ H_ 0.757965 0.151736 0.330404 0.33755
H_ H_ 0.0151115 0.137905 0.314052 0.33755
H_ H_ 0.746324 0.227223 0.370725 0.33755
H_ H_ 0.00863083 0.217933 0.368445 0.33755
H_ H_ 0.685974 0.411327 0.344789 0.33755
H_ H_ 0.906948 0.397359 0.367319 0.33755
H_ H_ 0.700328 0.496309 0.38113 0.33755
H_ H_ 0.926367 0.480889 0.405646 0.33755
H_ H_ 0.597657 0.444247 0.443176 0.33755
H_ H_ 0.80757 0.459494 0.432184 0.33755
H_ H_ 0.588186 0.362408 0.410581 0.33755
H_ H_ 0.790649 0.375319 0.392701 0.33755
H_ H_ 0.706073 0.135369 0.457761 0.33755
H_ H_ 0.978358 0.110951 0.481244 0.33755
H_ H_ 0.677227 0.0605486 0.408807 0.33755
H_ H_ 0.967504 0.0415782 0.428637 0.33755
H_ H_ 0.585061 0.00985098 0.477014 0.33755
H_ H_ 0.845788 0.0154901 0.437878 0.33755
H_ H_ 0.600874 0.0857042 0.021809 0.33755
H_ H_ 0.863202 0.103144 0.978596 0.33755
H_ H_ 0.566833 0.15574 0.472406 0.44417
H_ H_ 0.812237 0.144936 0.444408 0.44417
H_ H_ 0.546819 0.188715 0.455674 0.44417
H_ H_ 0.83538 0.187991 0.478876 0.44417
H_ H_ 0.703543 0.220411 0.425116 0.33755
H_ H_ 0.961236 0.224172 0.417052 0.33755
H_ H_ 0.708916 0.314936 0.479809 0.33755
H_ H_ 0.956487 0.315666 0.47138 0.33755
H_ H_ 0.695282 0.363325 0.434408 0.33755
H_ H_ 0.948136 0.363562 0.426236 0.33755
H_ H_ 0.6346 0.291849 0.390383 0.33755
H_ H_ 0.898895 0.293286 0.376129 0.33755
H_ H_ 0.647957 0.150338 0.359988 0.33755
H_ H_ 0.832022 0.104685 0.3503 0.33755
H_ H_ 0.652705 0.0840578 0.311214 0.33755
H_ H_ 0.838041 0.0596932 0.287851 0.33755
H_ H_ 0.554976 0.987313 0.356011 0.33755
H_ H_ 0.772762 0.922998 0.329459 0.33755
H_ H_ 0.554663 0.0614195 0.404991 0.33755
H_ H_ 0.769867 0.974535 0.390567 0.33755
H_ H_ 0.638845 0.388257 0.281959 0.33755
H_ H_ 0.900823 0.397657 0.267187 0.33755
H_ H_ 0.622689 0.453596 0.324716 0.33755
H_ H_ 0.910659 0.478921 0.312459 0.33755
H_ H_ 0.536599 0.445495 0.238583 0.33755
H_ H_ 0.795308 0.467136 0.28297 0.33755
H_ H_ 0.570321 0.400487 0.19198 0.33755
H_ H_ 0.789545 0.386426 0.241765 0.33755
C_ C_ 0.689597 0.239645 0.178991 0.04924
C_ C_ 0.923932 0.235105 0.177854 0.04924
C_ C_ 0.692981 0.295449 0.191965 -0.19469
C_ C_ 0.932286 0.292163 0.187086 -0.19469
C_ C_ 0.719714 0.318318 0.159512 -0.19469
C_ C_ 0.960897 0.311048 0.155521 -0.19469
C_ C_ 0.479893 0.286737 0.156773 0.04924
C_ C_ 0.743002 0.282216 0.149517 0.04924
C_ C_ 0.69074 0.212596 0.211166 0.65653
C_ C_ 0.930095 0.215601 0.214926 0.65653
C_ C_ 0.660391 0.314571 0.202685 0.65653
C_ C_ 0.900344 0.31313 0.189815 0.65653
C_ C_ 0.703858 0.323794 0.12219 0.65653
C_ C_ 0.943852 0.319334 0.119069 0.65653
C_ C_ 0.513192 0.293595 0.184156 0.65653
C_ C_ 0.778239 0.288387 0.172613 0.65653
C_ C_ 0.600004 0.0924377 0.118989 0.19216
C_ C_ 0.83252 0.0790703 0.119433 0.19216
C_ C_ 0.590838 0.0471398 0.0930699 -0.19675
C_ C_ 0.82566 0.032938 0.0963741 -0.19675
C_ C_ 0.620363 0.0259205 0.0836687 0.08851
C_ C_ 0.8527 0.0218284 0.0704925 0.08851
C_ C_ 0.65844 0.0572417 0.0920124 -0.19675
C_ C_ 0.888412 0.06061 0.0725024 -0.19675
C_ C_ 0.66648 0.105833 0.111668 0.19216
C_ C_ 0.893974 0.106362 0.0969498 0.19216
C_ C_ 0.552325 0.406016 0.0315715 0.19216
C_ C_ 0.808337 0.3923 0.0349033 0.19216
C_ C_ 0.560398 0.454831 0.0528437 -0.19675
C_ C_ 0.818788 0.43658 0.0603433 -0.19675
C_ C_ 0.598632 0.484664 0.0641594 0.08851
C_ C_ 0.853705 0.472488 0.057713 0.08851
C_ C_ 0.627374 0.470197 0.0456313 -0.19675
C_ C_ 0.880262 0.458425 0.0312806 -0.19675
C_ C_ 0.618697 0.42687 0.0188579 0.19216
C_ C_ 0.867011 0.41582 0.00420795 0.19216
C_ C_ 0.561789 0.270725 0.0708153 0.04924
C_ C_ 0.80272 0.244593 0.0556619 0.04924
C_ C_ 0.534169 0.213559 0.0614127 -0.19469
C_ C_ 0.777884 0.190215 0.047119 -0.19469
C_ C_ 0.553938 0.193239 0.0910159 -0.19469
C_ C_ 0.798506 0.165803 0.0745935 -0.19469
C_ C_ 0.594917 0.226392 0.0983728 0.04924
C_ C_ 0.8388 0.209091 0.0825275 0.04924
C_ C_ 0.577342 0.299183 0.0381592 0.65653
C_ C_ 0.821098 0.272574 0.0225234 0.65653
C_ C_ 0.492301 0.197497 0.0586769 0.65653
C_ C_ 0.735795 0.173834 0.0459867 0.65653
C_ C_ 0.535294 0.185178 0.128872 0.65653
C_ C_ 0.777139 0.15514 0.111432 0.65653
C_ C_ 0.624385 0.221542 0.0690584 0.65653
C_ C_ 0.869668 0.205315 0.0542812 0.65653
C_ C_ 0.688934 0.445376 0.159728 0.19216
C_ C_ 0.871623 0.392554 0.137844 0.19216
C_ C_ 0.676959 0.470575 0.191523 -0.19675
C_ C_ 0.872034 0.431561 0.167545 -0.19675
C_ C_ 0.68525 0.521106 0.197014 0.08851
C_ C_ 0.901648 0.478759 0.171688 0.08851
C_ C_ 0.705896 0.547593 0.169208 -0.19675
C_ C_ 0.93096 0.4832 0.145632 -0.19675
C_ C_ 0.715262 0.521677 0.13605 0.19216
C_ C_ 0.930319 0.442059 0.117598 0.19216
C_ C_ 0.621204 0.0740512 0.220771 0.19216
C_ C_ 0.880898 0.104064 0.228389 0.19216
C_ C_ 0.61993 0.0306371 0.198975 -0.19675
C_ C_ 0.884288 0.064403 0.20262 -0.19675
C_ C_ 0.651068 0.0137396 0.195891 0.08851
C_ C_ 0.911191 0.0422378 0.211237 0.08851
C_ C_ 0.6843 0.0410399 0.216621 -0.19675
C_ C_ 0.9286 0.0548041 0.248394 -0.19675
C_ C_ 0.685412 0.0854081 0.240324 0.19216
C_ C_ 0.920882 0.0911412 0.274947 0.19216
C_ C_ 0.574389 0.253517 0.310525 0.04924
C_ C_ 0.8132 0.266449 0.314349 0.04924
C_ C_ 0.567461 0.198821 0.305724 -0.19469
C_ C_ 0.807037 0.210137 0.306158 -0.19469
C_ C_ 0.535633 0.178931 0.333408 -0.19469
C_ C_ 0.780011 0.188245 0.337539 -0.19469
C_ C_ 0.75977 0.224935 0.34206 0.04924
C_ C_ 0.0190498 0.218913 0.337927 0.04924
C_ C_ 0.566638 0.280781 0.278783 0.65653
C_ C_ 0.808189 0.292393 0.282136 0.65653
C_ C_ 0.597052 0.17389 0.299721 0.65653
C_ C_ 0.838988 0.189715 0.294174 0.65653
C_ C_ 0.55572 0.169499 0.367906 0.65653
C_ C_ 0.797766 0.184799 0.374801 0.65653
C_ C_ 0.726461 0.216312 0.314766 0.65653
C_ C_ 0.984845 0.21786 0.312189 0.65653
C_ C_ 0.667055 0.419229 0.367505 0.19216
C_ C_ 0.885003 0.411994 0.381854 0.19216
C_ C_ 0.675449 0.468675 0.390236 -0.19675
C_ C_ 0.896731 0.460693 0.401232 -0.19675
C_ C_ 0.648385 0.481015 0.414622 0.08851
C_ C_ 0.869215 0.478467 0.421651 0.08851
C_ C_ 0.617724 0.43962 0.422333 -0.19675
C_ C_ 0.829626 0.446105 0.419996 -0.19675
C_ C_ 0.611558 0.392136 0.400972 0.19216
C_ C_ 0.81874 0.401212 0.393796 0.19216
C_ C_ 0.677224 0.108914 0.461168 0.19216
C_ C_ 0.949127 0.0929601 0.469615 0.19216
C_ C_ 0.666444 0.0623307 0.435977 -0.19675
C_ C_ 0.942551 0.0474492 0.444514 -0.19675
C_ C_ 0.634056 0.022784 0.442693 0.08851
C_ C_ 0.905228 0.0204396 0.43307 0.08851
C_ C_ 0.613198 0.0329649 0.47358 -0.19675
C_ C_ 0.87493 0.0360489 0.445779 -0.19675
C_ C_ 0.625028 0.0799996 0.498817 0.19216
C_ C_ 0.883508 0.0813444 0.472135 0.19216
C_ C_ 0.687203 0.245195 0.436646 0.04924
C_ C_ 0.944488 0.247492 0.428135 0.04924
C_ C_ 0.711699 0.300443 0.449106 -0.19469
C_ C_ 0.965092 0.302842 0.441824 -0.19469
C_ C_ 0.692581 0.324054 0.421227 -0.19469
C_ C_ 0.949432 0.327172 0.411021 -0.19469
C_ C_ 0.652278 0.286077 0.414364 0.04924
C_ C_ 0.909107 0.287059 0.403244 0.04924
C_ C_ 0.67192 0.218166 0.467763 0.65653
C_ C_ 0.928491 0.215323 0.458581 0.65653
C_ C_ 0.755423 0.316865 0.450849 0.65653
C_ C_ 0.00723769 0.320032 0.44522 0.65653
C_ C_ 0.712648 0.331468 0.382807 0.65653
C_ C_ 0.970477 0.335537 0.373257 0.65653
C_ C_ 0.622645 0.288839 0.445954 0.65653
C_ C_ 0.875237 0.287526 0.427819 0.65653
C_ C_ 0.635265 0.112528 0.363447 0.19216
C_ C_ 0.816896 0.0661049 0.343325 0.19216
C_ C_ 0.634769 0.0753489 0.333903 -0.19675
C_ C_ 0.825392 0.0380156 0.310275 -0.19675
C_ C_ 0.606854 0.0287626 0.330252 0.08851
C_ C_ 0.809475 0.986245 0.303792 0.08851
C_ C_ 0.578773 0.0210341 0.35817 -0.19675
C_ C_ 0.786938 0.962758 0.333798 -0.19675
C_ C_ 0.579471 0.0590339 0.388855 0.19216
C_ C_ 0.78531 0.992022 0.368405 0.19216
C_ C_ 0.615024 0.39945 0.272687 0.19216
C_ C_ 0.880142 0.417746 0.268732 0.19216
C_ C_ 0.606607 0.437403 0.296999 -0.19675
C_ C_ 0.884224 0.461417 0.295605 -0.19675
C_ C_ 0.577163 0.452496 0.285778 0.08851
C_ C_ 0.855201 0.482746 0.300755 0.08851
C_ C_ 0.562395 0.439154 0.247844 -0.19675
C_ C_ 0.820508 0.457206 0.278501 -0.19675
C_ C_ 0.577973 0.408112 0.222519 0.19216
C_ C_ 0.816908 0.411466 0.253084 0.19216
N_ N_ 0.636272 0.120278 0.124287 -0.35746
N_ N_ 0.866443 0.113506 0.119229 -0.35746
N_ N_ 0.580376 0.399755 0.0083934 -0.35746
N_ N_ 0.831773 0.382681 0.00704166 -0.35746
N_ N_ 0.703987 0.470687 0.130423 -0.35746
N_ N_ 0.898511 0.403727 0.110076 -0.35746
N_ N_ 0.654644 0.101391 0.239742 -0.35746
N_ N_ 0.898489 0.114923 0.263988 -0.35746
N_ N_ 0.635393 0.383131 0.372968 -0.35746
N_ N_ 0.846646 0.386023 0.375929 -0.35746
N_ N_ 0.657309 0.114627 0.493057 -0.35746
N_ N_ 0.920683 0.107949 0.483178 -0.35746
N_ N_ 0.61035 0.101557 0.392863 -0.35746
N_ N_ 0.799119 0.042415 0.373591 -0.35746
N_ N_ 0.597674 0.383233 0.236075 -0.35746
N_ N_ 0.845912 0.393512 0.24962 -0.35746
O_ O_ 0.713978 0.235652 0.148201 -0.2869
O_ O_ 0.947959 0.225263 0.148015 -0.2869
O_ O_ 0.519289 0.191268 0.216992 -0.71937
O_ O_ 0.776542 0.176055 0.202806 -0.71937
O_ O_ 0.71371 0.186598 0.211341 -0.57331
O_ O_ 0.951543 0.187291 0.213528 -0.57331
O_ O_ 0.664809 0.2081 0.236695 -0.57331
O_ O_ 0.907409 0.216076 0.243085 -0.57331
O_ O_ 0.626924 0.291406 0.184431 -0.57331
O_ O_ 0.86576 0.285704 0.19358 -0.57331
O_ O_ 0.665956 0.356773 0.225275 -0.64513
O_ O_ 0.909271 0.361114 0.202584 -0.64513
O_ O_ 0.670925 0.331318 0.121317 -0.57331
O_ O_ 0.908394 0.298475 0.108323 -0.57331
O_ O_ 0.73145 0.348389 0.10164 -0.64513
O_ O_ 0.967086 0.353302 0.10173 -0.64513
O_ O_ 0.547133 0.312353 0.171903 -0.57331
O_ O_ 0.802515 0.331785 0.181115 -0.57331
O_ O_ 0.509717 0.266373 0.210458 -0.57331
O_ O_ 0.779009 0.259608 0.196159 -0.57331
O_ O_ 0.590241 0.272748 0.0999983 -0.2869
O_ O_ 0.829087 0.251496 0.0855961 -0.2869
O_ O_ 0.67777 0.342943 0.0450047 -0.71937
O_ O_ 0.931758 0.317276 0.03676 -0.71937
O_ O_ 0.611922 0.329862 0.0394875 -0.57331
O_ O_ 0.854615 0.305532 0.0286277 -0.57331
O_ O_ 0.553754 0.296842 0.0101783 -0.57331
O_ O_ 0.797938 0.281748 1.000334841 -0.57331
O_ O_ 0.718086 0.206796 0.0541852 -0.57331
O_ O_ 0.966651 0.213947 0.0500411 -0.57331
O_ O_ 0.472272 0.150995 0.0617352 -0.64513
O_ O_ 0.716781 0.128121 0.0451095 -0.64513
O_ O_ 0.509973 0.206038 0.140185 -0.57331
O_ O_ 0.776951 0.193756 0.136337 -0.57331
O_ O_ 0.535396 0.147116 0.144409 -0.64513
O_ O_ 0.761864 0.109565 0.120644 -0.64513
O_ O_ 0.634539 0.18312 0.0654831 -0.57331
O_ O_ 0.877233 0.164649 0.0413623 -0.57331
O_ O_ 0.640578 0.256868 0.0485908 -0.57331
O_ O_ 0.886728 0.241586 0.0362588 -0.57331
O_ O_ 0.555692 0.263866 0.343555 -0.2869
O_ O_ 0.786487 0.270763 0.341475 -0.2869
O_ O_ 0.712024 0.324638 0.293379 -0.71937
O_ O_ 0.990678 0.330857 0.285384 -0.71937
O_ O_ 0.557429 0.321644 0.28973 -0.57331
O_ O_ 0.784691 0.318372 0.283848 -0.57331
O_ O_ 0.583511 0.274951 0.246331 -0.57331
O_ O_ 0.828675 0.288181 0.253102 -0.57331
O_ O_ 0.632894 0.200387 0.305035 -0.57331
O_ O_ 0.874547 0.214082 0.309657 -0.57331
O_ O_ 0.588042 0.126675 0.285438 -0.64513
O_ O_ 0.831525 0.146353 0.272221 -0.64513
O_ O_ 0.578937 0.207781 0.390994 -0.57331
O_ O_ 0.834146 0.186722 0.377529 -0.57331
O_ O_ 0.537599 0.132009 0.385533 -0.64513
O_ O_ 0.773427 0.163145 0.398127 -0.64513
O_ O_ 0.701248 0.173685 0.304966 -0.57331
O_ O_ 0.951252 0.186587 0.316284 -0.57331
O_ O_ 0.725811 0.250002 0.294956 -0.57331
O_ O_ 0.986235 0.254607 0.293244 -0.57331
O_ O_ 0.659863 0.241175 0.405582 -0.2869
O_ O_ 0.916447 0.240997 0.39931 -0.2869
O_ O_ 0.561013 0.172084 0.456604 -0.71937
O_ O_ 0.830589 0.169838 0.456421 -0.71937
O_ O_ 0.63549 0.191398 0.468238 -0.57331
O_ O_ 0.896238 0.179363 0.451791 -0.57331
O_ O_ 0.693951 0.221783 0.497079 -0.57331
O_ O_ 0.950828 0.217088 0.487658 -0.57331
O_ O_ 0.523354 0.284461 0.44993 -0.57331
O_ O_ 0.773533 0.286788 0.442576 -0.57331
O_ O_ 0.774565 0.364237 0.463822 -0.64513
O_ O_ 0.0241228 0.367939 0.448892 -0.64513
O_ O_ 0.721151 0.297539 0.360322 -0.57331
O_ O_ -0.0038690000000000113 0.315274 0.363302 -0.57331
O_ O_ 0.724781 0.375588 0.374679 -0.64513
O_ O_ 0.961047 0.362637 0.352013 -0.64513
O_ O_ 0.614712 0.326885 0.457235 -0.57331
O_ O_ 0.863136 0.325622 0.432772 -0.57331
O_ O_ 0.60496 0.248689 0.461531 -0.57331
O_ O_ 0.859203 0.251604 0.445971 -0.57331
Zn Zn 0.749122 0.189511 0.678124 0.88731
Zn Zn 0.983417 0.185607 0.684508 0.88731
Zn Zn 0.660078 0.166586 0.773918 0.96553
Zn Zn 0.909351 0.187048 0.797452 0.96553
Zn Zn 0.640905 0.312108 0.575935 0.88731
Zn Zn 0.892793 0.291094 0.562091 0.88731
Zn Zn 0.5705 0.332708 0.973997 0.96553
Zn Zn 0.819246 0.32311 0.966809 0.96553
Zn Zn 0.521128 0.313618 0.814086 0.88731
Zn Zn 0.74065 0.303769 0.819126 0.88731
Zn Zn 0.587924 0.306954 0.707256 0.96553
Zn Zn 0.830247 0.325475 0.728225 0.96553
Zn Zn 0.599388 0.196945 0.935174 0.88731
Zn Zn 0.857872 0.192476 0.920292 0.88731
Zn Zn 0.674774 0.178515 0.531025 0.96553
Zn Zn 0.928174 0.172131 0.518284 0.96553
H_ H_ 0.532694 0.173827 0.705257 0.44417
H_ H_ 0.798645 0.189397 0.708536 0.44417
H_ H_ 0.498983 0.154482 0.731072 0.44417
H_ H_ 0.769055 0.135476 0.700876 0.44417
H_ H_ 0.658551 0.210049 0.66286 0.33755
H_ H_ 0.889753 0.218383 0.68406 0.33755
H_ H_ 0.705793 0.294441 0.714726 0.33755
H_ H_ 0.941819 0.314796 0.721475 0.33755
H_ H_ 0.484147 0.353918 0.672446 0.33755
H_ H_ 0.732219 0.348397 0.669945 0.33755
H_ H_ 0.492633 0.275234 0.625255 0.33755
H_ H_ 0.752393 0.280843 0.620117 0.33755
H_ H_ 0.575484 0.0886658 0.638238 0.33755
H_ H_ 0.818191 0.082455 0.650804 0.33755
H_ H_ 0.560722 0.0111923 0.588097 0.33755
H_ H_ 0.81219 0.00017000000000000348 0.613903 0.33755
H_ H_ 0.678452 0.0457409 0.567204 0.33755
H_ H_ 0.914172 0.0654139 0.560253 0.33755
H_ H_ 0.691163 0.124677 0.60793 0.33755
H_ H_ 0.927325 0.14577 0.610422 0.33755
H_ H_ 0.519534 0.386057 0.511657 0.33755
H_ H_ 0.791271 0.35477 0.539093 0.33755
H_ H_ 0.535792 0.467502 0.546562 0.33755
H_ H_ 0.816521 0.431648 0.588145 0.33755
H_ H_ 0.654265 0.474936 0.553269 0.33755
H_ H_ 0.907571 0.489924 0.518448 0.33755
H_ H_ 0.64051 0.409812 0.0098214 0.33755
H_ H_ 0.887068 0.405951 0.983379 0.33755
H_ H_ 0.68845 0.361869 0.558037 0.44417
H_ H_ 0.928868 0.338689 0.526851 0.44417
H_ H_ 0.666217 0.320784 0.52327 0.44417
H_ H_ 0.942658 0.295749 0.537038 0.44417
H_ H_ 0.538339 0.276763 0.583454 0.33755
H_ H_ 0.789719 0.260185 0.56673 0.33755
H_ H_ 0.540691 0.188842 0.531702 0.33755
H_ H_ 0.785197 0.165522 0.51681 0.33755
H_ H_ 0.554957 0.139701 0.577884 0.33755
H_ H_ 0.803269 0.125187 0.563821 0.33755
H_ H_ 0.603027 0.215008 0.624847 0.33755
H_ H_ 0.85086 0.195297 0.611937 0.33755
H_ H_ 0.700587 0.417408 0.64908 0.33755
H_ H_ 0.853254 0.355118 0.649767 0.33755
H_ H_ 0.669189 0.447592 0.701854 0.33755
H_ H_ 0.858139 0.431481 0.695614 0.33755
H_ H_ 0.724627 0.596214 0.677511 0.33755
H_ H_ 0.953191 0.508465 0.631496 0.33755
H_ H_ 0.752273 0.557473 0.620056 0.33755
H_ H_ 0.943049 0.426516 0.585946 0.33755
H_ H_ 0.598607 0.0847879 0.717071 0.33755
H_ H_ 0.867521 0.123457 0.727971 0.33755
H_ H_ 0.596352 1.00649065 0.68101 0.33755
H_ H_ 0.892078 0.0651753 0.683411 0.33755
H_ H_ 0.709441 0.0258268 0.717843 0.33755
H_ H_ 0.957374 0.0444768 0.779303 0.33755
H_ H_ 0.706161 0.101119 0.767621 0.33755
H_ H_ 0.927185 0.101056 0.824617 0.33755
H_ H_ 0.688613 0.290224 0.789662 0.44417
H_ H_ 0.958148 0.307355 0.793575 0.44417
H_ H_ 0.714352 0.346113 0.789041 0.44417
H_ H_ 0.987158 0.314809 0.758577 0.44417
H_ H_ 0.604178 0.268235 0.811661 0.33755
H_ H_ 0.833451 0.281424 0.83877 0.33755
H_ H_ 0.54845 0.177044 0.775295 0.33755
H_ H_ 0.78676 0.191979 0.784125 0.33755
H_ H_ 0.76008 0.141105 0.838352 0.33755
H_ H_ 0.0198162 0.141505 0.822328 0.33755
H_ H_ 0.733451 0.210428 0.875028 0.33755
H_ H_ 0.00990952 0.219948 0.870415 0.33755
H_ H_ 0.689936 0.413469 0.856807 0.33755
H_ H_ 0.924475 0.415534 0.856365 0.33755
H_ H_ 0.698042 0.496566 0.893058 0.33755
H_ H_ 0.939494 0.484264 0.909174 0.33755
H_ H_ 0.589706 0.43422 0.94473 0.33755
H_ H_ 0.82038 0.443596 0.932451 0.33755
H_ H_ 0.577862 0.356028 0.894169 0.33755
H_ H_ 0.807486 0.372113 0.885242 0.33755
H_ H_ 0.705998 0.134863 0.970906 0.33755
H_ H_ 0.977431 0.115194 0.980349 0.33755
H_ H_ 0.682842 0.0699689 0.914987 0.33755
H_ H_ 0.963551 0.0257545 0.952161 0.33755
H_ H_ 0.585644 0.00683051 0.980082 0.33755
H_ H_ 0.848842 0.0236684 0.930385 0.33755
H_ H_ 0.605272 0.087017 0.520389 0.33755
H_ H_ 0.860333 0.0990131 0.477449 0.33755
H_ H_ 0.568379 0.145921 0.965658 0.44417
H_ H_ 0.809532 0.143511 0.946362 0.44417
H_ H_ 0.548636 0.185244 0.961878 0.44417
H_ H_ 0.835925 0.186657 0.978684 0.44417
H_ H_ 0.711148 0.236498 0.930781 0.33755
H_ H_ 0.956763 0.221849 0.90716 0.33755
H_ H_ 0.713027 0.322552 0.982324 0.33755
H_ H_ 0.960364 0.315807 0.966348 0.33755
H_ H_ 0.694658 0.365197 0.932367 0.33755
H_ H_ 0.949628 0.365239 0.924092 0.33755
H_ H_ 0.640479 0.287885 0.888084 0.33755
H_ H_ 0.892296 0.295 0.875585 0.33755
H_ H_ 0.643574 0.153898 0.864273 0.33755
H_ H_ 0.817468 0.0865485 0.852077 0.33755
H_ H_ 0.652411 0.0887654 0.817294 0.33755
H_ H_ 0.831119 0.0511094 0.788721 0.33755
H_ H_ 0.545517 0.993911 0.849285 0.33755
H_ H_ 0.78363 0.907699 0.818279 0.33755
H_ H_ 0.548874 0.0564766 0.906556 0.33755
H_ H_ 0.770351 0.94983 0.886197 0.33755
H_ H_ 0.625704 0.359861 0.776447 0.33755
H_ H_ 0.894387 0.395161 0.767676 0.33755
H_ H_ 0.615359 0.42845 0.821736 0.33755
H_ H_ 0.907248 0.475008 0.809725 0.33755
H_ H_ 0.551333 0.454903 0.729666 0.33755
H_ H_ 0.799379 0.479531 0.771374 0.33755
H_ H_ 0.574769 0.395161 0.684417 0.33755
H_ H_ 0.783629 0.393056 0.738564 0.33755
C_ C_ 0.685579 0.229049 0.676414 0.04924
C_ C_ 0.922536 0.240505 0.68971 0.04924
C_ C_ 0.687924 0.283639 0.686758 -0.19469
C_ C_ 0.927814 0.296825 0.694044 -0.19469
C_ C_ 0.714036 0.309416 0.65769 -0.19469
C_ C_ 0.957509 0.313046 0.661642 -0.19469
C_ C_ 0.481146 0.278665 0.655645 0.04924
C_ C_ 0.739359 0.277261 0.649034 0.04924
C_ C_ 0.684405 0.200054 0.70807 0.65653
C_ C_ 0.928424 0.215078 0.723075 0.65653
C_ C_ 0.655996 0.299169 0.701707 0.65653
C_ C_ 0.894852 0.316356 0.698276 0.65653
C_ C_ 0.698482 0.319085 0.621869 0.65653
C_ C_ 0.940139 0.318271 0.625267 0.65653
C_ C_ 0.516844 0.283113 0.680973 0.65653
C_ C_ 0.774638 0.285935 0.674849 0.65653
C_ C_ 0.596658 0.0773117 0.621623 0.19216
C_ C_ 0.840839 0.0775976 0.631388 0.19216
C_ C_ 0.588723 0.0332112 0.595873 -0.19675
C_ C_ 0.838086 0.0296044 0.613325 -0.19675
C_ C_ 0.617976 0.0178288 0.579855 0.08851
C_ C_ 0.865877 0.0249172 0.586807 0.08851
C_ C_ 0.65538 0.0539803 0.583371 -0.19675
C_ C_ 0.896481 0.0671342 0.584494 -0.19675
C_ C_ 0.661636 0.101024 0.604663 0.19216
C_ C_ 0.901711 0.112135 0.608686 0.19216
C_ C_ 0.54896 0.402455 0.522066 0.19216
C_ C_ 0.816252 0.385635 0.534616 0.19216
C_ C_ 0.559074 0.452374 0.54057 -0.19675
C_ C_ 0.829562 0.42856 0.562446 -0.19675
C_ C_ 0.597658 0.476747 0.557505 0.08851
C_ C_ 0.86035 0.468753 0.555838 0.08851
C_ C_ 0.62486 0.455412 0.545716 -0.19675
C_ C_ 0.88226 0.462362 0.52493 -0.19675
C_ C_ 0.613997 0.411367 0.520222 0.19216
C_ C_ 0.87069 0.416046 0.500241 0.19216
C_ C_ 0.555012 0.255108 0.571497 0.04924
C_ C_ 0.808594 0.239225 0.554633 0.04924
C_ C_ 0.533988 0.199743 0.560556 -0.19469
C_ C_ 0.781645 0.182959 0.545797 -0.19469
C_ C_ 0.551162 0.176121 0.589035 -0.19469
C_ C_ 0.799273 0.159076 0.574552 -0.19469
C_ C_ 0.591475 0.216224 0.595408 0.04924
C_ C_ 0.840439 0.19718 0.584766 0.04924
C_ C_ 0.571674 0.282647 0.538334 0.65653
C_ C_ 0.825514 0.266461 0.523487 0.65653
C_ C_ 0.491361 0.181993 0.555921 0.65653
C_ C_ 0.739282 0.171304 0.543308 0.65653
C_ C_ 0.529104 0.164317 0.624096 0.65653
C_ C_ 0.776805 0.151206 0.611582 0.65653
C_ C_ 0.625023 0.212661 0.570315 0.65653
C_ C_ 0.871956 0.193266 0.554959 0.65653
C_ C_ 0.708147 0.457119 0.656946 0.19216
C_ C_ 0.87006 0.388651 0.642106 0.19216
C_ C_ 0.689453 0.475256 0.687192 -0.19675
C_ C_ 0.875143 0.432575 0.669111 -0.19675
C_ C_ 0.694177 0.52672 0.693525 0.08851
C_ C_ 0.90347 0.476912 0.663455 0.08851
C_ C_ 0.722222 0.557771 0.672592 -0.19675
C_ C_ 0.93022 0.475176 0.636012 -0.19675
C_ C_ 0.740862 0.538558 0.642491 0.19216
C_ C_ 0.923831 0.429306 0.608943 0.19216
C_ C_ 0.622589 0.0715831 0.721073 0.19216
C_ C_ 0.881845 0.0999966 0.742111 0.19216
C_ C_ 0.622058 0.0283294 0.697635 -0.19675
C_ C_ 0.897511 0.0693323 0.715538 -0.19675
C_ C_ 0.65419 0.013186 0.694 0.08851
C_ C_ 0.92551 0.051255 0.729415 0.08851
C_ C_ 0.68468 0.0375975 0.719979 -0.19675
C_ C_ 0.934122 0.0572766 0.770415 -0.19675
C_ C_ 0.683544 0.0796945 0.746429 0.19216
C_ C_ 0.919227 0.0914761 0.79409 0.19216
C_ C_ 0.57299 0.246683 0.805721 0.04924
C_ C_ 0.804968 0.2599 0.825516 0.04924
C_ C_ 0.563452 0.190746 0.803123 -0.19469
C_ C_ 0.803267 0.204814 0.812357 -0.19469
C_ C_ 0.535613 0.174973 0.83508 -0.19469
C_ C_ 0.776219 0.182959 0.844372 -0.19469
C_ C_ 0.750371 0.214803 0.849511 0.04924
C_ C_ 0.0206185 0.22039 0.840788 0.04924
C_ C_ 0.566151 0.268109 0.77179 0.65653
C_ C_ 0.805636 0.28946 0.793183 0.65653
C_ C_ 0.596002 0.171067 0.794236 0.65653
C_ C_ 0.836719 0.184846 0.801963 0.65653
C_ C_ 0.553465 0.167129 0.871296 0.65653
C_ C_ 0.792416 0.18166 0.884451 0.65653
C_ C_ 0.721539 0.205937 0.81648 0.65653
C_ C_ 0.985585 0.214864 0.814894 0.65653
C_ C_ 0.668454 0.418778 0.875201 0.19216
C_ C_ 0.901641 0.417496 0.877128 0.19216
C_ C_ 0.672435 0.465582 0.894208 -0.19675
C_ C_ 0.909387 0.459885 0.904575 -0.19675
C_ C_ 0.644039 0.47161 0.920916 0.08851
C_ C_ 0.878781 0.472003 0.924218 0.08851
C_ C_ 0.609847 0.431483 0.922162 -0.19675
C_ C_ 0.843247 0.438906 0.917421 -0.19675
C_ C_ 0.605563 0.38733 0.895567 0.19216
C_ C_ 0.83631 0.397233 0.890388 0.19216
C_ C_ 0.678714 0.109173 0.971109 0.19216
C_ C_ 0.948371 0.0900468 0.976922 0.19216
C_ C_ 0.666703 0.0697303 0.940567 -0.19675
C_ C_ 0.940955 0.0418084 0.955293 -0.19675
C_ C_ 0.634134 0.0284346 0.943544 0.08851
C_ C_ 0.902687 0.016054 0.942098 0.08851
C_ C_ 0.608904 0.0357615 0.972528 -0.19675
C_ C_ 0.873769 0.036538 0.951538 -0.19675
C_ C_ 0.619503 0.0805978 -0.0005009999999999737 0.19216
C_ C_ 0.883911 0.0834151 0.973047 0.19216
C_ C_ 0.690523 0.254506 0.941382 0.04924
C_ C_ 0.941084 0.246429 0.922871 0.04924
C_ C_ 0.712618 0.30956 0.949726 -0.19469
C_ C_ 0.965796 0.301575 0.937456 -0.19469
C_ C_ 0.693852 0.328631 0.919939 -0.19469
C_ C_ 0.947724 0.326055 0.909929 -0.19469
C_ C_ 0.655724 0.291794 0.915487 0.04924
C_ C_ 0.906642 0.291761 0.903211 0.04924
C_ C_ 0.67188 0.225154 0.972389 0.65653
C_ C_ 0.925863 0.214226 0.953941 0.65653
C_ C_ 0.755125 0.326588 0.946838 0.65653
C_ C_ 0.00749677 0.31801 0.939566 0.65653
C_ C_ 0.712319 0.329163 0.881666 0.65653
C_ C_ 0.965583 0.331938 0.87139 0.65653
C_ C_ 0.623465 0.295783 0.942553 0.65653
C_ C_ 0.8749 0.292327 0.93227 0.65653
C_ C_ 0.626458 0.115285 0.865914 0.19216
C_ C_ 0.810545 0.0481025 0.846482 0.19216
C_ C_ 0.631801 0.0770281 0.838249 -0.19675
C_ C_ 0.822286 0.0276564 0.812092 -0.19675
C_ C_ 0.600893 0.0322222 0.829017 0.08851
C_ C_ 0.813501 0.977569 0.802902 0.08851
C_ C_ 0.57284 0.0242611 0.856936 -0.19675
C_ C_ 0.79151 0.946733 0.827495 -0.19675
C_ C_ 0.570366 0.0619616 0.885629 0.19216
C_ C_ 0.783639 0.96915 0.864841 0.19216
C_ C_ 0.614835 0.387509 0.76643 0.19216
C_ C_ 0.872217 0.414343 0.771564 0.19216
C_ C_ 0.60494 0.422613 0.792991 -0.19675
C_ C_ 0.880718 0.460565 0.793439 -0.19675
C_ C_ 0.583646 0.450324 0.779367 0.08851
C_ C_ 0.851735 0.481896 0.798669 0.08851
C_ C_ 0.571154 0.43969 0.740081 -0.19675
C_ C_ 0.819038 0.459934 0.775065 -0.19675
C_ C_ 0.580368 0.401664 0.714714 0.19216
C_ C_ 0.809401 0.410323 0.756909 0.19216
N_ N_ 0.633758 0.108681 0.62717 -0.35746
N_ N_ 0.873622 0.114785 0.632762 -0.35746
N_ N_ 0.577591 0.385142 0.508063 -0.35746
N_ N_ 0.838239 0.379521 0.504151 -0.35746
N_ N_ 0.734357 0.488211 0.63643 -0.35746
N_ N_ 0.893146 0.389403 0.612418 -0.35746
N_ N_ 0.652923 0.0972936 0.747302 -0.35746
N_ N_ 0.898865 0.116098 0.77821 -0.35746
N_ N_ 0.635369 0.379889 0.875966 -0.35746
N_ N_ 0.86524 0.387077 0.869294 -0.35746
N_ N_ 0.652943 0.116972 0.996185 -0.35746
N_ N_ 0.919753 0.108981 0.985073 -0.35746
N_ N_ 0.598216 0.105976 0.890485 -0.35746
N_ N_ 0.792685 0.0192654 0.872691 -0.35746
N_ N_ 0.603553 0.378775 0.729137 -0.35746
N_ N_ 0.837921 0.390937 0.753364 -0.35746
O_ O_ 0.713445 0.227155 0.649156 -0.2869
O_ O_ 0.942831 0.227516 0.657786 -0.2869
O_ O_ 0.511839 0.169322 0.712735 -0.71937
O_ O_ 0.777717 0.167891 0.701512 -0.71937
O_ O_ 0.70732 0.174464 0.709245 -0.57331
O_ O_ 0.943936 0.179872 0.716378 -0.57331
O_ O_ 0.662785 0.205654 0.736739 -0.57331
O_ O_ 0.907559 0.216582 0.753057 -0.57331
O_ O_ 0.623781 0.282821 0.683459 -0.57331
O_ O_ 0.860209 0.28922 0.703932 -0.57331
O_ O_ 0.664561 0.337413 0.731061 -0.64513
O_ O_ 0.902804 0.364784 0.705481 -0.64513
O_ O_ 0.6691 0.333749 0.622739 -0.57331
O_ O_ 0.913829 0.281187 0.608336 -0.57331
O_ O_ 0.725054 0.338345 0.599576 -0.64513
O_ O_ 0.960268 0.354228 0.60702 -0.64513
O_ O_ 0.55066 0.309101 0.672222 -0.57331
O_ O_ 0.796303 0.329435 0.689531 -0.57331
O_ O_ 0.51487 0.252817 0.706111 -0.57331
O_ O_ 0.778336 0.253342 0.693528 -0.57331
O_ O_ 0.582194 0.260422 0.60068 -0.2869
O_ O_ 0.833126 0.243867 0.586044 -0.2869
O_ O_ 0.669964 0.335779 0.546017 -0.71937
O_ O_ 0.927832 0.313564 0.536243 -0.71937
O_ O_ 0.603374 0.319871 0.54428 -0.57331
O_ O_ 0.858387 0.300644 0.530888 -0.57331
O_ O_ 0.551144 0.275758 0.506539 -0.57331
O_ O_ 0.801842 0.269211 0.497975 -0.57331
O_ O_ 0.724033 0.203963 0.558436 -0.57331
O_ O_ 0.97242 0.203996 0.550857 -0.57331
O_ O_ 0.475422 0.134628 0.547686 -0.64513
O_ O_ 0.718911 0.125195 0.537146 -0.64513
O_ O_ 0.504038 0.185516 0.636484 -0.57331
O_ O_ 0.771613 0.189451 0.634142 -0.57331
O_ O_ 0.528343 0.123004 0.636957 -0.64513
O_ O_ 0.768597 0.108205 0.622055 -0.64513
O_ O_ 0.634867 0.17343 0.564305 -0.57331
O_ O_ 0.879952 0.152326 0.545633 -0.57331
O_ O_ 0.646709 0.252345 0.55943 -0.57331
O_ O_ 0.893884 0.232438 0.543527 -0.57331
O_ O_ 0.555529 0.262255 0.838344 -0.2869
O_ O_ 0.777801 0.264343 0.853684 -0.2869
O_ O_ 0.708193 0.315108 0.792329 -0.71937
O_ O_ 0.979392 0.314676 0.782615 -0.71937
O_ O_ 0.55723 0.309352 0.779478 -0.57331
O_ O_ 0.784723 0.319434 0.792694 -0.57331
O_ O_ 0.583066 0.261535 0.740753 -0.57331
O_ O_ 0.831878 0.29305 0.768544 -0.57331
O_ O_ 0.632107 0.195342 0.802602 -0.57331
O_ O_ 0.871399 0.208768 0.818428 -0.57331
O_ O_ 0.587145 0.128413 0.772821 -0.64513
O_ O_ 0.829929 0.142043 0.780637 -0.64513
O_ O_ 0.584186 0.202269 0.88714 -0.57331
O_ O_ 0.821632 0.167845 0.881786 -0.57331
O_ O_ 0.535017 0.13603 0.893588 -0.64513
O_ O_ 0.765893 0.159183 0.90688 -0.64513
O_ O_ 0.69435 0.164551 0.811427 -0.57331
O_ O_ 0.952955 0.194152 0.82785 -0.57331
O_ O_ 0.723907 0.240246 0.796592 -0.57331
O_ O_ 0.986501 0.245271 0.790446 -0.57331
O_ O_ 0.661256 0.246315 0.912923 -0.2869
O_ O_ 0.913415 0.245203 0.896816 -0.2869
O_ O_ 0.566369 0.172393 0.960502 -0.71937
O_ O_ 0.828225 0.168796 0.955449 -0.71937
O_ O_ 0.636419 0.198162 0.970073 -0.57331
O_ O_ 0.892476 0.179921 0.948002 -0.57331
O_ O_ 0.693062 0.225348 1.00207164 -0.57331
O_ O_ 0.94557 0.219998 0.985382 -0.57331
O_ O_ 0.526839 0.296701 0.943078 -0.57331
O_ O_ 0.774085 0.295235 0.939237 -0.57331
O_ O_ 0.774483 0.37462 0.954926 -0.64513
O_ O_ 0.028652 0.364827 0.941929 -0.64513
O_ O_ 0.713558 0.289782 0.858761 -0.57331
O_ O_ 0.986946 0.304027 0.858911 -0.57331
O_ O_ 0.734577 0.371169 0.872877 -0.64513
O_ O_ 0.966859 0.370492 0.854048 -0.64513
O_ O_ 0.619252 0.338845 0.951738 -0.57331
O_ O_ 0.861928 0.330376 0.937364 -0.57331
O_ O_ 0.59862 0.258803 0.950516 -0.57331
O_ O_ 0.857132 0.252415 0.94616 -0.57331
Zn Zn 0.740313 0.696397 0.193867 0.88731
Zn Zn 0.00592183 0.69988 0.184149 0.88731
Zn Zn 0.660037 0.686142 0.29765 0.96553
Zn Zn 0.914462 0.675601 0.27879 0.96553
Zn Zn 0.644218 0.801118 0.0675322 0.88731
Zn Zn 0.89524 0.798774 0.0774661 0.88731
Zn Zn 0.577439 0.815653 0.467275 0.96553
Zn Zn 0.827645 0.82437 0.4767 0.96553
Zn Zn 0.493305 0.804608 0.318612 0.88731
Zn Zn 0.767126 0.814936 0.315757 0.88731
Zn Zn 0.586114 0.834515 0.226364 0.96553
Zn Zn 0.836689 0.809474 0.20916 0.96553
Zn Zn 0.609765 0.694277 0.427219 0.88731
Zn Zn 0.859811 0.691591 0.43204 0.88731
Zn Zn 0.677952 0.676571 0.0262028 0.96553
Zn Zn 0.923655 0.66883 0.0349518 0.96553
H_ H_ 0.554989 0.699184 0.206839 0.44417
H_ H_ 0.786053 0.678909 0.217426 0.44417
H_ H_ 0.523812 0.648958 0.197666 0.44417
H_ H_ 0.753588 0.674154 0.248084 0.44417
H_ H_ 0.643679 0.716646 0.182106 0.33755
H_ H_ 0.912355 0.722274 0.171144 0.33755
H_ H_ 0.694129 0.811185 0.228786 0.33755
H_ H_ 0.965714 0.812295 0.221684 0.33755
H_ H_ 0.485963 0.859772 0.16943 0.33755
H_ H_ 0.730521 0.861029 0.182389 0.33755
H_ H_ 0.506409 0.781135 0.124165 0.33755
H_ H_ 0.74008 0.782146 0.132898 0.33755
H_ H_ 0.557255 0.582814 0.1585 0.33755
H_ H_ 0.827348 0.591187 0.150455 0.33755
H_ H_ 0.555859 0.500864 0.128995 0.33755
H_ H_ 0.806537 0.522271 0.0964801 0.33755
H_ H_ 0.664001 0.575193 0.0761972 0.33755
H_ H_ 0.923442 0.55178 0.0663369 0.33755
H_ H_ 0.66712 0.647088 0.125062 0.33755
H_ H_ 0.943449 0.622492 0.122062 0.33755
H_ H_ 0.547115 0.860775 0.049338 0.33755
H_ H_ 0.771321 0.869462 0.0176154 0.33755
H_ H_ 0.564631 0.940087 0.090824 0.33755
H_ H_ 0.782276 0.956924 0.0308795 0.33755
H_ H_ 0.656263 0.997608 0.0222082 0.33755
H_ H_ 0.901314 0.97723 0.0360632 0.33755
H_ H_ 0.644428 0.905141 0.476129 0.33755
H_ H_ 0.896307 0.898537 0.512776 0.33755
H_ H_ 0.699252 0.806396 0.0433736 0.44417
H_ H_ 0.927925 0.856357 0.0536258 0.44417
H_ H_ 0.67598 0.83388 0.0226403 0.44417
H_ H_ 0.941242 0.808913 0.0426665 0.44417
H_ H_ 0.536827 0.768203 0.0698476 0.33755
H_ H_ 0.798569 0.781332 0.0960339 0.33755
H_ H_ 0.537141 0.673807 0.0219842 0.33755
H_ H_ 0.786788 0.685319 0.0352669 0.33755
H_ H_ 0.54957 0.630312 0.0699708 0.33755
H_ H_ 0.800649 0.632237 0.0839321 0.33755
H_ H_ 0.603418 0.70517 0.115938 0.33755
H_ H_ 0.855971 0.701806 0.127314 0.33755
H_ H_ 0.611461 0.848742 0.130404 0.33755
H_ H_ 0.919597 0.905704 0.13503 0.33755
H_ H_ 0.606572 0.909344 0.183151 0.33755
H_ H_ 0.903758 0.943895 0.196831 0.33755
H_ H_ 0.70414 0.0171673 0.137507 0.33755
H_ H_ 0.962975 0.0837325 0.160499 0.33755
H_ H_ 0.711147 0.943825 0.0982625 0.33755
H_ H_ 0.986434 0.0419966 0.105366 0.33755
H_ H_ 0.615679 0.627054 0.230583 0.33755
H_ H_ 0.848229 0.59212 0.23241 0.33755
H_ H_ 0.627387 0.554915 0.185484 0.33755
H_ H_ 0.846605 0.517081 0.188455 0.33755
H_ H_ 0.697627 0.54027 0.278587 0.33755
H_ H_ 0.96307 0.541483 0.217307 0.33755
H_ H_ 0.677217 0.602109 0.321608 0.33755
H_ H_ 0.967399 0.624835 0.253663 0.33755
H_ H_ 0.758878 0.84733 0.263833 0.44417
H_ H_ 0.983221 0.857959 0.284425 0.44417
H_ H_ 0.725227 0.841197 0.292894 0.44417
H_ H_ 0.949692 0.815282 0.298997 0.44417
H_ H_ 0.592412 0.790322 0.332783 0.33755
H_ H_ 0.858508 0.776975 0.332265 0.33755
H_ H_ 0.547551 0.696935 0.282405 0.33755
H_ H_ 0.809052 0.6913 0.280305 0.33755
H_ H_ 0.769749 0.647677 0.327442 0.33755
H_ H_ 0.0151864 0.649616 0.336081 0.33755
H_ H_ 0.76016 0.726322 0.374674 0.33755
H_ H_ 0.992806 0.721272 0.378452 0.33755
H_ H_ 0.6671 0.903581 0.35212 0.33755
H_ H_ 0.936197 0.904638 0.339899 0.33755
H_ H_ 0.685866 0.981109 0.404352 0.33755
H_ H_ 0.943518 0.992521 0.366387 0.33755
H_ H_ 0.568683 0.937687 0.43731 0.33755
H_ H_ 0.851082 0.933157 0.440192 0.33755
H_ H_ 0.553217 0.863584 0.389318 0.33755
H_ H_ 0.834754 0.853384 0.398415 0.33755
H_ H_ 0.721838 0.641356 0.470737 0.33755
H_ H_ 0.959925 0.634886 0.46544 0.33755
H_ H_ 0.714885 0.556871 0.434149 0.33755
H_ H_ 0.929665 0.56906 0.41445 0.33755
H_ H_ 0.591739 0.520454 0.449514 0.33755
H_ H_ 0.838733 0.51037 0.489939 0.33755
H_ H_ 0.613552 0.607757 0.985074 0.33755
H_ H_ 0.861157 0.584518 0.0263838 0.33755
H_ H_ 0.561999 0.631467 0.439247 0.44417
H_ H_ 0.806944 0.688445 0.457033 0.44417
H_ H_ 0.575834 0.67491 0.473422 0.44417
H_ H_ 0.831168 0.6654 0.481306 0.44417
H_ H_ 0.714668 0.722274 0.4215 0.33755
H_ H_ 0.972042 0.733582 0.434237 0.33755
H_ H_ 0.721154 0.81878 0.469611 0.33755
H_ H_ 0.965054 0.832958 0.477237 0.33755
H_ H_ 0.703538 0.862848 0.426512 0.33755
H_ H_ 0.945891 0.866037 0.431111 0.33755
H_ H_ 0.64583 0.786766 0.373265 0.33755
H_ H_ 0.896089 0.784563 0.387582 0.33755
H_ H_ 0.563935 0.596255 0.354827 0.33755
H_ H_ 0.90434 0.647794 0.369422 0.33755
H_ H_ 0.584689 0.550278 0.299047 0.33755
H_ H_ 0.905995 0.57766 0.318921 0.33755
H_ H_ 0.53169 0.412589 0.346081 0.33755
H_ H_ 0.803111 0.482842 0.355231 0.33755
H_ H_ 0.520814 0.464032 0.404602 0.33755
H_ H_ 0.80032 0.55836 0.4013 0.33755
H_ H_ 0.652918 0.90196 0.270979 0.33755
H_ H_ 0.883915 0.885046 0.274526 0.33755
H_ H_ 0.660964 0.981802 0.3166 0.33755
H_ H_ 0.857737 0.940252 0.319465 0.33755
H_ H_ 0.550523 0.976916 0.272543 0.33755
H_ H_ 0.790322 0.955528 0.227106 0.33755
H_ H_ 0.540009 0.88803 0.24308 0.33755
H_ H_ 0.807337 0.888539 0.182794 0.33755
C_ C_ 0.675244 0.741868 0.192227 0.04924
C_ C_ 0.940606 0.742389 0.183855 0.04924
C_ C_ 0.681796 0.798743 0.199707 -0.19469
C_ C_ 0.947107 0.799399 0.194212 -0.19469
C_ C_ 0.711287 0.821782 0.170104 -0.19469
C_ C_ 0.973427 0.819087 0.162757 -0.19469
C_ C_ 0.490363 0.782932 0.152236 0.04924
C_ C_ 0.728136 0.778699 0.162326 0.04924
C_ C_ 0.682535 0.716257 0.226634 0.65653
C_ C_ 0.941392 0.713369 0.215702 0.65653
C_ C_ 0.648326 0.818501 0.202346 0.65653
C_ C_ 0.912247 0.816055 0.204426 0.65653
C_ C_ 0.693719 0.832638 0.134989 0.65653
C_ C_ 0.956718 0.818418 0.125178 0.65653
C_ C_ 0.524387 0.792763 0.181793 0.65653
C_ C_ 0.763227 0.784405 0.185163 0.65653
C_ C_ 0.579106 0.579207 0.139094 0.19216
C_ C_ 0.848613 0.581174 0.131955 0.19216
C_ C_ 0.579308 0.533628 0.121134 -0.19675
C_ C_ 0.836948 0.539225 0.103186 -0.19675
C_ C_ 0.606194 0.531395 0.0931909 0.08851
C_ C_ 0.86561 0.523478 0.0830955 0.08851
C_ C_ 0.638289 0.574646 0.0932031 -0.19675
C_ C_ 0.903729 0.555078 0.0882326 -0.19675
C_ C_ 0.641801 0.614999 0.120286 0.19216
C_ C_ 0.914154 0.595668 0.118966 0.19216
C_ C_ 0.573149 0.889791 0.0450209 0.19216
C_ C_ 0.799612 0.892046 0.0238278 0.19216
C_ C_ 0.581333 0.936653 0.0681272 -0.19675
C_ C_ 0.805571 0.943143 0.0345582 -0.19675
C_ C_ 0.610747 0.976021 0.0591445 0.08851
C_ C_ 0.843583 0.975547 0.0439884 0.08851
C_ C_ 0.633712 0.967757 0.0293034 -0.19675
C_ C_ 0.872613 0.955571 0.03333 -0.19675
C_ C_ 0.622619 0.922091 0.00383343 0.19216
C_ C_ 0.864498 0.906747 0.0125124 0.19216
C_ C_ 0.555725 0.745069 0.0608495 0.04924
C_ C_ 0.812208 0.756111 0.0788248 0.04924
C_ C_ 0.532874 0.689153 0.0512714 -0.19469
C_ C_ 0.785126 0.700831 0.0681484 -0.19469
C_ C_ 0.548557 0.666494 0.0809245 -0.19469
C_ C_ 0.8015 0.67303 0.0963381 -0.19469
C_ C_ 0.590333 0.707211 0.0867061 0.04924
C_ C_ 0.843346 0.706562 0.0998939 0.04924
C_ C_ 0.575753 0.775123 0.029664 0.65653
C_ C_ 0.825773 0.780177 0.0460193 0.65653
C_ C_ 0.488971 0.673639 0.0474379 0.65653
C_ C_ 0.742544 0.686672 0.0676996 0.65653
C_ C_ 0.526627 0.662348 0.115955 0.65653
C_ C_ 0.781849 0.66735 0.13373 0.65653
C_ C_ 0.620964 0.705687 0.0587678 0.65653
C_ C_ 0.873855 0.698992 0.0712399 0.65653
C_ C_ 0.625983 0.887382 0.12974 0.19216
C_ C_ 0.931215 0.943026 0.142261 0.19216
C_ C_ 0.625873 0.922346 0.161514 -0.19675
C_ C_ 0.917278 0.965569 0.174156 -0.19675
C_ C_ 0.651359 0.971448 0.164234 0.08851
C_ C_ 0.927537 0.0160837 0.179858 0.08851
C_ C_ 0.681058 0.980709 0.136778 -0.19675
C_ C_ 0.946827 0.0440209 0.152708 -0.19675
C_ C_ 0.685204 0.940369 0.111946 0.19216
C_ C_ 0.964831 0.0206887 0.123639 0.19216
C_ C_ 0.630474 0.603383 0.239838 0.19216
C_ C_ 0.873456 0.579334 0.232476 0.19216
C_ C_ 0.642307 0.568223 0.214331 -0.19675
C_ C_ 0.870055 0.534724 0.208636 -0.19675
C_ C_ 0.666907 0.546433 0.227467 0.08851
C_ C_ 0.901328 0.519556 0.204066 0.08851
C_ C_ 0.678849 0.557684 0.267018 -0.19675
C_ C_ 0.935956 0.550238 0.223746 -0.19675
C_ C_ 0.668715 0.593842 0.290583 0.19216
C_ C_ 0.938386 0.595376 0.245738 0.19216
C_ C_ 0.563771 0.76447 0.321491 0.04924
C_ C_ 0.827969 0.761074 0.319649 0.04924
C_ C_ 0.559741 0.709332 0.312364 -0.19469
C_ C_ 0.819253 0.704025 0.310719 -0.19469
C_ C_ 0.530552 0.686266 0.341298 -0.19469
C_ C_ 0.790463 0.684254 0.339349 -0.19469
C_ C_ 0.771845 0.725521 0.345912 0.04924
C_ C_ 0.0104481 0.728054 0.351523 0.04924
C_ C_ 0.560335 0.789393 0.287663 0.65653
C_ C_ 0.826602 0.790318 0.287947 0.65653
C_ C_ 0.592399 0.691028 0.305073 0.65653
C_ C_ 0.851765 0.683583 0.306392 0.65653
C_ C_ 0.547038 0.679072 0.378788 0.65653
C_ C_ 0.805698 0.67535 0.375801 0.65653
C_ C_ 0.736743 0.72694 0.324696 0.65653
C_ C_ 0.978851 0.719927 0.32054 0.65653
C_ C_ 0.646721 0.911445 0.372957 0.19216
C_ C_ 0.913761 0.914508 0.355965 0.19216
C_ C_ 0.656247 0.956086 0.399746 -0.19675
C_ C_ 0.921272 0.962917 0.376967 -0.19675
C_ C_ 0.626002 0.970739 0.418625 0.08851
C_ C_ 0.897033 0.971076 0.406633 0.08851
C_ C_ 0.58971 0.933316 0.416228 -0.19675
C_ C_ 0.866752 0.930134 0.41408 -0.19675
C_ C_ 0.581609 0.891006 0.389287 0.19216
C_ C_ 0.85891 0.883677 0.39281 0.19216
C_ C_ 0.694899 0.61153 0.469799 0.19216
C_ C_ 0.930058 0.609119 0.468263 0.19216
C_ C_ 0.68925 0.565518 0.446212 -0.19675
C_ C_ 0.914155 0.568501 0.440992 -0.19675
C_ C_ 0.653044 0.529809 0.437987 0.08851
C_ C_ 0.882125 0.528939 0.447331 0.08851
C_ C_ 0.62137 0.542903 0.454972 -0.19675
C_ C_ 0.862034 0.538379 0.479831 -0.19675
C_ C_ 0.628832 0.586993 0.482713 0.19216
C_ C_ 0.875513 0.586331 0.50338 0.19216
C_ C_ 0.69725 0.747806 0.428295 0.04924
C_ C_ 0.950637 0.75392 0.442125 0.04924
C_ C_ 0.720907 0.803256 0.437727 -0.19469
C_ C_ 0.970476 0.810902 0.450558 -0.19469
C_ C_ 0.701975 0.82733 0.410993 -0.19469
C_ C_ 0.950457 0.830973 0.422285 -0.19469
C_ C_ 0.662451 0.786055 0.40078 0.04924
C_ C_ 0.911778 0.789692 0.415131 0.04924
C_ C_ 0.678114 0.719819 0.459856 0.65653
C_ C_ 0.930287 0.722867 0.471407 0.65653
C_ C_ 0.763979 0.817481 0.440487 0.65653
C_ C_ 0.0141867 0.828837 0.45405 0.65653
C_ C_ 0.722001 0.838994 0.374914 0.65653
C_ C_ 0.969409 0.840666 0.385431 0.65653
C_ C_ 0.631601 0.790887 0.428279 0.65653
C_ C_ 0.881209 0.792467 0.443215 0.65653
C_ C_ 0.558655 0.555993 0.354025 0.19216
C_ C_ 0.883704 0.608879 0.367659 0.19216
C_ C_ 0.568288 0.528646 0.321025 -0.19675
C_ C_ 0.886434 0.570164 0.338906 -0.19675
C_ C_ 0.558227 0.476691 0.317216 0.08851
C_ C_ 0.855576 0.52532 0.33383 0.08851
C_ C_ 0.544879 0.452567 0.348849 -0.19675
C_ C_ 0.825522 0.518455 0.358236 -0.19675
C_ C_ 0.537642 0.482131 0.382061 0.19216
C_ C_ 0.823904 0.559294 0.384202 0.19216
C_ C_ 0.631062 0.919878 0.275835 0.19216
C_ C_ 0.862752 0.89982 0.264047 0.19216
C_ C_ 0.636317 0.966024 0.29701 -0.19675
C_ C_ 0.854381 0.938312 0.288821 -0.19675
C_ C_ 0.607203 0.988118 0.29932 0.08851
C_ C_ 0.826945 0.95696 0.275704 0.08851
C_ C_ 0.573894 0.963781 0.274606 -0.19675
C_ C_ 0.812228 0.942922 0.237522 -0.19675
C_ C_ 0.56788 0.913932 0.254813 0.19216
C_ C_ 0.820774 0.902871 0.213559 0.19216
N_ N_ 0.611925 0.618261 0.141708 -0.35746
N_ N_ 0.886415 0.606886 0.140798 -0.35746
N_ N_ 0.591659 0.885855 0.0106261 -0.35746
N_ N_ 0.828684 0.877671 0.00852527 -0.35746
N_ N_ 0.656718 0.897709 0.105849 -0.35746
N_ N_ 0.952821 0.969467 0.11792 -0.35746
N_ N_ 0.647057 0.616279 0.276569 -0.35746
N_ N_ 0.906474 0.608275 0.252087 -0.35746
N_ N_ 0.60982 0.881981 0.367042 -0.35746
N_ N_ 0.882183 0.878056 0.362909 -0.35746
N_ N_ 0.664469 0.618621 0.490071 -0.35746
N_ N_ 0.909324 0.618024 0.498356 -0.35746
N_ N_ 0.544342 0.532049 0.384822 -0.35746
N_ N_ 0.854345 0.600641 0.391871 -0.35746
N_ N_ 0.596764 0.894944 0.258079 -0.35746
N_ N_ 0.843284 0.880045 0.229353 -0.35746
O_ O_ 0.69936 0.733858 0.161877 -0.2869
O_ O_ 0.968658 0.736662 0.158778 -0.2869
O_ O_ 0.533662 0.680293 0.199023 -0.71937
O_ O_ 0.763913 0.676625 0.226018 -0.71937
O_ O_ 0.698633 0.682158 0.221948 -0.57331
O_ O_ 0.967865 0.690727 0.217165 -0.57331
O_ O_ 0.660882 0.716993 0.255248 -0.57331
O_ O_ 0.911932 0.701357 0.236248 -0.57331
O_ O_ 0.614562 0.791521 0.207168 -0.57331
O_ O_ 0.877913 0.787762 0.192942 -0.57331
O_ O_ 0.657917 0.867221 0.209164 -0.64513
O_ O_ 0.919921 0.862612 0.21894 -0.64513
O_ O_ 0.661555 0.799011 0.117517 -0.57331
O_ O_ 0.922608 0.82241 0.12304 -0.57331
O_ O_ 0.71828 0.861075 0.113574 -0.64513
O_ O_ 0.980516 0.830109 0.0988239 -0.64513
O_ O_ 0.551116 0.836285 0.188021 -0.57331
O_ O_ 0.797847 0.805628 0.173941 -0.57331
O_ O_ 0.525931 0.760048 0.202163 -0.57331
O_ O_ 0.761696 0.761983 0.214236 -0.57331
O_ O_ 0.58165 0.751046 0.0919798 -0.2869
O_ O_ 0.841718 0.755554 0.103951 -0.2869
O_ O_ 0.681543 0.81827 0.0393219 -0.71937
O_ O_ 0.927146 0.826761 0.0492954 -0.71937
O_ O_ 0.606321 0.812259 0.0386909 -0.57331
O_ O_ 0.860148 0.813476 0.0468449 -0.57331
O_ O_ 0.554573 0.776072 0.000598317 -0.57331
O_ O_ 0.802049 0.775741 0.0182894 -0.57331
O_ O_ 0.724346 0.713646 0.056045 -0.57331
O_ O_ 0.972566 0.692682 0.0595148 -0.57331
O_ O_ 0.470418 0.626131 0.0330434 -0.64513
O_ O_ 0.723712 0.640679 0.067267 -0.64513
O_ O_ 0.521289 0.702308 0.134907 -0.57331
O_ O_ 0.761996 0.69561 0.146998 -0.57331
O_ O_ 0.512362 0.618903 0.12736 -0.64513
O_ O_ 0.780829 0.626005 0.147533 -0.64513
O_ O_ 0.633223 0.668091 0.0540305 -0.57331
O_ O_ 0.884596 0.660083 0.0670321 -0.57331
O_ O_ 0.637268 0.741892 0.0396886 -0.57331
O_ O_ 0.895085 0.73692 0.057536 -0.57331
O_ O_ 0.537024 0.770955 0.348555 -0.2869
O_ O_ 0.802659 0.769574 0.349038 -0.2869
O_ O_ 0.747301 0.840756 0.284326 -0.71937
O_ O_ 0.97308 0.832878 0.29568 -0.71937
O_ O_ 0.533281 0.810442 0.284676 -0.57331
O_ O_ 0.815604 0.830086 0.296358 -0.57331
O_ O_ 0.590256 0.799412 0.265749 -0.57331
O_ O_ 0.83592 0.777375 0.252229 -0.57331
O_ O_ 0.626282 0.715694 0.320299 -0.57331
O_ O_ 0.885555 0.713672 0.30461 -0.57331
O_ O_ 0.585061 0.644649 0.28888 -0.64513
O_ O_ 0.843985 0.633948 0.297421 -0.64513
O_ O_ 0.584532 0.6956 0.385495 -0.57331
O_ O_ 0.842493 0.698697 0.387912 -0.57331
O_ O_ 0.5238 0.650087 0.400122 -0.64513
O_ O_ 0.784777 0.639246 0.39397 -0.64513
O_ O_ 0.703004 0.690899 0.324343 -0.57331
O_ O_ 0.950984 0.677491 0.312129 -0.57331
O_ O_ 0.740693 0.752253 0.29639 -0.57331
O_ O_ 0.978509 0.755067 0.302374 -0.57331
O_ O_ 0.669329 0.740368 0.397261 -0.2869
O_ O_ 0.922531 0.746923 0.414802 -0.2869
O_ O_ 0.577411 0.659113 0.451611 -0.71937
O_ O_ 0.825017 0.677625 0.462241 -0.71937
O_ O_ 0.64677 0.680532 0.451591 -0.57331
O_ O_ 0.897557 0.688274 0.46478 -0.57331
O_ O_ 0.696375 0.724719 0.491637 -0.57331
O_ O_ 0.950965 0.723546 0.501478 -0.57331
O_ O_ 0.526763 0.793246 0.448119 -0.57331
O_ O_ 0.780771 0.787903 0.448093 -0.57331
O_ O_ 0.782276 0.865209 0.444623 -0.64513
O_ O_ 0.0335817 0.876586 0.463582 -0.64513
O_ O_ 0.750198 0.824066 0.364806 -0.57331
O_ O_ 0.97217 0.804307 0.36046 -0.57331
O_ O_ 0.717385 0.874467 0.358631 -0.64513
O_ O_ 0.984629 0.885249 0.377968 -0.64513
O_ O_ 0.61308 0.822955 0.42806 -0.57331
O_ O_ 0.874884 0.83388 0.455905 -0.57331
O_ O_ 0.617159 0.758518 0.450216 -0.57331
O_ O_ 0.856184 0.753375 0.449796 -0.57331
Zn Zn 0.742107 0.692364 0.687701 0.88731
Zn Zn 0.00425197 0.686609 0.684323 0.88731
Zn Zn 0.664782 0.684043 0.794527 0.96553
Zn Zn 0.918071 0.666868 0.781494 0.96553
Zn Zn 0.644293 0.797823 0.563071 0.88731
Zn Zn 0.896462 0.813363 0.577641 0.88731
Zn Zn 0.578347 0.824454 0.972506 0.96553
Zn Zn 0.820134 0.810733 0.977808 0.96553
Zn Zn 0.505115 0.816291 0.820534 0.88731
Zn Zn 0.767927 0.809217 0.815366 0.88731
Zn Zn 0.592626 0.833317 0.721489 0.96553
Zn Zn 0.838057 0.805737 0.702975 0.96553
Zn Zn 0.608042 0.693371 0.926194 0.88731
Zn Zn 0.85137 0.684121 0.934578 0.88731
Zn Zn 0.676485 0.680418 0.524667 0.96553
Zn Zn 0.925205 0.682184 0.533219 0.96553
H_ H_ 0.522953 0.646538 0.709346 0.44417
H_ H_ 0.788518 0.678807 0.71513 0.44417
H_ H_ 0.559021 0.697162 0.711804 0.44417
H_ H_ 0.751623 0.672781 0.742032 0.44417
H_ H_ 0.647766 0.723808 0.682687 0.33755
H_ H_ 0.909821 0.71135 0.674934 0.33755
H_ H_ 0.699652 0.817112 0.726251 0.33755
H_ H_ 0.958353 0.804363 0.722484 0.33755
H_ H_ 0.485441 0.85289 0.664063 0.33755
H_ H_ 0.735853 0.845645 0.664215 0.33755
H_ H_ 0.505036 0.776891 0.623149 0.33755
H_ H_ 0.737094 0.764236 0.622445 0.33755
H_ H_ 0.567816 0.590067 0.652496 0.33755
H_ H_ 0.828811 0.590277 0.636974 0.33755
H_ H_ 0.555926 0.504809 0.618702 0.33755
H_ H_ 0.81665 0.509727 0.607181 0.33755
H_ H_ 0.662719 0.56171 0.559301 0.33755
H_ H_ 0.934782 0.546708 0.575858 0.33755
H_ H_ 0.674597 0.64129 0.60004 0.33755
H_ H_ 0.944161 0.631525 0.607917 0.33755
H_ H_ 0.543279 0.85632 0.534725 0.33755
H_ H_ 0.779699 0.882173 0.509059 0.33755
H_ H_ 0.564222 0.925206 0.587588 0.33755
H_ H_ 0.795121 0.968814 0.549452 0.33755
H_ H_ 0.662043 0.988167 0.520156 0.33755
H_ H_ 0.913767 0.979816 0.547916 0.33755
H_ H_ 0.641428 0.915435 0.981979 0.33755
H_ H_ 0.886014 0.890844 0.00594218 0.33755
H_ H_ 0.696692 0.805046 0.536696 0.44417
H_ H_ 0.934948 0.834039 0.532725 0.44417
H_ H_ 0.668335 0.813743 0.509054 0.44417
H_ H_ 0.940688 0.876507 0.568023 0.44417
H_ H_ 0.532504 0.761996 0.564125 0.33755
H_ H_ 0.787116 0.780757 0.584625 0.33755
H_ H_ 0.535469 0.670017 0.522413 0.33755
H_ H_ 0.794324 0.692234 0.533258 0.33755
H_ H_ 0.553989 0.628039 0.575223 0.33755
H_ H_ 0.803549 0.64346 0.580666 0.33755
H_ H_ 0.605072 0.711372 0.617044 0.33755
H_ H_ 0.858122 0.719055 0.62297 0.33755
H_ H_ 0.611152 0.849357 0.636821 0.33755
H_ H_ 0.93687 0.90677 0.658943 0.33755
H_ H_ 0.608167 0.920906 0.684513 0.33755
H_ H_ 0.923914 0.954066 0.718811 0.33755
H_ H_ 0.706974 1.0151204 0.640228 0.33755
H_ H_ 0.970463 0.0877237 0.675721 0.33755
H_ H_ 0.70526 0.940879 0.584548 0.33755
H_ H_ 0.986577 0.0416234 0.617795 0.33755
H_ H_ 0.618151 0.622059 0.72354 0.33755
H_ H_ 0.852516 0.593444 0.729135 0.33755
H_ H_ 0.641396 0.564299 0.678752 0.33755
H_ H_ 0.848658 0.514072 0.686002 0.33755
H_ H_ 0.704866 0.544114 0.77415 0.33755
H_ H_ 0.963363 0.534224 0.718372 0.33755
H_ H_ 0.678576 0.60209 0.817899 0.33755
H_ H_ 0.965762 0.611191 0.761519 0.33755
H_ H_ 0.717822 0.820706 0.793526 0.44417
H_ H_ 0.974786 0.846027 0.795695 0.44417
H_ H_ 0.751549 0.822384 0.763349 0.44417
H_ H_ 0.945846 0.795316 0.794763 0.44417
H_ H_ 0.594891 0.783293 0.835796 0.33755
H_ H_ 0.8557 0.772225 0.814276 0.33755
H_ H_ 0.54583 0.696501 0.782558 0.33755
H_ H_ 0.807351 0.673883 0.777357 0.33755
H_ H_ 0.768489 0.639408 0.827104 0.33755
H_ H_ 0.0143683 0.640861 0.839133 0.33755
H_ H_ 0.764054 0.724022 0.87172 0.33755
H_ H_ 0.995487 0.716919 0.881352 0.33755
H_ H_ 0.672163 0.913634 0.855034 0.33755
H_ H_ 0.93863 0.91042 0.846157 0.33755
H_ H_ 0.684511 0.985476 0.906814 0.33755
H_ H_ 0.94591 -0.0062470000000000026 0.880021 0.33755
H_ H_ 0.56513 0.94661 0.925874 0.33755
H_ H_ 0.840974 0.930531 0.939901 0.33755
H_ H_ 0.557826 0.864259 0.891625 0.33755
H_ H_ 0.833213 0.850684 0.895291 0.33755
H_ H_ 0.72533 0.618601 0.992585 0.33755
H_ H_ 0.955105 0.637362 0.960162 0.33755
H_ H_ 0.710228 0.529252 0.963352 0.33755
H_ H_ 0.928647 0.563017 0.910923 0.33755
H_ H_ 0.598786 0.534228 0.934862 0.33755
H_ H_ 0.838868 0.502044 0.982237 0.33755
H_ H_ 0.604881 0.593304 0.497191 0.33755
H_ H_ 0.860365 0.594016 0.529046 0.33755
H_ H_ 0.566127 0.684421 0.968557 0.44417
H_ H_ 0.8036 0.684996 0.9616 0.44417
H_ H_ 0.562546 0.63113 0.943567 0.44417
H_ H_ 0.829391 0.671767 0.990906 0.44417
H_ H_ 0.710497 0.713942 0.909595 0.33755
H_ H_ 0.964075 0.728101 0.935403 0.33755
H_ H_ 0.715838 0.799269 0.969872 0.33755
H_ H_ 0.953062 0.817665 0.982251 0.33755
H_ H_ 0.701357 0.854437 0.930547 0.33755
H_ H_ 0.944343 0.86074 0.930398 0.33755
H_ H_ 0.647212 0.78768 0.877897 0.33755
H_ H_ 0.888274 0.779109 0.889063 0.33755
H_ H_ 0.563063 0.596141 0.838275 0.33755
H_ H_ 0.905352 0.640647 0.875112 0.33755
H_ H_ 0.587184 0.547582 0.788845 0.33755
H_ H_ 0.910573 0.575633 0.823018 0.33755
H_ H_ 0.529893 0.410287 0.830648 0.33755
H_ H_ 0.79427 0.491843 0.845153 0.33755
H_ H_ 0.511164 0.46582 0.887106 0.33755
H_ H_ 0.795984 0.558249 0.899285 0.33755
H_ H_ 0.656319 0.914213 0.773769 0.33755
H_ H_ 0.875056 0.866806 0.774346 0.33755
H_ H_ 0.661722 0.99464 0.808671 0.33755
H_ H_ 0.861972 0.937084 0.816277 0.33755
H_ H_ 0.5471 0.975293 0.771982 0.33755
H_ H_ 0.799077 0.959226 0.71879 0.33755
H_ H_ 0.540766 0.891378 0.739037 0.33755
H_ H_ 0.813791 0.889865 0.679396 0.33755
C_ C_ 0.678184 0.74319 0.691277 0.04924
C_ C_ 0.939356 0.732227 0.685573 0.04924
C_ C_ 0.68794 0.801028 0.695967 -0.19469
C_ C_ 0.943601 0.789314 0.694561 -0.19469
C_ C_ 0.71366 0.812964 0.661414 -0.19469
C_ C_ 0.972641 0.814549 0.665546 -0.19469
C_ C_ 0.493386 0.780749 0.652818 0.04924
C_ C_ 0.729006 0.769549 0.653961 0.04924
C_ C_ 0.683439 0.716195 0.724093 0.65653
C_ C_ 0.94535 0.712417 0.72238 0.65653
C_ C_ 0.65736 0.826131 0.70183 0.65653
C_ C_ 0.909377 0.803951 0.700695 0.65653
C_ C_ 0.693814 0.824524 0.625815 0.65653
C_ C_ 0.957164 0.825165 0.628602 0.65653
C_ C_ 0.525937 0.791366 0.680369 0.65653
C_ C_ 0.764608 0.780022 0.678661 0.65653
C_ C_ 0.59127 0.582643 0.634161 0.19216
C_ C_ 0.850828 0.582256 0.620362 0.19216
C_ C_ 0.582261 0.534618 0.612536 -0.19675
C_ C_ 0.844397 0.534109 0.60358 -0.19675
C_ C_ 0.607463 0.526564 0.583007 0.08851
C_ C_ 0.872241 0.518406 0.583208 0.08851
C_ C_ 0.641212 0.565731 0.581629 -0.19675
C_ C_ 0.908523 0.555332 0.583258 -0.19675
C_ C_ 0.649383 0.611517 0.604221 0.19216
C_ C_ 0.915293 0.603765 0.605607 0.19216
C_ C_ 0.569012 0.884817 0.53169 0.19216
C_ C_ 0.808515 0.905148 0.518741 0.19216
C_ C_ 0.57945 0.928448 0.560713 -0.19675
C_ C_ 0.81695 0.952146 0.541283 -0.19675
C_ C_ 0.6116 0.968067 0.555267 0.08851
C_ C_ 0.855487 0.980264 0.554397 0.08851
C_ C_ 0.635539 0.961355 0.524574 -0.19675
C_ C_ 0.884709 0.961755 0.539691 -0.19675
C_ C_ 0.624877 0.913919 0.499774 0.19216
C_ C_ 0.87426 0.91426 0.518 0.19216
C_ C_ 0.552387 0.740356 0.558626 0.04924
C_ C_ 0.807545 0.75901 0.5744 0.04924
C_ C_ 0.531844 0.684074 0.55241 -0.19469
C_ C_ 0.78409 0.702129 0.561326 -0.19469
C_ C_ 0.552257 0.665146 0.58174 -0.19469
C_ C_ 0.802971 0.681394 0.590727 -0.19469
C_ C_ 0.591435 0.705831 0.587597 0.04924
C_ C_ 0.843457 0.721134 0.597191 0.04924
C_ C_ 0.571968 0.769814 0.527437 0.65653
C_ C_ 0.826677 0.7894 0.54324 0.65653
C_ C_ 0.488879 0.662173 0.54776 0.65653
C_ C_ 0.741445 0.682299 0.55587 0.65653
C_ C_ 0.529862 0.656691 0.617965 0.65653
C_ C_ 0.784087 0.674496 0.629013 0.65653
C_ C_ 0.620344 0.703839 0.559033 0.65653
C_ C_ 0.874492 0.718285 0.567077 0.65653
C_ C_ 0.629854 0.888313 0.633881 0.19216
C_ C_ 0.946444 0.947253 0.664139 0.19216
C_ C_ 0.628493 0.926636 0.663078 -0.19675
C_ C_ 0.935839 0.972917 0.698504 -0.19675
C_ C_ 0.653906 0.973261 0.662172 0.08851
C_ C_ 0.942513 0.0226517 0.700953 0.08851
C_ C_ 0.684791 0.979307 0.637104 -0.19675
C_ C_ 0.963134 0.0475603 0.673539 -0.19675
C_ C_ 0.682675 0.940414 0.606005 0.19216
C_ C_ 0.975175 0.0232008 0.641199 0.19216
C_ C_ 0.635831 0.601782 0.734658 0.19216
C_ C_ 0.877194 0.581321 0.727099 0.19216
C_ C_ 0.646477 0.567812 0.710157 -0.19675
C_ C_ 0.875995 0.539512 0.699669 -0.19675
C_ C_ 0.671666 0.546327 0.721803 0.08851
C_ C_ 0.908438 0.524916 0.69157 0.08851
C_ C_ 0.683192 0.556331 0.762385 -0.19675
C_ C_ 0.940863 0.550216 0.716238 -0.19675
C_ C_ 0.668432 0.58837 0.787113 0.19216
C_ C_ 0.940818 0.594397 0.741436 0.19216
C_ C_ 0.566692 0.765535 0.821138 0.04924
C_ C_ 0.823698 0.7515 0.811092 0.04924
C_ C_ 0.56317 0.711653 0.810173 -0.19469
C_ C_ 0.818156 0.695579 0.806857 -0.19469
C_ C_ 0.533514 0.68689 0.840715 -0.19469
C_ C_ 0.789099 0.679071 0.837875 -0.19469
C_ C_ 0.775123 0.722661 0.843082 0.04924
C_ C_ 0.0129971 0.718025 0.854265 0.04924
C_ C_ 0.568928 0.796998 0.788512 0.65653
C_ C_ 0.817248 0.77462 0.776485 0.65653
C_ C_ 0.596021 0.691578 0.800262 0.65653
C_ C_ 0.851868 0.67593 0.807179 0.65653
C_ C_ 0.547919 0.684848 0.879801 0.65653
C_ C_ 0.8037 0.672882 0.877291 0.65653
C_ C_ 0.739201 0.718451 0.820468 0.65653
C_ C_ 0.978927 0.708743 0.825445 0.65653
C_ C_ 0.649773 0.917685 0.87378 0.19216
C_ C_ 0.917218 0.915245 0.86579 0.19216
C_ C_ 0.656538 0.962153 0.901714 -0.19675
C_ C_ 0.922033 0.962218 0.887121 -0.19675
C_ C_ 0.626481 0.975509 0.920197 0.08851
C_ C_ 0.894939 0.967926 0.915163 0.08851
C_ C_ 0.590637 0.93885 0.915348 -0.19675
C_ C_ 0.861857 0.927565 0.917429 -0.19675
C_ C_ 0.586882 0.891002 0.895918 0.19216
C_ C_ 0.857277 0.883119 0.891835 0.19216
C_ C_ 0.698268 0.596098 0.985095 0.19216
C_ C_ 0.930949 0.604902 0.965749 0.19216
C_ C_ 0.69029 0.549538 0.963936 -0.19675
C_ C_ 0.918101 0.562526 0.937895 -0.19675
C_ C_ 0.652727 0.521703 0.947341 0.08851
C_ C_ 0.888272 0.521816 0.946411 0.08851
C_ C_ 0.623372 0.544551 0.954972 -0.19675
C_ C_ 0.863886 0.532406 0.975692 -0.19675
C_ C_ 0.633471 0.589069 0.980294 0.19216
C_ C_ 0.875657 0.577006 0.00155275 0.19216
C_ C_ 0.69174 0.735372 0.922907 0.04924
C_ C_ 0.942356 0.746594 0.94548 0.04924
C_ C_ 0.718068 0.789577 0.937281 -0.19469
C_ C_ 0.962923 0.803032 0.954679 -0.19469
C_ C_ 0.701674 0.819476 0.911932 -0.19469
C_ C_ 0.946425 0.822909 0.92156 -0.19469
C_ C_ 0.659866 0.78419 0.904149 0.04924
C_ C_ 0.905999 0.781853 0.913873 0.04924
C_ C_ 0.675503 0.706617 0.955992 0.65653
C_ C_ 0.923234 0.720749 0.977704 0.65653
C_ C_ 0.76094 0.801967 0.940567 0.65653
C_ C_ 0.00648247 0.824785 0.964312 0.65653
C_ C_ 0.723386 0.833196 0.878031 0.65653
C_ C_ 0.968466 0.827266 0.885926 0.65653
C_ C_ 0.627338 0.78803 0.932091 0.65653
C_ C_ 0.874485 0.783037 0.942249 0.65653
C_ C_ 0.554541 0.553438 0.836523 0.19216
C_ C_ 0.882137 0.605454 0.869722 0.19216
C_ C_ 0.569363 0.526956 0.808199 -0.19675
C_ C_ 0.883721 0.566002 0.840016 -0.19675
C_ C_ 0.564531 0.476779 0.808067 0.08851
C_ C_ 0.85294 0.521281 0.831992 0.08851
C_ C_ 0.537909 0.45095 0.833252 -0.19675
C_ C_ 0.821156 0.518814 0.854309 -0.19675
C_ C_ 0.524734 0.479894 0.862109 0.19216
C_ C_ 0.821322 0.557566 0.884512 0.19216
C_ C_ 0.631402 0.926517 0.774827 0.19216
C_ C_ 0.860974 0.889129 0.761084 0.19216
C_ C_ 0.633801 0.970902 0.796618 -0.19675
C_ C_ 0.855458 0.929931 0.785251 -0.19675
C_ C_ 0.602114 0.987566 0.798298 0.08851
C_ C_ 0.833024 0.95506 0.770753 0.08851
C_ C_ 0.570148 0.9621 0.774612 -0.19675
C_ C_ 0.816459 0.939391 0.732297 -0.19675
C_ C_ 0.5667 0.914226 0.754485 0.19216
C_ C_ 0.828039 0.902387 0.707894 0.19216
N_ N_ 0.622476 0.619367 0.627954 -0.35746
N_ N_ 0.886271 0.615232 0.623076 -0.35746
N_ N_ 0.591013 0.880173 0.501135 -0.35746
N_ N_ 0.836886 0.886459 0.509568 -0.35746
N_ N_ 0.654187 0.897474 0.605978 -0.35746
N_ N_ 0.96536 0.973317 0.636652 -0.35746
N_ N_ 0.651778 0.615427 0.770705 -0.35746
N_ N_ 0.909555 0.607771 0.746734 -0.35746
N_ N_ 0.614489 0.880197 0.874811 -0.35746
N_ N_ 0.883411 0.880435 0.867191 -0.35746
N_ N_ 0.669061 0.610515 0.996122 -0.35746
N_ N_ 0.910433 0.610137 0.996318 -0.35746
N_ N_ 0.534214 0.530249 0.86313 -0.35746
N_ N_ 0.849956 0.601548 0.88939 -0.35746
N_ N_ 0.598807 0.899017 0.752944 -0.35746
N_ N_ 0.846817 0.876097 0.724079 -0.35746
O_ O_ 0.697543 0.729461 0.660215 -0.2869
O_ O_ 0.965385 0.727771 0.65564 -0.2869
O_ O_ 0.534049 0.676437 0.708035 -0.71937
O_ O_ 0.765315 0.676119 0.721238 -0.71937
O_ O_ 0.697398 0.679966 0.716597 -0.57331
O_ O_ 0.968129 0.686874 0.722517 -0.57331
O_ O_ 0.667894 0.723467 0.757219 -0.57331
O_ O_ 0.917435 0.706153 0.744741 -0.57331
O_ O_ 0.621761 0.799654 0.695149 -0.57331
O_ O_ 0.876588 0.778894 0.683767 -0.57331
O_ O_ 0.664191 0.873279 0.712698 -0.64513
O_ O_ 0.912702 0.845488 0.723686 -0.64513
O_ O_ 0.659679 0.797583 0.613819 -0.57331
O_ O_ 0.920607 0.808824 0.620353 -0.57331
O_ O_ 0.715287 0.848323 0.601214 -0.64513
O_ O_ 0.978337 0.863805 0.614413 -0.64513
O_ O_ 0.553993 0.833929 0.683684 -0.57331
O_ O_ 0.797874 0.804728 0.669036 -0.57331
O_ O_ 0.527993 0.761902 0.703443 -0.57331
O_ O_ 0.764038 0.753714 0.705711 -0.57331
O_ O_ 0.580182 0.749477 0.588774 -0.2869
O_ O_ 0.834739 0.76637 0.604484 -0.2869
O_ O_ 0.676817 0.809578 0.530459 -0.71937
O_ O_ 0.929405 0.848648 0.553497 -0.71937
O_ O_ 0.605199 0.803516 0.533931 -0.57331
O_ O_ 0.861805 0.819022 0.545947 -0.57331
O_ O_ 0.553341 0.76526 0.49396 -0.57331
O_ O_ 0.8058 0.783212 0.51169 -0.57331
O_ O_ 0.720694 0.712644 0.556167 -0.57331
O_ O_ 0.970871 0.701503 0.561328 -0.57331
O_ O_ 0.47284 0.614384 0.536673 -0.64513
O_ O_ 0.726352 0.634971 0.546826 -0.64513
O_ O_ 0.525678 0.693192 0.641372 -0.57331
O_ O_ 0.753304 0.686153 0.638807 -0.57331
O_ O_ 0.519727 0.612468 0.627578 -0.64513
O_ O_ 0.796869 0.647718 0.649367 -0.64513
O_ O_ 0.63376 0.666854 0.552484 -0.57331
O_ O_ 0.882726 0.678024 0.561067 -0.57331
O_ O_ 0.632929 0.737465 0.53765 -0.57331
O_ O_ 0.895207 0.756642 0.553235 -0.57331
O_ O_ 0.537764 0.769436 0.845216 -0.2869
O_ O_ 0.807043 0.764894 0.843158 -0.2869
O_ O_ 0.739747 0.820906 0.785017 -0.71937
O_ O_ 0.968306 0.816385 0.799154 -0.71937
O_ O_ 0.546623 0.825786 0.78918 -0.57331
O_ O_ 0.805126 0.811692 0.782106 -0.57331
O_ O_ 0.590679 0.795441 0.760094 -0.57331
O_ O_ 0.83376 0.767426 0.744367 -0.57331
O_ O_ 0.629556 0.711609 0.818787 -0.57331
O_ O_ 0.886483 0.702549 0.800929 -0.57331
O_ O_ 0.589794 0.649651 0.775612 -0.64513
O_ O_ 0.843006 0.628324 0.798514 -0.64513
O_ O_ 0.577913 0.672862 0.883271 -0.57331
O_ O_ 0.835501 0.704029 0.893614 -0.57331
O_ O_ 0.523288 0.680875 0.906461 -0.64513
O_ O_ 0.783362 0.638048 0.893676 -0.64513
O_ O_ 0.706759 0.686764 0.826824 -0.57331
O_ O_ 0.953228 0.664218 0.818748 -0.57331
O_ O_ 0.739944 0.747062 0.794211 -0.57331
O_ O_ 0.979519 0.740121 0.801099 -0.57331
O_ O_ 0.662164 0.734614 0.897772 -0.2869
O_ O_ 0.915498 0.737234 0.912815 -0.2869
O_ O_ 0.571884 0.663173 0.951238 -0.71937
O_ O_ 0.822085 0.677334 0.969641 -0.71937
O_ O_ 0.639016 0.68155 0.956098 -0.57331
O_ O_ 0.891783 0.681187 0.967978 -0.57331
O_ O_ 0.696326 0.708416 0.984954 -0.57331
O_ O_ 0.944544 0.720474 0.00710459 -0.57331
O_ O_ 0.534182 0.804759 0.94031 -0.57331
O_ O_ 0.778228 0.770234 0.94497 -0.57331
O_ O_ 0.782658 0.849324 0.943752 -0.64513
O_ O_ 0.0210223 0.873314 0.975812 -0.64513
O_ O_ 0.746171 0.809319 0.863943 -0.57331
O_ O_ 0.978377 0.791457 0.867472 -0.57331
O_ O_ 0.724422 0.875082 0.866901 -0.64513
O_ O_ 0.985079 0.870159 0.87732 -0.64513
O_ O_ 0.620337 0.829182 0.941819 -0.57331
O_ O_ 0.864056 0.821803 0.949653 -0.57331
O_ O_ 0.608799 0.753126 0.949406 -0.57331
O_ O_ 0.859013 0.74739 0.960656 -0.57331
_cell_length_a 37.182
_cell_length_b 28.859999711636867
_cell_length_c 34.91799971958237
_cell_angle_alpha 99.03900022175671
_cell_angle_beta 89.94700000122975
_cell_angle_gamma 108.70800079762363
_symmetry_space_group_name_H-M         'P 1'
_symmetry_Int_Tables_number            1
loop_
_symmetry_equiv_pos_as_xyz
   'x, y, z'
                         
loop_
_atom_site_label
_atom_site_type_symbol
_atom_site_fract_x 
_atom_site_fract_y
_atom_site_fract_z
_atom_site_charge
Zn Zn 0.255495 0.200179 0.184484 0.88731
Zn Zn 0.491257 0.20492 0.186307 0.88731
Zn Zn 0.159591 0.170542 0.269817 0.96553
Zn Zn 0.413863 0.191509 0.292915 0.96553
Zn Zn 0.14181 0.316224 0.0736077 0.88731
Zn Zn 0.398888 0.312823 0.0631205 0.88731
Zn Zn 0.0724224 0.323044 0.482713 0.96553
Zn Zn 0.322235 0.319253 0.467494 0.96553
Zn Zn 0.013647 0.313872 0.315249 0.88731
Zn Zn 0.245387 0.306388 0.316925 0.88731
Zn Zn 0.0820565 0.305914 0.204911 0.96553
Zn Zn 0.340776 0.340162 0.226873 0.96553
Zn Zn 0.0989721 0.196784 0.43007 0.88731
Zn Zn 0.351424 0.192356 0.431896 0.88731
Zn Zn 0.178095 0.18409 0.0306662 0.96553
Zn Zn 0.427532 0.181751 0.0215931 0.96553
H_ H_ 0.0379156 0.175351 0.199301 0.44417
H_ H_ 0.277955 0.154443 0.205642 0.44417
H_ H_ 0.0102222 0.180665 0.235 0.44417
H_ H_ 0.307353 0.20992 0.211152 0.44417
H_ H_ 0.158469 0.216131 0.161613 0.33755
H_ H_ 0.395725 0.226793 0.182753 0.33755
H_ H_ 0.204081 0.300672 0.218269 0.33755
H_ H_ 0.444617 0.319081 0.225334 0.33755
H_ H_ 0.978677 0.348194 0.167825 0.33755
H_ H_ 0.234502 0.357151 0.172563 0.33755
H_ H_ 0.988995 0.266763 0.117466 0.33755
H_ H_ 0.262229 0.289437 0.129059 0.33755
H_ H_ 0.0814927 0.0986668 0.131534 0.33755
H_ H_ 0.314481 0.0887788 0.156547 0.33755
H_ H_ 0.0677653 0.027377 0.0829297 0.33755
H_ H_ 0.309673 0.0058292 0.122461 0.33755
H_ H_ 0.185191 0.0518475 0.0726066 0.33755
H_ H_ 0.412275 0.0726899 0.0655985 0.33755
H_ H_ 0.200308 0.130788 0.114125 0.33755
H_ H_ 0.423435 0.153331 0.118315 0.33755
H_ H_ 0.0227592 0.375109 0.0160175 0.33755
H_ H_ 0.291508 0.360834 0.0342814 0.33755
H_ H_ 0.034158 0.461455 0.0468408 0.33755
H_ H_ 0.31511 0.434274 0.0856738 0.33755
H_ H_ 0.154543 0.478253 0.0547238 0.33755
H_ H_ 0.413865 0.492234 0.0180152 0.33755
H_ H_ 0.144576 0.399831 0.518807 0.33755
H_ H_ 0.388433 0.407197 0.47782 0.33755
H_ H_ 0.1861 0.376893 0.0629011 0.44417
H_ H_ 0.431276 0.360075 0.0242839 0.44417
H_ H_ 0.177688 0.333568 0.028733 0.44417
H_ H_ 0.449717 0.321936 0.0374607 0.44417
H_ H_ 0.0412037 0.28785 0.0849352 0.33755
H_ H_ 0.291174 0.276214 0.0671673 0.33755
H_ H_ 0.0340725 0.195759 0.0310808 0.33755
H_ H_ 0.286255 0.173133 0.0237709 0.33755
H_ H_ 0.051095 0.142597 0.0686382 0.33755
H_ H_ 0.308915 0.136831 0.0733665 0.33755
H_ H_ 0.104601 0.217777 0.125829 0.33755
H_ H_ 0.365986 0.221925 0.110459 0.33755
H_ H_ 0.182637 0.407696 0.142616 0.33755
H_ H_ 0.346738 0.361248 0.130224 0.33755
H_ H_ 0.156732 0.443173 0.199694 0.33755
H_ H_ 0.349829 0.432961 0.184942 0.33755
H_ H_ 0.20771 0.588135 0.165813 0.33755
H_ H_ 0.450992 0.514484 0.140928 0.33755
H_ H_ 0.230162 0.549819 0.108548 0.33755
H_ H_ 0.455376 0.441605 0.105164 0.33755
H_ H_ 0.0921144 0.0845957 0.231587 0.33755
H_ H_ 0.364919 0.116013 0.225278 0.33755
H_ H_ 0.0919234 0.0141581 0.174894 0.33755
H_ H_ 0.379338 0.0452702 0.184692 0.33755
H_ H_ 0.203408 0.0305848 0.218122 0.33755
H_ H_ 0.455157 0.04635 0.27743 0.33755
H_ H_ 0.207883 0.114104 0.253645 0.33755
H_ H_ 0.425309 0.103667 0.319237 0.33755
H_ H_ 0.230248 0.35314 0.28808 0.44417
H_ H_ 0.469237 0.328838 0.289658 0.44417
H_ H_ 0.195527 0.305051 0.291206 0.44417
H_ H_ 0.508752 0.345435 0.269925 0.44417
H_ H_ 0.102042 0.278438 0.312979 0.33755
H_ H_ 0.340643 0.284109 0.32958 0.33755
H_ H_ 0.0596528 0.183893 0.271466 0.33755
H_ H_ 0.301699 0.196295 0.275979 0.33755
H_ H_ 0.265554 0.145766 0.322727 0.33755
H_ H_ 0.514065 0.142475 0.325121 0.33755
H_ H_ 0.243616 0.220195 0.365665 0.33755
H_ H_ 0.515245 0.226983 0.378388 0.33755
H_ H_ 0.1741 0.391185 0.340011 0.33755
H_ H_ 0.416087 0.40072 0.353218 0.33755
H_ H_ 0.19242 0.479409 0.379608 0.33755
H_ H_ 0.436176 0.474037 0.404152 0.33755
H_ H_ 0.0873777 0.432092 0.437907 0.33755
H_ H_ 0.313624 0.45219 0.425041 0.33755
H_ H_ 0.0718069 0.351253 0.395085 0.33755
H_ H_ 0.301114 0.372903 0.375041 0.33755
H_ H_ 0.208582 0.135964 0.464522 0.33755
H_ H_ 0.473424 0.12673 0.478405 0.33755
H_ H_ 0.185448 0.0637933 0.414697 0.33755
H_ H_ 0.463867 0.0471848 0.445061 0.33755
H_ H_ 0.0948398 0.006299999999999972 0.485117 0.33755
H_ H_ 0.342247 0.0201802 0.443377 0.33755
H_ H_ 0.106974 0.103892 0.0184282 0.33755
H_ H_ 0.363161 0.100487 0.996129 0.33755
H_ H_ 0.0613452 0.167068 0.471272 0.44417
H_ H_ 0.301611 0.189078 0.457709 0.44417
H_ H_ 0.0479692 0.206224 0.452256 0.44417
H_ H_ 0.311793 0.143435 0.46338 0.44417
H_ H_ 0.208674 0.227068 0.428163 0.33755
H_ H_ 0.458718 0.217949 0.416948 0.33755
H_ H_ 0.214461 0.313146 0.479644 0.33755
H_ H_ 0.459579 0.311789 0.46795 0.33755
H_ H_ 0.198312 0.365644 0.431193 0.33755
H_ H_ 0.442439 0.353421 0.418551 0.33755
H_ H_ 0.140014 0.290112 0.38267 0.33755
H_ H_ 0.392716 0.278951 0.371613 0.33755
H_ H_ 0.155792 0.161673 0.366028 0.33755
H_ H_ 0.334316 0.100182 0.369177 0.33755
H_ H_ 0.15905 0.0899574 0.317255 0.33755
H_ H_ 0.344098 0.0570083 0.301894 0.33755
H_ H_ 0.0569313 0.998683 0.361283 0.33755
H_ H_ 0.284762 0.916224 0.336792 0.33755
H_ H_ 0.0569582 0.0696892 0.408964 0.33755
H_ H_ 0.263802 0.96112 0.394527 0.33755
H_ H_ 0.130257 0.378268 0.269155 0.33755
H_ H_ 0.401394 0.422372 0.277902 0.33755
H_ H_ 0.107918 0.439685 0.315303 0.33755
H_ H_ 0.401729 0.494648 0.324213 0.33755
H_ H_ 0.038674 0.454215 0.223203 0.33755
H_ H_ 0.2882 0.477525 0.284313 0.33755
H_ H_ 0.0695604 0.397958 0.176776 0.33755
H_ H_ 0.286158 0.39629 0.239422 0.33755
C_ C_ 0.187328 0.236341 0.174534 0.04924
C_ C_ 0.426099 0.250794 0.188791 0.04924
C_ C_ 0.189801 0.290393 0.188705 -0.19469
C_ C_ 0.428747 0.304906 0.196155 -0.19469
C_ C_ 0.217843 0.318394 0.160595 -0.19469
C_ C_ 0.456567 0.324649 0.164429 -0.19469
C_ C_ 0.977726 0.26848 0.147491 0.04924
C_ C_ 0.243945 0.284794 0.156211 0.04924
C_ C_ 0.185334 0.202252 0.204067 0.65653
C_ C_ 0.432959 0.223542 0.221028 0.65653
C_ C_ 0.154322 0.305861 0.198068 0.65653
C_ C_ 0.39975 0.328846 0.202224 0.65653
C_ C_ 0.202033 0.323011 0.119952 0.65653
C_ C_ 0.443134 0.333272 0.127357 0.65653
C_ C_ 0.0119115 0.279856 0.176782 0.65653
C_ C_ 0.274328 0.296757 0.188448 0.65653
C_ C_ 0.104303 0.0861966 0.122686 0.19216
C_ C_ 0.337438 0.0836708 0.139616 0.19216
C_ C_ 0.0932799 0.0413051 0.0979948 -0.19675
C_ C_ 0.334502 0.0372588 0.117465 -0.19675
C_ C_ 0.122425 0.0240112 0.0811319 0.08851
C_ C_ 0.361525 0.0326764 0.0921696 0.08851
C_ C_ 0.160605 0.0572809 0.0884619 -0.19675
C_ C_ 0.392843 0.076201 0.0901253 -0.19675
C_ C_ 0.169718 0.104534 0.10945 0.19216
C_ C_ 0.396076 0.121549 0.114081 0.19216
C_ C_ 0.0510164 0.397607 0.0248248 0.19216
C_ C_ 0.318788 0.389685 0.0307553 0.19216
C_ C_ 0.0577567 0.445359 0.0424948 -0.19675
C_ C_ 0.329752 0.433992 0.0570865 -0.19675
C_ C_ 0.094534 0.472094 0.0585319 0.08851
C_ C_ 0.36594 0.471088 0.0549101 0.08851
C_ C_ 0.124311 0.456772 0.0467961 -0.19675
C_ C_ 0.389355 0.461942 0.0257989 -0.19675
C_ C_ 0.116443 0.410405 0.0227868 0.19216
C_ C_ 0.376166 0.416715 1.000291086 0.19216
C_ C_ 0.0570069 0.263794 0.0723584 0.04924
C_ C_ 0.310182 0.251612 0.0587645 0.04924
C_ C_ 0.0319579 0.208237 0.0619181 -0.19469
C_ C_ 0.287496 0.194462 0.0548662 -0.19469
C_ C_ 0.052053 0.181234 0.0853204 -0.19469
C_ C_ 0.309601 0.175178 0.0831349 -0.19469
C_ C_ 0.0921407 0.221581 0.0978764 0.04924
C_ C_ 0.347431 0.220115 0.0856868 0.04924
C_ C_ 0.0760529 0.286796 0.0382058 0.65653
C_ C_ 0.325267 0.274209 0.0236592 0.65653
C_ C_ 0.988039 0.188468 0.0576462 0.65653
C_ C_ 0.244427 0.179449 0.0534754 0.65653
C_ C_ 0.0312926 0.167263 0.12217 0.65653
C_ C_ 0.289576 0.172487 0.121228 0.65653
C_ C_ 0.125179 0.219898 0.0698648 0.65653
C_ C_ 0.374889 0.213947 0.0547314 0.65653
C_ C_ 0.187865 0.447158 0.147442 0.19216
C_ C_ 0.369903 0.395008 0.135361 0.19216
C_ C_ 0.171462 0.466929 0.179343 -0.19675
C_ C_ 0.368717 0.43714 0.162565 -0.19675
C_ C_ 0.177615 0.517604 0.185706 0.08851
C_ C_ 0.401068 0.479891 0.167833 0.08851
C_ C_ 0.200838 0.548579 0.161089 -0.19675
C_ C_ 0.430719 0.480719 0.144237 -0.19675
C_ C_ 0.215159 0.526029 0.129742 0.19216
C_ C_ 0.430008 0.439974 0.117667 0.19216
C_ C_ 0.116628 0.0765646 0.222063 0.19216
C_ C_ 0.385069 0.101252 0.235849 0.19216
C_ C_ 0.114821 0.031856 0.198648 -0.19675
C_ C_ 0.394216 0.0624862 0.213346 -0.19675
C_ C_ 0.147209 0.0173859 0.194995 0.08851
C_ C_ 0.419855 0.0421528 0.226499 0.08851
C_ C_ 0.179181 0.0445947 0.216916 -0.19675
C_ C_ 0.435553 0.059685 0.264585 -0.19675
C_ C_ 0.181006 0.0912633 0.237408 0.19216
C_ C_ 0.424786 0.0987037 0.286965 0.19216
C_ C_ 0.0721482 0.256232 0.309469 0.04924
C_ C_ 0.312249 0.264638 0.315594 0.04924
C_ C_ 0.0677964 0.199768 0.302835 -0.19469
C_ C_ 0.309814 0.210567 0.306758 -0.19469
C_ C_ 0.0351444 0.176057 0.327373 -0.19469
C_ C_ 0.28202 0.18555 0.335447 -0.19469
C_ C_ 0.258912 0.219555 0.338857 0.04924
C_ C_ 0.522156 0.223685 0.346733 0.04924
C_ C_ 0.0651422 0.280977 0.277323 0.65653
C_ C_ 0.310236 0.291772 0.282732 0.65653
C_ C_ 0.101601 0.182011 0.302597 0.65653
C_ C_ 0.343932 0.191818 0.300239 0.65653
C_ C_ 0.0512511 0.168524 0.365796 0.65653
C_ C_ 0.297572 0.178767 0.372994 0.65653
C_ C_ 0.225707 0.209295 0.307895 0.65653
C_ C_ 0.486555 0.223889 0.323532 0.65653
C_ C_ 0.154895 0.403686 0.360756 0.19216
C_ C_ 0.396399 0.414007 0.371588 0.19216
C_ C_ 0.166001 0.451588 0.383351 -0.19675
C_ C_ 0.405406 0.456215 0.399808 -0.19675
C_ C_ 0.142785 0.464575 0.41096 0.08851
C_ C_ 0.376881 0.475105 0.417498 0.08851
C_ C_ 0.106608 0.429838 0.413795 -0.19675
C_ C_ 0.338112 0.444604 0.408846 -0.19675
C_ C_ 0.0964195 0.379965 0.39161 0.19216
C_ C_ 0.329686 0.400792 0.379472 0.19216
C_ C_ 0.181986 0.108752 0.466954 0.19216
C_ C_ 0.445594 0.100733 0.474933 0.19216
C_ C_ 0.171463 0.0645191 0.441431 -0.19675
C_ C_ 0.439296 0.054852 0.454672 -0.19675
C_ C_ 0.137742 0.0263484 0.446006 0.08851
C_ C_ 0.402159 0.0257203 0.441457 0.08851
C_ C_ 0.116018 0.0354427 0.476005 -0.19675
C_ C_ 0.372079 0.042116 0.454513 -0.19675
C_ C_ 0.128784 0.076988 0.504486 0.19216
C_ C_ 0.378486 0.0843237 0.481025 0.19216
C_ C_ 0.189683 0.248969 0.437769 0.04924
C_ C_ 0.439443 0.241069 0.426774 0.04924
C_ C_ 0.214839 0.303074 0.447955 -0.19469
C_ C_ 0.463 0.295729 0.436056 -0.19469
C_ C_ 0.195935 0.326826 0.420943 -0.19469
C_ C_ 0.444616 0.31884 0.406933 -0.19469
C_ C_ 0.155139 0.289354 0.411759 0.04924
C_ C_ 0.404298 0.280144 0.401355 0.04924
C_ C_ 0.17052 0.217331 0.467334 0.65653
C_ C_ 0.422864 0.21425 0.459813 0.65653
C_ C_ 0.256208 0.317089 0.448863 0.65653
C_ C_ 0.506259 0.314832 0.439812 0.65653
C_ C_ 0.21607 0.33121 0.383715 0.65653
C_ C_ 0.466329 0.328219 0.370287 0.65653
C_ C_ 0.124467 0.293168 0.441083 0.65653
C_ C_ 0.375749 0.289324 0.430393 0.65653
C_ C_ 0.133691 0.125116 0.364447 0.19216
C_ C_ 0.319711 0.0595608 0.35926 0.19216
C_ C_ 0.134095 0.0845555 0.336187 -0.19675
C_ C_ 0.328716 0.0370948 0.323653 -0.19675
C_ C_ 0.108577 0.0392116 0.33583 0.08851
C_ C_ 0.320696 0.985515 0.319647 0.08851
C_ C_ 0.0812998 0.0321806 0.363474 -0.19675
C_ C_ 0.295768 0.95782 0.343284 -0.19675
C_ C_ 0.0813955 0.0736077 0.391745 0.19216
C_ C_ 0.282423 0.981634 0.375372 0.19216
C_ C_ 0.109888 0.39356 0.259716 0.19216
C_ C_ 0.376499 0.432683 0.27821 0.19216
C_ C_ 0.0990122 0.429819 0.28469 -0.19675
C_ C_ 0.376482 0.473291 0.304608 -0.19675
C_ C_ 0.0729773 0.451162 0.271041 0.08851
C_ C_ 0.345403 0.490892 0.306812 0.08851
C_ C_ 0.0613259 0.438949 0.231913 -0.19675
C_ C_ 0.312351 0.46389 0.283277 -0.19675
C_ C_ 0.0730612 0.403188 0.208207 0.19216
C_ C_ 0.311862 0.417848 0.260395 0.19216
N_ N_ 0.141964 0.114031 0.130478 -0.35746
N_ N_ 0.368449 0.123957 0.138915 -0.35746
N_ N_ 0.0804025 0.383093 0.0108929 -0.35746
N_ N_ 0.343083 0.381357 0.00563807 -0.35746
N_ N_ 0.206843 0.476205 0.122291 -0.35746
N_ N_ 0.401967 0.397805 0.114193 -0.35746
N_ N_ 0.148539 0.103599 0.241448 -0.35746
N_ N_ 0.40378 0.121635 0.270576 -0.35746
N_ N_ 0.118811 0.373896 0.363103 -0.35746
N_ N_ 0.358425 0.387422 0.364186 -0.35746
N_ N_ 0.161742 0.111398 0.499417 -0.35746
N_ N_ 0.416292 0.11258 0.492598 -0.35746
N_ N_ 0.110116 0.116299 0.393335 -0.35746
N_ N_ 0.296197 0.0322256 0.382673 -0.35746
N_ N_ 0.0937264 0.3789 0.22285 -0.35746
N_ N_ 0.345018 0.406049 0.25531 -0.35746
O_ O_ 0.217501 0.234632 0.1501 -0.2869
O_ O_ 0.448895 0.243437 0.157099 -0.2869
O_ O_ 0.0177947 0.177857 0.211645 -0.71937
O_ O_ 0.285841 0.184874 0.206414 -0.71937
O_ O_ 0.213079 0.185622 0.213283 -0.57331
O_ O_ 0.449965 0.19034 0.215026 -0.57331
O_ O_ 0.15726 0.198478 0.226668 -0.57331
O_ O_ 0.419053 0.231769 0.25448 -0.57331
O_ O_ 0.121333 0.280129 0.182388 -0.57331
O_ O_ 0.36505 0.300759 0.202559 -0.57331
O_ O_ 0.158961 0.34754 0.220047 -0.64513
O_ O_ 0.406722 0.374451 0.215525 -0.64513
O_ O_ 0.167194 0.327026 0.119312 -0.57331
O_ O_ 0.414143 0.302165 0.109411 -0.57331
O_ O_ 0.226809 0.347132 0.0981575 -0.64513
O_ O_ 0.467574 0.361976 0.109188 -0.64513
O_ O_ 0.0458701 0.304404 0.166777 -0.57331
O_ O_ 0.301373 0.337217 0.191284 -0.57331
O_ O_ 0.0116195 0.251333 0.202738 -0.57331
O_ O_ 0.276115 0.263141 0.208536 -0.57331
O_ O_ 0.0849379 0.266603 0.100188 -0.2869
O_ O_ 0.338379 0.26266 0.0877877 -0.2869
O_ O_ 0.172389 0.351118 0.0486902 -0.71937
O_ O_ 0.434364 0.338439 0.0369805 -0.71937
O_ O_ 0.10909 0.321762 0.0422632 -0.57331
O_ O_ 0.360901 0.30162 0.0218752 -0.57331
O_ O_ 0.0545367 0.283285 0.00796435 -0.57331
O_ O_ 0.300765 0.275459 0.997834 -0.57331
O_ O_ 0.226017 0.210269 0.0583471 -0.57331
O_ O_ 0.475573 0.223299 0.043802 -0.57331
O_ O_ 0.971895 0.139591 0.0528236 -0.64513
O_ O_ 0.226122 0.132193 0.0509909 -0.64513
O_ O_ 0.00930403 0.190882 0.135496 -0.57331
O_ O_ 0.278682 0.208367 0.138223 -0.57331
O_ O_ 0.0305849 0.126504 0.132577 -0.64513
O_ O_ 0.278571 0.129546 0.13273 -0.64513
O_ O_ 0.133416 0.178392 0.0603406 -0.57331
O_ O_ 0.381578 0.171256 0.0449658 -0.57331
O_ O_ 0.143325 0.258471 0.0534773 -0.57331
O_ O_ 0.40287 0.25129 0.0470212 -0.57331
O_ O_ 0.0485859 0.263892 0.33982 -0.2869
O_ O_ 0.284963 0.266999 0.343606 -0.2869
O_ O_ 0.216908 0.32484 0.292918 -0.71937
O_ O_ 0.491677 0.33165 0.285408 -0.71937
O_ O_ 0.0512051 0.317231 0.28297 -0.57331
O_ O_ 0.28768 0.319307 0.28553 -0.57331
O_ O_ 0.0804643 0.271834 0.244051 -0.57331
O_ O_ 0.340279 0.305313 0.265831 -0.57331
O_ O_ 0.134008 0.211824 0.297468 -0.57331
O_ O_ 0.377524 0.216776 0.316321 -0.57331
O_ O_ 0.0952922 0.1353 0.291901 -0.64513
O_ O_ 0.339277 0.147205 0.281428 -0.64513
O_ O_ 0.0827485 0.199929 0.382901 -0.57331
O_ O_ 0.334689 0.196255 0.38262 -0.57331
O_ O_ 0.0335741 0.132401 0.383052 -0.64513
O_ O_ 0.277828 0.141968 0.391213 -0.64513
O_ O_ 0.197043 0.169455 0.305836 -0.57331
O_ O_ 0.452958 0.199279 0.332977 -0.57331
O_ O_ 0.222156 0.245198 0.291692 -0.57331
O_ O_ 0.488707 0.245801 0.293588 -0.57331
O_ O_ 0.163274 0.245547 0.407359 -0.2869
O_ O_ 0.410463 0.234961 0.400552 -0.2869
O_ O_ 0.0620774 0.189463 0.457333 -0.71937
O_ O_ 0.315493 0.171742 0.457092 -0.71937
O_ O_ 0.135148 0.184858 0.460907 -0.57331
O_ O_ 0.38855 0.180765 0.45719 -0.57331
O_ O_ 0.191641 0.215668 0.496502 -0.57331
O_ O_ 0.446542 0.216632 0.487988 -0.57331
O_ O_ 0.026519 0.293225 0.456032 -0.57331
O_ O_ 0.272834 0.285388 0.449463 -0.57331
O_ O_ 0.276508 0.363649 0.44865 -0.64513
O_ O_ 0.523165 0.362124 0.447701 -0.64513
O_ O_ 0.220587 0.294296 0.361174 -0.57331
O_ O_ 0.497395 0.318391 0.363951 -0.57331
O_ O_ 0.234218 0.374984 0.377077 -0.64513
O_ O_ 0.460804 0.363673 0.354208 -0.64513
O_ O_ 0.114447 0.332499 0.450128 -0.57331
O_ O_ 0.366457 0.329027 0.435701 -0.57331
O_ O_ 0.109077 0.255884 0.459023 -0.57331
O_ O_ 0.359481 0.255127 0.45208 -0.57331
Zn Zn 0.253752 0.195541 0.683199 0.88731
Zn Zn 0.486066 0.191078 0.684708 0.88731
Zn Zn 0.159567 0.167781 0.76932 0.96553
Zn Zn 0.4131 0.191016 0.794014 0.96553
Zn Zn 0.145905 0.302323 0.570787 0.88731
Zn Zn 0.394587 0.304853 0.562705 0.88731
Zn Zn 0.073633 0.322984 0.976775 0.96553
Zn Zn 0.324643 0.321795 0.966984 0.96553
Zn Zn 0.0114227 0.309678 0.811956 0.88731
Zn Zn 0.24239 0.302883 0.81719 0.88731
Zn Zn 0.0845644 0.306884 0.696774 0.96553
Zn Zn 0.338941 0.337466 0.72889 0.96553
Zn Zn 0.105299 0.196808 0.928734 0.88731
Zn Zn 0.351065 0.18748 0.924911 0.88731
Zn Zn 0.174101 0.174706 0.533359 0.96553
Zn Zn 0.42538 0.177222 0.523266 0.96553
H_ H_ 0.9999868797 0.168095 0.736261 0.44417
H_ H_ 0.304009 0.197133 0.709661 0.44417
H_ H_ 0.0287047 0.16173 0.705928 0.44417
H_ H_ 0.273453 0.143291 0.703308 0.44417
H_ H_ 0.159274 0.21457 0.663598 0.33755
H_ H_ 0.396109 0.229922 0.686168 0.33755
H_ H_ 0.202799 0.307393 0.715393 0.33755
H_ H_ 0.448167 0.3256 0.723655 0.33755
H_ H_ 0.979795 0.349626 0.672557 0.33755
H_ H_ 0.239554 0.354993 0.66893 0.33755
H_ H_ 0.981839 0.259526 0.624 0.33755
H_ H_ 0.261265 0.286268 0.627718 0.33755
H_ H_ 0.0837638 0.0958497 0.637159 0.33755
H_ H_ 0.316592 0.0892833 0.647383 0.33755
H_ H_ 0.0666472 0.0207833 0.587243 0.33755
H_ H_ 0.314222 0.00702658 0.616974 0.33755
H_ H_ 0.186728 0.0449336 0.578401 0.33755
H_ H_ 0.41834 0.0644417 0.563221 0.33755
H_ H_ 0.198489 0.127491 0.614991 0.33755
H_ H_ 0.422177 0.148091 0.600952 0.33755
H_ H_ 0.0259279 0.371788 0.527552 0.33755
H_ H_ 0.285955 0.357043 0.534608 0.33755
H_ H_ 0.0344239 0.45145 0.557856 0.33755
H_ H_ 0.3051 0.437078 0.579025 0.33755
H_ H_ 0.152669 0.477005 0.564466 0.33755
H_ H_ 0.405757 0.489177 0.516603 0.33755
H_ H_ 0.140318 0.396409 0.0161352 0.33755
H_ H_ 0.396025 0.40699 0.982043 0.33755
H_ H_ 0.193406 0.352474 0.547402 0.44417
H_ H_ 0.424733 0.327541 0.515466 0.44417
H_ H_ 0.16434 0.308724 0.515259 0.44417
H_ H_ 0.451854 0.31567 0.544873 0.44417
H_ H_ 0.0405394 0.277111 0.585742 0.33755
H_ H_ 0.292981 0.276822 0.568379 0.33755
H_ H_ 0.0423734 0.189454 0.534682 0.33755
H_ H_ 0.285383 0.180857 0.519226 0.33755
H_ H_ 0.0512354 0.137411 0.578434 0.33755
H_ H_ 0.30276 0.13574 0.569371 0.33755
H_ H_ 0.100499 0.210891 0.632116 0.33755
H_ H_ 0.360167 0.211883 0.613696 0.33755
H_ H_ 0.186388 0.408671 0.647977 0.33755
H_ H_ 0.361485 0.356511 0.630815 0.33755
H_ H_ 0.156974 0.446608 0.698193 0.33755
H_ H_ 0.352985 0.425698 0.677035 0.33755
H_ H_ 0.221393 0.589146 0.669012 0.33755
H_ H_ 0.451136 0.528403 0.639904 0.33755
H_ H_ 0.255848 0.546087 0.622614 0.33755
H_ H_ 0.453507 0.459464 0.586065 0.33755
H_ H_ 0.0886349 0.083917 0.727349 0.33755
H_ H_ 0.37464 0.13506 0.720009 0.33755
H_ H_ 0.0816768 0.00515953 0.688324 0.33755
H_ H_ 0.383202 0.062403 0.676455 0.33755
H_ H_ 0.203103 0.0350998 0.705783 0.33755
H_ H_ 0.441635 0.0327712 0.767304 0.33755
H_ H_ 0.207873 0.116187 0.747337 0.33755
H_ H_ 0.430953 0.0995459 0.811464 0.33755
H_ H_ 0.216167 0.350865 0.799158 0.44417
H_ H_ 0.470234 0.319078 0.791594 0.44417
H_ H_ 0.192912 0.295264 0.779252 0.44417
H_ H_ 0.503407 0.335723 0.762717 0.44417
H_ H_ 0.101996 0.277649 0.818092 0.33755
H_ H_ 0.339694 0.282931 0.835067 0.33755
H_ H_ 0.059886 0.187167 0.771318 0.33755
H_ H_ 0.292552 0.196978 0.778706 0.33755
H_ H_ 0.26195 0.142853 0.822444 0.33755
H_ H_ 0.514081 0.138085 0.830573 0.33755
H_ H_ 0.239023 0.211656 0.868689 0.33755
H_ H_ 0.512513 0.232677 0.872679 0.33755
H_ H_ 0.181651 0.411407 0.839535 0.33755
H_ H_ 0.417876 0.403019 0.857803 0.33755
H_ H_ 0.192342 0.490854 0.880565 0.33755
H_ H_ 0.43381 0.479829 0.908049 0.33755
H_ H_ 0.0962044 0.431588 0.940143 0.33755
H_ H_ 0.318877 0.447217 0.932148 0.33755
H_ H_ 0.0818142 0.350001 0.897359 0.33755
H_ H_ 0.304693 0.366542 0.893137 0.33755
H_ H_ 0.215244 0.136592 0.973723 0.33755
H_ H_ 0.479543 0.124484 0.997113 0.33755
H_ H_ 0.200077 0.0514108 0.934076 0.33755
H_ H_ 0.465071 0.0369021 0.961561 0.33755
H_ H_ 0.0848794 0.0273544 0.967991 0.33755
H_ H_ 0.351538 0.0340353 0.936476 0.33755
H_ H_ 0.114493 0.0813522 0.53016 0.33755
H_ H_ 0.355315 0.0971007 0.487821 0.33755
H_ H_ 0.0501083 0.188887 0.95211 0.44417
H_ H_ 0.320563 0.169639 0.976731 0.44417
H_ H_ 0.0762457 0.178083 0.981191 0.44417
H_ H_ 0.304965 0.128162 0.936845 0.44417
H_ H_ 0.210854 0.227317 0.92401 0.33755
H_ H_ 0.459456 0.222043 0.909352 0.33755
H_ H_ 0.213781 0.321275 0.977057 0.33755
H_ H_ 0.456655 0.307702 0.967158 0.33755
H_ H_ 0.19562 0.364606 0.932336 0.33755
H_ H_ 0.443482 0.355153 0.918353 0.33755
H_ H_ 0.145207 0.295982 0.884445 0.33755
H_ H_ 0.388457 0.284495 0.87198 0.33755
H_ H_ 0.154071 0.148649 0.860793 0.33755
H_ H_ 0.317458 0.0972398 0.842354 0.33755
H_ H_ 0.157113 0.0764769 0.815814 0.33755
H_ H_ 0.332643 0.0466637 0.782281 0.33755
H_ H_ 0.0614082 0.987282 0.868222 0.33755
H_ H_ 0.284479 0.915616 0.832523 0.33755
H_ H_ 0.0550541 0.0652397 0.906748 0.33755
H_ H_ 0.25928 0.965815 0.886706 0.33755
H_ H_ 0.125302 0.366357 0.76193 0.33755
H_ H_ 0.407089 0.420723 0.768792 0.33755
H_ H_ 0.111298 0.430395 0.812299 0.33755
H_ H_ 0.405461 0.49423 0.822034 0.33755
H_ H_ 0.0458222 0.456631 0.721183 0.33755
H_ H_ 0.293275 0.473147 0.783961 0.33755
H_ H_ 0.0595881 0.390597 0.676208 0.33755
H_ H_ 0.289583 0.390096 0.750728 0.33755
C_ C_ 0.188834 0.237023 0.677331 0.04924
C_ C_ 0.42691 0.246114 0.691536 0.04924
C_ C_ 0.189773 0.292803 0.686456 -0.19469
C_ C_ 0.434539 0.303467 0.696257 -0.19469
C_ C_ 0.220746 0.317672 0.658876 -0.19469
C_ C_ 0.461132 0.317201 0.662799 -0.19469
C_ C_ 0.974664 0.269525 0.654762 0.04924
C_ C_ 0.244212 0.279858 0.652648 0.04924
C_ C_ 0.189465 0.210944 0.709701 0.65653
C_ C_ 0.434105 0.22441 0.725315 0.65653
C_ C_ 0.155777 0.311582 0.688667 0.65653
C_ C_ 0.400532 0.324168 0.702613 0.65653
C_ C_ 0.207762 0.32497 0.618762 0.65653
C_ C_ 0.447267 0.329583 0.62672 0.65653
C_ C_ 0.0109519 0.275792 0.67781 0.65653
C_ C_ 0.277681 0.289517 0.680062 0.65653
C_ C_ 0.104627 0.087254 0.619878 0.19216
C_ C_ 0.338289 0.0824515 0.628895 0.19216
C_ C_ 0.096191 0.0414637 0.595562 -0.19675
C_ C_ 0.335629 0.0368495 0.608491 -0.19675
C_ C_ 0.126347 0.0232589 0.58197 0.08851
C_ C_ 0.361711 0.0287989 0.582295 0.08851
C_ C_ 0.164281 0.0561863 0.59001 -0.19675
C_ C_ 0.395313 0.0697412 0.580527 -0.19675
C_ C_ 0.170454 0.101718 0.611118 0.19216
C_ C_ 0.39899 0.116012 0.603942 0.19216
C_ C_ 0.0520102 0.398704 0.526886 0.19216
C_ C_ 0.312411 0.386182 0.532864 0.19216
C_ C_ 0.0581235 0.445176 0.548992 -0.19675
C_ C_ 0.322253 0.433003 0.556035 -0.19675
C_ C_ 0.0950682 0.475337 0.56165 0.08851
C_ C_ 0.358922 0.469884 0.554411 0.08851
C_ C_ 0.125762 0.459272 0.551319 -0.19675
C_ C_ 0.381777 0.45969 0.525332 -0.19675
C_ C_ 0.118707 0.414026 0.526122 0.19216
C_ C_ 0.369115 0.415226 0.498713 0.19216
C_ C_ 0.0589296 0.254558 0.574939 0.04924
C_ C_ 0.310372 0.252081 0.557978 0.04924
C_ C_ 0.0351118 0.19846 0.56489 -0.19469
C_ C_ 0.283155 0.195619 0.549816 -0.19469
C_ C_ 0.0518317 0.174534 0.593113 -0.19469
C_ C_ 0.302903 0.174677 0.579544 -0.19469
C_ C_ 0.0927134 0.213599 0.601614 0.04924
C_ C_ 0.34535 0.214392 0.586404 0.04924
C_ C_ 0.0736321 0.28494 0.542815 0.65653
C_ C_ 0.326442 0.273122 0.523789 0.65653
C_ C_ 0.991355 0.177631 0.561185 0.65653
C_ C_ 0.240795 0.18081 0.552155 0.65653
C_ C_ 0.0278481 0.162732 0.628939 0.65653
C_ C_ 0.28476 0.165713 0.617771 0.65653
C_ C_ 0.125935 0.208413 0.574162 0.65653
C_ C_ 0.374224 0.206102 0.556666 0.65653
C_ C_ 0.200931 0.445614 0.660896 0.19216
C_ C_ 0.380316 0.393862 0.63166 0.19216
C_ C_ 0.183273 0.468276 0.688286 -0.19675
C_ C_ 0.375258 0.43272 0.658196 -0.19675
C_ C_ 0.190139 0.520701 0.692042 0.08851
C_ C_ 0.400999 0.481005 0.662445 0.08851
C_ C_ 0.213598 0.547373 0.665171 -0.19675
C_ C_ 0.430877 0.490946 0.637129 -0.19675
C_ C_ 0.236255 0.52597 0.640392 0.19216
C_ C_ 0.433583 0.451059 0.608809 0.19216
C_ C_ 0.112681 0.071503 0.724582 0.19216
C_ C_ 0.384867 0.10957 0.731074 0.19216
C_ C_ 0.109704 0.0251152 0.701716 -0.19675
C_ C_ 0.38988 0.0692235 0.706818 -0.19675
C_ C_ 0.142524 0.0124341 0.695153 0.08851
C_ C_ 0.41624 0.04839 0.71927 0.08851
C_ C_ 0.177218 0.0451421 0.712691 -0.19675
C_ C_ 0.427486 0.0558749 0.756955 -0.19675
C_ C_ 0.179956 0.0911832 0.733848 0.19216
C_ C_ 0.417759 0.0907129 0.781922 0.19216
C_ C_ 0.0734694 0.256781 0.80806 0.04924
C_ C_ 0.311097 0.264401 0.821 0.04924
C_ C_ 0.0702359 0.20151 0.801488 -0.19469
C_ C_ 0.308181 0.209405 0.808982 -0.19469
C_ C_ 0.03905 0.179496 0.830309 -0.19469
C_ C_ 0.278783 0.181821 0.835501 -0.19469
C_ C_ 0.256308 0.217912 0.843044 0.04924
C_ C_ 0.522725 0.221985 0.844686 0.04924
C_ C_ 0.0656604 0.278798 0.772581 0.65653
C_ C_ 0.309079 0.296886 0.790896 0.65653
C_ C_ 0.100973 0.177949 0.801951 0.65653
C_ C_ 0.342864 0.19343 0.798908 0.65653
C_ C_ 0.0557032 0.175764 0.869301 0.65653
C_ C_ 0.293254 0.173788 0.872973 0.65653
C_ C_ 0.224047 0.208812 0.812219 0.65653
C_ C_ 0.485701 0.220155 0.823644 0.65653
C_ C_ 0.160409 0.417655 0.859822 0.19216
C_ C_ 0.39423 0.412968 0.87305 0.19216
C_ C_ 0.166715 0.462616 0.883779 -0.19675
C_ C_ 0.404305 0.457064 0.899941 -0.19675
C_ C_ 0.141006 0.469552 0.91232 0.08851
C_ C_ 0.377127 0.473991 0.917652 0.08851
C_ C_ 0.110451 0.428632 0.916905 -0.19675
C_ C_ 0.3391 0.439259 0.913756 -0.19675
C_ C_ 0.104897 0.384169 0.89286 0.19216
C_ C_ 0.330905 0.391493 0.891302 0.19216
C_ C_ 0.187753 0.109456 0.974193 0.19216
C_ C_ 0.451206 0.102205 0.983827 0.19216
C_ C_ 0.17886 0.061657 0.952276 -0.19675
C_ C_ 0.442104 0.0545329 0.964921 -0.19675
C_ C_ 0.139575 0.0300808 0.950931 0.08851
C_ C_ 0.406853 0.0307828 0.946005 0.08851
C_ C_ 0.11415 0.0470133 0.973409 -0.19675
C_ C_ 0.378131 0.0483444 0.953949 -0.19675
C_ C_ 0.126381 0.0907297 0.999626045 0.19216
C_ C_ 0.385266 0.0901859 0.982301 0.19216
C_ C_ 0.191209 0.249344 0.935522 0.04924
C_ C_ 0.437191 0.239731 0.921758 0.04924
C_ C_ 0.214977 0.303904 0.94659 -0.19469
C_ C_ 0.459433 0.294709 0.934506 -0.19469
C_ C_ 0.196734 0.328897 0.920554 -0.19469
C_ C_ 0.443918 0.319105 0.904017 -0.19469
C_ C_ 0.157171 0.291152 0.91008 0.04924
C_ C_ 0.402369 0.28021 0.897615 0.04924
C_ C_ 0.174583 0.224102 0.967121 0.65653
C_ C_ 0.423784 0.209384 0.953706 0.65653
C_ C_ 0.257932 0.318902 0.949779 0.65653
C_ C_ 0.50168 0.320117 0.942151 0.65653
C_ C_ 0.216018 0.33208 0.882885 0.65653
C_ C_ 0.469458 0.332108 0.870319 0.65653
C_ C_ 0.125617 0.29259 0.938728 0.65653
C_ C_ 0.371484 0.284817 0.927163 0.65653
C_ C_ 0.136365 0.112235 0.863426 0.19216
C_ C_ 0.311453 0.0577629 0.841146 0.19216
C_ C_ 0.137282 0.0706576 0.837018 -0.19675
C_ C_ 0.320424 0.0300456 0.807963 -0.19675
C_ C_ 0.104036 0.025983 0.833694 0.08851
C_ C_ 0.311993 0.980435 0.8067 0.08851
C_ C_ 0.0782663 0.023326 0.863906 -0.19675
C_ C_ 0.290089 0.955698 0.83471 -0.19675
C_ C_ 0.0806385 0.066665 0.890068 0.19216
C_ C_ 0.277393 0.983885 0.865559 0.19216
C_ C_ 0.110449 0.389557 0.752996 0.19216
C_ C_ 0.381476 0.431982 0.774284 0.19216
C_ C_ 0.100723 0.424788 0.781119 -0.19675
C_ C_ 0.381337 0.474099 0.801328 -0.19675
C_ C_ 0.0768868 0.448945 0.768609 0.08851
C_ C_ 0.350431 0.490062 0.804517 0.08851
C_ C_ 0.0617336 0.437287 0.730745 -0.19675
C_ C_ 0.318394 0.463857 0.782462 -0.19675
C_ C_ 0.0707877 0.400214 0.705362 0.19216
C_ C_ 0.316076 0.416292 0.761468 0.19216
N_ N_ 0.141062 0.115027 0.626828 -0.35746
N_ N_ 0.370199 0.120563 0.62621 -0.35746
N_ N_ 0.0825472 0.386834 0.513216 -0.35746
N_ N_ 0.332184 0.381679 0.499976 -0.35746
N_ N_ 0.227211 0.473854 0.637677 -0.35746
N_ N_ 0.406456 0.403923 0.605456 -0.35746
N_ N_ 0.148591 0.105411 0.736589 -0.35746
N_ N_ 0.402429 0.122963 0.768225 -0.35746
N_ N_ 0.129359 0.380284 0.865519 -0.35746
N_ N_ 0.358416 0.381388 0.870065 -0.35746
N_ N_ 0.161971 0.120679 0.999372 -0.35746
N_ N_ 0.42149 0.117147 0.994058 -0.35746
N_ N_ 0.109885 0.107951 0.890693 -0.35746
N_ N_ 0.28951 0.0342009 0.868502 -0.35746
N_ N_ 0.0903476 0.373814 0.719078 -0.35746
N_ N_ 0.347672 0.402733 0.755908 -0.35746
O_ O_ 0.216396 0.234357 0.649007 -0.2869
O_ O_ 0.449958 0.235489 0.660464 -0.2869
O_ O_ 0.00949825 0.168014 0.714507 -0.71937
O_ O_ 0.282011 0.174111 0.704408 -0.71937
O_ O_ 0.213112 0.18582 0.713026 -0.57331
O_ O_ 0.453964 0.194396 0.721245 -0.57331
O_ O_ 0.161527 0.206397 0.733183 -0.57331
O_ O_ 0.414394 0.227464 0.754822 -0.57331
O_ O_ 0.122001 0.281558 0.680891 -0.57331
O_ O_ 0.367307 0.296759 0.709022 -0.57331
O_ O_ 0.160029 0.358387 0.705274 -0.64513
O_ O_ 0.406686 0.371455 0.706139 -0.64513
O_ O_ 0.173479 0.326753 0.61438 -0.57331
O_ O_ 0.411864 0.309487 0.611819 -0.57331
O_ O_ 0.23698 0.351323 0.600553 -0.64513
O_ O_ 0.472664 0.355535 0.604584 -0.64513
O_ O_ 0.0420696 0.299668 0.66504 -0.57331
O_ O_ 0.300066 0.335504 0.691875 -0.57331
O_ O_ 0.0106519 0.250102 0.703333 -0.57331
O_ O_ 0.275991 0.259424 0.704129 -0.57331
O_ O_ 0.0867686 0.25911 0.604304 -0.2869
O_ O_ 0.339025 0.258577 0.586598 -0.2869
O_ O_ 0.173339 0.327849 0.537593 -0.71937
O_ O_ 0.431358 0.318772 0.535051 -0.71937
O_ O_ 0.108774 0.313748 0.544517 -0.57331
O_ O_ 0.359043 0.30894 0.529303 -0.57331
O_ O_ 0.0500422 0.283667 0.515885 -0.57331
O_ O_ 0.304285 0.270659 0.495339 -0.57331
O_ O_ 0.222056 0.212857 0.557693 -0.57331
O_ O_ 0.472293 0.211031 0.552437 -0.57331
O_ O_ 0.974285 0.129527 0.554387 -0.64513
O_ O_ 0.221019 0.132653 0.546188 -0.64513
O_ O_ 0.000310362 0.180935 0.637143 -0.57331
O_ O_ 0.278909 0.202181 0.640362 -0.57331
O_ O_ 0.0295556 0.125079 0.644789 -0.64513
O_ O_ 0.271095 0.11931 0.625085 -0.64513
O_ O_ 0.130032 0.165501 0.565907 -0.57331
O_ O_ 0.378301 0.163539 0.54782 -0.57331
O_ O_ 0.143491 0.242031 0.553117 -0.57331
O_ O_ 0.399062 0.243187 0.544133 -0.57331
O_ O_ 0.0498745 0.264198 0.838738 -0.2869
O_ O_ 0.283781 0.265057 0.848864 -0.2869
O_ O_ 0.209716 0.318545 0.792672 -0.71937
O_ O_ 0.493645 0.328428 0.784376 -0.71937
O_ O_ 0.043407 0.306269 0.775103 -0.57331
O_ O_ 0.288725 0.327311 0.797809 -0.57331
O_ O_ 0.0826021 0.270854 0.740825 -0.57331
O_ O_ 0.336014 0.305661 0.767307 -0.57331
O_ O_ 0.137008 0.205381 0.801199 -0.57331
O_ O_ 0.376786 0.215254 0.81687 -0.57331
O_ O_ 0.0905362 0.129465 0.792627 -0.64513
O_ O_ 0.335115 0.146857 0.778273 -0.64513
O_ O_ 0.0874876 0.208545 0.884077 -0.57331
O_ O_ 0.327966 0.175709 0.878052 -0.57331
O_ O_ 0.0366914 0.141435 0.888511 -0.64513
O_ O_ 0.268323 0.150588 0.893819 -0.64513
O_ O_ 0.197049 0.16672 0.80415 -0.57331
O_ O_ 0.452599 0.18671 0.825658 -0.57331
O_ O_ 0.226198 0.241586 0.790629 -0.57331
O_ O_ 0.486943 0.251393 0.799966 -0.57331
O_ O_ 0.164759 0.244898 0.905092 -0.2869
O_ O_ 0.407413 0.234868 0.89388 -0.2869
O_ O_ 0.0697365 0.185649 0.96021 -0.71937
O_ O_ 0.317677 0.155355 0.952682 -0.71937
O_ O_ 0.139265 0.19424 0.965004 -0.57331
O_ O_ 0.390666 0.174204 0.948906 -0.57331
O_ O_ 0.19739 0.22472 -0.005800000000000027 -0.57331
O_ O_ 0.445638 0.22075 0.984923 -0.57331
O_ O_ 0.0245267 0.290799 0.952737 -0.57331
O_ O_ 0.277358 0.289112 0.940998 -0.57331
O_ O_ 0.277131 0.367826 0.954864 -0.64513
O_ O_ 0.514328 0.370938 0.953255 -0.64513
O_ O_ 0.220579 0.29241 0.861303 -0.57331
O_ O_ 0.498902 0.316315 0.862692 -0.57331
O_ O_ 0.225439 0.373245 0.869108 -0.64513
O_ O_ 0.464396 0.364079 0.850828 -0.64513
O_ O_ 0.117244 0.333253 0.949977 -0.57331
O_ O_ 0.363122 0.326106 0.935364 -0.57331
O_ O_ 0.105406 0.253662 0.951591 -0.57331
O_ O_ 0.353307 0.246858 0.944478 -0.57331
Zn Zn 0.236636 0.693736 0.187175 0.88731
Zn Zn 0.499944 0.69745 0.181602 0.88731
Zn Zn 0.160231 0.686661 0.286765 0.96553
Zn Zn 0.415928 0.675564 0.278115 0.96553
Zn Zn 0.145927 0.800461 0.0666267 0.88731
Zn Zn 0.390205 0.803407 0.071782 0.88731
Zn Zn 0.0816077 0.820724 0.46835 0.96553
Zn Zn 0.328376 0.826376 0.481903 0.96553
Zn Zn 1.00320769 0.8163 0.323296 0.88731
Zn Zn 0.262294 0.806344 0.31388 0.88731
Zn Zn 0.0948913 0.838199 0.231153 0.96553
Zn Zn 0.33463 0.811581 0.206758 0.96553
Zn Zn 0.111498 0.693445 0.425606 0.88731
Zn Zn 0.352498 0.697474 0.432347 0.88731
Zn Zn 0.174206 0.672771 0.0200314 0.96553
Zn Zn 0.421685 0.67638 0.0329104 0.96553
H_ H_ 0.0530169 0.687501 0.208964 0.44417
H_ H_ 0.28562 0.691159 0.20528 0.44417
H_ H_ 0.0157227 0.640402 0.201233 0.44417
H_ H_ 0.25302 0.669522 0.236148 0.44417
H_ H_ 0.147933 0.730559 0.179546 0.33755
H_ H_ 0.409083 0.718679 0.163667 0.33755
H_ H_ 0.210192 0.81485 0.221129 0.33755
H_ H_ 0.45192 0.812266 0.21779 0.33755
H_ H_ 0.990896 0.860518 0.172617 0.33755
H_ H_ 0.236571 0.855371 0.169239 0.33755
H_ H_ 0.0155121 0.78381 0.133899 0.33755
H_ H_ 0.241176 0.770416 0.121671 0.33755
H_ H_ 0.0620673 0.590845 0.143816 0.33755
H_ H_ 0.328406 0.5939 0.13343 0.33755
H_ H_ 0.0605553 0.503604 0.113829 0.33755
H_ H_ 0.313253 0.518133 0.0901719 0.33755
H_ H_ 0.154736 0.555755 0.0516039 0.33755
H_ H_ 0.434913 0.555166 0.0652738 0.33755
H_ H_ 0.169533 0.638791 0.0994806 0.33755
H_ H_ 0.445981 0.633533 0.106177 0.33755
H_ H_ 0.0509045 0.859875 0.0449253 0.33755
H_ H_ 0.274922 0.888766 0.0213244 0.33755
H_ H_ 0.066864 0.937041 0.0859121 0.33755
H_ H_ 0.295973 0.977699 0.0453652 0.33755
H_ H_ 0.160644 0.999115 0.0165819 0.33755
H_ H_ 0.412877 0.985291 0.0613531 0.33755
H_ H_ 0.151876 0.915995 0.479353 0.33755
H_ H_ 0.399457 0.898497 0.518924 0.33755
H_ H_ 0.20015 0.811586 0.0465898 0.44417
H_ H_ 0.442363 0.83389 0.0449421 0.44417
H_ H_ 0.174684 0.829052 0.0188621 0.44417
H_ H_ 0.405062 0.818197 0.0169725 0.44417
H_ H_ 0.0393497 0.765461 0.07484 0.33755
H_ H_ 0.283198 0.772015 0.0805578 0.33755
H_ H_ 0.0464949 0.673702 0.0260284 0.33755
H_ H_ 0.286481 0.685088 0.0302048 0.33755
H_ H_ 0.0506981 0.628138 0.0756835 0.33755
H_ H_ 0.308057 0.642416 0.0813522 0.33755
H_ H_ 0.111318 0.708016 0.116942 0.33755
H_ H_ 0.357655 0.722288 0.129543 0.33755
H_ H_ 0.10279 0.853476 0.141771 0.33755
H_ H_ 0.430893 0.913984 0.133335 0.33755
H_ H_ 0.0924759 0.925395 0.177052 0.33755
H_ H_ 0.407286 0.942306 0.196015 0.33755
H_ H_ 0.203216 0.00990722 0.142133 0.33755
H_ H_ 0.479011 0.0911222 0.188365 0.33755
H_ H_ 0.207011 0.932861 0.100534 0.33755
H_ H_ 0.501964 0.0566413 0.125213 0.33755
H_ H_ 0.115147 0.626575 0.219112 0.33755
H_ H_ 0.350772 0.600635 0.227225 0.33755
H_ H_ 0.124993 0.556721 0.174722 0.33755
H_ H_ 0.343701 0.52053 0.179274 0.33755
H_ H_ 0.193573 0.530002 0.260498 0.33755
H_ H_ 0.458756 0.541074 0.217503 0.33755
H_ H_ 0.170392 0.594175 0.312912 0.33755
H_ H_ 0.467225 0.622648 0.249602 0.33755
H_ H_ 0.247645 0.845331 0.272625 0.44417
H_ H_ 0.477003 0.861259 0.299878 0.44417
H_ H_ 0.212767 0.813753 0.292896 0.44417
H_ H_ 0.442034 0.80943 0.293681 0.44417
H_ H_ 0.0927806 0.783008 0.33562 0.33755
H_ H_ 0.35755 0.775062 0.318923 0.33755
H_ H_ 0.0422513 0.695885 0.286967 0.33755
H_ H_ 0.308723 0.69066 0.27175 0.33755
H_ H_ 0.265329 0.641149 0.319194 0.33755
H_ H_ 0.511873 0.644933 0.333942 0.33755
H_ H_ 0.255687 0.720415 0.366714 0.33755
H_ H_ 0.498024 0.72836 0.376026 0.33755
H_ H_ 0.169511 0.903347 0.361327 0.33755
H_ H_ 0.43575 0.914889 0.347627 0.33755
H_ H_ 0.185529 0.988643 0.402156 0.33755
H_ H_ 0.442445 0.0007900000000000684 0.383547 0.33755
H_ H_ 0.0648057 0.951349 0.429309 0.33755
H_ H_ 0.342142 0.935882 0.443251 0.33755
H_ H_ 0.0548684 0.865545 0.39552 0.33755
H_ H_ 0.326338 0.858298 0.394248 0.33755
H_ H_ 0.225299 0.602747 0.493589 0.33755
H_ H_ 0.4562 0.637311 0.468599 0.33755
H_ H_ 0.20622 0.516693 0.459431 0.33755
H_ H_ 0.43727 0.56234 0.418638 0.33755
H_ H_ 0.0985549 0.525451 0.424836 0.33755
H_ H_ 0.335272 0.50574 0.475052 0.33755
H_ H_ 0.103478 0.592365 0.990817 0.33755
H_ H_ 0.353186 0.588301 0.0178421 0.33755
H_ H_ 0.0624522 0.646242 0.446244 0.44417
H_ H_ 0.299922 0.687415 0.451681 0.44417
H_ H_ 0.0900676 0.679574 0.480382 0.44417
H_ H_ 0.323979 0.667047 0.478542 0.44417
H_ H_ 0.217788 0.725925 0.421404 0.33755
H_ H_ 0.462666 0.734665 0.43624 0.33755
H_ H_ 0.216053 0.808801 0.471453 0.33755
H_ H_ 0.460074 0.818817 0.482149 0.33755
H_ H_ 0.206272 0.86766 0.426961 0.33755
H_ H_ 0.445733 0.868332 0.434359 0.33755
H_ H_ 0.153235 0.788691 0.374835 0.33755
H_ H_ 0.390394 0.788577 0.388494 0.33755
H_ H_ 0.0692179 0.605224 0.33513 0.33755
H_ H_ 0.396676 0.654009 0.369864 0.33755
H_ H_ 0.0806477 0.55102 0.275338 0.33755
H_ H_ 0.394478 0.586408 0.319083 0.33755
H_ H_ 0.0205847 0.42063 0.326582 0.33755
H_ H_ 0.295166 0.491479 0.363063 0.33755
H_ H_ 0.00707036 0.47383 0.381234 0.33755
H_ H_ 0.294077 0.56406 0.409787 0.33755
H_ H_ 0.158301 0.911739 0.280865 0.33755
H_ H_ 0.388616 0.880867 0.275996 0.33755
H_ H_ 0.164836 0.998913 0.316105 0.33755
H_ H_ 0.384268 0.955359 0.313545 0.33755
H_ H_ 0.0512547 0.977703 0.288073 0.33755
H_ H_ 0.287101 0.950965 0.243815 0.33755
H_ H_ 0.0480851 0.901979 0.242708 0.33755
H_ H_ 0.30989 0.892216 0.191662 0.33755
C_ C_ 0.178716 0.743864 0.184813 0.04924
C_ C_ 0.43652 0.741817 0.17794 0.04924
C_ C_ 0.188436 0.801429 0.196914 -0.19469
C_ C_ 0.439795 0.797352 0.188368 -0.19469
C_ C_ 0.213231 0.818667 0.161501 -0.19469
C_ C_ 0.468631 0.820261 0.158848 -0.19469
C_ C_ 0.996449 0.783835 0.15868 0.04924
C_ C_ 0.22922 0.775565 0.150122 0.04924
C_ C_ 0.183173 0.718946 0.21852 0.65653
C_ C_ 0.436899 0.713093 0.210583 0.65653
C_ C_ 0.158005 0.827379 0.207331 0.65653
C_ C_ 0.404991 0.813392 0.19344 0.65653
C_ C_ 0.194192 0.827556 0.125757 0.65653
C_ C_ 0.456049 0.825166 0.120052 0.65653
C_ C_ 0.0282473 0.794596 0.189098 0.65653
C_ C_ 0.263719 0.780997 0.177196 0.65653
C_ C_ 0.0841278 0.583066 0.124493 0.19216
C_ C_ 0.352449 0.586943 0.117566 0.19216
C_ C_ 0.0781353 0.534349 0.105089 -0.19675
C_ C_ 0.344443 0.538438 0.0953695 -0.19675
C_ C_ 0.1022 0.52392 0.0772099 0.08851
C_ C_ 0.373742 0.522987 0.0795058 0.08851
C_ C_ 0.136273 0.561708 0.0749138 -0.19675
C_ C_ 0.410985 0.561624 0.0803078 -0.19675
C_ C_ 0.144915 0.607885 0.101013 0.19216
C_ C_ 0.418146 0.6051 0.105207 0.19216
C_ C_ 0.0755726 0.890467 0.0366314 0.19216
C_ C_ 0.306647 0.910953 0.029397 0.19216
C_ C_ 0.0829916 0.936378 0.0603575 -0.19675
C_ C_ 0.315772 0.959913 0.0475342 -0.19675
C_ C_ 0.115207 0.975704 0.0560363 0.08851
C_ C_ 0.353211 0.984161 0.0645306 0.08851
C_ C_ 0.137776 0.967782 0.0235421 -0.19675
C_ C_ 0.382364 0.964016 0.0529064 -0.19675
C_ C_ 0.128286 0.921245 1.000506699 0.19216
C_ C_ 0.372312 0.917412 0.0305308 0.19216
C_ C_ 0.0588223 0.744597 0.064449 0.04924
C_ C_ 0.303449 0.75166 0.0698231 0.04924
C_ C_ 0.0364355 0.687866 0.0538967 -0.19469
C_ C_ 0.280913 0.694832 0.059635 -0.19469
C_ C_ 0.0538413 0.66842 0.0846952 -0.19469
C_ C_ 0.302098 0.676517 0.0901978 -0.19469
C_ C_ 0.0943467 0.707702 0.0907885 0.04924
C_ C_ 0.341016 0.715024 0.0991177 0.04924
C_ C_ 0.075758 0.772657 0.0321202 0.65653
C_ C_ 0.319834 0.782493 0.0404582 0.65653
C_ C_ 0.992977 0.666864 0.0469896 0.65653
C_ C_ 0.237421 0.674568 0.0567505 0.65653
C_ C_ 0.0314731 0.666223 0.119659 0.65653
C_ C_ 0.282969 0.672177 0.128125 0.65653
C_ C_ 0.125344 0.703852 0.0632887 0.65653
C_ C_ 0.372197 0.707121 0.0734899 0.65653
C_ C_ 0.119477 0.889873 0.135888 0.19216
C_ C_ 0.437687 0.952995 0.143573 0.19216
C_ C_ 0.117923 0.928837 0.163027 -0.19675
C_ C_ 0.424527 0.970562 0.179805 -0.19675
C_ C_ 0.146497 0.976374 0.16313 0.08851
C_ C_ 0.440297 0.0209597 0.196405 0.08851
C_ C_ 0.179719 0.977374 0.14183 -0.19675
C_ C_ 0.468344 0.0519579 0.176027 -0.19675
C_ C_ 0.179921 0.934184 0.116571 0.19216
C_ C_ 0.478451 0.0344371 0.138701 0.19216
C_ C_ 0.129386 0.604255 0.229827 0.19216
C_ C_ 0.373245 0.585644 0.224165 0.19216
C_ C_ 0.134413 0.564275 0.205153 -0.19675
C_ C_ 0.369754 0.539747 0.198908 -0.19675
C_ C_ 0.1577 0.539892 0.215587 0.08851
C_ C_ 0.401816 0.524516 0.196022 0.08851
C_ C_ 0.170733 0.547758 0.254794 -0.19675
C_ C_ 0.434288 0.551485 0.220314 -0.19675
C_ C_ 0.162756 0.586139 0.280658 0.19216
C_ C_ 0.43723 0.596345 0.243697 0.19216
C_ C_ 0.063335 0.767565 0.323712 0.04924
C_ C_ 0.32599 0.755307 0.311217 0.04924
C_ C_ 0.0592776 0.711213 0.312044 -0.19469
C_ C_ 0.317261 0.699129 0.302251 -0.19469
C_ C_ 0.0320776 0.690481 0.34376 -0.19469
C_ C_ 0.286659 0.677972 0.330344 -0.19469
C_ C_ 0.26846 0.719154 0.338606 0.04924
C_ C_ 0.508362 0.723959 0.346837 0.04924
C_ C_ 0.062092 0.795129 0.290619 0.65653
C_ C_ 0.319935 0.782772 0.277918 0.65653
C_ C_ 0.0929592 0.692759 0.302126 0.65653
C_ C_ 0.349579 0.678278 0.303436 0.65653
C_ C_ 0.0510237 0.691564 0.383263 0.65653
C_ C_ 0.300018 0.670372 0.368714 0.65653
C_ C_ 0.233346 0.711929 0.310175 0.65653
C_ C_ 0.472181 0.710636 0.3219 0.65653
C_ C_ 0.147326 0.916917 0.376958 0.19216
C_ C_ 0.415367 0.921625 0.367892 0.19216
C_ C_ 0.15705 0.964846 0.398397 -0.19675
C_ C_ 0.420248 0.967992 0.389354 -0.19675
C_ C_ 0.126917 0.978244 0.417689 0.08851
C_ C_ 0.39508 0.974457 0.418149 0.08851
C_ C_ 0.0904913 0.940904 0.41679 -0.19675
C_ C_ 0.361162 0.933895 0.421119 -0.19675
C_ C_ 0.0838021 0.89474 0.392145 0.19216
C_ C_ 0.353126 0.890803 0.391719 0.19216
C_ C_ 0.195438 0.584135 0.480916 0.19216
C_ C_ 0.429516 0.607164 0.470006 0.19216
C_ C_ 0.187891 0.537303 0.456505 -0.19675
C_ C_ 0.418881 0.565064 0.442402 -0.19675
C_ C_ 0.154553 0.517234 0.432661 0.08851
C_ C_ 0.386505 0.525004 0.445092 0.08851
C_ C_ 0.125975 0.542861 0.439455 -0.19675
C_ C_ 0.36025 0.534968 0.4706 -0.19675
C_ C_ 0.131452 0.582183 0.471956 0.19216
C_ C_ 0.371604 0.580696 0.498449 0.19216
C_ C_ 0.199436 0.745663 0.430313 0.04924
C_ C_ 0.441006 0.751143 0.444699 0.04924
C_ C_ 0.220445 0.800583 0.441378 -0.19469
C_ C_ 0.463832 0.806678 0.451478 -0.19469
C_ C_ 0.202661 0.826952 0.414056 -0.19469
C_ C_ 0.445721 0.828365 0.422556 -0.19469
C_ C_ 0.164227 0.788579 0.403431 0.04924
C_ C_ 0.406758 0.790507 0.413704 0.04924
C_ C_ 0.179644 0.712547 0.460211 0.65653
C_ C_ 0.420044 0.72324 0.476577 0.65653
C_ C_ 0.263635 0.819037 0.443369 0.65653
C_ C_ 0.506598 0.822964 0.455485 0.65653
C_ C_ 0.224514 0.838909 0.377466 0.65653
C_ C_ 0.465645 0.831781 0.384149 0.65653
C_ C_ 0.130244 0.790049 0.428373 0.65653
C_ C_ 0.375396 0.792327 0.440774 0.65653
C_ C_ 0.0569783 0.563819 0.330331 0.19216
C_ C_ 0.375737 0.616862 0.369668 0.19216
C_ C_ 0.0648686 0.532451 0.298089 -0.19675
C_ C_ 0.378064 0.578461 0.342195 -0.19675
C_ C_ 0.0555378 0.481234 0.298935 0.08851
C_ C_ 0.346648 0.533285 0.337867 0.08851
C_ C_ 0.0322913 0.46179 0.326378 -0.19675
C_ C_ 0.318158 0.52761 0.364446 -0.19675
C_ C_ 0.0231189 0.491268 0.357478 0.19216
C_ C_ 0.317786 0.566424 0.392662 0.19216
C_ C_ 0.135377 0.928909 0.28047 0.19216
C_ C_ 0.368583 0.899229 0.266522 0.19216
C_ C_ 0.139037 0.976232 0.301844 -0.19675
C_ C_ 0.363838 0.939271 0.290292 -0.19675
C_ C_ 0.108591 0.992532 0.30692 0.08851
C_ C_ 0.333586 0.957495 0.285105 0.08851
C_ C_ 0.0753998 0.964453 0.28447 -0.19675
C_ C_ 0.312502 0.939439 0.248885 -0.19675
C_ C_ 0.0725067 0.920867 0.260947 0.19216
C_ C_ 0.323338 0.904558 0.221493 0.19216
N_ N_ 0.117391 0.617489 0.121245 -0.35746
N_ N_ 0.388304 0.616187 0.124897 -0.35746
N_ N_ 0.0964164 0.884134 0.00633356 -0.35746
N_ N_ 0.33556 0.892467 0.0185246 -0.35746
N_ N_ 0.149128 0.891973 0.112685 -0.35746
N_ N_ 0.463502 0.985489 0.123353 -0.35746
N_ N_ 0.146018 0.616315 0.266348 -0.35746
N_ N_ 0.406299 0.61302 0.246401 -0.35746
N_ N_ 0.111095 0.885388 0.373106 -0.35746
N_ N_ 0.382291 0.883861 0.370166 -0.35746
N_ N_ 0.167629 0.605421 0.489655 -0.35746
N_ N_ 0.407022 0.612146 0.499682 -0.35746
N_ N_ 0.0347943 0.541463 0.357691 -0.35746
N_ N_ 0.349535 0.607963 0.397142 -0.35746
N_ N_ 0.10214 0.902699 0.258893 -0.35746
N_ N_ 0.348003 0.882215 0.232044 -0.35746
O_ O_ 0.197557 0.730512 0.152143 -0.2869
O_ O_ 0.462708 0.735288 0.149555 -0.2869
O_ O_ 0.0300718 0.67022 0.203314 -0.71937
O_ O_ 0.263678 0.682249 0.216584 -0.71937
O_ O_ 0.19749 0.683058 0.213893 -0.57331
O_ O_ 0.459785 0.686979 0.210619 -0.57331
O_ O_ 0.162461 0.724011 0.247353 -0.57331
O_ O_ 0.414464 0.714375 0.239108 -0.57331
O_ O_ 0.120762 0.804005 0.205063 -0.57331
O_ O_ 0.370928 0.784086 0.186434 -0.57331
O_ O_ 0.170428 0.8755 0.21508 -0.64513
O_ O_ 0.408784 0.85872 0.213159 -0.64513
O_ O_ 0.162148 0.792458 0.112103 -0.57331
O_ O_ 0.423585 0.832578 0.117438 -0.57331
O_ O_ 0.214833 0.85626 0.104326 -0.64513
O_ O_ 0.483648 0.845536 0.0975835 -0.64513
O_ O_ 0.0562591 0.837616 0.193468 -0.57331
O_ O_ 0.297188 0.805106 0.169519 -0.57331
O_ O_ 0.032876 0.757769 0.20417 -0.57331
O_ O_ 0.26038 0.757013 0.206679 -0.57331
O_ O_ 0.0873888 0.753105 0.0946975 -0.2869
O_ O_ 0.331488 0.758973 0.100207 -0.2869
O_ O_ 0.180401 0.817744 0.0375604 -0.71937
O_ O_ 0.418105 0.822459 0.0379644 -0.71937
O_ O_ 0.10985 0.805741 0.0358095 -0.57331
O_ O_ 0.351597 0.821838 0.0509288 -0.57331
O_ O_ 0.0545736 0.770788 1.00339008 -0.57331
O_ O_ 0.298867 0.780836 0.00990791 -0.57331
O_ O_ 0.216979 0.702688 0.0538655 -0.57331
O_ O_ 0.470104 0.702172 0.0623337 -0.57331
O_ O_ 0.975184 0.618552 0.0440523 -0.64513
O_ O_ 0.22052 0.625838 0.0523751 -0.64513
O_ O_ 0.0391592 0.70655 0.146554 -0.57331
O_ O_ 0.254746 0.687969 0.138398 -0.57331
O_ O_ 0.0135394 0.621492 0.128722 -0.64513
O_ O_ 0.287034 0.639409 0.147388 -0.64513
O_ O_ 0.130405 0.661338 0.0503064 -0.57331
O_ O_ 0.379018 0.665728 0.0662043 -0.57331
O_ O_ 0.145409 0.741322 0.0483127 -0.57331
O_ O_ 0.391956 0.742556 0.0554609 -0.57331
O_ O_ 0.0397093 0.774724 0.354382 -0.2869
O_ O_ 0.300241 0.76173 0.340248 -0.2869
O_ O_ 0.235965 0.82607 0.286926 -0.71937
O_ O_ 0.465381 0.828843 0.297139 -0.71937
O_ O_ 0.0425171 0.826422 0.291761 -0.57331
O_ O_ 0.303246 0.817173 0.284327 -0.57331
O_ O_ 0.0895173 0.795804 0.266093 -0.57331
O_ O_ 0.333071 0.773021 0.242719 -0.57331
O_ O_ 0.128595 0.715954 0.314951 -0.57331
O_ O_ 0.383915 0.706184 0.306235 -0.57331
O_ O_ 0.0830202 0.649567 0.279223 -0.64513
O_ O_ 0.342554 0.629036 0.291676 -0.64513
O_ O_ 0.0832035 0.678494 0.381225 -0.57331
O_ O_ 0.331122 0.701158 0.386559 -0.57331
O_ O_ 0.0307324 0.683773 0.41389 -0.64513
O_ O_ 0.276723 0.637438 0.386666 -0.64513
O_ O_ 0.199328 0.687485 0.319257 -0.57331
O_ O_ 0.447141 0.666862 0.315653 -0.57331
O_ O_ 0.23721 0.746957 0.289152 -0.57331
O_ O_ 0.470683 0.740619 0.297912 -0.57331
O_ O_ 0.171883 0.744239 0.399972 -0.2869
O_ O_ 0.415529 0.744643 0.412967 -0.2869
O_ O_ 0.0821855 0.66881 0.457231 -0.71937
O_ O_ 0.318945 0.680362 0.459815 -0.71937
O_ O_ 0.147093 0.678565 0.450798 -0.57331
O_ O_ 0.387264 0.687972 0.468405 -0.57331
O_ O_ 0.198448 0.711652 0.490849 -0.57331
O_ O_ 0.441102 0.720455 0.505515 -0.57331
O_ O_ 0.0328552 0.797608 0.446172 -0.57331
O_ O_ 0.283397 0.791876 0.453252 -0.57331
O_ O_ 0.280911 0.866911 0.444277 -0.64513
O_ O_ 0.52493 0.870079 0.462105 -0.64513
O_ O_ 0.240352 0.80697 0.359214 -0.57331
O_ O_ 0.472623 0.793768 0.365223 -0.57331
O_ O_ 0.222266 0.878588 0.362357 -0.64513
O_ O_ 0.473591 0.874674 0.371876 -0.64513
O_ O_ 0.119678 0.828812 0.435801 -0.57331
O_ O_ 0.367413 0.833852 0.447 -0.57331
O_ O_ 0.118384 0.755443 0.450081 -0.57331
O_ O_ 0.353487 0.75566 0.456265 -0.57331
Zn Zn 0.239352 0.690116 0.687205 0.88731
Zn Zn 0.50606 0.699147 0.687378 0.88731
Zn Zn 0.162869 0.685659 0.79093 0.96553
Zn Zn 0.413294 0.674687 0.776025 0.96553
Zn Zn 0.147623 0.792398 0.564604 0.88731
Zn Zn 0.386914 0.802031 0.578505 0.88731
Zn Zn 0.076722 0.81821 0.975259 0.96553
Zn Zn 0.325329 0.829332 0.983424 0.96553
Zn Zn 1.00130012 0.80246 0.822161 0.88731
Zn Zn 0.258309 0.814168 0.814083 0.88731
Zn Zn 0.0864786 0.824812 0.730931 0.96553
Zn Zn 0.338723 0.816308 0.703039 0.96553
Zn Zn 0.112676 0.692167 0.927004 0.88731
Zn Zn 0.357385 0.709025 0.931862 0.88731
Zn Zn 0.173299 0.667175 0.521017 0.96553
Zn Zn 0.420576 0.673405 0.534228 0.96553
H_ H_ 0.0576553 0.693977 0.714444 0.44417
H_ H_ 0.285542 0.678725 0.708002 0.44417
H_ H_ 0.0346052 0.636908 0.69686 0.44417
H_ H_ 0.250885 0.656636 0.732346 0.44417
H_ H_ 0.146474 0.723647 0.679492 0.33755
H_ H_ 0.411194 0.714324 0.667785 0.33755
H_ H_ 0.196177 0.811677 0.727796 0.33755
H_ H_ 0.461103 0.805033 0.721604 0.33755
H_ H_ 0.989462 0.85155 0.679558 0.33755
H_ H_ 0.233406 0.858255 0.671175 0.33755
H_ H_ 0.00686664 0.783589 0.629315 0.33755
H_ H_ 0.237811 0.775456 0.625983 0.33755
H_ H_ 0.0620887 0.594124 0.648349 0.33755
H_ H_ 0.327203 0.586431 0.643152 0.33755
H_ H_ 0.0490779 0.507999 0.612676 0.33755
H_ H_ 0.310873 0.514152 0.592307 0.33755
H_ H_ 0.154337 0.564307 0.55732 0.33755
H_ H_ 0.427038 0.551396 0.562856 0.33755
H_ H_ 0.173072 0.642218 0.60851 0.33755
H_ H_ 0.442329 0.627362 0.609025 0.33755
H_ H_ 0.0464455 0.858762 0.533409 0.33755
H_ H_ 0.279654 0.878666 0.517285 0.33755
H_ H_ 0.0642692 0.935537 0.583664 0.33755
H_ H_ 0.294618 0.969709 0.544891 0.33755
H_ H_ 0.166892 0.987965 0.523314 0.33755
H_ H_ 0.410075 0.976145 0.566375 0.33755
H_ H_ 0.14567 0.91269 0.977713 0.33755
H_ H_ 0.392932 0.898018 0.0311068 0.33755
H_ H_ 0.178297 0.827324 0.519774 0.44417
H_ H_ 0.430416 0.86492 0.564126 0.44417
H_ H_ 0.203816 0.798002 0.539791 0.44417
H_ H_ 0.422774 0.815798 0.531827 0.44417
H_ H_ 0.0380647 0.763346 0.568341 0.33755
H_ H_ 0.293868 0.787018 0.589382 0.33755
H_ H_ 0.0343653 0.675837 0.517853 0.33755
H_ H_ 0.274761 0.688102 0.531574 0.33755
H_ H_ 0.0460041 0.62518 0.566218 0.33755
H_ H_ 0.29317 0.637656 0.570383 0.33755
H_ H_ 0.106292 0.70064 0.611194 0.33755
H_ H_ 0.352929 0.703642 0.621103 0.33755
H_ H_ 0.0955954 0.841118 0.642828 0.33755
H_ H_ 0.420327 0.903365 0.645635 0.33755
H_ H_ 0.0957497 0.911851 0.691171 0.33755
H_ H_ 0.405817 0.9502 0.707146 0.33755
H_ H_ 0.192761 1.00422696 0.639872 0.33755
H_ H_ 0.473093 0.0868675 0.667466 0.33755
H_ H_ 0.188119 0.93226 0.586984 0.33755
H_ H_ 0.488265 0.0388473 0.611915 0.33755
H_ H_ 0.122648 0.63013 0.718817 0.33755
H_ H_ 0.344897 0.594092 0.729468 0.33755
H_ H_ 0.132084 0.559466 0.676291 0.33755
H_ H_ 0.34022 0.509065 0.688063 0.33755
H_ H_ 0.197235 0.535187 0.767014 0.33755
H_ H_ 0.459306 0.539118 0.712619 0.33755
H_ H_ 0.176771 0.597668 0.814203 0.33755
H_ H_ 0.460515 0.618134 0.757812 0.33755
H_ H_ 0.238489 0.845351 0.772324 0.44417
H_ H_ 0.485704 0.859827 0.792518 0.44417
H_ H_ 0.202523 0.811902 0.79366 0.44417
H_ H_ 0.451587 0.815244 0.798635 0.44417
H_ H_ 0.0976692 0.777315 0.833954 0.33755
H_ H_ 0.351474 0.796075 0.818269 0.33755
H_ H_ 0.0445254 0.688301 0.78788 0.33755
H_ H_ 0.306701 0.696425 0.772623 0.33755
H_ H_ 0.271534 0.652162 0.819477 0.33755
H_ H_ 0.516102 0.648198 0.833799 0.33755
H_ H_ 0.260742 0.730788 0.869345 0.33755
H_ H_ 0.493844 0.726273 0.872795 0.33755
H_ H_ 0.155427 0.907695 0.853143 0.33755
H_ H_ 0.447549 0.924739 0.851429 0.33755
H_ H_ 0.168986 0.995382 0.88282 0.33755
H_ H_ 0.455408 1.0038212 0.892778 0.33755
H_ H_ 0.0764835 0.947498 0.959424 0.33755
H_ H_ 0.347591 0.94374 0.943266 0.33755
H_ H_ 0.0494779 0.872256 0.904799 0.33755
H_ H_ 0.335859 0.863201 0.898026 0.33755
H_ H_ 0.221514 0.616734 0.978697 0.33755
H_ H_ 0.45124 0.639237 0.956895 0.33755
H_ H_ 0.211146 0.538499 0.938816 0.33755
H_ H_ 0.43531 0.558629 0.912655 0.33755
H_ H_ 0.0901944 0.508999 0.948389 0.33755
H_ H_ 0.337655 0.506281 0.982806 0.33755
H_ H_ 0.111305 0.602296 0.47747 0.33755
H_ H_ 0.353188 0.587383 0.521204 0.33755
H_ H_ 0.0950374 0.68728 0.984373 0.44417
H_ H_ 0.322085 0.679191 0.978658 0.44417
H_ H_ 0.0685663 0.642892 0.952088 0.44417
H_ H_ 0.303274 0.707923 0.955438 0.44417
H_ H_ 0.211786 0.719617 0.913426 0.33755
H_ H_ 0.464359 0.731651 0.932401 0.33755
H_ H_ 0.215021 0.808916 0.973907 0.33755
H_ H_ 0.464807 0.822949 0.984199 0.33755
H_ H_ 0.200478 0.863741 0.929438 0.33755
H_ H_ 0.457836 0.878173 0.935293 0.33755
H_ H_ 0.142974 0.787151 0.877153 0.33755
H_ H_ 0.395376 0.797153 0.888534 0.33755
H_ H_ 0.0710297 0.587014 0.845115 0.33755
H_ H_ 0.391447 0.661649 0.85821 0.33755
H_ H_ 0.0743716 0.546417 0.782388 0.33755
H_ H_ 0.389666 0.591722 0.806265 0.33755
H_ H_ 0.0228538 0.406699 0.817499 0.33755
H_ H_ 0.30429 0.493678 0.86718 0.33755
H_ H_ 0.0172824 0.452074 0.885777 0.33755
H_ H_ 0.307699 0.569709 0.915011 0.33755
H_ H_ 0.155241 0.905053 0.779523 0.33755
H_ H_ 0.378509 0.872876 0.773687 0.33755
H_ H_ 0.164148 0.992001 0.81353 0.33755
H_ H_ 0.358594 0.928856 0.821055 0.33755
H_ H_ 0.0461126 0.961841 0.789763 0.33755
H_ H_ 0.296786 0.958047 0.728015 0.33755
H_ H_ 0.0396604 0.878273 0.755021 0.33755
H_ H_ 0.317462 0.899194 0.685142 0.33755
C_ C_ 0.175415 0.744717 0.687869 0.04924
C_ C_ 0.438808 0.738979 0.681603 0.04924
C_ C_ 0.186042 0.800866 0.697501 -0.19469
C_ C_ 0.444607 0.794159 0.694949 -0.19469
C_ C_ 0.21373 0.819897 0.666162 -0.19469
C_ C_ 0.468197 0.813502 0.658733 -0.19469
C_ C_ 0.992706 0.774715 0.656688 0.04924
C_ C_ 0.228994 0.776029 0.654148 0.04924
C_ C_ 0.181972 0.720785 0.722042 0.65653
C_ C_ 0.439959 0.711356 0.714384 0.65653
C_ C_ 0.153476 0.823449 0.701525 0.65653
C_ C_ 0.411244 0.811027 0.70712 0.65653
C_ C_ 0.195054 0.825524 0.629542 0.65653
C_ C_ 0.448465 0.814732 0.622332 0.65653
C_ C_ 0.0285697 0.784707 0.683756 0.65653
C_ C_ 0.266867 0.782473 0.676714 0.65653
C_ C_ 0.0827963 0.585843 0.630353 0.19216
C_ C_ 0.350253 0.577373 0.627337 0.19216
C_ C_ 0.0743003 0.537371 0.608819 -0.19675
C_ C_ 0.340407 0.533583 0.601538 -0.19675
C_ C_ 0.102928 0.527286 0.586131 0.08851
C_ C_ 0.370135 0.521073 0.581011 0.08851
C_ C_ 0.138642 0.563795 0.583702 -0.19675
C_ C_ 0.406731 0.552979 0.584784 -0.19675
C_ C_ 0.145224 0.611872 0.608008 0.19216
C_ C_ 0.413564 0.599704 0.60788 0.19216
C_ C_ 0.0719282 0.888979 0.531241 0.19216
C_ C_ 0.308952 0.905548 0.522524 0.19216
C_ C_ 0.0825452 0.932207 0.559255 -0.19675
C_ C_ 0.317467 0.957536 0.538353 -0.19675
C_ C_ 0.117337 0.970212 0.558567 0.08851
C_ C_ 0.35398 0.981619 0.554016 0.08851
C_ C_ 0.138964 0.962538 0.526829 -0.19675
C_ C_ 0.383346 0.960487 0.548423 -0.19675
C_ C_ 0.12918 0.921379 0.499529 0.19216
C_ C_ 0.376697 0.915881 0.524651 0.19216
C_ C_ 0.058164 0.743056 0.558831 0.04924
C_ C_ 0.304185 0.755521 0.575495 0.04924
C_ C_ 0.0330434 0.687417 0.549048 -0.19469
C_ C_ 0.275951 0.700576 0.564495 -0.19469
C_ C_ 0.0501335 0.663669 0.576932 -0.19469
C_ C_ 0.294854 0.673093 0.588727 -0.19469
C_ C_ 0.0911228 0.702404 0.584462 0.04924
C_ C_ 0.3374 0.708055 0.595646 0.04924
C_ C_ 0.0770346 0.770138 0.527328 0.65653
C_ C_ 0.323286 0.779634 0.540592 0.65653
C_ C_ 0.990182 0.671046 0.550885 0.65653
C_ C_ 0.232384 0.682072 0.563159 0.65653
C_ C_ 0.0311642 0.660402 0.616341 0.65653
C_ C_ 0.277195 0.65979 0.625956 0.65653
C_ C_ 0.121418 0.69691 0.554955 0.65653
C_ C_ 0.368471 0.705959 0.568661 0.65653
C_ C_ 0.11418 0.878597 0.640777 0.19216
C_ C_ 0.436916 0.943574 0.653159 0.19216
C_ C_ 0.116012 0.919179 0.669019 -0.19675
C_ C_ 0.423319 0.970496 0.684047 -0.19675
C_ C_ 0.141999 0.965367 0.67032 0.08851
C_ C_ 0.435046 0.0218462 0.690145 0.08851
C_ C_ 0.166891 0.971649 0.638182 -0.19675
C_ C_ 0.459693 0.0451141 0.664475 -0.19675
C_ C_ 0.166933 0.929901 0.609496 0.19216
C_ C_ 0.46986 0.0175504 0.632342 0.19216
C_ C_ 0.136535 0.606248 0.731567 0.19216
C_ C_ 0.370084 0.581896 0.723452 0.19216
C_ C_ 0.142327 0.566415 0.706725 -0.19675
C_ C_ 0.367579 0.535102 0.700617 -0.19675
C_ C_ 0.168145 0.54418 0.718381 0.08851
C_ C_ 0.400374 0.520808 0.694589 0.08851
C_ C_ 0.177708 0.551793 0.758081 -0.19675
C_ C_ 0.435063 0.553204 0.715119 -0.19675
C_ C_ 0.167447 0.587694 0.783605 0.19216
C_ C_ 0.434556 0.594546 0.740538 0.19216
C_ C_ 0.0669036 0.75479 0.824439 0.04924
C_ C_ 0.324173 0.766373 0.811159 0.04924
C_ C_ 0.0604424 0.699391 0.815383 -0.19469
C_ C_ 0.319712 0.709148 0.803201 -0.19469
C_ C_ 0.0346994 0.679564 0.849131 -0.19469
C_ C_ 0.29045 0.687991 0.831776 -0.19469
C_ C_ 0.270227 0.727682 0.839903 0.04924
C_ C_ 0.510176 0.723362 0.845599 0.04924
C_ C_ 0.0644548 0.783211 0.793187 0.65653
C_ C_ 0.315965 0.788914 0.775121 0.65653
C_ C_ 0.0929295 0.680543 0.803309 0.65653
C_ C_ 0.351642 0.689329 0.795661 0.65653
C_ C_ 0.0466828 0.673698 0.888354 0.65653
C_ C_ 0.306695 0.680651 0.870225 0.65653
C_ C_ 0.235796 0.720048 0.813465 0.65653
C_ C_ 0.476885 0.716699 0.816376 0.65653
C_ C_ 0.134616 0.918328 0.872885 0.19216
C_ C_ 0.423558 0.928027 0.870218 0.19216
C_ C_ 0.146401 0.966453 0.893745 -0.19675
C_ C_ 0.427856 0.975322 0.89372 -0.19675
C_ C_ 0.125606 0.977724 0.925726 0.08851
C_ C_ 0.399218 0.981591 0.919626 0.08851
C_ C_ 0.0916521 0.939928 0.931116 -0.19675
C_ C_ 0.365841 0.941699 0.91979 -0.19675
C_ C_ 0.0794122 0.895124 0.90553 0.19216
C_ C_ 0.361235 0.89435 0.897477 0.19216
C_ C_ 0.192931 0.595635 0.970969 0.19216
C_ C_ 0.426756 0.610222 0.961956 0.19216
C_ C_ 0.185603 0.548074 0.948839 -0.19675
C_ C_ 0.417993 0.563335 0.938106 -0.19675
C_ C_ 0.147354 0.517729 0.940124 0.08851
C_ C_ 0.386488 0.523929 0.944121 0.08851
C_ C_ 0.117919 0.533814 0.95385 -0.19675
C_ C_ 0.363139 0.533806 0.97515 -0.19675
C_ C_ 0.12701 0.580001 0.976874 0.19216
C_ C_ 0.37268 0.579616 0.997669 0.19216
C_ C_ 0.197006 0.744179 0.927638 0.04924
C_ C_ 0.44619 0.756017 0.942764 0.04924
C_ C_ 0.218494 0.800436 0.941918 -0.19469
C_ C_ 0.470403 0.811899 0.95344 -0.19469
C_ C_ 0.198565 0.82436 0.916279 -0.19469
C_ C_ 0.453665 0.838909 0.925289 -0.19469
C_ C_ 0.158318 0.785664 0.905009 0.04924
C_ C_ 0.412668 0.798675 0.916143 0.04924
C_ C_ 0.180485 0.710786 0.956878 0.65653
C_ C_ 0.423731 0.723453 0.970364 0.65653
C_ C_ 0.26067 0.822207 0.94385 0.65653
C_ C_ 0.513378 0.830394 0.957783 0.65653
C_ C_ 0.216606 0.835745 0.878044 0.65653
C_ C_ 0.477027 0.848333 0.888715 0.65653
C_ C_ 0.130117 0.786393 0.935092 0.65653
C_ C_ 0.378973 0.802371 0.942235 0.65653
C_ C_ 0.0589155 0.549157 0.839379 0.19216
C_ C_ 0.373555 0.622996 0.859888 0.19216
C_ C_ 0.0659702 0.524294 0.80458 -0.19675
C_ C_ 0.372167 0.582991 0.830769 -0.19675
C_ C_ 0.0566888 0.473568 0.798035 0.08851
C_ C_ 0.349782 0.534816 0.833655 0.08851
C_ C_ 0.0351381 0.447778 0.82555 -0.19675
C_ C_ 0.32583 0.528173 0.86715 -0.19675
C_ C_ 0.0289648 0.472569 0.861285 0.19216
C_ C_ 0.327259 0.57009 0.89448 0.19216
C_ C_ 0.132835 0.92028 0.77894 0.19216
C_ C_ 0.363583 0.8949 0.763094 0.19216
C_ C_ 0.136481 0.96757 0.799372 -0.19675
C_ C_ 0.355364 0.930344 0.79003 -0.19675
C_ C_ 0.104335 0.981288 0.806259 0.08851
C_ C_ 0.330347 0.952607 0.777489 0.08851
C_ C_ 0.0701677 0.948968 0.788978 -0.19675
C_ C_ 0.313109 0.937954 0.73908 -0.19675
C_ C_ 0.0674665 0.905002 0.76396 0.19216
C_ C_ 0.322447 0.903682 0.714005 0.19216
N_ N_ 0.117573 0.618778 0.631063 -0.35746
N_ N_ 0.38615 0.608195 0.62973 -0.35746
N_ N_ 0.0952652 0.885328 0.50069 -0.35746
N_ N_ 0.33944 0.890166 0.511116 -0.35746
N_ N_ 0.138541 0.884441 0.610588 -0.35746
N_ N_ 0.456147 0.967341 0.62546 -0.35746
N_ N_ 0.150235 0.615272 0.768894 -0.35746
N_ N_ 0.404292 0.611243 0.743262 -0.35746
N_ N_ 0.100066 0.885791 0.874278 -0.35746
N_ N_ 0.389289 0.891233 0.871451 -0.35746
N_ N_ 0.163338 0.608046 0.987543 -0.35746
N_ N_ 0.405735 0.61493 -0.006739999999999968 -0.35746
N_ N_ 0.0432252 0.523021 0.867742 -0.35746
N_ N_ 0.353103 0.615825 0.891416 -0.35746
N_ N_ 0.0993452 0.891876 0.758255 -0.35746
N_ N_ 0.34563 0.881621 0.727635 -0.35746
O_ O_ 0.198245 0.733361 0.657676 -0.2869
O_ O_ 0.466391 0.732698 0.653964 -0.2869
O_ O_ 0.0386124 0.668734 0.703601 -0.71937
O_ O_ 0.263165 0.670109 0.713746 -0.71937
O_ O_ 0.196957 0.683754 0.717343 -0.57331
O_ O_ 0.464571 0.686191 0.71681 -0.57331
O_ O_ 0.15871 0.721725 0.750487 -0.57331
O_ O_ 0.412977 0.706723 0.738217 -0.57331
O_ O_ 0.118707 0.795358 0.70212 -0.57331
O_ O_ 0.379823 0.796691 0.68482 -0.57331
O_ O_ 0.162921 0.871681 0.714175 -0.64513
O_ O_ 0.418674 0.852673 0.732424 -0.64513
O_ O_ 0.163994 0.790872 0.614069 -0.57331
O_ O_ 0.418465 0.827794 0.621695 -0.57331
O_ O_ 0.214076 0.859199 0.609851 -0.64513
O_ O_ 0.471606 0.824545 0.592824 -0.64513
O_ O_ 0.0481381 0.830232 0.696649 -0.57331
O_ O_ 0.298901 0.809105 0.664616 -0.57331
O_ O_ 0.0327167 0.750309 0.70143 -0.57331
O_ O_ 0.266947 0.751706 0.700524 -0.57331
O_ O_ 0.0828215 0.747021 0.590172 -0.2869
O_ O_ 0.332231 0.756751 0.601906 -0.2869
O_ O_ 0.184781 0.807661 0.534384 -0.71937
O_ O_ 0.418905 0.834857 0.553419 -0.71937
O_ O_ 0.112371 0.801373 0.533291 -0.57331
O_ O_ 0.356586 0.814772 0.545636 -0.57331
O_ O_ 0.0562803 0.778614 0.501951 -0.57331
O_ O_ 0.299877 0.781244 0.512011 -0.57331
O_ O_ 0.214015 0.709145 0.551813 -0.57331
O_ O_ 0.467356 0.685827 0.560173 -0.57331
O_ O_ 0.972127 0.623323 0.543181 -0.64513
O_ O_ 0.21653 0.635238 0.560139 -0.64513
O_ O_ 0.0352618 0.698046 0.642249 -0.57331
O_ O_ 0.246563 0.670092 0.636937 -0.57331
O_ O_ 0.0105225 0.615498 0.62282 -0.64513
O_ O_ 0.289911 0.630742 0.644452 -0.64513
O_ O_ 0.122938 0.651469 0.540891 -0.57331
O_ O_ 0.376047 0.663703 0.56077 -0.57331
O_ O_ 0.147698 0.731966 0.545516 -0.57331
O_ O_ 0.39028 0.744831 0.555363 -0.57331
O_ O_ 0.0424259 0.763432 0.854969 -0.2869
O_ O_ 0.298898 0.773649 0.839967 -0.2869
O_ O_ 0.226468 0.826203 0.786967 -0.71937
O_ O_ 0.474907 0.833583 0.799255 -0.71937
O_ O_ 0.042402 0.811652 0.794255 -0.57331
O_ O_ 0.297132 0.821695 0.779834 -0.57331
O_ O_ 0.0880771 0.784151 0.765895 -0.57331
O_ O_ 0.333533 0.781823 0.742953 -0.57331
O_ O_ 0.127496 0.705003 0.817448 -0.57331
O_ O_ 0.385976 0.715804 0.794822 -0.57331
O_ O_ 0.0854159 0.640128 0.777238 -0.64513
O_ O_ 0.341656 0.640844 0.789218 -0.64513
O_ O_ 0.0759991 0.658793 0.890563 -0.57331
O_ O_ 0.334818 0.716377 0.888747 -0.57331
O_ O_ 0.0188188 0.660037 0.911825 -0.64513
O_ O_ 0.281594 0.65075 0.889304 -0.64513
O_ O_ 0.205026 0.686472 0.818584 -0.57331
O_ O_ 0.448819 0.675427 0.811298 -0.57331
O_ O_ 0.232707 0.7542 0.794571 -0.57331
O_ O_ 0.476619 0.753135 0.796919 -0.57331
O_ O_ 0.167931 0.741766 0.900313 -0.2869
O_ O_ 0.42134 0.75422 0.91154 -0.2869
O_ O_ 0.0871446 0.668688 0.961893 -0.71937
O_ O_ 0.320526 0.696304 0.962146 -0.71937
O_ O_ 0.146974 0.676682 0.949959 -0.57331
O_ O_ 0.388311 0.693072 0.964428 -0.57331
O_ O_ 0.200223 0.710285 0.986501 -0.57331
O_ O_ 0.442419 0.722874 0.00151192 -0.57331
O_ O_ 0.029926 0.802489 0.949069 -0.57331
O_ O_ 0.282402 0.79597 0.94956 -0.57331
O_ O_ 0.275668 0.869759 0.947977 -0.64513
O_ O_ 0.529001 0.875809 0.972901 -0.64513
O_ O_ 0.237388 0.809894 0.862029 -0.57331
O_ O_ 0.478959 0.811444 0.863757 -0.57331
O_ O_ 0.213656 0.872661 0.862753 -0.64513
O_ O_ 0.494733 0.892258 0.881731 -0.64513
O_ O_ 0.115631 0.822904 0.941561 -0.57331
O_ O_ 0.369005 0.843069 0.952473 -0.57331
O_ O_ 0.117598 0.751532 0.954385 -0.57331
O_ O_ 0.365049 0.767471 0.96208 -0.57331
Zn Zn 0.750567 0.194951 0.178427 0.88731
Zn Zn 0.987715 0.187746 0.18305 0.88731
Zn Zn 0.661988 0.168267 0.271745 0.96553
Zn Zn 0.911747 0.189031 0.285294 0.96553
Zn Zn 0.645132 0.316623 0.0716822 0.88731
Zn Zn 0.892001 0.299891 0.0600024 0.88731
Zn Zn 0.570859 0.322562 0.479789 0.96553
Zn Zn 0.821878 0.317214 0.46774 0.96553
Zn Zn 0.508823 0.306668 0.314295 0.88731
Zn Zn 0.745771 0.310584 0.316814 0.88731
Zn Zn 0.589884 0.317486 0.209322 0.96553
Zn Zn 0.838193 0.327553 0.217114 0.96553
Zn Zn 0.599762 0.191331 0.430265 0.88731
Zn Zn 0.861038 0.196701 0.425494 0.88731
Zn Zn 0.67155 0.180623 0.0324048 0.96553
Zn Zn 0.926216 0.174354 0.0161829 0.96553
H_ H_ 0.539461 0.190513 0.207581 0.44417
H_ H_ 0.764635 0.146733 0.204859 0.44417
H_ H_ 0.510509 0.188499 0.238982 0.44417
H_ H_ 0.798108 0.19724 0.20915 0.44417
H_ H_ 0.660813 0.219083 0.168221 0.33755
H_ H_ 0.894482 0.214789 0.169246 0.33755
H_ H_ 0.709398 0.307536 0.220942 0.33755
H_ H_ 0.942516 0.306719 0.217524 0.33755
H_ H_ 0.4747 0.363438 0.17477 0.33755
H_ H_ 0.737076 0.357145 0.169425 0.33755
H_ H_ 0.492632 0.28676 0.128192 0.33755
H_ H_ 0.756493 0.283131 0.120519 0.33755
H_ H_ 0.577473 0.10654 0.129214 0.33755
H_ H_ 0.811407 0.0829292 0.140681 0.33755
H_ H_ 0.560416 0.0295753 0.0816563 0.33755
H_ H_ 0.796742 1.00556141 0.0969149 0.33755
H_ H_ 0.681494 0.0474071 0.0765351 0.33755
H_ H_ 0.912902 0.0614885 0.053469 0.33755
H_ H_ 0.694598 0.132075 0.115512 0.33755
H_ H_ 0.920644 0.133571 0.0985223 0.33755
H_ H_ 0.523284 0.384648 0.023335 0.33755
H_ H_ 0.778499 0.371575 0.0309673 0.33755
H_ H_ 0.53622 0.468888 0.0582241 0.33755
H_ H_ 0.80151 0.441261 0.0855125 0.33755
H_ H_ 0.656093 0.49408 0.0493664 0.33755
H_ H_ 0.909863 0.480951 0.0335576 0.33755
H_ H_ 0.636366 0.402129 0.506056 0.33755
H_ H_ 0.887909 0.410732 0.476634 0.33755
H_ H_ 0.682042 0.373481 0.0440671 0.44417
H_ H_ 0.931117 0.341317 0.0256045 0.44417
H_ H_ 0.688466 0.321835 0.0369668 0.44417
H_ H_ 0.946062 0.298315 0.038042 0.44417
H_ H_ 0.543779 0.29059 0.0871666 0.33755
H_ H_ 0.787909 0.268874 0.065116 0.33755
H_ H_ 0.537452 0.198347 0.03153 0.33755
H_ H_ 0.780321 0.179845 0.0154457 0.33755
H_ H_ 0.557631 0.157374 0.079934 0.33755
H_ H_ 0.802225 0.130091 0.0645235 0.33755
H_ H_ 0.60808 0.225565 0.126482 0.33755
H_ H_ 0.85443 0.205304 0.10911 0.33755
H_ H_ 0.681436 0.406403 0.153859 0.33755
H_ H_ 0.851524 0.355423 0.136761 0.33755
H_ H_ 0.660243 0.449363 0.211615 0.33755
H_ H_ 0.849292 0.426049 0.186327 0.33755
H_ H_ 0.719241 0.587374 0.174839 0.33755
H_ H_ 0.955286 0.514096 0.14704 0.33755
H_ H_ 0.727254 0.543007 0.112915 0.33755
H_ H_ 0.95524 0.441326 0.0995667 0.33755
H_ H_ 0.596274 0.0875239 0.22227 0.33755
H_ H_ 0.868576 0.128351 0.218344 0.33755
H_ H_ 0.59156 0.00295211 0.192932 0.33755
H_ H_ 0.868591 0.0511839 0.174429 0.33755
H_ H_ 0.712333 0.033347 0.207266 0.33755
H_ H_ 0.952306 0.0421093 0.254414 0.33755
H_ H_ 0.713171 0.113096 0.250286 0.33755
H_ H_ 0.927784 0.0925361 0.306181 0.33755
H_ H_ 0.72013 0.355048 0.290541 0.44417
H_ H_ 0.968426 0.324467 0.292937 0.44417
H_ H_ 0.691226 0.299627 0.288436 0.44417
H_ H_ 0.00199957 0.33823 0.265147 0.44417
H_ H_ 0.606903 0.270599 0.317689 0.33755
H_ H_ 0.842751 0.286202 0.322813 0.33755
H_ H_ 0.557988 0.184145 0.276534 0.33755
H_ H_ 0.789662 0.195384 0.277213 0.33755
H_ H_ 0.757965 0.151736 0.330404 0.33755
H_ H_ 0.0151115 0.137905 0.314052 0.33755
H_ H_ 0.746324 0.227223 0.370725 0.33755
H_ H_ 0.00863083 0.217933 0.368445 0.33755
H_ H_ 0.685974 0.411327 0.344789 0.33755
H_ H_ 0.906948 0.397359 0.367319 0.33755
H_ H_ 0.700328 0.496309 0.38113 0.33755
H_ H_ 0.926367 0.480889 0.405646 0.33755
H_ H_ 0.597657 0.444247 0.443176 0.33755
H_ H_ 0.80757 0.459494 0.432184 0.33755
H_ H_ 0.588186 0.362408 0.410581 0.33755
H_ H_ 0.790649 0.375319 0.392701 0.33755
H_ H_ 0.706073 0.135369 0.457761 0.33755
H_ H_ 0.978358 0.110951 0.481244 0.33755
H_ H_ 0.677227 0.0605486 0.408807 0.33755
H_ H_ 0.967504 0.0415782 0.428637 0.33755
H_ H_ 0.585061 0.00985098 0.477014 0.33755
H_ H_ 0.845788 0.0154901 0.437878 0.33755
H_ H_ 0.600874 0.0857042 0.021809 0.33755
H_ H_ 0.863202 0.103144 0.978596 0.33755
H_ H_ 0.566833 0.15574 0.472406 0.44417
H_ H_ 0.812237 0.144936 0.444408 0.44417
H_ H_ 0.546819 0.188715 0.455674 0.44417
H_ H_ 0.83538 0.187991 0.478876 0.44417
H_ H_ 0.703543 0.220411 0.425116 0.33755
H_ H_ 0.961236 0.224172 0.417052 0.33755
H_ H_ 0.708916 0.314936 0.479809 0.33755
H_ H_ 0.956487 0.315666 0.47138 0.33755
H_ H_ 0.695282 0.363325 0.434408 0.33755
H_ H_ 0.948136 0.363562 0.426236 0.33755
H_ H_ 0.6346 0.291849 0.390383 0.33755
H_ H_ 0.898895 0.293286 0.376129 0.33755
H_ H_ 0.647957 0.150338 0.359988 0.33755
H_ H_ 0.832022 0.104685 0.3503 0.33755
H_ H_ 0.652705 0.0840578 0.311214 0.33755
H_ H_ 0.838041 0.0596932 0.287851 0.33755
H_ H_ 0.554976 0.987313 0.356011 0.33755
H_ H_ 0.772762 0.922998 0.329459 0.33755
H_ H_ 0.554663 0.0614195 0.404991 0.33755
H_ H_ 0.769867 0.974535 0.390567 0.33755
H_ H_ 0.638845 0.388257 0.281959 0.33755
H_ H_ 0.900823 0.397657 0.267187 0.33755
H_ H_ 0.622689 0.453596 0.324716 0.33755
H_ H_ 0.910659 0.478921 0.312459 0.33755
H_ H_ 0.536599 0.445495 0.238583 0.33755
H_ H_ 0.795308 0.467136 0.28297 0.33755
H_ H_ 0.570321 0.400487 0.19198 0.33755
H_ H_ 0.789545 0.386426 0.241765 0.33755
C_ C_ 0.689597 0.239645 0.178991 0.04924
C_ C_ 0.923932 0.235105 0.177854 0.04924
C_ C_ 0.692981 0.295449 0.191965 -0.19469
C_ C_ 0.932286 0.292163 0.187086 -0.19469
C_ C_ 0.719714 0.318318 0.159512 -0.19469
C_ C_ 0.960897 0.311048 0.155521 -0.19469
C_ C_ 0.479893 0.286737 0.156773 0.04924
C_ C_ 0.743002 0.282216 0.149517 0.04924
C_ C_ 0.69074 0.212596 0.211166 0.65653
C_ C_ 0.930095 0.215601 0.214926 0.65653
C_ C_ 0.660391 0.314571 0.202685 0.65653
C_ C_ 0.900344 0.31313 0.189815 0.65653
C_ C_ 0.703858 0.323794 0.12219 0.65653
C_ C_ 0.943852 0.319334 0.119069 0.65653
C_ C_ 0.513192 0.293595 0.184156 0.65653
C_ C_ 0.778239 0.288387 0.172613 0.65653
C_ C_ 0.600004 0.0924377 0.118989 0.19216
C_ C_ 0.83252 0.0790703 0.119433 0.19216
C_ C_ 0.590838 0.0471398 0.0930699 -0.19675
C_ C_ 0.82566 0.032938 0.0963741 -0.19675
C_ C_ 0.620363 0.0259205 0.0836687 0.08851
C_ C_ 0.8527 0.0218284 0.0704925 0.08851
C_ C_ 0.65844 0.0572417 0.0920124 -0.19675
C_ C_ 0.888412 0.06061 0.0725024 -0.19675
C_ C_ 0.66648 0.105833 0.111668 0.19216
C_ C_ 0.893974 0.106362 0.0969498 0.19216
C_ C_ 0.552325 0.406016 0.0315715 0.19216
C_ C_ 0.808337 0.3923 0.0349033 0.19216
C_ C_ 0.560398 0.454831 0.0528437 -0.19675
C_ C_ 0.818788 0.43658 0.0603433 -0.19675
C_ C_ 0.598632 0.484664 0.0641594 0.08851
C_ C_ 0.853705 0.472488 0.057713 0.08851
C_ C_ 0.627374 0.470197 0.0456313 -0.19675
C_ C_ 0.880262 0.458425 0.0312806 -0.19675
C_ C_ 0.618697 0.42687 0.0188579 0.19216
C_ C_ 0.867011 0.41582 0.00420795 0.19216
C_ C_ 0.561789 0.270725 0.0708153 0.04924
C_ C_ 0.80272 0.244593 0.0556619 0.04924
C_ C_ 0.534169 0.213559 0.0614127 -0.19469
C_ C_ 0.777884 0.190215 0.047119 -0.19469
C_ C_ 0.553938 0.193239 0.0910159 -0.19469
C_ C_ 0.798506 0.165803 0.0745935 -0.19469
C_ C_ 0.594917 0.226392 0.0983728 0.04924
C_ C_ 0.8388 0.209091 0.0825275 0.04924
C_ C_ 0.577342 0.299183 0.0381592 0.65653
C_ C_ 0.821098 0.272574 0.0225234 0.65653
C_ C_ 0.492301 0.197497 0.0586769 0.65653
C_ C_ 0.735795 0.173834 0.0459867 0.65653
C_ C_ 0.535294 0.185178 0.128872 0.65653
C_ C_ 0.777139 0.15514 0.111432 0.65653
C_ C_ 0.624385 0.221542 0.0690584 0.65653
C_ C_ 0.869668 0.205315 0.0542812 0.65653
C_ C_ 0.688934 0.445376 0.159728 0.19216
C_ C_ 0.871623 0.392554 0.137844 0.19216
C_ C_ 0.676959 0.470575 0.191523 -0.19675
C_ C_ 0.872034 0.431561 0.167545 -0.19675
C_ C_ 0.68525 0.521106 0.197014 0.08851
C_ C_ 0.901648 0.478759 0.171688 0.08851
C_ C_ 0.705896 0.547593 0.169208 -0.19675
C_ C_ 0.93096 0.4832 0.145632 -0.19675
C_ C_ 0.715262 0.521677 0.13605 0.19216
C_ C_ 0.930319 0.442059 0.117598 0.19216
C_ C_ 0.621204 0.0740512 0.220771 0.19216
C_ C_ 0.880898 0.104064 0.228389 0.19216
C_ C_ 0.61993 0.0306371 0.198975 -0.19675
C_ C_ 0.884288 0.064403 0.20262 -0.19675
C_ C_ 0.651068 0.0137396 0.195891 0.08851
C_ C_ 0.911191 0.0422378 0.211237 0.08851
C_ C_ 0.6843 0.0410399 0.216621 -0.19675
C_ C_ 0.9286 0.0548041 0.248394 -0.19675
C_ C_ 0.685412 0.0854081 0.240324 0.19216
C_ C_ 0.920882 0.0911412 0.274947 0.19216
C_ C_ 0.574389 0.253517 0.310525 0.04924
C_ C_ 0.8132 0.266449 0.314349 0.04924
C_ C_ 0.567461 0.198821 0.305724 -0.19469
C_ C_ 0.807037 0.210137 0.306158 -0.19469
C_ C_ 0.535633 0.178931 0.333408 -0.19469
C_ C_ 0.780011 0.188245 0.337539 -0.19469
C_ C_ 0.75977 0.224935 0.34206 0.04924
C_ C_ 0.0190498 0.218913 0.337927 0.04924
C_ C_ 0.566638 0.280781 0.278783 0.65653
C_ C_ 0.808189 0.292393 0.282136 0.65653
C_ C_ 0.597052 0.17389 0.299721 0.65653
C_ C_ 0.838988 0.189715 0.294174 0.65653
C_ C_ 0.55572 0.169499 0.367906 0.65653
C_ C_ 0.797766 0.184799 0.374801 0.65653
C_ C_ 0.726461 0.216312 0.314766 0.65653
C_ C_ 0.984845 0.21786 0.312189 0.65653
C_ C_ 0.667055 0.419229 0.367505 0.19216
C_ C_ 0.885003 0.411994 0.381854 0.19216
C_ C_ 0.675449 0.468675 0.390236 -0.19675
C_ C_ 0.896731 0.460693 0.401232 -0.19675
C_ C_ 0.648385 0.481015 0.414622 0.08851
C_ C_ 0.869215 0.478467 0.421651 0.08851
C_ C_ 0.617724 0.43962 0.422333 -0.19675
C_ C_ 0.829626 0.446105 0.419996 -0.19675
C_ C_ 0.611558 0.392136 0.400972 0.19216
C_ C_ 0.81874 0.401212 0.393796 0.19216
C_ C_ 0.677224 0.108914 0.461168 0.19216
C_ C_ 0.949127 0.0929601 0.469615 0.19216
C_ C_ 0.666444 0.0623307 0.435977 -0.19675
C_ C_ 0.942551 0.0474492 0.444514 -0.19675
C_ C_ 0.634056 0.022784 0.442693 0.08851
C_ C_ 0.905228 0.0204396 0.43307 0.08851
C_ C_ 0.613198 0.0329649 0.47358 -0.19675
C_ C_ 0.87493 0.0360489 0.445779 -0.19675
C_ C_ 0.625028 0.0799996 0.498817 0.19216
C_ C_ 0.883508 0.0813444 0.472135 0.19216
C_ C_ 0.687203 0.245195 0.436646 0.04924
C_ C_ 0.944488 0.247492 0.428135 0.04924
C_ C_ 0.711699 0.300443 0.449106 -0.19469
C_ C_ 0.965092 0.302842 0.441824 -0.19469
C_ C_ 0.692581 0.324054 0.421227 -0.19469
C_ C_ 0.949432 0.327172 0.411021 -0.19469
C_ C_ 0.652278 0.286077 0.414364 0.04924
C_ C_ 0.909107 0.287059 0.403244 0.04924
C_ C_ 0.67192 0.218166 0.467763 0.65653
C_ C_ 0.928491 0.215323 0.458581 0.65653
C_ C_ 0.755423 0.316865 0.450849 0.65653
C_ C_ 0.00723769 0.320032 0.44522 0.65653
C_ C_ 0.712648 0.331468 0.382807 0.65653
C_ C_ 0.970477 0.335537 0.373257 0.65653
C_ C_ 0.622645 0.288839 0.445954 0.65653
C_ C_ 0.875237 0.287526 0.427819 0.65653
C_ C_ 0.635265 0.112528 0.363447 0.19216
C_ C_ 0.816896 0.0661049 0.343325 0.19216
C_ C_ 0.634769 0.0753489 0.333903 -0.19675
C_ C_ 0.825392 0.0380156 0.310275 -0.19675
C_ C_ 0.606854 0.0287626 0.330252 0.08851
C_ C_ 0.809475 0.986245 0.303792 0.08851
C_ C_ 0.578773 0.0210341 0.35817 -0.19675
C_ C_ 0.786938 0.962758 0.333798 -0.19675
C_ C_ 0.579471 0.0590339 0.388855 0.19216
C_ C_ 0.78531 0.992022 0.368405 0.19216
C_ C_ 0.615024 0.39945 0.272687 0.19216
C_ C_ 0.880142 0.417746 0.268732 0.19216
C_ C_ 0.606607 0.437403 0.296999 -0.19675
C_ C_ 0.884224 0.461417 0.295605 -0.19675
C_ C_ 0.577163 0.452496 0.285778 0.08851
C_ C_ 0.855201 0.482746 0.300755 0.08851
C_ C_ 0.562395 0.439154 0.247844 -0.19675
C_ C_ 0.820508 0.457206 0.278501 -0.19675
C_ C_ 0.577973 0.408112 0.222519 0.19216
C_ C_ 0.816908 0.411466 0.253084 0.19216
N_ N_ 0.636272 0.120278 0.124287 -0.35746
N_ N_ 0.866443 0.113506 0.119229 -0.35746
N_ N_ 0.580376 0.399755 0.0083934 -0.35746
N_ N_ 0.831773 0.382681 0.00704166 -0.35746
N_ N_ 0.703987 0.470687 0.130423 -0.35746
N_ N_ 0.898511 0.403727 0.110076 -0.35746
N_ N_ 0.654644 0.101391 0.239742 -0.35746
N_ N_ 0.898489 0.114923 0.263988 -0.35746
N_ N_ 0.635393 0.383131 0.372968 -0.35746
N_ N_ 0.846646 0.386023 0.375929 -0.35746
N_ N_ 0.657309 0.114627 0.493057 -0.35746
N_ N_ 0.920683 0.107949 0.483178 -0.35746
N_ N_ 0.61035 0.101557 0.392863 -0.35746
N_ N_ 0.799119 0.042415 0.373591 -0.35746
N_ N_ 0.597674 0.383233 0.236075 -0.35746
N_ N_ 0.845912 0.393512 0.24962 -0.35746
O_ O_ 0.713978 0.235652 0.148201 -0.2869
O_ O_ 0.947959 0.225263 0.148015 -0.2869
O_ O_ 0.519289 0.191268 0.216992 -0.71937
O_ O_ 0.776542 0.176055 0.202806 -0.71937
O_ O_ 0.71371 0.186598 0.211341 -0.57331
O_ O_ 0.951543 0.187291 0.213528 -0.57331
O_ O_ 0.664809 0.2081 0.236695 -0.57331
O_ O_ 0.907409 0.216076 0.243085 -0.57331
O_ O_ 0.626924 0.291406 0.184431 -0.57331
O_ O_ 0.86576 0.285704 0.19358 -0.57331
O_ O_ 0.665956 0.356773 0.225275 -0.64513
O_ O_ 0.909271 0.361114 0.202584 -0.64513
O_ O_ 0.670925 0.331318 0.121317 -0.57331
O_ O_ 0.908394 0.298475 0.108323 -0.57331
O_ O_ 0.73145 0.348389 0.10164 -0.64513
O_ O_ 0.967086 0.353302 0.10173 -0.64513
O_ O_ 0.547133 0.312353 0.171903 -0.57331
O_ O_ 0.802515 0.331785 0.181115 -0.57331
O_ O_ 0.509717 0.266373 0.210458 -0.57331
O_ O_ 0.779009 0.259608 0.196159 -0.57331
O_ O_ 0.590241 0.272748 0.0999983 -0.2869
O_ O_ 0.829087 0.251496 0.0855961 -0.2869
O_ O_ 0.67777 0.342943 0.0450047 -0.71937
O_ O_ 0.931758 0.317276 0.03676 -0.71937
O_ O_ 0.611922 0.329862 0.0394875 -0.57331
O_ O_ 0.854615 0.305532 0.0286277 -0.57331
O_ O_ 0.553754 0.296842 0.0101783 -0.57331
O_ O_ 0.797938 0.281748 1.000334841 -0.57331
O_ O_ 0.718086 0.206796 0.0541852 -0.57331
O_ O_ 0.966651 0.213947 0.0500411 -0.57331
O_ O_ 0.472272 0.150995 0.0617352 -0.64513
O_ O_ 0.716781 0.128121 0.0451095 -0.64513
O_ O_ 0.509973 0.206038 0.140185 -0.57331
O_ O_ 0.776951 0.193756 0.136337 -0.57331
O_ O_ 0.535396 0.147116 0.144409 -0.64513
O_ O_ 0.761864 0.109565 0.120644 -0.64513
O_ O_ 0.634539 0.18312 0.0654831 -0.57331
O_ O_ 0.877233 0.164649 0.0413623 -0.57331
O_ O_ 0.640578 0.256868 0.0485908 -0.57331
O_ O_ 0.886728 0.241586 0.0362588 -0.57331
O_ O_ 0.555692 0.263866 0.343555 -0.2869
O_ O_ 0.786487 0.270763 0.341475 -0.2869
O_ O_ 0.712024 0.324638 0.293379 -0.71937
O_ O_ 0.990678 0.330857 0.285384 -0.71937
O_ O_ 0.557429 0.321644 0.28973 -0.57331
O_ O_ 0.784691 0.318372 0.283848 -0.57331
O_ O_ 0.583511 0.274951 0.246331 -0.57331
O_ O_ 0.828675 0.288181 0.253102 -0.57331
O_ O_ 0.632894 0.200387 0.305035 -0.57331
O_ O_ 0.874547 0.214082 0.309657 -0.57331
O_ O_ 0.588042 0.126675 0.285438 -0.64513
O_ O_ 0.831525 0.146353 0.272221 -0.64513
O_ O_ 0.578937 0.207781 0.390994 -0.57331
O_ O_ 0.834146 0.186722 0.377529 -0.57331
O_ O_ 0.537599 0.132009 0.385533 -0.64513
O_ O_ 0.773427 0.163145 0.398127 -0.64513
O_ O_ 0.701248 0.173685 0.304966 -0.57331
O_ O_ 0.951252 0.186587 0.316284 -0.57331
O_ O_ 0.725811 0.250002 0.294956 -0.57331
O_ O_ 0.986235 0.254607 0.293244 -0.57331
O_ O_ 0.659863 0.241175 0.405582 -0.2869
O_ O_ 0.916447 0.240997 0.39931 -0.2869
O_ O_ 0.561013 0.172084 0.456604 -0.71937
O_ O_ 0.830589 0.169838 0.456421 -0.71937
O_ O_ 0.63549 0.191398 0.468238 -0.57331
O_ O_ 0.896238 0.179363 0.451791 -0.57331
O_ O_ 0.693951 0.221783 0.497079 -0.57331
O_ O_ 0.950828 0.217088 0.487658 -0.57331
O_ O_ 0.523354 0.284461 0.44993 -0.57331
O_ O_ 0.773533 0.286788 0.442576 -0.57331
O_ O_ 0.774565 0.364237 0.463822 -0.64513
O_ O_ 0.0241228 0.367939 0.448892 -0.64513
O_ O_ 0.721151 0.297539 0.360322 -0.57331
O_ O_ -0.0038690000000000113 0.315274 0.363302 -0.57331
O_ O_ 0.724781 0.375588 0.374679 -0.64513
O_ O_ 0.961047 0.362637 0.352013 -0.64513
O_ O_ 0.614712 0.326885 0.457235 -0.57331
O_ O_ 0.863136 0.325622 0.432772 -0.57331
O_ O_ 0.60496 0.248689 0.461531 -0.57331
O_ O_ 0.859203 0.251604 0.445971 -0.57331
Zn Zn 0.749122 0.189511 0.678124 0.88731
Zn Zn 0.983417 0.185607 0.684508 0.88731
Zn Zn 0.660078 0.166586 0.773918 0.96553
Zn Zn 0.909351 0.187048 0.797452 0.96553
Zn Zn 0.640905 0.312108 0.575935 0.88731
Zn Zn 0.892793 0.291094 0.562091 0.88731
Zn Zn 0.5705 0.332708 0.973997 0.96553
Zn Zn 0.819246 0.32311 0.966809 0.96553
Zn Zn 0.521128 0.313618 0.814086 0.88731
Zn Zn 0.74065 0.303769 0.819126 0.88731
Zn Zn 0.587924 0.306954 0.707256 0.96553
Zn Zn 0.830247 0.325475 0.728225 0.96553
Zn Zn 0.599388 0.196945 0.935174 0.88731
Zn Zn 0.857872 0.192476 0.920292 0.88731
Zn Zn 0.674774 0.178515 0.531025 0.96553
Zn Zn 0.928174 0.172131 0.518284 0.96553
H_ H_ 0.532694 0.173827 0.705257 0.44417
H_ H_ 0.798645 0.189397 0.708536 0.44417
H_ H_ 0.498983 0.154482 0.731072 0.44417
H_ H_ 0.769055 0.135476 0.700876 0.44417
H_ H_ 0.658551 0.210049 0.66286 0.33755
H_ H_ 0.889753 0.218383 0.68406 0.33755
H_ H_ 0.705793 0.294441 0.714726 0.33755
H_ H_ 0.941819 0.314796 0.721475 0.33755
H_ H_ 0.484147 0.353918 0.672446 0.33755
H_ H_ 0.732219 0.348397 0.669945 0.33755
H_ H_ 0.492633 0.275234 0.625255 0.33755
H_ H_ 0.752393 0.280843 0.620117 0.33755
H_ H_ 0.575484 0.0886658 0.638238 0.33755
H_ H_ 0.818191 0.082455 0.650804 0.33755
H_ H_ 0.560722 0.0111923 0.588097 0.33755
H_ H_ 0.81219 0.00017000000000000348 0.613903 0.33755
H_ H_ 0.678452 0.0457409 0.567204 0.33755
H_ H_ 0.914172 0.0654139 0.560253 0.33755
H_ H_ 0.691163 0.124677 0.60793 0.33755
H_ H_ 0.927325 0.14577 0.610422 0.33755
H_ H_ 0.519534 0.386057 0.511657 0.33755
H_ H_ 0.791271 0.35477 0.539093 0.33755
H_ H_ 0.535792 0.467502 0.546562 0.33755
H_ H_ 0.816521 0.431648 0.588145 0.33755
H_ H_ 0.654265 0.474936 0.553269 0.33755
H_ H_ 0.907571 0.489924 0.518448 0.33755
H_ H_ 0.64051 0.409812 0.0098214 0.33755
H_ H_ 0.887068 0.405951 0.983379 0.33755
H_ H_ 0.68845 0.361869 0.558037 0.44417
H_ H_ 0.928868 0.338689 0.526851 0.44417
H_ H_ 0.666217 0.320784 0.52327 0.44417
H_ H_ 0.942658 0.295749 0.537038 0.44417
H_ H_ 0.538339 0.276763 0.583454 0.33755
H_ H_ 0.789719 0.260185 0.56673 0.33755
H_ H_ 0.540691 0.188842 0.531702 0.33755
H_ H_ 0.785197 0.165522 0.51681 0.33755
H_ H_ 0.554957 0.139701 0.577884 0.33755
H_ H_ 0.803269 0.125187 0.563821 0.33755
H_ H_ 0.603027 0.215008 0.624847 0.33755
H_ H_ 0.85086 0.195297 0.611937 0.33755
H_ H_ 0.700587 0.417408 0.64908 0.33755
H_ H_ 0.853254 0.355118 0.649767 0.33755
H_ H_ 0.669189 0.447592 0.701854 0.33755
H_ H_ 0.858139 0.431481 0.695614 0.33755
H_ H_ 0.724627 0.596214 0.677511 0.33755
H_ H_ 0.953191 0.508465 0.631496 0.33755
H_ H_ 0.752273 0.557473 0.620056 0.33755
H_ H_ 0.943049 0.426516 0.585946 0.33755
H_ H_ 0.598607 0.0847879 0.717071 0.33755
H_ H_ 0.867521 0.123457 0.727971 0.33755
H_ H_ 0.596352 1.00649065 0.68101 0.33755
H_ H_ 0.892078 0.0651753 0.683411 0.33755
H_ H_ 0.709441 0.0258268 0.717843 0.33755
H_ H_ 0.957374 0.0444768 0.779303 0.33755
H_ H_ 0.706161 0.101119 0.767621 0.33755
H_ H_ 0.927185 0.101056 0.824617 0.33755
H_ H_ 0.688613 0.290224 0.789662 0.44417
H_ H_ 0.958148 0.307355 0.793575 0.44417
H_ H_ 0.714352 0.346113 0.789041 0.44417
H_ H_ 0.987158 0.314809 0.758577 0.44417
H_ H_ 0.604178 0.268235 0.811661 0.33755
H_ H_ 0.833451 0.281424 0.83877 0.33755
H_ H_ 0.54845 0.177044 0.775295 0.33755
H_ H_ 0.78676 0.191979 0.784125 0.33755
H_ H_ 0.76008 0.141105 0.838352 0.33755
H_ H_ 0.0198162 0.141505 0.822328 0.33755
H_ H_ 0.733451 0.210428 0.875028 0.33755
H_ H_ 0.00990952 0.219948 0.870415 0.33755
H_ H_ 0.689936 0.413469 0.856807 0.33755
H_ H_ 0.924475 0.415534 0.856365 0.33755
H_ H_ 0.698042 0.496566 0.893058 0.33755
H_ H_ 0.939494 0.484264 0.909174 0.33755
H_ H_ 0.589706 0.43422 0.94473 0.33755
H_ H_ 0.82038 0.443596 0.932451 0.33755
H_ H_ 0.577862 0.356028 0.894169 0.33755
H_ H_ 0.807486 0.372113 0.885242 0.33755
H_ H_ 0.705998 0.134863 0.970906 0.33755
H_ H_ 0.977431 0.115194 0.980349 0.33755
H_ H_ 0.682842 0.0699689 0.914987 0.33755
H_ H_ 0.963551 0.0257545 0.952161 0.33755
H_ H_ 0.585644 0.00683051 0.980082 0.33755
H_ H_ 0.848842 0.0236684 0.930385 0.33755
H_ H_ 0.605272 0.087017 0.520389 0.33755
H_ H_ 0.860333 0.0990131 0.477449 0.33755
H_ H_ 0.568379 0.145921 0.965658 0.44417
H_ H_ 0.809532 0.143511 0.946362 0.44417
H_ H_ 0.548636 0.185244 0.961878 0.44417
H_ H_ 0.835925 0.186657 0.978684 0.44417
H_ H_ 0.711148 0.236498 0.930781 0.33755
H_ H_ 0.956763 0.221849 0.90716 0.33755
H_ H_ 0.713027 0.322552 0.982324 0.33755
H_ H_ 0.960364 0.315807 0.966348 0.33755
H_ H_ 0.694658 0.365197 0.932367 0.33755
H_ H_ 0.949628 0.365239 0.924092 0.33755
H_ H_ 0.640479 0.287885 0.888084 0.33755
H_ H_ 0.892296 0.295 0.875585 0.33755
H_ H_ 0.643574 0.153898 0.864273 0.33755
H_ H_ 0.817468 0.0865485 0.852077 0.33755
H_ H_ 0.652411 0.0887654 0.817294 0.33755
H_ H_ 0.831119 0.0511094 0.788721 0.33755
H_ H_ 0.545517 0.993911 0.849285 0.33755
H_ H_ 0.78363 0.907699 0.818279 0.33755
H_ H_ 0.548874 0.0564766 0.906556 0.33755
H_ H_ 0.770351 0.94983 0.886197 0.33755
H_ H_ 0.625704 0.359861 0.776447 0.33755
H_ H_ 0.894387 0.395161 0.767676 0.33755
H_ H_ 0.615359 0.42845 0.821736 0.33755
H_ H_ 0.907248 0.475008 0.809725 0.33755
H_ H_ 0.551333 0.454903 0.729666 0.33755
H_ H_ 0.799379 0.479531 0.771374 0.33755
H_ H_ 0.574769 0.395161 0.684417 0.33755
H_ H_ 0.783629 0.393056 0.738564 0.33755
C_ C_ 0.685579 0.229049 0.676414 0.04924
C_ C_ 0.922536 0.240505 0.68971 0.04924
C_ C_ 0.687924 0.283639 0.686758 -0.19469
C_ C_ 0.927814 0.296825 0.694044 -0.19469
C_ C_ 0.714036 0.309416 0.65769 -0.19469
C_ C_ 0.957509 0.313046 0.661642 -0.19469
C_ C_ 0.481146 0.278665 0.655645 0.04924
C_ C_ 0.739359 0.277261 0.649034 0.04924
C_ C_ 0.684405 0.200054 0.70807 0.65653
C_ C_ 0.928424 0.215078 0.723075 0.65653
C_ C_ 0.655996 0.299169 0.701707 0.65653
C_ C_ 0.894852 0.316356 0.698276 0.65653
C_ C_ 0.698482 0.319085 0.621869 0.65653
C_ C_ 0.940139 0.318271 0.625267 0.65653
C_ C_ 0.516844 0.283113 0.680973 0.65653
C_ C_ 0.774638 0.285935 0.674849 0.65653
C_ C_ 0.596658 0.0773117 0.621623 0.19216
C_ C_ 0.840839 0.0775976 0.631388 0.19216
C_ C_ 0.588723 0.0332112 0.595873 -0.19675
C_ C_ 0.838086 0.0296044 0.613325 -0.19675
C_ C_ 0.617976 0.0178288 0.579855 0.08851
C_ C_ 0.865877 0.0249172 0.586807 0.08851
C_ C_ 0.65538 0.0539803 0.583371 -0.19675
C_ C_ 0.896481 0.0671342 0.584494 -0.19675
C_ C_ 0.661636 0.101024 0.604663 0.19216
C_ C_ 0.901711 0.112135 0.608686 0.19216
C_ C_ 0.54896 0.402455 0.522066 0.19216
C_ C_ 0.816252 0.385635 0.534616 0.19216
C_ C_ 0.559074 0.452374 0.54057 -0.19675
C_ C_ 0.829562 0.42856 0.562446 -0.19675
C_ C_ 0.597658 0.476747 0.557505 0.08851
C_ C_ 0.86035 0.468753 0.555838 0.08851
C_ C_ 0.62486 0.455412 0.545716 -0.19675
C_ C_ 0.88226 0.462362 0.52493 -0.19675
C_ C_ 0.613997 0.411367 0.520222 0.19216
C_ C_ 0.87069 0.416046 0.500241 0.19216
C_ C_ 0.555012 0.255108 0.571497 0.04924
C_ C_ 0.808594 0.239225 0.554633 0.04924
C_ C_ 0.533988 0.199743 0.560556 -0.19469
C_ C_ 0.781645 0.182959 0.545797 -0.19469
C_ C_ 0.551162 0.176121 0.589035 -0.19469
C_ C_ 0.799273 0.159076 0.574552 -0.19469
C_ C_ 0.591475 0.216224 0.595408 0.04924
C_ C_ 0.840439 0.19718 0.584766 0.04924
C_ C_ 0.571674 0.282647 0.538334 0.65653
C_ C_ 0.825514 0.266461 0.523487 0.65653
C_ C_ 0.491361 0.181993 0.555921 0.65653
C_ C_ 0.739282 0.171304 0.543308 0.65653
C_ C_ 0.529104 0.164317 0.624096 0.65653
C_ C_ 0.776805 0.151206 0.611582 0.65653
C_ C_ 0.625023 0.212661 0.570315 0.65653
C_ C_ 0.871956 0.193266 0.554959 0.65653
C_ C_ 0.708147 0.457119 0.656946 0.19216
C_ C_ 0.87006 0.388651 0.642106 0.19216
C_ C_ 0.689453 0.475256 0.687192 -0.19675
C_ C_ 0.875143 0.432575 0.669111 -0.19675
C_ C_ 0.694177 0.52672 0.693525 0.08851
C_ C_ 0.90347 0.476912 0.663455 0.08851
C_ C_ 0.722222 0.557771 0.672592 -0.19675
C_ C_ 0.93022 0.475176 0.636012 -0.19675
C_ C_ 0.740862 0.538558 0.642491 0.19216
C_ C_ 0.923831 0.429306 0.608943 0.19216
C_ C_ 0.622589 0.0715831 0.721073 0.19216
C_ C_ 0.881845 0.0999966 0.742111 0.19216
C_ C_ 0.622058 0.0283294 0.697635 -0.19675
C_ C_ 0.897511 0.0693323 0.715538 -0.19675
C_ C_ 0.65419 0.013186 0.694 0.08851
C_ C_ 0.92551 0.051255 0.729415 0.08851
C_ C_ 0.68468 0.0375975 0.719979 -0.19675
C_ C_ 0.934122 0.0572766 0.770415 -0.19675
C_ C_ 0.683544 0.0796945 0.746429 0.19216
C_ C_ 0.919227 0.0914761 0.79409 0.19216
C_ C_ 0.57299 0.246683 0.805721 0.04924
C_ C_ 0.804968 0.2599 0.825516 0.04924
C_ C_ 0.563452 0.190746 0.803123 -0.19469
C_ C_ 0.803267 0.204814 0.812357 -0.19469
C_ C_ 0.535613 0.174973 0.83508 -0.19469
C_ C_ 0.776219 0.182959 0.844372 -0.19469
C_ C_ 0.750371 0.214803 0.849511 0.04924
C_ C_ 0.0206185 0.22039 0.840788 0.04924
C_ C_ 0.566151 0.268109 0.77179 0.65653
C_ C_ 0.805636 0.28946 0.793183 0.65653
C_ C_ 0.596002 0.171067 0.794236 0.65653
C_ C_ 0.836719 0.184846 0.801963 0.65653
C_ C_ 0.553465 0.167129 0.871296 0.65653
C_ C_ 0.792416 0.18166 0.884451 0.65653
C_ C_ 0.721539 0.205937 0.81648 0.65653
C_ C_ 0.985585 0.214864 0.814894 0.65653
C_ C_ 0.668454 0.418778 0.875201 0.19216
C_ C_ 0.901641 0.417496 0.877128 0.19216
C_ C_ 0.672435 0.465582 0.894208 -0.19675
C_ C_ 0.909387 0.459885 0.904575 -0.19675
C_ C_ 0.644039 0.47161 0.920916 0.08851
C_ C_ 0.878781 0.472003 0.924218 0.08851
C_ C_ 0.609847 0.431483 0.922162 -0.19675
C_ C_ 0.843247 0.438906 0.917421 -0.19675
C_ C_ 0.605563 0.38733 0.895567 0.19216
C_ C_ 0.83631 0.397233 0.890388 0.19216
C_ C_ 0.678714 0.109173 0.971109 0.19216
C_ C_ 0.948371 0.0900468 0.976922 0.19216
C_ C_ 0.666703 0.0697303 0.940567 -0.19675
C_ C_ 0.940955 0.0418084 0.955293 -0.19675
C_ C_ 0.634134 0.0284346 0.943544 0.08851
C_ C_ 0.902687 0.016054 0.942098 0.08851
C_ C_ 0.608904 0.0357615 0.972528 -0.19675
C_ C_ 0.873769 0.036538 0.951538 -0.19675
C_ C_ 0.619503 0.0805978 -0.0005009999999999737 0.19216
C_ C_ 0.883911 0.0834151 0.973047 0.19216
C_ C_ 0.690523 0.254506 0.941382 0.04924
C_ C_ 0.941084 0.246429 0.922871 0.04924
C_ C_ 0.712618 0.30956 0.949726 -0.19469
C_ C_ 0.965796 0.301575 0.937456 -0.19469
C_ C_ 0.693852 0.328631 0.919939 -0.19469
C_ C_ 0.947724 0.326055 0.909929 -0.19469
C_ C_ 0.655724 0.291794 0.915487 0.04924
C_ C_ 0.906642 0.291761 0.903211 0.04924
C_ C_ 0.67188 0.225154 0.972389 0.65653
C_ C_ 0.925863 0.214226 0.953941 0.65653
C_ C_ 0.755125 0.326588 0.946838 0.65653
C_ C_ 0.00749677 0.31801 0.939566 0.65653
C_ C_ 0.712319 0.329163 0.881666 0.65653
C_ C_ 0.965583 0.331938 0.87139 0.65653
C_ C_ 0.623465 0.295783 0.942553 0.65653
C_ C_ 0.8749 0.292327 0.93227 0.65653
C_ C_ 0.626458 0.115285 0.865914 0.19216
C_ C_ 0.810545 0.0481025 0.846482 0.19216
C_ C_ 0.631801 0.0770281 0.838249 -0.19675
C_ C_ 0.822286 0.0276564 0.812092 -0.19675
C_ C_ 0.600893 0.0322222 0.829017 0.08851
C_ C_ 0.813501 0.977569 0.802902 0.08851
C_ C_ 0.57284 0.0242611 0.856936 -0.19675
C_ C_ 0.79151 0.946733 0.827495 -0.19675
C_ C_ 0.570366 0.0619616 0.885629 0.19216
C_ C_ 0.783639 0.96915 0.864841 0.19216
C_ C_ 0.614835 0.387509 0.76643 0.19216
C_ C_ 0.872217 0.414343 0.771564 0.19216
C_ C_ 0.60494 0.422613 0.792991 -0.19675
C_ C_ 0.880718 0.460565 0.793439 -0.19675
C_ C_ 0.583646 0.450324 0.779367 0.08851
C_ C_ 0.851735 0.481896 0.798669 0.08851
C_ C_ 0.571154 0.43969 0.740081 -0.19675
C_ C_ 0.819038 0.459934 0.775065 -0.19675
C_ C_ 0.580368 0.401664 0.714714 0.19216
C_ C_ 0.809401 0.410323 0.756909 0.19216
N_ N_ 0.633758 0.108681 0.62717 -0.35746
N_ N_ 0.873622 0.114785 0.632762 -0.35746
N_ N_ 0.577591 0.385142 0.508063 -0.35746
N_ N_ 0.838239 0.379521 0.504151 -0.35746
N_ N_ 0.734357 0.488211 0.63643 -0.35746
N_ N_ 0.893146 0.389403 0.612418 -0.35746
N_ N_ 0.652923 0.0972936 0.747302 -0.35746
N_ N_ 0.898865 0.116098 0.77821 -0.35746
N_ N_ 0.635369 0.379889 0.875966 -0.35746
N_ N_ 0.86524 0.387077 0.869294 -0.35746
N_ N_ 0.652943 0.116972 0.996185 -0.35746
N_ N_ 0.919753 0.108981 0.985073 -0.35746
N_ N_ 0.598216 0.105976 0.890485 -0.35746
N_ N_ 0.792685 0.0192654 0.872691 -0.35746
N_ N_ 0.603553 0.378775 0.729137 -0.35746
N_ N_ 0.837921 0.390937 0.753364 -0.35746
O_ O_ 0.713445 0.227155 0.649156 -0.2869
O_ O_ 0.942831 0.227516 0.657786 -0.2869
O_ O_ 0.511839 0.169322 0.712735 -0.71937
O_ O_ 0.777717 0.167891 0.701512 -0.71937
O_ O_ 0.70732 0.174464 0.709245 -0.57331
O_ O_ 0.943936 0.179872 0.716378 -0.57331
O_ O_ 0.662785 0.205654 0.736739 -0.57331
O_ O_ 0.907559 0.216582 0.753057 -0.57331
O_ O_ 0.623781 0.282821 0.683459 -0.57331
O_ O_ 0.860209 0.28922 0.703932 -0.57331
O_ O_ 0.664561 0.337413 0.731061 -0.64513
O_ O_ 0.902804 0.364784 0.705481 -0.64513
O_ O_ 0.6691 0.333749 0.622739 -0.57331
O_ O_ 0.913829 0.281187 0.608336 -0.57331
O_ O_ 0.725054 0.338345 0.599576 -0.64513
O_ O_ 0.960268 0.354228 0.60702 -0.64513
O_ O_ 0.55066 0.309101 0.672222 -0.57331
O_ O_ 0.796303 0.329435 0.689531 -0.57331
O_ O_ 0.51487 0.252817 0.706111 -0.57331
O_ O_ 0.778336 0.253342 0.693528 -0.57331
O_ O_ 0.582194 0.260422 0.60068 -0.2869
O_ O_ 0.833126 0.243867 0.586044 -0.2869
O_ O_ 0.669964 0.335779 0.546017 -0.71937
O_ O_ 0.927832 0.313564 0.536243 -0.71937
O_ O_ 0.603374 0.319871 0.54428 -0.57331
O_ O_ 0.858387 0.300644 0.530888 -0.57331
O_ O_ 0.551144 0.275758 0.506539 -0.57331
O_ O_ 0.801842 0.269211 0.497975 -0.57331
O_ O_ 0.724033 0.203963 0.558436 -0.57331
O_ O_ 0.97242 0.203996 0.550857 -0.57331
O_ O_ 0.475422 0.134628 0.547686 -0.64513
O_ O_ 0.718911 0.125195 0.537146 -0.64513
O_ O_ 0.504038 0.185516 0.636484 -0.57331
O_ O_ 0.771613 0.189451 0.634142 -0.57331
O_ O_ 0.528343 0.123004 0.636957 -0.64513
O_ O_ 0.768597 0.108205 0.622055 -0.64513
O_ O_ 0.634867 0.17343 0.564305 -0.57331
O_ O_ 0.879952 0.152326 0.545633 -0.57331
O_ O_ 0.646709 0.252345 0.55943 -0.57331
O_ O_ 0.893884 0.232438 0.543527 -0.57331
O_ O_ 0.555529 0.262255 0.838344 -0.2869
O_ O_ 0.777801 0.264343 0.853684 -0.2869
O_ O_ 0.708193 0.315108 0.792329 -0.71937
O_ O_ 0.979392 0.314676 0.782615 -0.71937
O_ O_ 0.55723 0.309352 0.779478 -0.57331
O_ O_ 0.784723 0.319434 0.792694 -0.57331
O_ O_ 0.583066 0.261535 0.740753 -0.57331
O_ O_ 0.831878 0.29305 0.768544 -0.57331
O_ O_ 0.632107 0.195342 0.802602 -0.57331
O_ O_ 0.871399 0.208768 0.818428 -0.57331
O_ O_ 0.587145 0.128413 0.772821 -0.64513
O_ O_ 0.829929 0.142043 0.780637 -0.64513
O_ O_ 0.584186 0.202269 0.88714 -0.57331
O_ O_ 0.821632 0.167845 0.881786 -0.57331
O_ O_ 0.535017 0.13603 0.893588 -0.64513
O_ O_ 0.765893 0.159183 0.90688 -0.64513
O_ O_ 0.69435 0.164551 0.811427 -0.57331
O_ O_ 0.952955 0.194152 0.82785 -0.57331
O_ O_ 0.723907 0.240246 0.796592 -0.57331
O_ O_ 0.986501 0.245271 0.790446 -0.57331
O_ O_ 0.661256 0.246315 0.912923 -0.2869
O_ O_ 0.913415 0.245203 0.896816 -0.2869
O_ O_ 0.566369 0.172393 0.960502 -0.71937
O_ O_ 0.828225 0.168796 0.955449 -0.71937
O_ O_ 0.636419 0.198162 0.970073 -0.57331
O_ O_ 0.892476 0.179921 0.948002 -0.57331
O_ O_ 0.693062 0.225348 1.00207164 -0.57331
O_ O_ 0.94557 0.219998 0.985382 -0.57331
O_ O_ 0.526839 0.296701 0.943078 -0.57331
O_ O_ 0.774085 0.295235 0.939237 -0.57331
O_ O_ 0.774483 0.37462 0.954926 -0.64513
O_ O_ 0.028652 0.364827 0.941929 -0.64513
O_ O_ 0.713558 0.289782 0.858761 -0.57331
O_ O_ 0.986946 0.304027 0.858911 -0.57331
O_ O_ 0.734577 0.371169 0.872877 -0.64513
O_ O_ 0.966859 0.370492 0.854048 -0.64513
O_ O_ 0.619252 0.338845 0.951738 -0.57331
O_ O_ 0.861928 0.330376 0.937364 -0.57331
O_ O_ 0.59862 0.258803 0.950516 -0.57331
O_ O_ 0.857132 0.252415 0.94616 -0.57331
Zn Zn 0.740313 0.696397 0.193867 0.88731
Zn Zn 0.00592183 0.69988 0.184149 0.88731
Zn Zn 0.660037 0.686142 0.29765 0.96553
Zn Zn 0.914462 0.675601 0.27879 0.96553
Zn Zn 0.644218 0.801118 0.0675322 0.88731
Zn Zn 0.89524 0.798774 0.0774661 0.88731
Zn Zn 0.577439 0.815653 0.467275 0.96553
Zn Zn 0.827645 0.82437 0.4767 0.96553
Zn Zn 0.493305 0.804608 0.318612 0.88731
Zn Zn 0.767126 0.814936 0.315757 0.88731
Zn Zn 0.586114 0.834515 0.226364 0.96553
Zn Zn 0.836689 0.809474 0.20916 0.96553
Zn Zn 0.609765 0.694277 0.427219 0.88731
Zn Zn 0.859811 0.691591 0.43204 0.88731
Zn Zn 0.677952 0.676571 0.0262028 0.96553
Zn Zn 0.923655 0.66883 0.0349518 0.96553
H_ H_ 0.554989 0.699184 0.206839 0.44417
H_ H_ 0.786053 0.678909 0.217426 0.44417
H_ H_ 0.523812 0.648958 0.197666 0.44417
H_ H_ 0.753588 0.674154 0.248084 0.44417
H_ H_ 0.643679 0.716646 0.182106 0.33755
H_ H_ 0.912355 0.722274 0.171144 0.33755
H_ H_ 0.694129 0.811185 0.228786 0.33755
H_ H_ 0.965714 0.812295 0.221684 0.33755
H_ H_ 0.485963 0.859772 0.16943 0.33755
H_ H_ 0.730521 0.861029 0.182389 0.33755
H_ H_ 0.506409 0.781135 0.124165 0.33755
H_ H_ 0.74008 0.782146 0.132898 0.33755
H_ H_ 0.557255 0.582814 0.1585 0.33755
H_ H_ 0.827348 0.591187 0.150455 0.33755
H_ H_ 0.555859 0.500864 0.128995 0.33755
H_ H_ 0.806537 0.522271 0.0964801 0.33755
H_ H_ 0.664001 0.575193 0.0761972 0.33755
H_ H_ 0.923442 0.55178 0.0663369 0.33755
H_ H_ 0.66712 0.647088 0.125062 0.33755
H_ H_ 0.943449 0.622492 0.122062 0.33755
H_ H_ 0.547115 0.860775 0.049338 0.33755
H_ H_ 0.771321 0.869462 0.0176154 0.33755
H_ H_ 0.564631 0.940087 0.090824 0.33755
H_ H_ 0.782276 0.956924 0.0308795 0.33755
H_ H_ 0.656263 0.997608 0.0222082 0.33755
H_ H_ 0.901314 0.97723 0.0360632 0.33755
H_ H_ 0.644428 0.905141 0.476129 0.33755
H_ H_ 0.896307 0.898537 0.512776 0.33755
H_ H_ 0.699252 0.806396 0.0433736 0.44417
H_ H_ 0.927925 0.856357 0.0536258 0.44417
H_ H_ 0.67598 0.83388 0.0226403 0.44417
H_ H_ 0.941242 0.808913 0.0426665 0.44417
H_ H_ 0.536827 0.768203 0.0698476 0.33755
H_ H_ 0.798569 0.781332 0.0960339 0.33755
H_ H_ 0.537141 0.673807 0.0219842 0.33755
H_ H_ 0.786788 0.685319 0.0352669 0.33755
H_ H_ 0.54957 0.630312 0.0699708 0.33755
H_ H_ 0.800649 0.632237 0.0839321 0.33755
H_ H_ 0.603418 0.70517 0.115938 0.33755
H_ H_ 0.855971 0.701806 0.127314 0.33755
H_ H_ 0.611461 0.848742 0.130404 0.33755
H_ H_ 0.919597 0.905704 0.13503 0.33755
H_ H_ 0.606572 0.909344 0.183151 0.33755
H_ H_ 0.903758 0.943895 0.196831 0.33755
H_ H_ 0.70414 0.0171673 0.137507 0.33755
H_ H_ 0.962975 0.0837325 0.160499 0.33755
H_ H_ 0.711147 0.943825 0.0982625 0.33755
H_ H_ 0.986434 0.0419966 0.105366 0.33755
H_ H_ 0.615679 0.627054 0.230583 0.33755
H_ H_ 0.848229 0.59212 0.23241 0.33755
H_ H_ 0.627387 0.554915 0.185484 0.33755
H_ H_ 0.846605 0.517081 0.188455 0.33755
H_ H_ 0.697627 0.54027 0.278587 0.33755
H_ H_ 0.96307 0.541483 0.217307 0.33755
H_ H_ 0.677217 0.602109 0.321608 0.33755
H_ H_ 0.967399 0.624835 0.253663 0.33755
H_ H_ 0.758878 0.84733 0.263833 0.44417
H_ H_ 0.983221 0.857959 0.284425 0.44417
H_ H_ 0.725227 0.841197 0.292894 0.44417
H_ H_ 0.949692 0.815282 0.298997 0.44417
H_ H_ 0.592412 0.790322 0.332783 0.33755
H_ H_ 0.858508 0.776975 0.332265 0.33755
H_ H_ 0.547551 0.696935 0.282405 0.33755
H_ H_ 0.809052 0.6913 0.280305 0.33755
H_ H_ 0.769749 0.647677 0.327442 0.33755
H_ H_ 0.0151864 0.649616 0.336081 0.33755
H_ H_ 0.76016 0.726322 0.374674 0.33755
H_ H_ 0.992806 0.721272 0.378452 0.33755
H_ H_ 0.6671 0.903581 0.35212 0.33755
H_ H_ 0.936197 0.904638 0.339899 0.33755
H_ H_ 0.685866 0.981109 0.404352 0.33755
H_ H_ 0.943518 0.992521 0.366387 0.33755
H_ H_ 0.568683 0.937687 0.43731 0.33755
H_ H_ 0.851082 0.933157 0.440192 0.33755
H_ H_ 0.553217 0.863584 0.389318 0.33755
H_ H_ 0.834754 0.853384 0.398415 0.33755
H_ H_ 0.721838 0.641356 0.470737 0.33755
H_ H_ 0.959925 0.634886 0.46544 0.33755
H_ H_ 0.714885 0.556871 0.434149 0.33755
H_ H_ 0.929665 0.56906 0.41445 0.33755
H_ H_ 0.591739 0.520454 0.449514 0.33755
H_ H_ 0.838733 0.51037 0.489939 0.33755
H_ H_ 0.613552 0.607757 0.985074 0.33755
H_ H_ 0.861157 0.584518 0.0263838 0.33755
H_ H_ 0.561999 0.631467 0.439247 0.44417
H_ H_ 0.806944 0.688445 0.457033 0.44417
H_ H_ 0.575834 0.67491 0.473422 0.44417
H_ H_ 0.831168 0.6654 0.481306 0.44417
H_ H_ 0.714668 0.722274 0.4215 0.33755
H_ H_ 0.972042 0.733582 0.434237 0.33755
H_ H_ 0.721154 0.81878 0.469611 0.33755
H_ H_ 0.965054 0.832958 0.477237 0.33755
H_ H_ 0.703538 0.862848 0.426512 0.33755
H_ H_ 0.945891 0.866037 0.431111 0.33755
H_ H_ 0.64583 0.786766 0.373265 0.33755
H_ H_ 0.896089 0.784563 0.387582 0.33755
H_ H_ 0.563935 0.596255 0.354827 0.33755
H_ H_ 0.90434 0.647794 0.369422 0.33755
H_ H_ 0.584689 0.550278 0.299047 0.33755
H_ H_ 0.905995 0.57766 0.318921 0.33755
H_ H_ 0.53169 0.412589 0.346081 0.33755
H_ H_ 0.803111 0.482842 0.355231 0.33755
H_ H_ 0.520814 0.464032 0.404602 0.33755
H_ H_ 0.80032 0.55836 0.4013 0.33755
H_ H_ 0.652918 0.90196 0.270979 0.33755
H_ H_ 0.883915 0.885046 0.274526 0.33755
H_ H_ 0.660964 0.981802 0.3166 0.33755
H_ H_ 0.857737 0.940252 0.319465 0.33755
H_ H_ 0.550523 0.976916 0.272543 0.33755
H_ H_ 0.790322 0.955528 0.227106 0.33755
H_ H_ 0.540009 0.88803 0.24308 0.33755
H_ H_ 0.807337 0.888539 0.182794 0.33755
C_ C_ 0.675244 0.741868 0.192227 0.04924
C_ C_ 0.940606 0.742389 0.183855 0.04924
C_ C_ 0.681796 0.798743 0.199707 -0.19469
C_ C_ 0.947107 0.799399 0.194212 -0.19469
C_ C_ 0.711287 0.821782 0.170104 -0.19469
C_ C_ 0.973427 0.819087 0.162757 -0.19469
C_ C_ 0.490363 0.782932 0.152236 0.04924
C_ C_ 0.728136 0.778699 0.162326 0.04924
C_ C_ 0.682535 0.716257 0.226634 0.65653
C_ C_ 0.941392 0.713369 0.215702 0.65653
C_ C_ 0.648326 0.818501 0.202346 0.65653
C_ C_ 0.912247 0.816055 0.204426 0.65653
C_ C_ 0.693719 0.832638 0.134989 0.65653
C_ C_ 0.956718 0.818418 0.125178 0.65653
C_ C_ 0.524387 0.792763 0.181793 0.65653
C_ C_ 0.763227 0.784405 0.185163 0.65653
C_ C_ 0.579106 0.579207 0.139094 0.19216
C_ C_ 0.848613 0.581174 0.131955 0.19216
C_ C_ 0.579308 0.533628 0.121134 -0.19675
C_ C_ 0.836948 0.539225 0.103186 -0.19675
C_ C_ 0.606194 0.531395 0.0931909 0.08851
C_ C_ 0.86561 0.523478 0.0830955 0.08851
C_ C_ 0.638289 0.574646 0.0932031 -0.19675
C_ C_ 0.903729 0.555078 0.0882326 -0.19675
C_ C_ 0.641801 0.614999 0.120286 0.19216
C_ C_ 0.914154 0.595668 0.118966 0.19216
C_ C_ 0.573149 0.889791 0.0450209 0.19216
C_ C_ 0.799612 0.892046 0.0238278 0.19216
C_ C_ 0.581333 0.936653 0.0681272 -0.19675
C_ C_ 0.805571 0.943143 0.0345582 -0.19675
C_ C_ 0.610747 0.976021 0.0591445 0.08851
C_ C_ 0.843583 0.975547 0.0439884 0.08851
C_ C_ 0.633712 0.967757 0.0293034 -0.19675
C_ C_ 0.872613 0.955571 0.03333 -0.19675
C_ C_ 0.622619 0.922091 0.00383343 0.19216
C_ C_ 0.864498 0.906747 0.0125124 0.19216
C_ C_ 0.555725 0.745069 0.0608495 0.04924
C_ C_ 0.812208 0.756111 0.0788248 0.04924
C_ C_ 0.532874 0.689153 0.0512714 -0.19469
C_ C_ 0.785126 0.700831 0.0681484 -0.19469
C_ C_ 0.548557 0.666494 0.0809245 -0.19469
C_ C_ 0.8015 0.67303 0.0963381 -0.19469
C_ C_ 0.590333 0.707211 0.0867061 0.04924
C_ C_ 0.843346 0.706562 0.0998939 0.04924
C_ C_ 0.575753 0.775123 0.029664 0.65653
C_ C_ 0.825773 0.780177 0.0460193 0.65653
C_ C_ 0.488971 0.673639 0.0474379 0.65653
C_ C_ 0.742544 0.686672 0.0676996 0.65653
C_ C_ 0.526627 0.662348 0.115955 0.65653
C_ C_ 0.781849 0.66735 0.13373 0.65653
C_ C_ 0.620964 0.705687 0.0587678 0.65653
C_ C_ 0.873855 0.698992 0.0712399 0.65653
C_ C_ 0.625983 0.887382 0.12974 0.19216
C_ C_ 0.931215 0.943026 0.142261 0.19216
C_ C_ 0.625873 0.922346 0.161514 -0.19675
C_ C_ 0.917278 0.965569 0.174156 -0.19675
C_ C_ 0.651359 0.971448 0.164234 0.08851
C_ C_ 0.927537 0.0160837 0.179858 0.08851
C_ C_ 0.681058 0.980709 0.136778 -0.19675
C_ C_ 0.946827 0.0440209 0.152708 -0.19675
C_ C_ 0.685204 0.940369 0.111946 0.19216
C_ C_ 0.964831 0.0206887 0.123639 0.19216
C_ C_ 0.630474 0.603383 0.239838 0.19216
C_ C_ 0.873456 0.579334 0.232476 0.19216
C_ C_ 0.642307 0.568223 0.214331 -0.19675
C_ C_ 0.870055 0.534724 0.208636 -0.19675
C_ C_ 0.666907 0.546433 0.227467 0.08851
C_ C_ 0.901328 0.519556 0.204066 0.08851
C_ C_ 0.678849 0.557684 0.267018 -0.19675
C_ C_ 0.935956 0.550238 0.223746 -0.19675
C_ C_ 0.668715 0.593842 0.290583 0.19216
C_ C_ 0.938386 0.595376 0.245738 0.19216
C_ C_ 0.563771 0.76447 0.321491 0.04924
C_ C_ 0.827969 0.761074 0.319649 0.04924
C_ C_ 0.559741 0.709332 0.312364 -0.19469
C_ C_ 0.819253 0.704025 0.310719 -0.19469
C_ C_ 0.530552 0.686266 0.341298 -0.19469
C_ C_ 0.790463 0.684254 0.339349 -0.19469
C_ C_ 0.771845 0.725521 0.345912 0.04924
C_ C_ 0.0104481 0.728054 0.351523 0.04924
C_ C_ 0.560335 0.789393 0.287663 0.65653
C_ C_ 0.826602 0.790318 0.287947 0.65653
C_ C_ 0.592399 0.691028 0.305073 0.65653
C_ C_ 0.851765 0.683583 0.306392 0.65653
C_ C_ 0.547038 0.679072 0.378788 0.65653
C_ C_ 0.805698 0.67535 0.375801 0.65653
C_ C_ 0.736743 0.72694 0.324696 0.65653
C_ C_ 0.978851 0.719927 0.32054 0.65653
C_ C_ 0.646721 0.911445 0.372957 0.19216
C_ C_ 0.913761 0.914508 0.355965 0.19216
C_ C_ 0.656247 0.956086 0.399746 -0.19675
C_ C_ 0.921272 0.962917 0.376967 -0.19675
C_ C_ 0.626002 0.970739 0.418625 0.08851
C_ C_ 0.897033 0.971076 0.406633 0.08851
C_ C_ 0.58971 0.933316 0.416228 -0.19675
C_ C_ 0.866752 0.930134 0.41408 -0.19675
C_ C_ 0.581609 0.891006 0.389287 0.19216
C_ C_ 0.85891 0.883677 0.39281 0.19216
C_ C_ 0.694899 0.61153 0.469799 0.19216
C_ C_ 0.930058 0.609119 0.468263 0.19216
C_ C_ 0.68925 0.565518 0.446212 -0.19675
C_ C_ 0.914155 0.568501 0.440992 -0.19675
C_ C_ 0.653044 0.529809 0.437987 0.08851
C_ C_ 0.882125 0.528939 0.447331 0.08851
C_ C_ 0.62137 0.542903 0.454972 -0.19675
C_ C_ 0.862034 0.538379 0.479831 -0.19675
C_ C_ 0.628832 0.586993 0.482713 0.19216
C_ C_ 0.875513 0.586331 0.50338 0.19216
C_ C_ 0.69725 0.747806 0.428295 0.04924
C_ C_ 0.950637 0.75392 0.442125 0.04924
C_ C_ 0.720907 0.803256 0.437727 -0.19469
C_ C_ 0.970476 0.810902 0.450558 -0.19469
C_ C_ 0.701975 0.82733 0.410993 -0.19469
C_ C_ 0.950457 0.830973 0.422285 -0.19469
C_ C_ 0.662451 0.786055 0.40078 0.04924
C_ C_ 0.911778 0.789692 0.415131 0.04924
C_ C_ 0.678114 0.719819 0.459856 0.65653
C_ C_ 0.930287 0.722867 0.471407 0.65653
C_ C_ 0.763979 0.817481 0.440487 0.65653
C_ C_ 0.0141867 0.828837 0.45405 0.65653
C_ C_ 0.722001 0.838994 0.374914 0.65653
C_ C_ 0.969409 0.840666 0.385431 0.65653
C_ C_ 0.631601 0.790887 0.428279 0.65653
C_ C_ 0.881209 0.792467 0.443215 0.65653
C_ C_ 0.558655 0.555993 0.354025 0.19216
C_ C_ 0.883704 0.608879 0.367659 0.19216
C_ C_ 0.568288 0.528646 0.321025 -0.19675
C_ C_ 0.886434 0.570164 0.338906 -0.19675
C_ C_ 0.558227 0.476691 0.317216 0.08851
C_ C_ 0.855576 0.52532 0.33383 0.08851
C_ C_ 0.544879 0.452567 0.348849 -0.19675
C_ C_ 0.825522 0.518455 0.358236 -0.19675
C_ C_ 0.537642 0.482131 0.382061 0.19216
C_ C_ 0.823904 0.559294 0.384202 0.19216
C_ C_ 0.631062 0.919878 0.275835 0.19216
C_ C_ 0.862752 0.89982 0.264047 0.19216
C_ C_ 0.636317 0.966024 0.29701 -0.19675
C_ C_ 0.854381 0.938312 0.288821 -0.19675
C_ C_ 0.607203 0.988118 0.29932 0.08851
C_ C_ 0.826945 0.95696 0.275704 0.08851
C_ C_ 0.573894 0.963781 0.274606 -0.19675
C_ C_ 0.812228 0.942922 0.237522 -0.19675
C_ C_ 0.56788 0.913932 0.254813 0.19216
C_ C_ 0.820774 0.902871 0.213559 0.19216
N_ N_ 0.611925 0.618261 0.141708 -0.35746
N_ N_ 0.886415 0.606886 0.140798 -0.35746
N_ N_ 0.591659 0.885855 0.0106261 -0.35746
N_ N_ 0.828684 0.877671 0.00852527 -0.35746
N_ N_ 0.656718 0.897709 0.105849 -0.35746
N_ N_ 0.952821 0.969467 0.11792 -0.35746
N_ N_ 0.647057 0.616279 0.276569 -0.35746
N_ N_ 0.906474 0.608275 0.252087 -0.35746
N_ N_ 0.60982 0.881981 0.367042 -0.35746
N_ N_ 0.882183 0.878056 0.362909 -0.35746
N_ N_ 0.664469 0.618621 0.490071 -0.35746
N_ N_ 0.909324 0.618024 0.498356 -0.35746
N_ N_ 0.544342 0.532049 0.384822 -0.35746
N_ N_ 0.854345 0.600641 0.391871 -0.35746
N_ N_ 0.596764 0.894944 0.258079 -0.35746
N_ N_ 0.843284 0.880045 0.229353 -0.35746
O_ O_ 0.69936 0.733858 0.161877 -0.2869
O_ O_ 0.968658 0.736662 0.158778 -0.2869
O_ O_ 0.533662 0.680293 0.199023 -0.71937
O_ O_ 0.763913 0.676625 0.226018 -0.71937
O_ O_ 0.698633 0.682158 0.221948 -0.57331
O_ O_ 0.967865 0.690727 0.217165 -0.57331
O_ O_ 0.660882 0.716993 0.255248 -0.57331
O_ O_ 0.911932 0.701357 0.236248 -0.57331
O_ O_ 0.614562 0.791521 0.207168 -0.57331
O_ O_ 0.877913 0.787762 0.192942 -0.57331
O_ O_ 0.657917 0.867221 0.209164 -0.64513
O_ O_ 0.919921 0.862612 0.21894 -0.64513
O_ O_ 0.661555 0.799011 0.117517 -0.57331
O_ O_ 0.922608 0.82241 0.12304 -0.57331
O_ O_ 0.71828 0.861075 0.113574 -0.64513
O_ O_ 0.980516 0.830109 0.0988239 -0.64513
O_ O_ 0.551116 0.836285 0.188021 -0.57331
O_ O_ 0.797847 0.805628 0.173941 -0.57331
O_ O_ 0.525931 0.760048 0.202163 -0.57331
O_ O_ 0.761696 0.761983 0.214236 -0.57331
O_ O_ 0.58165 0.751046 0.0919798 -0.2869
O_ O_ 0.841718 0.755554 0.103951 -0.2869
O_ O_ 0.681543 0.81827 0.0393219 -0.71937
O_ O_ 0.927146 0.826761 0.0492954 -0.71937
O_ O_ 0.606321 0.812259 0.0386909 -0.57331
O_ O_ 0.860148 0.813476 0.0468449 -0.57331
O_ O_ 0.554573 0.776072 0.000598317 -0.57331
O_ O_ 0.802049 0.775741 0.0182894 -0.57331
O_ O_ 0.724346 0.713646 0.056045 -0.57331
O_ O_ 0.972566 0.692682 0.0595148 -0.57331
O_ O_ 0.470418 0.626131 0.0330434 -0.64513
O_ O_ 0.723712 0.640679 0.067267 -0.64513
O_ O_ 0.521289 0.702308 0.134907 -0.57331
O_ O_ 0.761996 0.69561 0.146998 -0.57331
O_ O_ 0.512362 0.618903 0.12736 -0.64513
O_ O_ 0.780829 0.626005 0.147533 -0.64513
O_ O_ 0.633223 0.668091 0.0540305 -0.57331
O_ O_ 0.884596 0.660083 0.0670321 -0.57331
O_ O_ 0.637268 0.741892 0.0396886 -0.57331
O_ O_ 0.895085 0.73692 0.057536 -0.57331
O_ O_ 0.537024 0.770955 0.348555 -0.2869
O_ O_ 0.802659 0.769574 0.349038 -0.2869
O_ O_ 0.747301 0.840756 0.284326 -0.71937
O_ O_ 0.97308 0.832878 0.29568 -0.71937
O_ O_ 0.533281 0.810442 0.284676 -0.57331
O_ O_ 0.815604 0.830086 0.296358 -0.57331
O_ O_ 0.590256 0.799412 0.265749 -0.57331
O_ O_ 0.83592 0.777375 0.252229 -0.57331
O_ O_ 0.626282 0.715694 0.320299 -0.57331
O_ O_ 0.885555 0.713672 0.30461 -0.57331
O_ O_ 0.585061 0.644649 0.28888 -0.64513
O_ O_ 0.843985 0.633948 0.297421 -0.64513
O_ O_ 0.584532 0.6956 0.385495 -0.57331
O_ O_ 0.842493 0.698697 0.387912 -0.57331
O_ O_ 0.5238 0.650087 0.400122 -0.64513
O_ O_ 0.784777 0.639246 0.39397 -0.64513
O_ O_ 0.703004 0.690899 0.324343 -0.57331
O_ O_ 0.950984 0.677491 0.312129 -0.57331
O_ O_ 0.740693 0.752253 0.29639 -0.57331
O_ O_ 0.978509 0.755067 0.302374 -0.57331
O_ O_ 0.669329 0.740368 0.397261 -0.2869
O_ O_ 0.922531 0.746923 0.414802 -0.2869
O_ O_ 0.577411 0.659113 0.451611 -0.71937
O_ O_ 0.825017 0.677625 0.462241 -0.71937
O_ O_ 0.64677 0.680532 0.451591 -0.57331
O_ O_ 0.897557 0.688274 0.46478 -0.57331
O_ O_ 0.696375 0.724719 0.491637 -0.57331
O_ O_ 0.950965 0.723546 0.501478 -0.57331
O_ O_ 0.526763 0.793246 0.448119 -0.57331
O_ O_ 0.780771 0.787903 0.448093 -0.57331
O_ O_ 0.782276 0.865209 0.444623 -0.64513
O_ O_ 0.0335817 0.876586 0.463582 -0.64513
O_ O_ 0.750198 0.824066 0.364806 -0.57331
O_ O_ 0.97217 0.804307 0.36046 -0.57331
O_ O_ 0.717385 0.874467 0.358631 -0.64513
O_ O_ 0.984629 0.885249 0.377968 -0.64513
O_ O_ 0.61308 0.822955 0.42806 -0.57331
O_ O_ 0.874884 0.83388 0.455905 -0.57331
O_ O_ 0.617159 0.758518 0.450216 -0.57331
O_ O_ 0.856184 0.753375 0.449796 -0.57331
Zn Zn 0.742107 0.692364 0.687701 0.88731
Zn Zn 0.00425197 0.686609 0.684323 0.88731
Zn Zn 0.664782 0.684043 0.794527 0.96553
Zn Zn 0.918071 0.666868 0.781494 0.96553
Zn Zn 0.644293 0.797823 0.563071 0.88731
Zn Zn 0.896462 0.813363 0.577641 0.88731
Zn Zn 0.578347 0.824454 0.972506 0.96553
Zn Zn 0.820134 0.810733 0.977808 0.96553
Zn Zn 0.505115 0.816291 0.820534 0.88731
Zn Zn 0.767927 0.809217 0.815366 0.88731
Zn Zn 0.592626 0.833317 0.721489 0.96553
Zn Zn 0.838057 0.805737 0.702975 0.96553
Zn Zn 0.608042 0.693371 0.926194 0.88731
Zn Zn 0.85137 0.684121 0.934578 0.88731
Zn Zn 0.676485 0.680418 0.524667 0.96553
Zn Zn 0.925205 0.682184 0.533219 0.96553
H_ H_ 0.522953 0.646538 0.709346 0.44417
H_ H_ 0.788518 0.678807 0.71513 0.44417
H_ H_ 0.559021 0.697162 0.711804 0.44417
H_ H_ 0.751623 0.672781 0.742032 0.44417
H_ H_ 0.647766 0.723808 0.682687 0.33755
H_ H_ 0.909821 0.71135 0.674934 0.33755
H_ H_ 0.699652 0.817112 0.726251 0.33755
H_ H_ 0.958353 0.804363 0.722484 0.33755
H_ H_ 0.485441 0.85289 0.664063 0.33755
H_ H_ 0.735853 0.845645 0.664215 0.33755
H_ H_ 0.505036 0.776891 0.623149 0.33755
H_ H_ 0.737094 0.764236 0.622445 0.33755
H_ H_ 0.567816 0.590067 0.652496 0.33755
H_ H_ 0.828811 0.590277 0.636974 0.33755
H_ H_ 0.555926 0.504809 0.618702 0.33755
H_ H_ 0.81665 0.509727 0.607181 0.33755
H_ H_ 0.662719 0.56171 0.559301 0.33755
H_ H_ 0.934782 0.546708 0.575858 0.33755
H_ H_ 0.674597 0.64129 0.60004 0.33755
H_ H_ 0.944161 0.631525 0.607917 0.33755
H_ H_ 0.543279 0.85632 0.534725 0.33755
H_ H_ 0.779699 0.882173 0.509059 0.33755
H_ H_ 0.564222 0.925206 0.587588 0.33755
H_ H_ 0.795121 0.968814 0.549452 0.33755
H_ H_ 0.662043 0.988167 0.520156 0.33755
H_ H_ 0.913767 0.979816 0.547916 0.33755
H_ H_ 0.641428 0.915435 0.981979 0.33755
H_ H_ 0.886014 0.890844 0.00594218 0.33755
H_ H_ 0.696692 0.805046 0.536696 0.44417
H_ H_ 0.934948 0.834039 0.532725 0.44417
H_ H_ 0.668335 0.813743 0.509054 0.44417
H_ H_ 0.940688 0.876507 0.568023 0.44417
H_ H_ 0.532504 0.761996 0.564125 0.33755
H_ H_ 0.787116 0.780757 0.584625 0.33755
H_ H_ 0.535469 0.670017 0.522413 0.33755
H_ H_ 0.794324 0.692234 0.533258 0.33755
H_ H_ 0.553989 0.628039 0.575223 0.33755
H_ H_ 0.803549 0.64346 0.580666 0.33755
H_ H_ 0.605072 0.711372 0.617044 0.33755
H_ H_ 0.858122 0.719055 0.62297 0.33755
H_ H_ 0.611152 0.849357 0.636821 0.33755
H_ H_ 0.93687 0.90677 0.658943 0.33755
H_ H_ 0.608167 0.920906 0.684513 0.33755
H_ H_ 0.923914 0.954066 0.718811 0.33755
H_ H_ 0.706974 1.0151204 0.640228 0.33755
H_ H_ 0.970463 0.0877237 0.675721 0.33755
H_ H_ 0.70526 0.940879 0.584548 0.33755
H_ H_ 0.986577 0.0416234 0.617795 0.33755
H_ H_ 0.618151 0.622059 0.72354 0.33755
H_ H_ 0.852516 0.593444 0.729135 0.33755
H_ H_ 0.641396 0.564299 0.678752 0.33755
H_ H_ 0.848658 0.514072 0.686002 0.33755
H_ H_ 0.704866 0.544114 0.77415 0.33755
H_ H_ 0.963363 0.534224 0.718372 0.33755
H_ H_ 0.678576 0.60209 0.817899 0.33755
H_ H_ 0.965762 0.611191 0.761519 0.33755
H_ H_ 0.717822 0.820706 0.793526 0.44417
H_ H_ 0.974786 0.846027 0.795695 0.44417
H_ H_ 0.751549 0.822384 0.763349 0.44417
H_ H_ 0.945846 0.795316 0.794763 0.44417
H_ H_ 0.594891 0.783293 0.835796 0.33755
H_ H_ 0.8557 0.772225 0.814276 0.33755
H_ H_ 0.54583 0.696501 0.782558 0.33755
H_ H_ 0.807351 0.673883 0.777357 0.33755
H_ H_ 0.768489 0.639408 0.827104 0.33755
H_ H_ 0.0143683 0.640861 0.839133 0.33755
H_ H_ 0.764054 0.724022 0.87172 0.33755
H_ H_ 0.995487 0.716919 0.881352 0.33755
H_ H_ 0.672163 0.913634 0.855034 0.33755
H_ H_ 0.93863 0.91042 0.846157 0.33755
H_ H_ 0.684511 0.985476 0.906814 0.33755
H_ H_ 0.94591 -0.0062470000000000026 0.880021 0.33755
H_ H_ 0.56513 0.94661 0.925874 0.33755
H_ H_ 0.840974 0.930531 0.939901 0.33755
H_ H_ 0.557826 0.864259 0.891625 0.33755
H_ H_ 0.833213 0.850684 0.895291 0.33755
H_ H_ 0.72533 0.618601 0.992585 0.33755
H_ H_ 0.955105 0.637362 0.960162 0.33755
H_ H_ 0.710228 0.529252 0.963352 0.33755
H_ H_ 0.928647 0.563017 0.910923 0.33755
H_ H_ 0.598786 0.534228 0.934862 0.33755
H_ H_ 0.838868 0.502044 0.982237 0.33755
H_ H_ 0.604881 0.593304 0.497191 0.33755
H_ H_ 0.860365 0.594016 0.529046 0.33755
H_ H_ 0.566127 0.684421 0.968557 0.44417
H_ H_ 0.8036 0.684996 0.9616 0.44417
H_ H_ 0.562546 0.63113 0.943567 0.44417
H_ H_ 0.829391 0.671767 0.990906 0.44417
H_ H_ 0.710497 0.713942 0.909595 0.33755
H_ H_ 0.964075 0.728101 0.935403 0.33755
H_ H_ 0.715838 0.799269 0.969872 0.33755
H_ H_ 0.953062 0.817665 0.982251 0.33755
H_ H_ 0.701357 0.854437 0.930547 0.33755
H_ H_ 0.944343 0.86074 0.930398 0.33755
H_ H_ 0.647212 0.78768 0.877897 0.33755
H_ H_ 0.888274 0.779109 0.889063 0.33755
H_ H_ 0.563063 0.596141 0.838275 0.33755
H_ H_ 0.905352 0.640647 0.875112 0.33755
H_ H_ 0.587184 0.547582 0.788845 0.33755
H_ H_ 0.910573 0.575633 0.823018 0.33755
H_ H_ 0.529893 0.410287 0.830648 0.33755
H_ H_ 0.79427 0.491843 0.845153 0.33755
H_ H_ 0.511164 0.46582 0.887106 0.33755
H_ H_ 0.795984 0.558249 0.899285 0.33755
H_ H_ 0.656319 0.914213 0.773769 0.33755
H_ H_ 0.875056 0.866806 0.774346 0.33755
H_ H_ 0.661722 0.99464 0.808671 0.33755
H_ H_ 0.861972 0.937084 0.816277 0.33755
H_ H_ 0.5471 0.975293 0.771982 0.33755
H_ H_ 0.799077 0.959226 0.71879 0.33755
H_ H_ 0.540766 0.891378 0.739037 0.33755
H_ H_ 0.813791 0.889865 0.679396 0.33755
C_ C_ 0.678184 0.74319 0.691277 0.04924
C_ C_ 0.939356 0.732227 0.685573 0.04924
C_ C_ 0.68794 0.801028 0.695967 -0.19469
C_ C_ 0.943601 0.789314 0.694561 -0.19469
C_ C_ 0.71366 0.812964 0.661414 -0.19469
C_ C_ 0.972641 0.814549 0.665546 -0.19469
C_ C_ 0.493386 0.780749 0.652818 0.04924
C_ C_ 0.729006 0.769549 0.653961 0.04924
C_ C_ 0.683439 0.716195 0.724093 0.65653
C_ C_ 0.94535 0.712417 0.72238 0.65653
C_ C_ 0.65736 0.826131 0.70183 0.65653
C_ C_ 0.909377 0.803951 0.700695 0.65653
C_ C_ 0.693814 0.824524 0.625815 0.65653
C_ C_ 0.957164 0.825165 0.628602 0.65653
C_ C_ 0.525937 0.791366 0.680369 0.65653
C_ C_ 0.764608 0.780022 0.678661 0.65653
C_ C_ 0.59127 0.582643 0.634161 0.19216
C_ C_ 0.850828 0.582256 0.620362 0.19216
C_ C_ 0.582261 0.534618 0.612536 -0.19675
C_ C_ 0.844397 0.534109 0.60358 -0.19675
C_ C_ 0.607463 0.526564 0.583007 0.08851
C_ C_ 0.872241 0.518406 0.583208 0.08851
C_ C_ 0.641212 0.565731 0.581629 -0.19675
C_ C_ 0.908523 0.555332 0.583258 -0.19675
C_ C_ 0.649383 0.611517 0.604221 0.19216
C_ C_ 0.915293 0.603765 0.605607 0.19216
C_ C_ 0.569012 0.884817 0.53169 0.19216
C_ C_ 0.808515 0.905148 0.518741 0.19216
C_ C_ 0.57945 0.928448 0.560713 -0.19675
C_ C_ 0.81695 0.952146 0.541283 -0.19675
C_ C_ 0.6116 0.968067 0.555267 0.08851
C_ C_ 0.855487 0.980264 0.554397 0.08851
C_ C_ 0.635539 0.961355 0.524574 -0.19675
C_ C_ 0.884709 0.961755 0.539691 -0.19675
C_ C_ 0.624877 0.913919 0.499774 0.19216
C_ C_ 0.87426 0.91426 0.518 0.19216
C_ C_ 0.552387 0.740356 0.558626 0.04924
C_ C_ 0.807545 0.75901 0.5744 0.04924
C_ C_ 0.531844 0.684074 0.55241 -0.19469
C_ C_ 0.78409 0.702129 0.561326 -0.19469
C_ C_ 0.552257 0.665146 0.58174 -0.19469
C_ C_ 0.802971 0.681394 0.590727 -0.19469
C_ C_ 0.591435 0.705831 0.587597 0.04924
C_ C_ 0.843457 0.721134 0.597191 0.04924
C_ C_ 0.571968 0.769814 0.527437 0.65653
C_ C_ 0.826677 0.7894 0.54324 0.65653
C_ C_ 0.488879 0.662173 0.54776 0.65653
C_ C_ 0.741445 0.682299 0.55587 0.65653
C_ C_ 0.529862 0.656691 0.617965 0.65653
C_ C_ 0.784087 0.674496 0.629013 0.65653
C_ C_ 0.620344 0.703839 0.559033 0.65653
C_ C_ 0.874492 0.718285 0.567077 0.65653
C_ C_ 0.629854 0.888313 0.633881 0.19216
C_ C_ 0.946444 0.947253 0.664139 0.19216
C_ C_ 0.628493 0.926636 0.663078 -0.19675
C_ C_ 0.935839 0.972917 0.698504 -0.19675
C_ C_ 0.653906 0.973261 0.662172 0.08851
C_ C_ 0.942513 0.0226517 0.700953 0.08851
C_ C_ 0.684791 0.979307 0.637104 -0.19675
C_ C_ 0.963134 0.0475603 0.673539 -0.19675
C_ C_ 0.682675 0.940414 0.606005 0.19216
C_ C_ 0.975175 0.0232008 0.641199 0.19216
C_ C_ 0.635831 0.601782 0.734658 0.19216
C_ C_ 0.877194 0.581321 0.727099 0.19216
C_ C_ 0.646477 0.567812 0.710157 -0.19675
C_ C_ 0.875995 0.539512 0.699669 -0.19675
C_ C_ 0.671666 0.546327 0.721803 0.08851
C_ C_ 0.908438 0.524916 0.69157 0.08851
C_ C_ 0.683192 0.556331 0.762385 -0.19675
C_ C_ 0.940863 0.550216 0.716238 -0.19675
C_ C_ 0.668432 0.58837 0.787113 0.19216
C_ C_ 0.940818 0.594397 0.741436 0.19216
C_ C_ 0.566692 0.765535 0.821138 0.04924
C_ C_ 0.823698 0.7515 0.811092 0.04924
C_ C_ 0.56317 0.711653 0.810173 -0.19469
C_ C_ 0.818156 0.695579 0.806857 -0.19469
C_ C_ 0.533514 0.68689 0.840715 -0.19469
C_ C_ 0.789099 0.679071 0.837875 -0.19469
C_ C_ 0.775123 0.722661 0.843082 0.04924
C_ C_ 0.0129971 0.718025 0.854265 0.04924
C_ C_ 0.568928 0.796998 0.788512 0.65653
C_ C_ 0.817248 0.77462 0.776485 0.65653
C_ C_ 0.596021 0.691578 0.800262 0.65653
C_ C_ 0.851868 0.67593 0.807179 0.65653
C_ C_ 0.547919 0.684848 0.879801 0.65653
C_ C_ 0.8037 0.672882 0.877291 0.65653
C_ C_ 0.739201 0.718451 0.820468 0.65653
C_ C_ 0.978927 0.708743 0.825445 0.65653
C_ C_ 0.649773 0.917685 0.87378 0.19216
C_ C_ 0.917218 0.915245 0.86579 0.19216
C_ C_ 0.656538 0.962153 0.901714 -0.19675
C_ C_ 0.922033 0.962218 0.887121 -0.19675
C_ C_ 0.626481 0.975509 0.920197 0.08851
C_ C_ 0.894939 0.967926 0.915163 0.08851
C_ C_ 0.590637 0.93885 0.915348 -0.19675
C_ C_ 0.861857 0.927565 0.917429 -0.19675
C_ C_ 0.586882 0.891002 0.895918 0.19216
C_ C_ 0.857277 0.883119 0.891835 0.19216
C_ C_ 0.698268 0.596098 0.985095 0.19216
C_ C_ 0.930949 0.604902 0.965749 0.19216
C_ C_ 0.69029 0.549538 0.963936 -0.19675
C_ C_ 0.918101 0.562526 0.937895 -0.19675
C_ C_ 0.652727 0.521703 0.947341 0.08851
C_ C_ 0.888272 0.521816 0.946411 0.08851
C_ C_ 0.623372 0.544551 0.954972 -0.19675
C_ C_ 0.863886 0.532406 0.975692 -0.19675
C_ C_ 0.633471 0.589069 0.980294 0.19216
C_ C_ 0.875657 0.577006 0.00155275 0.19216
C_ C_ 0.69174 0.735372 0.922907 0.04924
C_ C_ 0.942356 0.746594 0.94548 0.04924
C_ C_ 0.718068 0.789577 0.937281 -0.19469
C_ C_ 0.962923 0.803032 0.954679 -0.19469
C_ C_ 0.701674 0.819476 0.911932 -0.19469
C_ C_ 0.946425 0.822909 0.92156 -0.19469
C_ C_ 0.659866 0.78419 0.904149 0.04924
C_ C_ 0.905999 0.781853 0.913873 0.04924
C_ C_ 0.675503 0.706617 0.955992 0.65653
C_ C_ 0.923234 0.720749 0.977704 0.65653
C_ C_ 0.76094 0.801967 0.940567 0.65653
C_ C_ 0.00648247 0.824785 0.964312 0.65653
C_ C_ 0.723386 0.833196 0.878031 0.65653
C_ C_ 0.968466 0.827266 0.885926 0.65653
C_ C_ 0.627338 0.78803 0.932091 0.65653
C_ C_ 0.874485 0.783037 0.942249 0.65653
C_ C_ 0.554541 0.553438 0.836523 0.19216
C_ C_ 0.882137 0.605454 0.869722 0.19216
C_ C_ 0.569363 0.526956 0.808199 -0.19675
C_ C_ 0.883721 0.566002 0.840016 -0.19675
C_ C_ 0.564531 0.476779 0.808067 0.08851
C_ C_ 0.85294 0.521281 0.831992 0.08851
C_ C_ 0.537909 0.45095 0.833252 -0.19675
C_ C_ 0.821156 0.518814 0.854309 -0.19675
C_ C_ 0.524734 0.479894 0.862109 0.19216
C_ C_ 0.821322 0.557566 0.884512 0.19216
C_ C_ 0.631402 0.926517 0.774827 0.19216
C_ C_ 0.860974 0.889129 0.761084 0.19216
C_ C_ 0.633801 0.970902 0.796618 -0.19675
C_ C_ 0.855458 0.929931 0.785251 -0.19675
C_ C_ 0.602114 0.987566 0.798298 0.08851
C_ C_ 0.833024 0.95506 0.770753 0.08851
C_ C_ 0.570148 0.9621 0.774612 -0.19675
C_ C_ 0.816459 0.939391 0.732297 -0.19675
C_ C_ 0.5667 0.914226 0.754485 0.19216
C_ C_ 0.828039 0.902387 0.707894 0.19216
N_ N_ 0.622476 0.619367 0.627954 -0.35746
N_ N_ 0.886271 0.615232 0.623076 -0.35746
N_ N_ 0.591013 0.880173 0.501135 -0.35746
N_ N_ 0.836886 0.886459 0.509568 -0.35746
N_ N_ 0.654187 0.897474 0.605978 -0.35746
N_ N_ 0.96536 0.973317 0.636652 -0.35746
N_ N_ 0.651778 0.615427 0.770705 -0.35746
N_ N_ 0.909555 0.607771 0.746734 -0.35746
N_ N_ 0.614489 0.880197 0.874811 -0.35746
N_ N_ 0.883411 0.880435 0.867191 -0.35746
N_ N_ 0.669061 0.610515 0.996122 -0.35746
N_ N_ 0.910433 0.610137 0.996318 -0.35746
N_ N_ 0.534214 0.530249 0.86313 -0.35746
N_ N_ 0.849956 0.601548 0.88939 -0.35746
N_ N_ 0.598807 0.899017 0.752944 -0.35746
N_ N_ 0.846817 0.876097 0.724079 -0.35746
O_ O_ 0.697543 0.729461 0.660215 -0.2869
O_ O_ 0.965385 0.727771 0.65564 -0.2869
O_ O_ 0.534049 0.676437 0.708035 -0.71937
O_ O_ 0.765315 0.676119 0.721238 -0.71937
O_ O_ 0.697398 0.679966 0.716597 -0.57331
O_ O_ 0.968129 0.686874 0.722517 -0.57331
O_ O_ 0.667894 0.723467 0.757219 -0.57331
O_ O_ 0.917435 0.706153 0.744741 -0.57331
O_ O_ 0.621761 0.799654 0.695149 -0.57331
O_ O_ 0.876588 0.778894 0.683767 -0.57331
O_ O_ 0.664191 0.873279 0.712698 -0.64513
O_ O_ 0.912702 0.845488 0.723686 -0.64513
O_ O_ 0.659679 0.797583 0.613819 -0.57331
O_ O_ 0.920607 0.808824 0.620353 -0.57331
O_ O_ 0.715287 0.848323 0.601214 -0.64513
O_ O_ 0.978337 0.863805 0.614413 -0.64513
O_ O_ 0.553993 0.833929 0.683684 -0.57331
O_ O_ 0.797874 0.804728 0.669036 -0.57331
O_ O_ 0.527993 0.761902 0.703443 -0.57331
O_ O_ 0.764038 0.753714 0.705711 -0.57331
O_ O_ 0.580182 0.749477 0.588774 -0.2869
O_ O_ 0.834739 0.76637 0.604484 -0.2869
O_ O_ 0.676817 0.809578 0.530459 -0.71937
O_ O_ 0.929405 0.848648 0.553497 -0.71937
O_ O_ 0.605199 0.803516 0.533931 -0.57331
O_ O_ 0.861805 0.819022 0.545947 -0.57331
O_ O_ 0.553341 0.76526 0.49396 -0.57331
O_ O_ 0.8058 0.783212 0.51169 -0.57331
O_ O_ 0.720694 0.712644 0.556167 -0.57331
O_ O_ 0.970871 0.701503 0.561328 -0.57331
O_ O_ 0.47284 0.614384 0.536673 -0.64513
O_ O_ 0.726352 0.634971 0.546826 -0.64513
O_ O_ 0.525678 0.693192 0.641372 -0.57331
O_ O_ 0.753304 0.686153 0.638807 -0.57331
O_ O_ 0.519727 0.612468 0.627578 -0.64513
O_ O_ 0.796869 0.647718 0.649367 -0.64513
O_ O_ 0.63376 0.666854 0.552484 -0.57331
O_ O_ 0.882726 0.678024 0.561067 -0.57331
O_ O_ 0.632929 0.737465 0.53765 -0.57331
O_ O_ 0.895207 0.756642 0.553235 -0.57331
O_ O_ 0.537764 0.769436 0.845216 -0.2869
O_ O_ 0.807043 0.764894 0.843158 -0.2869
O_ O_ 0.739747 0.820906 0.785017 -0.71937
O_ O_ 0.968306 0.816385 0.799154 -0.71937
O_ O_ 0.546623 0.825786 0.78918 -0.57331
O_ O_ 0.805126 0.811692 0.782106 -0.57331
O_ O_ 0.590679 0.795441 0.760094 -0.57331
O_ O_ 0.83376 0.767426 0.744367 -0.57331
O_ O_ 0.629556 0.711609 0.818787 -0.57331
O_ O_ 0.886483 0.702549 0.800929 -0.57331
O_ O_ 0.589794 0.649651 0.775612 -0.64513
O_ O_ 0.843006 0.628324 0.798514 -0.64513
O_ O_ 0.577913 0.672862 0.883271 -0.57331
O_ O_ 0.835501 0.704029 0.893614 -0.57331
O_ O_ 0.523288 0.680875 0.906461 -0.64513
O_ O_ 0.783362 0.638048 0.893676 -0.64513
O_ O_ 0.706759 0.686764 0.826824 -0.57331
O_ O_ 0.953228 0.664218 0.818748 -0.57331
O_ O_ 0.739944 0.747062 0.794211 -0.57331
O_ O_ 0.979519 0.740121 0.801099 -0.57331
O_ O_ 0.662164 0.734614 0.897772 -0.2869
O_ O_ 0.915498 0.737234 0.912815 -0.2869
O_ O_ 0.571884 0.663173 0.951238 -0.71937
O_ O_ 0.822085 0.677334 0.969641 -0.71937
O_ O_ 0.639016 0.68155 0.956098 -0.57331
O_ O_ 0.891783 0.681187 0.967978 -0.57331
O_ O_ 0.696326 0.708416 0.984954 -0.57331
O_ O_ 0.944544 0.720474 0.00710459 -0.57331
O_ O_ 0.534182 0.804759 0.94031 -0.57331
O_ O_ 0.778228 0.770234 0.94497 -0.57331
O_ O_ 0.782658 0.849324 0.943752 -0.64513
O_ O_ 0.0210223 0.873314 0.975812 -0.64513
O_ O_ 0.746171 0.809319 0.863943 -0.57331
O_ O_ 0.978377 0.791457 0.867472 -0.57331
O_ O_ 0.724422 0.875082 0.866901 -0.64513
O_ O_ 0.985079 0.870159 0.87732 -0.64513
O_ O_ 0.620337 0.829182 0.941819 -0.57331
O_ O_ 0.864056 0.821803 0.949653 -0.57331
O_ O_ 0.608799 0.753126 0.949406 -0.57331
O_ O_ 0.859013 0.74739 0.960656 -0.57331
