_cell_length_a 44.444
_cell_length_b 32.3360000049186
_cell_length_c 31.843999878906452
_cell_angle_alpha 89.99799923859553
_cell_angle_beta 91.13600050494348
_cell_angle_gamma 89.9990006550086
_symmetry_space_group_name_H-M         'P 1'
_symmetry_Int_Tables_number            1
loop_
_symmetry_equiv_pos_as_xyz
   'x, y, z'
                         
loop_
_atom_site_label
_atom_site_type_symbol
_atom_site_fract_x 
_atom_site_fract_y
_atom_site_fract_z
_atom_site_charge
Zn Zn 0.125384 0.244797 0.284097 0.9476
Zn Zn 0.377357 0.24447 0.282945 0.9476
Zn Zn 0.12559 0.246084 0.21488 0.9476
Zn Zn 0.376137 0.245448 0.211178 0.9476
H_ H_ 0.0197934 0.402792 0.195721 0.10932
H_ H_ 0.275172 0.40031 0.186001 0.10932
H_ H_ 0.0857004 0.362838 0.319232 0.10932
H_ H_ 0.329663 0.354457 0.314762 0.10932
H_ H_ 0.0556873 0.347034 0.191822 0.10932
H_ H_ 0.30967 0.34374 0.182083 0.10932
H_ H_ 0.0580284 0.431953 0.322573 0.10932
H_ H_ 0.30014 0.421315 0.31365 0.10932
H_ H_ 0.236956 0.393208 0.315601 0.10932
H_ H_ 0.465059 0.415544 0.307845 0.10932
H_ H_ 0.163953 0.378312 0.197896 0.10932
H_ H_ 0.437727 0.347635 0.171711 0.10932
H_ H_ 0.212797 0.326292 0.306282 0.10932
H_ H_ 0.435426 0.35021 0.308759 0.10932
H_ H_ 0.199298 0.437917 0.202003 0.10932
H_ H_ 0.469612 0.407872 0.173596 0.10932
H_ H_ 0.232628 0.0991589 0.306123 0.10932
H_ H_ 0.473229 0.0836797 0.322855 0.10932
H_ H_ 0.170014 0.128333 0.179765 0.10932
H_ H_ 0.423152 0.124853 0.191477 0.10932
H_ H_ 0.201301 0.158448 0.305542 0.10932
H_ H_ 0.443919 0.146649 0.321663 0.10932
H_ H_ 0.193217 0.0589214 0.18996 0.10932
H_ H_ 0.458043 0.0649633 0.188756 0.10932
H_ H_ 0.0343434 0.0755981 0.184363 0.10932
H_ H_ 0.268591 0.0989828 0.179645 0.10932
H_ H_ 0.0581442 0.153285 0.315839 0.10932
H_ H_ 0.33951 0.120554 0.298852 0.10932
H_ H_ 0.0669458 0.138995 0.184392 0.10932
H_ H_ 0.293087 0.165864 0.187696 0.10932
H_ H_ 0.0318208 0.0849148 0.319318 0.10932
H_ H_ 0.312002 0.0527189 0.291266 0.10932
H_ H_ 0.130959 0.309343 0.352859 0.10932
H_ H_ 0.388856 0.307585 0.360205 0.10932
H_ H_ 0.116423 0.180554 0.361057 0.10932
H_ H_ 0.367785 0.178705 0.35508 0.10932
H_ H_ 0.123259 0.183516 0.442908 0.10932
H_ H_ 0.365982 0.175167 0.434511 0.10932
H_ H_ 0.138954 0.31442 0.432423 0.10932
H_ H_ 0.372667 0.309504 0.434993 0.10932
H_ H_ 0.121327 0.305973 0.132755 0.10932
H_ H_ 0.383079 0.305361 0.133174 0.10932
H_ H_ 0.132021 0.176522 0.148259 0.10932
H_ H_ 0.364798 0.178292 0.138958 0.10932
H_ H_ 0.128101 0.168519 0.0699361 0.10932
H_ H_ 0.35492 0.174506 0.0643686 0.10932
H_ H_ 0.114758 0.297032 0.0570903 0.10932
H_ H_ 0.386672 0.303528 0.0536005 0.10932
C_ C_ 0.0745772 0.351939 0.252446 -0.02249
C_ C_ 0.322552 0.34329 0.246651 -0.02249
C_ C_ 0.0206672 0.463036 0.257432 -0.02249
C_ C_ 0.26857 0.455255 0.248305 -0.02249
C_ C_ 0.0374128 0.398981 0.220458 -0.11473
C_ C_ 0.289197 0.392547 0.21228 -0.11473
C_ C_ 0.0729824 0.374646 0.291704 -0.11473
C_ C_ 0.319275 0.364786 0.285022 -0.11473
C_ C_ 0.0563664 0.364866 0.219155 -0.11473
C_ C_ 0.308685 0.35895 0.211115 -0.11473
C_ C_ 0.0382836 0.423902 0.257777 -0.02249
C_ C_ 0.285871 0.415931 0.248212 -0.02249
C_ C_ 0.0893594 0.309183 0.25189 0.6875
C_ C_ 0.342584 0.305937 0.246425 0.6875
C_ C_ 0.0554787 0.41159 0.294275 -0.11473
C_ C_ 0.300681 0.401643 0.286298 -0.11473
C_ C_ 0.184905 0.34383 0.250688 -0.02249
C_ C_ 0.435852 0.342621 0.239974 -0.02249
C_ C_ 0.237256 0.456408 0.259132 -0.02249
C_ C_ 0.483489 0.45862 0.238793 -0.02249
C_ C_ 0.220962 0.390097 0.290096 -0.11473
C_ C_ 0.458751 0.400199 0.279857 -0.11473
C_ C_ 0.182091 0.377146 0.220082 -0.11473
C_ C_ 0.445857 0.360937 0.201695 -0.11473
C_ C_ 0.206863 0.350238 0.283435 -0.11473
C_ C_ 0.44312 0.36215 0.278296 -0.11473
C_ C_ 0.219015 0.419286 0.25883 -0.02249
C_ C_ 0.467958 0.418187 0.241278 -0.02249
C_ C_ 0.164952 0.306047 0.24696 0.6875
C_ C_ 0.416632 0.303934 0.242281 0.6875
C_ C_ 0.198439 0.413116 0.225135 -0.11473
C_ C_ 0.460162 0.398291 0.20311 -0.11473
C_ C_ 0.183741 0.149099 0.24349 -0.02249
C_ C_ 0.432702 0.143736 0.253264 -0.02249
C_ C_ 0.236289 0.0380128 0.249149 -0.02249
C_ C_ 0.486896 0.0324436 0.254105 -0.02249
C_ C_ 0.222463 0.107182 0.277349 -0.11473
C_ C_ 0.466552 0.0959044 0.291364 -0.11473
C_ C_ 0.182967 0.120621 0.208775 -0.11473
C_ C_ 0.435752 0.118624 0.218364 -0.11473
C_ C_ 0.204894 0.141848 0.275994 -0.11473
C_ C_ 0.445961 0.129205 0.292374 -0.11473
C_ C_ 0.219971 0.0770908 0.245932 -0.02249
C_ C_ 0.468473 0.0706354 0.255266 -0.02249
C_ C_ 0.166379 0.18649 0.246937 0.6875
C_ C_ 0.414936 0.182801 0.250102 0.6875
C_ C_ 0.199337 0.0830259 0.211875 -0.11473
C_ C_ 0.456625 0.0851496 0.217562 -0.11473
C_ C_ 0.0633501 0.151958 0.24991 -0.02249
C_ C_ 0.318629 0.148806 0.243874 -0.02249
C_ C_ 0.0170091 0.0362717 0.255308 -0.02249
C_ C_ 0.266196 0.0352763 0.2348 -0.02249
C_ C_ 0.0399586 0.0921429 0.213973 -0.11473
C_ C_ 0.282169 0.105739 0.207254 -0.11473
C_ C_ 0.0542453 0.134703 0.288639 -0.11473
C_ C_ 0.324587 0.116765 0.271197 -0.11473
C_ C_ 0.0571016 0.129367 0.212528 -0.11473
C_ C_ 0.297863 0.141907 0.20969 -0.11473
C_ C_ 0.0316873 0.0770649 0.253233 -0.02249
C_ C_ 0.287813 0.0721446 0.234055 -0.02249
C_ C_ 0.0853509 0.188141 0.251425 0.6875
C_ C_ 0.334857 0.188798 0.247167 0.6875
C_ C_ 0.0400223 0.0969831 0.290895 -0.11473
C_ C_ 0.308001 0.079491 0.268801 -0.11473
C_ C_ 0.128012 0.28351 0.373767 0.17695
C_ C_ 0.380902 0.279707 0.375892 0.17695
C_ C_ 0.121114 0.210844 0.378516 0.17695
C_ C_ 0.370582 0.206541 0.372722 0.17695
C_ C_ 0.12387 0.212071 0.423409 -0.11473
C_ C_ 0.365509 0.204448 0.416705 -0.11473
C_ C_ 0.128383 0.250265 0.443595 0.23465
C_ C_ 0.367683 0.241846 0.440129 0.23465
C_ C_ 0.129786 0.285595 0.418429 -0.11473
C_ C_ 0.376187 0.279568 0.41958 -0.11473
C_ C_ 0.123382 0.276096 0.117892 0.17695
C_ C_ 0.381113 0.275648 0.116889 0.17695
C_ C_ 0.129519 0.203225 0.12731 0.17695
C_ C_ 0.366982 0.205911 0.120726 0.17695
C_ C_ 0.126667 0.198694 0.0835393 -0.11473
C_ C_ 0.364179 0.203034 0.0774588 -0.11473
C_ C_ 0.125787 0.23325 0.0575687 0.23465
C_ C_ 0.373137 0.236789 0.0523044 0.23465
C_ C_ 0.11855 0.271147 0.0748271 -0.11473
C_ C_ 0.381012 0.274564 0.0727155 -0.11473
C_ C_ 0.0351933 0.500721 0.255822 0.05793
C_ C_ 0.285164 0.492487 0.246506 0.05793
C_ C_ 0.220376 0.00119305 0.259263 0.05793
C_ C_ 0.472822 0.992311 0.258304 0.05793
Br Br 0.0791416 0.507094 0.254364 -0.17191
Br Br 0.327199 0.490249 0.234559 -0.17191
Br Br 0.181321 0.00529657 0.284084 -0.17191
Br Br 0.430095 0.994256 0.27806 -0.17191
N_ N_ 0.125335 0.24544 0.355283 -0.272
N_ N_ 0.377194 0.243321 0.353722 -0.272
N_ N_ 0.134797 0.251901 0.487019 -0.12501
N_ N_ 0.361308 0.241642 0.48456 -0.12501
N_ N_ 0.126333 0.241818 0.142852 -0.272
N_ N_ 0.376825 0.241109 0.139682 -0.272
N_ N_ 0.122024 0.226977 0.0118376 -0.12501
N_ N_ 0.375004 0.232838 0.0091271 -0.12501
O_ O_ 0.0918927 0.289012 0.218517 -0.60745
O_ O_ 0.347887 0.289423 0.211711 -0.60745
O_ O_ 0.102204 0.296477 0.285216 -0.60745
O_ O_ 0.348485 0.289074 0.281439 -0.60745
O_ O_ 0.16238 0.284381 0.278727 -0.60745
O_ O_ 0.410229 0.287319 0.277989 -0.60745
O_ O_ 0.151782 0.295734 0.211898 -0.60745
O_ O_ 0.408538 0.286031 0.209013 -0.60745
O_ O_ 0.152137 0.19254 0.280317 -0.60745
O_ O_ 0.406118 0.200781 0.284127 -0.60745
O_ O_ 0.159406 0.205944 0.214222 -0.60745
O_ O_ 0.404955 0.195884 0.214598 -0.60745
O_ O_ 0.098106 0.199426 0.217858 -0.60745
O_ O_ 0.341395 0.2072 0.214094 -0.60745
O_ O_ 0.09019 0.206914 0.285712 -0.60745
O_ O_ 0.345317 0.20211 0.282223 -0.60745
Zn Zn 0.125224 0.254348 0.784051 0.9476
Zn Zn 0.373057 0.253463 0.778986 0.9476
Zn Zn 0.127415 0.251871 0.717765 0.9476
Zn Zn 0.368987 0.247966 0.710759 0.9476
H_ H_ 0.0276237 0.413864 0.680628 0.10932
H_ H_ 0.299737 0.435013 0.688026 0.10932
H_ H_ 0.0707044 0.359433 0.817184 0.10932
H_ H_ 0.292573 0.338286 0.803199 0.10932
H_ H_ 0.063849 0.35569 0.682364 0.10932
H_ H_ 0.335122 0.379191 0.692006 0.10932
H_ H_ 0.043095 0.428953 0.812726 0.10932
H_ H_ 0.266184 0.399334 0.80865 0.10932
H_ H_ 0.20176 0.436739 0.806001 0.10932
H_ H_ 0.475793 0.409171 0.804142 0.10932
H_ H_ 0.21016 0.3325 0.69414 0.10932
H_ H_ 0.424377 0.361305 0.673888 0.10932
H_ H_ 0.176066 0.37147 0.812883 0.10932
H_ H_ 0.436796 0.355209 0.806583 0.10932
H_ H_ 0.232751 0.401348 0.684965 0.10932
H_ H_ 0.448753 0.428247 0.672523 0.10932
H_ H_ 0.208165 0.0789485 0.821 0.10932
H_ H_ 0.474953 0.0998569 0.806917 0.10932
H_ H_ 0.195176 0.155677 0.687651 0.10932
H_ H_ 0.428382 0.13846 0.669947 0.10932
H_ H_ 0.187466 0.151935 0.823634 0.10932
H_ H_ 0.447214 0.161554 0.800227 0.10932
H_ H_ 0.220032 0.086322 0.688977 0.10932
H_ H_ 0.451374 0.0715687 0.679273 0.10932
H_ H_ 0.0231285 0.0995291 0.683841 0.10932
H_ H_ 0.295835 0.0691728 0.691229 0.10932
H_ H_ 0.0798889 0.137445 0.815846 0.10932
H_ H_ 0.295981 0.160982 0.812912 0.10932
H_ H_ 0.0567698 0.153249 0.684214 0.10932
H_ H_ 0.327408 0.130802 0.687422 0.10932
H_ H_ 0.0544756 0.0716645 0.810293 0.10932
H_ H_ 0.265886 0.101079 0.811235 0.10932
H_ H_ 0.110759 0.317109 0.859696 0.10932
H_ H_ 0.374607 0.316817 0.853314 0.10932
H_ H_ 0.141634 0.193258 0.858179 0.10932
H_ H_ 0.367908 0.186905 0.858695 0.10932
H_ H_ 0.135529 0.188548 0.935116 0.10932
H_ H_ 0.386166 0.187609 0.939117 0.10932
H_ H_ 0.0994905 0.312749 0.935946 0.10932
H_ H_ 0.384146 0.319877 0.927512 0.10932
H_ H_ 0.124748 0.186538 0.647337 0.10932
H_ H_ 0.364603 0.188814 0.629525 0.10932
H_ H_ 0.121022 0.315424 0.638353 0.10932
H_ H_ 0.365194 0.320977 0.64252 0.10932
H_ H_ 0.122438 0.312145 0.558925 0.10932
H_ H_ 0.370024 0.328481 0.570045 0.10932
H_ H_ 0.120471 0.180006 0.570633 0.10932
H_ H_ 0.36693 0.19702 0.553743 0.10932
C_ C_ 0.0718951 0.353871 0.749262 -0.02249
C_ C_ 0.316524 0.350693 0.747152 -0.02249
C_ C_ 0.0166837 0.464078 0.747673 -0.02249
C_ C_ 0.26473 0.464767 0.747629 -0.02249
C_ C_ 0.0383829 0.403894 0.71051 -0.11473
C_ C_ 0.300073 0.416907 0.715099 -0.11473
C_ C_ 0.062088 0.371477 0.7869 -0.11473
C_ C_ 0.296665 0.359813 0.778554 -0.11473
C_ C_ 0.0603612 0.371594 0.710542 -0.11473
C_ C_ 0.317628 0.381923 0.71376 -0.11473
C_ C_ 0.0336465 0.42577 0.748 -0.02249
C_ C_ 0.28132 0.422351 0.746548 -0.02249
C_ C_ 0.0882803 0.314839 0.751757 0.6875
C_ C_ 0.333614 0.311592 0.74896 0.6875
C_ C_ 0.045564 0.40859 0.784241 -0.11473
C_ C_ 0.280548 0.395765 0.780415 -0.11473
C_ C_ 0.187602 0.349711 0.753142 -0.02249
C_ C_ 0.431068 0.349642 0.740746 -0.02249
C_ C_ 0.232148 0.466131 0.7416 -0.02249
C_ C_ 0.482868 0.465391 0.737443 -0.02249
C_ C_ 0.203277 0.414683 0.780574 -0.11473
C_ C_ 0.462072 0.402515 0.775628 -0.11473
C_ C_ 0.20476 0.357355 0.717302 -0.11473
C_ C_ 0.436715 0.370337 0.701639 -0.11473
C_ C_ 0.187791 0.377893 0.784877 -0.11473
C_ C_ 0.4435 0.367487 0.77729 -0.11473
C_ C_ 0.215419 0.427702 0.743198 -0.02249
C_ C_ 0.465443 0.425791 0.738006 -0.02249
C_ C_ 0.168209 0.311096 0.753462 0.6875
C_ C_ 0.411591 0.312907 0.742627 0.6875
C_ C_ 0.216979 0.39681 0.711351 -0.11473
C_ C_ 0.449213 0.410225 0.701473 -0.11473
C_ C_ 0.187376 0.156363 0.754189 -0.02249
C_ C_ 0.429808 0.152635 0.739131 -0.02249
C_ C_ 0.231739 0.0381507 0.753868 -0.02249
C_ C_ 0.479685 0.0383062 0.743045 -0.02249
C_ C_ 0.203912 0.0951556 0.792423 -0.11473
C_ C_ 0.462708 0.104522 0.776824 -0.11473
C_ C_ 0.194924 0.135777 0.71635 -0.11473
C_ C_ 0.434248 0.128202 0.702522 -0.11473
C_ C_ 0.192703 0.135842 0.793083 -0.11473
C_ C_ 0.445338 0.140702 0.774706 -0.11473
C_ C_ 0.216088 0.0788844 0.756124 -0.02249
C_ C_ 0.461134 0.0773151 0.742373 -0.02249
C_ C_ 0.167434 0.193858 0.751682 0.6875
C_ C_ 0.411749 0.189423 0.739152 0.6875
C_ C_ 0.212668 0.100242 0.717225 -0.11473
C_ C_ 0.449036 0.0899601 0.706062 -0.11473
C_ C_ 0.067691 0.157156 0.750755 -0.02249
C_ C_ 0.316643 0.149545 0.752896 -0.02249
C_ C_ 0.0142407 0.0425593 0.749782 -0.02249
C_ C_ 0.262916 0.0387575 0.757063 -0.02249
C_ C_ 0.0337754 0.107069 0.714815 -0.11473
C_ C_ 0.298245 0.0867181 0.719904 -0.11473
C_ C_ 0.0656692 0.1317 0.78721 -0.11473
C_ C_ 0.299344 0.139596 0.788283 -0.11473
C_ C_ 0.0528887 0.141396 0.714092 -0.11473
C_ C_ 0.315003 0.123616 0.715975 -0.11473
C_ C_ 0.0330882 0.0819276 0.749804 -0.02249
C_ C_ 0.280823 0.0783416 0.756451 -0.02249
C_ C_ 0.0867775 0.194568 0.747702 0.6875
C_ C_ 0.334406 0.188361 0.749163 0.6875
C_ C_ 0.0513047 0.0923143 0.784091 -0.11473
C_ C_ 0.283019 0.102944 0.789758 -0.11473
C_ C_ 0.11072 0.28634 0.876314 0.17695
C_ C_ 0.375865 0.288665 0.870338 0.17695
C_ C_ 0.130056 0.217513 0.875869 0.17695
C_ C_ 0.376027 0.215505 0.873978 0.17695
C_ C_ 0.131849 0.218128 0.919478 -0.11473
C_ C_ 0.382136 0.215884 0.917531 -0.11473
C_ C_ 0.119612 0.251898 0.942616 0.23465
C_ C_ 0.382802 0.254426 0.938714 0.23465
C_ C_ 0.109031 0.287064 0.920062 -0.11473
C_ C_ 0.381141 0.290342 0.914689 -0.11473
C_ C_ 0.123204 0.214481 0.62728 0.17695
C_ C_ 0.366393 0.219853 0.61539 0.17695
C_ C_ 0.122599 0.286461 0.622248 0.17695
C_ C_ 0.365335 0.293421 0.622681 0.17695
C_ C_ 0.121961 0.284301 0.577713 -0.11473
C_ C_ 0.365911 0.298361 0.580431 -0.11473
C_ C_ 0.122647 0.245539 0.557356 0.23465
C_ C_ 0.36926 0.26402 0.553536 0.23465
C_ C_ 0.121733 0.210402 0.583268 -0.11473
C_ C_ 0.370608 0.224055 0.57241 -0.11473
C_ C_ 0.0319153 0.502173 0.747389 0.05793
C_ C_ 0.280574 0.503157 0.751521 0.05793
C_ C_ 0.214386 0.00105271 0.753655 0.05793
C_ C_ 0.466087 0.999604 0.746351 0.05793
Br Br 0.0769138 0.5081 0.746219 -0.17191
Br Br 0.315574 0.504323 0.786521 -0.17191
Br Br 0.170905 0.0014508 0.749399 -0.17191
Br Br 0.424737 0.997641 0.764917 -0.17191
N_ N_ 0.121207 0.252033 0.855256 -0.272
N_ N_ 0.374605 0.251019 0.850419 -0.272
N_ N_ 0.126228 0.256152 0.98646 -0.12501
N_ N_ 0.385614 0.259245 0.98453 -0.12501
N_ N_ 0.123506 0.251101 0.645995 -0.272
N_ N_ 0.364327 0.254582 0.640289 -0.272
N_ N_ 0.115763 0.241133 0.513504 -0.12501
N_ N_ 0.369996 0.269389 0.507738 -0.12501
O_ O_ 0.0953579 0.296476 0.717239 -0.60745
O_ O_ 0.340179 0.294713 0.715176 -0.60745
O_ O_ 0.0937048 0.297047 0.787401 -0.60745
O_ O_ 0.344063 0.296704 0.78377 -0.60745
O_ O_ 0.155432 0.300363 0.786068 -0.60745
O_ O_ 0.404863 0.296347 0.77654 -0.60745
O_ O_ 0.161162 0.293651 0.717977 -0.60745
O_ O_ 0.400014 0.297772 0.709028 -0.60745
O_ O_ 0.158112 0.210388 0.786459 -0.60745
O_ O_ 0.404791 0.207096 0.774328 -0.60745
O_ O_ 0.156509 0.205825 0.717156 -0.60745
O_ O_ 0.400676 0.203364 0.705918 -0.60745
O_ O_ 0.0962855 0.207519 0.713533 -0.60745
O_ O_ 0.338308 0.205337 0.713368 -0.60745
O_ O_ 0.0938204 0.212267 0.782473 -0.60745
O_ O_ 0.345095 0.205509 0.782838 -0.60745
Zn Zn 0.127217 0.748734 0.287296 0.9476
Zn Zn 0.374384 0.74877 0.281662 0.9476
Zn Zn 0.1266 0.747239 0.218303 0.9476
Zn Zn 0.372503 0.749528 0.214486 0.9476
H_ H_ 0.0422859 0.923785 0.195395 0.10932
H_ H_ 0.27419 0.909298 0.181469 0.10932
H_ H_ 0.0617486 0.846084 0.32507 0.10932
H_ H_ 0.327945 0.866657 0.310411 0.10932
H_ H_ 0.0796341 0.864692 0.194063 0.10932
H_ H_ 0.291385 0.836233 0.185649 0.10932
H_ H_ 0.0312678 0.908354 0.326594 0.10932
H_ H_ 0.299105 0.931114 0.309026 0.10932
H_ H_ 0.21951 0.912294 0.322611 0.10932
H_ H_ 0.477589 0.900568 0.315545 0.10932
H_ H_ 0.190813 0.852103 0.182912 0.10932
H_ H_ 0.432235 0.857392 0.181627 0.10932
H_ H_ 0.196317 0.841593 0.319572 0.10932
H_ H_ 0.452201 0.833098 0.313579 0.10932
H_ H_ 0.215201 0.9208 0.187966 0.10932
H_ H_ 0.460024 0.922123 0.187424 0.10932
H_ H_ 0.213054 0.579542 0.326673 0.10932
H_ H_ 0.441938 0.56317 0.29924 0.10932
H_ H_ 0.194977 0.647357 0.187168 0.10932
H_ H_ 0.450882 0.664105 0.185013 0.10932
H_ H_ 0.189032 0.646144 0.324431 0.10932
H_ H_ 0.405265 0.620306 0.29368 0.10932
H_ H_ 0.224566 0.582475 0.190791 0.10932
H_ H_ 0.480169 0.597815 0.185259 0.10932
H_ H_ 0.0421252 0.57892 0.189913 0.10932
H_ H_ 0.288195 0.578284 0.183998 0.10932
H_ H_ 0.0583277 0.658437 0.320286 0.10932
H_ H_ 0.310963 0.645917 0.318487 0.10932
H_ H_ 0.0719588 0.641822 0.187304 0.10932
H_ H_ 0.325613 0.632517 0.185788 0.10932
H_ H_ 0.0300787 0.592765 0.322888 0.10932
H_ H_ 0.287373 0.576694 0.31719 0.10932
H_ H_ 0.129096 0.816437 0.358835 0.10932
H_ H_ 0.379384 0.819284 0.349786 0.10932
H_ H_ 0.120343 0.684891 0.369712 0.10932
H_ H_ 0.37477 0.690138 0.357845 0.10932
H_ H_ 0.131518 0.689105 0.448336 0.10932
H_ H_ 0.3734 0.693814 0.436405 0.10932
H_ H_ 0.138825 0.818055 0.433938 0.10932
H_ H_ 0.376813 0.825475 0.429265 0.10932
H_ H_ 0.146865 0.677114 0.147461 0.10932
H_ H_ 0.364075 0.686215 0.133134 0.10932
H_ H_ 0.109643 0.799331 0.140209 0.10932
H_ H_ 0.38002 0.814501 0.149467 0.10932
H_ H_ 0.101801 0.790435 0.0631782 0.10932
H_ H_ 0.383759 0.827085 0.0778886 0.10932
H_ H_ 0.143333 0.672734 0.0698046 0.10932
H_ H_ 0.362994 0.698066 0.0524846 0.10932
C_ C_ 0.0683236 0.845969 0.258518 -0.02249
C_ C_ 0.313869 0.84529 0.246744 -0.02249
C_ C_ 0.0170004 0.960902 0.259628 -0.02249
C_ C_ 0.264822 0.96127 0.243798 -0.02249
C_ C_ 0.0473171 0.906546 0.223143 -0.11473
C_ C_ 0.284338 0.896447 0.20853 -0.11473
C_ C_ 0.0555691 0.861001 0.296259 -0.11473
C_ C_ 0.315635 0.873099 0.281626 -0.11473
C_ C_ 0.0665422 0.871805 0.223273 -0.11473
C_ C_ 0.298664 0.858907 0.209878 -0.11473
C_ C_ 0.0343465 0.919734 0.260608 -0.02249
C_ C_ 0.282036 0.920532 0.24537 -0.02249
C_ C_ 0.089087 0.808822 0.257094 0.6875
C_ C_ 0.334969 0.808462 0.244279 0.6875
C_ C_ 0.0389998 0.89705 0.297877 -0.11473
C_ C_ 0.297954 0.90949 0.280873 -0.11473
C_ C_ 0.187715 0.843858 0.252267 -0.02249
C_ C_ 0.440596 0.838126 0.246878 -0.02249
C_ C_ 0.234365 0.962415 0.255279 -0.02249
C_ C_ 0.489445 0.954094 0.253773 -0.02249
C_ C_ 0.211695 0.90046 0.292139 -0.11473
C_ C_ 0.469723 0.88941 0.287275 -0.11473
C_ C_ 0.193454 0.86615 0.215219 -0.11473
C_ C_ 0.443669 0.863836 0.210769 -0.11473
C_ C_ 0.199021 0.859933 0.289482 -0.11473
C_ C_ 0.453444 0.851634 0.285978 -0.11473
C_ C_ 0.216737 0.923294 0.255232 -0.02249
C_ C_ 0.472507 0.914297 0.251481 -0.02249
C_ C_ 0.168923 0.805533 0.252337 0.6875
C_ C_ 0.416376 0.80663 0.248615 0.6875
C_ C_ 0.205901 0.906988 0.217269 -0.11473
C_ C_ 0.459676 0.901499 0.214747 -0.11473
C_ C_ 0.191295 0.654539 0.255408 -0.02249
C_ C_ 0.429625 0.649619 0.243733 -0.02249
C_ C_ 0.237853 0.533759 0.258434 -0.02249
C_ C_ 0.481009 0.533236 0.239134 -0.02249
C_ C_ 0.208746 0.593083 0.294199 -0.11473
C_ C_ 0.441274 0.581016 0.272208 -0.11473
C_ C_ 0.202377 0.636019 0.217701 -0.11473
C_ C_ 0.450119 0.642726 0.21162 -0.11473
C_ C_ 0.196159 0.63365 0.293153 -0.11473
C_ C_ 0.42495 0.618582 0.272649 -0.11473
C_ C_ 0.221761 0.576224 0.257873 -0.02249
C_ C_ 0.461493 0.572399 0.241485 -0.02249
C_ C_ 0.169194 0.690701 0.254558 0.6875
C_ C_ 0.413775 0.691788 0.246519 0.6875
C_ C_ 0.219362 0.598326 0.220749 -0.11473
C_ C_ 0.465758 0.604764 0.211918 -0.11473
C_ C_ 0.0653412 0.656441 0.252394 -0.02249
C_ C_ 0.321065 0.644274 0.252052 -0.02249
C_ C_ 0.0189749 0.538936 0.25596 -0.02249
C_ C_ 0.269344 0.531623 0.249317 -0.02249
C_ C_ 0.0441493 0.597896 0.218063 -0.11473
C_ C_ 0.297053 0.587083 0.213755 -0.11473
C_ C_ 0.0557044 0.640713 0.291409 -0.11473
C_ C_ 0.309456 0.62874 0.289376 -0.11473
C_ C_ 0.0617687 0.632893 0.216816 -0.11473
C_ C_ 0.317415 0.620807 0.214672 -0.11473
C_ C_ 0.0356036 0.580443 0.255383 -0.02249
C_ C_ 0.288626 0.570038 0.252117 -0.02249
C_ C_ 0.0845727 0.693708 0.253469 0.6875
C_ C_ 0.33437 0.688295 0.248001 0.6875
C_ C_ 0.0400112 0.602034 0.293917 -0.11473
C_ C_ 0.296403 0.589438 0.289821 -0.11473
C_ C_ 0.132016 0.786946 0.376946 0.17695
C_ C_ 0.378388 0.791954 0.369493 0.17695
C_ C_ 0.126433 0.714849 0.383639 0.17695
C_ C_ 0.37657 0.718711 0.374333 0.17695
C_ C_ 0.128959 0.717442 0.428522 -0.11473
C_ C_ 0.37182 0.721306 0.417571 -0.11473
C_ C_ 0.12811 0.757006 0.447725 0.23465
C_ C_ 0.373067 0.759313 0.436549 0.23465
C_ C_ 0.13243 0.789962 0.420649 -0.11473
C_ C_ 0.375778 0.795425 0.412852 -0.11473
C_ C_ 0.138691 0.704766 0.128074 0.17695
C_ C_ 0.367565 0.717372 0.119371 0.17695
C_ C_ 0.113696 0.769529 0.124582 0.17695
C_ C_ 0.373566 0.790021 0.12923 0.17695
C_ C_ 0.114361 0.767981 0.0810968 -0.11473
C_ C_ 0.377505 0.796008 0.0868794 -0.11473
C_ C_ 0.122399 0.732428 0.0599053 0.23465
C_ C_ 0.374494 0.764024 0.0568788 0.23465
C_ C_ 0.135968 0.700238 0.0835224 -0.11473
C_ C_ 0.368009 0.723544 0.0743327 -0.11473
C_ C_ 0.0330932 0.999286 0.259804 0.05793
C_ C_ 0.279626 0.996128 0.233048 0.05793
C_ C_ 0.221977 0.49558 0.264143 0.05793
C_ C_ 0.46726 0.495463 0.235611 0.05793
Br Br 0.0756665 0.00212217 0.274926 -0.17191
Br Br 0.31778 0.991037 0.202546 -0.17191
Br Br 0.183433 0.498243 0.290659 -0.17191
Br Br 0.42778 0.4948 0.209077 -0.17191
N_ N_ 0.129594 0.748602 0.359094 -0.272
N_ N_ 0.375944 0.754411 0.350636 -0.272
N_ N_ 0.131312 0.762241 0.491728 -0.12501
N_ N_ 0.374291 0.765102 0.480661 -0.12501
N_ N_ 0.126557 0.737606 0.147408 -0.272
N_ N_ 0.372154 0.750127 0.144014 -0.272
N_ N_ 0.117949 0.727572 0.0159041 -0.12501
N_ N_ 0.374152 0.771698 0.0117903 -0.12501
O_ O_ 0.0924448 0.790761 0.222035 -0.60745
O_ O_ 0.336522 0.787659 0.211537 -0.60745
O_ O_ 0.101609 0.794672 0.289653 -0.60745
O_ O_ 0.345544 0.794428 0.279669 -0.60745
O_ O_ 0.161878 0.789069 0.28668 -0.60745
O_ O_ 0.409686 0.789638 0.282165 -0.60745
O_ O_ 0.157383 0.792267 0.218522 -0.60745
O_ O_ 0.40292 0.794915 0.216391 -0.60745
O_ O_ 0.15891 0.704199 0.28794 -0.60745
O_ O_ 0.40175 0.701757 0.281495 -0.60745
O_ O_ 0.159071 0.70402 0.21927 -0.60745
O_ O_ 0.406668 0.711812 0.212491 -0.60745
O_ O_ 0.0941516 0.70866 0.21932 -0.60745
O_ O_ 0.345548 0.701211 0.213807 -0.60745
O_ O_ 0.0934574 0.710019 0.287937 -0.60745
O_ O_ 0.340608 0.707098 0.28249 -0.60745
Zn Zn 0.122309 0.748297 0.786268 0.9476
Zn Zn 0.373074 0.748329 0.781811 0.9476
Zn Zn 0.1227 0.749886 0.719139 0.9476
Zn Zn 0.373336 0.755668 0.71194 0.9476
H_ H_ 0.0301473 0.914976 0.68239 0.10932
H_ H_ 0.284278 0.926294 0.687163 0.10932
H_ H_ 0.0647509 0.858013 0.818909 0.10932
H_ H_ 0.304237 0.840803 0.81314 0.10932
H_ H_ 0.0563787 0.846428 0.686131 0.10932
H_ H_ 0.313608 0.862955 0.681066 0.10932
H_ H_ 0.0394782 0.929153 0.816569 0.10932
H_ H_ 0.278189 0.906996 0.821946 0.10932
H_ H_ 0.214083 0.915257 0.825079 0.10932
H_ H_ 0.469086 0.918071 0.810532 0.10932
H_ H_ 0.182839 0.856813 0.688251 0.10932
H_ H_ 0.424214 0.860289 0.678221 0.10932
H_ H_ 0.188638 0.849423 0.823312 0.10932
H_ H_ 0.442689 0.845068 0.810076 0.10932
H_ H_ 0.211071 0.916389 0.690867 0.10932
H_ H_ 0.453874 0.927691 0.677363 0.10932
H_ H_ 0.212606 0.577127 0.804379 0.10932
H_ H_ 0.486337 0.601846 0.799835 0.10932
H_ H_ 0.190091 0.658986 0.677981 0.10932
H_ H_ 0.427742 0.648836 0.675546 0.10932
H_ H_ 0.183401 0.643583 0.809814 0.10932
H_ H_ 0.453364 0.662994 0.806864 0.10932
H_ H_ 0.218849 0.594854 0.670812 0.10932
H_ H_ 0.443122 0.575388 0.681558 0.10932
H_ H_ 0.0326243 0.581371 0.67875 0.10932
H_ H_ 0.292204 0.584348 0.674175 0.10932
H_ H_ 0.0614334 0.650465 0.812336 0.10932
H_ H_ 0.307596 0.653118 0.810273 0.10932
H_ H_ 0.0532745 0.65172 0.680486 0.10932
H_ H_ 0.312999 0.654815 0.676937 0.10932
H_ H_ 0.0343254 0.583597 0.813895 0.10932
H_ H_ 0.283346 0.585398 0.81002 0.10932
H_ H_ 0.133455 0.815409 0.858952 0.10932
H_ H_ 0.341137 0.798458 0.862969 0.10932
H_ H_ 0.103772 0.689597 0.863552 0.10932
H_ H_ 0.407419 0.707604 0.853759 0.10932
H_ H_ 0.110207 0.689532 0.943873 0.10932
H_ H_ 0.409948 0.70085 0.929422 0.10932
H_ H_ 0.123619 0.82098 0.93431 0.10932
H_ H_ 0.34204 0.792033 0.939835 0.10932
H_ H_ 0.168677 0.765827 0.642958 0.10932
H_ H_ 0.365111 0.688354 0.642584 0.10932
H_ H_ 0.0748186 0.740193 0.644003 0.10932
H_ H_ 0.378504 0.817624 0.631163 0.10932
H_ H_ 0.0735667 0.726529 0.571105 0.10932
H_ H_ 0.36849 0.811108 0.553605 0.10932
H_ H_ 0.16616 0.756396 0.565032 0.10932
H_ H_ 0.360174 0.68269 0.564986 0.10932
C_ C_ 0.0664191 0.852176 0.752609 -0.02249
C_ C_ 0.310817 0.846212 0.746392 -0.02249
C_ C_ 0.0125929 0.965648 0.747247 -0.02249
C_ C_ 0.262298 0.962359 0.758446 -0.02249
C_ C_ 0.0377217 0.902487 0.711614 -0.11473
C_ C_ 0.286404 0.906062 0.713244 -0.11473
C_ C_ 0.0588721 0.872752 0.789131 -0.11473
C_ C_ 0.303171 0.860405 0.785772 -0.11473
C_ C_ 0.0549934 0.866775 0.713955 -0.11473
C_ C_ 0.305415 0.871463 0.711326 -0.11473
C_ C_ 0.0306277 0.926338 0.74807 -0.02249
C_ C_ 0.278062 0.921199 0.754038 -0.02249
C_ C_ 0.0862859 0.814242 0.753604 0.6875
C_ C_ 0.329317 0.807824 0.741946 0.6875
C_ C_ 0.0435601 0.911335 0.786211 -0.11473
C_ C_ 0.286954 0.89743 0.789931 -0.11473
C_ C_ 0.179674 0.84612 0.755788 -0.02249
C_ C_ 0.429927 0.851465 0.743353 -0.02249
C_ C_ 0.229788 0.962845 0.755868 -0.02249
C_ C_ 0.484327 0.962532 0.746602 -0.02249
C_ C_ 0.20785 0.901896 0.793838 -0.11473
C_ C_ 0.460982 0.903547 0.782775 -0.11473
C_ C_ 0.187009 0.867981 0.71957 -0.11473
C_ C_ 0.435037 0.872902 0.706879 -0.11473
C_ C_ 0.191798 0.863439 0.794247 -0.11473
C_ C_ 0.443871 0.866134 0.781708 -0.11473
C_ C_ 0.211055 0.924074 0.757164 -0.02249
C_ C_ 0.467987 0.922738 0.744364 -0.02249
C_ C_ 0.161481 0.80616 0.754991 0.6875
C_ C_ 0.409901 0.813604 0.74218 0.6875
C_ C_ 0.20226 0.904712 0.719842 -0.11473
C_ C_ 0.452411 0.909139 0.7066 -0.11473
C_ C_ 0.182863 0.655786 0.745038 -0.02249
C_ C_ 0.436063 0.659312 0.742864 -0.02249
C_ C_ 0.234107 0.542606 0.732907 -0.02249
C_ C_ 0.48401 0.543821 0.736001 -0.02249
C_ C_ 0.209464 0.597826 0.778047 -0.11473
C_ C_ 0.470839 0.609785 0.77392 -0.11473
C_ C_ 0.19389 0.641848 0.706439 -0.11473
C_ C_ 0.437225 0.635327 0.704816 -0.11473
C_ C_ 0.192028 0.632836 0.781496 -0.11473
C_ C_ 0.451495 0.644094 0.778934 -0.11473
C_ C_ 0.218402 0.581932 0.737972 -0.02249
C_ C_ 0.468757 0.584721 0.738217 -0.02249
C_ C_ 0.160456 0.688961 0.746666 0.6875
C_ C_ 0.410712 0.691561 0.747999 0.6875
C_ C_ 0.212322 0.605972 0.703025 -0.11473
C_ C_ 0.448464 0.595633 0.70685 -0.11473
C_ C_ 0.0633748 0.655718 0.745704 -0.02249
C_ C_ 0.313816 0.658196 0.745448 -0.02249
C_ C_ 0.0153334 0.538877 0.747613 -0.02249
C_ C_ 0.265525 0.540067 0.740926 -0.02249
C_ C_ 0.0393609 0.597136 0.708987 -0.11473
C_ C_ 0.29569 0.598499 0.705618 -0.11473
C_ C_ 0.0554173 0.636731 0.783117 -0.11473
C_ C_ 0.303162 0.63805 0.781666 -0.11473
C_ C_ 0.0558339 0.634969 0.708564 -0.11473
C_ C_ 0.307524 0.639793 0.706446 -0.11473
C_ C_ 0.0315194 0.579614 0.745711 -0.02249
C_ C_ 0.283916 0.579945 0.74209 -0.02249
C_ C_ 0.0805917 0.694702 0.746644 0.6875
C_ C_ 0.333361 0.694318 0.75014 0.6875
C_ C_ 0.0403439 0.598259 0.785023 -0.11473
C_ C_ 0.28676 0.601458 0.780489 -0.11473
C_ C_ 0.12894 0.787187 0.87831 0.17695
C_ C_ 0.358147 0.779137 0.877021 0.17695
C_ C_ 0.113539 0.716003 0.879712 0.17695
C_ C_ 0.391331 0.723979 0.873595 0.17695
C_ C_ 0.114295 0.717085 0.924289 -0.11473
C_ C_ 0.395592 0.724806 0.916806 -0.11473
C_ C_ 0.121669 0.753175 0.945786 0.23465
C_ C_ 0.379515 0.750242 0.941339 0.23465
C_ C_ 0.126944 0.789652 0.922158 -0.11473
C_ C_ 0.358457 0.775291 0.920861 -0.11473
C_ C_ 0.14699 0.757858 0.624533 0.17695
C_ C_ 0.367818 0.714721 0.623926 0.17695
C_ C_ 0.0942456 0.747795 0.626141 0.17695
C_ C_ 0.3763 0.785318 0.617757 0.17695
C_ C_ 0.094729 0.739178 0.584382 -0.11473
C_ C_ 0.369563 0.784364 0.573909 -0.11473
C_ C_ 0.11904 0.746159 0.560305 0.23465
C_ C_ 0.369655 0.745487 0.552422 0.23465
C_ C_ 0.145321 0.756662 0.580226 -0.11473
C_ C_ 0.367289 0.710399 0.580117 -0.11473
C_ C_ 0.0299178 0.00358229 0.745986 0.05793
C_ C_ 0.277988 0.000806102 0.761357 0.05793
C_ C_ 0.217316 0.50542 0.734054 0.05793
C_ C_ 0.467423 0.505643 0.739212 0.05793
Br Br 0.0714742 0.00238029 0.728099 -0.17191
Br Br 0.318862 0.0013343 0.776551 -0.17191
Br Br 0.175089 0.502495 0.721984 -0.17191
Br Br 0.427653 0.507143 0.755125 -0.17191
N_ N_ 0.121742 0.751216 0.857567 -0.272
N_ N_ 0.374028 0.752115 0.853708 -0.272
N_ N_ 0.122658 0.75703 0.991836 -0.12501
N_ N_ 0.380699 0.742778 0.985809 -0.12501
N_ N_ 0.121532 0.755193 0.646794 -0.272
N_ N_ 0.373508 0.75184 0.642455 -0.272
N_ N_ 0.117495 0.739432 0.516056 -0.12501
N_ N_ 0.365558 0.739742 0.507199 -0.12501
O_ O_ 0.0883835 0.79203 0.721244 -0.60745
O_ O_ 0.34371 0.800898 0.708586 -0.60745
O_ O_ 0.0971847 0.800219 0.787687 -0.60745
O_ O_ 0.337617 0.788796 0.775617 -0.60745
O_ O_ 0.155344 0.788033 0.789662 -0.60745
O_ O_ 0.400115 0.798104 0.776605 -0.60745
O_ O_ 0.148695 0.795515 0.720376 -0.60745
O_ O_ 0.40822 0.793142 0.709696 -0.60745
O_ O_ 0.147993 0.698959 0.781245 -0.60745
O_ O_ 0.408061 0.710032 0.783216 -0.60745
O_ O_ 0.160088 0.71473 0.71576 -0.60745
O_ O_ 0.400252 0.708229 0.715252 -0.60745
O_ O_ 0.0944003 0.704803 0.714507 -0.60745
O_ O_ 0.339287 0.714564 0.71659 -0.60745
O_ O_ 0.0859807 0.712604 0.781814 -0.60745
O_ O_ 0.348557 0.699544 0.783489 -0.60745
Zn Zn 0.621831 0.245611 0.285237 0.9476
Zn Zn 0.876082 0.250049 0.289562 0.9476
Zn Zn 0.619701 0.250137 0.214475 0.9476
Zn Zn 0.876357 0.245569 0.221289 0.9476
H_ H_ 0.536238 0.422056 0.181193 0.10932
H_ H_ 0.795557 0.419398 0.178058 0.10932
H_ H_ 0.559088 0.34741 0.315052 0.10932
H_ H_ 0.799112 0.340891 0.313843 0.10932
H_ H_ 0.562384 0.356985 0.179057 0.10932
H_ H_ 0.832218 0.360671 0.18538 0.10932
H_ H_ 0.530769 0.410156 0.31485 0.10932
H_ H_ 0.775756 0.409844 0.30867 0.10932
H_ H_ 0.704546 0.417989 0.320018 0.10932
H_ H_ 0.987485 0.398984 0.314912 0.10932
H_ H_ 0.690725 0.344581 0.183855 0.10932
H_ H_ 0.915883 0.375619 0.193335 0.10932
H_ H_ 0.676714 0.353981 0.318791 0.10932
H_ H_ 0.95295 0.337685 0.313313 0.10932
H_ H_ 0.718792 0.407386 0.18509 0.10932
H_ H_ 0.950731 0.437878 0.195915 0.10932
H_ H_ 0.720353 0.0804068 0.313146 0.10932
H_ H_ 0.97063 0.0844824 0.326366 0.10932
H_ H_ 0.674393 0.139569 0.181829 0.10932
H_ H_ 0.944928 0.148715 0.191394 0.10932
H_ H_ 0.684576 0.133546 0.315418 0.10932
H_ H_ 0.926533 0.13948 0.323815 0.10932
H_ H_ 0.710166 0.0836334 0.175577 0.10932
H_ H_ 0.969354 0.0826626 0.193464 0.10932
H_ H_ 0.532298 0.081036 0.182792 0.10932
H_ H_ 0.782701 0.0818931 0.178324 0.10932
H_ H_ 0.56799 0.137459 0.318811 0.10932
H_ H_ 0.820531 0.133814 0.317286 0.10932
H_ H_ 0.551989 0.152177 0.184928 0.10932
H_ H_ 0.81784 0.142771 0.18043 0.10932
H_ H_ 0.542549 0.0698668 0.314546 0.10932
H_ H_ 0.781836 0.0764876 0.309909 0.10932
H_ H_ 0.611766 0.18326 0.354406 0.10932
H_ H_ 0.865132 0.184337 0.363234 0.10932
H_ H_ 0.645551 0.305923 0.363648 0.10932
H_ H_ 0.883782 0.313296 0.37151 0.10932
H_ H_ 0.641472 0.304482 0.435253 0.10932
H_ H_ 0.867919 0.314204 0.441429 0.10932
H_ H_ 0.610052 0.180509 0.434438 0.10932
H_ H_ 0.863347 0.184431 0.439958 0.10932
H_ H_ 0.633001 0.184306 0.139253 0.10932
H_ H_ 0.834529 0.251454 0.137825 0.10932
H_ H_ 0.61258 0.31329 0.137743 0.10932
H_ H_ 0.9277 0.242351 0.155924 0.10932
H_ H_ 0.620264 0.316753 0.060631 0.10932
H_ H_ 0.934674 0.237231 0.0752361 0.10932
H_ H_ 0.648316 0.18932 0.065695 0.10932
H_ H_ 0.840817 0.260222 0.0603576 0.10932
C_ C_ 0.564116 0.346581 0.24645 -0.02249
C_ C_ 0.817315 0.34251 0.249559 -0.02249
C_ C_ 0.514411 0.461324 0.248902 -0.02249
C_ C_ 0.767222 0.457352 0.24246 -0.02249
C_ C_ 0.543839 0.407535 0.210938 -0.11473
C_ C_ 0.796959 0.400986 0.207779 -0.11473
C_ C_ 0.552583 0.362418 0.285745 -0.11473
C_ C_ 0.800302 0.356608 0.284435 -0.11473
C_ C_ 0.556829 0.369562 0.209695 -0.11473
C_ C_ 0.817225 0.366345 0.210888 -0.11473
C_ C_ 0.533789 0.424003 0.249529 -0.02249
C_ C_ 0.784377 0.418109 0.24473 -0.02249
C_ C_ 0.581682 0.307228 0.246721 0.6875
C_ C_ 0.838867 0.307204 0.25466 0.6875
C_ C_ 0.537707 0.399764 0.28601 -0.11473
C_ C_ 0.786463 0.39562 0.282065 -0.11473
C_ C_ 0.680301 0.344368 0.252163 -0.02249
C_ C_ 0.933421 0.350996 0.25287 -0.02249
C_ C_ 0.733832 0.458212 0.24931 -0.02249
C_ C_ 0.988455 0.461075 0.256464 -0.02249
C_ C_ 0.703782 0.403133 0.288998 -0.11473
C_ C_ 0.973101 0.39176 0.28771 -0.11473
C_ C_ 0.693467 0.35994 0.213893 -0.11473
C_ C_ 0.932006 0.379483 0.218732 -0.11473
C_ C_ 0.687653 0.365822 0.289996 -0.11473
C_ C_ 0.953368 0.358593 0.287595 -0.11473
C_ C_ 0.717701 0.418604 0.251092 -0.02249
C_ C_ 0.970223 0.423439 0.255668 -0.02249
C_ C_ 0.660248 0.308616 0.250499 0.6875
C_ C_ 0.914027 0.313101 0.254366 0.6875
C_ C_ 0.711031 0.395936 0.214176 -0.11473
C_ C_ 0.9514 0.414389 0.220612 -0.11473
C_ C_ 0.677635 0.144774 0.24979 -0.02249
C_ C_ 0.936807 0.152242 0.259457 -0.02249
C_ C_ 0.733723 0.0367791 0.241023 -0.02249
C_ C_ 0.984912 0.0367222 0.260925 -0.02249
C_ C_ 0.711908 0.0938346 0.282485 -0.11473
C_ C_ 0.959128 0.095448 0.298497 -0.11473
C_ C_ 0.684711 0.127317 0.210399 -0.11473
C_ C_ 0.946871 0.133091 0.221725 -0.11473
C_ C_ 0.692871 0.127378 0.283794 -0.11473
C_ C_ 0.941354 0.132079 0.296604 -0.11473
C_ C_ 0.716909 0.0761495 0.243143 -0.02249
C_ C_ 0.96702 0.0751359 0.260887 -0.02249
C_ C_ 0.65633 0.181229 0.253422 0.6875
C_ C_ 0.914927 0.187046 0.256681 0.6875
C_ C_ 0.705057 0.0940549 0.205771 -0.11473
C_ C_ 0.962723 0.0963626 0.222378 -0.11473
C_ C_ 0.565794 0.148476 0.251938 -0.02249
C_ C_ 0.821138 0.144558 0.249344 -0.02249
C_ C_ 0.518628 0.0320193 0.248137 -0.02249
C_ C_ 0.765537 0.0363348 0.244123 -0.02249
C_ C_ 0.540547 0.0940994 0.212357 -0.11473
C_ C_ 0.787543 0.0961407 0.208135 -0.11473
C_ C_ 0.563482 0.124397 0.28816 -0.11473
C_ C_ 0.811747 0.124463 0.287017 -0.11473
C_ C_ 0.552233 0.134611 0.214271 -0.11473
C_ C_ 0.808359 0.130152 0.209588 -0.11473
C_ C_ 0.535119 0.0727033 0.248926 -0.02249
C_ C_ 0.780947 0.0755112 0.245435 -0.02249
C_ C_ 0.58189 0.187646 0.251959 0.6875
C_ C_ 0.836475 0.186297 0.251168 0.6875
C_ C_ 0.547545 0.0872283 0.286874 -0.11473
C_ C_ 0.789999 0.0936038 0.2848 -0.11473
C_ C_ 0.617803 0.210424 0.373758 0.17695
C_ C_ 0.871667 0.211639 0.382922 0.17695
C_ C_ 0.631271 0.281176 0.37744 0.17695
C_ C_ 0.878687 0.284581 0.38453 0.17695
C_ C_ 0.630081 0.280136 0.421606 -0.11473
C_ C_ 0.87336 0.284903 0.426978 -0.11473
C_ C_ 0.622353 0.242757 0.441218 0.23465
C_ C_ 0.870261 0.248127 0.449604 0.23465
C_ C_ 0.617459 0.208156 0.417427 -0.11473
C_ C_ 0.869612 0.210916 0.426394 -0.11473
C_ C_ 0.634196 0.214486 0.124564 0.17695
C_ C_ 0.856022 0.246393 0.122711 0.17695
C_ C_ 0.620676 0.286732 0.120826 0.17695
C_ C_ 0.909288 0.241456 0.132241 0.17695
C_ C_ 0.626252 0.288781 0.0775795 -0.11473
C_ C_ 0.912782 0.242196 0.0890341 -0.11473
C_ C_ 0.633013 0.251879 0.0569693 0.23465
C_ C_ 0.888007 0.25285 0.0627019 0.23465
C_ C_ 0.64169 0.216659 0.0814972 -0.11473
C_ C_ 0.859604 0.256774 0.0806188 -0.11473
C_ C_ 0.528054 0.499518 0.257849 0.05793
C_ C_ 0.783289 0.49514 0.240462 0.05793
C_ C_ 0.71726 0.999952 0.240576 0.05793
C_ C_ 0.969404 0.998337 0.262496 0.05793
Br Br 0.57127 0.49954 0.279733 -0.17191
Br Br 0.821128 0.493571 0.213755 -0.17191
Br Br 0.675581 0.00212682 0.241942 -0.17191
Br Br 0.925776 9.37809e-05 0.267169 -0.17191
N_ N_ 0.625213 0.24679 0.353566 -0.272
N_ N_ 0.876668 0.248444 0.362025 -0.272
N_ N_ 0.616704 0.2424 0.487125 -0.12501
N_ N_ 0.862339 0.24871 0.493127 -0.12501
N_ N_ 0.625379 0.250622 0.144012 -0.272
N_ N_ 0.8809 0.244906 0.148098 -0.272
N_ N_ 0.631754 0.24769 0.0123516 -0.12501
N_ N_ 0.893237 0.251306 0.0189779 -0.12501
O_ O_ 0.589722 0.292575 0.211649 -0.60745
O_ O_ 0.846386 0.288795 0.22156 -0.60745
O_ O_ 0.592047 0.292549 0.280667 -0.60745
O_ O_ 0.842378 0.290039 0.290411 -0.60745
O_ O_ 0.657642 0.285078 0.282108 -0.60745
O_ O_ 0.905126 0.298847 0.289717 -0.60745
O_ O_ 0.647089 0.297892 0.216335 -0.60745
O_ O_ 0.905767 0.292421 0.221775 -0.60745
O_ O_ 0.648603 0.194704 0.289064 -0.60745
O_ O_ 0.907087 0.205963 0.288116 -0.60745
O_ O_ 0.651882 0.204986 0.22256 -0.60745
O_ O_ 0.907155 0.201296 0.219949 -0.60745
O_ O_ 0.590771 0.204843 0.218693 -0.60745
O_ O_ 0.845901 0.202772 0.217301 -0.60745
O_ O_ 0.585496 0.205442 0.287468 -0.60745
O_ O_ 0.846941 0.200921 0.285888 -0.60745
Zn Zn 0.62782 0.249867 0.782429 0.9476
Zn Zn 0.873918 0.254911 0.792342 0.9476
Zn Zn 0.626048 0.254353 0.714136 0.9476
Zn Zn 0.869897 0.249721 0.723717 0.9476
H_ H_ 0.518351 0.397869 0.676404 0.10932
H_ H_ 0.78204 0.419879 0.682543 0.10932
H_ H_ 0.57702 0.366743 0.805978 0.10932
H_ H_ 0.813133 0.357731 0.81981 0.10932
H_ H_ 0.549441 0.335413 0.680043 0.10932
H_ H_ 0.813678 0.356824 0.686897 0.10932
H_ H_ 0.542203 0.427969 0.801552 0.10932
H_ H_ 0.780952 0.41961 0.821587 0.10932
H_ H_ 0.697069 0.434303 0.816606 0.10932
H_ H_ 0.976892 0.40558 0.817875 0.10932
H_ H_ 0.695409 0.349511 0.687564 0.10932
H_ H_ 0.915483 0.372671 0.690969 0.10932
H_ H_ 0.668632 0.36893 0.812414 0.10932
H_ H_ 0.953296 0.338345 0.815735 0.10932
H_ H_ 0.725267 0.416059 0.691762 0.10932
H_ H_ 0.950631 0.430795 0.692316 0.10932
H_ H_ 0.712086 0.0769702 0.819602 0.10932
H_ H_ 0.968421 0.0900286 0.825045 0.10932
H_ H_ 0.699383 0.1614 0.687038 0.10932
H_ H_ 0.939424 0.152238 0.686845 0.10932
H_ H_ 0.687612 0.144871 0.820673 0.10932
H_ H_ 0.939106 0.158227 0.821011 0.10932
H_ H_ 0.72677 0.0936319 0.687901 0.10932
H_ H_ 0.963688 0.0866722 0.689021 0.10932
H_ H_ 0.519267 0.104108 0.672371 0.10932
H_ H_ 0.798466 0.0641959 0.704393 0.10932
H_ H_ 0.574342 0.134493 0.805539 0.10932
H_ H_ 0.803488 0.157859 0.826281 0.10932
H_ H_ 0.550492 0.161298 0.676478 0.10932
H_ H_ 0.827435 0.129878 0.699431 0.10932
H_ H_ 0.543859 0.0766349 0.802329 0.10932
H_ H_ 0.772903 0.0937302 0.829432 0.10932
H_ H_ 0.618597 0.319007 0.851046 0.10932
H_ H_ 0.843462 0.300375 0.872673 0.10932
H_ H_ 0.630719 0.191426 0.865861 0.10932
H_ H_ 0.902143 0.199015 0.863234 0.10932
H_ H_ 0.631152 0.198711 0.946904 0.10932
H_ H_ 0.911137 0.202471 0.938501 0.10932
H_ H_ 0.615397 0.327684 0.925031 0.10932
H_ H_ 0.845079 0.295329 0.947969 0.10932
H_ H_ 0.618877 0.193625 0.637554 0.10932
H_ H_ 0.918782 0.253055 0.658929 0.10932
H_ H_ 0.633186 0.324472 0.642072 0.10932
H_ H_ 0.823691 0.24696 0.638399 0.10932
H_ H_ 0.630966 0.327272 0.567865 0.10932
H_ H_ 0.830653 0.241577 0.558319 0.10932
H_ H_ 0.625338 0.195024 0.561983 0.10932
H_ H_ 0.924809 0.243784 0.583403 0.10932
C_ C_ 0.566166 0.346619 0.742747 -0.02249
C_ C_ 0.811287 0.350286 0.753092 -0.02249
C_ C_ 0.514858 0.46301 0.736012 -0.02249
C_ C_ 0.764108 0.467087 0.753015 -0.02249
C_ C_ 0.533734 0.39425 0.702673 -0.11473
C_ C_ 0.786748 0.406427 0.713489 -0.11473
C_ C_ 0.566307 0.375866 0.776266 -0.11473
C_ C_ 0.803436 0.369438 0.790471 -0.11473
C_ C_ 0.549811 0.357285 0.706485 -0.11473
C_ C_ 0.803457 0.368402 0.714477 -0.11473
C_ C_ 0.532665 0.423207 0.73739 -0.02249
C_ C_ 0.778791 0.426284 0.751925 -0.02249
C_ C_ 0.585687 0.309083 0.745147 0.6875
C_ C_ 0.830432 0.310643 0.756727 0.6875
C_ C_ 0.549859 0.413363 0.772131 -0.11473
C_ C_ 0.785547 0.405808 0.791344 -0.11473
C_ C_ 0.68438 0.350056 0.753841 -0.02249
C_ C_ 0.928252 0.353453 0.754759 -0.02249
C_ C_ 0.732966 0.468488 0.756507 -0.02249
C_ C_ 0.984718 0.463377 0.75532 -0.02249
C_ C_ 0.697381 0.416215 0.789385 -0.11473
C_ C_ 0.963615 0.398615 0.789982 -0.11473
C_ C_ 0.696789 0.367094 0.717112 -0.11473
C_ C_ 0.927713 0.381928 0.720182 -0.11473
C_ C_ 0.683678 0.376438 0.790123 -0.11473
C_ C_ 0.948991 0.35912 0.789161 -0.11473
C_ C_ 0.715841 0.427449 0.756318 -0.02249
C_ C_ 0.967754 0.423243 0.75324 -0.02249
C_ C_ 0.668534 0.310552 0.75021 0.6875
C_ C_ 0.906456 0.319009 0.755093 0.6875
C_ C_ 0.713983 0.404721 0.718938 -0.11473
C_ C_ 0.950332 0.411817 0.718866 -0.11473
C_ C_ 0.688116 0.156906 0.754267 -0.02249
C_ C_ 0.933693 0.156827 0.754766 -0.02249
C_ C_ 0.737142 0.0403417 0.74987 -0.02249
C_ C_ 0.983098 0.0418578 0.75574 -0.02249
C_ C_ 0.707164 0.0936138 0.788775 -0.11473
C_ C_ 0.9618 0.103356 0.79488 -0.11473
C_ C_ 0.700343 0.141571 0.717011 -0.11473
C_ C_ 0.944816 0.138178 0.717676 -0.11473
C_ C_ 0.693535 0.132733 0.790789 -0.11473
C_ C_ 0.945771 0.142645 0.792887 -0.11473
C_ C_ 0.719708 0.0793665 0.752654 -0.02249
C_ C_ 0.965893 0.0819165 0.756085 -0.02249
C_ C_ 0.66809 0.195374 0.754718 0.6875
C_ C_ 0.912919 0.193482 0.752649 0.6875
C_ C_ 0.714622 0.102939 0.715148 -0.11473
C_ C_ 0.95853 0.101662 0.718674 -0.11473
C_ C_ 0.56406 0.157101 0.743167 -0.02249
C_ C_ 0.818281 0.150039 0.761061 -0.02249
C_ C_ 0.511282 0.0403012 0.737909 -0.02249
C_ C_ 0.766035 0.0380664 0.769508 -0.02249
C_ C_ 0.532042 0.108306 0.703713 -0.11473
C_ C_ 0.80023 0.0854912 0.731541 -0.11473
C_ C_ 0.560374 0.13159 0.77822 -0.11473
C_ C_ 0.80216 0.139252 0.7972 -0.11473
C_ C_ 0.549188 0.144177 0.705459 -0.11473
C_ C_ 0.817795 0.121923 0.727189 -0.11473
C_ C_ 0.52818 0.0826064 0.738428 -0.02249
C_ C_ 0.784945 0.075475 0.768824 -0.02249
C_ C_ 0.585218 0.193501 0.746902 0.6875
C_ C_ 0.836474 0.187151 0.760573 0.6875
C_ C_ 0.542954 0.0959192 0.774611 -0.11473
C_ C_ 0.784348 0.102935 0.801779 -0.11473
C_ C_ 0.620674 0.292442 0.871005 0.17695
C_ C_ 0.860092 0.280852 0.886201 0.17695
C_ C_ 0.626893 0.220832 0.880882 0.17695
C_ C_ 0.891963 0.223969 0.88169 0.17695
C_ C_ 0.628885 0.225494 0.925183 -0.11473
C_ C_ 0.895067 0.221872 0.924792 -0.11473
C_ C_ 0.621139 0.265113 0.941959 0.23465
C_ C_ 0.877486 0.246319 0.949549 0.23465
C_ C_ 0.615533 0.296931 0.914038 -0.11473
C_ C_ 0.861925 0.279362 0.929853 -0.11473
C_ C_ 0.621131 0.222837 0.62259 0.17695
C_ C_ 0.897825 0.250571 0.6383 0.17695
C_ C_ 0.625831 0.296986 0.625608 0.17695
C_ C_ 0.845236 0.251504 0.624922 0.17695
C_ C_ 0.62785 0.298065 0.582409 -0.11473
C_ C_ 0.849507 0.250247 0.580068 -0.11473
C_ C_ 0.625948 0.261783 0.557643 0.23465
C_ C_ 0.877819 0.249409 0.565025 0.23465
C_ C_ 0.621994 0.224282 0.577766 -0.11473
C_ C_ 0.902617 0.246133 0.593875 -0.11473
C_ C_ 0.530658 0.501024 0.732768 0.05793
C_ C_ 0.780114 0.503799 0.750817 0.05793
C_ C_ 0.723189 0.00398235 0.736326 0.05793
C_ C_ 0.966784 0.00471672 0.757344 0.05793
Br Br 0.569334 0.49584 0.70544 -0.17191
Br Br 0.825918 0.503717 0.747968 -0.17191
Br Br 0.682 0.00653903 0.712578 -0.17191
Br Br 0.9229 0.0048614 0.758044 -0.17191
N_ N_ 0.623811 0.253627 0.853855 -0.272
N_ N_ 0.877096 0.254971 0.862462 -0.272
N_ N_ 0.623493 0.274296 0.98674 -0.12501
N_ N_ 0.873224 0.238218 0.994242 -0.12501
N_ N_ 0.625654 0.258409 0.646154 -0.272
N_ N_ 0.868676 0.253131 0.652935 -0.272
N_ N_ 0.629357 0.266141 0.513636 -0.12501
N_ N_ 0.882778 0.250104 0.521271 -0.12501
O_ O_ 0.596882 0.297942 0.71109 -0.60745
O_ O_ 0.835325 0.291083 0.724724 -0.60745
O_ O_ 0.592946 0.291944 0.779027 -0.60745
O_ O_ 0.841588 0.300406 0.791809 -0.60745
O_ O_ 0.65608 0.295707 0.782614 -0.60745
O_ O_ 0.9028 0.299112 0.789108 -0.60745
O_ O_ 0.660535 0.297506 0.713915 -0.60745
O_ O_ 0.896355 0.302679 0.721967 -0.60745
O_ O_ 0.662338 0.211962 0.789168 -0.60745
O_ O_ 0.905235 0.212294 0.786542 -0.60745
O_ O_ 0.654387 0.20494 0.721435 -0.60745
O_ O_ 0.903273 0.206396 0.717589 -0.60745
O_ O_ 0.593379 0.212163 0.714987 -0.60745
O_ O_ 0.841999 0.201912 0.725623 -0.60745
O_ O_ 0.599255 0.201045 0.780714 -0.60745
O_ O_ 0.845497 0.204772 0.795181 -0.60745
Zn Zn 0.627689 0.744934 0.279436 0.9476
Zn Zn 0.869796 0.748278 0.284087 0.9476
Zn Zn 0.625102 0.74217 0.2139 0.9476
Zn Zn 0.873388 0.750572 0.215884 0.9476
H_ H_ 0.539144 0.912777 0.180821 0.10932
H_ H_ 0.791762 0.919463 0.179143 0.10932
H_ H_ 0.571701 0.850635 0.314488 0.10932
H_ H_ 0.801137 0.848529 0.313099 0.10932
H_ H_ 0.563679 0.845465 0.178487 0.10932
H_ H_ 0.830368 0.864499 0.191018 0.10932
H_ H_ 0.536968 0.910824 0.314169 0.10932
H_ H_ 0.781367 0.922196 0.311191 0.10932
H_ H_ 0.721103 0.913459 0.315578 0.10932
H_ H_ 0.964106 0.918177 0.322291 0.10932
H_ H_ 0.675542 0.858782 0.180626 0.10932
H_ H_ 0.942363 0.847816 0.185363 0.10932
H_ H_ 0.693166 0.849093 0.314693 0.10932
H_ H_ 0.937402 0.848277 0.320817 0.10932
H_ H_ 0.699534 0.9261 0.180658 0.10932
H_ H_ 0.971567 0.913513 0.188376 0.10932
H_ H_ 0.738333 0.59718 0.307922 0.10932
H_ H_ 0.964606 0.583106 0.316108 0.10932
H_ H_ 0.676673 0.632108 0.183288 0.10932
H_ H_ 0.941526 0.645066 0.179986 0.10932
H_ H_ 0.711917 0.661858 0.306962 0.10932
H_ H_ 0.940196 0.652701 0.31177 0.10932
H_ H_ 0.703246 0.56644 0.18491 0.10932
H_ H_ 0.969384 0.580946 0.183081 0.10932
H_ H_ 0.556828 0.559377 0.19362 0.10932
H_ H_ 0.779541 0.590855 0.178533 0.10932
H_ H_ 0.5404 0.667378 0.301261 0.10932
H_ H_ 0.826688 0.634479 0.314137 0.10932
H_ H_ 0.589802 0.619136 0.195524 0.10932
H_ H_ 0.800368 0.653609 0.184354 0.10932
H_ H_ 0.504739 0.606468 0.295961 0.10932
H_ H_ 0.802779 0.567985 0.308232 0.10932
H_ H_ 0.623921 0.672381 0.357026 0.10932
H_ H_ 0.831164 0.722379 0.366455 0.10932
H_ H_ 0.626164 0.8017 0.351907 0.10932
H_ H_ 0.919097 0.778156 0.353896 0.10932
H_ H_ 0.630289 0.805078 0.430195 0.10932
H_ H_ 0.919729 0.793663 0.434122 0.10932
H_ H_ 0.627491 0.671994 0.434753 0.10932
H_ H_ 0.839518 0.725875 0.443482 0.10932
H_ H_ 0.664992 0.766878 0.144659 0.10932
H_ H_ 0.871358 0.690951 0.143515 0.10932
H_ H_ 0.579682 0.708708 0.131109 0.10932
H_ H_ 0.878925 0.820015 0.150914 0.10932
H_ H_ 0.587662 0.702346 0.05594 0.10932
H_ H_ 0.896666 0.823815 0.0786213 0.10932
H_ H_ 0.669491 0.773719 0.068353 0.10932
H_ H_ 0.877346 0.693792 0.0662726 0.10932
C_ C_ 0.568569 0.840787 0.248648 -0.02249
C_ C_ 0.816647 0.850055 0.25238 -0.02249
C_ C_ 0.520233 0.955864 0.248281 -0.02249
C_ C_ 0.763427 0.962049 0.244713 -0.02249
C_ C_ 0.544616 0.898781 0.210509 -0.11473
C_ C_ 0.793978 0.905804 0.209419 -0.11473
C_ C_ 0.561176 0.861047 0.286176 -0.11473
C_ C_ 0.801392 0.867294 0.285644 -0.11473
C_ C_ 0.558534 0.860036 0.209683 -0.11473
C_ C_ 0.814676 0.872153 0.214885 -0.11473
C_ C_ 0.537841 0.91821 0.248415 -0.02249
C_ C_ 0.779069 0.921562 0.243426 -0.02249
C_ C_ 0.587104 0.802047 0.250675 0.6875
C_ C_ 0.834621 0.810494 0.2555 0.6875
C_ C_ 0.546688 0.900096 0.287114 -0.11473
C_ C_ 0.787148 0.9052 0.283132 -0.11473
C_ C_ 0.680194 0.848098 0.248145 -0.02249
C_ C_ 0.935179 0.843448 0.253546 -0.02249
C_ C_ 0.731472 0.961898 0.247582 -0.02249
C_ C_ 0.985044 0.960401 0.258082 -0.02249
C_ C_ 0.710484 0.901856 0.285964 -0.11473
C_ C_ 0.957497 0.903352 0.292807 -0.11473
C_ C_ 0.682752 0.8708 0.211754 -0.11473
C_ C_ 0.945057 0.862672 0.215985 -0.11473
C_ C_ 0.69544 0.86448 0.285827 -0.11473
C_ C_ 0.943055 0.862894 0.292297 -0.11473
C_ C_ 0.713552 0.923612 0.247831 -0.02249
C_ C_ 0.967555 0.920174 0.256318 -0.02249
C_ C_ 0.662157 0.808617 0.250001 0.6875
C_ C_ 0.91595 0.803913 0.251266 0.6875
C_ C_ 0.697091 0.909676 0.2119 -0.11473
C_ C_ 0.962762 0.898232 0.218556 -0.11473
C_ C_ 0.68922 0.651593 0.246906 -0.02249
C_ C_ 0.934307 0.65133 0.245013 -0.02249
C_ C_ 0.736475 0.535497 0.248835 -0.02249
C_ C_ 0.987083 0.53853 0.253038 -0.02249
C_ C_ 0.722576 0.602192 0.282504 -0.11473
C_ C_ 0.960258 0.596005 0.287327 -0.11473
C_ C_ 0.68859 0.624769 0.211006 -0.11473
C_ C_ 0.942735 0.628238 0.209002 -0.11473
C_ C_ 0.705583 0.638389 0.281288 -0.11473
C_ C_ 0.943774 0.634449 0.284808 -0.11473
C_ C_ 0.720448 0.575085 0.246796 -0.02249
C_ C_ 0.969018 0.575219 0.250471 -0.02249
C_ C_ 0.668515 0.687632 0.248959 0.6875
C_ C_ 0.911274 0.686524 0.244741 0.6875
C_ C_ 0.701749 0.584852 0.213146 -0.11473
C_ C_ 0.96412 0.595922 0.212142 -0.11473
C_ C_ 0.566939 0.646478 0.248732 -0.02249
C_ C_ 0.81632 0.651695 0.24857 -0.02249
C_ C_ 0.511647 0.537036 0.24985 -0.02249
C_ C_ 0.769321 0.533424 0.247565 -0.02249
C_ C_ 0.552227 0.580644 0.216729 -0.11473
C_ C_ 0.790605 0.595774 0.208893 -0.11473
C_ C_ 0.541947 0.645583 0.275482 -0.11473
C_ C_ 0.8172 0.625339 0.284794 -0.11473
C_ C_ 0.57204 0.615146 0.219057 -0.11473
C_ C_ 0.802826 0.635045 0.212335 -0.11473
C_ C_ 0.529461 0.577013 0.246392 -0.02249
C_ C_ 0.787919 0.572816 0.2453 -0.02249
C_ C_ 0.586256 0.685486 0.24587 0.6875
C_ C_ 0.830723 0.693595 0.247282 0.6875
C_ C_ 0.523111 0.611047 0.273301 -0.11473
C_ C_ 0.803682 0.586642 0.281295 -0.11473
C_ C_ 0.624813 0.702159 0.373526 0.17695
C_ C_ 0.851492 0.737859 0.38068 0.17695
C_ C_ 0.628955 0.77398 0.36962 0.17695
C_ C_ 0.899429 0.770086 0.373521 0.17695
C_ C_ 0.629269 0.776473 0.413575 -0.11473
C_ C_ 0.901837 0.775907 0.418837 -0.11473
C_ C_ 0.628811 0.739855 0.438194 0.23465
C_ C_ 0.878887 0.759769 0.444394 0.23465
C_ C_ 0.626769 0.701651 0.418389 -0.11473
C_ C_ 0.856214 0.737279 0.423932 -0.11473
C_ C_ 0.646339 0.759016 0.126252 0.17695
C_ C_ 0.874353 0.72007 0.127123 0.17695
C_ C_ 0.600656 0.721239 0.118281 0.17695
C_ C_ 0.873453 0.793937 0.130842 0.17695
C_ C_ 0.602567 0.722652 0.0732149 -0.11473
C_ C_ 0.881569 0.797775 0.0882826 -0.11473
C_ C_ 0.627113 0.743588 0.0543356 0.23465
C_ C_ 0.881035 0.763017 0.0634412 0.23465
C_ C_ 0.648835 0.76063 0.0819928 -0.11473
C_ C_ 0.876957 0.721874 0.0823313 -0.11473
C_ C_ 0.534417 0.993692 0.243263 0.05793
C_ C_ 0.780006 0.999462 0.243474 0.05793
C_ C_ 0.720874 0.496462 0.253749 0.05793
C_ C_ 0.97248 0.500914 0.258292 0.05793
Br Br 0.578231 0.994102 0.237044 -0.17191
Br Br 0.822178 0.998766 0.249823 -0.17191
Br Br 0.676228 0.498556 0.254913 -0.17191
Br Br 0.930683 0.50259 0.266969 -0.17191
N_ N_ 0.62743 0.736948 0.351142 -0.272
N_ N_ 0.874063 0.752853 0.355171 -0.272
N_ N_ 0.634587 0.740912 0.482784 -0.12501
N_ N_ 0.881561 0.762893 0.488201 -0.12501
N_ N_ 0.621133 0.74218 0.143325 -0.272
N_ N_ 0.869897 0.756277 0.147582 -0.272
N_ N_ 0.631393 0.746744 0.00923171 -0.12501
N_ N_ 0.883906 0.769093 0.0186298 -0.12501
O_ O_ 0.590609 0.780864 0.216136 -0.60745
O_ O_ 0.843943 0.792938 0.223401 -0.60745
O_ O_ 0.600624 0.789504 0.283211 -0.60745
O_ O_ 0.839675 0.793139 0.289642 -0.60745
O_ O_ 0.660592 0.787659 0.283978 -0.60745
O_ O_ 0.903252 0.789433 0.283281 -0.60745
O_ O_ 0.649286 0.795059 0.217239 -0.60745
O_ O_ 0.905873 0.791998 0.215698 -0.60745
O_ O_ 0.656474 0.697207 0.282847 -0.60745
O_ O_ 0.903226 0.70305 0.279343 -0.60745
O_ O_ 0.66235 0.70881 0.215677 -0.60745
O_ O_ 0.902819 0.702026 0.210076 -0.60745
O_ O_ 0.598417 0.693602 0.212177 -0.60745
O_ O_ 0.845664 0.704042 0.213391 -0.60745
O_ O_ 0.595239 0.702355 0.278156 -0.60745
O_ O_ 0.841116 0.706717 0.282021 -0.60745
Zn Zn 0.625803 0.752948 0.777048 0.9476
Zn Zn 0.877298 0.751422 0.791206 0.9476
Zn Zn 0.625939 0.754242 0.71008 0.9476
Zn Zn 0.87348 0.753067 0.720137 0.9476
H_ H_ 0.533783 0.922287 0.673349 0.10932
H_ H_ 0.790551 0.926226 0.692186 0.10932
H_ H_ 0.573982 0.8642 0.806554 0.10932
H_ H_ 0.817224 0.85384 0.824383 0.10932
H_ H_ 0.559472 0.852811 0.673689 0.10932
H_ H_ 0.826808 0.865232 0.691951 0.10932
H_ H_ 0.544806 0.927797 0.805469 0.10932
H_ H_ 0.780045 0.910808 0.822055 0.10932
H_ H_ 0.711003 0.927243 0.806648 0.10932
H_ H_ 0.95978 0.924119 0.820079 0.10932
H_ H_ 0.697455 0.844689 0.678619 0.10932
H_ H_ 0.938418 0.849764 0.68397 0.10932
H_ H_ 0.67763 0.869304 0.806534 0.10932
H_ H_ 0.940427 0.85193 0.818495 0.10932
H_ H_ 0.729304 0.907357 0.675254 0.10932
H_ H_ 0.958236 0.922595 0.683758 0.10932
H_ H_ 0.726996 0.602384 0.817662 0.10932
H_ H_ 0.964694 0.584221 0.822008 0.10932
H_ H_ 0.673136 0.638302 0.686527 0.10932
H_ H_ 0.938255 0.650279 0.685693 0.10932
H_ H_ 0.702999 0.674259 0.807108 0.10932
H_ H_ 0.929458 0.643389 0.819779 0.10932
H_ H_ 0.707013 0.578348 0.686716 0.10932
H_ H_ 0.967696 0.584492 0.688496 0.10932
H_ H_ 0.538791 0.58582 0.670461 0.10932
H_ H_ 0.780105 0.593278 0.689112 0.10932
H_ H_ 0.579851 0.635059 0.805839 0.10932
H_ H_ 0.807623 0.655495 0.82101 0.10932
H_ H_ 0.556615 0.659519 0.675141 0.10932
H_ H_ 0.809751 0.653683 0.686785 0.10932
H_ H_ 0.546121 0.570721 0.799276 0.10932
H_ H_ 0.789558 0.58417 0.822751 0.10932
H_ H_ 0.578045 0.730025 0.843611 0.10932
H_ H_ 0.878805 0.686003 0.862653 0.10932
H_ H_ 0.665197 0.779674 0.862798 0.10932
H_ H_ 0.866797 0.814684 0.869777 0.10932
H_ H_ 0.658533 0.776493 0.941598 0.10932
H_ H_ 0.875751 0.808628 0.94759 0.10932
H_ H_ 0.570875 0.721991 0.920636 0.10932
H_ H_ 0.880577 0.679255 0.936037 0.10932
H_ H_ 0.639491 0.696992 0.63483 0.10932
H_ H_ 0.901463 0.804567 0.637601 0.10932
H_ H_ 0.628126 0.823757 0.637541 0.10932
H_ H_ 0.856379 0.690712 0.646757 0.10932
H_ H_ 0.616021 0.828235 0.560897 0.10932
H_ H_ 0.840991 0.691483 0.569647 0.10932
H_ H_ 0.636747 0.697267 0.557271 0.10932
H_ H_ 0.895789 0.802695 0.559408 0.10932
C_ C_ 0.569789 0.853118 0.739344 -0.02249
C_ C_ 0.825556 0.855395 0.757982 -0.02249
C_ C_ 0.516141 0.964474 0.741188 -0.02249
C_ C_ 0.768971 0.964006 0.76053 -0.02249
C_ C_ 0.538698 0.905131 0.702291 -0.11473
C_ C_ 0.801869 0.91449 0.720462 -0.11473
C_ C_ 0.564159 0.873935 0.776069 -0.11473
C_ C_ 0.812143 0.868093 0.794795 -0.11473
C_ C_ 0.556213 0.868667 0.702036 -0.11473
C_ C_ 0.820653 0.878868 0.72117 -0.11473
C_ C_ 0.534191 0.925956 0.740341 -0.02249
C_ C_ 0.788322 0.925394 0.758009 -0.02249
C_ C_ 0.588375 0.815735 0.740595 0.6875
C_ C_ 0.838148 0.8129 0.753691 0.6875
C_ C_ 0.547562 0.911147 0.776961 -0.11473
C_ C_ 0.791392 0.899807 0.794243 -0.11473
C_ C_ 0.687493 0.849593 0.742882 -0.02249
C_ C_ 0.933248 0.850032 0.752894 -0.02249
C_ C_ 0.739182 0.964964 0.742824 -0.02249
C_ C_ 0.980919 0.966919 0.750395 -0.02249
C_ C_ 0.709097 0.910238 0.778952 -0.11473
C_ C_ 0.956059 0.907619 0.790428 -0.11473
C_ C_ 0.701748 0.862551 0.706286 -0.11473
C_ C_ 0.943677 0.865076 0.715099 -0.11473
C_ C_ 0.690797 0.87552 0.779053 -0.11473
C_ C_ 0.94082 0.870661 0.789652 -0.11473
C_ C_ 0.722476 0.924501 0.741772 -0.02249
C_ C_ 0.964552 0.927173 0.75236 -0.02249
C_ C_ 0.666296 0.814575 0.744535 0.6875
C_ C_ 0.91647 0.810056 0.753002 0.6875
C_ C_ 0.718486 0.901151 0.703913 -0.11473
C_ C_ 0.95512 0.906955 0.714247 -0.11473
C_ C_ 0.684055 0.659041 0.748469 -0.02249
C_ C_ 0.932468 0.651326 0.753669 -0.02249
C_ C_ 0.732705 0.544444 0.757725 -0.02249
C_ C_ 0.983751 0.538038 0.755248 -0.02249
C_ C_ 0.713331 0.608817 0.790707 -0.11473
C_ C_ 0.955789 0.59455 0.79238 -0.11473
C_ C_ 0.688428 0.634177 0.712616 -0.11473
C_ C_ 0.943021 0.635578 0.716196 -0.11473
C_ C_ 0.699859 0.649265 0.785769 -0.11473
C_ C_ 0.937128 0.629443 0.79063 -0.11473
C_ C_ 0.715556 0.583197 0.754523 -0.02249
C_ C_ 0.966098 0.57784 0.755404 -0.02249
C_ C_ 0.663486 0.695214 0.74666 0.6875
C_ C_ 0.912856 0.690275 0.754943 0.6875
C_ C_ 0.70542 0.597358 0.714678 -0.11473
C_ C_ 0.959321 0.597879 0.717092 -0.11473
C_ C_ 0.571314 0.650433 0.740357 -0.02249
C_ C_ 0.816534 0.656228 0.753871 -0.02249
C_ C_ 0.516398 0.541737 0.731382 -0.02249
C_ C_ 0.764911 0.543425 0.753889 -0.02249
C_ C_ 0.542911 0.599814 0.699493 -0.11473
C_ C_ 0.789911 0.602633 0.717472 -0.11473
C_ C_ 0.566947 0.628678 0.776467 -0.11473
C_ C_ 0.807766 0.637608 0.792238 -0.11473
C_ C_ 0.558273 0.636803 0.702015 -0.11473
C_ C_ 0.805989 0.639108 0.717232 -0.11473
C_ C_ 0.536063 0.578388 0.734805 -0.02249
C_ C_ 0.781939 0.582744 0.755091 -0.02249
C_ C_ 0.590921 0.688706 0.740736 0.6875
C_ C_ 0.83489 0.694195 0.753354 0.6875
C_ C_ 0.547392 0.592942 0.773134 -0.11473
C_ C_ 0.792883 0.601534 0.792845 -0.11473
C_ C_ 0.596825 0.735059 0.864746 0.17695
C_ C_ 0.880567 0.713193 0.879903 0.17695
C_ C_ 0.644769 0.765897 0.874807 0.17695
C_ C_ 0.87664 0.784824 0.883794 0.17695
C_ C_ 0.640797 0.766782 0.918887 -0.11473
C_ C_ 0.879454 0.782742 0.927142 -0.11473
C_ C_ 0.614322 0.748891 0.937449 0.23465
C_ C_ 0.884303 0.744451 0.947649 0.23465
C_ C_ 0.591612 0.734347 0.908847 -0.11473
C_ C_ 0.884648 0.709514 0.922862 -0.11473
C_ C_ 0.633554 0.724496 0.617634 0.17695
C_ C_ 0.886604 0.781755 0.622291 0.17695
C_ C_ 0.621878 0.795072 0.61991 0.17695
C_ C_ 0.861644 0.717307 0.627563 0.17695
C_ C_ 0.62059 0.797658 0.575673 -0.11473
C_ C_ 0.85635 0.715811 0.583756 -0.11473
C_ C_ 0.62476 0.761186 0.551667 0.23465
C_ C_ 0.870321 0.74346 0.557362 0.23465
C_ C_ 0.632152 0.724303 0.573386 -0.11473
C_ C_ 0.88363 0.779021 0.577757 -0.11473
C_ C_ 0.52888 0.00429063 0.73447 0.05793
C_ C_ 0.781142 0.00136541 0.777214 0.05793
C_ C_ 0.717254 0.506951 0.762819 0.05793
C_ C_ 0.968713 0.501474 0.758694 0.05793
Br Br 0.57058 0.00831571 0.721181 -0.17191
Br Br 0.820578 0.997786 0.805605 -0.17191
Br Br 0.673799 0.506492 0.767574 -0.17191
Br Br 0.924047 0.499857 0.758025 -0.17191
N_ N_ 0.623837 0.747889 0.849129 -0.272
N_ N_ 0.880206 0.749246 0.859715 -0.272
N_ N_ 0.609417 0.751858 0.983649 -0.12501
N_ N_ 0.880145 0.739882 0.993252 -0.12501
N_ N_ 0.625439 0.757852 0.640299 -0.272
N_ N_ 0.873792 0.752082 0.647205 -0.272
N_ N_ 0.619373 0.761998 0.508251 -0.12501
N_ N_ 0.867931 0.738056 0.512172 -0.12501
O_ O_ 0.595974 0.800154 0.706088 -0.60745
O_ O_ 0.848013 0.801155 0.717222 -0.60745
O_ O_ 0.592634 0.795905 0.775555 -0.60745
O_ O_ 0.846281 0.795678 0.788248 -0.60745
O_ O_ 0.653852 0.803945 0.778097 -0.60745
O_ O_ 0.907545 0.796103 0.788538 -0.60745
O_ O_ 0.656748 0.800239 0.710685 -0.60745
O_ O_ 0.908627 0.791157 0.719575 -0.60745
O_ O_ 0.659089 0.717526 0.778672 -0.60745
O_ O_ 0.909447 0.710396 0.788316 -0.60745
O_ O_ 0.656737 0.709385 0.71064 -0.60745
O_ O_ 0.900174 0.70185 0.721267 -0.60745
O_ O_ 0.59704 0.706514 0.706803 -0.60745
O_ O_ 0.838124 0.715578 0.720194 -0.60745
O_ O_ 0.596527 0.70693 0.774379 -0.60745
O_ O_ 0.847433 0.706524 0.788057 -0.60745
_cell_length_a 44.444
_cell_length_b 32.3360000049186
_cell_length_c 31.843999878906452
_cell_angle_alpha 89.99799923859553
_cell_angle_beta 91.13600050494348
_cell_angle_gamma 89.9990006550086
_symmetry_space_group_name_H-M         'P 1'
_symmetry_Int_Tables_number            1
loop_
_symmetry_equiv_pos_as_xyz
   'x, y, z'
                         
loop_
_atom_site_label
_atom_site_type_symbol
_atom_site_fract_x 
_atom_site_fract_y
_atom_site_fract_z
_atom_site_charge
Zn Zn 0.125384 0.244797 0.284097 0.9476
Zn Zn 0.377357 0.24447 0.282945 0.9476
Zn Zn 0.12559 0.246084 0.21488 0.9476
Zn Zn 0.376137 0.245448 0.211178 0.9476
H_ H_ 0.0197934 0.402792 0.195721 0.10932
H_ H_ 0.275172 0.40031 0.186001 0.10932
H_ H_ 0.0857004 0.362838 0.319232 0.10932
H_ H_ 0.329663 0.354457 0.314762 0.10932
H_ H_ 0.0556873 0.347034 0.191822 0.10932
H_ H_ 0.30967 0.34374 0.182083 0.10932
H_ H_ 0.0580284 0.431953 0.322573 0.10932
H_ H_ 0.30014 0.421315 0.31365 0.10932
H_ H_ 0.236956 0.393208 0.315601 0.10932
H_ H_ 0.465059 0.415544 0.307845 0.10932
H_ H_ 0.163953 0.378312 0.197896 0.10932
H_ H_ 0.437727 0.347635 0.171711 0.10932
H_ H_ 0.212797 0.326292 0.306282 0.10932
H_ H_ 0.435426 0.35021 0.308759 0.10932
H_ H_ 0.199298 0.437917 0.202003 0.10932
H_ H_ 0.469612 0.407872 0.173596 0.10932
H_ H_ 0.232628 0.0991589 0.306123 0.10932
H_ H_ 0.473229 0.0836797 0.322855 0.10932
H_ H_ 0.170014 0.128333 0.179765 0.10932
H_ H_ 0.423152 0.124853 0.191477 0.10932
H_ H_ 0.201301 0.158448 0.305542 0.10932
H_ H_ 0.443919 0.146649 0.321663 0.10932
H_ H_ 0.193217 0.0589214 0.18996 0.10932
H_ H_ 0.458043 0.0649633 0.188756 0.10932
H_ H_ 0.0343434 0.0755981 0.184363 0.10932
H_ H_ 0.268591 0.0989828 0.179645 0.10932
H_ H_ 0.0581442 0.153285 0.315839 0.10932
H_ H_ 0.33951 0.120554 0.298852 0.10932
H_ H_ 0.0669458 0.138995 0.184392 0.10932
H_ H_ 0.293087 0.165864 0.187696 0.10932
H_ H_ 0.0318208 0.0849148 0.319318 0.10932
H_ H_ 0.312002 0.0527189 0.291266 0.10932
H_ H_ 0.130959 0.309343 0.352859 0.10932
H_ H_ 0.388856 0.307585 0.360205 0.10932
H_ H_ 0.116423 0.180554 0.361057 0.10932
H_ H_ 0.367785 0.178705 0.35508 0.10932
H_ H_ 0.123259 0.183516 0.442908 0.10932
H_ H_ 0.365982 0.175167 0.434511 0.10932
H_ H_ 0.138954 0.31442 0.432423 0.10932
H_ H_ 0.372667 0.309504 0.434993 0.10932
H_ H_ 0.121327 0.305973 0.132755 0.10932
H_ H_ 0.383079 0.305361 0.133174 0.10932
H_ H_ 0.132021 0.176522 0.148259 0.10932
H_ H_ 0.364798 0.178292 0.138958 0.10932
H_ H_ 0.128101 0.168519 0.0699361 0.10932
H_ H_ 0.35492 0.174506 0.0643686 0.10932
H_ H_ 0.114758 0.297032 0.0570903 0.10932
H_ H_ 0.386672 0.303528 0.0536005 0.10932
C_ C_ 0.0745772 0.351939 0.252446 -0.02249
C_ C_ 0.322552 0.34329 0.246651 -0.02249
C_ C_ 0.0206672 0.463036 0.257432 -0.02249
C_ C_ 0.26857 0.455255 0.248305 -0.02249
C_ C_ 0.0374128 0.398981 0.220458 -0.11473
C_ C_ 0.289197 0.392547 0.21228 -0.11473
C_ C_ 0.0729824 0.374646 0.291704 -0.11473
C_ C_ 0.319275 0.364786 0.285022 -0.11473
C_ C_ 0.0563664 0.364866 0.219155 -0.11473
C_ C_ 0.308685 0.35895 0.211115 -0.11473
C_ C_ 0.0382836 0.423902 0.257777 -0.02249
C_ C_ 0.285871 0.415931 0.248212 -0.02249
C_ C_ 0.0893594 0.309183 0.25189 0.6875
C_ C_ 0.342584 0.305937 0.246425 0.6875
C_ C_ 0.0554787 0.41159 0.294275 -0.11473
C_ C_ 0.300681 0.401643 0.286298 -0.11473
C_ C_ 0.184905 0.34383 0.250688 -0.02249
C_ C_ 0.435852 0.342621 0.239974 -0.02249
C_ C_ 0.237256 0.456408 0.259132 -0.02249
C_ C_ 0.483489 0.45862 0.238793 -0.02249
C_ C_ 0.220962 0.390097 0.290096 -0.11473
C_ C_ 0.458751 0.400199 0.279857 -0.11473
C_ C_ 0.182091 0.377146 0.220082 -0.11473
C_ C_ 0.445857 0.360937 0.201695 -0.11473
C_ C_ 0.206863 0.350238 0.283435 -0.11473
C_ C_ 0.44312 0.36215 0.278296 -0.11473
C_ C_ 0.219015 0.419286 0.25883 -0.02249
C_ C_ 0.467958 0.418187 0.241278 -0.02249
C_ C_ 0.164952 0.306047 0.24696 0.6875
C_ C_ 0.416632 0.303934 0.242281 0.6875
C_ C_ 0.198439 0.413116 0.225135 -0.11473
C_ C_ 0.460162 0.398291 0.20311 -0.11473
C_ C_ 0.183741 0.149099 0.24349 -0.02249
C_ C_ 0.432702 0.143736 0.253264 -0.02249
C_ C_ 0.236289 0.0380128 0.249149 -0.02249
C_ C_ 0.486896 0.0324436 0.254105 -0.02249
C_ C_ 0.222463 0.107182 0.277349 -0.11473
C_ C_ 0.466552 0.0959044 0.291364 -0.11473
C_ C_ 0.182967 0.120621 0.208775 -0.11473
C_ C_ 0.435752 0.118624 0.218364 -0.11473
C_ C_ 0.204894 0.141848 0.275994 -0.11473
C_ C_ 0.445961 0.129205 0.292374 -0.11473
C_ C_ 0.219971 0.0770908 0.245932 -0.02249
C_ C_ 0.468473 0.0706354 0.255266 -0.02249
C_ C_ 0.166379 0.18649 0.246937 0.6875
C_ C_ 0.414936 0.182801 0.250102 0.6875
C_ C_ 0.199337 0.0830259 0.211875 -0.11473
C_ C_ 0.456625 0.0851496 0.217562 -0.11473
C_ C_ 0.0633501 0.151958 0.24991 -0.02249
C_ C_ 0.318629 0.148806 0.243874 -0.02249
C_ C_ 0.0170091 0.0362717 0.255308 -0.02249
C_ C_ 0.266196 0.0352763 0.2348 -0.02249
C_ C_ 0.0399586 0.0921429 0.213973 -0.11473
C_ C_ 0.282169 0.105739 0.207254 -0.11473
C_ C_ 0.0542453 0.134703 0.288639 -0.11473
C_ C_ 0.324587 0.116765 0.271197 -0.11473
C_ C_ 0.0571016 0.129367 0.212528 -0.11473
C_ C_ 0.297863 0.141907 0.20969 -0.11473
C_ C_ 0.0316873 0.0770649 0.253233 -0.02249
C_ C_ 0.287813 0.0721446 0.234055 -0.02249
C_ C_ 0.0853509 0.188141 0.251425 0.6875
C_ C_ 0.334857 0.188798 0.247167 0.6875
C_ C_ 0.0400223 0.0969831 0.290895 -0.11473
C_ C_ 0.308001 0.079491 0.268801 -0.11473
C_ C_ 0.128012 0.28351 0.373767 0.17695
C_ C_ 0.380902 0.279707 0.375892 0.17695
C_ C_ 0.121114 0.210844 0.378516 0.17695
C_ C_ 0.370582 0.206541 0.372722 0.17695
C_ C_ 0.12387 0.212071 0.423409 -0.11473
C_ C_ 0.365509 0.204448 0.416705 -0.11473
C_ C_ 0.128383 0.250265 0.443595 0.23465
C_ C_ 0.367683 0.241846 0.440129 0.23465
C_ C_ 0.129786 0.285595 0.418429 -0.11473
C_ C_ 0.376187 0.279568 0.41958 -0.11473
C_ C_ 0.123382 0.276096 0.117892 0.17695
C_ C_ 0.381113 0.275648 0.116889 0.17695
C_ C_ 0.129519 0.203225 0.12731 0.17695
C_ C_ 0.366982 0.205911 0.120726 0.17695
C_ C_ 0.126667 0.198694 0.0835393 -0.11473
C_ C_ 0.364179 0.203034 0.0774588 -0.11473
C_ C_ 0.125787 0.23325 0.0575687 0.23465
C_ C_ 0.373137 0.236789 0.0523044 0.23465
C_ C_ 0.11855 0.271147 0.0748271 -0.11473
C_ C_ 0.381012 0.274564 0.0727155 -0.11473
C_ C_ 0.0351933 0.500721 0.255822 0.05793
C_ C_ 0.285164 0.492487 0.246506 0.05793
C_ C_ 0.220376 0.00119305 0.259263 0.05793
C_ C_ 0.472822 0.992311 0.258304 0.05793
Br Br 0.0791416 0.507094 0.254364 -0.17191
Br Br 0.327199 0.490249 0.234559 -0.17191
Br Br 0.181321 0.00529657 0.284084 -0.17191
Br Br 0.430095 0.994256 0.27806 -0.17191
N_ N_ 0.125335 0.24544 0.355283 -0.272
N_ N_ 0.377194 0.243321 0.353722 -0.272
N_ N_ 0.134797 0.251901 0.487019 -0.12501
N_ N_ 0.361308 0.241642 0.48456 -0.12501
N_ N_ 0.126333 0.241818 0.142852 -0.272
N_ N_ 0.376825 0.241109 0.139682 -0.272
N_ N_ 0.122024 0.226977 0.0118376 -0.12501
N_ N_ 0.375004 0.232838 0.0091271 -0.12501
O_ O_ 0.0918927 0.289012 0.218517 -0.60745
O_ O_ 0.347887 0.289423 0.211711 -0.60745
O_ O_ 0.102204 0.296477 0.285216 -0.60745
O_ O_ 0.348485 0.289074 0.281439 -0.60745
O_ O_ 0.16238 0.284381 0.278727 -0.60745
O_ O_ 0.410229 0.287319 0.277989 -0.60745
O_ O_ 0.151782 0.295734 0.211898 -0.60745
O_ O_ 0.408538 0.286031 0.209013 -0.60745
O_ O_ 0.152137 0.19254 0.280317 -0.60745
O_ O_ 0.406118 0.200781 0.284127 -0.60745
O_ O_ 0.159406 0.205944 0.214222 -0.60745
O_ O_ 0.404955 0.195884 0.214598 -0.60745
O_ O_ 0.098106 0.199426 0.217858 -0.60745
O_ O_ 0.341395 0.2072 0.214094 -0.60745
O_ O_ 0.09019 0.206914 0.285712 -0.60745
O_ O_ 0.345317 0.20211 0.282223 -0.60745
Zn Zn 0.125224 0.254348 0.784051 0.9476
Zn Zn 0.373057 0.253463 0.778986 0.9476
Zn Zn 0.127415 0.251871 0.717765 0.9476
Zn Zn 0.368987 0.247966 0.710759 0.9476
H_ H_ 0.0276237 0.413864 0.680628 0.10932
H_ H_ 0.299737 0.435013 0.688026 0.10932
H_ H_ 0.0707044 0.359433 0.817184 0.10932
H_ H_ 0.292573 0.338286 0.803199 0.10932
H_ H_ 0.063849 0.35569 0.682364 0.10932
H_ H_ 0.335122 0.379191 0.692006 0.10932
H_ H_ 0.043095 0.428953 0.812726 0.10932
H_ H_ 0.266184 0.399334 0.80865 0.10932
H_ H_ 0.20176 0.436739 0.806001 0.10932
H_ H_ 0.475793 0.409171 0.804142 0.10932
H_ H_ 0.21016 0.3325 0.69414 0.10932
H_ H_ 0.424377 0.361305 0.673888 0.10932
H_ H_ 0.176066 0.37147 0.812883 0.10932
H_ H_ 0.436796 0.355209 0.806583 0.10932
H_ H_ 0.232751 0.401348 0.684965 0.10932
H_ H_ 0.448753 0.428247 0.672523 0.10932
H_ H_ 0.208165 0.0789485 0.821 0.10932
H_ H_ 0.474953 0.0998569 0.806917 0.10932
H_ H_ 0.195176 0.155677 0.687651 0.10932
H_ H_ 0.428382 0.13846 0.669947 0.10932
H_ H_ 0.187466 0.151935 0.823634 0.10932
H_ H_ 0.447214 0.161554 0.800227 0.10932
H_ H_ 0.220032 0.086322 0.688977 0.10932
H_ H_ 0.451374 0.0715687 0.679273 0.10932
H_ H_ 0.0231285 0.0995291 0.683841 0.10932
H_ H_ 0.295835 0.0691728 0.691229 0.10932
H_ H_ 0.0798889 0.137445 0.815846 0.10932
H_ H_ 0.295981 0.160982 0.812912 0.10932
H_ H_ 0.0567698 0.153249 0.684214 0.10932
H_ H_ 0.327408 0.130802 0.687422 0.10932
H_ H_ 0.0544756 0.0716645 0.810293 0.10932
H_ H_ 0.265886 0.101079 0.811235 0.10932
H_ H_ 0.110759 0.317109 0.859696 0.10932
H_ H_ 0.374607 0.316817 0.853314 0.10932
H_ H_ 0.141634 0.193258 0.858179 0.10932
H_ H_ 0.367908 0.186905 0.858695 0.10932
H_ H_ 0.135529 0.188548 0.935116 0.10932
H_ H_ 0.386166 0.187609 0.939117 0.10932
H_ H_ 0.0994905 0.312749 0.935946 0.10932
H_ H_ 0.384146 0.319877 0.927512 0.10932
H_ H_ 0.124748 0.186538 0.647337 0.10932
H_ H_ 0.364603 0.188814 0.629525 0.10932
H_ H_ 0.121022 0.315424 0.638353 0.10932
H_ H_ 0.365194 0.320977 0.64252 0.10932
H_ H_ 0.122438 0.312145 0.558925 0.10932
H_ H_ 0.370024 0.328481 0.570045 0.10932
H_ H_ 0.120471 0.180006 0.570633 0.10932
H_ H_ 0.36693 0.19702 0.553743 0.10932
C_ C_ 0.0718951 0.353871 0.749262 -0.02249
C_ C_ 0.316524 0.350693 0.747152 -0.02249
C_ C_ 0.0166837 0.464078 0.747673 -0.02249
C_ C_ 0.26473 0.464767 0.747629 -0.02249
C_ C_ 0.0383829 0.403894 0.71051 -0.11473
C_ C_ 0.300073 0.416907 0.715099 -0.11473
C_ C_ 0.062088 0.371477 0.7869 -0.11473
C_ C_ 0.296665 0.359813 0.778554 -0.11473
C_ C_ 0.0603612 0.371594 0.710542 -0.11473
C_ C_ 0.317628 0.381923 0.71376 -0.11473
C_ C_ 0.0336465 0.42577 0.748 -0.02249
C_ C_ 0.28132 0.422351 0.746548 -0.02249
C_ C_ 0.0882803 0.314839 0.751757 0.6875
C_ C_ 0.333614 0.311592 0.74896 0.6875
C_ C_ 0.045564 0.40859 0.784241 -0.11473
C_ C_ 0.280548 0.395765 0.780415 -0.11473
C_ C_ 0.187602 0.349711 0.753142 -0.02249
C_ C_ 0.431068 0.349642 0.740746 -0.02249
C_ C_ 0.232148 0.466131 0.7416 -0.02249
C_ C_ 0.482868 0.465391 0.737443 -0.02249
C_ C_ 0.203277 0.414683 0.780574 -0.11473
C_ C_ 0.462072 0.402515 0.775628 -0.11473
C_ C_ 0.20476 0.357355 0.717302 -0.11473
C_ C_ 0.436715 0.370337 0.701639 -0.11473
C_ C_ 0.187791 0.377893 0.784877 -0.11473
C_ C_ 0.4435 0.367487 0.77729 -0.11473
C_ C_ 0.215419 0.427702 0.743198 -0.02249
C_ C_ 0.465443 0.425791 0.738006 -0.02249
C_ C_ 0.168209 0.311096 0.753462 0.6875
C_ C_ 0.411591 0.312907 0.742627 0.6875
C_ C_ 0.216979 0.39681 0.711351 -0.11473
C_ C_ 0.449213 0.410225 0.701473 -0.11473
C_ C_ 0.187376 0.156363 0.754189 -0.02249
C_ C_ 0.429808 0.152635 0.739131 -0.02249
C_ C_ 0.231739 0.0381507 0.753868 -0.02249
C_ C_ 0.479685 0.0383062 0.743045 -0.02249
C_ C_ 0.203912 0.0951556 0.792423 -0.11473
C_ C_ 0.462708 0.104522 0.776824 -0.11473
C_ C_ 0.194924 0.135777 0.71635 -0.11473
C_ C_ 0.434248 0.128202 0.702522 -0.11473
C_ C_ 0.192703 0.135842 0.793083 -0.11473
C_ C_ 0.445338 0.140702 0.774706 -0.11473
C_ C_ 0.216088 0.0788844 0.756124 -0.02249
C_ C_ 0.461134 0.0773151 0.742373 -0.02249
C_ C_ 0.167434 0.193858 0.751682 0.6875
C_ C_ 0.411749 0.189423 0.739152 0.6875
C_ C_ 0.212668 0.100242 0.717225 -0.11473
C_ C_ 0.449036 0.0899601 0.706062 -0.11473
C_ C_ 0.067691 0.157156 0.750755 -0.02249
C_ C_ 0.316643 0.149545 0.752896 -0.02249
C_ C_ 0.0142407 0.0425593 0.749782 -0.02249
C_ C_ 0.262916 0.0387575 0.757063 -0.02249
C_ C_ 0.0337754 0.107069 0.714815 -0.11473
C_ C_ 0.298245 0.0867181 0.719904 -0.11473
C_ C_ 0.0656692 0.1317 0.78721 -0.11473
C_ C_ 0.299344 0.139596 0.788283 -0.11473
C_ C_ 0.0528887 0.141396 0.714092 -0.11473
C_ C_ 0.315003 0.123616 0.715975 -0.11473
C_ C_ 0.0330882 0.0819276 0.749804 -0.02249
C_ C_ 0.280823 0.0783416 0.756451 -0.02249
C_ C_ 0.0867775 0.194568 0.747702 0.6875
C_ C_ 0.334406 0.188361 0.749163 0.6875
C_ C_ 0.0513047 0.0923143 0.784091 -0.11473
C_ C_ 0.283019 0.102944 0.789758 -0.11473
C_ C_ 0.11072 0.28634 0.876314 0.17695
C_ C_ 0.375865 0.288665 0.870338 0.17695
C_ C_ 0.130056 0.217513 0.875869 0.17695
C_ C_ 0.376027 0.215505 0.873978 0.17695
C_ C_ 0.131849 0.218128 0.919478 -0.11473
C_ C_ 0.382136 0.215884 0.917531 -0.11473
C_ C_ 0.119612 0.251898 0.942616 0.23465
C_ C_ 0.382802 0.254426 0.938714 0.23465
C_ C_ 0.109031 0.287064 0.920062 -0.11473
C_ C_ 0.381141 0.290342 0.914689 -0.11473
C_ C_ 0.123204 0.214481 0.62728 0.17695
C_ C_ 0.366393 0.219853 0.61539 0.17695
C_ C_ 0.122599 0.286461 0.622248 0.17695
C_ C_ 0.365335 0.293421 0.622681 0.17695
C_ C_ 0.121961 0.284301 0.577713 -0.11473
C_ C_ 0.365911 0.298361 0.580431 -0.11473
C_ C_ 0.122647 0.245539 0.557356 0.23465
C_ C_ 0.36926 0.26402 0.553536 0.23465
C_ C_ 0.121733 0.210402 0.583268 -0.11473
C_ C_ 0.370608 0.224055 0.57241 -0.11473
C_ C_ 0.0319153 0.502173 0.747389 0.05793
C_ C_ 0.280574 0.503157 0.751521 0.05793
C_ C_ 0.214386 0.00105271 0.753655 0.05793
C_ C_ 0.466087 0.999604 0.746351 0.05793
Br Br 0.0769138 0.5081 0.746219 -0.17191
Br Br 0.315574 0.504323 0.786521 -0.17191
Br Br 0.170905 0.0014508 0.749399 -0.17191
Br Br 0.424737 0.997641 0.764917 -0.17191
N_ N_ 0.121207 0.252033 0.855256 -0.272
N_ N_ 0.374605 0.251019 0.850419 -0.272
N_ N_ 0.126228 0.256152 0.98646 -0.12501
N_ N_ 0.385614 0.259245 0.98453 -0.12501
N_ N_ 0.123506 0.251101 0.645995 -0.272
N_ N_ 0.364327 0.254582 0.640289 -0.272
N_ N_ 0.115763 0.241133 0.513504 -0.12501
N_ N_ 0.369996 0.269389 0.507738 -0.12501
O_ O_ 0.0953579 0.296476 0.717239 -0.60745
O_ O_ 0.340179 0.294713 0.715176 -0.60745
O_ O_ 0.0937048 0.297047 0.787401 -0.60745
O_ O_ 0.344063 0.296704 0.78377 -0.60745
O_ O_ 0.155432 0.300363 0.786068 -0.60745
O_ O_ 0.404863 0.296347 0.77654 -0.60745
O_ O_ 0.161162 0.293651 0.717977 -0.60745
O_ O_ 0.400014 0.297772 0.709028 -0.60745
O_ O_ 0.158112 0.210388 0.786459 -0.60745
O_ O_ 0.404791 0.207096 0.774328 -0.60745
O_ O_ 0.156509 0.205825 0.717156 -0.60745
O_ O_ 0.400676 0.203364 0.705918 -0.60745
O_ O_ 0.0962855 0.207519 0.713533 -0.60745
O_ O_ 0.338308 0.205337 0.713368 -0.60745
O_ O_ 0.0938204 0.212267 0.782473 -0.60745
O_ O_ 0.345095 0.205509 0.782838 -0.60745
Zn Zn 0.127217 0.748734 0.287296 0.9476
Zn Zn 0.374384 0.74877 0.281662 0.9476
Zn Zn 0.1266 0.747239 0.218303 0.9476
Zn Zn 0.372503 0.749528 0.214486 0.9476
H_ H_ 0.0422859 0.923785 0.195395 0.10932
H_ H_ 0.27419 0.909298 0.181469 0.10932
H_ H_ 0.0617486 0.846084 0.32507 0.10932
H_ H_ 0.327945 0.866657 0.310411 0.10932
H_ H_ 0.0796341 0.864692 0.194063 0.10932
H_ H_ 0.291385 0.836233 0.185649 0.10932
H_ H_ 0.0312678 0.908354 0.326594 0.10932
H_ H_ 0.299105 0.931114 0.309026 0.10932
H_ H_ 0.21951 0.912294 0.322611 0.10932
H_ H_ 0.477589 0.900568 0.315545 0.10932
H_ H_ 0.190813 0.852103 0.182912 0.10932
H_ H_ 0.432235 0.857392 0.181627 0.10932
H_ H_ 0.196317 0.841593 0.319572 0.10932
H_ H_ 0.452201 0.833098 0.313579 0.10932
H_ H_ 0.215201 0.9208 0.187966 0.10932
H_ H_ 0.460024 0.922123 0.187424 0.10932
H_ H_ 0.213054 0.579542 0.326673 0.10932
H_ H_ 0.441938 0.56317 0.29924 0.10932
H_ H_ 0.194977 0.647357 0.187168 0.10932
H_ H_ 0.450882 0.664105 0.185013 0.10932
H_ H_ 0.189032 0.646144 0.324431 0.10932
H_ H_ 0.405265 0.620306 0.29368 0.10932
H_ H_ 0.224566 0.582475 0.190791 0.10932
H_ H_ 0.480169 0.597815 0.185259 0.10932
H_ H_ 0.0421252 0.57892 0.189913 0.10932
H_ H_ 0.288195 0.578284 0.183998 0.10932
H_ H_ 0.0583277 0.658437 0.320286 0.10932
H_ H_ 0.310963 0.645917 0.318487 0.10932
H_ H_ 0.0719588 0.641822 0.187304 0.10932
H_ H_ 0.325613 0.632517 0.185788 0.10932
H_ H_ 0.0300787 0.592765 0.322888 0.10932
H_ H_ 0.287373 0.576694 0.31719 0.10932
H_ H_ 0.129096 0.816437 0.358835 0.10932
H_ H_ 0.379384 0.819284 0.349786 0.10932
H_ H_ 0.120343 0.684891 0.369712 0.10932
H_ H_ 0.37477 0.690138 0.357845 0.10932
H_ H_ 0.131518 0.689105 0.448336 0.10932
H_ H_ 0.3734 0.693814 0.436405 0.10932
H_ H_ 0.138825 0.818055 0.433938 0.10932
H_ H_ 0.376813 0.825475 0.429265 0.10932
H_ H_ 0.146865 0.677114 0.147461 0.10932
H_ H_ 0.364075 0.686215 0.133134 0.10932
H_ H_ 0.109643 0.799331 0.140209 0.10932
H_ H_ 0.38002 0.814501 0.149467 0.10932
H_ H_ 0.101801 0.790435 0.0631782 0.10932
H_ H_ 0.383759 0.827085 0.0778886 0.10932
H_ H_ 0.143333 0.672734 0.0698046 0.10932
H_ H_ 0.362994 0.698066 0.0524846 0.10932
C_ C_ 0.0683236 0.845969 0.258518 -0.02249
C_ C_ 0.313869 0.84529 0.246744 -0.02249
C_ C_ 0.0170004 0.960902 0.259628 -0.02249
C_ C_ 0.264822 0.96127 0.243798 -0.02249
C_ C_ 0.0473171 0.906546 0.223143 -0.11473
C_ C_ 0.284338 0.896447 0.20853 -0.11473
C_ C_ 0.0555691 0.861001 0.296259 -0.11473
C_ C_ 0.315635 0.873099 0.281626 -0.11473
C_ C_ 0.0665422 0.871805 0.223273 -0.11473
C_ C_ 0.298664 0.858907 0.209878 -0.11473
C_ C_ 0.0343465 0.919734 0.260608 -0.02249
C_ C_ 0.282036 0.920532 0.24537 -0.02249
C_ C_ 0.089087 0.808822 0.257094 0.6875
C_ C_ 0.334969 0.808462 0.244279 0.6875
C_ C_ 0.0389998 0.89705 0.297877 -0.11473
C_ C_ 0.297954 0.90949 0.280873 -0.11473
C_ C_ 0.187715 0.843858 0.252267 -0.02249
C_ C_ 0.440596 0.838126 0.246878 -0.02249
C_ C_ 0.234365 0.962415 0.255279 -0.02249
C_ C_ 0.489445 0.954094 0.253773 -0.02249
C_ C_ 0.211695 0.90046 0.292139 -0.11473
C_ C_ 0.469723 0.88941 0.287275 -0.11473
C_ C_ 0.193454 0.86615 0.215219 -0.11473
C_ C_ 0.443669 0.863836 0.210769 -0.11473
C_ C_ 0.199021 0.859933 0.289482 -0.11473
C_ C_ 0.453444 0.851634 0.285978 -0.11473
C_ C_ 0.216737 0.923294 0.255232 -0.02249
C_ C_ 0.472507 0.914297 0.251481 -0.02249
C_ C_ 0.168923 0.805533 0.252337 0.6875
C_ C_ 0.416376 0.80663 0.248615 0.6875
C_ C_ 0.205901 0.906988 0.217269 -0.11473
C_ C_ 0.459676 0.901499 0.214747 -0.11473
C_ C_ 0.191295 0.654539 0.255408 -0.02249
C_ C_ 0.429625 0.649619 0.243733 -0.02249
C_ C_ 0.237853 0.533759 0.258434 -0.02249
C_ C_ 0.481009 0.533236 0.239134 -0.02249
C_ C_ 0.208746 0.593083 0.294199 -0.11473
C_ C_ 0.441274 0.581016 0.272208 -0.11473
C_ C_ 0.202377 0.636019 0.217701 -0.11473
C_ C_ 0.450119 0.642726 0.21162 -0.11473
C_ C_ 0.196159 0.63365 0.293153 -0.11473
C_ C_ 0.42495 0.618582 0.272649 -0.11473
C_ C_ 0.221761 0.576224 0.257873 -0.02249
C_ C_ 0.461493 0.572399 0.241485 -0.02249
C_ C_ 0.169194 0.690701 0.254558 0.6875
C_ C_ 0.413775 0.691788 0.246519 0.6875
C_ C_ 0.219362 0.598326 0.220749 -0.11473
C_ C_ 0.465758 0.604764 0.211918 -0.11473
C_ C_ 0.0653412 0.656441 0.252394 -0.02249
C_ C_ 0.321065 0.644274 0.252052 -0.02249
C_ C_ 0.0189749 0.538936 0.25596 -0.02249
C_ C_ 0.269344 0.531623 0.249317 -0.02249
C_ C_ 0.0441493 0.597896 0.218063 -0.11473
C_ C_ 0.297053 0.587083 0.213755 -0.11473
C_ C_ 0.0557044 0.640713 0.291409 -0.11473
C_ C_ 0.309456 0.62874 0.289376 -0.11473
C_ C_ 0.0617687 0.632893 0.216816 -0.11473
C_ C_ 0.317415 0.620807 0.214672 -0.11473
C_ C_ 0.0356036 0.580443 0.255383 -0.02249
C_ C_ 0.288626 0.570038 0.252117 -0.02249
C_ C_ 0.0845727 0.693708 0.253469 0.6875
C_ C_ 0.33437 0.688295 0.248001 0.6875
C_ C_ 0.0400112 0.602034 0.293917 -0.11473
C_ C_ 0.296403 0.589438 0.289821 -0.11473
C_ C_ 0.132016 0.786946 0.376946 0.17695
C_ C_ 0.378388 0.791954 0.369493 0.17695
C_ C_ 0.126433 0.714849 0.383639 0.17695
C_ C_ 0.37657 0.718711 0.374333 0.17695
C_ C_ 0.128959 0.717442 0.428522 -0.11473
C_ C_ 0.37182 0.721306 0.417571 -0.11473
C_ C_ 0.12811 0.757006 0.447725 0.23465
C_ C_ 0.373067 0.759313 0.436549 0.23465
C_ C_ 0.13243 0.789962 0.420649 -0.11473
C_ C_ 0.375778 0.795425 0.412852 -0.11473
C_ C_ 0.138691 0.704766 0.128074 0.17695
C_ C_ 0.367565 0.717372 0.119371 0.17695
C_ C_ 0.113696 0.769529 0.124582 0.17695
C_ C_ 0.373566 0.790021 0.12923 0.17695
C_ C_ 0.114361 0.767981 0.0810968 -0.11473
C_ C_ 0.377505 0.796008 0.0868794 -0.11473
C_ C_ 0.122399 0.732428 0.0599053 0.23465
C_ C_ 0.374494 0.764024 0.0568788 0.23465
C_ C_ 0.135968 0.700238 0.0835224 -0.11473
C_ C_ 0.368009 0.723544 0.0743327 -0.11473
C_ C_ 0.0330932 0.999286 0.259804 0.05793
C_ C_ 0.279626 0.996128 0.233048 0.05793
C_ C_ 0.221977 0.49558 0.264143 0.05793
C_ C_ 0.46726 0.495463 0.235611 0.05793
Br Br 0.0756665 0.00212217 0.274926 -0.17191
Br Br 0.31778 0.991037 0.202546 -0.17191
Br Br 0.183433 0.498243 0.290659 -0.17191
Br Br 0.42778 0.4948 0.209077 -0.17191
N_ N_ 0.129594 0.748602 0.359094 -0.272
N_ N_ 0.375944 0.754411 0.350636 -0.272
N_ N_ 0.131312 0.762241 0.491728 -0.12501
N_ N_ 0.374291 0.765102 0.480661 -0.12501
N_ N_ 0.126557 0.737606 0.147408 -0.272
N_ N_ 0.372154 0.750127 0.144014 -0.272
N_ N_ 0.117949 0.727572 0.0159041 -0.12501
N_ N_ 0.374152 0.771698 0.0117903 -0.12501
O_ O_ 0.0924448 0.790761 0.222035 -0.60745
O_ O_ 0.336522 0.787659 0.211537 -0.60745
O_ O_ 0.101609 0.794672 0.289653 -0.60745
O_ O_ 0.345544 0.794428 0.279669 -0.60745
O_ O_ 0.161878 0.789069 0.28668 -0.60745
O_ O_ 0.409686 0.789638 0.282165 -0.60745
O_ O_ 0.157383 0.792267 0.218522 -0.60745
O_ O_ 0.40292 0.794915 0.216391 -0.60745
O_ O_ 0.15891 0.704199 0.28794 -0.60745
O_ O_ 0.40175 0.701757 0.281495 -0.60745
O_ O_ 0.159071 0.70402 0.21927 -0.60745
O_ O_ 0.406668 0.711812 0.212491 -0.60745
O_ O_ 0.0941516 0.70866 0.21932 -0.60745
O_ O_ 0.345548 0.701211 0.213807 -0.60745
O_ O_ 0.0934574 0.710019 0.287937 -0.60745
O_ O_ 0.340608 0.707098 0.28249 -0.60745
Zn Zn 0.122309 0.748297 0.786268 0.9476
Zn Zn 0.373074 0.748329 0.781811 0.9476
Zn Zn 0.1227 0.749886 0.719139 0.9476
Zn Zn 0.373336 0.755668 0.71194 0.9476
H_ H_ 0.0301473 0.914976 0.68239 0.10932
H_ H_ 0.284278 0.926294 0.687163 0.10932
H_ H_ 0.0647509 0.858013 0.818909 0.10932
H_ H_ 0.304237 0.840803 0.81314 0.10932
H_ H_ 0.0563787 0.846428 0.686131 0.10932
H_ H_ 0.313608 0.862955 0.681066 0.10932
H_ H_ 0.0394782 0.929153 0.816569 0.10932
H_ H_ 0.278189 0.906996 0.821946 0.10932
H_ H_ 0.214083 0.915257 0.825079 0.10932
H_ H_ 0.469086 0.918071 0.810532 0.10932
H_ H_ 0.182839 0.856813 0.688251 0.10932
H_ H_ 0.424214 0.860289 0.678221 0.10932
H_ H_ 0.188638 0.849423 0.823312 0.10932
H_ H_ 0.442689 0.845068 0.810076 0.10932
H_ H_ 0.211071 0.916389 0.690867 0.10932
H_ H_ 0.453874 0.927691 0.677363 0.10932
H_ H_ 0.212606 0.577127 0.804379 0.10932
H_ H_ 0.486337 0.601846 0.799835 0.10932
H_ H_ 0.190091 0.658986 0.677981 0.10932
H_ H_ 0.427742 0.648836 0.675546 0.10932
H_ H_ 0.183401 0.643583 0.809814 0.10932
H_ H_ 0.453364 0.662994 0.806864 0.10932
H_ H_ 0.218849 0.594854 0.670812 0.10932
H_ H_ 0.443122 0.575388 0.681558 0.10932
H_ H_ 0.0326243 0.581371 0.67875 0.10932
H_ H_ 0.292204 0.584348 0.674175 0.10932
H_ H_ 0.0614334 0.650465 0.812336 0.10932
H_ H_ 0.307596 0.653118 0.810273 0.10932
H_ H_ 0.0532745 0.65172 0.680486 0.10932
H_ H_ 0.312999 0.654815 0.676937 0.10932
H_ H_ 0.0343254 0.583597 0.813895 0.10932
H_ H_ 0.283346 0.585398 0.81002 0.10932
H_ H_ 0.133455 0.815409 0.858952 0.10932
H_ H_ 0.341137 0.798458 0.862969 0.10932
H_ H_ 0.103772 0.689597 0.863552 0.10932
H_ H_ 0.407419 0.707604 0.853759 0.10932
H_ H_ 0.110207 0.689532 0.943873 0.10932
H_ H_ 0.409948 0.70085 0.929422 0.10932
H_ H_ 0.123619 0.82098 0.93431 0.10932
H_ H_ 0.34204 0.792033 0.939835 0.10932
H_ H_ 0.168677 0.765827 0.642958 0.10932
H_ H_ 0.365111 0.688354 0.642584 0.10932
H_ H_ 0.0748186 0.740193 0.644003 0.10932
H_ H_ 0.378504 0.817624 0.631163 0.10932
H_ H_ 0.0735667 0.726529 0.571105 0.10932
H_ H_ 0.36849 0.811108 0.553605 0.10932
H_ H_ 0.16616 0.756396 0.565032 0.10932
H_ H_ 0.360174 0.68269 0.564986 0.10932
C_ C_ 0.0664191 0.852176 0.752609 -0.02249
C_ C_ 0.310817 0.846212 0.746392 -0.02249
C_ C_ 0.0125929 0.965648 0.747247 -0.02249
C_ C_ 0.262298 0.962359 0.758446 -0.02249
C_ C_ 0.0377217 0.902487 0.711614 -0.11473
C_ C_ 0.286404 0.906062 0.713244 -0.11473
C_ C_ 0.0588721 0.872752 0.789131 -0.11473
C_ C_ 0.303171 0.860405 0.785772 -0.11473
C_ C_ 0.0549934 0.866775 0.713955 -0.11473
C_ C_ 0.305415 0.871463 0.711326 -0.11473
C_ C_ 0.0306277 0.926338 0.74807 -0.02249
C_ C_ 0.278062 0.921199 0.754038 -0.02249
C_ C_ 0.0862859 0.814242 0.753604 0.6875
C_ C_ 0.329317 0.807824 0.741946 0.6875
C_ C_ 0.0435601 0.911335 0.786211 -0.11473
C_ C_ 0.286954 0.89743 0.789931 -0.11473
C_ C_ 0.179674 0.84612 0.755788 -0.02249
C_ C_ 0.429927 0.851465 0.743353 -0.02249
C_ C_ 0.229788 0.962845 0.755868 -0.02249
C_ C_ 0.484327 0.962532 0.746602 -0.02249
C_ C_ 0.20785 0.901896 0.793838 -0.11473
C_ C_ 0.460982 0.903547 0.782775 -0.11473
C_ C_ 0.187009 0.867981 0.71957 -0.11473
C_ C_ 0.435037 0.872902 0.706879 -0.11473
C_ C_ 0.191798 0.863439 0.794247 -0.11473
C_ C_ 0.443871 0.866134 0.781708 -0.11473
C_ C_ 0.211055 0.924074 0.757164 -0.02249
C_ C_ 0.467987 0.922738 0.744364 -0.02249
C_ C_ 0.161481 0.80616 0.754991 0.6875
C_ C_ 0.409901 0.813604 0.74218 0.6875
C_ C_ 0.20226 0.904712 0.719842 -0.11473
C_ C_ 0.452411 0.909139 0.7066 -0.11473
C_ C_ 0.182863 0.655786 0.745038 -0.02249
C_ C_ 0.436063 0.659312 0.742864 -0.02249
C_ C_ 0.234107 0.542606 0.732907 -0.02249
C_ C_ 0.48401 0.543821 0.736001 -0.02249
C_ C_ 0.209464 0.597826 0.778047 -0.11473
C_ C_ 0.470839 0.609785 0.77392 -0.11473
C_ C_ 0.19389 0.641848 0.706439 -0.11473
C_ C_ 0.437225 0.635327 0.704816 -0.11473
C_ C_ 0.192028 0.632836 0.781496 -0.11473
C_ C_ 0.451495 0.644094 0.778934 -0.11473
C_ C_ 0.218402 0.581932 0.737972 -0.02249
C_ C_ 0.468757 0.584721 0.738217 -0.02249
C_ C_ 0.160456 0.688961 0.746666 0.6875
C_ C_ 0.410712 0.691561 0.747999 0.6875
C_ C_ 0.212322 0.605972 0.703025 -0.11473
C_ C_ 0.448464 0.595633 0.70685 -0.11473
C_ C_ 0.0633748 0.655718 0.745704 -0.02249
C_ C_ 0.313816 0.658196 0.745448 -0.02249
C_ C_ 0.0153334 0.538877 0.747613 -0.02249
C_ C_ 0.265525 0.540067 0.740926 -0.02249
C_ C_ 0.0393609 0.597136 0.708987 -0.11473
C_ C_ 0.29569 0.598499 0.705618 -0.11473
C_ C_ 0.0554173 0.636731 0.783117 -0.11473
C_ C_ 0.303162 0.63805 0.781666 -0.11473
C_ C_ 0.0558339 0.634969 0.708564 -0.11473
C_ C_ 0.307524 0.639793 0.706446 -0.11473
C_ C_ 0.0315194 0.579614 0.745711 -0.02249
C_ C_ 0.283916 0.579945 0.74209 -0.02249
C_ C_ 0.0805917 0.694702 0.746644 0.6875
C_ C_ 0.333361 0.694318 0.75014 0.6875
C_ C_ 0.0403439 0.598259 0.785023 -0.11473
C_ C_ 0.28676 0.601458 0.780489 -0.11473
C_ C_ 0.12894 0.787187 0.87831 0.17695
C_ C_ 0.358147 0.779137 0.877021 0.17695
C_ C_ 0.113539 0.716003 0.879712 0.17695
C_ C_ 0.391331 0.723979 0.873595 0.17695
C_ C_ 0.114295 0.717085 0.924289 -0.11473
C_ C_ 0.395592 0.724806 0.916806 -0.11473
C_ C_ 0.121669 0.753175 0.945786 0.23465
C_ C_ 0.379515 0.750242 0.941339 0.23465
C_ C_ 0.126944 0.789652 0.922158 -0.11473
C_ C_ 0.358457 0.775291 0.920861 -0.11473
C_ C_ 0.14699 0.757858 0.624533 0.17695
C_ C_ 0.367818 0.714721 0.623926 0.17695
C_ C_ 0.0942456 0.747795 0.626141 0.17695
C_ C_ 0.3763 0.785318 0.617757 0.17695
C_ C_ 0.094729 0.739178 0.584382 -0.11473
C_ C_ 0.369563 0.784364 0.573909 -0.11473
C_ C_ 0.11904 0.746159 0.560305 0.23465
C_ C_ 0.369655 0.745487 0.552422 0.23465
C_ C_ 0.145321 0.756662 0.580226 -0.11473
C_ C_ 0.367289 0.710399 0.580117 -0.11473
C_ C_ 0.0299178 0.00358229 0.745986 0.05793
C_ C_ 0.277988 0.000806102 0.761357 0.05793
C_ C_ 0.217316 0.50542 0.734054 0.05793
C_ C_ 0.467423 0.505643 0.739212 0.05793
Br Br 0.0714742 0.00238029 0.728099 -0.17191
Br Br 0.318862 0.0013343 0.776551 -0.17191
Br Br 0.175089 0.502495 0.721984 -0.17191
Br Br 0.427653 0.507143 0.755125 -0.17191
N_ N_ 0.121742 0.751216 0.857567 -0.272
N_ N_ 0.374028 0.752115 0.853708 -0.272
N_ N_ 0.122658 0.75703 0.991836 -0.12501
N_ N_ 0.380699 0.742778 0.985809 -0.12501
N_ N_ 0.121532 0.755193 0.646794 -0.272
N_ N_ 0.373508 0.75184 0.642455 -0.272
N_ N_ 0.117495 0.739432 0.516056 -0.12501
N_ N_ 0.365558 0.739742 0.507199 -0.12501
O_ O_ 0.0883835 0.79203 0.721244 -0.60745
O_ O_ 0.34371 0.800898 0.708586 -0.60745
O_ O_ 0.0971847 0.800219 0.787687 -0.60745
O_ O_ 0.337617 0.788796 0.775617 -0.60745
O_ O_ 0.155344 0.788033 0.789662 -0.60745
O_ O_ 0.400115 0.798104 0.776605 -0.60745
O_ O_ 0.148695 0.795515 0.720376 -0.60745
O_ O_ 0.40822 0.793142 0.709696 -0.60745
O_ O_ 0.147993 0.698959 0.781245 -0.60745
O_ O_ 0.408061 0.710032 0.783216 -0.60745
O_ O_ 0.160088 0.71473 0.71576 -0.60745
O_ O_ 0.400252 0.708229 0.715252 -0.60745
O_ O_ 0.0944003 0.704803 0.714507 -0.60745
O_ O_ 0.339287 0.714564 0.71659 -0.60745
O_ O_ 0.0859807 0.712604 0.781814 -0.60745
O_ O_ 0.348557 0.699544 0.783489 -0.60745
Zn Zn 0.621831 0.245611 0.285237 0.9476
Zn Zn 0.876082 0.250049 0.289562 0.9476
Zn Zn 0.619701 0.250137 0.214475 0.9476
Zn Zn 0.876357 0.245569 0.221289 0.9476
H_ H_ 0.536238 0.422056 0.181193 0.10932
H_ H_ 0.795557 0.419398 0.178058 0.10932
H_ H_ 0.559088 0.34741 0.315052 0.10932
H_ H_ 0.799112 0.340891 0.313843 0.10932
H_ H_ 0.562384 0.356985 0.179057 0.10932
H_ H_ 0.832218 0.360671 0.18538 0.10932
H_ H_ 0.530769 0.410156 0.31485 0.10932
H_ H_ 0.775756 0.409844 0.30867 0.10932
H_ H_ 0.704546 0.417989 0.320018 0.10932
H_ H_ 0.987485 0.398984 0.314912 0.10932
H_ H_ 0.690725 0.344581 0.183855 0.10932
H_ H_ 0.915883 0.375619 0.193335 0.10932
H_ H_ 0.676714 0.353981 0.318791 0.10932
H_ H_ 0.95295 0.337685 0.313313 0.10932
H_ H_ 0.718792 0.407386 0.18509 0.10932
H_ H_ 0.950731 0.437878 0.195915 0.10932
H_ H_ 0.720353 0.0804068 0.313146 0.10932
H_ H_ 0.97063 0.0844824 0.326366 0.10932
H_ H_ 0.674393 0.139569 0.181829 0.10932
H_ H_ 0.944928 0.148715 0.191394 0.10932
H_ H_ 0.684576 0.133546 0.315418 0.10932
H_ H_ 0.926533 0.13948 0.323815 0.10932
H_ H_ 0.710166 0.0836334 0.175577 0.10932
H_ H_ 0.969354 0.0826626 0.193464 0.10932
H_ H_ 0.532298 0.081036 0.182792 0.10932
H_ H_ 0.782701 0.0818931 0.178324 0.10932
H_ H_ 0.56799 0.137459 0.318811 0.10932
H_ H_ 0.820531 0.133814 0.317286 0.10932
H_ H_ 0.551989 0.152177 0.184928 0.10932
H_ H_ 0.81784 0.142771 0.18043 0.10932
H_ H_ 0.542549 0.0698668 0.314546 0.10932
H_ H_ 0.781836 0.0764876 0.309909 0.10932
H_ H_ 0.611766 0.18326 0.354406 0.10932
H_ H_ 0.865132 0.184337 0.363234 0.10932
H_ H_ 0.645551 0.305923 0.363648 0.10932
H_ H_ 0.883782 0.313296 0.37151 0.10932
H_ H_ 0.641472 0.304482 0.435253 0.10932
H_ H_ 0.867919 0.314204 0.441429 0.10932
H_ H_ 0.610052 0.180509 0.434438 0.10932
H_ H_ 0.863347 0.184431 0.439958 0.10932
H_ H_ 0.633001 0.184306 0.139253 0.10932
H_ H_ 0.834529 0.251454 0.137825 0.10932
H_ H_ 0.61258 0.31329 0.137743 0.10932
H_ H_ 0.9277 0.242351 0.155924 0.10932
H_ H_ 0.620264 0.316753 0.060631 0.10932
H_ H_ 0.934674 0.237231 0.0752361 0.10932
H_ H_ 0.648316 0.18932 0.065695 0.10932
H_ H_ 0.840817 0.260222 0.0603576 0.10932
C_ C_ 0.564116 0.346581 0.24645 -0.02249
C_ C_ 0.817315 0.34251 0.249559 -0.02249
C_ C_ 0.514411 0.461324 0.248902 -0.02249
C_ C_ 0.767222 0.457352 0.24246 -0.02249
C_ C_ 0.543839 0.407535 0.210938 -0.11473
C_ C_ 0.796959 0.400986 0.207779 -0.11473
C_ C_ 0.552583 0.362418 0.285745 -0.11473
C_ C_ 0.800302 0.356608 0.284435 -0.11473
C_ C_ 0.556829 0.369562 0.209695 -0.11473
C_ C_ 0.817225 0.366345 0.210888 -0.11473
C_ C_ 0.533789 0.424003 0.249529 -0.02249
C_ C_ 0.784377 0.418109 0.24473 -0.02249
C_ C_ 0.581682 0.307228 0.246721 0.6875
C_ C_ 0.838867 0.307204 0.25466 0.6875
C_ C_ 0.537707 0.399764 0.28601 -0.11473
C_ C_ 0.786463 0.39562 0.282065 -0.11473
C_ C_ 0.680301 0.344368 0.252163 -0.02249
C_ C_ 0.933421 0.350996 0.25287 -0.02249
C_ C_ 0.733832 0.458212 0.24931 -0.02249
C_ C_ 0.988455 0.461075 0.256464 -0.02249
C_ C_ 0.703782 0.403133 0.288998 -0.11473
C_ C_ 0.973101 0.39176 0.28771 -0.11473
C_ C_ 0.693467 0.35994 0.213893 -0.11473
C_ C_ 0.932006 0.379483 0.218732 -0.11473
C_ C_ 0.687653 0.365822 0.289996 -0.11473
C_ C_ 0.953368 0.358593 0.287595 -0.11473
C_ C_ 0.717701 0.418604 0.251092 -0.02249
C_ C_ 0.970223 0.423439 0.255668 -0.02249
C_ C_ 0.660248 0.308616 0.250499 0.6875
C_ C_ 0.914027 0.313101 0.254366 0.6875
C_ C_ 0.711031 0.395936 0.214176 -0.11473
C_ C_ 0.9514 0.414389 0.220612 -0.11473
C_ C_ 0.677635 0.144774 0.24979 -0.02249
C_ C_ 0.936807 0.152242 0.259457 -0.02249
C_ C_ 0.733723 0.0367791 0.241023 -0.02249
C_ C_ 0.984912 0.0367222 0.260925 -0.02249
C_ C_ 0.711908 0.0938346 0.282485 -0.11473
C_ C_ 0.959128 0.095448 0.298497 -0.11473
C_ C_ 0.684711 0.127317 0.210399 -0.11473
C_ C_ 0.946871 0.133091 0.221725 -0.11473
C_ C_ 0.692871 0.127378 0.283794 -0.11473
C_ C_ 0.941354 0.132079 0.296604 -0.11473
C_ C_ 0.716909 0.0761495 0.243143 -0.02249
C_ C_ 0.96702 0.0751359 0.260887 -0.02249
C_ C_ 0.65633 0.181229 0.253422 0.6875
C_ C_ 0.914927 0.187046 0.256681 0.6875
C_ C_ 0.705057 0.0940549 0.205771 -0.11473
C_ C_ 0.962723 0.0963626 0.222378 -0.11473
C_ C_ 0.565794 0.148476 0.251938 -0.02249
C_ C_ 0.821138 0.144558 0.249344 -0.02249
C_ C_ 0.518628 0.0320193 0.248137 -0.02249
C_ C_ 0.765537 0.0363348 0.244123 -0.02249
C_ C_ 0.540547 0.0940994 0.212357 -0.11473
C_ C_ 0.787543 0.0961407 0.208135 -0.11473
C_ C_ 0.563482 0.124397 0.28816 -0.11473
C_ C_ 0.811747 0.124463 0.287017 -0.11473
C_ C_ 0.552233 0.134611 0.214271 -0.11473
C_ C_ 0.808359 0.130152 0.209588 -0.11473
C_ C_ 0.535119 0.0727033 0.248926 -0.02249
C_ C_ 0.780947 0.0755112 0.245435 -0.02249
C_ C_ 0.58189 0.187646 0.251959 0.6875
C_ C_ 0.836475 0.186297 0.251168 0.6875
C_ C_ 0.547545 0.0872283 0.286874 -0.11473
C_ C_ 0.789999 0.0936038 0.2848 -0.11473
C_ C_ 0.617803 0.210424 0.373758 0.17695
C_ C_ 0.871667 0.211639 0.382922 0.17695
C_ C_ 0.631271 0.281176 0.37744 0.17695
C_ C_ 0.878687 0.284581 0.38453 0.17695
C_ C_ 0.630081 0.280136 0.421606 -0.11473
C_ C_ 0.87336 0.284903 0.426978 -0.11473
C_ C_ 0.622353 0.242757 0.441218 0.23465
C_ C_ 0.870261 0.248127 0.449604 0.23465
C_ C_ 0.617459 0.208156 0.417427 -0.11473
C_ C_ 0.869612 0.210916 0.426394 -0.11473
C_ C_ 0.634196 0.214486 0.124564 0.17695
C_ C_ 0.856022 0.246393 0.122711 0.17695
C_ C_ 0.620676 0.286732 0.120826 0.17695
C_ C_ 0.909288 0.241456 0.132241 0.17695
C_ C_ 0.626252 0.288781 0.0775795 -0.11473
C_ C_ 0.912782 0.242196 0.0890341 -0.11473
C_ C_ 0.633013 0.251879 0.0569693 0.23465
C_ C_ 0.888007 0.25285 0.0627019 0.23465
C_ C_ 0.64169 0.216659 0.0814972 -0.11473
C_ C_ 0.859604 0.256774 0.0806188 -0.11473
C_ C_ 0.528054 0.499518 0.257849 0.05793
C_ C_ 0.783289 0.49514 0.240462 0.05793
C_ C_ 0.71726 0.999952 0.240576 0.05793
C_ C_ 0.969404 0.998337 0.262496 0.05793
Br Br 0.57127 0.49954 0.279733 -0.17191
Br Br 0.821128 0.493571 0.213755 -0.17191
Br Br 0.675581 0.00212682 0.241942 -0.17191
Br Br 0.925776 9.37809e-05 0.267169 -0.17191
N_ N_ 0.625213 0.24679 0.353566 -0.272
N_ N_ 0.876668 0.248444 0.362025 -0.272
N_ N_ 0.616704 0.2424 0.487125 -0.12501
N_ N_ 0.862339 0.24871 0.493127 -0.12501
N_ N_ 0.625379 0.250622 0.144012 -0.272
N_ N_ 0.8809 0.244906 0.148098 -0.272
N_ N_ 0.631754 0.24769 0.0123516 -0.12501
N_ N_ 0.893237 0.251306 0.0189779 -0.12501
O_ O_ 0.589722 0.292575 0.211649 -0.60745
O_ O_ 0.846386 0.288795 0.22156 -0.60745
O_ O_ 0.592047 0.292549 0.280667 -0.60745
O_ O_ 0.842378 0.290039 0.290411 -0.60745
O_ O_ 0.657642 0.285078 0.282108 -0.60745
O_ O_ 0.905126 0.298847 0.289717 -0.60745
O_ O_ 0.647089 0.297892 0.216335 -0.60745
O_ O_ 0.905767 0.292421 0.221775 -0.60745
O_ O_ 0.648603 0.194704 0.289064 -0.60745
O_ O_ 0.907087 0.205963 0.288116 -0.60745
O_ O_ 0.651882 0.204986 0.22256 -0.60745
O_ O_ 0.907155 0.201296 0.219949 -0.60745
O_ O_ 0.590771 0.204843 0.218693 -0.60745
O_ O_ 0.845901 0.202772 0.217301 -0.60745
O_ O_ 0.585496 0.205442 0.287468 -0.60745
O_ O_ 0.846941 0.200921 0.285888 -0.60745
Zn Zn 0.62782 0.249867 0.782429 0.9476
Zn Zn 0.873918 0.254911 0.792342 0.9476
Zn Zn 0.626048 0.254353 0.714136 0.9476
Zn Zn 0.869897 0.249721 0.723717 0.9476
H_ H_ 0.518351 0.397869 0.676404 0.10932
H_ H_ 0.78204 0.419879 0.682543 0.10932
H_ H_ 0.57702 0.366743 0.805978 0.10932
H_ H_ 0.813133 0.357731 0.81981 0.10932
H_ H_ 0.549441 0.335413 0.680043 0.10932
H_ H_ 0.813678 0.356824 0.686897 0.10932
H_ H_ 0.542203 0.427969 0.801552 0.10932
H_ H_ 0.780952 0.41961 0.821587 0.10932
H_ H_ 0.697069 0.434303 0.816606 0.10932
H_ H_ 0.976892 0.40558 0.817875 0.10932
H_ H_ 0.695409 0.349511 0.687564 0.10932
H_ H_ 0.915483 0.372671 0.690969 0.10932
H_ H_ 0.668632 0.36893 0.812414 0.10932
H_ H_ 0.953296 0.338345 0.815735 0.10932
H_ H_ 0.725267 0.416059 0.691762 0.10932
H_ H_ 0.950631 0.430795 0.692316 0.10932
H_ H_ 0.712086 0.0769702 0.819602 0.10932
H_ H_ 0.968421 0.0900286 0.825045 0.10932
H_ H_ 0.699383 0.1614 0.687038 0.10932
H_ H_ 0.939424 0.152238 0.686845 0.10932
H_ H_ 0.687612 0.144871 0.820673 0.10932
H_ H_ 0.939106 0.158227 0.821011 0.10932
H_ H_ 0.72677 0.0936319 0.687901 0.10932
H_ H_ 0.963688 0.0866722 0.689021 0.10932
H_ H_ 0.519267 0.104108 0.672371 0.10932
H_ H_ 0.798466 0.0641959 0.704393 0.10932
H_ H_ 0.574342 0.134493 0.805539 0.10932
H_ H_ 0.803488 0.157859 0.826281 0.10932
H_ H_ 0.550492 0.161298 0.676478 0.10932
H_ H_ 0.827435 0.129878 0.699431 0.10932
H_ H_ 0.543859 0.0766349 0.802329 0.10932
H_ H_ 0.772903 0.0937302 0.829432 0.10932
H_ H_ 0.618597 0.319007 0.851046 0.10932
H_ H_ 0.843462 0.300375 0.872673 0.10932
H_ H_ 0.630719 0.191426 0.865861 0.10932
H_ H_ 0.902143 0.199015 0.863234 0.10932
H_ H_ 0.631152 0.198711 0.946904 0.10932
H_ H_ 0.911137 0.202471 0.938501 0.10932
H_ H_ 0.615397 0.327684 0.925031 0.10932
H_ H_ 0.845079 0.295329 0.947969 0.10932
H_ H_ 0.618877 0.193625 0.637554 0.10932
H_ H_ 0.918782 0.253055 0.658929 0.10932
H_ H_ 0.633186 0.324472 0.642072 0.10932
H_ H_ 0.823691 0.24696 0.638399 0.10932
H_ H_ 0.630966 0.327272 0.567865 0.10932
H_ H_ 0.830653 0.241577 0.558319 0.10932
H_ H_ 0.625338 0.195024 0.561983 0.10932
H_ H_ 0.924809 0.243784 0.583403 0.10932
C_ C_ 0.566166 0.346619 0.742747 -0.02249
C_ C_ 0.811287 0.350286 0.753092 -0.02249
C_ C_ 0.514858 0.46301 0.736012 -0.02249
C_ C_ 0.764108 0.467087 0.753015 -0.02249
C_ C_ 0.533734 0.39425 0.702673 -0.11473
C_ C_ 0.786748 0.406427 0.713489 -0.11473
C_ C_ 0.566307 0.375866 0.776266 -0.11473
C_ C_ 0.803436 0.369438 0.790471 -0.11473
C_ C_ 0.549811 0.357285 0.706485 -0.11473
C_ C_ 0.803457 0.368402 0.714477 -0.11473
C_ C_ 0.532665 0.423207 0.73739 -0.02249
C_ C_ 0.778791 0.426284 0.751925 -0.02249
C_ C_ 0.585687 0.309083 0.745147 0.6875
C_ C_ 0.830432 0.310643 0.756727 0.6875
C_ C_ 0.549859 0.413363 0.772131 -0.11473
C_ C_ 0.785547 0.405808 0.791344 -0.11473
C_ C_ 0.68438 0.350056 0.753841 -0.02249
C_ C_ 0.928252 0.353453 0.754759 -0.02249
C_ C_ 0.732966 0.468488 0.756507 -0.02249
C_ C_ 0.984718 0.463377 0.75532 -0.02249
C_ C_ 0.697381 0.416215 0.789385 -0.11473
C_ C_ 0.963615 0.398615 0.789982 -0.11473
C_ C_ 0.696789 0.367094 0.717112 -0.11473
C_ C_ 0.927713 0.381928 0.720182 -0.11473
C_ C_ 0.683678 0.376438 0.790123 -0.11473
C_ C_ 0.948991 0.35912 0.789161 -0.11473
C_ C_ 0.715841 0.427449 0.756318 -0.02249
C_ C_ 0.967754 0.423243 0.75324 -0.02249
C_ C_ 0.668534 0.310552 0.75021 0.6875
C_ C_ 0.906456 0.319009 0.755093 0.6875
C_ C_ 0.713983 0.404721 0.718938 -0.11473
C_ C_ 0.950332 0.411817 0.718866 -0.11473
C_ C_ 0.688116 0.156906 0.754267 -0.02249
C_ C_ 0.933693 0.156827 0.754766 -0.02249
C_ C_ 0.737142 0.0403417 0.74987 -0.02249
C_ C_ 0.983098 0.0418578 0.75574 -0.02249
C_ C_ 0.707164 0.0936138 0.788775 -0.11473
C_ C_ 0.9618 0.103356 0.79488 -0.11473
C_ C_ 0.700343 0.141571 0.717011 -0.11473
C_ C_ 0.944816 0.138178 0.717676 -0.11473
C_ C_ 0.693535 0.132733 0.790789 -0.11473
C_ C_ 0.945771 0.142645 0.792887 -0.11473
C_ C_ 0.719708 0.0793665 0.752654 -0.02249
C_ C_ 0.965893 0.0819165 0.756085 -0.02249
C_ C_ 0.66809 0.195374 0.754718 0.6875
C_ C_ 0.912919 0.193482 0.752649 0.6875
C_ C_ 0.714622 0.102939 0.715148 -0.11473
C_ C_ 0.95853 0.101662 0.718674 -0.11473
C_ C_ 0.56406 0.157101 0.743167 -0.02249
C_ C_ 0.818281 0.150039 0.761061 -0.02249
C_ C_ 0.511282 0.0403012 0.737909 -0.02249
C_ C_ 0.766035 0.0380664 0.769508 -0.02249
C_ C_ 0.532042 0.108306 0.703713 -0.11473
C_ C_ 0.80023 0.0854912 0.731541 -0.11473
C_ C_ 0.560374 0.13159 0.77822 -0.11473
C_ C_ 0.80216 0.139252 0.7972 -0.11473
C_ C_ 0.549188 0.144177 0.705459 -0.11473
C_ C_ 0.817795 0.121923 0.727189 -0.11473
C_ C_ 0.52818 0.0826064 0.738428 -0.02249
C_ C_ 0.784945 0.075475 0.768824 -0.02249
C_ C_ 0.585218 0.193501 0.746902 0.6875
C_ C_ 0.836474 0.187151 0.760573 0.6875
C_ C_ 0.542954 0.0959192 0.774611 -0.11473
C_ C_ 0.784348 0.102935 0.801779 -0.11473
C_ C_ 0.620674 0.292442 0.871005 0.17695
C_ C_ 0.860092 0.280852 0.886201 0.17695
C_ C_ 0.626893 0.220832 0.880882 0.17695
C_ C_ 0.891963 0.223969 0.88169 0.17695
C_ C_ 0.628885 0.225494 0.925183 -0.11473
C_ C_ 0.895067 0.221872 0.924792 -0.11473
C_ C_ 0.621139 0.265113 0.941959 0.23465
C_ C_ 0.877486 0.246319 0.949549 0.23465
C_ C_ 0.615533 0.296931 0.914038 -0.11473
C_ C_ 0.861925 0.279362 0.929853 -0.11473
C_ C_ 0.621131 0.222837 0.62259 0.17695
C_ C_ 0.897825 0.250571 0.6383 0.17695
C_ C_ 0.625831 0.296986 0.625608 0.17695
C_ C_ 0.845236 0.251504 0.624922 0.17695
C_ C_ 0.62785 0.298065 0.582409 -0.11473
C_ C_ 0.849507 0.250247 0.580068 -0.11473
C_ C_ 0.625948 0.261783 0.557643 0.23465
C_ C_ 0.877819 0.249409 0.565025 0.23465
C_ C_ 0.621994 0.224282 0.577766 -0.11473
C_ C_ 0.902617 0.246133 0.593875 -0.11473
C_ C_ 0.530658 0.501024 0.732768 0.05793
C_ C_ 0.780114 0.503799 0.750817 0.05793
C_ C_ 0.723189 0.00398235 0.736326 0.05793
C_ C_ 0.966784 0.00471672 0.757344 0.05793
Br Br 0.569334 0.49584 0.70544 -0.17191
Br Br 0.825918 0.503717 0.747968 -0.17191
Br Br 0.682 0.00653903 0.712578 -0.17191
Br Br 0.9229 0.0048614 0.758044 -0.17191
N_ N_ 0.623811 0.253627 0.853855 -0.272
N_ N_ 0.877096 0.254971 0.862462 -0.272
N_ N_ 0.623493 0.274296 0.98674 -0.12501
N_ N_ 0.873224 0.238218 0.994242 -0.12501
N_ N_ 0.625654 0.258409 0.646154 -0.272
N_ N_ 0.868676 0.253131 0.652935 -0.272
N_ N_ 0.629357 0.266141 0.513636 -0.12501
N_ N_ 0.882778 0.250104 0.521271 -0.12501
O_ O_ 0.596882 0.297942 0.71109 -0.60745
O_ O_ 0.835325 0.291083 0.724724 -0.60745
O_ O_ 0.592946 0.291944 0.779027 -0.60745
O_ O_ 0.841588 0.300406 0.791809 -0.60745
O_ O_ 0.65608 0.295707 0.782614 -0.60745
O_ O_ 0.9028 0.299112 0.789108 -0.60745
O_ O_ 0.660535 0.297506 0.713915 -0.60745
O_ O_ 0.896355 0.302679 0.721967 -0.60745
O_ O_ 0.662338 0.211962 0.789168 -0.60745
O_ O_ 0.905235 0.212294 0.786542 -0.60745
O_ O_ 0.654387 0.20494 0.721435 -0.60745
O_ O_ 0.903273 0.206396 0.717589 -0.60745
O_ O_ 0.593379 0.212163 0.714987 -0.60745
O_ O_ 0.841999 0.201912 0.725623 -0.60745
O_ O_ 0.599255 0.201045 0.780714 -0.60745
O_ O_ 0.845497 0.204772 0.795181 -0.60745
Zn Zn 0.627689 0.744934 0.279436 0.9476
Zn Zn 0.869796 0.748278 0.284087 0.9476
Zn Zn 0.625102 0.74217 0.2139 0.9476
Zn Zn 0.873388 0.750572 0.215884 0.9476
H_ H_ 0.539144 0.912777 0.180821 0.10932
H_ H_ 0.791762 0.919463 0.179143 0.10932
H_ H_ 0.571701 0.850635 0.314488 0.10932
H_ H_ 0.801137 0.848529 0.313099 0.10932
H_ H_ 0.563679 0.845465 0.178487 0.10932
H_ H_ 0.830368 0.864499 0.191018 0.10932
H_ H_ 0.536968 0.910824 0.314169 0.10932
H_ H_ 0.781367 0.922196 0.311191 0.10932
H_ H_ 0.721103 0.913459 0.315578 0.10932
H_ H_ 0.964106 0.918177 0.322291 0.10932
H_ H_ 0.675542 0.858782 0.180626 0.10932
H_ H_ 0.942363 0.847816 0.185363 0.10932
H_ H_ 0.693166 0.849093 0.314693 0.10932
H_ H_ 0.937402 0.848277 0.320817 0.10932
H_ H_ 0.699534 0.9261 0.180658 0.10932
H_ H_ 0.971567 0.913513 0.188376 0.10932
H_ H_ 0.738333 0.59718 0.307922 0.10932
H_ H_ 0.964606 0.583106 0.316108 0.10932
H_ H_ 0.676673 0.632108 0.183288 0.10932
H_ H_ 0.941526 0.645066 0.179986 0.10932
H_ H_ 0.711917 0.661858 0.306962 0.10932
H_ H_ 0.940196 0.652701 0.31177 0.10932
H_ H_ 0.703246 0.56644 0.18491 0.10932
H_ H_ 0.969384 0.580946 0.183081 0.10932
H_ H_ 0.556828 0.559377 0.19362 0.10932
H_ H_ 0.779541 0.590855 0.178533 0.10932
H_ H_ 0.5404 0.667378 0.301261 0.10932
H_ H_ 0.826688 0.634479 0.314137 0.10932
H_ H_ 0.589802 0.619136 0.195524 0.10932
H_ H_ 0.800368 0.653609 0.184354 0.10932
H_ H_ 0.504739 0.606468 0.295961 0.10932
H_ H_ 0.802779 0.567985 0.308232 0.10932
H_ H_ 0.623921 0.672381 0.357026 0.10932
H_ H_ 0.831164 0.722379 0.366455 0.10932
H_ H_ 0.626164 0.8017 0.351907 0.10932
H_ H_ 0.919097 0.778156 0.353896 0.10932
H_ H_ 0.630289 0.805078 0.430195 0.10932
H_ H_ 0.919729 0.793663 0.434122 0.10932
H_ H_ 0.627491 0.671994 0.434753 0.10932
H_ H_ 0.839518 0.725875 0.443482 0.10932
H_ H_ 0.664992 0.766878 0.144659 0.10932
H_ H_ 0.871358 0.690951 0.143515 0.10932
H_ H_ 0.579682 0.708708 0.131109 0.10932
H_ H_ 0.878925 0.820015 0.150914 0.10932
H_ H_ 0.587662 0.702346 0.05594 0.10932
H_ H_ 0.896666 0.823815 0.0786213 0.10932
H_ H_ 0.669491 0.773719 0.068353 0.10932
H_ H_ 0.877346 0.693792 0.0662726 0.10932
C_ C_ 0.568569 0.840787 0.248648 -0.02249
C_ C_ 0.816647 0.850055 0.25238 -0.02249
C_ C_ 0.520233 0.955864 0.248281 -0.02249
C_ C_ 0.763427 0.962049 0.244713 -0.02249
C_ C_ 0.544616 0.898781 0.210509 -0.11473
C_ C_ 0.793978 0.905804 0.209419 -0.11473
C_ C_ 0.561176 0.861047 0.286176 -0.11473
C_ C_ 0.801392 0.867294 0.285644 -0.11473
C_ C_ 0.558534 0.860036 0.209683 -0.11473
C_ C_ 0.814676 0.872153 0.214885 -0.11473
C_ C_ 0.537841 0.91821 0.248415 -0.02249
C_ C_ 0.779069 0.921562 0.243426 -0.02249
C_ C_ 0.587104 0.802047 0.250675 0.6875
C_ C_ 0.834621 0.810494 0.2555 0.6875
C_ C_ 0.546688 0.900096 0.287114 -0.11473
C_ C_ 0.787148 0.9052 0.283132 -0.11473
C_ C_ 0.680194 0.848098 0.248145 -0.02249
C_ C_ 0.935179 0.843448 0.253546 -0.02249
C_ C_ 0.731472 0.961898 0.247582 -0.02249
C_ C_ 0.985044 0.960401 0.258082 -0.02249
C_ C_ 0.710484 0.901856 0.285964 -0.11473
C_ C_ 0.957497 0.903352 0.292807 -0.11473
C_ C_ 0.682752 0.8708 0.211754 -0.11473
C_ C_ 0.945057 0.862672 0.215985 -0.11473
C_ C_ 0.69544 0.86448 0.285827 -0.11473
C_ C_ 0.943055 0.862894 0.292297 -0.11473
C_ C_ 0.713552 0.923612 0.247831 -0.02249
C_ C_ 0.967555 0.920174 0.256318 -0.02249
C_ C_ 0.662157 0.808617 0.250001 0.6875
C_ C_ 0.91595 0.803913 0.251266 0.6875
C_ C_ 0.697091 0.909676 0.2119 -0.11473
C_ C_ 0.962762 0.898232 0.218556 -0.11473
C_ C_ 0.68922 0.651593 0.246906 -0.02249
C_ C_ 0.934307 0.65133 0.245013 -0.02249
C_ C_ 0.736475 0.535497 0.248835 -0.02249
C_ C_ 0.987083 0.53853 0.253038 -0.02249
C_ C_ 0.722576 0.602192 0.282504 -0.11473
C_ C_ 0.960258 0.596005 0.287327 -0.11473
C_ C_ 0.68859 0.624769 0.211006 -0.11473
C_ C_ 0.942735 0.628238 0.209002 -0.11473
C_ C_ 0.705583 0.638389 0.281288 -0.11473
C_ C_ 0.943774 0.634449 0.284808 -0.11473
C_ C_ 0.720448 0.575085 0.246796 -0.02249
C_ C_ 0.969018 0.575219 0.250471 -0.02249
C_ C_ 0.668515 0.687632 0.248959 0.6875
C_ C_ 0.911274 0.686524 0.244741 0.6875
C_ C_ 0.701749 0.584852 0.213146 -0.11473
C_ C_ 0.96412 0.595922 0.212142 -0.11473
C_ C_ 0.566939 0.646478 0.248732 -0.02249
C_ C_ 0.81632 0.651695 0.24857 -0.02249
C_ C_ 0.511647 0.537036 0.24985 -0.02249
C_ C_ 0.769321 0.533424 0.247565 -0.02249
C_ C_ 0.552227 0.580644 0.216729 -0.11473
C_ C_ 0.790605 0.595774 0.208893 -0.11473
C_ C_ 0.541947 0.645583 0.275482 -0.11473
C_ C_ 0.8172 0.625339 0.284794 -0.11473
C_ C_ 0.57204 0.615146 0.219057 -0.11473
C_ C_ 0.802826 0.635045 0.212335 -0.11473
C_ C_ 0.529461 0.577013 0.246392 -0.02249
C_ C_ 0.787919 0.572816 0.2453 -0.02249
C_ C_ 0.586256 0.685486 0.24587 0.6875
C_ C_ 0.830723 0.693595 0.247282 0.6875
C_ C_ 0.523111 0.611047 0.273301 -0.11473
C_ C_ 0.803682 0.586642 0.281295 -0.11473
C_ C_ 0.624813 0.702159 0.373526 0.17695
C_ C_ 0.851492 0.737859 0.38068 0.17695
C_ C_ 0.628955 0.77398 0.36962 0.17695
C_ C_ 0.899429 0.770086 0.373521 0.17695
C_ C_ 0.629269 0.776473 0.413575 -0.11473
C_ C_ 0.901837 0.775907 0.418837 -0.11473
C_ C_ 0.628811 0.739855 0.438194 0.23465
C_ C_ 0.878887 0.759769 0.444394 0.23465
C_ C_ 0.626769 0.701651 0.418389 -0.11473
C_ C_ 0.856214 0.737279 0.423932 -0.11473
C_ C_ 0.646339 0.759016 0.126252 0.17695
C_ C_ 0.874353 0.72007 0.127123 0.17695
C_ C_ 0.600656 0.721239 0.118281 0.17695
C_ C_ 0.873453 0.793937 0.130842 0.17695
C_ C_ 0.602567 0.722652 0.0732149 -0.11473
C_ C_ 0.881569 0.797775 0.0882826 -0.11473
C_ C_ 0.627113 0.743588 0.0543356 0.23465
C_ C_ 0.881035 0.763017 0.0634412 0.23465
C_ C_ 0.648835 0.76063 0.0819928 -0.11473
C_ C_ 0.876957 0.721874 0.0823313 -0.11473
C_ C_ 0.534417 0.993692 0.243263 0.05793
C_ C_ 0.780006 0.999462 0.243474 0.05793
C_ C_ 0.720874 0.496462 0.253749 0.05793
C_ C_ 0.97248 0.500914 0.258292 0.05793
Br Br 0.578231 0.994102 0.237044 -0.17191
Br Br 0.822178 0.998766 0.249823 -0.17191
Br Br 0.676228 0.498556 0.254913 -0.17191
Br Br 0.930683 0.50259 0.266969 -0.17191
N_ N_ 0.62743 0.736948 0.351142 -0.272
N_ N_ 0.874063 0.752853 0.355171 -0.272
N_ N_ 0.634587 0.740912 0.482784 -0.12501
N_ N_ 0.881561 0.762893 0.488201 -0.12501
N_ N_ 0.621133 0.74218 0.143325 -0.272
N_ N_ 0.869897 0.756277 0.147582 -0.272
N_ N_ 0.631393 0.746744 0.00923171 -0.12501
N_ N_ 0.883906 0.769093 0.0186298 -0.12501
O_ O_ 0.590609 0.780864 0.216136 -0.60745
O_ O_ 0.843943 0.792938 0.223401 -0.60745
O_ O_ 0.600624 0.789504 0.283211 -0.60745
O_ O_ 0.839675 0.793139 0.289642 -0.60745
O_ O_ 0.660592 0.787659 0.283978 -0.60745
O_ O_ 0.903252 0.789433 0.283281 -0.60745
O_ O_ 0.649286 0.795059 0.217239 -0.60745
O_ O_ 0.905873 0.791998 0.215698 -0.60745
O_ O_ 0.656474 0.697207 0.282847 -0.60745
O_ O_ 0.903226 0.70305 0.279343 -0.60745
O_ O_ 0.66235 0.70881 0.215677 -0.60745
O_ O_ 0.902819 0.702026 0.210076 -0.60745
O_ O_ 0.598417 0.693602 0.212177 -0.60745
O_ O_ 0.845664 0.704042 0.213391 -0.60745
O_ O_ 0.595239 0.702355 0.278156 -0.60745
O_ O_ 0.841116 0.706717 0.282021 -0.60745
Zn Zn 0.625803 0.752948 0.777048 0.9476
Zn Zn 0.877298 0.751422 0.791206 0.9476
Zn Zn 0.625939 0.754242 0.71008 0.9476
Zn Zn 0.87348 0.753067 0.720137 0.9476
H_ H_ 0.533783 0.922287 0.673349 0.10932
H_ H_ 0.790551 0.926226 0.692186 0.10932
H_ H_ 0.573982 0.8642 0.806554 0.10932
H_ H_ 0.817224 0.85384 0.824383 0.10932
H_ H_ 0.559472 0.852811 0.673689 0.10932
H_ H_ 0.826808 0.865232 0.691951 0.10932
H_ H_ 0.544806 0.927797 0.805469 0.10932
H_ H_ 0.780045 0.910808 0.822055 0.10932
H_ H_ 0.711003 0.927243 0.806648 0.10932
H_ H_ 0.95978 0.924119 0.820079 0.10932
H_ H_ 0.697455 0.844689 0.678619 0.10932
H_ H_ 0.938418 0.849764 0.68397 0.10932
H_ H_ 0.67763 0.869304 0.806534 0.10932
H_ H_ 0.940427 0.85193 0.818495 0.10932
H_ H_ 0.729304 0.907357 0.675254 0.10932
H_ H_ 0.958236 0.922595 0.683758 0.10932
H_ H_ 0.726996 0.602384 0.817662 0.10932
H_ H_ 0.964694 0.584221 0.822008 0.10932
H_ H_ 0.673136 0.638302 0.686527 0.10932
H_ H_ 0.938255 0.650279 0.685693 0.10932
H_ H_ 0.702999 0.674259 0.807108 0.10932
H_ H_ 0.929458 0.643389 0.819779 0.10932
H_ H_ 0.707013 0.578348 0.686716 0.10932
H_ H_ 0.967696 0.584492 0.688496 0.10932
H_ H_ 0.538791 0.58582 0.670461 0.10932
H_ H_ 0.780105 0.593278 0.689112 0.10932
H_ H_ 0.579851 0.635059 0.805839 0.10932
H_ H_ 0.807623 0.655495 0.82101 0.10932
H_ H_ 0.556615 0.659519 0.675141 0.10932
H_ H_ 0.809751 0.653683 0.686785 0.10932
H_ H_ 0.546121 0.570721 0.799276 0.10932
H_ H_ 0.789558 0.58417 0.822751 0.10932
H_ H_ 0.578045 0.730025 0.843611 0.10932
H_ H_ 0.878805 0.686003 0.862653 0.10932
H_ H_ 0.665197 0.779674 0.862798 0.10932
H_ H_ 0.866797 0.814684 0.869777 0.10932
H_ H_ 0.658533 0.776493 0.941598 0.10932
H_ H_ 0.875751 0.808628 0.94759 0.10932
H_ H_ 0.570875 0.721991 0.920636 0.10932
H_ H_ 0.880577 0.679255 0.936037 0.10932
H_ H_ 0.639491 0.696992 0.63483 0.10932
H_ H_ 0.901463 0.804567 0.637601 0.10932
H_ H_ 0.628126 0.823757 0.637541 0.10932
H_ H_ 0.856379 0.690712 0.646757 0.10932
H_ H_ 0.616021 0.828235 0.560897 0.10932
H_ H_ 0.840991 0.691483 0.569647 0.10932
H_ H_ 0.636747 0.697267 0.557271 0.10932
H_ H_ 0.895789 0.802695 0.559408 0.10932
C_ C_ 0.569789 0.853118 0.739344 -0.02249
C_ C_ 0.825556 0.855395 0.757982 -0.02249
C_ C_ 0.516141 0.964474 0.741188 -0.02249
C_ C_ 0.768971 0.964006 0.76053 -0.02249
C_ C_ 0.538698 0.905131 0.702291 -0.11473
C_ C_ 0.801869 0.91449 0.720462 -0.11473
C_ C_ 0.564159 0.873935 0.776069 -0.11473
C_ C_ 0.812143 0.868093 0.794795 -0.11473
C_ C_ 0.556213 0.868667 0.702036 -0.11473
C_ C_ 0.820653 0.878868 0.72117 -0.11473
C_ C_ 0.534191 0.925956 0.740341 -0.02249
C_ C_ 0.788322 0.925394 0.758009 -0.02249
C_ C_ 0.588375 0.815735 0.740595 0.6875
C_ C_ 0.838148 0.8129 0.753691 0.6875
C_ C_ 0.547562 0.911147 0.776961 -0.11473
C_ C_ 0.791392 0.899807 0.794243 -0.11473
C_ C_ 0.687493 0.849593 0.742882 -0.02249
C_ C_ 0.933248 0.850032 0.752894 -0.02249
C_ C_ 0.739182 0.964964 0.742824 -0.02249
C_ C_ 0.980919 0.966919 0.750395 -0.02249
C_ C_ 0.709097 0.910238 0.778952 -0.11473
C_ C_ 0.956059 0.907619 0.790428 -0.11473
C_ C_ 0.701748 0.862551 0.706286 -0.11473
C_ C_ 0.943677 0.865076 0.715099 -0.11473
C_ C_ 0.690797 0.87552 0.779053 -0.11473
C_ C_ 0.94082 0.870661 0.789652 -0.11473
C_ C_ 0.722476 0.924501 0.741772 -0.02249
C_ C_ 0.964552 0.927173 0.75236 -0.02249
C_ C_ 0.666296 0.814575 0.744535 0.6875
C_ C_ 0.91647 0.810056 0.753002 0.6875
C_ C_ 0.718486 0.901151 0.703913 -0.11473
C_ C_ 0.95512 0.906955 0.714247 -0.11473
C_ C_ 0.684055 0.659041 0.748469 -0.02249
C_ C_ 0.932468 0.651326 0.753669 -0.02249
C_ C_ 0.732705 0.544444 0.757725 -0.02249
C_ C_ 0.983751 0.538038 0.755248 -0.02249
C_ C_ 0.713331 0.608817 0.790707 -0.11473
C_ C_ 0.955789 0.59455 0.79238 -0.11473
C_ C_ 0.688428 0.634177 0.712616 -0.11473
C_ C_ 0.943021 0.635578 0.716196 -0.11473
C_ C_ 0.699859 0.649265 0.785769 -0.11473
C_ C_ 0.937128 0.629443 0.79063 -0.11473
C_ C_ 0.715556 0.583197 0.754523 -0.02249
C_ C_ 0.966098 0.57784 0.755404 -0.02249
C_ C_ 0.663486 0.695214 0.74666 0.6875
C_ C_ 0.912856 0.690275 0.754943 0.6875
C_ C_ 0.70542 0.597358 0.714678 -0.11473
C_ C_ 0.959321 0.597879 0.717092 -0.11473
C_ C_ 0.571314 0.650433 0.740357 -0.02249
C_ C_ 0.816534 0.656228 0.753871 -0.02249
C_ C_ 0.516398 0.541737 0.731382 -0.02249
C_ C_ 0.764911 0.543425 0.753889 -0.02249
C_ C_ 0.542911 0.599814 0.699493 -0.11473
C_ C_ 0.789911 0.602633 0.717472 -0.11473
C_ C_ 0.566947 0.628678 0.776467 -0.11473
C_ C_ 0.807766 0.637608 0.792238 -0.11473
C_ C_ 0.558273 0.636803 0.702015 -0.11473
C_ C_ 0.805989 0.639108 0.717232 -0.11473
C_ C_ 0.536063 0.578388 0.734805 -0.02249
C_ C_ 0.781939 0.582744 0.755091 -0.02249
C_ C_ 0.590921 0.688706 0.740736 0.6875
C_ C_ 0.83489 0.694195 0.753354 0.6875
C_ C_ 0.547392 0.592942 0.773134 -0.11473
C_ C_ 0.792883 0.601534 0.792845 -0.11473
C_ C_ 0.596825 0.735059 0.864746 0.17695
C_ C_ 0.880567 0.713193 0.879903 0.17695
C_ C_ 0.644769 0.765897 0.874807 0.17695
C_ C_ 0.87664 0.784824 0.883794 0.17695
C_ C_ 0.640797 0.766782 0.918887 -0.11473
C_ C_ 0.879454 0.782742 0.927142 -0.11473
C_ C_ 0.614322 0.748891 0.937449 0.23465
C_ C_ 0.884303 0.744451 0.947649 0.23465
C_ C_ 0.591612 0.734347 0.908847 -0.11473
C_ C_ 0.884648 0.709514 0.922862 -0.11473
C_ C_ 0.633554 0.724496 0.617634 0.17695
C_ C_ 0.886604 0.781755 0.622291 0.17695
C_ C_ 0.621878 0.795072 0.61991 0.17695
C_ C_ 0.861644 0.717307 0.627563 0.17695
C_ C_ 0.62059 0.797658 0.575673 -0.11473
C_ C_ 0.85635 0.715811 0.583756 -0.11473
C_ C_ 0.62476 0.761186 0.551667 0.23465
C_ C_ 0.870321 0.74346 0.557362 0.23465
C_ C_ 0.632152 0.724303 0.573386 -0.11473
C_ C_ 0.88363 0.779021 0.577757 -0.11473
C_ C_ 0.52888 0.00429063 0.73447 0.05793
C_ C_ 0.781142 0.00136541 0.777214 0.05793
C_ C_ 0.717254 0.506951 0.762819 0.05793
C_ C_ 0.968713 0.501474 0.758694 0.05793
Br Br 0.57058 0.00831571 0.721181 -0.17191
Br Br 0.820578 0.997786 0.805605 -0.17191
Br Br 0.673799 0.506492 0.767574 -0.17191
Br Br 0.924047 0.499857 0.758025 -0.17191
N_ N_ 0.623837 0.747889 0.849129 -0.272
N_ N_ 0.880206 0.749246 0.859715 -0.272
N_ N_ 0.609417 0.751858 0.983649 -0.12501
N_ N_ 0.880145 0.739882 0.993252 -0.12501
N_ N_ 0.625439 0.757852 0.640299 -0.272
N_ N_ 0.873792 0.752082 0.647205 -0.272
N_ N_ 0.619373 0.761998 0.508251 -0.12501
N_ N_ 0.867931 0.738056 0.512172 -0.12501
O_ O_ 0.595974 0.800154 0.706088 -0.60745
O_ O_ 0.848013 0.801155 0.717222 -0.60745
O_ O_ 0.592634 0.795905 0.775555 -0.60745
O_ O_ 0.846281 0.795678 0.788248 -0.60745
O_ O_ 0.653852 0.803945 0.778097 -0.60745
O_ O_ 0.907545 0.796103 0.788538 -0.60745
O_ O_ 0.656748 0.800239 0.710685 -0.60745
O_ O_ 0.908627 0.791157 0.719575 -0.60745
O_ O_ 0.659089 0.717526 0.778672 -0.60745
O_ O_ 0.909447 0.710396 0.788316 -0.60745
O_ O_ 0.656737 0.709385 0.71064 -0.60745
O_ O_ 0.900174 0.70185 0.721267 -0.60745
O_ O_ 0.59704 0.706514 0.706803 -0.60745
O_ O_ 0.838124 0.715578 0.720194 -0.60745
O_ O_ 0.596527 0.70693 0.774379 -0.60745
O_ O_ 0.847433 0.706524 0.788057 -0.60745
