_cell_length_a 44.444
_cell_length_b 32.3360000049186
_cell_length_c 31.843999878906452
_cell_angle_alpha 89.99799923859553
_cell_angle_beta 91.13600050494348
_cell_angle_gamma 89.9990006550086
_symmetry_space_group_name_H-M         'P 1'
_symmetry_Int_Tables_number            1
loop_
_symmetry_equiv_pos_as_xyz
   'x, y, z'
                         
loop_
_atom_site_label
_atom_site_type_symbol
_atom_site_fract_x 
_atom_site_fract_y
_atom_site_fract_z
_atom_site_charge
Zn Zn 0.121019 0.256476 0.293132 0.9476
Zn Zn 0.377048 0.252183 0.279028 0.9476
Zn Zn 0.12255 0.255483 0.221377 0.9476
Zn Zn 0.373471 0.252755 0.211397 0.9476
H_ H_ 0.0275857 0.420098 0.186136 0.10932
H_ H_ 0.286017 0.42621 0.178936 0.10932
H_ H_ 0.0636204 0.365133 0.322788 0.10932
H_ H_ 0.299872 0.341801 0.307483 0.10932
H_ H_ 0.05222 0.34907 0.188542 0.10932
H_ H_ 0.317401 0.361256 0.175988 0.10932
H_ H_ 0.0358096 0.431147 0.320149 0.10932
H_ H_ 0.277554 0.409783 0.312293 0.10932
H_ H_ 0.217045 0.426456 0.31551 0.10932
H_ H_ 0.493817 0.395705 0.296949 0.10932
H_ H_ 0.184558 0.348851 0.187972 0.10932
H_ H_ 0.411807 0.378889 0.188381 0.10932
H_ H_ 0.176376 0.371881 0.319889 0.10932
H_ H_ 0.464694 0.333561 0.293412 0.10932
H_ H_ 0.217898 0.408604 0.18201 0.10932
H_ H_ 0.435951 0.449989 0.201433 0.10932
H_ H_ 0.204766 0.0804235 0.319549 0.10932
H_ H_ 0.465369 0.0811777 0.304429 0.10932
H_ H_ 0.188612 0.157377 0.189821 0.10932
H_ H_ 0.442016 0.154594 0.174309 0.10932
H_ H_ 0.169415 0.136485 0.315051 0.10932
H_ H_ 0.444178 0.154792 0.305746 0.10932
H_ H_ 0.222205 0.096712 0.187372 0.10932
H_ H_ 0.460486 0.0841852 0.171144 0.10932
H_ H_ 0.0226953 0.0922796 0.184623 0.10932
H_ H_ 0.291036 0.0743356 0.185257 0.10932
H_ H_ 0.0754257 0.136936 0.315023 0.10932
H_ H_ 0.305037 0.156906 0.314831 0.10932
H_ H_ 0.0491205 0.163298 0.187792 0.10932
H_ H_ 0.320882 0.140015 0.182792 0.10932
H_ H_ 0.0399246 0.076776 0.315702 0.10932
H_ H_ 0.274798 0.0937561 0.313675 0.10932
H_ H_ 0.128468 0.315351 0.372714 0.10932
H_ H_ 0.378422 0.314623 0.361673 0.10932
H_ H_ 0.1281 0.186139 0.357005 0.10932
H_ H_ 0.378203 0.183795 0.347663 0.10932
H_ H_ 0.126974 0.177103 0.434964 0.10932
H_ H_ 0.384923 0.178367 0.423335 0.10932
H_ H_ 0.133397 0.304509 0.454078 0.10932
H_ H_ 0.375865 0.307126 0.437729 0.10932
H_ H_ 0.127051 0.315508 0.14501 0.10932
H_ H_ 0.369156 0.316051 0.130487 0.10932
H_ H_ 0.121487 0.186907 0.15037 0.10932
H_ H_ 0.376569 0.186465 0.147071 0.10932
H_ H_ 0.124745 0.17787 0.0761159 0.10932
H_ H_ 0.378146 0.175531 0.0702745 0.10932
H_ H_ 0.131281 0.312021 0.0647353 0.10932
H_ H_ 0.370003 0.306806 0.0552661 0.10932
C_ C_ 0.0587599 0.351632 0.257281 -0.02249
C_ C_ 0.316596 0.348451 0.244772 -0.02249
C_ C_ 0.0103235 0.46735 0.254194 -0.02249
C_ C_ 0.264386 0.462423 0.245553 -0.02249
C_ C_ 0.0349034 0.407825 0.215731 -0.11473
C_ C_ 0.290437 0.406019 0.206979 -0.11473
C_ C_ 0.0543087 0.375039 0.293055 -0.11473
C_ C_ 0.302041 0.362326 0.280912 -0.11473
C_ C_ 0.0476771 0.367761 0.218436 -0.11473
C_ C_ 0.308419 0.368836 0.207035 -0.11473
C_ C_ 0.0258739 0.426788 0.254179 -0.02249
C_ C_ 0.280378 0.42157 0.245611 -0.02249
C_ C_ 0.079047 0.313874 0.257048 0.6875
C_ C_ 0.335034 0.310388 0.244242 0.6875
C_ C_ 0.0355833 0.410071 0.292981 -0.11473
C_ C_ 0.287712 0.399422 0.282713 -0.11473
C_ C_ 0.181523 0.352539 0.257125 -0.02249
C_ C_ 0.435232 0.349855 0.24097 -0.02249
C_ C_ 0.233256 0.463996 0.24536 -0.02249
C_ C_ 0.485014 0.466374 0.249374 -0.02249
C_ C_ 0.207542 0.408966 0.288386 -0.11473
C_ C_ 0.475976 0.392575 0.272443 -0.11473
C_ C_ 0.193392 0.363116 0.217593 -0.11473
C_ C_ 0.429525 0.382094 0.211086 -0.11473
C_ C_ 0.18991 0.374541 0.293511 -0.11473
C_ C_ 0.458091 0.357104 0.272529 -0.11473
C_ C_ 0.21619 0.424607 0.248747 -0.02249
C_ C_ 0.468504 0.425837 0.246816 -0.02249
C_ C_ 0.162221 0.314544 0.259357 0.6875
C_ C_ 0.416788 0.310463 0.241782 0.6875
C_ C_ 0.210842 0.399978 0.213304 -0.11473
C_ C_ 0.443639 0.421184 0.217182 -0.11473
C_ C_ 0.180118 0.156318 0.253874 -0.02249
C_ C_ 0.43418 0.156887 0.240999 -0.02249
C_ C_ 0.230994 0.0400499 0.254131 -0.02249
C_ C_ 0.480691 0.0384001 0.239064 -0.02249
C_ C_ 0.19896 0.0926865 0.288162 -0.11473
C_ C_ 0.458093 0.0965341 0.277114 -0.11473
C_ C_ 0.193353 0.141645 0.218292 -0.11473
C_ C_ 0.440083 0.135713 0.203356 -0.11473
C_ C_ 0.18208 0.12932 0.288004 -0.11473
C_ C_ 0.442494 0.136408 0.277793 -0.11473
C_ C_ 0.213551 0.0806114 0.25259 -0.02249
C_ C_ 0.464726 0.07789 0.238885 -0.02249
C_ C_ 0.159485 0.192944 0.254787 0.6875
C_ C_ 0.416795 0.197312 0.243564 0.6875
C_ C_ 0.210972 0.105398 0.216517 -0.11473
C_ C_ 0.454001 0.0955615 0.201203 -0.11473
C_ C_ 0.0619318 0.156499 0.252118 -0.02249
C_ C_ 0.315577 0.155816 0.247927 -0.02249
C_ C_ 0.0162587 0.0400926 0.245639 -0.02249
C_ C_ 0.26264 0.0399758 0.252386 -0.02249
C_ C_ 0.0315883 0.105373 0.213114 -0.11473
C_ C_ 0.294258 0.0931275 0.212616 -0.11473
C_ C_ 0.0586786 0.132377 0.28922 -0.11473
C_ C_ 0.303314 0.139873 0.285584 -0.11473
C_ C_ 0.048462 0.142577 0.214832 -0.11473
C_ C_ 0.312852 0.129136 0.212988 -0.11473
C_ C_ 0.0320585 0.0791651 0.247017 -0.02249
C_ C_ 0.280192 0.0803401 0.250203 -0.02249
C_ C_ 0.0806478 0.194344 0.251125 0.6875
C_ C_ 0.334414 0.193963 0.245807 0.6875
C_ C_ 0.0417907 0.0945194 0.28643 -0.11473
C_ C_ 0.284821 0.104648 0.286184 -0.11473
C_ C_ 0.129396 0.285446 0.387852 0.17695
C_ C_ 0.377749 0.282799 0.374081 0.17695
C_ C_ 0.12549 0.211845 0.379982 0.17695
C_ C_ 0.377769 0.212099 0.367274 0.17695
C_ C_ 0.125409 0.206648 0.423114 -0.11473
C_ C_ 0.37708 0.206971 0.409525 -0.11473
C_ C_ 0.124098 0.23983 0.45061 0.23465
C_ C_ 0.374689 0.240167 0.436941 0.23465
C_ C_ 0.128521 0.280578 0.432356 -0.11473
C_ C_ 0.377407 0.27964 0.41983 -0.11473
C_ C_ 0.126346 0.285586 0.126628 0.17695
C_ C_ 0.37216 0.285798 0.117568 0.17695
C_ C_ 0.126939 0.21368 0.132733 0.17695
C_ C_ 0.373673 0.2128 0.126451 0.17695
C_ C_ 0.127841 0.208753 0.0890901 -0.11473
C_ C_ 0.376455 0.207031 0.0821528 -0.11473
C_ C_ 0.130146 0.243694 0.0631701 0.23465
C_ C_ 0.376308 0.240679 0.0562028 0.23465
C_ C_ 0.131311 0.282108 0.0832875 -0.11473
C_ C_ 0.371436 0.280521 0.0737044 -0.11473
C_ C_ 0.0261831 0.505099 0.255328 0.05793
C_ C_ 0.281093 0.499557 0.245994 0.05793
C_ C_ 0.216921 0.00149011 0.248536 0.05793
C_ C_ 0.464745 0.99980863 0.239876 0.05793
Br Br 0.0698011 0.499826 0.263261 -0.17191
Br Br 0.323892 0.500452 0.258206 -0.17191
Br Br 0.173547 0.00016015 0.239538 -0.17191
Br Br 0.421575 1.00115 0.249202 -0.17191
N_ N_ 0.123387 0.251076 0.363462 -0.272
N_ N_ 0.377379 0.249323 0.348918 -0.272
N_ N_ 0.121519 0.231682 0.494548 -0.12501
N_ N_ 0.372347 0.233767 0.481181 -0.12501
N_ N_ 0.122818 0.250991 0.149994 -0.272
N_ N_ 0.372966 0.25176 0.14335 -0.272
N_ N_ 0.134601 0.237588 0.0172223 -0.12501
N_ N_ 0.375449 0.232794 0.0128139 -0.12501
O_ O_ 0.0908616 0.298351 0.22322 -0.60745
O_ O_ 0.339614 0.292703 0.208268 -0.60745
O_ O_ 0.0879177 0.301865 0.293042 -0.60745
O_ O_ 0.347376 0.296047 0.277258 -0.60745
O_ O_ 0.151451 0.301853 0.294766 -0.60745
O_ O_ 0.410596 0.295382 0.2782 -0.60745
O_ O_ 0.152978 0.299865 0.225683 -0.60745
O_ O_ 0.402226 0.297809 0.209747 -0.60745
O_ O_ 0.154243 0.210118 0.291026 -0.60745
O_ O_ 0.407477 0.207343 0.279012 -0.60745
O_ O_ 0.153461 0.211912 0.221146 -0.60745
O_ O_ 0.406394 0.215623 0.211399 -0.60745
O_ O_ 0.0903305 0.209671 0.21686 -0.60745
O_ O_ 0.3463 0.203274 0.210976 -0.60745
O_ O_ 0.0932267 0.206502 0.284753 -0.60745
O_ O_ 0.344257 0.212133 0.279129 -0.60745
Zn Zn 0.127258 0.248309 0.788752 0.9476
Zn Zn 0.372915 0.247063 0.781687 0.9476
Zn Zn 0.125935 0.250389 0.723315 0.9476
Zn Zn 0.375538 0.246655 0.714046 0.9476
H_ H_ 0.0172592 0.402883 0.699409 0.10932
H_ H_ 0.274084 0.407273 0.684278 0.10932
H_ H_ 0.0773822 0.35914 0.821829 0.10932
H_ H_ 0.322315 0.360048 0.815697 0.10932
H_ H_ 0.0556614 0.343533 0.691935 0.10932
H_ H_ 0.303502 0.33924 0.687206 0.10932
H_ H_ 0.0485133 0.423909 0.822537 0.10932
H_ H_ 0.285731 0.417565 0.816683 0.10932
H_ H_ 0.217455 0.412794 0.829347 0.10932
H_ H_ 0.460856 0.424099 0.810758 0.10932
H_ H_ 0.179819 0.364284 0.691739 0.10932
H_ H_ 0.449374 0.337101 0.680405 0.10932
H_ H_ 0.193702 0.342277 0.824472 0.10932
H_ H_ 0.428049 0.360417 0.812327 0.10932
H_ H_ 0.206065 0.430159 0.699816 0.10932
H_ H_ 0.481152 0.402079 0.683787 0.10932
H_ H_ 0.2056 0.0691488 0.817586 0.10932
H_ H_ 0.461639 0.0757466 0.818182 0.10932
H_ H_ 0.197399 0.157234 0.693916 0.10932
H_ H_ 0.434564 0.134075 0.680068 0.10932
H_ H_ 0.175618 0.130263 0.820801 0.10932
H_ H_ 0.430429 0.139105 0.815694 0.10932
H_ H_ 0.225662 0.094163 0.686756 0.10932
H_ H_ 0.468816 0.0760003 0.682816 0.10932
H_ H_ 0.0351519 0.079785 0.69009 0.10932
H_ H_ 0.295478 0.0712232 0.678744 0.10932
H_ H_ 0.0538284 0.154528 0.822737 0.10932
H_ H_ 0.307032 0.148052 0.812911 0.10932
H_ H_ 0.0749067 0.135676 0.691679 0.10932
H_ H_ 0.324494 0.13486 0.681167 0.10932
H_ H_ 0.027084 0.0906458 0.825514 0.10932
H_ H_ 0.274126 0.0854917 0.808644 0.10932
H_ H_ 0.13488 0.321055 0.856491 0.10932
H_ H_ 0.383289 0.313956 0.852085 0.10932
H_ H_ 0.12474 0.191859 0.867484 0.10932
H_ H_ 0.373279 0.184549 0.860524 0.10932
H_ H_ 0.124335 0.197977 0.947242 0.10932
H_ H_ 0.368411 0.192717 0.940931 0.10932
H_ H_ 0.135136 0.329107 0.933972 0.10932
H_ H_ 0.377446 0.319314 0.929178 0.10932
H_ H_ 0.104646 0.18821 0.645188 0.10932
H_ H_ 0.374613 0.188389 0.631971 0.10932
H_ H_ 0.135091 0.310343 0.652347 0.10932
H_ H_ 0.367056 0.316095 0.640964 0.10932
H_ H_ 0.126499 0.318079 0.572737 0.10932
H_ H_ 0.366413 0.325365 0.561889 0.10932
H_ H_ 0.0975308 0.192694 0.569589 0.10932
H_ H_ 0.375571 0.192666 0.556148 0.10932
C_ C_ 0.0668163 0.343988 0.756517 -0.02249
C_ C_ 0.312834 0.344349 0.752465 -0.02249
C_ C_ 0.0165471 0.459555 0.761626 -0.02249
C_ C_ 0.264912 0.461846 0.755487 -0.02249
C_ C_ 0.0322511 0.394683 0.723434 -0.11473
C_ C_ 0.285928 0.39998 0.713377 -0.11473
C_ C_ 0.0656053 0.369062 0.793395 -0.11473
C_ C_ 0.308637 0.367313 0.788411 -0.11473
C_ C_ 0.0528279 0.361365 0.71964 -0.11473
C_ C_ 0.298863 0.358428 0.714643 -0.11473
C_ C_ 0.0317389 0.418032 0.759688 -0.02249
C_ C_ 0.283049 0.422228 0.750943 -0.02249
C_ C_ 0.0885207 0.307703 0.755204 0.6875
C_ C_ 0.332899 0.308142 0.752777 0.6875
C_ C_ 0.0489956 0.405713 0.794669 -0.11473
C_ C_ 0.29234 0.405047 0.788323 -0.11473
C_ C_ 0.186364 0.345664 0.756226 -0.02249
C_ C_ 0.433858 0.344699 0.745743 -0.02249
C_ C_ 0.234954 0.461615 0.766504 -0.02249
C_ C_ 0.48811 0.45667 0.747742 -0.02249
C_ C_ 0.211365 0.400549 0.799807 -0.11473
C_ C_ 0.459385 0.403117 0.785011 -0.11473
C_ C_ 0.191157 0.370511 0.720482 -0.11473
C_ C_ 0.451849 0.353345 0.711312 -0.11473
C_ C_ 0.197649 0.361332 0.796499 -0.11473
C_ C_ 0.43824 0.370963 0.782704 -0.11473
C_ C_ 0.217826 0.423177 0.762075 -0.02249
C_ C_ 0.470652 0.418151 0.747524 -0.02249
C_ C_ 0.167174 0.308416 0.754535 0.6875
C_ C_ 0.415501 0.305114 0.744944 0.6875
C_ C_ 0.207971 0.406972 0.723681 -0.11473
C_ C_ 0.470405 0.390805 0.712297 -0.11473
C_ C_ 0.186177 0.152726 0.7581 -0.02249
C_ C_ 0.429439 0.143992 0.747095 -0.02249
C_ C_ 0.234238 0.0360421 0.74744 -0.02249
C_ C_ 0.486716 0.032369 0.751646 -0.02249
C_ C_ 0.207381 0.0911385 0.791663 -0.11473
C_ C_ 0.455254 0.0875853 0.787665 -0.11473
C_ C_ 0.201472 0.140364 0.722238 -0.11473
C_ C_ 0.441743 0.124904 0.710412 -0.11473
C_ C_ 0.188628 0.125809 0.794052 -0.11473
C_ C_ 0.43816 0.125152 0.785506 -0.11473
C_ C_ 0.220375 0.077379 0.75353 -0.02249
C_ C_ 0.469655 0.0740718 0.751293 -0.02249
C_ C_ 0.166912 0.190178 0.757511 0.6875
C_ C_ 0.409491 0.181237 0.744478 0.6875
C_ C_ 0.21688 0.103704 0.718439 -0.11473
C_ C_ 0.462418 0.0910236 0.712981 -0.11473
C_ C_ 0.0660158 0.150352 0.75781 -0.02249
C_ C_ 0.316004 0.150471 0.744856 -0.02249
C_ C_ 0.0150049 0.038009 0.757076 -0.02249
C_ C_ 0.266784 0.0343547 0.743947 -0.02249
C_ C_ 0.0406504 0.0942947 0.719715 -0.11473
C_ C_ 0.29791 0.0879739 0.708568 -0.11473
C_ C_ 0.0523875 0.136899 0.795029 -0.11473
C_ C_ 0.301584 0.134429 0.781607 -0.11473
C_ C_ 0.0616688 0.127429 0.72099 -0.11473
C_ C_ 0.313657 0.125654 0.709491 -0.11473
C_ C_ 0.0315096 0.0773317 0.757984 -0.02249
C_ C_ 0.284776 0.0730328 0.74475 -0.02249
C_ C_ 0.0861487 0.188997 0.7577 0.6875
C_ C_ 0.333477 0.190349 0.747622 0.6875
C_ C_ 0.0363712 0.0991825 0.795808 -0.11473
C_ C_ 0.285447 0.0967211 0.779619 -0.11473
C_ C_ 0.129641 0.293657 0.87777 0.17695
C_ C_ 0.378459 0.285338 0.871879 0.17695
C_ C_ 0.126222 0.221901 0.884171 0.17695
C_ C_ 0.372778 0.213481 0.87547 0.17695
C_ C_ 0.128971 0.223418 0.927595 -0.11473
C_ C_ 0.373093 0.217922 0.920631 -0.11473
C_ C_ 0.130906 0.261665 0.946966 0.23465
C_ C_ 0.378829 0.25558 0.940721 0.23465
C_ C_ 0.133475 0.298314 0.92043 -0.11473
C_ C_ 0.380959 0.289736 0.915981 -0.11473
C_ C_ 0.110533 0.217024 0.630419 0.17695
C_ C_ 0.37595 0.218478 0.617356 0.17695
C_ C_ 0.12806 0.284767 0.632527 0.17695
C_ C_ 0.365919 0.289988 0.621555 0.17695
C_ C_ 0.124147 0.287628 0.588987 -0.11473
C_ C_ 0.366553 0.293811 0.576854 -0.11473
C_ C_ 0.115292 0.254216 0.565116 0.23465
C_ C_ 0.368205 0.258769 0.552003 0.23465
C_ C_ 0.105684 0.219087 0.586932 -0.11473
C_ C_ 0.374701 0.221282 0.573886 -0.11473
C_ C_ 0.031576 0.496883 0.764885 0.05793
C_ C_ 0.280841 0.498619 0.751125 0.05793
C_ C_ 0.217327 -0.000776873 0.745247 0.05793
C_ C_ 0.470605 0.994748 0.746264 0.05793
Br Br 0.0745508 0.495846 0.758236 -0.17191
Br Br 0.322374 0.49634 0.730846 -0.17191
Br Br 0.174031 0.00507061 0.747766 -0.17191
Br Br 0.42744 0.994624 0.745703 -0.17191
N_ N_ 0.129418 0.254998 0.859753 -0.272
N_ N_ 0.37362 0.248341 0.851485 -0.272
N_ N_ 0.126781 0.265456 0.991092 -0.12501
N_ N_ 0.380272 0.260083 0.986801 -0.12501
N_ N_ 0.12136 0.249039 0.652785 -0.272
N_ N_ 0.371606 0.253034 0.642098 -0.272
N_ N_ 0.110844 0.256918 0.519842 -0.12501
N_ N_ 0.373341 0.262547 0.506981 -0.12501
O_ O_ 0.0915066 0.287342 0.721863 -0.60745
O_ O_ 0.344803 0.294664 0.720139 -0.60745
O_ O_ 0.0987453 0.293299 0.789287 -0.60745
O_ O_ 0.341344 0.29375 0.788096 -0.60745
O_ O_ 0.158741 0.288982 0.786921 -0.60745
O_ O_ 0.406898 0.289792 0.779544 -0.60745
O_ O_ 0.155611 0.298215 0.720148 -0.60745
O_ O_ 0.407985 0.286286 0.711522 -0.60745
O_ O_ 0.154596 0.201981 0.791863 -0.60745
O_ O_ 0.400983 0.197016 0.778308 -0.60745
O_ O_ 0.16241 0.21141 0.725309 -0.60745
O_ O_ 0.401502 0.197061 0.708104 -0.60745
O_ O_ 0.0969949 0.201321 0.721791 -0.60745
O_ O_ 0.343388 0.203009 0.713669 -0.60745
O_ O_ 0.0940948 0.204528 0.791971 -0.60745
O_ O_ 0.341334 0.208 0.782908 -0.60745
Zn Zn 0.123678 0.752409 0.287902 0.9476
Zn Zn 0.373361 0.752278 0.285387 0.9476
Zn Zn 0.12783 0.748823 0.218247 0.9476
Zn Zn 0.372594 0.751382 0.214068 0.9476
H_ H_ 0.0333771 0.914544 0.177094 0.10932
H_ H_ 0.307696 0.944525 0.203104 0.10932
H_ H_ 0.0712141 0.862118 0.313559 0.10932
H_ H_ 0.293437 0.833007 0.3082 0.10932
H_ H_ 0.0591308 0.846598 0.180823 0.10932
H_ H_ 0.333096 0.876832 0.193187 0.10932
H_ H_ 0.0405374 0.928529 0.31179 0.10932
H_ H_ 0.264513 0.897144 0.309654 0.10932
H_ H_ 0.196487 0.934072 0.312313 0.10932
H_ H_ 0.447407 0.931893 0.307315 0.10932
H_ H_ 0.201461 0.842828 0.190259 0.10932
H_ H_ 0.446891 0.835382 0.183164 0.10932
H_ H_ 0.166884 0.871313 0.311152 0.10932
H_ H_ 0.420026 0.865751 0.309078 0.10932
H_ H_ 0.235357 0.898771 0.196141 0.10932
H_ H_ 0.477763 0.900619 0.182303 0.10932
H_ H_ 0.193585 0.562914 0.30292 0.10932
H_ H_ 0.473695 0.593219 0.321653 0.10932
H_ H_ 0.212918 0.674694 0.199888 0.10932
H_ H_ 0.437154 0.650402 0.18431 0.10932
H_ H_ 0.163991 0.625165 0.304798 0.10932
H_ H_ 0.441981 0.656305 0.31913 0.10932
H_ H_ 0.237739 0.610898 0.194954 0.10932
H_ H_ 0.457465 0.583363 0.187353 0.10932
H_ H_ 0.0540947 0.562547 0.200105 0.10932
H_ H_ 0.294662 0.570269 0.183003 0.10932
H_ H_ 0.0476305 0.66801 0.311795 0.10932
H_ H_ 0.296922 0.660074 0.308779 0.10932
H_ H_ 0.0861521 0.62679 0.193149 0.10932
H_ H_ 0.331018 0.629522 0.184472 0.10932
H_ H_ 0.0170966 0.604289 0.315159 0.10932
H_ H_ 0.277835 0.589874 0.316024 0.10932
H_ H_ 0.13414 0.818303 0.360313 0.10932
H_ H_ 0.375515 0.818677 0.353588 0.10932
H_ H_ 0.123444 0.690001 0.366296 0.10932
H_ H_ 0.381784 0.6887 0.355063 0.10932
H_ H_ 0.119463 0.692142 0.442757 0.10932
H_ H_ 0.387983 0.689895 0.436515 0.10932
H_ H_ 0.141768 0.823002 0.436724 0.10932
H_ H_ 0.375684 0.821077 0.430683 0.10932
H_ H_ 0.133569 0.677779 0.154936 0.10932
H_ H_ 0.363946 0.687181 0.13578 0.10932
H_ H_ 0.123113 0.808927 0.14041 0.10932
H_ H_ 0.37146 0.814459 0.145499 0.10932
H_ H_ 0.11907 0.80212 0.0633315 0.10932
H_ H_ 0.367921 0.823118 0.0706634 0.10932
H_ H_ 0.131152 0.668055 0.0825617 0.10932
H_ H_ 0.364524 0.690539 0.0582715 0.10932
C_ C_ 0.0712024 0.852052 0.246958 -0.02249
C_ C_ 0.314939 0.847845 0.250061 -0.02249
C_ C_ 0.0169396 0.964418 0.243736 -0.02249
C_ C_ 0.26522 0.963675 0.257052 -0.02249
C_ C_ 0.0400519 0.901486 0.20736 -0.11473
C_ C_ 0.303467 0.917949 0.225156 -0.11473
C_ C_ 0.0650919 0.875307 0.283574 -0.11473
C_ C_ 0.293377 0.853471 0.281091 -0.11473
C_ C_ 0.0574974 0.865647 0.207872 -0.11473
C_ C_ 0.317421 0.8792 0.218381 -0.11473
C_ C_ 0.035147 0.925901 0.243512 -0.02249
C_ C_ 0.282913 0.923597 0.25569 -0.02249
C_ C_ 0.0864244 0.810996 0.250175 0.6875
C_ C_ 0.335688 0.812685 0.251855 0.6875
C_ C_ 0.0456765 0.910807 0.282765 -0.11473
C_ C_ 0.277682 0.890195 0.283954 -0.11473
C_ C_ 0.180906 0.851545 0.249258 -0.02249
C_ C_ 0.430643 0.847813 0.246562 -0.02249
C_ C_ 0.233638 0.963 0.250266 -0.02249
C_ C_ 0.481367 0.960433 0.242909 -0.02249
C_ C_ 0.197341 0.914928 0.284292 -0.11473
C_ C_ 0.44768 0.910847 0.280526 -0.11473
C_ C_ 0.198384 0.863248 0.214412 -0.11473
C_ C_ 0.448205 0.856686 0.210928 -0.11473
C_ C_ 0.178778 0.8794 0.284344 -0.11473
C_ C_ 0.433032 0.873661 0.282576 -0.11473
C_ C_ 0.215781 0.925124 0.250698 -0.02249
C_ C_ 0.465604 0.920066 0.245553 -0.02249
C_ C_ 0.163222 0.812726 0.248705 0.6875
C_ C_ 0.411621 0.809827 0.247222 0.6875
C_ C_ 0.218267 0.89648 0.217093 -0.11473
C_ C_ 0.464344 0.893043 0.209684 -0.11473
C_ C_ 0.184041 0.655459 0.253441 -0.02249
C_ C_ 0.433068 0.656736 0.251739 -0.02249
C_ C_ 0.234113 0.540747 0.243238 -0.02249
C_ C_ 0.483356 0.543905 0.255281 -0.02249
C_ C_ 0.198712 0.586203 0.280946 -0.11473
C_ C_ 0.463636 0.605102 0.291692 -0.11473
C_ C_ 0.203905 0.648835 0.218945 -0.11473
C_ C_ 0.440487 0.636259 0.214748 -0.11473
C_ C_ 0.180865 0.623252 0.283004 -0.11473
C_ C_ 0.444912 0.640173 0.291246 -0.11473
C_ C_ 0.216936 0.580176 0.246275 -0.02249
C_ C_ 0.463323 0.580746 0.254214 -0.02249
C_ C_ 0.167112 0.694544 0.254311 0.6875
C_ C_ 0.410605 0.691675 0.252271 0.6875
C_ C_ 0.221328 0.612669 0.217789 -0.11473
C_ C_ 0.454869 0.598549 0.215989 -0.11473
C_ C_ 0.0697415 0.650259 0.254599 -0.02249
C_ C_ 0.314549 0.652438 0.245346 -0.02249
C_ C_ 0.0117837 0.543126 0.25332 -0.02249
C_ C_ 0.265104 0.538398 0.248932 -0.02249
C_ C_ 0.0492923 0.589204 0.220235 -0.11473
C_ C_ 0.296252 0.590629 0.210738 -0.11473
C_ C_ 0.047661 0.647032 0.285135 -0.11473
C_ C_ 0.300513 0.639198 0.283051 -0.11473
C_ C_ 0.0703679 0.623154 0.219545 -0.11473
C_ C_ 0.314622 0.625589 0.210722 -0.11473
C_ C_ 0.0307057 0.582801 0.254561 -0.02249
C_ C_ 0.283355 0.576894 0.247716 -0.02249
C_ C_ 0.0910942 0.687543 0.255621 0.6875
C_ C_ 0.335356 0.689859 0.249701 0.6875
C_ C_ 0.0298127 0.611625 0.28727 -0.11473
C_ C_ 0.286635 0.599868 0.285201 -0.11473
C_ C_ 0.128949 0.792719 0.379084 0.17695
C_ C_ 0.373765 0.791041 0.372228 0.17695
C_ C_ 0.125584 0.719263 0.38169 0.17695
C_ C_ 0.379941 0.717676 0.373984 0.17695
C_ C_ 0.125477 0.719249 0.426465 -0.11473
C_ C_ 0.381088 0.717979 0.418096 -0.11473
C_ C_ 0.131892 0.758395 0.448188 0.23465
C_ C_ 0.379046 0.757286 0.439877 0.23465
C_ C_ 0.135655 0.792952 0.421362 -0.11473
C_ C_ 0.373645 0.792366 0.415377 -0.11473
C_ C_ 0.128377 0.705852 0.134188 0.17695
C_ C_ 0.36724 0.716001 0.120488 0.17695
C_ C_ 0.124028 0.778603 0.127029 0.17695
C_ C_ 0.370719 0.78868 0.126424 0.17695
C_ C_ 0.123183 0.774121 0.0821607 -0.11473
C_ C_ 0.370238 0.790915 0.08203 -0.11473
C_ C_ 0.124297 0.734454 0.0644316 0.23465
C_ C_ 0.367781 0.756663 0.0557064 0.23465
C_ C_ 0.126936 0.700459 0.0920277 -0.11473
C_ C_ 0.367064 0.717076 0.0755557 -0.11473
C_ C_ 0.032612 1.00347225 0.24498 0.05793
C_ C_ 0.278513 1.00335916 0.262577 0.05793
C_ C_ 0.217828 0.502147 0.241375 0.05793
C_ C_ 0.46983 0.503308 0.258471 0.05793
Br Br 0.0767321 0.000331329 0.246855 -0.17191
Br Br 0.315088 1.00314311 0.293788 -0.17191
Br Br 0.175213 0.502706 0.221047 -0.17191
Br Br 0.431501 0.498709 0.284458 -0.17191
N_ N_ 0.126119 0.755305 0.360298 -0.272
N_ N_ 0.375711 0.753236 0.353499 -0.272
N_ N_ 0.137075 0.760643 0.492642 -0.12501
N_ N_ 0.38104 0.762846 0.483613 -0.12501
N_ N_ 0.125341 0.744753 0.150011 -0.272
N_ N_ 0.370753 0.751464 0.14414 -0.272
N_ N_ 0.122008 0.729258 0.0199197 -0.12501
N_ N_ 0.366431 0.762697 0.0103177 -0.12501
O_ O_ 0.0940748 0.790488 0.21719 -0.60745
O_ O_ 0.34528 0.799582 0.218511 -0.60745
O_ O_ 0.0940783 0.797519 0.285879 -0.60745
O_ O_ 0.344572 0.79831 0.286424 -0.60745
O_ O_ 0.15495 0.798597 0.283041 -0.60745
O_ O_ 0.402429 0.796918 0.282696 -0.60745
O_ O_ 0.156166 0.795117 0.214823 -0.60745
O_ O_ 0.406214 0.788824 0.213606 -0.60745
O_ O_ 0.151936 0.703837 0.286527 -0.60745
O_ O_ 0.403275 0.709416 0.286256 -0.60745
O_ O_ 0.158737 0.709709 0.221305 -0.60745
O_ O_ 0.400803 0.706167 0.217615 -0.60745
O_ O_ 0.10029 0.701281 0.221076 -0.60745
O_ O_ 0.33977 0.708329 0.21498 -0.60745
O_ O_ 0.096291 0.70706 0.288067 -0.60745
O_ O_ 0.342161 0.706705 0.284287 -0.60745
Zn Zn 0.123821 0.750996 0.790667 0.9476
Zn Zn 0.377304 0.746879 0.782678 0.9476
Zn Zn 0.124337 0.747359 0.722446 0.9476
Zn Zn 0.377393 0.74734 0.713868 0.9476
H_ H_ 0.0421652 0.919377 0.68876 0.10932
H_ H_ 0.271299 0.901673 0.680455 0.10932
H_ H_ 0.0621647 0.851973 0.826945 0.10932
H_ H_ 0.319922 0.850125 0.81151 0.10932
H_ H_ 0.0701627 0.854619 0.693649 0.10932
H_ H_ 0.305752 0.839706 0.677758 0.10932
H_ H_ 0.0324391 0.911768 0.822637 0.10932
H_ H_ 0.293226 0.916468 0.811037 0.10932
H_ H_ 0.217074 0.919698 0.811121 0.10932
H_ H_ 0.461753 0.91728 0.809856 0.10932
H_ H_ 0.181919 0.843764 0.684841 0.10932
H_ H_ 0.439276 0.841416 0.677282 0.10932
H_ H_ 0.183904 0.855702 0.818308 0.10932
H_ H_ 0.432535 0.856587 0.809907 0.10932
H_ H_ 0.204839 0.916 0.679738 0.10932
H_ H_ 0.471911 0.904371 0.676754 0.10932
H_ H_ 0.235299 0.607985 0.816434 0.10932
H_ H_ 0.46948 0.582976 0.82126 0.10932
H_ H_ 0.171465 0.625827 0.691324 0.10932
H_ H_ 0.449903 0.656379 0.686023 0.10932
H_ H_ 0.206033 0.669219 0.810833 0.10932
H_ H_ 0.440423 0.646745 0.820093 0.10932
H_ H_ 0.205895 0.569964 0.694783 0.10932
H_ H_ 0.467472 0.581212 0.682514 0.10932
H_ H_ 0.0445562 0.570899 0.696414 0.10932
H_ H_ 0.262044 0.600721 0.700463 0.10932
H_ H_ 0.0553055 0.650668 0.8265 0.10932
H_ H_ 0.342681 0.627337 0.810644 0.10932
H_ H_ 0.0717873 0.634924 0.694014 0.10932
H_ H_ 0.295511 0.663329 0.696627 0.10932
H_ H_ 0.0295543 0.584467 0.830141 0.10932
H_ H_ 0.308752 0.565443 0.814189 0.10932
H_ H_ 0.143165 0.806322 0.859602 0.10932
H_ H_ 0.359199 0.799921 0.857682 0.10932
H_ H_ 0.111016 0.686189 0.87107 0.10932
H_ H_ 0.388044 0.677896 0.856774 0.10932
H_ H_ 0.1101 0.689636 0.948415 0.10932
H_ H_ 0.379451 0.671466 0.929888 0.10932
H_ H_ 0.137293 0.815612 0.937587 0.10932
H_ H_ 0.361357 0.803327 0.936319 0.10932
H_ H_ 0.167938 0.748222 0.645951 0.10932
H_ H_ 0.386253 0.681669 0.644226 0.10932
H_ H_ 0.0734671 0.758976 0.646479 0.10932
H_ H_ 0.377973 0.812822 0.628278 0.10932
H_ H_ 0.0701137 0.766462 0.570166 0.10932
H_ H_ 0.386087 0.805773 0.553289 0.10932
H_ H_ 0.166348 0.752947 0.565972 0.10932
H_ H_ 0.380068 0.671627 0.567504 0.10932
C_ C_ 0.0660109 0.845702 0.75977 -0.02249
C_ C_ 0.315135 0.841323 0.744835 -0.02249
C_ C_ 0.0168639 0.960495 0.756772 -0.02249
C_ C_ 0.264457 0.957944 0.746973 -0.02249
C_ C_ 0.0430743 0.902738 0.719929 -0.11473
C_ C_ 0.285445 0.893779 0.708578 -0.11473
C_ C_ 0.0569495 0.865685 0.796963 -0.11473
C_ C_ 0.307293 0.860079 0.783322 -0.11473
C_ C_ 0.0607078 0.865592 0.721878 -0.11473
C_ C_ 0.304253 0.858198 0.707152 -0.11473
C_ C_ 0.0346298 0.921495 0.757586 -0.02249
C_ C_ 0.280492 0.916901 0.746119 -0.02249
C_ C_ 0.0854679 0.809471 0.762043 0.6875
C_ C_ 0.336432 0.80438 0.747917 0.6875
C_ C_ 0.0391811 0.899676 0.795277 -0.11473
C_ C_ 0.293311 0.899704 0.783546 -0.11473
C_ C_ 0.181717 0.84584 0.752033 -0.02249
C_ C_ 0.437048 0.842251 0.745497 -0.02249
C_ C_ 0.232177 0.959217 0.746124 -0.02249
C_ C_ 0.485614 0.956835 0.742308 -0.02249
C_ C_ 0.208342 0.902479 0.78572 -0.11473
C_ C_ 0.456631 0.900906 0.780877 -0.11473
C_ C_ 0.191221 0.859763 0.712896 -0.11473
C_ C_ 0.443984 0.859988 0.706328 -0.11473
C_ C_ 0.193442 0.864841 0.787884 -0.11473
C_ C_ 0.442554 0.864493 0.781826 -0.11473
C_ C_ 0.214577 0.91977 0.746702 -0.02249
C_ C_ 0.468469 0.917227 0.743889 -0.02249
C_ C_ 0.162647 0.807846 0.754088 0.6875
C_ C_ 0.417009 0.806107 0.746524 0.6875
C_ C_ 0.205251 0.89958 0.709379 -0.11473
C_ C_ 0.463239 0.894306 0.705658 -0.11473
C_ C_ 0.183295 0.653398 0.7509 -0.02249
C_ C_ 0.440873 0.654329 0.750545 -0.02249
C_ C_ 0.234941 0.538291 0.763318 -0.02249
C_ C_ 0.486518 0.533777 0.751929 -0.02249
C_ C_ 0.219843 0.608944 0.790291 -0.11473
C_ C_ 0.463301 0.595279 0.79067 -0.11473
C_ C_ 0.186163 0.623788 0.718767 -0.11473
C_ C_ 0.450666 0.636518 0.713001 -0.11473
C_ C_ 0.203372 0.64661 0.785161 -0.11473
C_ C_ 0.447955 0.634216 0.790196 -0.11473
C_ C_ 0.218225 0.577798 0.760035 -0.02249
C_ C_ 0.469823 0.575103 0.752033 -0.02249
C_ C_ 0.163753 0.689402 0.75013 0.6875
C_ C_ 0.420719 0.691495 0.748022 0.6875
C_ C_ 0.201898 0.587378 0.722154 -0.11473
C_ C_ 0.463464 0.595888 0.712653 -0.11473
C_ C_ 0.0643614 0.649932 0.760495 -0.02249
C_ C_ 0.321523 0.649755 0.752428 -0.02249
C_ C_ 0.0169039 0.534606 0.759723 -0.02249
C_ C_ 0.266787 0.536682 0.756828 -0.02249
C_ C_ 0.044919 0.589626 0.722992 -0.11473
C_ C_ 0.279037 0.606592 0.724417 -0.11473
C_ C_ 0.052519 0.634742 0.796699 -0.11473
C_ C_ 0.324924 0.620342 0.785244 -0.11473
C_ C_ 0.0584173 0.629024 0.721773 -0.11473
C_ C_ 0.298831 0.642079 0.722618 -0.11473
C_ C_ 0.0333915 0.574271 0.761276 -0.02249
C_ C_ 0.284772 0.576332 0.755329 -0.02249
C_ C_ 0.086536 0.686486 0.760168 0.6875
C_ C_ 0.341317 0.687116 0.752756 0.6875
C_ C_ 0.0366506 0.59719 0.798449 -0.11473
C_ C_ 0.305693 0.585233 0.787833 -0.11473
C_ C_ 0.13491 0.782398 0.879428 0.17695
C_ C_ 0.367202 0.77522 0.874992 0.17695
C_ C_ 0.121519 0.712495 0.8845 0.17695
C_ C_ 0.380556 0.705527 0.8747 0.17695
C_ C_ 0.119005 0.714754 0.92945 -0.11473
C_ C_ 0.377234 0.702583 0.917825 -0.11473
C_ C_ 0.124756 0.753002 0.949628 0.23465
C_ C_ 0.369861 0.737291 0.940366 0.23465
C_ C_ 0.131781 0.787158 0.92364 -0.11473
C_ C_ 0.365068 0.775102 0.918772 -0.11473
C_ C_ 0.147381 0.750156 0.627386 0.17695
C_ C_ 0.380458 0.708849 0.624251 0.17695
C_ C_ 0.0936412 0.756368 0.627553 0.17695
C_ C_ 0.377972 0.782709 0.615849 0.17695
C_ C_ 0.0917795 0.759193 0.584702 -0.11473
C_ C_ 0.381674 0.777853 0.572451 -0.11473
C_ C_ 0.117519 0.755535 0.562036 0.23465
C_ C_ 0.379798 0.737473 0.552576 0.23465
C_ C_ 0.145967 0.753479 0.582616 -0.11473
C_ C_ 0.378318 0.703389 0.579839 -0.11473
C_ C_ 0.0313985 0.0001500000000000945 0.767296 0.05793
C_ C_ 0.2818 -0.005732999999999988 0.741546 0.05793
C_ C_ 0.219618 0.499357 0.77254 0.05793
C_ C_ 0.471801 0.494147 0.749335 0.05793
Br Br 0.0690222 -0.00047600000000003195 0.798324 -0.17191
Br Br 0.324849 -0.011479000000000017 0.728905 -0.17191
Br Br 0.177181 0.500647 0.786582 -0.17191
Br Br 0.42745 0.497664 0.745861 -0.17191
N_ N_ 0.127156 0.747 0.860495 -0.272
N_ N_ 0.377868 0.742634 0.854402 -0.272
N_ N_ 0.123872 0.758011 0.99454 -0.12501
N_ N_ 0.363832 0.732967 0.984896 -0.12501
N_ N_ 0.121318 0.751712 0.649474 -0.272
N_ N_ 0.377015 0.748255 0.640908 -0.272
N_ N_ 0.115167 0.757131 0.516615 -0.12501
N_ N_ 0.378725 0.733014 0.507906 -0.12501
O_ O_ 0.09781 0.796063 0.729305 -0.60745
O_ O_ 0.346655 0.790612 0.714352 -0.60745
O_ O_ 0.092341 0.79381 0.797813 -0.60745
O_ O_ 0.344129 0.788221 0.784001 -0.60745
O_ O_ 0.155127 0.793811 0.788759 -0.60745
O_ O_ 0.403702 0.79816 0.779031 -0.60745
O_ O_ 0.159284 0.78455 0.72112 -0.60745
O_ O_ 0.412378 0.786515 0.713714 -0.60745
O_ O_ 0.158145 0.70691 0.784714 -0.60745
O_ O_ 0.410149 0.706603 0.782351 -0.60745
O_ O_ 0.152938 0.703122 0.715541 -0.60745
O_ O_ 0.410201 0.704209 0.712476 -0.60745
O_ O_ 0.0915009 0.705456 0.727014 -0.60745
O_ O_ 0.345276 0.703948 0.717509 -0.60745
O_ O_ 0.0939164 0.70538 0.79331 -0.60745
O_ O_ 0.352248 0.701623 0.785414 -0.60745
Zn Zn 0.622998 0.253753 0.27677 0.9476
Zn Zn 0.877139 0.252659 0.281031 0.9476
Zn Zn 0.620184 0.25262 0.206696 0.9476
Zn Zn 0.871417 0.251543 0.211423 0.9476
H_ H_ 0.515928 0.413731 0.18053 0.10932
H_ H_ 0.796051 0.433343 0.190231 0.10932
H_ H_ 0.579391 0.366255 0.301267 0.10932
H_ H_ 0.803786 0.340204 0.311472 0.10932
H_ H_ 0.534093 0.342167 0.183769 0.10932
H_ H_ 0.824835 0.37179 0.183633 0.10932
H_ H_ 0.552392 0.433995 0.303513 0.10932
H_ H_ 0.767898 0.398773 0.313051 0.10932
H_ H_ 0.708112 0.424609 0.306748 0.10932
H_ H_ 0.957707 0.423763 0.319255 0.10932
H_ H_ 0.691953 0.345413 0.175292 0.10932
H_ H_ 0.927843 0.36145 0.181707 0.10932
H_ H_ 0.676666 0.362817 0.306959 0.10932
H_ H_ 0.935001 0.35482 0.317806 0.10932
H_ H_ 0.725294 0.409246 0.177494 0.10932
H_ H_ 0.950394 0.433019 0.185173 0.10932
H_ H_ 0.719634 0.0931496 0.317005 0.10932
H_ H_ 0.977495 0.0933462 0.315462 0.10932
H_ H_ 0.678819 0.149658 0.1799 0.10932
H_ H_ 0.933561 0.153112 0.184309 0.10932
H_ H_ 0.688984 0.158187 0.314039 0.10932
H_ H_ 0.952169 0.158794 0.31437 0.10932
H_ H_ 0.707087 0.0837027 0.180071 0.10932
H_ H_ 0.952291 0.0786903 0.182962 0.10932
H_ H_ 0.536069 0.0813304 0.170531 0.10932
H_ H_ 0.778398 0.0822551 0.189366 0.10932
H_ H_ 0.560888 0.149587 0.307048 0.10932
H_ H_ 0.81384 0.15494 0.31643 0.10932
H_ H_ 0.563706 0.146447 0.170094 0.10932
H_ H_ 0.80883 0.144287 0.182096 0.10932
H_ H_ 0.526201 0.0908185 0.305687 0.10932
H_ H_ 0.778009 0.0932335 0.323833 0.10932
H_ H_ 0.64526 0.195759 0.352115 0.10932
H_ H_ 0.862954 0.190521 0.350882 0.10932
H_ H_ 0.607457 0.315802 0.360316 0.10932
H_ H_ 0.887831 0.318687 0.356993 0.10932
H_ H_ 0.601238 0.305815 0.438241 0.10932
H_ H_ 0.88613 0.31901 0.432351 0.10932
H_ H_ 0.632835 0.184182 0.428395 0.10932
H_ H_ 0.855805 0.190794 0.432117 0.10932
H_ H_ 0.606518 0.189379 0.127602 0.10932
H_ H_ 0.828443 0.246657 0.131504 0.10932
H_ H_ 0.628974 0.317252 0.140011 0.10932
H_ H_ 0.922439 0.255537 0.14216 0.10932
H_ H_ 0.634048 0.322668 0.0625149 0.10932
H_ H_ 0.925505 0.27184 0.0639842 0.10932
H_ H_ 0.609338 0.193417 0.0493633 0.10932
H_ H_ 0.830582 0.257083 0.0569523 0.10932
C_ C_ 0.563187 0.350311 0.23801 -0.02249
C_ C_ 0.81621 0.34931 0.247301 -0.02249
C_ C_ 0.516734 0.468901 0.246676 -0.02249
C_ C_ 0.764632 0.464477 0.254231 -0.02249
C_ C_ 0.531197 0.40476 0.204728 -0.11473
C_ C_ 0.798827 0.41484 0.216039 -0.11473
C_ C_ 0.569074 0.377645 0.271458 -0.11473
C_ C_ 0.80225 0.360493 0.283141 -0.11473
C_ C_ 0.542666 0.363581 0.206112 -0.11473
C_ C_ 0.81573 0.378601 0.214005 -0.11473
C_ C_ 0.535458 0.430125 0.240101 -0.02249
C_ C_ 0.781096 0.424209 0.251921 -0.02249
C_ C_ 0.581225 0.312309 0.237537 0.6875
C_ C_ 0.834358 0.311146 0.244441 0.6875
C_ C_ 0.552374 0.414733 0.273864 -0.11473
C_ C_ 0.783476 0.396519 0.287119 -0.11473
C_ C_ 0.680086 0.351574 0.24191 -0.02249
C_ C_ 0.925863 0.355327 0.250709 -0.02249
C_ C_ 0.733554 0.464162 0.242664 -0.02249
C_ C_ 0.978129 0.467595 0.250238 -0.02249
C_ C_ 0.704209 0.408831 0.278521 -0.11473
C_ C_ 0.951503 0.410206 0.289271 -0.11473
C_ C_ 0.694804 0.363678 0.204893 -0.11473
C_ C_ 0.933947 0.375885 0.212424 -0.11473
C_ C_ 0.686197 0.374858 0.279425 -0.11473
C_ C_ 0.937416 0.370973 0.288194 -0.11473
C_ C_ 0.715898 0.423562 0.240693 -0.02249
C_ C_ 0.960182 0.430131 0.251517 -0.02249
C_ C_ 0.658499 0.317048 0.241135 0.6875
C_ C_ 0.911135 0.31393 0.249375 0.6875
C_ C_ 0.711421 0.400397 0.205522 -0.11473
C_ C_ 0.949097 0.413757 0.213086 -0.11473
C_ C_ 0.682703 0.158091 0.246013 -0.02249
C_ C_ 0.936224 0.15717 0.249397 -0.02249
C_ C_ 0.732132 0.0423761 0.250305 -0.02249
C_ C_ 0.984475 0.040009 0.246428 -0.02249
C_ C_ 0.709206 0.103847 0.287431 -0.11473
C_ C_ 0.96567 0.103075 0.28637 -0.11473
C_ C_ 0.685428 0.135381 0.209624 -0.11473
C_ C_ 0.939629 0.135956 0.213051 -0.11473
C_ C_ 0.692842 0.141538 0.284836 -0.11473
C_ C_ 0.949144 0.139916 0.287478 -0.11473
C_ C_ 0.715463 0.0831573 0.24867 -0.02249
C_ C_ 0.968553 0.0810572 0.247698 -0.02249
C_ C_ 0.6637 0.197601 0.246697 0.6875
C_ C_ 0.916755 0.195498 0.250311 0.6875
C_ C_ 0.705973 0.101257 0.209493 -0.11473
C_ C_ 0.954304 0.0981812 0.211533 -0.11473
C_ C_ 0.564903 0.153299 0.238648 -0.02249
C_ C_ 0.818065 0.15108 0.249672 -0.02249
C_ C_ 0.511739 0.0399116 0.234681 -0.02249
C_ C_ 0.764124 0.040466 0.26075 -0.02249
C_ C_ 0.540403 0.0965091 0.200068 -0.11473
C_ C_ 0.787055 0.0973209 0.216951 -0.11473
C_ C_ 0.555884 0.135361 0.276523 -0.11473
C_ C_ 0.808863 0.136615 0.289203 -0.11473
C_ C_ 0.554444 0.135375 0.199384 -0.11473
C_ C_ 0.806722 0.129256 0.212556 -0.11473
C_ C_ 0.528635 0.0805434 0.237483 -0.02249
C_ C_ 0.781353 0.0789312 0.256999 -0.02249
C_ C_ 0.58369 0.191578 0.238646 0.6875
C_ C_ 0.837994 0.188318 0.243724 0.6875
C_ C_ 0.535313 0.101581 0.276054 -0.11473
C_ C_ 0.788445 0.103368 0.293004 -0.11473
C_ C_ 0.634256 0.218991 0.370307 0.17695
C_ C_ 0.868701 0.218132 0.370662 0.17695
C_ C_ 0.612908 0.285451 0.372918 0.17695
C_ C_ 0.882327 0.290249 0.372288 0.17695
C_ C_ 0.611173 0.281027 0.417848 -0.11473
C_ C_ 0.882278 0.289892 0.415318 -0.11473
C_ C_ 0.619285 0.244602 0.436825 0.23465
C_ C_ 0.872778 0.253859 0.43664 0.23465
C_ C_ 0.629707 0.212823 0.412084 -0.11473
C_ C_ 0.865545 0.218536 0.414305 -0.11473
C_ C_ 0.617641 0.216579 0.113697 0.17695
C_ C_ 0.850227 0.251951 0.11777 0.17695
C_ C_ 0.626989 0.289895 0.119273 0.17695
C_ C_ 0.902567 0.253035 0.121809 0.17695
C_ C_ 0.628329 0.293207 0.0767263 -0.11473
C_ C_ 0.905056 0.261121 0.0779711 -0.11473
C_ C_ 0.621545 0.259403 0.0510627 0.23465
C_ C_ 0.878796 0.259904 0.0527815 0.23465
C_ C_ 0.615724 0.22066 0.0698671 -0.11473
C_ C_ 0.852163 0.252764 0.0731033 -0.11473
C_ C_ 0.531057 0.508061 0.244676 0.05793
C_ C_ 0.778846 0.50214 0.268386 0.05793
C_ C_ 0.714879 1.00560951 0.250444 0.05793
C_ C_ 0.968333 1.00206214 0.244314 0.05793
Br Br 0.572338 0.513466 0.228456 -0.17191
Br Br 0.813137 0.496439 0.304727 -0.17191
Br Br 0.671653 0.00718294 0.247681 -0.17191
Br Br 0.925586 0.0020700000000000163 0.239237 -0.17191
N_ N_ 0.623807 0.25206 0.349251 -0.272
N_ N_ 0.8768 0.254607 0.350391 -0.272
N_ N_ 0.618788 0.23637 0.483181 -0.12501
N_ N_ 0.867199 0.256381 0.480291 -0.12501
N_ N_ 0.62335 0.25221 0.137614 -0.272
N_ N_ 0.87515 0.251321 0.140988 -0.272
N_ N_ 0.623915 0.263855 0.00640938 -0.12501
N_ N_ 0.880873 0.266284 0.00938277 -0.12501
O_ O_ 0.587654 0.293248 0.202835 -0.60745
O_ O_ 0.834409 0.291422 0.210424 -0.60745
O_ O_ 0.590397 0.293616 0.271268 -0.60745
O_ O_ 0.846129 0.295484 0.277638 -0.60745
O_ O_ 0.651299 0.301454 0.275655 -0.60745
O_ O_ 0.905808 0.296174 0.284647 -0.60745
O_ O_ 0.652844 0.298285 0.206936 -0.60745
O_ O_ 0.898231 0.29925 0.216542 -0.60745
O_ O_ 0.654188 0.212702 0.279503 -0.60745
O_ O_ 0.906117 0.207548 0.284253 -0.60745
O_ O_ 0.653088 0.210134 0.211659 -0.60745
O_ O_ 0.906612 0.211195 0.216723 -0.60745
O_ O_ 0.592029 0.207912 0.204218 -0.60745
O_ O_ 0.845576 0.201514 0.20809 -0.60745
O_ O_ 0.594358 0.206375 0.27261 -0.60745
O_ O_ 0.847537 0.206605 0.276954 -0.60745
Zn Zn 0.62966 0.246926 0.782347 0.9476
Zn Zn 0.877724 0.245313 0.783566 0.9476
Zn Zn 0.627145 0.247027 0.712946 0.9476
Zn Zn 0.87584 0.245402 0.710881 0.9476
H_ H_ 0.547355 0.418407 0.684982 0.10932
H_ H_ 0.778079 0.404932 0.680539 0.10932
H_ H_ 0.564894 0.351067 0.823462 0.10932
H_ H_ 0.827662 0.359268 0.810137 0.10932
H_ H_ 0.56761 0.346314 0.685814 0.10932
H_ H_ 0.808387 0.339721 0.68043 0.10932
H_ H_ 0.535398 0.414438 0.817776 0.10932
H_ H_ 0.796183 0.422896 0.810889 0.10932
H_ H_ 0.724817 0.411888 0.816123 0.10932
H_ H_ 0.971251 0.411206 0.822755 0.10932
H_ H_ 0.690571 0.348665 0.681733 0.10932
H_ H_ 0.923724 0.366416 0.688359 0.10932
H_ H_ 0.691006 0.348707 0.817583 0.10932
H_ H_ 0.943509 0.34492 0.818822 0.10932
H_ H_ 0.723793 0.409125 0.681564 0.10932
H_ H_ 0.957768 0.425201 0.688384 0.10932
H_ H_ 0.731094 0.0949884 0.808002 0.10932
H_ H_ 0.962989 0.0765868 0.81187 0.10932
H_ H_ 0.676842 0.135119 0.680203 0.10932
H_ H_ 0.940388 0.151963 0.679794 0.10932
H_ H_ 0.704087 0.162161 0.806386 0.10932
H_ H_ 0.935742 0.140196 0.816781 0.10932
H_ H_ 0.702749 0.0683175 0.684143 0.10932
H_ H_ 0.968879 0.0867525 0.678548 0.10932
H_ H_ 0.539802 0.0730116 0.682539 0.10932
H_ H_ 0.766405 0.0968433 0.689566 0.10932
H_ H_ 0.563888 0.148977 0.81259 0.10932
H_ H_ 0.840638 0.123105 0.803134 0.10932
H_ H_ 0.569055 0.138701 0.678049 0.10932
H_ H_ 0.794973 0.165225 0.691272 0.10932
H_ H_ 0.533273 0.0834064 0.81326 0.10932
H_ H_ 0.812895 0.0599155 0.805341 0.10932
H_ H_ 0.627817 0.31002 0.860967 0.10932
H_ H_ 0.837348 0.200473 0.855863 0.10932
H_ H_ 0.637226 0.180069 0.853718 0.10932
H_ H_ 0.912798 0.277101 0.863236 0.10932
H_ H_ 0.628179 0.173801 0.929235 0.10932
H_ H_ 0.903651 0.290525 0.938051 0.10932
H_ H_ 0.631638 0.305887 0.937825 0.10932
H_ H_ 0.828885 0.204474 0.930355 0.10932
H_ H_ 0.603929 0.191953 0.631594 0.10932
H_ H_ 0.923908 0.241423 0.640707 0.10932
H_ H_ 0.631714 0.317997 0.641726 0.10932
H_ H_ 0.83022 0.250676 0.631229 0.10932
H_ H_ 0.640128 0.318403 0.56475 0.10932
H_ H_ 0.832664 0.255359 0.553434 0.10932
H_ H_ 0.601152 0.196129 0.556645 0.10932
H_ H_ 0.929477 0.242576 0.562866 0.10932
C_ C_ 0.567598 0.341876 0.75424 -0.02249
C_ C_ 0.82039 0.344931 0.745853 -0.02249
C_ C_ 0.519876 0.45882 0.749382 -0.02249
C_ C_ 0.771831 0.46014 0.744727 -0.02249
C_ C_ 0.548485 0.400176 0.714428 -0.11473
C_ C_ 0.791453 0.397365 0.70821 -0.11473
C_ C_ 0.556856 0.361358 0.792324 -0.11473
C_ C_ 0.816379 0.369083 0.782026 -0.11473
C_ C_ 0.563036 0.360619 0.715669 -0.11473
C_ C_ 0.807377 0.358343 0.708487 -0.11473
C_ C_ 0.537121 0.41863 0.750796 -0.02249
C_ C_ 0.788333 0.421658 0.745335 -0.02249
C_ C_ 0.586587 0.302584 0.754838 0.6875
C_ C_ 0.834368 0.303542 0.750342 0.6875
C_ C_ 0.541905 0.398587 0.789976 -0.11473
C_ C_ 0.801139 0.40786 0.781111 -0.11473
C_ C_ 0.688858 0.34461 0.748293 -0.02249
C_ C_ 0.929589 0.350402 0.754609 -0.02249
C_ C_ 0.739809 0.45837 0.747869 -0.02249
C_ C_ 0.983582 0.461078 0.754474 -0.02249
C_ C_ 0.714057 0.400691 0.7863 -0.11473
C_ C_ 0.961299 0.400538 0.792555 -0.11473
C_ C_ 0.699923 0.360024 0.710033 -0.11473
C_ C_ 0.934532 0.372536 0.717486 -0.11473
C_ C_ 0.697119 0.365098 0.787199 -0.11473
C_ C_ 0.943799 0.365416 0.791421 -0.11473
C_ C_ 0.72225 0.417414 0.748648 -0.02249
C_ C_ 0.967038 0.420907 0.755593 -0.02249
C_ C_ 0.667215 0.306914 0.747265 0.6875
C_ C_ 0.913468 0.308549 0.753228 0.6875
C_ C_ 0.717158 0.39606 0.710562 -0.11473
C_ C_ 0.95444 0.406985 0.717765 -0.11473
C_ C_ 0.687814 0.152715 0.743025 -0.02249
C_ C_ 0.938461 0.153556 0.749147 -0.02249
C_ C_ 0.736393 0.0352277 0.749396 -0.02249
C_ C_ 0.985417 0.0371362 0.745112 -0.02249
C_ C_ 0.719544 0.103993 0.78143 -0.11473
C_ C_ 0.959196 0.0943032 0.782251 -0.11473
C_ C_ 0.688377 0.128073 0.707803 -0.11473
C_ C_ 0.948069 0.138154 0.70889 -0.11473
C_ C_ 0.702302 0.140207 0.779975 -0.11473
C_ C_ 0.946045 0.131698 0.786676 -0.11473
C_ C_ 0.717995 0.0753701 0.747923 -0.02249
C_ C_ 0.967681 0.0769706 0.744231 -0.02249
C_ C_ 0.667071 0.188888 0.744013 0.6875
C_ C_ 0.918161 0.189018 0.749792 0.6875
C_ C_ 0.7018 0.0881201 0.71183 -0.11473
C_ C_ 0.963851 0.0996869 0.708375 -0.11473
C_ C_ 0.570948 0.146885 0.745437 -0.02249
C_ C_ 0.821076 0.147433 0.744717 -0.02249
C_ C_ 0.518271 0.0310638 0.748529 -0.02249
C_ C_ 0.768224 0.0352071 0.748497 -0.02249
C_ C_ 0.545834 0.0876893 0.710089 -0.11473
C_ C_ 0.78198 0.102653 0.714232 -0.11473
C_ C_ 0.562873 0.129532 0.784747 -0.11473
C_ C_ 0.823077 0.120559 0.77955 -0.11473
C_ C_ 0.563755 0.12453 0.707557 -0.11473
C_ C_ 0.799993 0.138208 0.712876 -0.11473
C_ C_ 0.536797 0.0719261 0.748037 -0.02249
C_ C_ 0.785051 0.0755044 0.749276 -0.02249
C_ C_ 0.592642 0.182509 0.745152 0.6875
C_ C_ 0.84044 0.182775 0.743293 0.6875
C_ C_ 0.543301 0.0929917 0.784425 -0.11473
C_ C_ 0.807242 0.0831283 0.780857 -0.11473
C_ C_ 0.635552 0.280916 0.874098 0.17695
C_ C_ 0.853713 0.215591 0.874209 0.17695
C_ C_ 0.634146 0.207568 0.870992 0.17695
C_ C_ 0.893329 0.263853 0.877728 0.17695
C_ C_ 0.629801 0.203172 0.913733 -0.11473
C_ C_ 0.88693 0.272557 0.92019 -0.11473
C_ C_ 0.633163 0.238409 0.937882 0.23465
C_ C_ 0.866581 0.246948 0.941596 0.23465
C_ C_ 0.636071 0.277858 0.918797 -0.11473
C_ C_ 0.849148 0.219772 0.917817 -0.11473
C_ C_ 0.611894 0.219506 0.617016 0.17695
C_ C_ 0.904044 0.24768 0.622472 0.17695
C_ C_ 0.628935 0.289881 0.62339 0.17695
C_ C_ 0.850824 0.25499 0.615932 0.17695
C_ C_ 0.630311 0.291974 0.579866 -0.11473
C_ C_ 0.853299 0.25448 0.570444 -0.11473
C_ C_ 0.621075 0.258492 0.553401 0.23465
C_ C_ 0.882527 0.25087 0.551895 0.23465
C_ C_ 0.611498 0.222289 0.574364 -0.11473
C_ C_ 0.907406 0.248421 0.577329 -0.11473
C_ C_ 0.534287 0.496734 0.762543 0.05793
C_ C_ 0.786686 0.49793 0.749244 0.05793
C_ C_ 0.722116 -0.00390299999999999 0.750517 0.05793
C_ C_ 0.970213 -0.0018359999999999488 0.746767 0.05793
Br Br 0.575254 0.499276 0.778693 -0.17191
Br Br 0.829952 0.497772 0.754003 -0.17191
Br Br 0.680143 -0.001538999999999957 0.762423 -0.17191
Br Br 0.927599 -0.0045640000000000125 0.762453 -0.17191
N_ N_ 0.633366 0.244057 0.851297 -0.272
N_ N_ 0.875895 0.237355 0.855591 -0.272
N_ N_ 0.631108 0.234566 0.98266 -0.12501
N_ N_ 0.86344 0.245281 0.986256 -0.12501
N_ N_ 0.621304 0.252931 0.642487 -0.272
N_ N_ 0.876302 0.249183 0.640723 -0.272
N_ N_ 0.620838 0.265973 0.509196 -0.12501
N_ N_ 0.885951 0.242718 0.507409 -0.12501
O_ O_ 0.594009 0.288124 0.719617 -0.60745
O_ O_ 0.839833 0.281819 0.717089 -0.60745
O_ O_ 0.597298 0.287379 0.788338 -0.60745
O_ O_ 0.844669 0.289687 0.785268 -0.60745
O_ O_ 0.657775 0.291653 0.782408 -0.60745
O_ O_ 0.906566 0.291644 0.787883 -0.60745
O_ O_ 0.654663 0.296614 0.711953 -0.60745
O_ O_ 0.905105 0.292541 0.71774 -0.60745
O_ O_ 0.661123 0.205843 0.778939 -0.60745
O_ O_ 0.906451 0.199918 0.78323 -0.60745
O_ O_ 0.661215 0.20758 0.709336 -0.60745
O_ O_ 0.908291 0.20432 0.714835 -0.60745
O_ O_ 0.600706 0.196963 0.710173 -0.60745
O_ O_ 0.846824 0.198254 0.70783 -0.60745
O_ O_ 0.600206 0.200896 0.778587 -0.60745
O_ O_ 0.848221 0.200608 0.776595 -0.60745
Zn Zn 0.623035 0.752678 0.281743 0.9476
Zn Zn 0.87224 0.755679 0.286503 0.9476
Zn Zn 0.626435 0.754061 0.210134 0.9476
Zn Zn 0.872907 0.754917 0.217786 0.9476
H_ H_ 0.550356 0.931925 0.17735 0.10932
H_ H_ 0.769902 0.914462 0.191745 0.10932
H_ H_ 0.548017 0.836877 0.296598 0.10932
H_ H_ 0.82516 0.868499 0.321672 0.10932
H_ H_ 0.578151 0.868359 0.176657 0.10932
H_ H_ 0.801886 0.849248 0.189377 0.10932
H_ H_ 0.517675 0.905867 0.301271 0.10932
H_ H_ 0.792491 0.927378 0.326439 0.10932
H_ H_ 0.715257 0.914308 0.319721 0.10932
H_ H_ 0.96206 0.926644 0.309144 0.10932
H_ H_ 0.679469 0.861098 0.187067 0.10932
H_ H_ 0.938183 0.853046 0.176213 0.10932
H_ H_ 0.680333 0.853906 0.318906 0.10932
H_ H_ 0.929798 0.867297 0.311517 0.10932
H_ H_ 0.705784 0.925757 0.18736 0.10932
H_ H_ 0.970751 0.916233 0.178122 0.10932
H_ H_ 0.697905 0.5684 0.30624 0.10932
H_ H_ 0.949177 0.577204 0.319701 0.10932
H_ H_ 0.708815 0.670248 0.187983 0.10932
H_ H_ 0.945186 0.667771 0.190567 0.10932
H_ H_ 0.680813 0.637748 0.314686 0.10932
H_ H_ 0.918358 0.639587 0.318627 0.10932
H_ H_ 0.734964 0.602798 0.188635 0.10932
H_ H_ 0.981931 0.60724 0.194708 0.10932
H_ H_ 0.527149 0.595429 0.17398 0.10932
H_ H_ 0.807225 0.560889 0.203605 0.10932
H_ H_ 0.567705 0.64552 0.312335 0.10932
H_ H_ 0.797257 0.662517 0.319711 0.10932
H_ H_ 0.558592 0.656845 0.177114 0.10932
H_ H_ 0.836731 0.626367 0.201231 0.10932
H_ H_ 0.539617 0.583142 0.307921 0.10932
H_ H_ 0.763087 0.604068 0.317065 0.10932
H_ H_ 0.626862 0.685081 0.355416 0.10932
H_ H_ 0.830317 0.742529 0.364121 0.10932
H_ H_ 0.630883 0.816813 0.35288 0.10932
H_ H_ 0.919393 0.780023 0.35734 0.10932
H_ H_ 0.626487 0.8211 0.428147 0.10932
H_ H_ 0.927578 0.778163 0.433483 0.10932
H_ H_ 0.630129 0.686419 0.43666 0.10932
H_ H_ 0.833182 0.742493 0.442907 0.10932
H_ H_ 0.585647 0.763836 0.130245 0.10932
H_ H_ 0.863474 0.68635 0.142018 0.10932
H_ H_ 0.67996 0.746284 0.140173 0.10932
H_ H_ 0.868496 0.81533 0.147594 0.10932
H_ H_ 0.683561 0.742337 0.0678934 0.10932
H_ H_ 0.862479 0.822699 0.0704042 0.10932
H_ H_ 0.587274 0.760868 0.0551553 0.10932
H_ H_ 0.864475 0.687876 0.0605471 0.10932
C_ C_ 0.565453 0.848759 0.237236 -0.02249
C_ C_ 0.816327 0.853698 0.254342 -0.02249
C_ C_ 0.513283 0.962898 0.236111 -0.02249
C_ C_ 0.763028 0.965778 0.25706 -0.02249
C_ C_ 0.547646 0.911151 0.203302 -0.11473
C_ C_ 0.782295 0.901696 0.219404 -0.11473
C_ C_ 0.548694 0.85992 0.272441 -0.11473
C_ C_ 0.811793 0.876085 0.293621 -0.11473
C_ C_ 0.563472 0.873739 0.201641 -0.11473
C_ C_ 0.801525 0.868877 0.217236 -0.11473
C_ C_ 0.531435 0.922638 0.238392 -0.02249
C_ C_ 0.780323 0.926028 0.257195 -0.02249
C_ C_ 0.584282 0.811575 0.241736 0.6875
C_ C_ 0.833185 0.814515 0.255376 0.6875
C_ C_ 0.533066 0.897663 0.274241 -0.11473
C_ C_ 0.794819 0.912148 0.295404 -0.11473
C_ C_ 0.678998 0.853242 0.252635 -0.02249
C_ C_ 0.929588 0.854905 0.243483 -0.02249
C_ C_ 0.730074 0.967379 0.255316 -0.02249
C_ C_ 0.985135 0.964032 0.242201 -0.02249
C_ C_ 0.703037 0.908127 0.292603 -0.11473
C_ C_ 0.959093 0.909133 0.280224 -0.11473
C_ C_ 0.686639 0.873054 0.216397 -0.11473
C_ C_ 0.942043 0.869038 0.205394 -0.11473
C_ C_ 0.683639 0.872556 0.290668 -0.11473
C_ C_ 0.939458 0.87568 0.280825 -0.11473
C_ C_ 0.711372 0.928867 0.255238 -0.02249
C_ C_ 0.968663 0.924954 0.242335 -0.02249
C_ C_ 0.663408 0.813031 0.249389 0.6875
C_ C_ 0.912474 0.81497 0.245615 0.6875
C_ C_ 0.701112 0.911464 0.21608 -0.11473
C_ C_ 0.962214 0.904225 0.204772 -0.11473
C_ C_ 0.687294 0.6574 0.24988 -0.02249
C_ C_ 0.930563 0.659793 0.25587 -0.02249
C_ C_ 0.733454 0.539424 0.245579 -0.02249
C_ C_ 0.979743 0.545622 0.251543 -0.02249
C_ C_ 0.698824 0.589698 0.27907 -0.11473
C_ C_ 0.947384 0.59685 0.289643 -0.11473
C_ C_ 0.706407 0.648533 0.215335 -0.11473
C_ C_ 0.947019 0.648313 0.219736 -0.11473
C_ C_ 0.689124 0.630106 0.285508 -0.11473
C_ C_ 0.932202 0.634342 0.291488 -0.11473
C_ C_ 0.716619 0.579516 0.242781 -0.02249
C_ C_ 0.963545 0.585202 0.254272 -0.02249
C_ C_ 0.667751 0.697123 0.249248 0.6875
C_ C_ 0.913193 0.697064 0.254012 0.6875
C_ C_ 0.718363 0.608943 0.212274 -0.11473
C_ C_ 0.965447 0.611703 0.219603 -0.11473
C_ C_ 0.567885 0.655442 0.243914 -0.02249
C_ C_ 0.81704 0.65138 0.258395 -0.02249
C_ C_ 0.513903 0.544946 0.24226 -0.02249
C_ C_ 0.76441 0.539726 0.25982 -0.02249
C_ C_ 0.534409 0.608926 0.205571 -0.11473
C_ C_ 0.803522 0.585042 0.227225 -0.11473
C_ C_ 0.560675 0.635366 0.280814 -0.11473
C_ C_ 0.799159 0.641022 0.292724 -0.11473
C_ C_ 0.554247 0.642303 0.205976 -0.11473
C_ C_ 0.820628 0.621336 0.226109 -0.11473
C_ C_ 0.531416 0.584668 0.241187 -0.02249
C_ C_ 0.78255 0.577764 0.258891 -0.02249
C_ C_ 0.588535 0.691345 0.244574 0.6875
C_ C_ 0.833884 0.690924 0.258516 0.6875
C_ C_ 0.54381 0.598465 0.279162 -0.11473
C_ C_ 0.780586 0.605512 0.292165 -0.11473
C_ C_ 0.626208 0.713345 0.37415 0.17695
C_ C_ 0.852319 0.742165 0.380811 0.17695
C_ C_ 0.625733 0.787585 0.372185 0.17695
C_ C_ 0.903541 0.765196 0.374688 0.17695
C_ C_ 0.625777 0.790098 0.414119 -0.11473
C_ C_ 0.90708 0.765196 0.418851 -0.11473
C_ C_ 0.62552 0.754231 0.438459 0.23465
C_ C_ 0.881736 0.757342 0.443527 0.23465
C_ C_ 0.629575 0.714966 0.419308 -0.11473
C_ C_ 0.853963 0.747076 0.424691 -0.11473
C_ C_ 0.606329 0.756993 0.117058 0.17695
C_ C_ 0.86536 0.716904 0.123527 0.17695
C_ C_ 0.658921 0.74914 0.12159 0.17695
C_ C_ 0.863858 0.789636 0.127309 0.17695
C_ C_ 0.662108 0.749206 0.0790519 -0.11473
C_ C_ 0.861666 0.791527 0.0837535 -0.11473
C_ C_ 0.636575 0.754986 0.052728 0.23465
C_ C_ 0.864223 0.755928 0.0591445 0.23465
C_ C_ 0.608936 0.76253 0.0712408 -0.11473
C_ C_ 0.867275 0.717366 0.0795573 -0.11473
C_ C_ 0.527552 1.00248056 0.229052 0.05793
C_ C_ 0.779545 1.00183622 0.25865 0.05793
C_ C_ 0.719345 0.502973 0.235255 0.05793
C_ C_ 0.96368 0.506648 0.25014 0.05793
Br Br 0.571184 1.00244961 0.234483 -0.17191
Br Br 0.823143 1.00423 0.259748 -0.17191
Br Br 0.678705 0.507006 0.208978 -0.17191
Br Br 0.922469 0.508071 0.233919 -0.17191
N_ N_ 0.624804 0.749985 0.352128 -0.272
N_ N_ 0.876888 0.752065 0.357162 -0.272
N_ N_ 0.625182 0.758955 0.483568 -0.12501
N_ N_ 0.886812 0.758968 0.488456 -0.12501
N_ N_ 0.632036 0.754883 0.141032 -0.272
N_ N_ 0.867132 0.753094 0.146481 -0.272
N_ N_ 0.639492 0.75086 0.00781056 -0.12501
N_ N_ 0.858402 0.759498 0.0153206 -0.12501
O_ O_ 0.58802 0.788306 0.210505 -0.60745
O_ O_ 0.841714 0.796315 0.222376 -0.60745
O_ O_ 0.592952 0.799744 0.277926 -0.60745
O_ O_ 0.84261 0.800845 0.289518 -0.60745
O_ O_ 0.657096 0.792241 0.281605 -0.60745
O_ O_ 0.907172 0.797992 0.281077 -0.60745
O_ O_ 0.650338 0.803761 0.213559 -0.60745
O_ O_ 0.901218 0.800539 0.212439 -0.60745
O_ O_ 0.652443 0.706644 0.281014 -0.60745
O_ O_ 0.899527 0.7075 0.287764 -0.60745
O_ O_ 0.663453 0.714949 0.214255 -0.60745
O_ O_ 0.903737 0.711769 0.217782 -0.60745
O_ O_ 0.603212 0.702603 0.212025 -0.60745
O_ O_ 0.840418 0.705616 0.222603 -0.60745
O_ O_ 0.588491 0.716059 0.275981 -0.60745
O_ O_ 0.840732 0.708685 0.292272 -0.60745
Zn Zn 0.629078 0.746166 0.782867 0.9476
Zn Zn 0.87782 0.746765 0.784338 0.9476
Zn Zn 0.628769 0.747122 0.71224 0.9476
Zn Zn 0.873989 0.747341 0.714024 0.9476
H_ H_ 0.540805 0.916147 0.677732 0.10932
H_ H_ 0.767218 0.898057 0.690548 0.10932
H_ H_ 0.558884 0.839454 0.807374 0.10932
H_ H_ 0.827589 0.861454 0.811908 0.10932
H_ H_ 0.577469 0.857164 0.677304 0.10932
H_ H_ 0.803051 0.840664 0.682392 0.10932
H_ H_ 0.528762 0.904797 0.80948 0.10932
H_ H_ 0.809128 0.934449 0.803662 0.10932
H_ H_ 0.734214 0.898107 0.814509 0.10932
H_ H_ 0.971482 0.912263 0.81678 0.10932
H_ H_ 0.681114 0.859027 0.681422 0.10932
H_ H_ 0.936834 0.848532 0.684729 0.10932
H_ H_ 0.705045 0.832908 0.809453 0.10932
H_ H_ 0.93639 0.852664 0.818894 0.10932
H_ H_ 0.70541 0.924677 0.686408 0.10932
H_ H_ 0.964345 0.91087 0.684557 0.10932
H_ H_ 0.704246 0.562445 0.805464 0.10932
H_ H_ 0.967456 0.580313 0.820641 0.10932
H_ H_ 0.707069 0.664296 0.689629 0.10932
H_ H_ 0.931261 0.641804 0.683998 0.10932
H_ H_ 0.669246 0.621093 0.807398 0.10932
H_ H_ 0.937591 0.644208 0.816381 0.10932
H_ H_ 0.736879 0.602088 0.686801 0.10932
H_ H_ 0.962178 0.57804 0.683776 0.10932
H_ H_ 0.549575 0.566078 0.690552 0.10932
H_ H_ 0.812811 0.558987 0.690025 0.10932
H_ H_ 0.555506 0.658924 0.810889 0.10932
H_ H_ 0.803796 0.654777 0.807083 0.10932
H_ H_ 0.584697 0.621336 0.689489 0.10932
H_ H_ 0.827875 0.634026 0.679027 0.10932
H_ H_ 0.531401 0.598324 0.820204 0.10932
H_ H_ 0.767887 0.598882 0.802768 0.10932
H_ H_ 0.580152 0.726787 0.850585 0.10932
H_ H_ 0.895345 0.683746 0.861235 0.10932
H_ H_ 0.670835 0.762763 0.857576 0.10932
H_ H_ 0.858256 0.804479 0.863008 0.10932
H_ H_ 0.668344 0.775348 0.932879 0.10932
H_ H_ 0.847599 0.796584 0.938793 0.10932
H_ H_ 0.574927 0.741784 0.927639 0.10932
H_ H_ 0.889522 0.679392 0.940668 0.10932
H_ H_ 0.642185 0.680792 0.643333 0.10932
H_ H_ 0.884963 0.809908 0.639217 0.10932
H_ H_ 0.613472 0.805469 0.6287 0.10932
H_ H_ 0.868205 0.681632 0.646934 0.10932
H_ H_ 0.610513 0.794898 0.553872 0.10932
H_ H_ 0.86383 0.679194 0.566722 0.10932
H_ H_ 0.651936 0.675823 0.56535 0.10932
H_ H_ 0.881223 0.807174 0.560627 0.10932
C_ C_ 0.569702 0.842734 0.74368 -0.02249
C_ C_ 0.818376 0.844638 0.747472 -0.02249
C_ C_ 0.517487 0.956845 0.744311 -0.02249
C_ C_ 0.768805 0.960159 0.745187 -0.02249
C_ C_ 0.546924 0.900633 0.706284 -0.11473
C_ C_ 0.785669 0.894591 0.711578 -0.11473
C_ C_ 0.554948 0.855693 0.779773 -0.11473
C_ C_ 0.818617 0.870863 0.782275 -0.11473
C_ C_ 0.563836 0.864494 0.706087 -0.11473
C_ C_ 0.80201 0.85844 0.711513 -0.11473
C_ C_ 0.534329 0.916393 0.743989 -0.02249
C_ C_ 0.78625 0.9202 0.746971 -0.02249
C_ C_ 0.590731 0.807884 0.743187 0.6875
C_ C_ 0.839548 0.807949 0.746961 0.6875
C_ C_ 0.536751 0.89134 0.779922 -0.11473
C_ C_ 0.804969 0.90968 0.781179 -0.11473
C_ C_ 0.687089 0.844565 0.748601 -0.02249
C_ C_ 0.936162 0.842631 0.750815 -0.02249
C_ C_ 0.738362 0.958669 0.751549 -0.02249
C_ C_ 0.986179 0.959815 0.747476 -0.02249
C_ C_ 0.721279 0.891575 0.785295 -0.11473
C_ C_ 0.963442 0.899594 0.787817 -0.11473
C_ C_ 0.692417 0.867394 0.710552 -0.11473
C_ C_ 0.942647 0.863066 0.713075 -0.11473
C_ C_ 0.703672 0.855779 0.784588 -0.11473
C_ C_ 0.944892 0.862419 0.788432 -0.11473
C_ C_ 0.721616 0.917612 0.749998 -0.02249
C_ C_ 0.96859 0.918393 0.749938 -0.02249
C_ C_ 0.668326 0.807666 0.748074 0.6875
C_ C_ 0.918304 0.802505 0.751224 0.6875
C_ C_ 0.706932 0.903912 0.713217 -0.11473
C_ C_ 0.960398 0.895905 0.7131 -0.11473
C_ C_ 0.686367 0.649912 0.748215 -0.02249
C_ C_ 0.933375 0.647921 0.74963 -0.02249
C_ C_ 0.738273 0.535721 0.743688 -0.02249
C_ C_ 0.985212 0.535933 0.752728 -0.02249
C_ C_ 0.703456 0.584245 0.779055 -0.11473
C_ C_ 0.962898 0.594979 0.788826 -0.11473
C_ C_ 0.704116 0.640818 0.712746 -0.11473
C_ C_ 0.939511 0.628763 0.713045 -0.11473
C_ C_ 0.686741 0.619934 0.782691 -0.11473
C_ C_ 0.945319 0.632245 0.786506 -0.11473
C_ C_ 0.720973 0.575928 0.744636 -0.02249
C_ C_ 0.969387 0.574636 0.750483 -0.02249
C_ C_ 0.666744 0.685909 0.748971 0.6875
C_ C_ 0.91432 0.685356 0.748936 0.6875
C_ C_ 0.719295 0.602261 0.709473 -0.11473
C_ C_ 0.954891 0.589692 0.713875 -0.11473
C_ C_ 0.569647 0.651265 0.7459 -0.02249
C_ C_ 0.81662 0.650177 0.744168 -0.02249
C_ C_ 0.518229 0.533896 0.758484 -0.02249
C_ C_ 0.770892 0.535351 0.744801 -0.02249
C_ C_ 0.55019 0.585671 0.718594 -0.11473
C_ C_ 0.805554 0.5845 0.711256 -0.11473
C_ C_ 0.553979 0.641589 0.781554 -0.11473
C_ C_ 0.800158 0.639564 0.778111 -0.11473
C_ C_ 0.569532 0.620631 0.715346 -0.11473
C_ C_ 0.818418 0.622636 0.708555 -0.11473
C_ C_ 0.534805 0.574686 0.75637 -0.02249
C_ C_ 0.787212 0.574124 0.745141 -0.02249
C_ C_ 0.590021 0.685737 0.744151 0.6875
C_ C_ 0.835224 0.68916 0.74485 0.6875
C_ C_ 0.538465 0.605165 0.78849 -0.11473
C_ C_ 0.782534 0.604474 0.776909 -0.11473
C_ C_ 0.598681 0.737668 0.868573 0.17695
C_ C_ 0.885531 0.709724 0.877111 0.17695
C_ C_ 0.649648 0.758394 0.870929 0.17695
C_ C_ 0.864261 0.776294 0.878771 0.17695
C_ C_ 0.649969 0.761577 0.915607 -0.11473
C_ C_ 0.859396 0.773599 0.923606 -0.11473
C_ C_ 0.62236 0.75225 0.936402 0.23465
C_ C_ 0.870244 0.737749 0.944761 0.23465
C_ C_ 0.596066 0.745895 0.911843 -0.11473
C_ C_ 0.882033 0.706833 0.921179 -0.11473
C_ C_ 0.642456 0.709774 0.623411 0.17695
C_ C_ 0.880237 0.781253 0.622261 0.17695
C_ C_ 0.620367 0.775508 0.615824 0.17695
C_ C_ 0.86977 0.709374 0.626654 0.17695
C_ C_ 0.62146 0.771052 0.571985 -0.11473
C_ C_ 0.868092 0.707251 0.582903 -0.11473
C_ C_ 0.634941 0.735917 0.552768 0.23465
C_ C_ 0.875165 0.743565 0.559327 0.23465
C_ C_ 0.644541 0.705346 0.580493 -0.11473
C_ C_ 0.881557 0.780555 0.579147 -0.11473
C_ C_ 0.532825 -0.0068350000000000355 0.748764 0.05793
C_ C_ 0.7839 -0.003010999999999986 0.742922 0.05793
C_ C_ 0.723115 0.497649 0.745263 0.05793
C_ C_ 0.968637 0.499108 0.754023 0.05793
Br Br 0.573831 -0.00819700000000001 0.768696 -0.17191
Br Br 0.824501 0.997847 0.722907 -0.17191
Br Br 0.680228 0.495013 0.732543 -0.17191
Br Br 0.924032 0.50007 0.754702 -0.17191
N_ N_ 0.626323 0.740773 0.850057 -0.272
N_ N_ 0.87428 0.742944 0.855253 -0.272
N_ N_ 0.619549 0.759496 0.981103 -0.12501
N_ N_ 0.870279 0.734126 0.990419 -0.12501
N_ N_ 0.629534 0.743938 0.640319 -0.272
N_ N_ 0.875678 0.745992 0.646305 -0.272
N_ N_ 0.635822 0.731783 0.508513 -0.12501
N_ N_ 0.869631 0.743701 0.514496 -0.12501
O_ O_ 0.595344 0.790504 0.709466 -0.60745
O_ O_ 0.848003 0.794434 0.712237 -0.60745
O_ O_ 0.599983 0.793471 0.77766 -0.60745
O_ O_ 0.846673 0.79153 0.781518 -0.60745
O_ O_ 0.661525 0.790416 0.782401 -0.60745
O_ O_ 0.909106 0.789488 0.785498 -0.60745
O_ O_ 0.657213 0.794231 0.71285 -0.60745
O_ O_ 0.908372 0.787023 0.717894 -0.60745
O_ O_ 0.65437 0.696094 0.783134 -0.60745
O_ O_ 0.908243 0.702212 0.783542 -0.60745
O_ O_ 0.662301 0.707204 0.714772 -0.60745
O_ O_ 0.903488 0.700078 0.715492 -0.60745
O_ O_ 0.600307 0.697118 0.70986 -0.60745
O_ O_ 0.836129 0.711435 0.712087 -0.60745
O_ O_ 0.596811 0.705863 0.77725 -0.60745
O_ O_ 0.846759 0.701282 0.779345 -0.60745
_cell_length_a 44.444
_cell_length_b 32.3360000049186
_cell_length_c 31.843999878906452
_cell_angle_alpha 89.99799923859553
_cell_angle_beta 91.13600050494348
_cell_angle_gamma 89.9990006550086
_symmetry_space_group_name_H-M         'P 1'
_symmetry_Int_Tables_number            1
loop_
_symmetry_equiv_pos_as_xyz
   'x, y, z'
                         
loop_
_atom_site_label
_atom_site_type_symbol
_atom_site_fract_x 
_atom_site_fract_y
_atom_site_fract_z
_atom_site_charge
Zn Zn 0.121019 0.256476 0.293132 0.9476
Zn Zn 0.377048 0.252183 0.279028 0.9476
Zn Zn 0.12255 0.255483 0.221377 0.9476
Zn Zn 0.373471 0.252755 0.211397 0.9476
H_ H_ 0.0275857 0.420098 0.186136 0.10932
H_ H_ 0.286017 0.42621 0.178936 0.10932
H_ H_ 0.0636204 0.365133 0.322788 0.10932
H_ H_ 0.299872 0.341801 0.307483 0.10932
H_ H_ 0.05222 0.34907 0.188542 0.10932
H_ H_ 0.317401 0.361256 0.175988 0.10932
H_ H_ 0.0358096 0.431147 0.320149 0.10932
H_ H_ 0.277554 0.409783 0.312293 0.10932
H_ H_ 0.217045 0.426456 0.31551 0.10932
H_ H_ 0.493817 0.395705 0.296949 0.10932
H_ H_ 0.184558 0.348851 0.187972 0.10932
H_ H_ 0.411807 0.378889 0.188381 0.10932
H_ H_ 0.176376 0.371881 0.319889 0.10932
H_ H_ 0.464694 0.333561 0.293412 0.10932
H_ H_ 0.217898 0.408604 0.18201 0.10932
H_ H_ 0.435951 0.449989 0.201433 0.10932
H_ H_ 0.204766 0.0804235 0.319549 0.10932
H_ H_ 0.465369 0.0811777 0.304429 0.10932
H_ H_ 0.188612 0.157377 0.189821 0.10932
H_ H_ 0.442016 0.154594 0.174309 0.10932
H_ H_ 0.169415 0.136485 0.315051 0.10932
H_ H_ 0.444178 0.154792 0.305746 0.10932
H_ H_ 0.222205 0.096712 0.187372 0.10932
H_ H_ 0.460486 0.0841852 0.171144 0.10932
H_ H_ 0.0226953 0.0922796 0.184623 0.10932
H_ H_ 0.291036 0.0743356 0.185257 0.10932
H_ H_ 0.0754257 0.136936 0.315023 0.10932
H_ H_ 0.305037 0.156906 0.314831 0.10932
H_ H_ 0.0491205 0.163298 0.187792 0.10932
H_ H_ 0.320882 0.140015 0.182792 0.10932
H_ H_ 0.0399246 0.076776 0.315702 0.10932
H_ H_ 0.274798 0.0937561 0.313675 0.10932
H_ H_ 0.128468 0.315351 0.372714 0.10932
H_ H_ 0.378422 0.314623 0.361673 0.10932
H_ H_ 0.1281 0.186139 0.357005 0.10932
H_ H_ 0.378203 0.183795 0.347663 0.10932
H_ H_ 0.126974 0.177103 0.434964 0.10932
H_ H_ 0.384923 0.178367 0.423335 0.10932
H_ H_ 0.133397 0.304509 0.454078 0.10932
H_ H_ 0.375865 0.307126 0.437729 0.10932
H_ H_ 0.127051 0.315508 0.14501 0.10932
H_ H_ 0.369156 0.316051 0.130487 0.10932
H_ H_ 0.121487 0.186907 0.15037 0.10932
H_ H_ 0.376569 0.186465 0.147071 0.10932
H_ H_ 0.124745 0.17787 0.0761159 0.10932
H_ H_ 0.378146 0.175531 0.0702745 0.10932
H_ H_ 0.131281 0.312021 0.0647353 0.10932
H_ H_ 0.370003 0.306806 0.0552661 0.10932
C_ C_ 0.0587599 0.351632 0.257281 -0.02249
C_ C_ 0.316596 0.348451 0.244772 -0.02249
C_ C_ 0.0103235 0.46735 0.254194 -0.02249
C_ C_ 0.264386 0.462423 0.245553 -0.02249
C_ C_ 0.0349034 0.407825 0.215731 -0.11473
C_ C_ 0.290437 0.406019 0.206979 -0.11473
C_ C_ 0.0543087 0.375039 0.293055 -0.11473
C_ C_ 0.302041 0.362326 0.280912 -0.11473
C_ C_ 0.0476771 0.367761 0.218436 -0.11473
C_ C_ 0.308419 0.368836 0.207035 -0.11473
C_ C_ 0.0258739 0.426788 0.254179 -0.02249
C_ C_ 0.280378 0.42157 0.245611 -0.02249
C_ C_ 0.079047 0.313874 0.257048 0.6875
C_ C_ 0.335034 0.310388 0.244242 0.6875
C_ C_ 0.0355833 0.410071 0.292981 -0.11473
C_ C_ 0.287712 0.399422 0.282713 -0.11473
C_ C_ 0.181523 0.352539 0.257125 -0.02249
C_ C_ 0.435232 0.349855 0.24097 -0.02249
C_ C_ 0.233256 0.463996 0.24536 -0.02249
C_ C_ 0.485014 0.466374 0.249374 -0.02249
C_ C_ 0.207542 0.408966 0.288386 -0.11473
C_ C_ 0.475976 0.392575 0.272443 -0.11473
C_ C_ 0.193392 0.363116 0.217593 -0.11473
C_ C_ 0.429525 0.382094 0.211086 -0.11473
C_ C_ 0.18991 0.374541 0.293511 -0.11473
C_ C_ 0.458091 0.357104 0.272529 -0.11473
C_ C_ 0.21619 0.424607 0.248747 -0.02249
C_ C_ 0.468504 0.425837 0.246816 -0.02249
C_ C_ 0.162221 0.314544 0.259357 0.6875
C_ C_ 0.416788 0.310463 0.241782 0.6875
C_ C_ 0.210842 0.399978 0.213304 -0.11473
C_ C_ 0.443639 0.421184 0.217182 -0.11473
C_ C_ 0.180118 0.156318 0.253874 -0.02249
C_ C_ 0.43418 0.156887 0.240999 -0.02249
C_ C_ 0.230994 0.0400499 0.254131 -0.02249
C_ C_ 0.480691 0.0384001 0.239064 -0.02249
C_ C_ 0.19896 0.0926865 0.288162 -0.11473
C_ C_ 0.458093 0.0965341 0.277114 -0.11473
C_ C_ 0.193353 0.141645 0.218292 -0.11473
C_ C_ 0.440083 0.135713 0.203356 -0.11473
C_ C_ 0.18208 0.12932 0.288004 -0.11473
C_ C_ 0.442494 0.136408 0.277793 -0.11473
C_ C_ 0.213551 0.0806114 0.25259 -0.02249
C_ C_ 0.464726 0.07789 0.238885 -0.02249
C_ C_ 0.159485 0.192944 0.254787 0.6875
C_ C_ 0.416795 0.197312 0.243564 0.6875
C_ C_ 0.210972 0.105398 0.216517 -0.11473
C_ C_ 0.454001 0.0955615 0.201203 -0.11473
C_ C_ 0.0619318 0.156499 0.252118 -0.02249
C_ C_ 0.315577 0.155816 0.247927 -0.02249
C_ C_ 0.0162587 0.0400926 0.245639 -0.02249
C_ C_ 0.26264 0.0399758 0.252386 -0.02249
C_ C_ 0.0315883 0.105373 0.213114 -0.11473
C_ C_ 0.294258 0.0931275 0.212616 -0.11473
C_ C_ 0.0586786 0.132377 0.28922 -0.11473
C_ C_ 0.303314 0.139873 0.285584 -0.11473
C_ C_ 0.048462 0.142577 0.214832 -0.11473
C_ C_ 0.312852 0.129136 0.212988 -0.11473
C_ C_ 0.0320585 0.0791651 0.247017 -0.02249
C_ C_ 0.280192 0.0803401 0.250203 -0.02249
C_ C_ 0.0806478 0.194344 0.251125 0.6875
C_ C_ 0.334414 0.193963 0.245807 0.6875
C_ C_ 0.0417907 0.0945194 0.28643 -0.11473
C_ C_ 0.284821 0.104648 0.286184 -0.11473
C_ C_ 0.129396 0.285446 0.387852 0.17695
C_ C_ 0.377749 0.282799 0.374081 0.17695
C_ C_ 0.12549 0.211845 0.379982 0.17695
C_ C_ 0.377769 0.212099 0.367274 0.17695
C_ C_ 0.125409 0.206648 0.423114 -0.11473
C_ C_ 0.37708 0.206971 0.409525 -0.11473
C_ C_ 0.124098 0.23983 0.45061 0.23465
C_ C_ 0.374689 0.240167 0.436941 0.23465
C_ C_ 0.128521 0.280578 0.432356 -0.11473
C_ C_ 0.377407 0.27964 0.41983 -0.11473
C_ C_ 0.126346 0.285586 0.126628 0.17695
C_ C_ 0.37216 0.285798 0.117568 0.17695
C_ C_ 0.126939 0.21368 0.132733 0.17695
C_ C_ 0.373673 0.2128 0.126451 0.17695
C_ C_ 0.127841 0.208753 0.0890901 -0.11473
C_ C_ 0.376455 0.207031 0.0821528 -0.11473
C_ C_ 0.130146 0.243694 0.0631701 0.23465
C_ C_ 0.376308 0.240679 0.0562028 0.23465
C_ C_ 0.131311 0.282108 0.0832875 -0.11473
C_ C_ 0.371436 0.280521 0.0737044 -0.11473
C_ C_ 0.0261831 0.505099 0.255328 0.05793
C_ C_ 0.281093 0.499557 0.245994 0.05793
C_ C_ 0.216921 0.00149011 0.248536 0.05793
C_ C_ 0.464745 0.99980863 0.239876 0.05793
Br Br 0.0698011 0.499826 0.263261 -0.17191
Br Br 0.323892 0.500452 0.258206 -0.17191
Br Br 0.173547 0.00016015 0.239538 -0.17191
Br Br 0.421575 1.00115 0.249202 -0.17191
N_ N_ 0.123387 0.251076 0.363462 -0.272
N_ N_ 0.377379 0.249323 0.348918 -0.272
N_ N_ 0.121519 0.231682 0.494548 -0.12501
N_ N_ 0.372347 0.233767 0.481181 -0.12501
N_ N_ 0.122818 0.250991 0.149994 -0.272
N_ N_ 0.372966 0.25176 0.14335 -0.272
N_ N_ 0.134601 0.237588 0.0172223 -0.12501
N_ N_ 0.375449 0.232794 0.0128139 -0.12501
O_ O_ 0.0908616 0.298351 0.22322 -0.60745
O_ O_ 0.339614 0.292703 0.208268 -0.60745
O_ O_ 0.0879177 0.301865 0.293042 -0.60745
O_ O_ 0.347376 0.296047 0.277258 -0.60745
O_ O_ 0.151451 0.301853 0.294766 -0.60745
O_ O_ 0.410596 0.295382 0.2782 -0.60745
O_ O_ 0.152978 0.299865 0.225683 -0.60745
O_ O_ 0.402226 0.297809 0.209747 -0.60745
O_ O_ 0.154243 0.210118 0.291026 -0.60745
O_ O_ 0.407477 0.207343 0.279012 -0.60745
O_ O_ 0.153461 0.211912 0.221146 -0.60745
O_ O_ 0.406394 0.215623 0.211399 -0.60745
O_ O_ 0.0903305 0.209671 0.21686 -0.60745
O_ O_ 0.3463 0.203274 0.210976 -0.60745
O_ O_ 0.0932267 0.206502 0.284753 -0.60745
O_ O_ 0.344257 0.212133 0.279129 -0.60745
Zn Zn 0.127258 0.248309 0.788752 0.9476
Zn Zn 0.372915 0.247063 0.781687 0.9476
Zn Zn 0.125935 0.250389 0.723315 0.9476
Zn Zn 0.375538 0.246655 0.714046 0.9476
H_ H_ 0.0172592 0.402883 0.699409 0.10932
H_ H_ 0.274084 0.407273 0.684278 0.10932
H_ H_ 0.0773822 0.35914 0.821829 0.10932
H_ H_ 0.322315 0.360048 0.815697 0.10932
H_ H_ 0.0556614 0.343533 0.691935 0.10932
H_ H_ 0.303502 0.33924 0.687206 0.10932
H_ H_ 0.0485133 0.423909 0.822537 0.10932
H_ H_ 0.285731 0.417565 0.816683 0.10932
H_ H_ 0.217455 0.412794 0.829347 0.10932
H_ H_ 0.460856 0.424099 0.810758 0.10932
H_ H_ 0.179819 0.364284 0.691739 0.10932
H_ H_ 0.449374 0.337101 0.680405 0.10932
H_ H_ 0.193702 0.342277 0.824472 0.10932
H_ H_ 0.428049 0.360417 0.812327 0.10932
H_ H_ 0.206065 0.430159 0.699816 0.10932
H_ H_ 0.481152 0.402079 0.683787 0.10932
H_ H_ 0.2056 0.0691488 0.817586 0.10932
H_ H_ 0.461639 0.0757466 0.818182 0.10932
H_ H_ 0.197399 0.157234 0.693916 0.10932
H_ H_ 0.434564 0.134075 0.680068 0.10932
H_ H_ 0.175618 0.130263 0.820801 0.10932
H_ H_ 0.430429 0.139105 0.815694 0.10932
H_ H_ 0.225662 0.094163 0.686756 0.10932
H_ H_ 0.468816 0.0760003 0.682816 0.10932
H_ H_ 0.0351519 0.079785 0.69009 0.10932
H_ H_ 0.295478 0.0712232 0.678744 0.10932
H_ H_ 0.0538284 0.154528 0.822737 0.10932
H_ H_ 0.307032 0.148052 0.812911 0.10932
H_ H_ 0.0749067 0.135676 0.691679 0.10932
H_ H_ 0.324494 0.13486 0.681167 0.10932
H_ H_ 0.027084 0.0906458 0.825514 0.10932
H_ H_ 0.274126 0.0854917 0.808644 0.10932
H_ H_ 0.13488 0.321055 0.856491 0.10932
H_ H_ 0.383289 0.313956 0.852085 0.10932
H_ H_ 0.12474 0.191859 0.867484 0.10932
H_ H_ 0.373279 0.184549 0.860524 0.10932
H_ H_ 0.124335 0.197977 0.947242 0.10932
H_ H_ 0.368411 0.192717 0.940931 0.10932
H_ H_ 0.135136 0.329107 0.933972 0.10932
H_ H_ 0.377446 0.319314 0.929178 0.10932
H_ H_ 0.104646 0.18821 0.645188 0.10932
H_ H_ 0.374613 0.188389 0.631971 0.10932
H_ H_ 0.135091 0.310343 0.652347 0.10932
H_ H_ 0.367056 0.316095 0.640964 0.10932
H_ H_ 0.126499 0.318079 0.572737 0.10932
H_ H_ 0.366413 0.325365 0.561889 0.10932
H_ H_ 0.0975308 0.192694 0.569589 0.10932
H_ H_ 0.375571 0.192666 0.556148 0.10932
C_ C_ 0.0668163 0.343988 0.756517 -0.02249
C_ C_ 0.312834 0.344349 0.752465 -0.02249
C_ C_ 0.0165471 0.459555 0.761626 -0.02249
C_ C_ 0.264912 0.461846 0.755487 -0.02249
C_ C_ 0.0322511 0.394683 0.723434 -0.11473
C_ C_ 0.285928 0.39998 0.713377 -0.11473
C_ C_ 0.0656053 0.369062 0.793395 -0.11473
C_ C_ 0.308637 0.367313 0.788411 -0.11473
C_ C_ 0.0528279 0.361365 0.71964 -0.11473
C_ C_ 0.298863 0.358428 0.714643 -0.11473
C_ C_ 0.0317389 0.418032 0.759688 -0.02249
C_ C_ 0.283049 0.422228 0.750943 -0.02249
C_ C_ 0.0885207 0.307703 0.755204 0.6875
C_ C_ 0.332899 0.308142 0.752777 0.6875
C_ C_ 0.0489956 0.405713 0.794669 -0.11473
C_ C_ 0.29234 0.405047 0.788323 -0.11473
C_ C_ 0.186364 0.345664 0.756226 -0.02249
C_ C_ 0.433858 0.344699 0.745743 -0.02249
C_ C_ 0.234954 0.461615 0.766504 -0.02249
C_ C_ 0.48811 0.45667 0.747742 -0.02249
C_ C_ 0.211365 0.400549 0.799807 -0.11473
C_ C_ 0.459385 0.403117 0.785011 -0.11473
C_ C_ 0.191157 0.370511 0.720482 -0.11473
C_ C_ 0.451849 0.353345 0.711312 -0.11473
C_ C_ 0.197649 0.361332 0.796499 -0.11473
C_ C_ 0.43824 0.370963 0.782704 -0.11473
C_ C_ 0.217826 0.423177 0.762075 -0.02249
C_ C_ 0.470652 0.418151 0.747524 -0.02249
C_ C_ 0.167174 0.308416 0.754535 0.6875
C_ C_ 0.415501 0.305114 0.744944 0.6875
C_ C_ 0.207971 0.406972 0.723681 -0.11473
C_ C_ 0.470405 0.390805 0.712297 -0.11473
C_ C_ 0.186177 0.152726 0.7581 -0.02249
C_ C_ 0.429439 0.143992 0.747095 -0.02249
C_ C_ 0.234238 0.0360421 0.74744 -0.02249
C_ C_ 0.486716 0.032369 0.751646 -0.02249
C_ C_ 0.207381 0.0911385 0.791663 -0.11473
C_ C_ 0.455254 0.0875853 0.787665 -0.11473
C_ C_ 0.201472 0.140364 0.722238 -0.11473
C_ C_ 0.441743 0.124904 0.710412 -0.11473
C_ C_ 0.188628 0.125809 0.794052 -0.11473
C_ C_ 0.43816 0.125152 0.785506 -0.11473
C_ C_ 0.220375 0.077379 0.75353 -0.02249
C_ C_ 0.469655 0.0740718 0.751293 -0.02249
C_ C_ 0.166912 0.190178 0.757511 0.6875
C_ C_ 0.409491 0.181237 0.744478 0.6875
C_ C_ 0.21688 0.103704 0.718439 -0.11473
C_ C_ 0.462418 0.0910236 0.712981 -0.11473
C_ C_ 0.0660158 0.150352 0.75781 -0.02249
C_ C_ 0.316004 0.150471 0.744856 -0.02249
C_ C_ 0.0150049 0.038009 0.757076 -0.02249
C_ C_ 0.266784 0.0343547 0.743947 -0.02249
C_ C_ 0.0406504 0.0942947 0.719715 -0.11473
C_ C_ 0.29791 0.0879739 0.708568 -0.11473
C_ C_ 0.0523875 0.136899 0.795029 -0.11473
C_ C_ 0.301584 0.134429 0.781607 -0.11473
C_ C_ 0.0616688 0.127429 0.72099 -0.11473
C_ C_ 0.313657 0.125654 0.709491 -0.11473
C_ C_ 0.0315096 0.0773317 0.757984 -0.02249
C_ C_ 0.284776 0.0730328 0.74475 -0.02249
C_ C_ 0.0861487 0.188997 0.7577 0.6875
C_ C_ 0.333477 0.190349 0.747622 0.6875
C_ C_ 0.0363712 0.0991825 0.795808 -0.11473
C_ C_ 0.285447 0.0967211 0.779619 -0.11473
C_ C_ 0.129641 0.293657 0.87777 0.17695
C_ C_ 0.378459 0.285338 0.871879 0.17695
C_ C_ 0.126222 0.221901 0.884171 0.17695
C_ C_ 0.372778 0.213481 0.87547 0.17695
C_ C_ 0.128971 0.223418 0.927595 -0.11473
C_ C_ 0.373093 0.217922 0.920631 -0.11473
C_ C_ 0.130906 0.261665 0.946966 0.23465
C_ C_ 0.378829 0.25558 0.940721 0.23465
C_ C_ 0.133475 0.298314 0.92043 -0.11473
C_ C_ 0.380959 0.289736 0.915981 -0.11473
C_ C_ 0.110533 0.217024 0.630419 0.17695
C_ C_ 0.37595 0.218478 0.617356 0.17695
C_ C_ 0.12806 0.284767 0.632527 0.17695
C_ C_ 0.365919 0.289988 0.621555 0.17695
C_ C_ 0.124147 0.287628 0.588987 -0.11473
C_ C_ 0.366553 0.293811 0.576854 -0.11473
C_ C_ 0.115292 0.254216 0.565116 0.23465
C_ C_ 0.368205 0.258769 0.552003 0.23465
C_ C_ 0.105684 0.219087 0.586932 -0.11473
C_ C_ 0.374701 0.221282 0.573886 -0.11473
C_ C_ 0.031576 0.496883 0.764885 0.05793
C_ C_ 0.280841 0.498619 0.751125 0.05793
C_ C_ 0.217327 -0.000776873 0.745247 0.05793
C_ C_ 0.470605 0.994748 0.746264 0.05793
Br Br 0.0745508 0.495846 0.758236 -0.17191
Br Br 0.322374 0.49634 0.730846 -0.17191
Br Br 0.174031 0.00507061 0.747766 -0.17191
Br Br 0.42744 0.994624 0.745703 -0.17191
N_ N_ 0.129418 0.254998 0.859753 -0.272
N_ N_ 0.37362 0.248341 0.851485 -0.272
N_ N_ 0.126781 0.265456 0.991092 -0.12501
N_ N_ 0.380272 0.260083 0.986801 -0.12501
N_ N_ 0.12136 0.249039 0.652785 -0.272
N_ N_ 0.371606 0.253034 0.642098 -0.272
N_ N_ 0.110844 0.256918 0.519842 -0.12501
N_ N_ 0.373341 0.262547 0.506981 -0.12501
O_ O_ 0.0915066 0.287342 0.721863 -0.60745
O_ O_ 0.344803 0.294664 0.720139 -0.60745
O_ O_ 0.0987453 0.293299 0.789287 -0.60745
O_ O_ 0.341344 0.29375 0.788096 -0.60745
O_ O_ 0.158741 0.288982 0.786921 -0.60745
O_ O_ 0.406898 0.289792 0.779544 -0.60745
O_ O_ 0.155611 0.298215 0.720148 -0.60745
O_ O_ 0.407985 0.286286 0.711522 -0.60745
O_ O_ 0.154596 0.201981 0.791863 -0.60745
O_ O_ 0.400983 0.197016 0.778308 -0.60745
O_ O_ 0.16241 0.21141 0.725309 -0.60745
O_ O_ 0.401502 0.197061 0.708104 -0.60745
O_ O_ 0.0969949 0.201321 0.721791 -0.60745
O_ O_ 0.343388 0.203009 0.713669 -0.60745
O_ O_ 0.0940948 0.204528 0.791971 -0.60745
O_ O_ 0.341334 0.208 0.782908 -0.60745
Zn Zn 0.123678 0.752409 0.287902 0.9476
Zn Zn 0.373361 0.752278 0.285387 0.9476
Zn Zn 0.12783 0.748823 0.218247 0.9476
Zn Zn 0.372594 0.751382 0.214068 0.9476
H_ H_ 0.0333771 0.914544 0.177094 0.10932
H_ H_ 0.307696 0.944525 0.203104 0.10932
H_ H_ 0.0712141 0.862118 0.313559 0.10932
H_ H_ 0.293437 0.833007 0.3082 0.10932
H_ H_ 0.0591308 0.846598 0.180823 0.10932
H_ H_ 0.333096 0.876832 0.193187 0.10932
H_ H_ 0.0405374 0.928529 0.31179 0.10932
H_ H_ 0.264513 0.897144 0.309654 0.10932
H_ H_ 0.196487 0.934072 0.312313 0.10932
H_ H_ 0.447407 0.931893 0.307315 0.10932
H_ H_ 0.201461 0.842828 0.190259 0.10932
H_ H_ 0.446891 0.835382 0.183164 0.10932
H_ H_ 0.166884 0.871313 0.311152 0.10932
H_ H_ 0.420026 0.865751 0.309078 0.10932
H_ H_ 0.235357 0.898771 0.196141 0.10932
H_ H_ 0.477763 0.900619 0.182303 0.10932
H_ H_ 0.193585 0.562914 0.30292 0.10932
H_ H_ 0.473695 0.593219 0.321653 0.10932
H_ H_ 0.212918 0.674694 0.199888 0.10932
H_ H_ 0.437154 0.650402 0.18431 0.10932
H_ H_ 0.163991 0.625165 0.304798 0.10932
H_ H_ 0.441981 0.656305 0.31913 0.10932
H_ H_ 0.237739 0.610898 0.194954 0.10932
H_ H_ 0.457465 0.583363 0.187353 0.10932
H_ H_ 0.0540947 0.562547 0.200105 0.10932
H_ H_ 0.294662 0.570269 0.183003 0.10932
H_ H_ 0.0476305 0.66801 0.311795 0.10932
H_ H_ 0.296922 0.660074 0.308779 0.10932
H_ H_ 0.0861521 0.62679 0.193149 0.10932
H_ H_ 0.331018 0.629522 0.184472 0.10932
H_ H_ 0.0170966 0.604289 0.315159 0.10932
H_ H_ 0.277835 0.589874 0.316024 0.10932
H_ H_ 0.13414 0.818303 0.360313 0.10932
H_ H_ 0.375515 0.818677 0.353588 0.10932
H_ H_ 0.123444 0.690001 0.366296 0.10932
H_ H_ 0.381784 0.6887 0.355063 0.10932
H_ H_ 0.119463 0.692142 0.442757 0.10932
H_ H_ 0.387983 0.689895 0.436515 0.10932
H_ H_ 0.141768 0.823002 0.436724 0.10932
H_ H_ 0.375684 0.821077 0.430683 0.10932
H_ H_ 0.133569 0.677779 0.154936 0.10932
H_ H_ 0.363946 0.687181 0.13578 0.10932
H_ H_ 0.123113 0.808927 0.14041 0.10932
H_ H_ 0.37146 0.814459 0.145499 0.10932
H_ H_ 0.11907 0.80212 0.0633315 0.10932
H_ H_ 0.367921 0.823118 0.0706634 0.10932
H_ H_ 0.131152 0.668055 0.0825617 0.10932
H_ H_ 0.364524 0.690539 0.0582715 0.10932
C_ C_ 0.0712024 0.852052 0.246958 -0.02249
C_ C_ 0.314939 0.847845 0.250061 -0.02249
C_ C_ 0.0169396 0.964418 0.243736 -0.02249
C_ C_ 0.26522 0.963675 0.257052 -0.02249
C_ C_ 0.0400519 0.901486 0.20736 -0.11473
C_ C_ 0.303467 0.917949 0.225156 -0.11473
C_ C_ 0.0650919 0.875307 0.283574 -0.11473
C_ C_ 0.293377 0.853471 0.281091 -0.11473
C_ C_ 0.0574974 0.865647 0.207872 -0.11473
C_ C_ 0.317421 0.8792 0.218381 -0.11473
C_ C_ 0.035147 0.925901 0.243512 -0.02249
C_ C_ 0.282913 0.923597 0.25569 -0.02249
C_ C_ 0.0864244 0.810996 0.250175 0.6875
C_ C_ 0.335688 0.812685 0.251855 0.6875
C_ C_ 0.0456765 0.910807 0.282765 -0.11473
C_ C_ 0.277682 0.890195 0.283954 -0.11473
C_ C_ 0.180906 0.851545 0.249258 -0.02249
C_ C_ 0.430643 0.847813 0.246562 -0.02249
C_ C_ 0.233638 0.963 0.250266 -0.02249
C_ C_ 0.481367 0.960433 0.242909 -0.02249
C_ C_ 0.197341 0.914928 0.284292 -0.11473
C_ C_ 0.44768 0.910847 0.280526 -0.11473
C_ C_ 0.198384 0.863248 0.214412 -0.11473
C_ C_ 0.448205 0.856686 0.210928 -0.11473
C_ C_ 0.178778 0.8794 0.284344 -0.11473
C_ C_ 0.433032 0.873661 0.282576 -0.11473
C_ C_ 0.215781 0.925124 0.250698 -0.02249
C_ C_ 0.465604 0.920066 0.245553 -0.02249
C_ C_ 0.163222 0.812726 0.248705 0.6875
C_ C_ 0.411621 0.809827 0.247222 0.6875
C_ C_ 0.218267 0.89648 0.217093 -0.11473
C_ C_ 0.464344 0.893043 0.209684 -0.11473
C_ C_ 0.184041 0.655459 0.253441 -0.02249
C_ C_ 0.433068 0.656736 0.251739 -0.02249
C_ C_ 0.234113 0.540747 0.243238 -0.02249
C_ C_ 0.483356 0.543905 0.255281 -0.02249
C_ C_ 0.198712 0.586203 0.280946 -0.11473
C_ C_ 0.463636 0.605102 0.291692 -0.11473
C_ C_ 0.203905 0.648835 0.218945 -0.11473
C_ C_ 0.440487 0.636259 0.214748 -0.11473
C_ C_ 0.180865 0.623252 0.283004 -0.11473
C_ C_ 0.444912 0.640173 0.291246 -0.11473
C_ C_ 0.216936 0.580176 0.246275 -0.02249
C_ C_ 0.463323 0.580746 0.254214 -0.02249
C_ C_ 0.167112 0.694544 0.254311 0.6875
C_ C_ 0.410605 0.691675 0.252271 0.6875
C_ C_ 0.221328 0.612669 0.217789 -0.11473
C_ C_ 0.454869 0.598549 0.215989 -0.11473
C_ C_ 0.0697415 0.650259 0.254599 -0.02249
C_ C_ 0.314549 0.652438 0.245346 -0.02249
C_ C_ 0.0117837 0.543126 0.25332 -0.02249
C_ C_ 0.265104 0.538398 0.248932 -0.02249
C_ C_ 0.0492923 0.589204 0.220235 -0.11473
C_ C_ 0.296252 0.590629 0.210738 -0.11473
C_ C_ 0.047661 0.647032 0.285135 -0.11473
C_ C_ 0.300513 0.639198 0.283051 -0.11473
C_ C_ 0.0703679 0.623154 0.219545 -0.11473
C_ C_ 0.314622 0.625589 0.210722 -0.11473
C_ C_ 0.0307057 0.582801 0.254561 -0.02249
C_ C_ 0.283355 0.576894 0.247716 -0.02249
C_ C_ 0.0910942 0.687543 0.255621 0.6875
C_ C_ 0.335356 0.689859 0.249701 0.6875
C_ C_ 0.0298127 0.611625 0.28727 -0.11473
C_ C_ 0.286635 0.599868 0.285201 -0.11473
C_ C_ 0.128949 0.792719 0.379084 0.17695
C_ C_ 0.373765 0.791041 0.372228 0.17695
C_ C_ 0.125584 0.719263 0.38169 0.17695
C_ C_ 0.379941 0.717676 0.373984 0.17695
C_ C_ 0.125477 0.719249 0.426465 -0.11473
C_ C_ 0.381088 0.717979 0.418096 -0.11473
C_ C_ 0.131892 0.758395 0.448188 0.23465
C_ C_ 0.379046 0.757286 0.439877 0.23465
C_ C_ 0.135655 0.792952 0.421362 -0.11473
C_ C_ 0.373645 0.792366 0.415377 -0.11473
C_ C_ 0.128377 0.705852 0.134188 0.17695
C_ C_ 0.36724 0.716001 0.120488 0.17695
C_ C_ 0.124028 0.778603 0.127029 0.17695
C_ C_ 0.370719 0.78868 0.126424 0.17695
C_ C_ 0.123183 0.774121 0.0821607 -0.11473
C_ C_ 0.370238 0.790915 0.08203 -0.11473
C_ C_ 0.124297 0.734454 0.0644316 0.23465
C_ C_ 0.367781 0.756663 0.0557064 0.23465
C_ C_ 0.126936 0.700459 0.0920277 -0.11473
C_ C_ 0.367064 0.717076 0.0755557 -0.11473
C_ C_ 0.032612 1.00347225 0.24498 0.05793
C_ C_ 0.278513 1.00335916 0.262577 0.05793
C_ C_ 0.217828 0.502147 0.241375 0.05793
C_ C_ 0.46983 0.503308 0.258471 0.05793
Br Br 0.0767321 0.000331329 0.246855 -0.17191
Br Br 0.315088 1.00314311 0.293788 -0.17191
Br Br 0.175213 0.502706 0.221047 -0.17191
Br Br 0.431501 0.498709 0.284458 -0.17191
N_ N_ 0.126119 0.755305 0.360298 -0.272
N_ N_ 0.375711 0.753236 0.353499 -0.272
N_ N_ 0.137075 0.760643 0.492642 -0.12501
N_ N_ 0.38104 0.762846 0.483613 -0.12501
N_ N_ 0.125341 0.744753 0.150011 -0.272
N_ N_ 0.370753 0.751464 0.14414 -0.272
N_ N_ 0.122008 0.729258 0.0199197 -0.12501
N_ N_ 0.366431 0.762697 0.0103177 -0.12501
O_ O_ 0.0940748 0.790488 0.21719 -0.60745
O_ O_ 0.34528 0.799582 0.218511 -0.60745
O_ O_ 0.0940783 0.797519 0.285879 -0.60745
O_ O_ 0.344572 0.79831 0.286424 -0.60745
O_ O_ 0.15495 0.798597 0.283041 -0.60745
O_ O_ 0.402429 0.796918 0.282696 -0.60745
O_ O_ 0.156166 0.795117 0.214823 -0.60745
O_ O_ 0.406214 0.788824 0.213606 -0.60745
O_ O_ 0.151936 0.703837 0.286527 -0.60745
O_ O_ 0.403275 0.709416 0.286256 -0.60745
O_ O_ 0.158737 0.709709 0.221305 -0.60745
O_ O_ 0.400803 0.706167 0.217615 -0.60745
O_ O_ 0.10029 0.701281 0.221076 -0.60745
O_ O_ 0.33977 0.708329 0.21498 -0.60745
O_ O_ 0.096291 0.70706 0.288067 -0.60745
O_ O_ 0.342161 0.706705 0.284287 -0.60745
Zn Zn 0.123821 0.750996 0.790667 0.9476
Zn Zn 0.377304 0.746879 0.782678 0.9476
Zn Zn 0.124337 0.747359 0.722446 0.9476
Zn Zn 0.377393 0.74734 0.713868 0.9476
H_ H_ 0.0421652 0.919377 0.68876 0.10932
H_ H_ 0.271299 0.901673 0.680455 0.10932
H_ H_ 0.0621647 0.851973 0.826945 0.10932
H_ H_ 0.319922 0.850125 0.81151 0.10932
H_ H_ 0.0701627 0.854619 0.693649 0.10932
H_ H_ 0.305752 0.839706 0.677758 0.10932
H_ H_ 0.0324391 0.911768 0.822637 0.10932
H_ H_ 0.293226 0.916468 0.811037 0.10932
H_ H_ 0.217074 0.919698 0.811121 0.10932
H_ H_ 0.461753 0.91728 0.809856 0.10932
H_ H_ 0.181919 0.843764 0.684841 0.10932
H_ H_ 0.439276 0.841416 0.677282 0.10932
H_ H_ 0.183904 0.855702 0.818308 0.10932
H_ H_ 0.432535 0.856587 0.809907 0.10932
H_ H_ 0.204839 0.916 0.679738 0.10932
H_ H_ 0.471911 0.904371 0.676754 0.10932
H_ H_ 0.235299 0.607985 0.816434 0.10932
H_ H_ 0.46948 0.582976 0.82126 0.10932
H_ H_ 0.171465 0.625827 0.691324 0.10932
H_ H_ 0.449903 0.656379 0.686023 0.10932
H_ H_ 0.206033 0.669219 0.810833 0.10932
H_ H_ 0.440423 0.646745 0.820093 0.10932
H_ H_ 0.205895 0.569964 0.694783 0.10932
H_ H_ 0.467472 0.581212 0.682514 0.10932
H_ H_ 0.0445562 0.570899 0.696414 0.10932
H_ H_ 0.262044 0.600721 0.700463 0.10932
H_ H_ 0.0553055 0.650668 0.8265 0.10932
H_ H_ 0.342681 0.627337 0.810644 0.10932
H_ H_ 0.0717873 0.634924 0.694014 0.10932
H_ H_ 0.295511 0.663329 0.696627 0.10932
H_ H_ 0.0295543 0.584467 0.830141 0.10932
H_ H_ 0.308752 0.565443 0.814189 0.10932
H_ H_ 0.143165 0.806322 0.859602 0.10932
H_ H_ 0.359199 0.799921 0.857682 0.10932
H_ H_ 0.111016 0.686189 0.87107 0.10932
H_ H_ 0.388044 0.677896 0.856774 0.10932
H_ H_ 0.1101 0.689636 0.948415 0.10932
H_ H_ 0.379451 0.671466 0.929888 0.10932
H_ H_ 0.137293 0.815612 0.937587 0.10932
H_ H_ 0.361357 0.803327 0.936319 0.10932
H_ H_ 0.167938 0.748222 0.645951 0.10932
H_ H_ 0.386253 0.681669 0.644226 0.10932
H_ H_ 0.0734671 0.758976 0.646479 0.10932
H_ H_ 0.377973 0.812822 0.628278 0.10932
H_ H_ 0.0701137 0.766462 0.570166 0.10932
H_ H_ 0.386087 0.805773 0.553289 0.10932
H_ H_ 0.166348 0.752947 0.565972 0.10932
H_ H_ 0.380068 0.671627 0.567504 0.10932
C_ C_ 0.0660109 0.845702 0.75977 -0.02249
C_ C_ 0.315135 0.841323 0.744835 -0.02249
C_ C_ 0.0168639 0.960495 0.756772 -0.02249
C_ C_ 0.264457 0.957944 0.746973 -0.02249
C_ C_ 0.0430743 0.902738 0.719929 -0.11473
C_ C_ 0.285445 0.893779 0.708578 -0.11473
C_ C_ 0.0569495 0.865685 0.796963 -0.11473
C_ C_ 0.307293 0.860079 0.783322 -0.11473
C_ C_ 0.0607078 0.865592 0.721878 -0.11473
C_ C_ 0.304253 0.858198 0.707152 -0.11473
C_ C_ 0.0346298 0.921495 0.757586 -0.02249
C_ C_ 0.280492 0.916901 0.746119 -0.02249
C_ C_ 0.0854679 0.809471 0.762043 0.6875
C_ C_ 0.336432 0.80438 0.747917 0.6875
C_ C_ 0.0391811 0.899676 0.795277 -0.11473
C_ C_ 0.293311 0.899704 0.783546 -0.11473
C_ C_ 0.181717 0.84584 0.752033 -0.02249
C_ C_ 0.437048 0.842251 0.745497 -0.02249
C_ C_ 0.232177 0.959217 0.746124 -0.02249
C_ C_ 0.485614 0.956835 0.742308 -0.02249
C_ C_ 0.208342 0.902479 0.78572 -0.11473
C_ C_ 0.456631 0.900906 0.780877 -0.11473
C_ C_ 0.191221 0.859763 0.712896 -0.11473
C_ C_ 0.443984 0.859988 0.706328 -0.11473
C_ C_ 0.193442 0.864841 0.787884 -0.11473
C_ C_ 0.442554 0.864493 0.781826 -0.11473
C_ C_ 0.214577 0.91977 0.746702 -0.02249
C_ C_ 0.468469 0.917227 0.743889 -0.02249
C_ C_ 0.162647 0.807846 0.754088 0.6875
C_ C_ 0.417009 0.806107 0.746524 0.6875
C_ C_ 0.205251 0.89958 0.709379 -0.11473
C_ C_ 0.463239 0.894306 0.705658 -0.11473
C_ C_ 0.183295 0.653398 0.7509 -0.02249
C_ C_ 0.440873 0.654329 0.750545 -0.02249
C_ C_ 0.234941 0.538291 0.763318 -0.02249
C_ C_ 0.486518 0.533777 0.751929 -0.02249
C_ C_ 0.219843 0.608944 0.790291 -0.11473
C_ C_ 0.463301 0.595279 0.79067 -0.11473
C_ C_ 0.186163 0.623788 0.718767 -0.11473
C_ C_ 0.450666 0.636518 0.713001 -0.11473
C_ C_ 0.203372 0.64661 0.785161 -0.11473
C_ C_ 0.447955 0.634216 0.790196 -0.11473
C_ C_ 0.218225 0.577798 0.760035 -0.02249
C_ C_ 0.469823 0.575103 0.752033 -0.02249
C_ C_ 0.163753 0.689402 0.75013 0.6875
C_ C_ 0.420719 0.691495 0.748022 0.6875
C_ C_ 0.201898 0.587378 0.722154 -0.11473
C_ C_ 0.463464 0.595888 0.712653 -0.11473
C_ C_ 0.0643614 0.649932 0.760495 -0.02249
C_ C_ 0.321523 0.649755 0.752428 -0.02249
C_ C_ 0.0169039 0.534606 0.759723 -0.02249
C_ C_ 0.266787 0.536682 0.756828 -0.02249
C_ C_ 0.044919 0.589626 0.722992 -0.11473
C_ C_ 0.279037 0.606592 0.724417 -0.11473
C_ C_ 0.052519 0.634742 0.796699 -0.11473
C_ C_ 0.324924 0.620342 0.785244 -0.11473
C_ C_ 0.0584173 0.629024 0.721773 -0.11473
C_ C_ 0.298831 0.642079 0.722618 -0.11473
C_ C_ 0.0333915 0.574271 0.761276 -0.02249
C_ C_ 0.284772 0.576332 0.755329 -0.02249
C_ C_ 0.086536 0.686486 0.760168 0.6875
C_ C_ 0.341317 0.687116 0.752756 0.6875
C_ C_ 0.0366506 0.59719 0.798449 -0.11473
C_ C_ 0.305693 0.585233 0.787833 -0.11473
C_ C_ 0.13491 0.782398 0.879428 0.17695
C_ C_ 0.367202 0.77522 0.874992 0.17695
C_ C_ 0.121519 0.712495 0.8845 0.17695
C_ C_ 0.380556 0.705527 0.8747 0.17695
C_ C_ 0.119005 0.714754 0.92945 -0.11473
C_ C_ 0.377234 0.702583 0.917825 -0.11473
C_ C_ 0.124756 0.753002 0.949628 0.23465
C_ C_ 0.369861 0.737291 0.940366 0.23465
C_ C_ 0.131781 0.787158 0.92364 -0.11473
C_ C_ 0.365068 0.775102 0.918772 -0.11473
C_ C_ 0.147381 0.750156 0.627386 0.17695
C_ C_ 0.380458 0.708849 0.624251 0.17695
C_ C_ 0.0936412 0.756368 0.627553 0.17695
C_ C_ 0.377972 0.782709 0.615849 0.17695
C_ C_ 0.0917795 0.759193 0.584702 -0.11473
C_ C_ 0.381674 0.777853 0.572451 -0.11473
C_ C_ 0.117519 0.755535 0.562036 0.23465
C_ C_ 0.379798 0.737473 0.552576 0.23465
C_ C_ 0.145967 0.753479 0.582616 -0.11473
C_ C_ 0.378318 0.703389 0.579839 -0.11473
C_ C_ 0.0313985 0.0001500000000000945 0.767296 0.05793
C_ C_ 0.2818 -0.005732999999999988 0.741546 0.05793
C_ C_ 0.219618 0.499357 0.77254 0.05793
C_ C_ 0.471801 0.494147 0.749335 0.05793
Br Br 0.0690222 -0.00047600000000003195 0.798324 -0.17191
Br Br 0.324849 -0.011479000000000017 0.728905 -0.17191
Br Br 0.177181 0.500647 0.786582 -0.17191
Br Br 0.42745 0.497664 0.745861 -0.17191
N_ N_ 0.127156 0.747 0.860495 -0.272
N_ N_ 0.377868 0.742634 0.854402 -0.272
N_ N_ 0.123872 0.758011 0.99454 -0.12501
N_ N_ 0.363832 0.732967 0.984896 -0.12501
N_ N_ 0.121318 0.751712 0.649474 -0.272
N_ N_ 0.377015 0.748255 0.640908 -0.272
N_ N_ 0.115167 0.757131 0.516615 -0.12501
N_ N_ 0.378725 0.733014 0.507906 -0.12501
O_ O_ 0.09781 0.796063 0.729305 -0.60745
O_ O_ 0.346655 0.790612 0.714352 -0.60745
O_ O_ 0.092341 0.79381 0.797813 -0.60745
O_ O_ 0.344129 0.788221 0.784001 -0.60745
O_ O_ 0.155127 0.793811 0.788759 -0.60745
O_ O_ 0.403702 0.79816 0.779031 -0.60745
O_ O_ 0.159284 0.78455 0.72112 -0.60745
O_ O_ 0.412378 0.786515 0.713714 -0.60745
O_ O_ 0.158145 0.70691 0.784714 -0.60745
O_ O_ 0.410149 0.706603 0.782351 -0.60745
O_ O_ 0.152938 0.703122 0.715541 -0.60745
O_ O_ 0.410201 0.704209 0.712476 -0.60745
O_ O_ 0.0915009 0.705456 0.727014 -0.60745
O_ O_ 0.345276 0.703948 0.717509 -0.60745
O_ O_ 0.0939164 0.70538 0.79331 -0.60745
O_ O_ 0.352248 0.701623 0.785414 -0.60745
Zn Zn 0.622998 0.253753 0.27677 0.9476
Zn Zn 0.877139 0.252659 0.281031 0.9476
Zn Zn 0.620184 0.25262 0.206696 0.9476
Zn Zn 0.871417 0.251543 0.211423 0.9476
H_ H_ 0.515928 0.413731 0.18053 0.10932
H_ H_ 0.796051 0.433343 0.190231 0.10932
H_ H_ 0.579391 0.366255 0.301267 0.10932
H_ H_ 0.803786 0.340204 0.311472 0.10932
H_ H_ 0.534093 0.342167 0.183769 0.10932
H_ H_ 0.824835 0.37179 0.183633 0.10932
H_ H_ 0.552392 0.433995 0.303513 0.10932
H_ H_ 0.767898 0.398773 0.313051 0.10932
H_ H_ 0.708112 0.424609 0.306748 0.10932
H_ H_ 0.957707 0.423763 0.319255 0.10932
H_ H_ 0.691953 0.345413 0.175292 0.10932
H_ H_ 0.927843 0.36145 0.181707 0.10932
H_ H_ 0.676666 0.362817 0.306959 0.10932
H_ H_ 0.935001 0.35482 0.317806 0.10932
H_ H_ 0.725294 0.409246 0.177494 0.10932
H_ H_ 0.950394 0.433019 0.185173 0.10932
H_ H_ 0.719634 0.0931496 0.317005 0.10932
H_ H_ 0.977495 0.0933462 0.315462 0.10932
H_ H_ 0.678819 0.149658 0.1799 0.10932
H_ H_ 0.933561 0.153112 0.184309 0.10932
H_ H_ 0.688984 0.158187 0.314039 0.10932
H_ H_ 0.952169 0.158794 0.31437 0.10932
H_ H_ 0.707087 0.0837027 0.180071 0.10932
H_ H_ 0.952291 0.0786903 0.182962 0.10932
H_ H_ 0.536069 0.0813304 0.170531 0.10932
H_ H_ 0.778398 0.0822551 0.189366 0.10932
H_ H_ 0.560888 0.149587 0.307048 0.10932
H_ H_ 0.81384 0.15494 0.31643 0.10932
H_ H_ 0.563706 0.146447 0.170094 0.10932
H_ H_ 0.80883 0.144287 0.182096 0.10932
H_ H_ 0.526201 0.0908185 0.305687 0.10932
H_ H_ 0.778009 0.0932335 0.323833 0.10932
H_ H_ 0.64526 0.195759 0.352115 0.10932
H_ H_ 0.862954 0.190521 0.350882 0.10932
H_ H_ 0.607457 0.315802 0.360316 0.10932
H_ H_ 0.887831 0.318687 0.356993 0.10932
H_ H_ 0.601238 0.305815 0.438241 0.10932
H_ H_ 0.88613 0.31901 0.432351 0.10932
H_ H_ 0.632835 0.184182 0.428395 0.10932
H_ H_ 0.855805 0.190794 0.432117 0.10932
H_ H_ 0.606518 0.189379 0.127602 0.10932
H_ H_ 0.828443 0.246657 0.131504 0.10932
H_ H_ 0.628974 0.317252 0.140011 0.10932
H_ H_ 0.922439 0.255537 0.14216 0.10932
H_ H_ 0.634048 0.322668 0.0625149 0.10932
H_ H_ 0.925505 0.27184 0.0639842 0.10932
H_ H_ 0.609338 0.193417 0.0493633 0.10932
H_ H_ 0.830582 0.257083 0.0569523 0.10932
C_ C_ 0.563187 0.350311 0.23801 -0.02249
C_ C_ 0.81621 0.34931 0.247301 -0.02249
C_ C_ 0.516734 0.468901 0.246676 -0.02249
C_ C_ 0.764632 0.464477 0.254231 -0.02249
C_ C_ 0.531197 0.40476 0.204728 -0.11473
C_ C_ 0.798827 0.41484 0.216039 -0.11473
C_ C_ 0.569074 0.377645 0.271458 -0.11473
C_ C_ 0.80225 0.360493 0.283141 -0.11473
C_ C_ 0.542666 0.363581 0.206112 -0.11473
C_ C_ 0.81573 0.378601 0.214005 -0.11473
C_ C_ 0.535458 0.430125 0.240101 -0.02249
C_ C_ 0.781096 0.424209 0.251921 -0.02249
C_ C_ 0.581225 0.312309 0.237537 0.6875
C_ C_ 0.834358 0.311146 0.244441 0.6875
C_ C_ 0.552374 0.414733 0.273864 -0.11473
C_ C_ 0.783476 0.396519 0.287119 -0.11473
C_ C_ 0.680086 0.351574 0.24191 -0.02249
C_ C_ 0.925863 0.355327 0.250709 -0.02249
C_ C_ 0.733554 0.464162 0.242664 -0.02249
C_ C_ 0.978129 0.467595 0.250238 -0.02249
C_ C_ 0.704209 0.408831 0.278521 -0.11473
C_ C_ 0.951503 0.410206 0.289271 -0.11473
C_ C_ 0.694804 0.363678 0.204893 -0.11473
C_ C_ 0.933947 0.375885 0.212424 -0.11473
C_ C_ 0.686197 0.374858 0.279425 -0.11473
C_ C_ 0.937416 0.370973 0.288194 -0.11473
C_ C_ 0.715898 0.423562 0.240693 -0.02249
C_ C_ 0.960182 0.430131 0.251517 -0.02249
C_ C_ 0.658499 0.317048 0.241135 0.6875
C_ C_ 0.911135 0.31393 0.249375 0.6875
C_ C_ 0.711421 0.400397 0.205522 -0.11473
C_ C_ 0.949097 0.413757 0.213086 -0.11473
C_ C_ 0.682703 0.158091 0.246013 -0.02249
C_ C_ 0.936224 0.15717 0.249397 -0.02249
C_ C_ 0.732132 0.0423761 0.250305 -0.02249
C_ C_ 0.984475 0.040009 0.246428 -0.02249
C_ C_ 0.709206 0.103847 0.287431 -0.11473
C_ C_ 0.96567 0.103075 0.28637 -0.11473
C_ C_ 0.685428 0.135381 0.209624 -0.11473
C_ C_ 0.939629 0.135956 0.213051 -0.11473
C_ C_ 0.692842 0.141538 0.284836 -0.11473
C_ C_ 0.949144 0.139916 0.287478 -0.11473
C_ C_ 0.715463 0.0831573 0.24867 -0.02249
C_ C_ 0.968553 0.0810572 0.247698 -0.02249
C_ C_ 0.6637 0.197601 0.246697 0.6875
C_ C_ 0.916755 0.195498 0.250311 0.6875
C_ C_ 0.705973 0.101257 0.209493 -0.11473
C_ C_ 0.954304 0.0981812 0.211533 -0.11473
C_ C_ 0.564903 0.153299 0.238648 -0.02249
C_ C_ 0.818065 0.15108 0.249672 -0.02249
C_ C_ 0.511739 0.0399116 0.234681 -0.02249
C_ C_ 0.764124 0.040466 0.26075 -0.02249
C_ C_ 0.540403 0.0965091 0.200068 -0.11473
C_ C_ 0.787055 0.0973209 0.216951 -0.11473
C_ C_ 0.555884 0.135361 0.276523 -0.11473
C_ C_ 0.808863 0.136615 0.289203 -0.11473
C_ C_ 0.554444 0.135375 0.199384 -0.11473
C_ C_ 0.806722 0.129256 0.212556 -0.11473
C_ C_ 0.528635 0.0805434 0.237483 -0.02249
C_ C_ 0.781353 0.0789312 0.256999 -0.02249
C_ C_ 0.58369 0.191578 0.238646 0.6875
C_ C_ 0.837994 0.188318 0.243724 0.6875
C_ C_ 0.535313 0.101581 0.276054 -0.11473
C_ C_ 0.788445 0.103368 0.293004 -0.11473
C_ C_ 0.634256 0.218991 0.370307 0.17695
C_ C_ 0.868701 0.218132 0.370662 0.17695
C_ C_ 0.612908 0.285451 0.372918 0.17695
C_ C_ 0.882327 0.290249 0.372288 0.17695
C_ C_ 0.611173 0.281027 0.417848 -0.11473
C_ C_ 0.882278 0.289892 0.415318 -0.11473
C_ C_ 0.619285 0.244602 0.436825 0.23465
C_ C_ 0.872778 0.253859 0.43664 0.23465
C_ C_ 0.629707 0.212823 0.412084 -0.11473
C_ C_ 0.865545 0.218536 0.414305 -0.11473
C_ C_ 0.617641 0.216579 0.113697 0.17695
C_ C_ 0.850227 0.251951 0.11777 0.17695
C_ C_ 0.626989 0.289895 0.119273 0.17695
C_ C_ 0.902567 0.253035 0.121809 0.17695
C_ C_ 0.628329 0.293207 0.0767263 -0.11473
C_ C_ 0.905056 0.261121 0.0779711 -0.11473
C_ C_ 0.621545 0.259403 0.0510627 0.23465
C_ C_ 0.878796 0.259904 0.0527815 0.23465
C_ C_ 0.615724 0.22066 0.0698671 -0.11473
C_ C_ 0.852163 0.252764 0.0731033 -0.11473
C_ C_ 0.531057 0.508061 0.244676 0.05793
C_ C_ 0.778846 0.50214 0.268386 0.05793
C_ C_ 0.714879 1.00560951 0.250444 0.05793
C_ C_ 0.968333 1.00206214 0.244314 0.05793
Br Br 0.572338 0.513466 0.228456 -0.17191
Br Br 0.813137 0.496439 0.304727 -0.17191
Br Br 0.671653 0.00718294 0.247681 -0.17191
Br Br 0.925586 0.0020700000000000163 0.239237 -0.17191
N_ N_ 0.623807 0.25206 0.349251 -0.272
N_ N_ 0.8768 0.254607 0.350391 -0.272
N_ N_ 0.618788 0.23637 0.483181 -0.12501
N_ N_ 0.867199 0.256381 0.480291 -0.12501
N_ N_ 0.62335 0.25221 0.137614 -0.272
N_ N_ 0.87515 0.251321 0.140988 -0.272
N_ N_ 0.623915 0.263855 0.00640938 -0.12501
N_ N_ 0.880873 0.266284 0.00938277 -0.12501
O_ O_ 0.587654 0.293248 0.202835 -0.60745
O_ O_ 0.834409 0.291422 0.210424 -0.60745
O_ O_ 0.590397 0.293616 0.271268 -0.60745
O_ O_ 0.846129 0.295484 0.277638 -0.60745
O_ O_ 0.651299 0.301454 0.275655 -0.60745
O_ O_ 0.905808 0.296174 0.284647 -0.60745
O_ O_ 0.652844 0.298285 0.206936 -0.60745
O_ O_ 0.898231 0.29925 0.216542 -0.60745
O_ O_ 0.654188 0.212702 0.279503 -0.60745
O_ O_ 0.906117 0.207548 0.284253 -0.60745
O_ O_ 0.653088 0.210134 0.211659 -0.60745
O_ O_ 0.906612 0.211195 0.216723 -0.60745
O_ O_ 0.592029 0.207912 0.204218 -0.60745
O_ O_ 0.845576 0.201514 0.20809 -0.60745
O_ O_ 0.594358 0.206375 0.27261 -0.60745
O_ O_ 0.847537 0.206605 0.276954 -0.60745
Zn Zn 0.62966 0.246926 0.782347 0.9476
Zn Zn 0.877724 0.245313 0.783566 0.9476
Zn Zn 0.627145 0.247027 0.712946 0.9476
Zn Zn 0.87584 0.245402 0.710881 0.9476
H_ H_ 0.547355 0.418407 0.684982 0.10932
H_ H_ 0.778079 0.404932 0.680539 0.10932
H_ H_ 0.564894 0.351067 0.823462 0.10932
H_ H_ 0.827662 0.359268 0.810137 0.10932
H_ H_ 0.56761 0.346314 0.685814 0.10932
H_ H_ 0.808387 0.339721 0.68043 0.10932
H_ H_ 0.535398 0.414438 0.817776 0.10932
H_ H_ 0.796183 0.422896 0.810889 0.10932
H_ H_ 0.724817 0.411888 0.816123 0.10932
H_ H_ 0.971251 0.411206 0.822755 0.10932
H_ H_ 0.690571 0.348665 0.681733 0.10932
H_ H_ 0.923724 0.366416 0.688359 0.10932
H_ H_ 0.691006 0.348707 0.817583 0.10932
H_ H_ 0.943509 0.34492 0.818822 0.10932
H_ H_ 0.723793 0.409125 0.681564 0.10932
H_ H_ 0.957768 0.425201 0.688384 0.10932
H_ H_ 0.731094 0.0949884 0.808002 0.10932
H_ H_ 0.962989 0.0765868 0.81187 0.10932
H_ H_ 0.676842 0.135119 0.680203 0.10932
H_ H_ 0.940388 0.151963 0.679794 0.10932
H_ H_ 0.704087 0.162161 0.806386 0.10932
H_ H_ 0.935742 0.140196 0.816781 0.10932
H_ H_ 0.702749 0.0683175 0.684143 0.10932
H_ H_ 0.968879 0.0867525 0.678548 0.10932
H_ H_ 0.539802 0.0730116 0.682539 0.10932
H_ H_ 0.766405 0.0968433 0.689566 0.10932
H_ H_ 0.563888 0.148977 0.81259 0.10932
H_ H_ 0.840638 0.123105 0.803134 0.10932
H_ H_ 0.569055 0.138701 0.678049 0.10932
H_ H_ 0.794973 0.165225 0.691272 0.10932
H_ H_ 0.533273 0.0834064 0.81326 0.10932
H_ H_ 0.812895 0.0599155 0.805341 0.10932
H_ H_ 0.627817 0.31002 0.860967 0.10932
H_ H_ 0.837348 0.200473 0.855863 0.10932
H_ H_ 0.637226 0.180069 0.853718 0.10932
H_ H_ 0.912798 0.277101 0.863236 0.10932
H_ H_ 0.628179 0.173801 0.929235 0.10932
H_ H_ 0.903651 0.290525 0.938051 0.10932
H_ H_ 0.631638 0.305887 0.937825 0.10932
H_ H_ 0.828885 0.204474 0.930355 0.10932
H_ H_ 0.603929 0.191953 0.631594 0.10932
H_ H_ 0.923908 0.241423 0.640707 0.10932
H_ H_ 0.631714 0.317997 0.641726 0.10932
H_ H_ 0.83022 0.250676 0.631229 0.10932
H_ H_ 0.640128 0.318403 0.56475 0.10932
H_ H_ 0.832664 0.255359 0.553434 0.10932
H_ H_ 0.601152 0.196129 0.556645 0.10932
H_ H_ 0.929477 0.242576 0.562866 0.10932
C_ C_ 0.567598 0.341876 0.75424 -0.02249
C_ C_ 0.82039 0.344931 0.745853 -0.02249
C_ C_ 0.519876 0.45882 0.749382 -0.02249
C_ C_ 0.771831 0.46014 0.744727 -0.02249
C_ C_ 0.548485 0.400176 0.714428 -0.11473
C_ C_ 0.791453 0.397365 0.70821 -0.11473
C_ C_ 0.556856 0.361358 0.792324 -0.11473
C_ C_ 0.816379 0.369083 0.782026 -0.11473
C_ C_ 0.563036 0.360619 0.715669 -0.11473
C_ C_ 0.807377 0.358343 0.708487 -0.11473
C_ C_ 0.537121 0.41863 0.750796 -0.02249
C_ C_ 0.788333 0.421658 0.745335 -0.02249
C_ C_ 0.586587 0.302584 0.754838 0.6875
C_ C_ 0.834368 0.303542 0.750342 0.6875
C_ C_ 0.541905 0.398587 0.789976 -0.11473
C_ C_ 0.801139 0.40786 0.781111 -0.11473
C_ C_ 0.688858 0.34461 0.748293 -0.02249
C_ C_ 0.929589 0.350402 0.754609 -0.02249
C_ C_ 0.739809 0.45837 0.747869 -0.02249
C_ C_ 0.983582 0.461078 0.754474 -0.02249
C_ C_ 0.714057 0.400691 0.7863 -0.11473
C_ C_ 0.961299 0.400538 0.792555 -0.11473
C_ C_ 0.699923 0.360024 0.710033 -0.11473
C_ C_ 0.934532 0.372536 0.717486 -0.11473
C_ C_ 0.697119 0.365098 0.787199 -0.11473
C_ C_ 0.943799 0.365416 0.791421 -0.11473
C_ C_ 0.72225 0.417414 0.748648 -0.02249
C_ C_ 0.967038 0.420907 0.755593 -0.02249
C_ C_ 0.667215 0.306914 0.747265 0.6875
C_ C_ 0.913468 0.308549 0.753228 0.6875
C_ C_ 0.717158 0.39606 0.710562 -0.11473
C_ C_ 0.95444 0.406985 0.717765 -0.11473
C_ C_ 0.687814 0.152715 0.743025 -0.02249
C_ C_ 0.938461 0.153556 0.749147 -0.02249
C_ C_ 0.736393 0.0352277 0.749396 -0.02249
C_ C_ 0.985417 0.0371362 0.745112 -0.02249
C_ C_ 0.719544 0.103993 0.78143 -0.11473
C_ C_ 0.959196 0.0943032 0.782251 -0.11473
C_ C_ 0.688377 0.128073 0.707803 -0.11473
C_ C_ 0.948069 0.138154 0.70889 -0.11473
C_ C_ 0.702302 0.140207 0.779975 -0.11473
C_ C_ 0.946045 0.131698 0.786676 -0.11473
C_ C_ 0.717995 0.0753701 0.747923 -0.02249
C_ C_ 0.967681 0.0769706 0.744231 -0.02249
C_ C_ 0.667071 0.188888 0.744013 0.6875
C_ C_ 0.918161 0.189018 0.749792 0.6875
C_ C_ 0.7018 0.0881201 0.71183 -0.11473
C_ C_ 0.963851 0.0996869 0.708375 -0.11473
C_ C_ 0.570948 0.146885 0.745437 -0.02249
C_ C_ 0.821076 0.147433 0.744717 -0.02249
C_ C_ 0.518271 0.0310638 0.748529 -0.02249
C_ C_ 0.768224 0.0352071 0.748497 -0.02249
C_ C_ 0.545834 0.0876893 0.710089 -0.11473
C_ C_ 0.78198 0.102653 0.714232 -0.11473
C_ C_ 0.562873 0.129532 0.784747 -0.11473
C_ C_ 0.823077 0.120559 0.77955 -0.11473
C_ C_ 0.563755 0.12453 0.707557 -0.11473
C_ C_ 0.799993 0.138208 0.712876 -0.11473
C_ C_ 0.536797 0.0719261 0.748037 -0.02249
C_ C_ 0.785051 0.0755044 0.749276 -0.02249
C_ C_ 0.592642 0.182509 0.745152 0.6875
C_ C_ 0.84044 0.182775 0.743293 0.6875
C_ C_ 0.543301 0.0929917 0.784425 -0.11473
C_ C_ 0.807242 0.0831283 0.780857 -0.11473
C_ C_ 0.635552 0.280916 0.874098 0.17695
C_ C_ 0.853713 0.215591 0.874209 0.17695
C_ C_ 0.634146 0.207568 0.870992 0.17695
C_ C_ 0.893329 0.263853 0.877728 0.17695
C_ C_ 0.629801 0.203172 0.913733 -0.11473
C_ C_ 0.88693 0.272557 0.92019 -0.11473
C_ C_ 0.633163 0.238409 0.937882 0.23465
C_ C_ 0.866581 0.246948 0.941596 0.23465
C_ C_ 0.636071 0.277858 0.918797 -0.11473
C_ C_ 0.849148 0.219772 0.917817 -0.11473
C_ C_ 0.611894 0.219506 0.617016 0.17695
C_ C_ 0.904044 0.24768 0.622472 0.17695
C_ C_ 0.628935 0.289881 0.62339 0.17695
C_ C_ 0.850824 0.25499 0.615932 0.17695
C_ C_ 0.630311 0.291974 0.579866 -0.11473
C_ C_ 0.853299 0.25448 0.570444 -0.11473
C_ C_ 0.621075 0.258492 0.553401 0.23465
C_ C_ 0.882527 0.25087 0.551895 0.23465
C_ C_ 0.611498 0.222289 0.574364 -0.11473
C_ C_ 0.907406 0.248421 0.577329 -0.11473
C_ C_ 0.534287 0.496734 0.762543 0.05793
C_ C_ 0.786686 0.49793 0.749244 0.05793
C_ C_ 0.722116 -0.00390299999999999 0.750517 0.05793
C_ C_ 0.970213 -0.0018359999999999488 0.746767 0.05793
Br Br 0.575254 0.499276 0.778693 -0.17191
Br Br 0.829952 0.497772 0.754003 -0.17191
Br Br 0.680143 -0.001538999999999957 0.762423 -0.17191
Br Br 0.927599 -0.0045640000000000125 0.762453 -0.17191
N_ N_ 0.633366 0.244057 0.851297 -0.272
N_ N_ 0.875895 0.237355 0.855591 -0.272
N_ N_ 0.631108 0.234566 0.98266 -0.12501
N_ N_ 0.86344 0.245281 0.986256 -0.12501
N_ N_ 0.621304 0.252931 0.642487 -0.272
N_ N_ 0.876302 0.249183 0.640723 -0.272
N_ N_ 0.620838 0.265973 0.509196 -0.12501
N_ N_ 0.885951 0.242718 0.507409 -0.12501
O_ O_ 0.594009 0.288124 0.719617 -0.60745
O_ O_ 0.839833 0.281819 0.717089 -0.60745
O_ O_ 0.597298 0.287379 0.788338 -0.60745
O_ O_ 0.844669 0.289687 0.785268 -0.60745
O_ O_ 0.657775 0.291653 0.782408 -0.60745
O_ O_ 0.906566 0.291644 0.787883 -0.60745
O_ O_ 0.654663 0.296614 0.711953 -0.60745
O_ O_ 0.905105 0.292541 0.71774 -0.60745
O_ O_ 0.661123 0.205843 0.778939 -0.60745
O_ O_ 0.906451 0.199918 0.78323 -0.60745
O_ O_ 0.661215 0.20758 0.709336 -0.60745
O_ O_ 0.908291 0.20432 0.714835 -0.60745
O_ O_ 0.600706 0.196963 0.710173 -0.60745
O_ O_ 0.846824 0.198254 0.70783 -0.60745
O_ O_ 0.600206 0.200896 0.778587 -0.60745
O_ O_ 0.848221 0.200608 0.776595 -0.60745
Zn Zn 0.623035 0.752678 0.281743 0.9476
Zn Zn 0.87224 0.755679 0.286503 0.9476
Zn Zn 0.626435 0.754061 0.210134 0.9476
Zn Zn 0.872907 0.754917 0.217786 0.9476
H_ H_ 0.550356 0.931925 0.17735 0.10932
H_ H_ 0.769902 0.914462 0.191745 0.10932
H_ H_ 0.548017 0.836877 0.296598 0.10932
H_ H_ 0.82516 0.868499 0.321672 0.10932
H_ H_ 0.578151 0.868359 0.176657 0.10932
H_ H_ 0.801886 0.849248 0.189377 0.10932
H_ H_ 0.517675 0.905867 0.301271 0.10932
H_ H_ 0.792491 0.927378 0.326439 0.10932
H_ H_ 0.715257 0.914308 0.319721 0.10932
H_ H_ 0.96206 0.926644 0.309144 0.10932
H_ H_ 0.679469 0.861098 0.187067 0.10932
H_ H_ 0.938183 0.853046 0.176213 0.10932
H_ H_ 0.680333 0.853906 0.318906 0.10932
H_ H_ 0.929798 0.867297 0.311517 0.10932
H_ H_ 0.705784 0.925757 0.18736 0.10932
H_ H_ 0.970751 0.916233 0.178122 0.10932
H_ H_ 0.697905 0.5684 0.30624 0.10932
H_ H_ 0.949177 0.577204 0.319701 0.10932
H_ H_ 0.708815 0.670248 0.187983 0.10932
H_ H_ 0.945186 0.667771 0.190567 0.10932
H_ H_ 0.680813 0.637748 0.314686 0.10932
H_ H_ 0.918358 0.639587 0.318627 0.10932
H_ H_ 0.734964 0.602798 0.188635 0.10932
H_ H_ 0.981931 0.60724 0.194708 0.10932
H_ H_ 0.527149 0.595429 0.17398 0.10932
H_ H_ 0.807225 0.560889 0.203605 0.10932
H_ H_ 0.567705 0.64552 0.312335 0.10932
H_ H_ 0.797257 0.662517 0.319711 0.10932
H_ H_ 0.558592 0.656845 0.177114 0.10932
H_ H_ 0.836731 0.626367 0.201231 0.10932
H_ H_ 0.539617 0.583142 0.307921 0.10932
H_ H_ 0.763087 0.604068 0.317065 0.10932
H_ H_ 0.626862 0.685081 0.355416 0.10932
H_ H_ 0.830317 0.742529 0.364121 0.10932
H_ H_ 0.630883 0.816813 0.35288 0.10932
H_ H_ 0.919393 0.780023 0.35734 0.10932
H_ H_ 0.626487 0.8211 0.428147 0.10932
H_ H_ 0.927578 0.778163 0.433483 0.10932
H_ H_ 0.630129 0.686419 0.43666 0.10932
H_ H_ 0.833182 0.742493 0.442907 0.10932
H_ H_ 0.585647 0.763836 0.130245 0.10932
H_ H_ 0.863474 0.68635 0.142018 0.10932
H_ H_ 0.67996 0.746284 0.140173 0.10932
H_ H_ 0.868496 0.81533 0.147594 0.10932
H_ H_ 0.683561 0.742337 0.0678934 0.10932
H_ H_ 0.862479 0.822699 0.0704042 0.10932
H_ H_ 0.587274 0.760868 0.0551553 0.10932
H_ H_ 0.864475 0.687876 0.0605471 0.10932
C_ C_ 0.565453 0.848759 0.237236 -0.02249
C_ C_ 0.816327 0.853698 0.254342 -0.02249
C_ C_ 0.513283 0.962898 0.236111 -0.02249
C_ C_ 0.763028 0.965778 0.25706 -0.02249
C_ C_ 0.547646 0.911151 0.203302 -0.11473
C_ C_ 0.782295 0.901696 0.219404 -0.11473
C_ C_ 0.548694 0.85992 0.272441 -0.11473
C_ C_ 0.811793 0.876085 0.293621 -0.11473
C_ C_ 0.563472 0.873739 0.201641 -0.11473
C_ C_ 0.801525 0.868877 0.217236 -0.11473
C_ C_ 0.531435 0.922638 0.238392 -0.02249
C_ C_ 0.780323 0.926028 0.257195 -0.02249
C_ C_ 0.584282 0.811575 0.241736 0.6875
C_ C_ 0.833185 0.814515 0.255376 0.6875
C_ C_ 0.533066 0.897663 0.274241 -0.11473
C_ C_ 0.794819 0.912148 0.295404 -0.11473
C_ C_ 0.678998 0.853242 0.252635 -0.02249
C_ C_ 0.929588 0.854905 0.243483 -0.02249
C_ C_ 0.730074 0.967379 0.255316 -0.02249
C_ C_ 0.985135 0.964032 0.242201 -0.02249
C_ C_ 0.703037 0.908127 0.292603 -0.11473
C_ C_ 0.959093 0.909133 0.280224 -0.11473
C_ C_ 0.686639 0.873054 0.216397 -0.11473
C_ C_ 0.942043 0.869038 0.205394 -0.11473
C_ C_ 0.683639 0.872556 0.290668 -0.11473
C_ C_ 0.939458 0.87568 0.280825 -0.11473
C_ C_ 0.711372 0.928867 0.255238 -0.02249
C_ C_ 0.968663 0.924954 0.242335 -0.02249
C_ C_ 0.663408 0.813031 0.249389 0.6875
C_ C_ 0.912474 0.81497 0.245615 0.6875
C_ C_ 0.701112 0.911464 0.21608 -0.11473
C_ C_ 0.962214 0.904225 0.204772 -0.11473
C_ C_ 0.687294 0.6574 0.24988 -0.02249
C_ C_ 0.930563 0.659793 0.25587 -0.02249
C_ C_ 0.733454 0.539424 0.245579 -0.02249
C_ C_ 0.979743 0.545622 0.251543 -0.02249
C_ C_ 0.698824 0.589698 0.27907 -0.11473
C_ C_ 0.947384 0.59685 0.289643 -0.11473
C_ C_ 0.706407 0.648533 0.215335 -0.11473
C_ C_ 0.947019 0.648313 0.219736 -0.11473
C_ C_ 0.689124 0.630106 0.285508 -0.11473
C_ C_ 0.932202 0.634342 0.291488 -0.11473
C_ C_ 0.716619 0.579516 0.242781 -0.02249
C_ C_ 0.963545 0.585202 0.254272 -0.02249
C_ C_ 0.667751 0.697123 0.249248 0.6875
C_ C_ 0.913193 0.697064 0.254012 0.6875
C_ C_ 0.718363 0.608943 0.212274 -0.11473
C_ C_ 0.965447 0.611703 0.219603 -0.11473
C_ C_ 0.567885 0.655442 0.243914 -0.02249
C_ C_ 0.81704 0.65138 0.258395 -0.02249
C_ C_ 0.513903 0.544946 0.24226 -0.02249
C_ C_ 0.76441 0.539726 0.25982 -0.02249
C_ C_ 0.534409 0.608926 0.205571 -0.11473
C_ C_ 0.803522 0.585042 0.227225 -0.11473
C_ C_ 0.560675 0.635366 0.280814 -0.11473
C_ C_ 0.799159 0.641022 0.292724 -0.11473
C_ C_ 0.554247 0.642303 0.205976 -0.11473
C_ C_ 0.820628 0.621336 0.226109 -0.11473
C_ C_ 0.531416 0.584668 0.241187 -0.02249
C_ C_ 0.78255 0.577764 0.258891 -0.02249
C_ C_ 0.588535 0.691345 0.244574 0.6875
C_ C_ 0.833884 0.690924 0.258516 0.6875
C_ C_ 0.54381 0.598465 0.279162 -0.11473
C_ C_ 0.780586 0.605512 0.292165 -0.11473
C_ C_ 0.626208 0.713345 0.37415 0.17695
C_ C_ 0.852319 0.742165 0.380811 0.17695
C_ C_ 0.625733 0.787585 0.372185 0.17695
C_ C_ 0.903541 0.765196 0.374688 0.17695
C_ C_ 0.625777 0.790098 0.414119 -0.11473
C_ C_ 0.90708 0.765196 0.418851 -0.11473
C_ C_ 0.62552 0.754231 0.438459 0.23465
C_ C_ 0.881736 0.757342 0.443527 0.23465
C_ C_ 0.629575 0.714966 0.419308 -0.11473
C_ C_ 0.853963 0.747076 0.424691 -0.11473
C_ C_ 0.606329 0.756993 0.117058 0.17695
C_ C_ 0.86536 0.716904 0.123527 0.17695
C_ C_ 0.658921 0.74914 0.12159 0.17695
C_ C_ 0.863858 0.789636 0.127309 0.17695
C_ C_ 0.662108 0.749206 0.0790519 -0.11473
C_ C_ 0.861666 0.791527 0.0837535 -0.11473
C_ C_ 0.636575 0.754986 0.052728 0.23465
C_ C_ 0.864223 0.755928 0.0591445 0.23465
C_ C_ 0.608936 0.76253 0.0712408 -0.11473
C_ C_ 0.867275 0.717366 0.0795573 -0.11473
C_ C_ 0.527552 1.00248056 0.229052 0.05793
C_ C_ 0.779545 1.00183622 0.25865 0.05793
C_ C_ 0.719345 0.502973 0.235255 0.05793
C_ C_ 0.96368 0.506648 0.25014 0.05793
Br Br 0.571184 1.00244961 0.234483 -0.17191
Br Br 0.823143 1.00423 0.259748 -0.17191
Br Br 0.678705 0.507006 0.208978 -0.17191
Br Br 0.922469 0.508071 0.233919 -0.17191
N_ N_ 0.624804 0.749985 0.352128 -0.272
N_ N_ 0.876888 0.752065 0.357162 -0.272
N_ N_ 0.625182 0.758955 0.483568 -0.12501
N_ N_ 0.886812 0.758968 0.488456 -0.12501
N_ N_ 0.632036 0.754883 0.141032 -0.272
N_ N_ 0.867132 0.753094 0.146481 -0.272
N_ N_ 0.639492 0.75086 0.00781056 -0.12501
N_ N_ 0.858402 0.759498 0.0153206 -0.12501
O_ O_ 0.58802 0.788306 0.210505 -0.60745
O_ O_ 0.841714 0.796315 0.222376 -0.60745
O_ O_ 0.592952 0.799744 0.277926 -0.60745
O_ O_ 0.84261 0.800845 0.289518 -0.60745
O_ O_ 0.657096 0.792241 0.281605 -0.60745
O_ O_ 0.907172 0.797992 0.281077 -0.60745
O_ O_ 0.650338 0.803761 0.213559 -0.60745
O_ O_ 0.901218 0.800539 0.212439 -0.60745
O_ O_ 0.652443 0.706644 0.281014 -0.60745
O_ O_ 0.899527 0.7075 0.287764 -0.60745
O_ O_ 0.663453 0.714949 0.214255 -0.60745
O_ O_ 0.903737 0.711769 0.217782 -0.60745
O_ O_ 0.603212 0.702603 0.212025 -0.60745
O_ O_ 0.840418 0.705616 0.222603 -0.60745
O_ O_ 0.588491 0.716059 0.275981 -0.60745
O_ O_ 0.840732 0.708685 0.292272 -0.60745
Zn Zn 0.629078 0.746166 0.782867 0.9476
Zn Zn 0.87782 0.746765 0.784338 0.9476
Zn Zn 0.628769 0.747122 0.71224 0.9476
Zn Zn 0.873989 0.747341 0.714024 0.9476
H_ H_ 0.540805 0.916147 0.677732 0.10932
H_ H_ 0.767218 0.898057 0.690548 0.10932
H_ H_ 0.558884 0.839454 0.807374 0.10932
H_ H_ 0.827589 0.861454 0.811908 0.10932
H_ H_ 0.577469 0.857164 0.677304 0.10932
H_ H_ 0.803051 0.840664 0.682392 0.10932
H_ H_ 0.528762 0.904797 0.80948 0.10932
H_ H_ 0.809128 0.934449 0.803662 0.10932
H_ H_ 0.734214 0.898107 0.814509 0.10932
H_ H_ 0.971482 0.912263 0.81678 0.10932
H_ H_ 0.681114 0.859027 0.681422 0.10932
H_ H_ 0.936834 0.848532 0.684729 0.10932
H_ H_ 0.705045 0.832908 0.809453 0.10932
H_ H_ 0.93639 0.852664 0.818894 0.10932
H_ H_ 0.70541 0.924677 0.686408 0.10932
H_ H_ 0.964345 0.91087 0.684557 0.10932
H_ H_ 0.704246 0.562445 0.805464 0.10932
H_ H_ 0.967456 0.580313 0.820641 0.10932
H_ H_ 0.707069 0.664296 0.689629 0.10932
H_ H_ 0.931261 0.641804 0.683998 0.10932
H_ H_ 0.669246 0.621093 0.807398 0.10932
H_ H_ 0.937591 0.644208 0.816381 0.10932
H_ H_ 0.736879 0.602088 0.686801 0.10932
H_ H_ 0.962178 0.57804 0.683776 0.10932
H_ H_ 0.549575 0.566078 0.690552 0.10932
H_ H_ 0.812811 0.558987 0.690025 0.10932
H_ H_ 0.555506 0.658924 0.810889 0.10932
H_ H_ 0.803796 0.654777 0.807083 0.10932
H_ H_ 0.584697 0.621336 0.689489 0.10932
H_ H_ 0.827875 0.634026 0.679027 0.10932
H_ H_ 0.531401 0.598324 0.820204 0.10932
H_ H_ 0.767887 0.598882 0.802768 0.10932
H_ H_ 0.580152 0.726787 0.850585 0.10932
H_ H_ 0.895345 0.683746 0.861235 0.10932
H_ H_ 0.670835 0.762763 0.857576 0.10932
H_ H_ 0.858256 0.804479 0.863008 0.10932
H_ H_ 0.668344 0.775348 0.932879 0.10932
H_ H_ 0.847599 0.796584 0.938793 0.10932
H_ H_ 0.574927 0.741784 0.927639 0.10932
H_ H_ 0.889522 0.679392 0.940668 0.10932
H_ H_ 0.642185 0.680792 0.643333 0.10932
H_ H_ 0.884963 0.809908 0.639217 0.10932
H_ H_ 0.613472 0.805469 0.6287 0.10932
H_ H_ 0.868205 0.681632 0.646934 0.10932
H_ H_ 0.610513 0.794898 0.553872 0.10932
H_ H_ 0.86383 0.679194 0.566722 0.10932
H_ H_ 0.651936 0.675823 0.56535 0.10932
H_ H_ 0.881223 0.807174 0.560627 0.10932
C_ C_ 0.569702 0.842734 0.74368 -0.02249
C_ C_ 0.818376 0.844638 0.747472 -0.02249
C_ C_ 0.517487 0.956845 0.744311 -0.02249
C_ C_ 0.768805 0.960159 0.745187 -0.02249
C_ C_ 0.546924 0.900633 0.706284 -0.11473
C_ C_ 0.785669 0.894591 0.711578 -0.11473
C_ C_ 0.554948 0.855693 0.779773 -0.11473
C_ C_ 0.818617 0.870863 0.782275 -0.11473
C_ C_ 0.563836 0.864494 0.706087 -0.11473
C_ C_ 0.80201 0.85844 0.711513 -0.11473
C_ C_ 0.534329 0.916393 0.743989 -0.02249
C_ C_ 0.78625 0.9202 0.746971 -0.02249
C_ C_ 0.590731 0.807884 0.743187 0.6875
C_ C_ 0.839548 0.807949 0.746961 0.6875
C_ C_ 0.536751 0.89134 0.779922 -0.11473
C_ C_ 0.804969 0.90968 0.781179 -0.11473
C_ C_ 0.687089 0.844565 0.748601 -0.02249
C_ C_ 0.936162 0.842631 0.750815 -0.02249
C_ C_ 0.738362 0.958669 0.751549 -0.02249
C_ C_ 0.986179 0.959815 0.747476 -0.02249
C_ C_ 0.721279 0.891575 0.785295 -0.11473
C_ C_ 0.963442 0.899594 0.787817 -0.11473
C_ C_ 0.692417 0.867394 0.710552 -0.11473
C_ C_ 0.942647 0.863066 0.713075 -0.11473
C_ C_ 0.703672 0.855779 0.784588 -0.11473
C_ C_ 0.944892 0.862419 0.788432 -0.11473
C_ C_ 0.721616 0.917612 0.749998 -0.02249
C_ C_ 0.96859 0.918393 0.749938 -0.02249
C_ C_ 0.668326 0.807666 0.748074 0.6875
C_ C_ 0.918304 0.802505 0.751224 0.6875
C_ C_ 0.706932 0.903912 0.713217 -0.11473
C_ C_ 0.960398 0.895905 0.7131 -0.11473
C_ C_ 0.686367 0.649912 0.748215 -0.02249
C_ C_ 0.933375 0.647921 0.74963 -0.02249
C_ C_ 0.738273 0.535721 0.743688 -0.02249
C_ C_ 0.985212 0.535933 0.752728 -0.02249
C_ C_ 0.703456 0.584245 0.779055 -0.11473
C_ C_ 0.962898 0.594979 0.788826 -0.11473
C_ C_ 0.704116 0.640818 0.712746 -0.11473
C_ C_ 0.939511 0.628763 0.713045 -0.11473
C_ C_ 0.686741 0.619934 0.782691 -0.11473
C_ C_ 0.945319 0.632245 0.786506 -0.11473
C_ C_ 0.720973 0.575928 0.744636 -0.02249
C_ C_ 0.969387 0.574636 0.750483 -0.02249
C_ C_ 0.666744 0.685909 0.748971 0.6875
C_ C_ 0.91432 0.685356 0.748936 0.6875
C_ C_ 0.719295 0.602261 0.709473 -0.11473
C_ C_ 0.954891 0.589692 0.713875 -0.11473
C_ C_ 0.569647 0.651265 0.7459 -0.02249
C_ C_ 0.81662 0.650177 0.744168 -0.02249
C_ C_ 0.518229 0.533896 0.758484 -0.02249
C_ C_ 0.770892 0.535351 0.744801 -0.02249
C_ C_ 0.55019 0.585671 0.718594 -0.11473
C_ C_ 0.805554 0.5845 0.711256 -0.11473
C_ C_ 0.553979 0.641589 0.781554 -0.11473
C_ C_ 0.800158 0.639564 0.778111 -0.11473
C_ C_ 0.569532 0.620631 0.715346 -0.11473
C_ C_ 0.818418 0.622636 0.708555 -0.11473
C_ C_ 0.534805 0.574686 0.75637 -0.02249
C_ C_ 0.787212 0.574124 0.745141 -0.02249
C_ C_ 0.590021 0.685737 0.744151 0.6875
C_ C_ 0.835224 0.68916 0.74485 0.6875
C_ C_ 0.538465 0.605165 0.78849 -0.11473
C_ C_ 0.782534 0.604474 0.776909 -0.11473
C_ C_ 0.598681 0.737668 0.868573 0.17695
C_ C_ 0.885531 0.709724 0.877111 0.17695
C_ C_ 0.649648 0.758394 0.870929 0.17695
C_ C_ 0.864261 0.776294 0.878771 0.17695
C_ C_ 0.649969 0.761577 0.915607 -0.11473
C_ C_ 0.859396 0.773599 0.923606 -0.11473
C_ C_ 0.62236 0.75225 0.936402 0.23465
C_ C_ 0.870244 0.737749 0.944761 0.23465
C_ C_ 0.596066 0.745895 0.911843 -0.11473
C_ C_ 0.882033 0.706833 0.921179 -0.11473
C_ C_ 0.642456 0.709774 0.623411 0.17695
C_ C_ 0.880237 0.781253 0.622261 0.17695
C_ C_ 0.620367 0.775508 0.615824 0.17695
C_ C_ 0.86977 0.709374 0.626654 0.17695
C_ C_ 0.62146 0.771052 0.571985 -0.11473
C_ C_ 0.868092 0.707251 0.582903 -0.11473
C_ C_ 0.634941 0.735917 0.552768 0.23465
C_ C_ 0.875165 0.743565 0.559327 0.23465
C_ C_ 0.644541 0.705346 0.580493 -0.11473
C_ C_ 0.881557 0.780555 0.579147 -0.11473
C_ C_ 0.532825 -0.0068350000000000355 0.748764 0.05793
C_ C_ 0.7839 -0.003010999999999986 0.742922 0.05793
C_ C_ 0.723115 0.497649 0.745263 0.05793
C_ C_ 0.968637 0.499108 0.754023 0.05793
Br Br 0.573831 -0.00819700000000001 0.768696 -0.17191
Br Br 0.824501 0.997847 0.722907 -0.17191
Br Br 0.680228 0.495013 0.732543 -0.17191
Br Br 0.924032 0.50007 0.754702 -0.17191
N_ N_ 0.626323 0.740773 0.850057 -0.272
N_ N_ 0.87428 0.742944 0.855253 -0.272
N_ N_ 0.619549 0.759496 0.981103 -0.12501
N_ N_ 0.870279 0.734126 0.990419 -0.12501
N_ N_ 0.629534 0.743938 0.640319 -0.272
N_ N_ 0.875678 0.745992 0.646305 -0.272
N_ N_ 0.635822 0.731783 0.508513 -0.12501
N_ N_ 0.869631 0.743701 0.514496 -0.12501
O_ O_ 0.595344 0.790504 0.709466 -0.60745
O_ O_ 0.848003 0.794434 0.712237 -0.60745
O_ O_ 0.599983 0.793471 0.77766 -0.60745
O_ O_ 0.846673 0.79153 0.781518 -0.60745
O_ O_ 0.661525 0.790416 0.782401 -0.60745
O_ O_ 0.909106 0.789488 0.785498 -0.60745
O_ O_ 0.657213 0.794231 0.71285 -0.60745
O_ O_ 0.908372 0.787023 0.717894 -0.60745
O_ O_ 0.65437 0.696094 0.783134 -0.60745
O_ O_ 0.908243 0.702212 0.783542 -0.60745
O_ O_ 0.662301 0.707204 0.714772 -0.60745
O_ O_ 0.903488 0.700078 0.715492 -0.60745
O_ O_ 0.600307 0.697118 0.70986 -0.60745
O_ O_ 0.836129 0.711435 0.712087 -0.60745
O_ O_ 0.596811 0.705863 0.77725 -0.60745
O_ O_ 0.846759 0.701282 0.779345 -0.60745
