_cell_length_a 44.444
_cell_length_b 32.3360000049186
_cell_length_c 31.843999878906452
_cell_angle_alpha 89.99799923859553
_cell_angle_beta 91.13600050494348
_cell_angle_gamma 89.9990006550086
_symmetry_space_group_name_H-M         'P 1'
_symmetry_Int_Tables_number            1
loop_
_symmetry_equiv_pos_as_xyz
   'x, y, z'
                         
loop_
_atom_site_label
_atom_site_type_symbol
_atom_site_fract_x 
_atom_site_fract_y
_atom_site_fract_z
_atom_site_charge
Zn Zn 0.123927 0.250131 0.289066 0.9476
Zn Zn 0.374376 0.249419 0.28517 0.9476
Zn Zn 0.121192 0.247369 0.214742 0.9476
Zn Zn 0.36978 0.247286 0.214997 0.9476
H_ H_ 0.0234656 0.406116 0.175786 0.10932
H_ H_ 0.266686 0.401823 0.177423 0.10932
H_ H_ 0.0739732 0.363361 0.310287 0.10932
H_ H_ 0.33508 0.372155 0.300819 0.10932
H_ H_ 0.0566027 0.345465 0.179615 0.10932
H_ H_ 0.295155 0.336163 0.18346 0.10932
H_ H_ 0.0461427 0.430556 0.305934 0.10932
H_ H_ 0.307581 0.440855 0.294175 0.10932
H_ H_ 0.227478 0.403341 0.311163 0.10932
H_ H_ 0.477648 0.405834 0.309496 0.10932
H_ H_ 0.160639 0.371276 0.190332 0.10932
H_ H_ 0.424161 0.352275 0.182472 0.10932
H_ H_ 0.21172 0.330839 0.298496 0.10932
H_ H_ 0.445052 0.34609 0.316838 0.10932
H_ H_ 0.188496 0.43454 0.188349 0.10932
H_ H_ 0.457194 0.415769 0.175857 0.10932
H_ H_ 0.223322 0.087473 0.322009 0.10932
H_ H_ 0.470089 0.0899123 0.306731 0.10932
H_ H_ 0.171937 0.138467 0.193007 0.10932
H_ H_ 0.432082 0.144871 0.17781 0.10932
H_ H_ 0.19625 0.149396 0.326378 0.10932
H_ H_ 0.437741 0.147338 0.308194 0.10932
H_ H_ 0.205121 0.0766489 0.191899 0.10932
H_ H_ 0.458967 0.0743019 0.174275 0.10932
H_ H_ 0.0303893 0.0846581 0.181428 0.10932
H_ H_ 0.271031 0.0840982 0.186532 0.10932
H_ H_ 0.0545028 0.147227 0.320549 0.10932
H_ H_ 0.313017 0.14161 0.320435 0.10932
H_ H_ 0.0700542 0.134254 0.186284 0.10932
H_ H_ 0.302146 0.146839 0.184391 0.10932
H_ H_ 0.0267022 0.080463 0.318308 0.10932
H_ H_ 0.293709 0.0694559 0.319222 0.10932
H_ H_ 0.12994 0.324572 0.354935 0.10932
H_ H_ 0.368253 0.30613 0.360734 0.10932
H_ H_ 0.124812 0.195393 0.366707 0.10932
H_ H_ 0.371275 0.176283 0.35076 0.10932
H_ H_ 0.133679 0.197661 0.443898 0.10932
H_ H_ 0.377824 0.16616 0.426071 0.10932
H_ H_ 0.132887 0.333684 0.434842 0.10932
H_ H_ 0.358444 0.298724 0.437938 0.10932
H_ H_ 0.115165 0.311275 0.137588 0.10932
H_ H_ 0.395949 0.302901 0.143755 0.10932
H_ H_ 0.129776 0.179825 0.148476 0.10932
H_ H_ 0.329947 0.206452 0.133297 0.10932
H_ H_ 0.139305 0.174313 0.0706969 0.10932
H_ H_ 0.329957 0.218017 0.0568388 0.10932
H_ H_ 0.120234 0.307245 0.060996 0.10932
H_ H_ 0.398317 0.306672 0.0716055 0.10932
C_ C_ 0.0676899 0.349463 0.243454 -0.02249
C_ C_ 0.313179 0.347316 0.245922 -0.02249
C_ C_ 0.0133437 0.46012 0.238447 -0.02249
C_ C_ 0.263967 0.461306 0.239687 -0.02249
C_ C_ 0.0353342 0.398835 0.206361 -0.11473
C_ C_ 0.28031 0.396143 0.205807 -0.11473
C_ C_ 0.0663601 0.375442 0.278192 -0.11473
C_ C_ 0.316889 0.376371 0.276547 -0.11473
C_ C_ 0.0510552 0.36117 0.207777 -0.11473
C_ C_ 0.295975 0.358536 0.208975 -0.11473
C_ C_ 0.0332674 0.423529 0.240308 -0.02249
C_ C_ 0.281506 0.422607 0.241529 -0.02249
C_ C_ 0.08331 0.308804 0.246623 0.6875
C_ C_ 0.333068 0.30929 0.246489 0.6875
C_ C_ 0.0481592 0.411267 0.277541 -0.11473
C_ C_ 0.301857 0.415178 0.274579 -0.11473
C_ C_ 0.18441 0.346463 0.245822 -0.02249
C_ C_ 0.435757 0.342607 0.246955 -0.02249
C_ C_ 0.233379 0.460988 0.249233 -0.02249
C_ C_ 0.483538 0.460923 0.243468 -0.02249
C_ C_ 0.218476 0.394035 0.280249 -0.11473
C_ C_ 0.464488 0.397114 0.282986 -0.11473
C_ C_ 0.177026 0.376901 0.214614 -0.11473
C_ C_ 0.437553 0.364933 0.209111 -0.11473
C_ C_ 0.20687 0.353861 0.275712 -0.11473
C_ C_ 0.448108 0.360666 0.285243 -0.11473
C_ C_ 0.214847 0.421795 0.246789 -0.02249
C_ C_ 0.466481 0.418547 0.243794 -0.02249
C_ C_ 0.16604 0.306768 0.2493 0.6875
C_ C_ 0.412299 0.307766 0.247214 0.6875
C_ C_ 0.19516 0.413164 0.212497 -0.11473
C_ C_ 0.453225 0.402062 0.207624 -0.11473
C_ C_ 0.18305 0.152358 0.258128 -0.02249
C_ C_ 0.429245 0.149457 0.24236 -0.02249
C_ C_ 0.230538 0.0333834 0.256108 -0.02249
C_ C_ 0.480916 0.03784 0.243131 -0.02249
C_ C_ 0.210799 0.0970262 0.295856 -0.11473
C_ C_ 0.458598 0.0959541 0.278378 -0.11473
C_ C_ 0.183391 0.127623 0.222141 -0.11473
C_ C_ 0.437258 0.130248 0.204531 -0.11473
C_ C_ 0.193913 0.133072 0.297642 -0.11473
C_ C_ 0.440631 0.130761 0.278815 -0.11473
C_ C_ 0.214189 0.0755363 0.258784 -0.02249
C_ C_ 0.464151 0.0762314 0.240747 -0.02249
C_ C_ 0.163338 0.189937 0.256856 0.6875
C_ C_ 0.411134 0.187189 0.243027 0.6875
C_ C_ 0.200735 0.0913089 0.221492 -0.11473
C_ C_ 0.453469 0.0918597 0.202946 -0.11473
C_ C_ 0.0632974 0.149126 0.251575 -0.02249
C_ C_ 0.310931 0.150897 0.251072 -0.02249
C_ C_ 0.012895 0.0351133 0.250296 -0.02249
C_ C_ 0.263803 0.0323088 0.253854 -0.02249
C_ C_ 0.0385616 0.0937836 0.214386 -0.11473
C_ C_ 0.280969 0.0979098 0.215197 -0.11473
C_ C_ 0.0536351 0.130262 0.29055 -0.11473
C_ C_ 0.306111 0.129354 0.290187 -0.11473
C_ C_ 0.0575706 0.127378 0.214931 -0.11473
C_ C_ 0.29765 0.134485 0.213248 -0.11473
C_ C_ 0.0295014 0.0744638 0.251707 -0.02249
C_ C_ 0.280711 0.0731017 0.252504 -0.02249
C_ C_ 0.083308 0.18608 0.250544 0.6875
C_ C_ 0.331163 0.187119 0.248933 0.6875
C_ C_ 0.0357374 0.0931816 0.289916 -0.11473
C_ C_ 0.293648 0.0888825 0.289565 -0.11473
C_ C_ 0.130018 0.297723 0.376726 0.17695
C_ C_ 0.370158 0.277311 0.376725 0.17695
C_ C_ 0.129723 0.225428 0.382641 0.17695
C_ C_ 0.37487 0.203366 0.372684 0.17695
C_ C_ 0.133449 0.225781 0.426153 -0.11473
C_ C_ 0.372966 0.198451 0.415104 -0.11473
C_ C_ 0.134256 0.265209 0.44709 0.23465
C_ C_ 0.37167 0.233701 0.441068 0.23465
C_ C_ 0.133017 0.301176 0.421409 -0.11473
C_ C_ 0.367692 0.273148 0.421399 -0.11473
C_ C_ 0.120124 0.280328 0.122707 0.17695
C_ C_ 0.385658 0.277104 0.127585 0.17695
C_ C_ 0.130171 0.208246 0.129346 0.17695
C_ C_ 0.346633 0.227834 0.119366 0.17695
C_ C_ 0.134159 0.204532 0.0842335 -0.11473
C_ C_ 0.347666 0.231525 0.0750469 -0.11473
C_ C_ 0.130435 0.240331 0.0594508 0.23465
C_ C_ 0.368086 0.258192 0.0558267 0.23465
C_ C_ 0.122696 0.279396 0.0790537 -0.11473
C_ C_ 0.386486 0.281302 0.0838466 -0.11473
C_ C_ 0.0263492 0.499269 0.232642 0.05793
C_ C_ 0.278693 0.49867 0.231526 0.05793
C_ C_ 0.214253 -0.0028329999999999744 0.263828 0.05793
C_ C_ 0.465986 1.0000975206 0.238387 0.05793
Br Br 0.0659734 0.503896 0.208109 -0.17191
Br Br 0.320978 0.498087 0.214554 -0.17191
Br Br 0.171909 0.000677201 0.272917 -0.17191
Br Br 0.425147 0.997564 0.216154 -0.17191
N_ N_ 0.127368 0.26033 0.35858 -0.272
N_ N_ 0.374133 0.24238 0.354097 -0.272
N_ N_ 0.140028 0.268392 0.489528 -0.12501
N_ N_ 0.371299 0.230158 0.486613 -0.12501
N_ N_ 0.124255 0.245341 0.147052 -0.272
N_ N_ 0.36535 0.251506 0.144614 -0.272
N_ N_ 0.129617 0.235821 0.015821 -0.12501
N_ N_ 0.370847 0.265218 0.0101599 -0.12501
O_ O_ 0.091424 0.291233 0.214593 -0.60745
O_ O_ 0.338653 0.288357 0.21384 -0.60745
O_ O_ 0.0933171 0.296419 0.281174 -0.60745
O_ O_ 0.342396 0.294901 0.282856 -0.60745
O_ O_ 0.158008 0.29351 0.285339 -0.60745
O_ O_ 0.401778 0.297358 0.281876 -0.60745
O_ O_ 0.154153 0.292545 0.214731 -0.60745
O_ O_ 0.40546 0.286186 0.214207 -0.60745
O_ O_ 0.154143 0.2063 0.289681 -0.60745
O_ O_ 0.408827 0.205597 0.278683 -0.60745
O_ O_ 0.152912 0.202004 0.222245 -0.60745
O_ O_ 0.396496 0.19997 0.211572 -0.60745
O_ O_ 0.0949964 0.196812 0.216211 -0.60745
O_ O_ 0.336984 0.205626 0.215304 -0.60745
O_ O_ 0.0919246 0.203973 0.284904 -0.60745
O_ O_ 0.343309 0.200734 0.282306 -0.60745
Zn Zn 0.130183 0.253778 0.785326 0.9476
Zn Zn 0.372888 0.254107 0.780188 0.9476
Zn Zn 0.131207 0.251783 0.716096 0.9476
Zn Zn 0.371051 0.25443 0.710935 0.9476
H_ H_ 0.0326174 0.418996 0.684192 0.10932
H_ H_ 0.290138 0.426917 0.665417 0.10932
H_ H_ 0.0756182 0.361597 0.816473 0.10932
H_ H_ 0.310013 0.358274 0.804243 0.10932
H_ H_ 0.0713525 0.357136 0.683896 0.10932
H_ H_ 0.315078 0.358619 0.666153 0.10932
H_ H_ 0.0349667 0.416666 0.819392 0.10932
H_ H_ 0.278712 0.416946 0.803696 0.10932
H_ H_ 0.219514 0.42548 0.812808 0.10932
H_ H_ 0.478992 0.406985 0.817074 0.10932
H_ H_ 0.189466 0.35309 0.680221 0.10932
H_ H_ 0.428412 0.362466 0.684332 0.10932
H_ H_ 0.191565 0.361051 0.816071 0.10932
H_ H_ 0.455402 0.338641 0.808659 0.10932
H_ H_ 0.211723 0.422994 0.677538 0.10932
H_ H_ 0.462771 0.421591 0.686003 0.10932
H_ H_ 0.219357 0.0757578 0.817304 0.10932
H_ H_ 0.46796 0.089916 0.827892 0.10932
H_ H_ 0.185092 0.142152 0.684975 0.10932
H_ H_ 0.424168 0.136207 0.689731 0.10932
H_ H_ 0.19633 0.146714 0.818906 0.10932
H_ H_ 0.434173 0.15293 0.822407 0.10932
H_ H_ 0.208127 0.075447 0.683357 0.10932
H_ H_ 0.454752 0.0756572 0.693847 0.10932
H_ H_ 0.0380201 0.0880123 0.678174 0.10932
H_ H_ 0.296278 0.0705041 0.680804 0.10932
H_ H_ 0.0739783 0.148152 0.81605 0.10932
H_ H_ 0.308571 0.158836 0.808831 0.10932
H_ H_ 0.0630175 0.156559 0.680583 0.10932
H_ H_ 0.325231 0.137331 0.676636 0.10932
H_ H_ 0.0456048 0.0805884 0.813622 0.10932
H_ H_ 0.280089 0.0940157 0.812364 0.10932
H_ H_ 0.143688 0.317474 0.856221 0.10932
H_ H_ 0.392658 0.311019 0.863464 0.10932
H_ H_ 0.128501 0.188541 0.863009 0.10932
H_ H_ 0.355607 0.192671 0.849082 0.10932
H_ H_ 0.126678 0.192896 0.943669 0.10932
H_ H_ 0.348069 0.183492 0.925 0.10932
H_ H_ 0.144219 0.321197 0.934798 0.10932
H_ H_ 0.378139 0.310922 0.939355 0.10932
H_ H_ 0.0845739 0.257993 0.646468 0.10932
H_ H_ 0.370964 0.188711 0.636321 0.10932
H_ H_ 0.179076 0.250914 0.63737 0.10932
H_ H_ 0.381032 0.319658 0.641481 0.10932
H_ H_ 0.174377 0.259296 0.557557 0.10932
H_ H_ 0.380965 0.324607 0.564374 0.10932
H_ H_ 0.0806869 0.250166 0.566758 0.10932
H_ H_ 0.364727 0.191234 0.558625 0.10932
C_ C_ 0.0726137 0.353001 0.75184 -0.02249
C_ C_ 0.315514 0.353629 0.735267 -0.02249
C_ C_ 0.0175177 0.462051 0.751556 -0.02249
C_ C_ 0.265292 0.467562 0.732818 -0.02249
C_ C_ 0.0432702 0.40617 0.712871 -0.11473
C_ C_ 0.291696 0.409799 0.695169 -0.11473
C_ C_ 0.0645777 0.37157 0.789514 -0.11473
C_ C_ 0.304237 0.369665 0.77315 -0.11473
C_ C_ 0.060546 0.368992 0.712364 -0.11473
C_ C_ 0.306721 0.371808 0.696957 -0.11473
C_ C_ 0.035281 0.423282 0.749846 -0.02249
C_ C_ 0.280634 0.425755 0.732832 -0.02249
C_ C_ 0.0918483 0.315003 0.750595 0.6875
C_ C_ 0.332424 0.31299 0.74012 0.6875
C_ C_ 0.0458536 0.406324 0.789711 -0.11473
C_ C_ 0.285203 0.404721 0.772475 -0.11473
C_ C_ 0.190273 0.34988 0.747867 -0.02249
C_ C_ 0.436207 0.348117 0.748585 -0.02249
C_ C_ 0.235395 0.467764 0.742639 -0.02249
C_ C_ 0.488831 0.46013 0.752961 -0.02249
C_ C_ 0.210476 0.412389 0.783605 -0.11473
C_ C_ 0.46793 0.397309 0.78682 -0.11473
C_ C_ 0.198419 0.367806 0.709451 -0.11473
C_ C_ 0.44014 0.370237 0.711655 -0.11473
C_ C_ 0.197876 0.374022 0.786129 -0.11473
C_ C_ 0.450835 0.360821 0.785503 -0.11473
C_ C_ 0.216956 0.43 0.744175 -0.02249
C_ C_ 0.469959 0.422772 0.751313 -0.02249
C_ C_ 0.170099 0.313887 0.750219 0.6875
C_ C_ 0.41298 0.314093 0.747784 0.6875
C_ C_ 0.210048 0.408209 0.706953 -0.11473
C_ C_ 0.457826 0.40719 0.714119 -0.11473
C_ C_ 0.187837 0.150857 0.75205 -0.02249
C_ C_ 0.426323 0.15017 0.755556 -0.02249
C_ C_ 0.235933 0.0338073 0.75064 -0.02249
C_ C_ 0.482054 0.0409862 0.761426 -0.02249
C_ C_ 0.213233 0.0934722 0.789013 -0.11473
C_ C_ 0.455992 0.101284 0.798347 -0.11473
C_ C_ 0.191592 0.129512 0.7141 -0.11473
C_ C_ 0.434181 0.128785 0.719574 -0.11473
C_ C_ 0.2013 0.133787 0.78845 -0.11473
C_ C_ 0.437865 0.13545 0.794625 -0.11473
C_ C_ 0.217952 0.0737475 0.749608 -0.02249
C_ C_ 0.462502 0.079022 0.761765 -0.02249
C_ C_ 0.168742 0.190332 0.751831 0.6875
C_ C_ 0.409415 0.190944 0.751312 0.6875
C_ C_ 0.206823 0.0905894 0.712631 -0.11473
C_ C_ 0.451344 0.0927607 0.721956 -0.11473
C_ C_ 0.0674042 0.15981 0.748886 -0.02249
C_ C_ 0.317064 0.152366 0.741002 -0.02249
C_ C_ 0.0186889 0.0438423 0.747394 -0.02249
C_ C_ 0.268032 0.0369513 0.75082 -0.02249
C_ C_ 0.0426601 0.103626 0.70804 -0.11473
C_ C_ 0.296594 0.0907654 0.708088 -0.11473
C_ C_ 0.0635669 0.136295 0.786577 -0.11473
C_ C_ 0.305668 0.14017 0.779832 -0.11473
C_ C_ 0.0565707 0.142856 0.710519 -0.11473
C_ C_ 0.311224 0.128788 0.70489 -0.11473
C_ C_ 0.0378577 0.082249 0.745698 -0.02249
C_ C_ 0.282408 0.0805761 0.745419 -0.02249
C_ C_ 0.0901332 0.195292 0.750251 0.6875
C_ C_ 0.336416 0.190894 0.741032 0.6875
C_ C_ 0.049174 0.0991175 0.784959 -0.11473
C_ C_ 0.289145 0.10436 0.782247 -0.11473
C_ C_ 0.138981 0.289284 0.875552 0.17695
C_ C_ 0.381425 0.285027 0.87736 0.17695
C_ C_ 0.132173 0.216805 0.879852 0.17695
C_ C_ 0.359926 0.217504 0.868977 0.17695
C_ C_ 0.130626 0.219233 0.925762 -0.11473
C_ C_ 0.357775 0.212502 0.911734 -0.11473
C_ C_ 0.13333 0.258331 0.946223 0.23465
C_ C_ 0.36537 0.245118 0.938321 0.23465
C_ C_ 0.138283 0.292252 0.919277 -0.11473
C_ C_ 0.375469 0.284015 0.920618 -0.11473
C_ C_ 0.104119 0.256662 0.626233 0.17695
C_ C_ 0.373982 0.217531 0.618425 0.17695
C_ C_ 0.156831 0.253977 0.622578 0.17695
C_ C_ 0.377304 0.290775 0.622892 0.17695
C_ C_ 0.154639 0.254805 0.576266 -0.11473
C_ C_ 0.378264 0.293414 0.578728 -0.11473
C_ C_ 0.126536 0.256956 0.557647 0.23465
C_ C_ 0.375176 0.257169 0.554598 0.23465
C_ C_ 0.101689 0.254045 0.581652 -0.11473
C_ C_ 0.372106 0.218781 0.574331 -0.11473
C_ C_ 0.0336836 0.500771 0.760703 0.05793
C_ C_ 0.280511 0.505477 0.723946 0.05793
C_ C_ 0.222195 -0.006068999999999991 0.75699 0.05793
C_ C_ 0.467848 1.00108603 0.768825 0.05793
Br Br 0.0719977 0.502458 0.793425 -0.17191
Br Br 0.323349 0.504222 0.714546 -0.17191
Br Br 0.178306 -0.006753000000000009 0.757045 -0.17191
Br Br 0.425551 1.00172136 0.792353 -0.17191
N_ N_ 0.13349 0.252341 0.856824 -0.272
N_ N_ 0.370064 0.254632 0.852971 -0.272
N_ N_ 0.133835 0.264861 0.990087 -0.12501
N_ N_ 0.360706 0.240622 0.983839 -0.12501
N_ N_ 0.131933 0.251631 0.645748 -0.272
N_ N_ 0.372478 0.253898 0.642005 -0.272
N_ N_ 0.124271 0.248438 0.514081 -0.12501
N_ N_ 0.371793 0.260746 0.509899 -0.12501
O_ O_ 0.102157 0.299924 0.715943 -0.60745
O_ O_ 0.337902 0.294716 0.706596 -0.60745
O_ O_ 0.0967716 0.296078 0.783877 -0.60745
O_ O_ 0.341734 0.297626 0.774438 -0.60745
O_ O_ 0.159683 0.299616 0.78503 -0.60745
O_ O_ 0.404461 0.299253 0.783189 -0.60745
O_ O_ 0.163562 0.296974 0.715617 -0.60745
O_ O_ 0.40354 0.297828 0.714721 -0.60745
O_ O_ 0.163642 0.210211 0.784501 -0.60745
O_ O_ 0.403465 0.210962 0.784011 -0.60745
O_ O_ 0.159089 0.205253 0.715835 -0.60745
O_ O_ 0.399087 0.204257 0.717053 -0.60745
O_ O_ 0.0957688 0.215875 0.717897 -0.60745
O_ O_ 0.345108 0.208465 0.707609 -0.60745
O_ O_ 0.101204 0.206213 0.784716 -0.60745
O_ O_ 0.343448 0.207565 0.775979 -0.60745
Zn Zn 0.123229 0.745497 0.284703 0.9476
Zn Zn 0.373927 0.748563 0.2852 0.9476
Zn Zn 0.119783 0.747541 0.211954 0.9476
Zn Zn 0.371229 0.747684 0.212054 0.9476
H_ H_ 0.045361 0.932593 0.190073 0.10932
H_ H_ 0.270315 0.907231 0.192282 0.10932
H_ H_ 0.0450401 0.83028 0.310336 0.10932
H_ H_ 0.303835 0.841946 0.323119 0.10932
H_ H_ 0.0733116 0.866719 0.187544 0.10932
H_ H_ 0.297126 0.844628 0.18831 0.10932
H_ H_ 0.0207108 0.897642 0.316869 0.10932
H_ H_ 0.279356 0.908717 0.325084 0.10932
H_ H_ 0.204496 0.915329 0.322793 0.10932
H_ H_ 0.457911 0.922158 0.312111 0.10932
H_ H_ 0.179195 0.853577 0.184312 0.10932
H_ H_ 0.427252 0.849798 0.179574 0.10932
H_ H_ 0.185822 0.843799 0.317559 0.10932
H_ H_ 0.425869 0.862317 0.312336 0.10932
H_ H_ 0.206431 0.921109 0.187372 0.10932
H_ H_ 0.456486 0.917569 0.177347 0.10932
H_ H_ 0.226859 0.585276 0.311845 0.10932
H_ H_ 0.458228 0.569451 0.313359 0.10932
H_ H_ 0.167023 0.63435 0.185962 0.10932
H_ H_ 0.442262 0.654385 0.18321 0.10932
H_ H_ 0.197578 0.647509 0.316301 0.10932
H_ H_ 0.42857 0.634466 0.315372 0.10932
H_ H_ 0.193403 0.57032 0.182174 0.10932
H_ H_ 0.470584 0.587697 0.180685 0.10932
H_ H_ 0.00852567 0.601112 0.189429 0.10932
H_ H_ 0.274439 0.59396 0.168161 0.10932
H_ H_ 0.0682959 0.62971 0.315909 0.10932
H_ H_ 0.311083 0.638429 0.307737 0.10932
H_ H_ 0.0423889 0.660368 0.186325 0.10932
H_ H_ 0.315702 0.64416 0.170562 0.10932
H_ H_ 0.0367666 0.567633 0.309824 0.10932
H_ H_ 0.281993 0.575793 0.301058 0.10932
H_ H_ 0.106876 0.81583 0.356046 0.10932
H_ H_ 0.382186 0.681111 0.355277 0.10932
H_ H_ 0.12968 0.685091 0.363998 0.10932
H_ H_ 0.368243 0.807365 0.3649 0.10932
H_ H_ 0.126961 0.694286 0.443989 0.10932
H_ H_ 0.3612 0.799402 0.444068 0.10932
H_ H_ 0.0989593 0.817383 0.433891 0.10932
H_ H_ 0.386135 0.674114 0.430766 0.10932
H_ H_ 0.173605 0.733475 0.140432 0.10932
H_ H_ 0.356432 0.699386 0.132632 0.10932
H_ H_ 0.0790154 0.762853 0.138619 0.10932
H_ H_ 0.388339 0.823773 0.140658 0.10932
H_ H_ 0.0796274 0.763296 0.0627595 0.10932
H_ H_ 0.404544 0.817584 0.0677568 0.10932
H_ H_ 0.173817 0.736421 0.0657395 0.10932
H_ H_ 0.369093 0.693961 0.0593222 0.10932
C_ C_ 0.0591397 0.842552 0.246529 -0.02249
C_ C_ 0.309711 0.841569 0.255694 -0.02249
C_ C_ 0.0146004 0.959057 0.258229 -0.02249
C_ C_ 0.260711 0.956735 0.26153 -0.02249
C_ C_ 0.0430111 0.908227 0.216603 -0.11473
C_ C_ 0.280456 0.896664 0.219428 -0.11473
C_ C_ 0.0456044 0.852163 0.284727 -0.11473
C_ C_ 0.300511 0.858784 0.294534 -0.11473
C_ C_ 0.0584957 0.871478 0.21276 -0.11473
C_ C_ 0.295129 0.859379 0.218534 -0.11473
C_ C_ 0.0322061 0.919918 0.255664 -0.02249
C_ C_ 0.275816 0.916875 0.259287 -0.02249
C_ C_ 0.0784439 0.803448 0.243907 0.6875
C_ C_ 0.329933 0.80327 0.251419 0.6875
C_ C_ 0.0325395 0.890612 0.289265 -0.11473
C_ C_ 0.286185 0.897483 0.295291 -0.11473
C_ C_ 0.181217 0.842967 0.250615 -0.02249
C_ C_ 0.431 0.845192 0.247492 -0.02249
C_ C_ 0.229349 0.958436 0.260713 -0.02249
C_ C_ 0.480678 0.960523 0.24354 -0.02249
C_ C_ 0.201523 0.899316 0.292045 -0.11473
C_ C_ 0.457088 0.903602 0.282932 -0.11473
C_ C_ 0.185444 0.866485 0.214318 -0.11473
C_ C_ 0.438272 0.862249 0.207055 -0.11473
C_ C_ 0.188752 0.860592 0.290445 -0.11473
C_ C_ 0.439062 0.865725 0.28467 -0.11473
C_ C_ 0.210421 0.920028 0.255022 -0.02249
C_ C_ 0.463701 0.92125 0.244309 -0.02249
C_ C_ 0.162263 0.805657 0.247114 0.6875
C_ C_ 0.411172 0.808158 0.251816 0.6875
C_ C_ 0.202596 0.903473 0.21491 -0.11473
C_ C_ 0.453543 0.902759 0.207102 -0.11473
C_ C_ 0.180108 0.647809 0.251265 -0.02249
C_ C_ 0.429321 0.647566 0.248415 -0.02249
C_ C_ 0.231321 0.536086 0.242967 -0.02249
C_ C_ 0.486434 0.536481 0.240463 -0.02249
C_ C_ 0.213374 0.59654 0.283869 -0.11473
C_ C_ 0.455318 0.588629 0.284434 -0.11473
C_ C_ 0.179289 0.62364 0.212622 -0.11473
C_ C_ 0.444242 0.63486 0.210478 -0.11473
C_ C_ 0.196283 0.631793 0.287179 -0.11473
C_ C_ 0.436019 0.622848 0.285234 -0.11473
C_ C_ 0.214488 0.575342 0.244467 -0.02249
C_ C_ 0.466957 0.575054 0.245393 -0.02249
C_ C_ 0.161523 0.688519 0.254691 0.6875
C_ C_ 0.409558 0.686251 0.248347 0.6875
C_ C_ 0.193782 0.58644 0.211462 -0.11473
C_ C_ 0.462357 0.600612 0.210819 -0.11473
C_ C_ 0.0605448 0.649302 0.251715 -0.02249
C_ C_ 0.314142 0.64961 0.239655 -0.02249
C_ C_ 0.00944423 0.53618 0.240223 -0.02249
C_ C_ 0.262423 0.536209 0.233668 -0.02249
C_ C_ 0.0274364 0.603656 0.213241 -0.11473
C_ C_ 0.286176 0.599008 0.197577 -0.11473
C_ C_ 0.0558376 0.625228 0.287381 -0.11473
C_ C_ 0.307765 0.624982 0.276639 -0.11473
C_ C_ 0.0441494 0.639677 0.215196 -0.11473
C_ C_ 0.306204 0.632945 0.199709 -0.11473
C_ C_ 0.0271996 0.575409 0.245362 -0.02249
C_ C_ 0.279305 0.576131 0.234768 -0.02249
C_ C_ 0.0819472 0.68525 0.251583 0.6875
C_ C_ 0.332306 0.688311 0.245006 0.6875
C_ C_ 0.0397476 0.587531 0.283218 -0.11473
C_ C_ 0.28978 0.589383 0.274022 -0.11473
C_ C_ 0.112767 0.788194 0.373626 0.17695
C_ C_ 0.376782 0.706916 0.372807 0.17695
C_ C_ 0.126192 0.717047 0.379862 0.17695
C_ C_ 0.366505 0.777964 0.379569 0.17695
C_ C_ 0.122281 0.718858 0.424126 -0.11473
C_ C_ 0.362161 0.771622 0.42242 -0.11473
C_ C_ 0.114343 0.756129 0.442333 0.23465
C_ C_ 0.368125 0.734407 0.442758 0.23465
C_ C_ 0.107628 0.790158 0.418525 -0.11473
C_ C_ 0.379642 0.703061 0.416344 -0.11473
C_ C_ 0.152063 0.736637 0.12484 0.17695
C_ C_ 0.36567 0.727388 0.118469 0.17695
C_ C_ 0.100078 0.750684 0.123094 0.17695
C_ C_ 0.384325 0.79572 0.123743 0.17695
C_ C_ 0.0992833 0.753844 0.0800533 -0.11473
C_ C_ 0.3891 0.794156 0.0803073 -0.11473
C_ C_ 0.126539 0.746933 0.0586507 0.23465
C_ C_ 0.384007 0.758933 0.0557802 0.23465
C_ C_ 0.153302 0.741427 0.0811024 -0.11473
C_ C_ 0.372438 0.723977 0.0761961 -0.11473
C_ C_ 0.0300749 0.996713 0.252972 0.05793
C_ C_ 0.278976 0.993486 0.256952 0.05793
C_ C_ 0.217331 0.498225 0.252678 0.05793
C_ C_ 0.470368 0.49916 0.235164 0.05793
Br Br 0.0729727 0.00106739 0.265048 -0.17191
Br Br 0.322866 0.993155 0.263633 -0.17191
Br Br 0.178608 0.49903 0.278078 -0.17191
Br Br 0.426604 0.498143 0.228252 -0.17191
N_ N_ 0.121832 0.752089 0.355591 -0.272
N_ N_ 0.372285 0.744497 0.354757 -0.272
N_ N_ 0.108532 0.75915 0.487023 -0.12501
N_ N_ 0.369667 0.729416 0.48695 -0.12501
N_ N_ 0.125935 0.74188 0.144293 -0.272
N_ N_ 0.375377 0.759125 0.142679 -0.272
N_ N_ 0.127586 0.757195 0.0150589 -0.12501
N_ N_ 0.390805 0.759987 0.0121925 -0.12501
O_ O_ 0.0877776 0.792689 0.207997 -0.60745
O_ O_ 0.343839 0.796678 0.217978 -0.60745
O_ O_ 0.08925 0.787713 0.277057 -0.60745
O_ O_ 0.33942 0.785757 0.284888 -0.60745
O_ O_ 0.153099 0.790289 0.282018 -0.60745
O_ O_ 0.403036 0.794536 0.287352 -0.60745
O_ O_ 0.152051 0.792535 0.21199 -0.60745
O_ O_ 0.406012 0.788004 0.218298 -0.60745
O_ O_ 0.155439 0.70248 0.288857 -0.60745
O_ O_ 0.402749 0.701982 0.282746 -0.60745
O_ O_ 0.153162 0.705084 0.220003 -0.60745
O_ O_ 0.399469 0.701303 0.212824 -0.60745
O_ O_ 0.0885987 0.702736 0.216303 -0.60745
O_ O_ 0.337016 0.709629 0.211615 -0.60745
O_ O_ 0.0921503 0.699903 0.287411 -0.60745
O_ O_ 0.343153 0.699722 0.280058 -0.60745
Zn Zn 0.126102 0.753052 0.7855 0.9476
Zn Zn 0.380946 0.749571 0.786399 0.9476
Zn Zn 0.12201 0.754133 0.716803 0.9476
Zn Zn 0.379256 0.750699 0.716463 0.9476
H_ H_ 0.0235724 0.917408 0.685447 0.10932
H_ H_ 0.288136 0.918856 0.68736 0.10932
H_ H_ 0.0647648 0.857299 0.818199 0.10932
H_ H_ 0.318527 0.850178 0.816686 0.10932
H_ H_ 0.0574213 0.858925 0.680971 0.10932
H_ H_ 0.319829 0.856681 0.683211 0.10932
H_ H_ 0.0396951 0.920547 0.8178 0.10932
H_ H_ 0.298521 0.919857 0.820096 0.10932
H_ H_ 0.233347 0.904056 0.819656 0.10932
H_ H_ 0.490696 0.901596 0.814236 0.10932
H_ H_ 0.184994 0.857824 0.688397 0.10932
H_ H_ 0.425508 0.868609 0.69045 0.10932
H_ H_ 0.198168 0.843107 0.82171 0.10932
H_ H_ 0.460136 0.835747 0.811567 0.10932
H_ H_ 0.205843 0.928912 0.693917 0.10932
H_ H_ 0.447265 0.938014 0.697317 0.10932
H_ H_ 0.213027 0.585453 0.816972 0.10932
H_ H_ 0.466107 0.571087 0.811152 0.10932
H_ H_ 0.199875 0.666941 0.685289 0.10932
H_ H_ 0.463014 0.659979 0.685116 0.10932
H_ H_ 0.187744 0.655582 0.818729 0.10932
H_ H_ 0.436658 0.639156 0.81617 0.10932
H_ H_ 0.224441 0.602188 0.68082 0.10932
H_ H_ 0.476259 0.588014 0.681665 0.10932
H_ H_ 0.0290659 0.583893 0.685425 0.10932
H_ H_ 0.283509 0.593247 0.670112 0.10932
H_ H_ 0.069644 0.644814 0.819421 0.10932
H_ H_ 0.321136 0.648736 0.8083 0.10932
H_ H_ 0.0587868 0.650523 0.683498 0.10932
H_ H_ 0.314512 0.655955 0.672616 0.10932
H_ H_ 0.0409022 0.582119 0.82039 0.10932
H_ H_ 0.288258 0.582628 0.802555 0.10932
H_ H_ 0.110405 0.810033 0.869788 0.10932
H_ H_ 0.389312 0.804266 0.861923 0.10932
H_ H_ 0.119619 0.686336 0.854776 0.10932
H_ H_ 0.383113 0.675819 0.855233 0.10932
H_ H_ 0.120962 0.676562 0.935218 0.10932
H_ H_ 0.371015 0.671439 0.932272 0.10932
H_ H_ 0.116644 0.804825 0.947378 0.10932
H_ H_ 0.388502 0.803611 0.939865 0.10932
H_ H_ 0.168709 0.76692 0.648353 0.10932
H_ H_ 0.383503 0.817527 0.643624 0.10932
H_ H_ 0.0765504 0.739487 0.639785 0.10932
H_ H_ 0.372021 0.687867 0.636599 0.10932
H_ H_ 0.0825852 0.725147 0.561944 0.10932
H_ H_ 0.372032 0.691502 0.557381 0.10932
H_ H_ 0.172616 0.764089 0.570051 0.10932
H_ H_ 0.391049 0.820747 0.563951 0.10932
C_ C_ 0.0663993 0.852921 0.749565 -0.02249
C_ C_ 0.322216 0.848436 0.750389 -0.02249
C_ C_ 0.0167 0.967594 0.754725 -0.02249
C_ C_ 0.271841 0.960842 0.754266 -0.02249
C_ C_ 0.0348924 0.905005 0.714202 -0.11473
C_ C_ 0.296244 0.904158 0.714608 -0.11473
C_ C_ 0.0556296 0.867908 0.78819 -0.11473
C_ C_ 0.312972 0.86439 0.788079 -0.11473
C_ C_ 0.0527231 0.868862 0.711438 -0.11473
C_ C_ 0.313285 0.868518 0.713304 -0.11473
C_ C_ 0.0314478 0.92695 0.75152 -0.02249
C_ C_ 0.290943 0.923276 0.75266 -0.02249
C_ C_ 0.0853911 0.814399 0.748985 0.6875
C_ C_ 0.340304 0.808903 0.750703 0.6875
C_ C_ 0.0405842 0.905764 0.789521 -0.11473
C_ C_ 0.299331 0.902342 0.789901 -0.11473
C_ C_ 0.186762 0.846173 0.756387 -0.02249
C_ C_ 0.442068 0.845801 0.749719 -0.02249
C_ C_ 0.240503 0.958327 0.758405 -0.02249
C_ C_ 0.484772 0.965203 0.758757 -0.02249
C_ C_ 0.219524 0.895105 0.791906 -0.11473
C_ C_ 0.476834 0.894428 0.786124 -0.11473
C_ C_ 0.191579 0.869218 0.718611 -0.11473
C_ C_ 0.439252 0.876347 0.717331 -0.11473
C_ C_ 0.2001 0.860334 0.792828 -0.11473
C_ C_ 0.458659 0.858039 0.786214 -0.11473
C_ C_ 0.223295 0.918577 0.75588 -0.02249
C_ C_ 0.469973 0.925008 0.755545 -0.02249
C_ C_ 0.164423 0.810725 0.757995 0.6875
C_ C_ 0.421118 0.810927 0.752889 0.6875
C_ C_ 0.210207 0.904822 0.718287 -0.11473
C_ C_ 0.450738 0.915311 0.721543 -0.11473
C_ C_ 0.187598 0.659588 0.750971 -0.02249
C_ C_ 0.442972 0.653893 0.749526 -0.02249
C_ C_ 0.237975 0.544582 0.749291 -0.02249
C_ C_ 0.489288 0.535658 0.746843 -0.02249
C_ C_ 0.210747 0.602482 0.78811 -0.11473
C_ C_ 0.461545 0.590643 0.783719 -0.11473
C_ C_ 0.20354 0.64926 0.713255 -0.11473
C_ C_ 0.459112 0.641218 0.712377 -0.11473
C_ C_ 0.195393 0.640305 0.789152 -0.11473
C_ C_ 0.447722 0.629362 0.787312 -0.11473
C_ C_ 0.221575 0.584681 0.749917 -0.02249
C_ C_ 0.472272 0.575549 0.747243 -0.02249
C_ C_ 0.164555 0.692957 0.751721 0.6875
C_ C_ 0.425052 0.693097 0.753156 0.6875
C_ C_ 0.219982 0.612075 0.713423 -0.11473
C_ C_ 0.46846 0.599589 0.710613 -0.11473
C_ C_ 0.0675965 0.652829 0.749994 -0.02249
C_ C_ 0.32381 0.650626 0.741937 -0.02249
C_ C_ 0.0184842 0.538322 0.757273 -0.02249
C_ C_ 0.26723 0.544186 0.73638 -0.02249
C_ C_ 0.0402073 0.596937 0.714124 -0.11473
C_ C_ 0.292402 0.604461 0.700287 -0.11473
C_ C_ 0.0625774 0.632219 0.789367 -0.11473
C_ C_ 0.313244 0.633826 0.779616 -0.11473
C_ C_ 0.0551656 0.635264 0.713305 -0.11473
C_ C_ 0.310414 0.639142 0.702382 -0.11473
C_ C_ 0.0354466 0.577762 0.753078 -0.02249
C_ C_ 0.286198 0.582563 0.736947 -0.02249
C_ C_ 0.0859368 0.692575 0.750495 0.6875
C_ C_ 0.341545 0.691594 0.746586 0.6875
C_ C_ 0.0479039 0.59396 0.790449 -0.11473
C_ C_ 0.294646 0.598683 0.775636 -0.11473
C_ C_ 0.114859 0.782048 0.88229 0.17695
C_ C_ 0.391666 0.775011 0.879719 0.17695
C_ C_ 0.124419 0.710976 0.874804 0.17695
C_ C_ 0.38063 0.703246 0.875314 0.17695
C_ C_ 0.121696 0.705506 0.919014 -0.11473
C_ C_ 0.377242 0.701194 0.918949 -0.11473
C_ C_ 0.12108 0.740556 0.943805 0.23465
C_ C_ 0.378497 0.738859 0.943605 0.23465
C_ C_ 0.11775 0.779032 0.925634 -0.11473
C_ C_ 0.387726 0.776477 0.922568 -0.11473
C_ C_ 0.149278 0.763119 0.628615 0.17695
C_ C_ 0.384366 0.789234 0.62448 0.17695
C_ C_ 0.0979151 0.743483 0.622585 0.17695
C_ C_ 0.374426 0.717784 0.620104 0.17695
C_ C_ 0.0998285 0.739014 0.579355 -0.11473
C_ C_ 0.37822 0.718625 0.576076 -0.11473
C_ C_ 0.125995 0.751163 0.558927 0.23465
C_ C_ 0.378372 0.756521 0.555842 0.23465
C_ C_ 0.150426 0.762981 0.583069 -0.11473
C_ C_ 0.386388 0.792007 0.57966 -0.11473
C_ C_ 0.0332618 0.00492587 0.751447 0.05793
C_ C_ 0.28522 0.000363029 0.753933 0.05793
C_ C_ 0.221038 0.508099 0.749063 0.05793
C_ C_ 0.473321 0.49757 0.746318 0.05793
Br Br 0.0770951 0.000620639 0.754107 -0.17191
Br Br 0.327708 0.0017144 0.74105 -0.17191
Br Br 0.180027 0.507984 0.763127 -0.17191
Br Br 0.430376 0.495475 0.747594 -0.17191
N_ N_ 0.123757 0.749698 0.857201 -0.272
N_ N_ 0.383993 0.740546 0.85779 -0.272
N_ N_ 0.115942 0.734315 0.987943 -0.12501
N_ N_ 0.377347 0.734455 0.988154 -0.12501
N_ N_ 0.122962 0.752515 0.646841 -0.272
N_ N_ 0.378636 0.752912 0.644058 -0.272
N_ N_ 0.128819 0.748001 0.513561 -0.12501
N_ N_ 0.376489 0.758594 0.5113 -0.12501
O_ O_ 0.0882838 0.795293 0.71606 -0.60745
O_ O_ 0.346974 0.793839 0.715973 -0.60745
O_ O_ 0.0975491 0.800445 0.783567 -0.60745
O_ O_ 0.349103 0.7925 0.785105 -0.60745
O_ O_ 0.156107 0.796087 0.793116 -0.60745
O_ O_ 0.413328 0.794407 0.787406 -0.60745
O_ O_ 0.152142 0.7987 0.724149 -0.60745
O_ O_ 0.410363 0.796328 0.719596 -0.60745
O_ O_ 0.152287 0.704502 0.785959 -0.60745
O_ O_ 0.413958 0.703507 0.788816 -0.60745
O_ O_ 0.156745 0.713566 0.719459 -0.60745
O_ O_ 0.413484 0.709103 0.72019 -0.60745
O_ O_ 0.0919809 0.711543 0.716707 -0.60745
O_ O_ 0.350829 0.706871 0.714898 -0.60745
O_ O_ 0.0962365 0.70789 0.785515 -0.60745
O_ O_ 0.351033 0.70383 0.781483 -0.60745
Zn Zn 0.623213 0.24765 0.286287 0.9476
Zn Zn 0.874861 0.24673 0.281907 0.9476
Zn Zn 0.623065 0.251171 0.215802 0.9476
Zn Zn 0.87545 0.245657 0.211799 0.9476
H_ H_ 0.527801 0.409698 0.183002 0.10932
H_ H_ 0.777235 0.412327 0.176749 0.10932
H_ H_ 0.558507 0.345324 0.316498 0.10932
H_ H_ 0.808006 0.347686 0.312826 0.10932
H_ H_ 0.562287 0.346881 0.182052 0.10932
H_ H_ 0.805146 0.348783 0.173108 0.10932
H_ H_ 0.539168 0.415565 0.318083 0.10932
H_ H_ 0.787009 0.412697 0.311403 0.10932
H_ H_ 0.726401 0.407057 0.318787 0.10932
H_ H_ 0.981389 0.396392 0.312772 0.10932
H_ H_ 0.65978 0.372428 0.195303 0.10932
H_ H_ 0.919555 0.371429 0.185391 0.10932
H_ H_ 0.693341 0.341033 0.321444 0.10932
H_ H_ 0.943434 0.339082 0.311747 0.10932
H_ H_ 0.696491 0.425156 0.190178 0.10932
H_ H_ 0.951219 0.431685 0.189018 0.10932
H_ H_ 0.711082 0.0775974 0.319268 0.10932
H_ H_ 0.968316 0.0869716 0.321595 0.10932
H_ H_ 0.688034 0.150852 0.187484 0.10932
H_ H_ 0.929398 0.141341 0.184678 0.10932
H_ H_ 0.690038 0.149057 0.320458 0.10932
H_ H_ 0.947173 0.156156 0.317875 0.10932
H_ H_ 0.722626 0.0935787 0.185965 0.10932
H_ H_ 0.956435 0.0750536 0.184673 0.10932
H_ H_ 0.530954 0.080917 0.178107 0.10932
H_ H_ 0.789384 0.0763366 0.192011 0.10932
H_ H_ 0.550039 0.154799 0.311134 0.10932
H_ H_ 0.808937 0.152418 0.323934 0.10932
H_ H_ 0.552746 0.151294 0.179621 0.10932
H_ H_ 0.821013 0.136857 0.191493 0.10932
H_ H_ 0.523965 0.0894327 0.314027 0.10932
H_ H_ 0.775707 0.0896918 0.321488 0.10932
H_ H_ 0.618137 0.189434 0.365439 0.10932
H_ H_ 0.870693 0.179883 0.356968 0.10932
H_ H_ 0.628238 0.315102 0.355315 0.10932
H_ H_ 0.879945 0.314812 0.354256 0.10932
H_ H_ 0.634318 0.326318 0.431921 0.10932
H_ H_ 0.876242 0.312888 0.432079 0.10932
H_ H_ 0.614522 0.19598 0.446137 0.10932
H_ H_ 0.869336 0.182443 0.436578 0.10932
H_ H_ 0.609416 0.185904 0.146358 0.10932
H_ H_ 0.824784 0.232575 0.138385 0.10932
H_ H_ 0.626634 0.31392 0.134829 0.10932
H_ H_ 0.920526 0.245342 0.134464 0.10932
H_ H_ 0.63011 0.305331 0.0556363 0.10932
H_ H_ 0.918538 0.234389 0.0586932 0.10932
H_ H_ 0.612638 0.177745 0.0666082 0.10932
H_ H_ 0.822828 0.23406 0.0627624 0.10932
C_ C_ 0.563105 0.343068 0.248694 -0.02249
C_ C_ 0.813487 0.345449 0.243436 -0.02249
C_ C_ 0.51473 0.458408 0.25035 -0.02249
C_ C_ 0.761442 0.458655 0.24723 -0.02249
C_ C_ 0.538812 0.399601 0.213773 -0.11473
C_ C_ 0.783138 0.39645 0.206699 -0.11473
C_ C_ 0.556525 0.360653 0.287418 -0.11473
C_ C_ 0.80244 0.360147 0.282931 -0.11473
C_ C_ 0.556138 0.363865 0.212611 -0.11473
C_ C_ 0.798353 0.360172 0.206168 -0.11473
C_ C_ 0.530647 0.416771 0.251007 -0.02249
C_ C_ 0.777395 0.41687 0.244628 -0.02249
C_ C_ 0.583664 0.308264 0.249759 0.6875
C_ C_ 0.835388 0.308422 0.242279 0.6875
C_ C_ 0.540405 0.397818 0.28936 -0.11473
C_ C_ 0.786685 0.397164 0.283568 -0.11473
C_ C_ 0.675295 0.348896 0.257444 -0.02249
C_ C_ 0.932175 0.34551 0.24512 -0.02249
C_ C_ 0.730326 0.46179 0.253238 -0.02249
C_ C_ 0.983459 0.458522 0.251958 -0.02249
C_ C_ 0.713199 0.396114 0.291534 -0.11473
C_ C_ 0.967383 0.390912 0.285149 -0.11473
C_ C_ 0.675928 0.374896 0.220972 -0.11473
C_ C_ 0.932107 0.375438 0.21317 -0.11473
C_ C_ 0.69504 0.35956 0.291737 -0.11473
C_ C_ 0.946756 0.356999 0.283927 -0.11473
C_ C_ 0.711551 0.422356 0.256168 -0.02249
C_ C_ 0.969512 0.417948 0.250215 -0.02249
C_ C_ 0.659493 0.307827 0.255878 0.6875
C_ C_ 0.912846 0.306827 0.244211 0.6875
C_ C_ 0.694431 0.410094 0.220413 -0.11473
C_ C_ 0.952536 0.410143 0.214089 -0.11473
C_ C_ 0.685937 0.153371 0.25445 -0.02249
C_ C_ 0.933683 0.152306 0.252734 -0.02249
C_ C_ 0.735994 0.0385441 0.25249 -0.02249
C_ C_ 0.981924 0.0348606 0.25112 -0.02249
C_ C_ 0.711125 0.096305 0.290848 -0.11473
C_ C_ 0.962729 0.0989831 0.290143 -0.11473
C_ C_ 0.696775 0.137547 0.21668 -0.11473
C_ C_ 0.936619 0.128955 0.21432 -0.11473
C_ C_ 0.696155 0.134784 0.291338 -0.11473
C_ C_ 0.949187 0.13778 0.288653 -0.11473
C_ C_ 0.720348 0.0794243 0.252136 -0.02249
C_ C_ 0.964461 0.0740991 0.253603 -0.02249
C_ C_ 0.665605 0.190204 0.254731 0.6875
C_ C_ 0.914446 0.190095 0.252468 0.6875
C_ C_ 0.713279 0.101324 0.214943 -0.11473
C_ C_ 0.95281 0.0921437 0.213746 -0.11473
C_ C_ 0.56155 0.153402 0.246806 -0.02249
C_ C_ 0.819622 0.147476 0.25774 -0.02249
C_ C_ 0.512183 0.0378915 0.24651 -0.02249
C_ C_ 0.767513 0.0370724 0.258483 -0.02249
C_ C_ 0.534635 0.0967719 0.208475 -0.11473
C_ C_ 0.795519 0.0906322 0.221395 -0.11473
C_ C_ 0.548568 0.137426 0.284004 -0.11473
C_ C_ 0.806645 0.132992 0.295756 -0.11473
C_ C_ 0.550144 0.135756 0.208662 -0.11473
C_ C_ 0.813246 0.124447 0.220233 -0.11473
C_ C_ 0.527526 0.0779686 0.246796 -0.02249
C_ C_ 0.78537 0.0755525 0.258646 -0.02249
C_ C_ 0.580914 0.190487 0.246803 0.6875
C_ C_ 0.835021 0.187517 0.25172 0.6875
C_ C_ 0.533374 0.0994217 0.283745 -0.11473
C_ C_ 0.789385 0.0964653 0.296038 -0.11473
C_ C_ 0.620199 0.218942 0.38165 0.17695
C_ C_ 0.874627 0.210361 0.373903 0.17695
C_ C_ 0.625587 0.290295 0.37506 0.17695
C_ C_ 0.876356 0.284827 0.371998 0.17695
C_ C_ 0.631029 0.293688 0.418206 -0.11473
C_ C_ 0.877573 0.285015 0.416635 -0.11473
C_ C_ 0.624806 0.259224 0.443851 0.23465
C_ C_ 0.873572 0.249805 0.439945 0.23465
C_ C_ 0.621651 0.22081 0.425845 -0.11473
C_ C_ 0.872158 0.210456 0.41882 -0.11473
C_ C_ 0.616353 0.211155 0.126258 0.17695
C_ C_ 0.845916 0.233012 0.122178 0.17695
C_ C_ 0.626178 0.282633 0.119905 0.17695
C_ C_ 0.898793 0.23981 0.119166 0.17695
C_ C_ 0.628134 0.279082 0.0764943 -0.11473
C_ C_ 0.897999 0.234651 0.0749567 -0.11473
C_ C_ 0.621943 0.240857 0.0564702 0.23465
C_ C_ 0.869911 0.237312 0.05328 0.23465
C_ C_ 0.614179 0.207969 0.0815699 -0.11473
C_ C_ 0.844379 0.234416 0.0777203 -0.11473
C_ C_ 0.531153 0.496773 0.255256 0.05793
C_ C_ 0.779502 0.494298 0.241617 0.05793
C_ C_ 0.71885 1.00296847 0.250769 0.05793
C_ C_ 0.967002 0.996837 0.249643 0.05793
Br Br 0.568729 0.496809 0.285109 -0.17191
Br Br 0.823841 0.489406 0.23903 -0.17191
Br Br 0.674386 0.00370378 0.256167 -0.17191
Br Br 0.925585 -0.0014640000000000208 0.231603 -0.17191
N_ N_ 0.622636 0.252609 0.356732 -0.272
N_ N_ 0.875313 0.247387 0.3524 -0.272
N_ N_ 0.624721 0.263205 0.488998 -0.12501
N_ N_ 0.867563 0.25132 0.483702 -0.12501
N_ N_ 0.624203 0.247731 0.14455 -0.272
N_ N_ 0.872998 0.240878 0.141447 -0.272
N_ N_ 0.619501 0.238346 0.012701 -0.12501
N_ N_ 0.86631 0.234722 0.009094 -0.12501
O_ O_ 0.594367 0.296424 0.215404 -0.60745
O_ O_ 0.841423 0.288681 0.209498 -0.60745
O_ O_ 0.589902 0.287973 0.282903 -0.60745
O_ O_ 0.845 0.293788 0.277185 -0.60745
O_ O_ 0.652245 0.29099 0.28939 -0.60745
O_ O_ 0.906756 0.288863 0.277334 -0.60745
O_ O_ 0.652217 0.294054 0.220517 -0.60745
O_ O_ 0.903714 0.291476 0.209012 -0.60745
O_ O_ 0.651255 0.201905 0.287481 -0.60745
O_ O_ 0.903175 0.201756 0.287105 -0.60745
O_ O_ 0.654737 0.204018 0.220221 -0.60745
O_ O_ 0.905239 0.204408 0.217846 -0.60745
O_ O_ 0.5907 0.205963 0.213054 -0.60745
O_ O_ 0.844146 0.198949 0.216006 -0.60745
O_ O_ 0.591079 0.203774 0.280623 -0.60745
O_ O_ 0.841744 0.206395 0.284662 -0.60745
Zn Zn 0.632066 0.250533 0.789968 0.9476
Zn Zn 0.875283 0.256156 0.781094 0.9476
Zn Zn 0.627801 0.246098 0.718475 0.9476
Zn Zn 0.872526 0.251819 0.710628 0.9476
H_ H_ 0.517551 0.393782 0.698723 0.10932
H_ H_ 0.784921 0.422155 0.673498 0.10932
H_ H_ 0.593542 0.369728 0.811073 0.10932
H_ H_ 0.807711 0.350113 0.809984 0.10932
H_ H_ 0.546671 0.330775 0.697511 0.10932
H_ H_ 0.822014 0.368461 0.679412 0.10932
H_ H_ 0.560471 0.433852 0.81501 0.10932
H_ H_ 0.786412 0.418545 0.809134 0.10932
H_ H_ 0.711052 0.430347 0.80994 0.10932
H_ H_ 0.969145 0.41528 0.815929 0.10932
H_ H_ 0.682115 0.358628 0.679271 0.10932
H_ H_ 0.930972 0.360172 0.676251 0.10932
H_ H_ 0.68989 0.359468 0.815646 0.10932
H_ H_ 0.938654 0.355928 0.812938 0.10932
H_ H_ 0.712013 0.419687 0.67477 0.10932
H_ H_ 0.955545 0.429467 0.679819 0.10932
H_ H_ 0.701856 0.0663857 0.801454 0.10932
H_ H_ 0.972399 0.0977017 0.81401 0.10932
H_ H_ 0.714422 0.170271 0.692044 0.10932
H_ H_ 0.925508 0.138295 0.681793 0.10932
H_ H_ 0.66519 0.124577 0.792904 0.10932
H_ H_ 0.940508 0.154625 0.813389 0.10932
H_ H_ 0.742637 0.104432 0.686266 0.10932
H_ H_ 0.959709 0.0795131 0.681707 0.10932
H_ H_ 0.523075 0.0961357 0.690594 0.10932
H_ H_ 0.811588 0.0653377 0.690782 0.10932
H_ H_ 0.573996 0.138417 0.823203 0.10932
H_ H_ 0.797459 0.16684 0.809375 0.10932
H_ H_ 0.55921 0.152792 0.69079 0.10932
H_ H_ 0.835497 0.133785 0.687841 0.10932
H_ H_ 0.545903 0.0734231 0.821094 0.10932
H_ H_ 0.768545 0.100778 0.806195 0.10932
H_ H_ 0.646522 0.318822 0.860989 0.10932
H_ H_ 0.92201 0.272138 0.850538 0.10932
H_ H_ 0.620313 0.193876 0.862955 0.10932
H_ H_ 0.831425 0.236826 0.863475 0.10932
H_ H_ 0.62032 0.193389 0.939783 0.10932
H_ H_ 0.837175 0.232148 0.941509 0.10932
H_ H_ 0.651284 0.31938 0.939952 0.10932
H_ H_ 0.92812 0.267856 0.930249 0.10932
H_ H_ 0.614537 0.179686 0.649175 0.10932
H_ H_ 0.922715 0.262936 0.649914 0.10932
H_ H_ 0.63552 0.306026 0.640143 0.10932
H_ H_ 0.830161 0.237624 0.627949 0.10932
H_ H_ 0.631569 0.302777 0.560561 0.10932
H_ H_ 0.837403 0.231669 0.552809 0.10932
H_ H_ 0.610043 0.173276 0.572503 0.10932
H_ H_ 0.927623 0.275163 0.569388 0.10932
C_ C_ 0.572469 0.344409 0.756719 -0.02249
C_ C_ 0.814896 0.351123 0.742268 -0.02249
C_ C_ 0.521071 0.458781 0.752189 -0.02249
C_ C_ 0.764462 0.466601 0.739509 -0.02249
C_ C_ 0.53537 0.388638 0.72358 -0.11473
C_ C_ 0.789276 0.406391 0.703505 -0.11473
C_ C_ 0.576057 0.37402 0.788367 -0.11473
C_ C_ 0.803875 0.366117 0.779112 -0.11473
C_ C_ 0.551409 0.352257 0.724698 -0.11473
C_ C_ 0.809113 0.372967 0.705075 -0.11473
C_ C_ 0.537447 0.418135 0.755699 -0.02249
C_ C_ 0.78161 0.425203 0.741368 -0.02249
C_ C_ 0.589756 0.306256 0.756773 0.6875
C_ C_ 0.834608 0.311527 0.741769 0.6875
C_ C_ 0.558084 0.41055 0.789288 -0.11473
C_ C_ 0.786993 0.40356 0.779487 -0.11473
C_ C_ 0.686128 0.350472 0.746489 -0.02249
C_ C_ 0.934289 0.352449 0.743807 -0.02249
C_ C_ 0.732732 0.466886 0.742693 -0.02249
C_ C_ 0.985675 0.464232 0.745374 -0.02249
C_ C_ 0.708485 0.411314 0.7827 -0.11473
C_ C_ 0.961509 0.406586 0.783634 -0.11473
C_ C_ 0.691251 0.371183 0.70856 -0.11473
C_ C_ 0.941629 0.371496 0.705648 -0.11473
C_ C_ 0.693814 0.372123 0.785067 -0.11473
C_ C_ 0.944508 0.36963 0.783394 -0.11473
C_ C_ 0.716271 0.428981 0.745602 -0.02249
C_ C_ 0.966915 0.426083 0.745251 -0.02249
C_ C_ 0.670177 0.308891 0.74725 0.6875
C_ C_ 0.91005 0.318531 0.745736 0.6875
C_ C_ 0.708419 0.406908 0.70791 -0.11473
C_ C_ 0.954897 0.410577 0.70812 -0.11473
C_ C_ 0.686668 0.154178 0.743671 -0.02249
C_ C_ 0.935073 0.156294 0.744833 -0.02249
C_ C_ 0.738271 0.0382313 0.738577 -0.02249
C_ C_ 0.987913 0.0446744 0.747561 -0.02249
C_ C_ 0.703664 0.0869121 0.775346 -0.11473
C_ C_ 0.965575 0.106953 0.783352 -0.11473
C_ C_ 0.708239 0.145901 0.71153 -0.11473
C_ C_ 0.937809 0.131254 0.710727 -0.11473
C_ C_ 0.685082 0.123723 0.774292 -0.11473
C_ C_ 0.947906 0.142738 0.783636 -0.11473
C_ C_ 0.719763 0.0766914 0.738816 -0.02249
C_ C_ 0.973634 0.0860318 0.746804 -0.02249
C_ C_ 0.668021 0.193052 0.745229 0.6875
C_ C_ 0.914701 0.19458 0.745422 0.6875
C_ C_ 0.724623 0.108949 0.708812 -0.11473
C_ C_ 0.959059 0.0981956 0.708608 -0.11473
C_ C_ 0.569618 0.152337 0.756361 -0.02249
C_ C_ 0.818686 0.154702 0.746913 -0.02249
C_ C_ 0.512549 0.0441682 0.755429 -0.02249
C_ C_ 0.770106 0.0382566 0.747112 -0.02249
C_ C_ 0.534715 0.105205 0.720725 -0.11473
C_ C_ 0.807265 0.0869558 0.71668 -0.11473
C_ C_ 0.566609 0.126116 0.793689 -0.11473
C_ C_ 0.799191 0.145601 0.780164 -0.11473
C_ C_ 0.553456 0.140308 0.720479 -0.11473
C_ C_ 0.82107 0.126233 0.713757 -0.11473
C_ C_ 0.528258 0.0857892 0.756783 -0.02249
C_ C_ 0.787042 0.0778114 0.74932 -0.02249
C_ C_ 0.588926 0.18933 0.754508 0.6875
C_ C_ 0.837091 0.192724 0.744983 0.6875
C_ C_ 0.54686 0.092156 0.792942 -0.11473
C_ C_ 0.781029 0.109359 0.779505 -0.11473
C_ C_ 0.641421 0.290779 0.879237 0.17695
C_ C_ 0.904643 0.257079 0.870234 0.17695
C_ C_ 0.63025 0.21936 0.8798 0.17695
C_ C_ 0.85236 0.244953 0.87733 0.17695
C_ C_ 0.626324 0.221157 0.922954 -0.11473
C_ C_ 0.854819 0.242065 0.920446 -0.11473
C_ C_ 0.632748 0.257427 0.945437 0.23465
C_ C_ 0.882021 0.252565 0.940358 0.23465
C_ C_ 0.641032 0.29288 0.922934 -0.11473
C_ C_ 0.907926 0.256961 0.914433 -0.11473
C_ C_ 0.614243 0.2087 0.628677 0.17695
C_ C_ 0.904946 0.259241 0.626753 0.17695
C_ C_ 0.631126 0.277807 0.623408 0.17695
C_ C_ 0.853355 0.242712 0.615991 0.17695
C_ C_ 0.625704 0.27736 0.580164 -0.11473
C_ C_ 0.856687 0.241996 0.572456 -0.11473
C_ C_ 0.620682 0.239978 0.560326 0.23465
C_ C_ 0.883961 0.250764 0.55404 0.23465
C_ C_ 0.614359 0.204873 0.583971 -0.11473
C_ C_ 0.908377 0.260444 0.581815 -0.11473
C_ C_ 0.537821 0.49759 0.749878 0.05793
C_ C_ 0.78098 0.503609 0.740062 0.05793
C_ C_ 0.722543 0.000672501 0.740718 0.05793
C_ C_ 0.969368 0.00978685 0.754126 0.05793
Br Br 0.581049 0.495189 0.745526 -0.17191
Br Br 0.824054 0.502552 0.742202 -0.17191
Br Br 0.680906 -0.00040799999999996395 0.723785 -0.17191
Br Br 0.92679 0.0131116 0.75612 -0.17191
N_ N_ 0.63493 0.254128 0.858592 -0.272
N_ N_ 0.876809 0.250635 0.851609 -0.272
N_ N_ 0.636475 0.256896 0.98905 -0.12501
N_ N_ 0.885375 0.251271 0.985396 -0.12501
N_ N_ 0.624363 0.245394 0.646795 -0.272
N_ N_ 0.877511 0.249837 0.64238 -0.272
N_ N_ 0.616945 0.236744 0.51542 -0.12501
N_ N_ 0.888481 0.247943 0.509601 -0.12501
O_ O_ 0.596243 0.288359 0.723137 -0.60745
O_ O_ 0.842794 0.295362 0.707581 -0.60745
O_ O_ 0.603386 0.295857 0.789319 -0.60745
O_ O_ 0.841127 0.294321 0.776188 -0.60745
O_ O_ 0.665014 0.292577 0.781827 -0.60745
O_ O_ 0.902073 0.303815 0.779932 -0.60745
O_ O_ 0.659684 0.293842 0.713382 -0.60745
O_ O_ 0.905704 0.295256 0.713599 -0.60745
O_ O_ 0.656041 0.201358 0.780163 -0.60745
O_ O_ 0.910578 0.214429 0.779252 -0.60745
O_ O_ 0.657599 0.207705 0.71154 -0.60745
O_ O_ 0.904225 0.208797 0.710989 -0.60745
O_ O_ 0.59685 0.202162 0.71904 -0.60745
O_ O_ 0.8431 0.210086 0.710039 -0.60745
O_ O_ 0.600736 0.205837 0.787637 -0.60745
O_ O_ 0.846017 0.208045 0.779345 -0.60745
Zn Zn 0.624538 0.75166 0.289102 0.9476
Zn Zn 0.872106 0.748287 0.285492 0.9476
Zn Zn 0.624662 0.74739 0.220064 0.9476
Zn Zn 0.870413 0.747096 0.214718 0.9476
H_ H_ 0.515691 0.900255 0.192171 0.10932
H_ H_ 0.782213 0.916155 0.187362 0.10932
H_ H_ 0.578126 0.868589 0.317043 0.10932
H_ H_ 0.805967 0.84122 0.319067 0.10932
H_ H_ 0.54453 0.837197 0.190252 0.10932
H_ H_ 0.816994 0.857438 0.18699 0.10932
H_ H_ 0.544879 0.930148 0.314766 0.10932
H_ H_ 0.769195 0.901178 0.322262 0.10932
H_ H_ 0.704129 0.928145 0.313847 0.10932
H_ H_ 0.961261 0.91759 0.323312 0.10932
H_ H_ 0.675505 0.857748 0.181421 0.10932
H_ H_ 0.938013 0.846464 0.187114 0.10932
H_ H_ 0.682903 0.859741 0.317744 0.10932
H_ H_ 0.939578 0.849038 0.323233 0.10932
H_ H_ 0.713233 0.913789 0.181775 0.10932
H_ H_ 0.967653 0.909477 0.187953 0.10932
H_ H_ 0.732433 0.594956 0.318382 0.10932
H_ H_ 0.96123 0.576413 0.318455 0.10932
H_ H_ 0.676885 0.636245 0.188589 0.10932
H_ H_ 0.932737 0.639082 0.182741 0.10932
H_ H_ 0.701103 0.659541 0.317473 0.10932
H_ H_ 0.931785 0.643019 0.317319 0.10932
H_ H_ 0.709597 0.573719 0.188173 0.10932
H_ H_ 0.952981 0.569477 0.183682 0.10932
H_ H_ 0.561418 0.5607 0.196666 0.10932
H_ H_ 0.777101 0.578939 0.176998 0.10932
H_ H_ 0.547792 0.659384 0.309204 0.10932
H_ H_ 0.822966 0.634289 0.309032 0.10932
H_ H_ 0.583751 0.629472 0.190063 0.10932
H_ H_ 0.799053 0.651653 0.176134 0.10932
H_ H_ 0.516826 0.59737 0.308498 0.10932
H_ H_ 0.790994 0.569227 0.307349 0.10932
H_ H_ 0.635885 0.683281 0.359562 0.10932
H_ H_ 0.820495 0.762666 0.355774 0.10932
H_ H_ 0.622547 0.81225 0.365262 0.10932
H_ H_ 0.911749 0.713084 0.367032 0.10932
H_ H_ 0.632554 0.810447 0.447673 0.10932
H_ H_ 0.906777 0.707053 0.44266 0.10932
H_ H_ 0.641619 0.677521 0.438247 0.10932
H_ H_ 0.823207 0.774335 0.430927 0.10932
H_ H_ 0.57496 0.743695 0.147212 0.10932
H_ H_ 0.862823 0.690608 0.143183 0.10932
H_ H_ 0.670461 0.74973 0.143061 0.10932
H_ H_ 0.883463 0.819102 0.14218 0.10932
H_ H_ 0.669449 0.752269 0.0675764 0.10932
H_ H_ 0.879041 0.819411 0.0640062 0.10932
H_ H_ 0.571281 0.748168 0.0708893 0.10932
H_ H_ 0.860901 0.689636 0.0580039 0.10932
C_ C_ 0.566865 0.849624 0.252103 -0.02249
C_ C_ 0.814848 0.846657 0.253538 -0.02249
C_ C_ 0.512246 0.96079 0.249183 -0.02249
C_ C_ 0.764738 0.960184 0.258031 -0.02249
C_ C_ 0.53296 0.897281 0.215415 -0.11473
C_ C_ 0.787278 0.901348 0.216918 -0.11473
C_ C_ 0.564254 0.875109 0.288032 -0.11473
C_ C_ 0.80191 0.859734 0.29186 -0.11473
C_ C_ 0.550588 0.861576 0.215348 -0.11473
C_ C_ 0.807128 0.867911 0.216164 -0.11473
C_ C_ 0.529922 0.921792 0.25172 -0.02249
C_ C_ 0.779276 0.919402 0.255398 -0.02249
C_ C_ 0.586134 0.810204 0.254535 0.6875
C_ C_ 0.837038 0.810736 0.252098 0.6875
C_ C_ 0.545427 0.910739 0.288036 -0.11473
C_ C_ 0.782105 0.89439 0.292645 -0.11473
C_ C_ 0.676784 0.852956 0.249839 -0.02249
C_ C_ 0.933587 0.842422 0.255523 -0.02249
C_ C_ 0.733669 0.964094 0.247646 -0.02249
C_ C_ 0.982607 0.96008 0.256056 -0.02249
C_ C_ 0.701674 0.910276 0.285412 -0.11473
C_ C_ 0.95806 0.900363 0.292903 -0.11473
C_ C_ 0.686449 0.870242 0.210048 -0.11473
C_ C_ 0.940932 0.863388 0.217424 -0.11473
C_ C_ 0.685989 0.872948 0.287429 -0.11473
C_ C_ 0.943741 0.862431 0.292603 -0.11473
C_ C_ 0.713672 0.925058 0.246273 -0.02249
C_ C_ 0.965619 0.919389 0.253487 -0.02249
C_ C_ 0.659843 0.811232 0.250224 0.6875
C_ C_ 0.91205 0.806206 0.258131 0.6875
C_ C_ 0.70588 0.903693 0.209253 -0.11473
C_ C_ 0.957906 0.899756 0.2168 -0.11473
C_ C_ 0.687784 0.654619 0.251718 -0.02249
C_ C_ 0.932278 0.649174 0.251901 -0.02249
C_ C_ 0.734806 0.535792 0.257741 -0.02249
C_ C_ 0.979078 0.532235 0.252915 -0.02249
C_ C_ 0.722806 0.605932 0.288536 -0.11473
C_ C_ 0.955356 0.591375 0.28941 -0.11473
C_ C_ 0.691106 0.629674 0.216906 -0.11473
C_ C_ 0.937594 0.626555 0.213452 -0.11473
C_ C_ 0.704689 0.642967 0.287527 -0.11473
C_ C_ 0.938901 0.628809 0.288823 -0.11473
C_ C_ 0.719561 0.577046 0.255346 -0.02249
C_ C_ 0.958776 0.567309 0.252559 -0.02249
C_ C_ 0.664995 0.691019 0.252949 0.6875
C_ C_ 0.912555 0.686521 0.251568 0.6875
C_ C_ 0.706851 0.592942 0.217329 -0.11473
C_ C_ 0.949832 0.586044 0.214698 -0.11473
C_ C_ 0.568497 0.650437 0.251029 -0.02249
C_ C_ 0.814016 0.648777 0.241297 -0.02249
C_ C_ 0.518079 0.535545 0.249764 -0.02249
C_ C_ 0.765007 0.532823 0.245085 -0.02249
C_ C_ 0.554421 0.585601 0.21679 -0.11473
C_ C_ 0.784556 0.595138 0.205797 -0.11473
C_ C_ 0.550403 0.638467 0.285447 -0.11473
C_ C_ 0.811999 0.624225 0.279704 -0.11473
C_ C_ 0.569743 0.623542 0.215849 -0.11473
C_ C_ 0.798471 0.634326 0.205638 -0.11473
C_ C_ 0.53477 0.575253 0.250019 -0.02249
C_ C_ 0.783418 0.570956 0.244433 -0.02249
C_ C_ 0.585322 0.691822 0.24921 0.6875
C_ C_ 0.831797 0.688802 0.243979 0.6875
C_ C_ 0.532036 0.604365 0.282664 -0.11473
C_ C_ 0.793081 0.588659 0.280674 -0.11473
C_ C_ 0.637099 0.709532 0.37898 0.17695
C_ C_ 0.841037 0.750127 0.374427 0.17695
C_ C_ 0.628016 0.782553 0.382398 0.17695
C_ C_ 0.890478 0.721264 0.379445 0.17695
C_ C_ 0.63203 0.781311 0.427756 -0.11473
C_ C_ 0.890181 0.723621 0.424075 -0.11473
C_ C_ 0.633247 0.74222 0.447698 0.23465
C_ C_ 0.86507 0.741561 0.443406 0.23465
C_ C_ 0.63736 0.706552 0.422593 -0.11473
C_ C_ 0.840758 0.755097 0.418394 -0.11473
C_ C_ 0.594819 0.745379 0.130212 0.17695
C_ C_ 0.865323 0.7184 0.123471 0.17695
C_ C_ 0.648315 0.749861 0.127918 0.17695
C_ C_ 0.880377 0.788789 0.124671 0.17695
C_ C_ 0.647478 0.752662 0.0843281 -0.11473
C_ C_ 0.876437 0.790447 0.0804602 -0.11473
C_ C_ 0.619497 0.753561 0.0625041 0.23465
C_ C_ 0.872098 0.754654 0.0554148 0.23465
C_ C_ 0.59301 0.74964 0.087516 -0.11473
C_ C_ 0.866104 0.716312 0.0785201 -0.11473
C_ C_ 0.527525 0.998968 0.249163 0.05793
C_ C_ 0.781792 0.998212 0.263289 0.05793
C_ C_ 0.717252 0.499439 0.258304 0.05793
C_ C_ 0.967062 0.493337 0.264317 0.05793
Br Br 0.569066 1.0000686723 0.255684 -0.17191
Br Br 0.825136 0.997316 0.277474 -0.17191
Br Br 0.673963 0.500449 0.263682 -0.17191
Br Br 0.925984 0.488476 0.283084 -0.17191
N_ N_ 0.631271 0.747074 0.36039 -0.272
N_ N_ 0.866803 0.73803 0.355506 -0.272
N_ N_ 0.628506 0.737312 0.492201 -0.12501
N_ N_ 0.863877 0.746309 0.488555 -0.12501
N_ N_ 0.622275 0.747271 0.149977 -0.272
N_ N_ 0.874464 0.75258 0.145416 -0.272
N_ N_ 0.613998 0.752181 0.0191351 -0.12501
N_ N_ 0.865314 0.758642 0.011793 -0.12501
O_ O_ 0.594222 0.791489 0.220923 -0.60745
O_ O_ 0.848133 0.800333 0.216848 -0.60745
O_ O_ 0.594742 0.795585 0.291453 -0.60745
O_ O_ 0.838515 0.786791 0.282768 -0.60745
O_ O_ 0.658094 0.793263 0.284822 -0.60745
O_ O_ 0.901707 0.795625 0.293123 -0.60745
O_ O_ 0.65194 0.793306 0.215982 -0.60745
O_ O_ 0.903897 0.786472 0.224909 -0.60745
O_ O_ 0.654703 0.702579 0.287184 -0.60745
O_ O_ 0.907432 0.707094 0.285671 -0.60745
O_ O_ 0.657364 0.708843 0.218374 -0.60745
O_ O_ 0.897099 0.696039 0.218624 -0.60745
O_ O_ 0.596448 0.701756 0.214184 -0.60745
O_ O_ 0.838097 0.705641 0.209867 -0.60745
O_ O_ 0.593689 0.707438 0.283367 -0.60745
O_ O_ 0.843699 0.702308 0.279008 -0.60745
Zn Zn 0.62525 0.752262 0.7888 0.9476
Zn Zn 0.877302 0.751013 0.784241 0.9476
Zn Zn 0.623323 0.756742 0.72024 0.9476
Zn Zn 0.878418 0.750707 0.713293 0.9476
H_ H_ 0.533031 0.92223 0.685109 0.10932
H_ H_ 0.801902 0.929823 0.680721 0.10932
H_ H_ 0.574955 0.86547 0.816804 0.10932
H_ H_ 0.800145 0.839782 0.803011 0.10932
H_ H_ 0.561627 0.857846 0.682429 0.10932
H_ H_ 0.83398 0.866125 0.681454 0.10932
H_ H_ 0.541179 0.926136 0.82092 0.10932
H_ H_ 0.776522 0.904927 0.80565 0.10932
H_ H_ 0.703517 0.934669 0.810488 0.10932
H_ H_ 0.973228 0.918405 0.818214 0.10932
H_ H_ 0.703197 0.839128 0.688171 0.10932
H_ H_ 0.917152 0.877448 0.687768 0.10932
H_ H_ 0.672611 0.87166 0.810582 0.10932
H_ H_ 0.948365 0.849389 0.813757 0.10932
H_ H_ 0.730299 0.902895 0.683433 0.10932
H_ H_ 0.946219 0.943827 0.690803 0.10932
H_ H_ 0.698769 0.571928 0.810896 0.10932
H_ H_ 0.983055 0.595281 0.814861 0.10932
H_ H_ 0.694858 0.666809 0.687683 0.10932
H_ H_ 0.928548 0.642472 0.686394 0.10932
H_ H_ 0.670347 0.637416 0.811796 0.10932
H_ H_ 0.953595 0.658713 0.81536 0.10932
H_ H_ 0.728053 0.60312 0.686259 0.10932
H_ H_ 0.960673 0.582184 0.682124 0.10932
H_ H_ 0.540928 0.582102 0.684705 0.10932
H_ H_ 0.781618 0.590116 0.6778 0.10932
H_ H_ 0.56182 0.65145 0.817287 0.10932
H_ H_ 0.813101 0.650038 0.814811 0.10932
H_ H_ 0.562197 0.649895 0.684309 0.10932
H_ H_ 0.812366 0.653379 0.677453 0.10932
H_ H_ 0.537608 0.582983 0.818748 0.10932
H_ H_ 0.781385 0.590605 0.814743 0.10932
H_ H_ 0.672702 0.72406 0.86245 0.10932
H_ H_ 0.891803 0.691452 0.8533 0.10932
H_ H_ 0.58979 0.787518 0.865204 0.10932
H_ H_ 0.869095 0.818667 0.861971 0.10932
H_ H_ 0.590166 0.788781 0.941189 0.10932
H_ H_ 0.863435 0.814613 0.94114 0.10932
H_ H_ 0.674122 0.72618 0.942179 0.10932
H_ H_ 0.90111 0.690882 0.932855 0.10932
H_ H_ 0.624881 0.693615 0.642484 0.10932
H_ H_ 0.877034 0.811068 0.635688 0.10932
H_ H_ 0.623184 0.82405 0.645011 0.10932
H_ H_ 0.874497 0.682644 0.649097 0.10932
H_ H_ 0.629454 0.827584 0.566942 0.10932
H_ H_ 0.877427 0.671018 0.570355 0.10932
H_ H_ 0.63862 0.695819 0.566209 0.10932
H_ H_ 0.884883 0.803456 0.557331 0.10932
C_ C_ 0.566334 0.85311 0.751342 -0.02249
C_ C_ 0.819334 0.847128 0.742057 -0.02249
C_ C_ 0.516158 0.968925 0.75516 -0.02249
C_ C_ 0.769798 0.960284 0.747045 -0.02249
C_ C_ 0.538553 0.907811 0.71464 -0.11473
C_ C_ 0.800398 0.908124 0.70621 -0.11473
C_ C_ 0.560924 0.874919 0.790304 -0.11473
C_ C_ 0.804617 0.859636 0.777604 -0.11473
C_ C_ 0.555538 0.870989 0.713034 -0.11473
C_ C_ 0.818091 0.871915 0.70653 -0.11473
C_ C_ 0.533746 0.930151 0.753406 -0.02249
C_ C_ 0.784594 0.920042 0.743032 -0.02249
C_ C_ 0.585541 0.815568 0.75281 0.6875
C_ C_ 0.837992 0.809089 0.744117 0.6875
C_ C_ 0.547517 0.914516 0.790298 -0.11473
C_ C_ 0.787645 0.895145 0.777942 -0.11473
C_ C_ 0.688809 0.8452 0.752148 -0.02249
C_ C_ 0.934377 0.855252 0.748441 -0.02249
C_ C_ 0.737922 0.963328 0.746879 -0.02249
C_ C_ 0.984452 0.970356 0.755767 -0.02249
C_ C_ 0.703645 0.913949 0.783009 -0.11473
C_ C_ 0.96243 0.907472 0.789284 -0.11473
C_ C_ 0.702995 0.857618 0.715883 -0.11473
C_ C_ 0.931661 0.883439 0.715326 -0.11473
C_ C_ 0.687221 0.876009 0.783968 -0.11473
C_ C_ 0.949384 0.868698 0.786142 -0.11473
C_ C_ 0.720004 0.924135 0.746883 -0.02249
C_ C_ 0.965369 0.932657 0.753991 -0.02249
C_ C_ 0.666504 0.809988 0.752433 0.6875
C_ C_ 0.914237 0.817263 0.748238 0.6875
C_ C_ 0.718805 0.895743 0.712117 -0.11473
C_ C_ 0.948296 0.922901 0.717442 -0.11473
C_ C_ 0.683755 0.659109 0.752597 -0.02249
C_ C_ 0.938972 0.65569 0.749901 -0.02249
C_ C_ 0.732849 0.543452 0.743842 -0.02249
C_ C_ 0.987032 0.539677 0.749948 -0.02249
C_ C_ 0.70001 0.593405 0.783979 -0.11473
C_ C_ 0.969334 0.602418 0.787971 -0.11473
C_ C_ 0.699297 0.648891 0.715152 -0.11473
C_ C_ 0.941123 0.632568 0.714409 -0.11473
C_ C_ 0.68354 0.630763 0.784533 -0.11473
C_ C_ 0.952719 0.640202 0.787973 -0.11473
C_ C_ 0.716806 0.58441 0.748709 -0.02249
C_ C_ 0.970634 0.580527 0.750324 -0.02249
C_ C_ 0.661797 0.693177 0.753491 0.6875
C_ C_ 0.918639 0.692398 0.7515 0.6875
C_ C_ 0.71654 0.611332 0.714546 -0.11473
C_ C_ 0.956912 0.595403 0.712804 -0.11473
C_ C_ 0.564656 0.656805 0.750765 -0.02249
C_ C_ 0.814226 0.657157 0.745961 -0.02249
C_ C_ 0.521346 0.536462 0.748418 -0.02249
C_ C_ 0.76511 0.542611 0.744614 -0.02249
C_ C_ 0.544807 0.596372 0.713932 -0.11473
C_ C_ 0.789592 0.60161 0.706758 -0.11473
C_ C_ 0.555038 0.639106 0.788213 -0.11473
C_ C_ 0.803824 0.640175 0.784002 -0.11473
C_ C_ 0.555528 0.636409 0.714839 -0.11473
C_ C_ 0.804533 0.639561 0.706642 -0.11473
C_ C_ 0.53786 0.577371 0.750934 -0.02249
C_ C_ 0.781361 0.582121 0.743203 -0.02249
C_ C_ 0.58149 0.696093 0.752201 0.6875
C_ C_ 0.835496 0.694792 0.7474 0.6875
C_ C_ 0.545134 0.596791 0.788864 -0.11473
C_ C_ 0.787925 0.602313 0.782832 -0.11473
C_ C_ 0.654055 0.736511 0.880847 0.17695
C_ C_ 0.887737 0.718601 0.872414 0.17695
C_ C_ 0.606401 0.769131 0.881211 0.17695
C_ C_ 0.869773 0.789132 0.877691 0.17695
C_ C_ 0.607412 0.769796 0.925665 -0.11473
C_ C_ 0.867897 0.786115 0.921723 -0.11473
C_ C_ 0.629954 0.750732 0.948195 0.23465
C_ C_ 0.879326 0.749962 0.941542 0.23465
C_ C_ 0.653515 0.731789 0.925005 -0.11473
C_ C_ 0.888799 0.716368 0.917078 -0.11473
C_ C_ 0.627282 0.723287 0.626345 0.17695
C_ C_ 0.879047 0.780997 0.620039 0.17695
C_ C_ 0.627533 0.796995 0.627721 0.17695
C_ C_ 0.878294 0.706905 0.628148 0.17695
C_ C_ 0.631794 0.798826 0.583839 -0.11473
C_ C_ 0.878785 0.701634 0.583556 -0.11473
C_ C_ 0.635259 0.761309 0.559748 0.23465
C_ C_ 0.881535 0.737462 0.558169 0.23465
C_ C_ 0.633079 0.723808 0.58128 -0.11473
C_ C_ 0.880423 0.776152 0.576556 -0.11473
C_ C_ 0.530044 0.00840131 0.753758 0.05793
C_ C_ 0.786714 -0.0012159999999999949 0.750175 0.05793
C_ C_ 0.716729 0.505313 0.741745 0.05793
C_ C_ 0.970838 0.503174 0.740178 0.05793
Br Br 0.573303 0.00792806 0.743363 -0.17191
Br Br 0.830048 0.998023 0.758601 -0.17191
Br Br 0.673047 0.506682 0.7391 -0.17191
Br Br 0.926526 0.505123 0.737655 -0.17191
N_ N_ 0.629504 0.752034 0.860416 -0.272
N_ N_ 0.878347 0.753898 0.852525 -0.272
N_ N_ 0.633591 0.759618 0.993424 -0.12501
N_ N_ 0.883853 0.746103 0.984943 -0.12501
N_ N_ 0.62584 0.758979 0.64724 -0.272
N_ N_ 0.877056 0.746181 0.643784 -0.272
N_ N_ 0.638814 0.764748 0.51581 -0.12501
N_ N_ 0.884959 0.73488 0.513333 -0.12501
O_ O_ 0.595424 0.801523 0.719291 -0.60745
O_ O_ 0.848287 0.794995 0.710997 -0.60745
O_ O_ 0.594105 0.797902 0.78681 -0.60745
O_ O_ 0.845868 0.792409 0.778721 -0.60745
O_ O_ 0.655558 0.796763 0.785704 -0.60745
O_ O_ 0.903787 0.803376 0.782207 -0.60745
O_ O_ 0.65825 0.793604 0.719838 -0.60745
O_ O_ 0.910412 0.796996 0.714531 -0.60745
O_ O_ 0.655948 0.708546 0.788311 -0.60745
O_ O_ 0.912433 0.709411 0.786212 -0.60745
O_ O_ 0.65284 0.710241 0.717835 -0.60745
O_ O_ 0.906677 0.706004 0.71747 -0.60745
O_ O_ 0.584746 0.718295 0.720354 -0.60745
O_ O_ 0.847031 0.708124 0.713917 -0.60745
O_ O_ 0.595663 0.707236 0.785686 -0.60745
O_ O_ 0.850327 0.702064 0.783735 -0.60745
_cell_length_a 44.444
_cell_length_b 32.3360000049186
_cell_length_c 31.843999878906452
_cell_angle_alpha 89.99799923859553
_cell_angle_beta 91.13600050494348
_cell_angle_gamma 89.9990006550086
_symmetry_space_group_name_H-M         'P 1'
_symmetry_Int_Tables_number            1
loop_
_symmetry_equiv_pos_as_xyz
   'x, y, z'
                         
loop_
_atom_site_label
_atom_site_type_symbol
_atom_site_fract_x 
_atom_site_fract_y
_atom_site_fract_z
_atom_site_charge
Zn Zn 0.123927 0.250131 0.289066 0.9476
Zn Zn 0.374376 0.249419 0.28517 0.9476
Zn Zn 0.121192 0.247369 0.214742 0.9476
Zn Zn 0.36978 0.247286 0.214997 0.9476
H_ H_ 0.0234656 0.406116 0.175786 0.10932
H_ H_ 0.266686 0.401823 0.177423 0.10932
H_ H_ 0.0739732 0.363361 0.310287 0.10932
H_ H_ 0.33508 0.372155 0.300819 0.10932
H_ H_ 0.0566027 0.345465 0.179615 0.10932
H_ H_ 0.295155 0.336163 0.18346 0.10932
H_ H_ 0.0461427 0.430556 0.305934 0.10932
H_ H_ 0.307581 0.440855 0.294175 0.10932
H_ H_ 0.227478 0.403341 0.311163 0.10932
H_ H_ 0.477648 0.405834 0.309496 0.10932
H_ H_ 0.160639 0.371276 0.190332 0.10932
H_ H_ 0.424161 0.352275 0.182472 0.10932
H_ H_ 0.21172 0.330839 0.298496 0.10932
H_ H_ 0.445052 0.34609 0.316838 0.10932
H_ H_ 0.188496 0.43454 0.188349 0.10932
H_ H_ 0.457194 0.415769 0.175857 0.10932
H_ H_ 0.223322 0.087473 0.322009 0.10932
H_ H_ 0.470089 0.0899123 0.306731 0.10932
H_ H_ 0.171937 0.138467 0.193007 0.10932
H_ H_ 0.432082 0.144871 0.17781 0.10932
H_ H_ 0.19625 0.149396 0.326378 0.10932
H_ H_ 0.437741 0.147338 0.308194 0.10932
H_ H_ 0.205121 0.0766489 0.191899 0.10932
H_ H_ 0.458967 0.0743019 0.174275 0.10932
H_ H_ 0.0303893 0.0846581 0.181428 0.10932
H_ H_ 0.271031 0.0840982 0.186532 0.10932
H_ H_ 0.0545028 0.147227 0.320549 0.10932
H_ H_ 0.313017 0.14161 0.320435 0.10932
H_ H_ 0.0700542 0.134254 0.186284 0.10932
H_ H_ 0.302146 0.146839 0.184391 0.10932
H_ H_ 0.0267022 0.080463 0.318308 0.10932
H_ H_ 0.293709 0.0694559 0.319222 0.10932
H_ H_ 0.12994 0.324572 0.354935 0.10932
H_ H_ 0.368253 0.30613 0.360734 0.10932
H_ H_ 0.124812 0.195393 0.366707 0.10932
H_ H_ 0.371275 0.176283 0.35076 0.10932
H_ H_ 0.133679 0.197661 0.443898 0.10932
H_ H_ 0.377824 0.16616 0.426071 0.10932
H_ H_ 0.132887 0.333684 0.434842 0.10932
H_ H_ 0.358444 0.298724 0.437938 0.10932
H_ H_ 0.115165 0.311275 0.137588 0.10932
H_ H_ 0.395949 0.302901 0.143755 0.10932
H_ H_ 0.129776 0.179825 0.148476 0.10932
H_ H_ 0.329947 0.206452 0.133297 0.10932
H_ H_ 0.139305 0.174313 0.0706969 0.10932
H_ H_ 0.329957 0.218017 0.0568388 0.10932
H_ H_ 0.120234 0.307245 0.060996 0.10932
H_ H_ 0.398317 0.306672 0.0716055 0.10932
C_ C_ 0.0676899 0.349463 0.243454 -0.02249
C_ C_ 0.313179 0.347316 0.245922 -0.02249
C_ C_ 0.0133437 0.46012 0.238447 -0.02249
C_ C_ 0.263967 0.461306 0.239687 -0.02249
C_ C_ 0.0353342 0.398835 0.206361 -0.11473
C_ C_ 0.28031 0.396143 0.205807 -0.11473
C_ C_ 0.0663601 0.375442 0.278192 -0.11473
C_ C_ 0.316889 0.376371 0.276547 -0.11473
C_ C_ 0.0510552 0.36117 0.207777 -0.11473
C_ C_ 0.295975 0.358536 0.208975 -0.11473
C_ C_ 0.0332674 0.423529 0.240308 -0.02249
C_ C_ 0.281506 0.422607 0.241529 -0.02249
C_ C_ 0.08331 0.308804 0.246623 0.6875
C_ C_ 0.333068 0.30929 0.246489 0.6875
C_ C_ 0.0481592 0.411267 0.277541 -0.11473
C_ C_ 0.301857 0.415178 0.274579 -0.11473
C_ C_ 0.18441 0.346463 0.245822 -0.02249
C_ C_ 0.435757 0.342607 0.246955 -0.02249
C_ C_ 0.233379 0.460988 0.249233 -0.02249
C_ C_ 0.483538 0.460923 0.243468 -0.02249
C_ C_ 0.218476 0.394035 0.280249 -0.11473
C_ C_ 0.464488 0.397114 0.282986 -0.11473
C_ C_ 0.177026 0.376901 0.214614 -0.11473
C_ C_ 0.437553 0.364933 0.209111 -0.11473
C_ C_ 0.20687 0.353861 0.275712 -0.11473
C_ C_ 0.448108 0.360666 0.285243 -0.11473
C_ C_ 0.214847 0.421795 0.246789 -0.02249
C_ C_ 0.466481 0.418547 0.243794 -0.02249
C_ C_ 0.16604 0.306768 0.2493 0.6875
C_ C_ 0.412299 0.307766 0.247214 0.6875
C_ C_ 0.19516 0.413164 0.212497 -0.11473
C_ C_ 0.453225 0.402062 0.207624 -0.11473
C_ C_ 0.18305 0.152358 0.258128 -0.02249
C_ C_ 0.429245 0.149457 0.24236 -0.02249
C_ C_ 0.230538 0.0333834 0.256108 -0.02249
C_ C_ 0.480916 0.03784 0.243131 -0.02249
C_ C_ 0.210799 0.0970262 0.295856 -0.11473
C_ C_ 0.458598 0.0959541 0.278378 -0.11473
C_ C_ 0.183391 0.127623 0.222141 -0.11473
C_ C_ 0.437258 0.130248 0.204531 -0.11473
C_ C_ 0.193913 0.133072 0.297642 -0.11473
C_ C_ 0.440631 0.130761 0.278815 -0.11473
C_ C_ 0.214189 0.0755363 0.258784 -0.02249
C_ C_ 0.464151 0.0762314 0.240747 -0.02249
C_ C_ 0.163338 0.189937 0.256856 0.6875
C_ C_ 0.411134 0.187189 0.243027 0.6875
C_ C_ 0.200735 0.0913089 0.221492 -0.11473
C_ C_ 0.453469 0.0918597 0.202946 -0.11473
C_ C_ 0.0632974 0.149126 0.251575 -0.02249
C_ C_ 0.310931 0.150897 0.251072 -0.02249
C_ C_ 0.012895 0.0351133 0.250296 -0.02249
C_ C_ 0.263803 0.0323088 0.253854 -0.02249
C_ C_ 0.0385616 0.0937836 0.214386 -0.11473
C_ C_ 0.280969 0.0979098 0.215197 -0.11473
C_ C_ 0.0536351 0.130262 0.29055 -0.11473
C_ C_ 0.306111 0.129354 0.290187 -0.11473
C_ C_ 0.0575706 0.127378 0.214931 -0.11473
C_ C_ 0.29765 0.134485 0.213248 -0.11473
C_ C_ 0.0295014 0.0744638 0.251707 -0.02249
C_ C_ 0.280711 0.0731017 0.252504 -0.02249
C_ C_ 0.083308 0.18608 0.250544 0.6875
C_ C_ 0.331163 0.187119 0.248933 0.6875
C_ C_ 0.0357374 0.0931816 0.289916 -0.11473
C_ C_ 0.293648 0.0888825 0.289565 -0.11473
C_ C_ 0.130018 0.297723 0.376726 0.17695
C_ C_ 0.370158 0.277311 0.376725 0.17695
C_ C_ 0.129723 0.225428 0.382641 0.17695
C_ C_ 0.37487 0.203366 0.372684 0.17695
C_ C_ 0.133449 0.225781 0.426153 -0.11473
C_ C_ 0.372966 0.198451 0.415104 -0.11473
C_ C_ 0.134256 0.265209 0.44709 0.23465
C_ C_ 0.37167 0.233701 0.441068 0.23465
C_ C_ 0.133017 0.301176 0.421409 -0.11473
C_ C_ 0.367692 0.273148 0.421399 -0.11473
C_ C_ 0.120124 0.280328 0.122707 0.17695
C_ C_ 0.385658 0.277104 0.127585 0.17695
C_ C_ 0.130171 0.208246 0.129346 0.17695
C_ C_ 0.346633 0.227834 0.119366 0.17695
C_ C_ 0.134159 0.204532 0.0842335 -0.11473
C_ C_ 0.347666 0.231525 0.0750469 -0.11473
C_ C_ 0.130435 0.240331 0.0594508 0.23465
C_ C_ 0.368086 0.258192 0.0558267 0.23465
C_ C_ 0.122696 0.279396 0.0790537 -0.11473
C_ C_ 0.386486 0.281302 0.0838466 -0.11473
C_ C_ 0.0263492 0.499269 0.232642 0.05793
C_ C_ 0.278693 0.49867 0.231526 0.05793
C_ C_ 0.214253 -0.0028329999999999744 0.263828 0.05793
C_ C_ 0.465986 1.0000975206 0.238387 0.05793
Br Br 0.0659734 0.503896 0.208109 -0.17191
Br Br 0.320978 0.498087 0.214554 -0.17191
Br Br 0.171909 0.000677201 0.272917 -0.17191
Br Br 0.425147 0.997564 0.216154 -0.17191
N_ N_ 0.127368 0.26033 0.35858 -0.272
N_ N_ 0.374133 0.24238 0.354097 -0.272
N_ N_ 0.140028 0.268392 0.489528 -0.12501
N_ N_ 0.371299 0.230158 0.486613 -0.12501
N_ N_ 0.124255 0.245341 0.147052 -0.272
N_ N_ 0.36535 0.251506 0.144614 -0.272
N_ N_ 0.129617 0.235821 0.015821 -0.12501
N_ N_ 0.370847 0.265218 0.0101599 -0.12501
O_ O_ 0.091424 0.291233 0.214593 -0.60745
O_ O_ 0.338653 0.288357 0.21384 -0.60745
O_ O_ 0.0933171 0.296419 0.281174 -0.60745
O_ O_ 0.342396 0.294901 0.282856 -0.60745
O_ O_ 0.158008 0.29351 0.285339 -0.60745
O_ O_ 0.401778 0.297358 0.281876 -0.60745
O_ O_ 0.154153 0.292545 0.214731 -0.60745
O_ O_ 0.40546 0.286186 0.214207 -0.60745
O_ O_ 0.154143 0.2063 0.289681 -0.60745
O_ O_ 0.408827 0.205597 0.278683 -0.60745
O_ O_ 0.152912 0.202004 0.222245 -0.60745
O_ O_ 0.396496 0.19997 0.211572 -0.60745
O_ O_ 0.0949964 0.196812 0.216211 -0.60745
O_ O_ 0.336984 0.205626 0.215304 -0.60745
O_ O_ 0.0919246 0.203973 0.284904 -0.60745
O_ O_ 0.343309 0.200734 0.282306 -0.60745
Zn Zn 0.130183 0.253778 0.785326 0.9476
Zn Zn 0.372888 0.254107 0.780188 0.9476
Zn Zn 0.131207 0.251783 0.716096 0.9476
Zn Zn 0.371051 0.25443 0.710935 0.9476
H_ H_ 0.0326174 0.418996 0.684192 0.10932
H_ H_ 0.290138 0.426917 0.665417 0.10932
H_ H_ 0.0756182 0.361597 0.816473 0.10932
H_ H_ 0.310013 0.358274 0.804243 0.10932
H_ H_ 0.0713525 0.357136 0.683896 0.10932
H_ H_ 0.315078 0.358619 0.666153 0.10932
H_ H_ 0.0349667 0.416666 0.819392 0.10932
H_ H_ 0.278712 0.416946 0.803696 0.10932
H_ H_ 0.219514 0.42548 0.812808 0.10932
H_ H_ 0.478992 0.406985 0.817074 0.10932
H_ H_ 0.189466 0.35309 0.680221 0.10932
H_ H_ 0.428412 0.362466 0.684332 0.10932
H_ H_ 0.191565 0.361051 0.816071 0.10932
H_ H_ 0.455402 0.338641 0.808659 0.10932
H_ H_ 0.211723 0.422994 0.677538 0.10932
H_ H_ 0.462771 0.421591 0.686003 0.10932
H_ H_ 0.219357 0.0757578 0.817304 0.10932
H_ H_ 0.46796 0.089916 0.827892 0.10932
H_ H_ 0.185092 0.142152 0.684975 0.10932
H_ H_ 0.424168 0.136207 0.689731 0.10932
H_ H_ 0.19633 0.146714 0.818906 0.10932
H_ H_ 0.434173 0.15293 0.822407 0.10932
H_ H_ 0.208127 0.075447 0.683357 0.10932
H_ H_ 0.454752 0.0756572 0.693847 0.10932
H_ H_ 0.0380201 0.0880123 0.678174 0.10932
H_ H_ 0.296278 0.0705041 0.680804 0.10932
H_ H_ 0.0739783 0.148152 0.81605 0.10932
H_ H_ 0.308571 0.158836 0.808831 0.10932
H_ H_ 0.0630175 0.156559 0.680583 0.10932
H_ H_ 0.325231 0.137331 0.676636 0.10932
H_ H_ 0.0456048 0.0805884 0.813622 0.10932
H_ H_ 0.280089 0.0940157 0.812364 0.10932
H_ H_ 0.143688 0.317474 0.856221 0.10932
H_ H_ 0.392658 0.311019 0.863464 0.10932
H_ H_ 0.128501 0.188541 0.863009 0.10932
H_ H_ 0.355607 0.192671 0.849082 0.10932
H_ H_ 0.126678 0.192896 0.943669 0.10932
H_ H_ 0.348069 0.183492 0.925 0.10932
H_ H_ 0.144219 0.321197 0.934798 0.10932
H_ H_ 0.378139 0.310922 0.939355 0.10932
H_ H_ 0.0845739 0.257993 0.646468 0.10932
H_ H_ 0.370964 0.188711 0.636321 0.10932
H_ H_ 0.179076 0.250914 0.63737 0.10932
H_ H_ 0.381032 0.319658 0.641481 0.10932
H_ H_ 0.174377 0.259296 0.557557 0.10932
H_ H_ 0.380965 0.324607 0.564374 0.10932
H_ H_ 0.0806869 0.250166 0.566758 0.10932
H_ H_ 0.364727 0.191234 0.558625 0.10932
C_ C_ 0.0726137 0.353001 0.75184 -0.02249
C_ C_ 0.315514 0.353629 0.735267 -0.02249
C_ C_ 0.0175177 0.462051 0.751556 -0.02249
C_ C_ 0.265292 0.467562 0.732818 -0.02249
C_ C_ 0.0432702 0.40617 0.712871 -0.11473
C_ C_ 0.291696 0.409799 0.695169 -0.11473
C_ C_ 0.0645777 0.37157 0.789514 -0.11473
C_ C_ 0.304237 0.369665 0.77315 -0.11473
C_ C_ 0.060546 0.368992 0.712364 -0.11473
C_ C_ 0.306721 0.371808 0.696957 -0.11473
C_ C_ 0.035281 0.423282 0.749846 -0.02249
C_ C_ 0.280634 0.425755 0.732832 -0.02249
C_ C_ 0.0918483 0.315003 0.750595 0.6875
C_ C_ 0.332424 0.31299 0.74012 0.6875
C_ C_ 0.0458536 0.406324 0.789711 -0.11473
C_ C_ 0.285203 0.404721 0.772475 -0.11473
C_ C_ 0.190273 0.34988 0.747867 -0.02249
C_ C_ 0.436207 0.348117 0.748585 -0.02249
C_ C_ 0.235395 0.467764 0.742639 -0.02249
C_ C_ 0.488831 0.46013 0.752961 -0.02249
C_ C_ 0.210476 0.412389 0.783605 -0.11473
C_ C_ 0.46793 0.397309 0.78682 -0.11473
C_ C_ 0.198419 0.367806 0.709451 -0.11473
C_ C_ 0.44014 0.370237 0.711655 -0.11473
C_ C_ 0.197876 0.374022 0.786129 -0.11473
C_ C_ 0.450835 0.360821 0.785503 -0.11473
C_ C_ 0.216956 0.43 0.744175 -0.02249
C_ C_ 0.469959 0.422772 0.751313 -0.02249
C_ C_ 0.170099 0.313887 0.750219 0.6875
C_ C_ 0.41298 0.314093 0.747784 0.6875
C_ C_ 0.210048 0.408209 0.706953 -0.11473
C_ C_ 0.457826 0.40719 0.714119 -0.11473
C_ C_ 0.187837 0.150857 0.75205 -0.02249
C_ C_ 0.426323 0.15017 0.755556 -0.02249
C_ C_ 0.235933 0.0338073 0.75064 -0.02249
C_ C_ 0.482054 0.0409862 0.761426 -0.02249
C_ C_ 0.213233 0.0934722 0.789013 -0.11473
C_ C_ 0.455992 0.101284 0.798347 -0.11473
C_ C_ 0.191592 0.129512 0.7141 -0.11473
C_ C_ 0.434181 0.128785 0.719574 -0.11473
C_ C_ 0.2013 0.133787 0.78845 -0.11473
C_ C_ 0.437865 0.13545 0.794625 -0.11473
C_ C_ 0.217952 0.0737475 0.749608 -0.02249
C_ C_ 0.462502 0.079022 0.761765 -0.02249
C_ C_ 0.168742 0.190332 0.751831 0.6875
C_ C_ 0.409415 0.190944 0.751312 0.6875
C_ C_ 0.206823 0.0905894 0.712631 -0.11473
C_ C_ 0.451344 0.0927607 0.721956 -0.11473
C_ C_ 0.0674042 0.15981 0.748886 -0.02249
C_ C_ 0.317064 0.152366 0.741002 -0.02249
C_ C_ 0.0186889 0.0438423 0.747394 -0.02249
C_ C_ 0.268032 0.0369513 0.75082 -0.02249
C_ C_ 0.0426601 0.103626 0.70804 -0.11473
C_ C_ 0.296594 0.0907654 0.708088 -0.11473
C_ C_ 0.0635669 0.136295 0.786577 -0.11473
C_ C_ 0.305668 0.14017 0.779832 -0.11473
C_ C_ 0.0565707 0.142856 0.710519 -0.11473
C_ C_ 0.311224 0.128788 0.70489 -0.11473
C_ C_ 0.0378577 0.082249 0.745698 -0.02249
C_ C_ 0.282408 0.0805761 0.745419 -0.02249
C_ C_ 0.0901332 0.195292 0.750251 0.6875
C_ C_ 0.336416 0.190894 0.741032 0.6875
C_ C_ 0.049174 0.0991175 0.784959 -0.11473
C_ C_ 0.289145 0.10436 0.782247 -0.11473
C_ C_ 0.138981 0.289284 0.875552 0.17695
C_ C_ 0.381425 0.285027 0.87736 0.17695
C_ C_ 0.132173 0.216805 0.879852 0.17695
C_ C_ 0.359926 0.217504 0.868977 0.17695
C_ C_ 0.130626 0.219233 0.925762 -0.11473
C_ C_ 0.357775 0.212502 0.911734 -0.11473
C_ C_ 0.13333 0.258331 0.946223 0.23465
C_ C_ 0.36537 0.245118 0.938321 0.23465
C_ C_ 0.138283 0.292252 0.919277 -0.11473
C_ C_ 0.375469 0.284015 0.920618 -0.11473
C_ C_ 0.104119 0.256662 0.626233 0.17695
C_ C_ 0.373982 0.217531 0.618425 0.17695
C_ C_ 0.156831 0.253977 0.622578 0.17695
C_ C_ 0.377304 0.290775 0.622892 0.17695
C_ C_ 0.154639 0.254805 0.576266 -0.11473
C_ C_ 0.378264 0.293414 0.578728 -0.11473
C_ C_ 0.126536 0.256956 0.557647 0.23465
C_ C_ 0.375176 0.257169 0.554598 0.23465
C_ C_ 0.101689 0.254045 0.581652 -0.11473
C_ C_ 0.372106 0.218781 0.574331 -0.11473
C_ C_ 0.0336836 0.500771 0.760703 0.05793
C_ C_ 0.280511 0.505477 0.723946 0.05793
C_ C_ 0.222195 -0.006068999999999991 0.75699 0.05793
C_ C_ 0.467848 1.00108603 0.768825 0.05793
Br Br 0.0719977 0.502458 0.793425 -0.17191
Br Br 0.323349 0.504222 0.714546 -0.17191
Br Br 0.178306 -0.006753000000000009 0.757045 -0.17191
Br Br 0.425551 1.00172136 0.792353 -0.17191
N_ N_ 0.13349 0.252341 0.856824 -0.272
N_ N_ 0.370064 0.254632 0.852971 -0.272
N_ N_ 0.133835 0.264861 0.990087 -0.12501
N_ N_ 0.360706 0.240622 0.983839 -0.12501
N_ N_ 0.131933 0.251631 0.645748 -0.272
N_ N_ 0.372478 0.253898 0.642005 -0.272
N_ N_ 0.124271 0.248438 0.514081 -0.12501
N_ N_ 0.371793 0.260746 0.509899 -0.12501
O_ O_ 0.102157 0.299924 0.715943 -0.60745
O_ O_ 0.337902 0.294716 0.706596 -0.60745
O_ O_ 0.0967716 0.296078 0.783877 -0.60745
O_ O_ 0.341734 0.297626 0.774438 -0.60745
O_ O_ 0.159683 0.299616 0.78503 -0.60745
O_ O_ 0.404461 0.299253 0.783189 -0.60745
O_ O_ 0.163562 0.296974 0.715617 -0.60745
O_ O_ 0.40354 0.297828 0.714721 -0.60745
O_ O_ 0.163642 0.210211 0.784501 -0.60745
O_ O_ 0.403465 0.210962 0.784011 -0.60745
O_ O_ 0.159089 0.205253 0.715835 -0.60745
O_ O_ 0.399087 0.204257 0.717053 -0.60745
O_ O_ 0.0957688 0.215875 0.717897 -0.60745
O_ O_ 0.345108 0.208465 0.707609 -0.60745
O_ O_ 0.101204 0.206213 0.784716 -0.60745
O_ O_ 0.343448 0.207565 0.775979 -0.60745
Zn Zn 0.123229 0.745497 0.284703 0.9476
Zn Zn 0.373927 0.748563 0.2852 0.9476
Zn Zn 0.119783 0.747541 0.211954 0.9476
Zn Zn 0.371229 0.747684 0.212054 0.9476
H_ H_ 0.045361 0.932593 0.190073 0.10932
H_ H_ 0.270315 0.907231 0.192282 0.10932
H_ H_ 0.0450401 0.83028 0.310336 0.10932
H_ H_ 0.303835 0.841946 0.323119 0.10932
H_ H_ 0.0733116 0.866719 0.187544 0.10932
H_ H_ 0.297126 0.844628 0.18831 0.10932
H_ H_ 0.0207108 0.897642 0.316869 0.10932
H_ H_ 0.279356 0.908717 0.325084 0.10932
H_ H_ 0.204496 0.915329 0.322793 0.10932
H_ H_ 0.457911 0.922158 0.312111 0.10932
H_ H_ 0.179195 0.853577 0.184312 0.10932
H_ H_ 0.427252 0.849798 0.179574 0.10932
H_ H_ 0.185822 0.843799 0.317559 0.10932
H_ H_ 0.425869 0.862317 0.312336 0.10932
H_ H_ 0.206431 0.921109 0.187372 0.10932
H_ H_ 0.456486 0.917569 0.177347 0.10932
H_ H_ 0.226859 0.585276 0.311845 0.10932
H_ H_ 0.458228 0.569451 0.313359 0.10932
H_ H_ 0.167023 0.63435 0.185962 0.10932
H_ H_ 0.442262 0.654385 0.18321 0.10932
H_ H_ 0.197578 0.647509 0.316301 0.10932
H_ H_ 0.42857 0.634466 0.315372 0.10932
H_ H_ 0.193403 0.57032 0.182174 0.10932
H_ H_ 0.470584 0.587697 0.180685 0.10932
H_ H_ 0.00852567 0.601112 0.189429 0.10932
H_ H_ 0.274439 0.59396 0.168161 0.10932
H_ H_ 0.0682959 0.62971 0.315909 0.10932
H_ H_ 0.311083 0.638429 0.307737 0.10932
H_ H_ 0.0423889 0.660368 0.186325 0.10932
H_ H_ 0.315702 0.64416 0.170562 0.10932
H_ H_ 0.0367666 0.567633 0.309824 0.10932
H_ H_ 0.281993 0.575793 0.301058 0.10932
H_ H_ 0.106876 0.81583 0.356046 0.10932
H_ H_ 0.382186 0.681111 0.355277 0.10932
H_ H_ 0.12968 0.685091 0.363998 0.10932
H_ H_ 0.368243 0.807365 0.3649 0.10932
H_ H_ 0.126961 0.694286 0.443989 0.10932
H_ H_ 0.3612 0.799402 0.444068 0.10932
H_ H_ 0.0989593 0.817383 0.433891 0.10932
H_ H_ 0.386135 0.674114 0.430766 0.10932
H_ H_ 0.173605 0.733475 0.140432 0.10932
H_ H_ 0.356432 0.699386 0.132632 0.10932
H_ H_ 0.0790154 0.762853 0.138619 0.10932
H_ H_ 0.388339 0.823773 0.140658 0.10932
H_ H_ 0.0796274 0.763296 0.0627595 0.10932
H_ H_ 0.404544 0.817584 0.0677568 0.10932
H_ H_ 0.173817 0.736421 0.0657395 0.10932
H_ H_ 0.369093 0.693961 0.0593222 0.10932
C_ C_ 0.0591397 0.842552 0.246529 -0.02249
C_ C_ 0.309711 0.841569 0.255694 -0.02249
C_ C_ 0.0146004 0.959057 0.258229 -0.02249
C_ C_ 0.260711 0.956735 0.26153 -0.02249
C_ C_ 0.0430111 0.908227 0.216603 -0.11473
C_ C_ 0.280456 0.896664 0.219428 -0.11473
C_ C_ 0.0456044 0.852163 0.284727 -0.11473
C_ C_ 0.300511 0.858784 0.294534 -0.11473
C_ C_ 0.0584957 0.871478 0.21276 -0.11473
C_ C_ 0.295129 0.859379 0.218534 -0.11473
C_ C_ 0.0322061 0.919918 0.255664 -0.02249
C_ C_ 0.275816 0.916875 0.259287 -0.02249
C_ C_ 0.0784439 0.803448 0.243907 0.6875
C_ C_ 0.329933 0.80327 0.251419 0.6875
C_ C_ 0.0325395 0.890612 0.289265 -0.11473
C_ C_ 0.286185 0.897483 0.295291 -0.11473
C_ C_ 0.181217 0.842967 0.250615 -0.02249
C_ C_ 0.431 0.845192 0.247492 -0.02249
C_ C_ 0.229349 0.958436 0.260713 -0.02249
C_ C_ 0.480678 0.960523 0.24354 -0.02249
C_ C_ 0.201523 0.899316 0.292045 -0.11473
C_ C_ 0.457088 0.903602 0.282932 -0.11473
C_ C_ 0.185444 0.866485 0.214318 -0.11473
C_ C_ 0.438272 0.862249 0.207055 -0.11473
C_ C_ 0.188752 0.860592 0.290445 -0.11473
C_ C_ 0.439062 0.865725 0.28467 -0.11473
C_ C_ 0.210421 0.920028 0.255022 -0.02249
C_ C_ 0.463701 0.92125 0.244309 -0.02249
C_ C_ 0.162263 0.805657 0.247114 0.6875
C_ C_ 0.411172 0.808158 0.251816 0.6875
C_ C_ 0.202596 0.903473 0.21491 -0.11473
C_ C_ 0.453543 0.902759 0.207102 -0.11473
C_ C_ 0.180108 0.647809 0.251265 -0.02249
C_ C_ 0.429321 0.647566 0.248415 -0.02249
C_ C_ 0.231321 0.536086 0.242967 -0.02249
C_ C_ 0.486434 0.536481 0.240463 -0.02249
C_ C_ 0.213374 0.59654 0.283869 -0.11473
C_ C_ 0.455318 0.588629 0.284434 -0.11473
C_ C_ 0.179289 0.62364 0.212622 -0.11473
C_ C_ 0.444242 0.63486 0.210478 -0.11473
C_ C_ 0.196283 0.631793 0.287179 -0.11473
C_ C_ 0.436019 0.622848 0.285234 -0.11473
C_ C_ 0.214488 0.575342 0.244467 -0.02249
C_ C_ 0.466957 0.575054 0.245393 -0.02249
C_ C_ 0.161523 0.688519 0.254691 0.6875
C_ C_ 0.409558 0.686251 0.248347 0.6875
C_ C_ 0.193782 0.58644 0.211462 -0.11473
C_ C_ 0.462357 0.600612 0.210819 -0.11473
C_ C_ 0.0605448 0.649302 0.251715 -0.02249
C_ C_ 0.314142 0.64961 0.239655 -0.02249
C_ C_ 0.00944423 0.53618 0.240223 -0.02249
C_ C_ 0.262423 0.536209 0.233668 -0.02249
C_ C_ 0.0274364 0.603656 0.213241 -0.11473
C_ C_ 0.286176 0.599008 0.197577 -0.11473
C_ C_ 0.0558376 0.625228 0.287381 -0.11473
C_ C_ 0.307765 0.624982 0.276639 -0.11473
C_ C_ 0.0441494 0.639677 0.215196 -0.11473
C_ C_ 0.306204 0.632945 0.199709 -0.11473
C_ C_ 0.0271996 0.575409 0.245362 -0.02249
C_ C_ 0.279305 0.576131 0.234768 -0.02249
C_ C_ 0.0819472 0.68525 0.251583 0.6875
C_ C_ 0.332306 0.688311 0.245006 0.6875
C_ C_ 0.0397476 0.587531 0.283218 -0.11473
C_ C_ 0.28978 0.589383 0.274022 -0.11473
C_ C_ 0.112767 0.788194 0.373626 0.17695
C_ C_ 0.376782 0.706916 0.372807 0.17695
C_ C_ 0.126192 0.717047 0.379862 0.17695
C_ C_ 0.366505 0.777964 0.379569 0.17695
C_ C_ 0.122281 0.718858 0.424126 -0.11473
C_ C_ 0.362161 0.771622 0.42242 -0.11473
C_ C_ 0.114343 0.756129 0.442333 0.23465
C_ C_ 0.368125 0.734407 0.442758 0.23465
C_ C_ 0.107628 0.790158 0.418525 -0.11473
C_ C_ 0.379642 0.703061 0.416344 -0.11473
C_ C_ 0.152063 0.736637 0.12484 0.17695
C_ C_ 0.36567 0.727388 0.118469 0.17695
C_ C_ 0.100078 0.750684 0.123094 0.17695
C_ C_ 0.384325 0.79572 0.123743 0.17695
C_ C_ 0.0992833 0.753844 0.0800533 -0.11473
C_ C_ 0.3891 0.794156 0.0803073 -0.11473
C_ C_ 0.126539 0.746933 0.0586507 0.23465
C_ C_ 0.384007 0.758933 0.0557802 0.23465
C_ C_ 0.153302 0.741427 0.0811024 -0.11473
C_ C_ 0.372438 0.723977 0.0761961 -0.11473
C_ C_ 0.0300749 0.996713 0.252972 0.05793
C_ C_ 0.278976 0.993486 0.256952 0.05793
C_ C_ 0.217331 0.498225 0.252678 0.05793
C_ C_ 0.470368 0.49916 0.235164 0.05793
Br Br 0.0729727 0.00106739 0.265048 -0.17191
Br Br 0.322866 0.993155 0.263633 -0.17191
Br Br 0.178608 0.49903 0.278078 -0.17191
Br Br 0.426604 0.498143 0.228252 -0.17191
N_ N_ 0.121832 0.752089 0.355591 -0.272
N_ N_ 0.372285 0.744497 0.354757 -0.272
N_ N_ 0.108532 0.75915 0.487023 -0.12501
N_ N_ 0.369667 0.729416 0.48695 -0.12501
N_ N_ 0.125935 0.74188 0.144293 -0.272
N_ N_ 0.375377 0.759125 0.142679 -0.272
N_ N_ 0.127586 0.757195 0.0150589 -0.12501
N_ N_ 0.390805 0.759987 0.0121925 -0.12501
O_ O_ 0.0877776 0.792689 0.207997 -0.60745
O_ O_ 0.343839 0.796678 0.217978 -0.60745
O_ O_ 0.08925 0.787713 0.277057 -0.60745
O_ O_ 0.33942 0.785757 0.284888 -0.60745
O_ O_ 0.153099 0.790289 0.282018 -0.60745
O_ O_ 0.403036 0.794536 0.287352 -0.60745
O_ O_ 0.152051 0.792535 0.21199 -0.60745
O_ O_ 0.406012 0.788004 0.218298 -0.60745
O_ O_ 0.155439 0.70248 0.288857 -0.60745
O_ O_ 0.402749 0.701982 0.282746 -0.60745
O_ O_ 0.153162 0.705084 0.220003 -0.60745
O_ O_ 0.399469 0.701303 0.212824 -0.60745
O_ O_ 0.0885987 0.702736 0.216303 -0.60745
O_ O_ 0.337016 0.709629 0.211615 -0.60745
O_ O_ 0.0921503 0.699903 0.287411 -0.60745
O_ O_ 0.343153 0.699722 0.280058 -0.60745
Zn Zn 0.126102 0.753052 0.7855 0.9476
Zn Zn 0.380946 0.749571 0.786399 0.9476
Zn Zn 0.12201 0.754133 0.716803 0.9476
Zn Zn 0.379256 0.750699 0.716463 0.9476
H_ H_ 0.0235724 0.917408 0.685447 0.10932
H_ H_ 0.288136 0.918856 0.68736 0.10932
H_ H_ 0.0647648 0.857299 0.818199 0.10932
H_ H_ 0.318527 0.850178 0.816686 0.10932
H_ H_ 0.0574213 0.858925 0.680971 0.10932
H_ H_ 0.319829 0.856681 0.683211 0.10932
H_ H_ 0.0396951 0.920547 0.8178 0.10932
H_ H_ 0.298521 0.919857 0.820096 0.10932
H_ H_ 0.233347 0.904056 0.819656 0.10932
H_ H_ 0.490696 0.901596 0.814236 0.10932
H_ H_ 0.184994 0.857824 0.688397 0.10932
H_ H_ 0.425508 0.868609 0.69045 0.10932
H_ H_ 0.198168 0.843107 0.82171 0.10932
H_ H_ 0.460136 0.835747 0.811567 0.10932
H_ H_ 0.205843 0.928912 0.693917 0.10932
H_ H_ 0.447265 0.938014 0.697317 0.10932
H_ H_ 0.213027 0.585453 0.816972 0.10932
H_ H_ 0.466107 0.571087 0.811152 0.10932
H_ H_ 0.199875 0.666941 0.685289 0.10932
H_ H_ 0.463014 0.659979 0.685116 0.10932
H_ H_ 0.187744 0.655582 0.818729 0.10932
H_ H_ 0.436658 0.639156 0.81617 0.10932
H_ H_ 0.224441 0.602188 0.68082 0.10932
H_ H_ 0.476259 0.588014 0.681665 0.10932
H_ H_ 0.0290659 0.583893 0.685425 0.10932
H_ H_ 0.283509 0.593247 0.670112 0.10932
H_ H_ 0.069644 0.644814 0.819421 0.10932
H_ H_ 0.321136 0.648736 0.8083 0.10932
H_ H_ 0.0587868 0.650523 0.683498 0.10932
H_ H_ 0.314512 0.655955 0.672616 0.10932
H_ H_ 0.0409022 0.582119 0.82039 0.10932
H_ H_ 0.288258 0.582628 0.802555 0.10932
H_ H_ 0.110405 0.810033 0.869788 0.10932
H_ H_ 0.389312 0.804266 0.861923 0.10932
H_ H_ 0.119619 0.686336 0.854776 0.10932
H_ H_ 0.383113 0.675819 0.855233 0.10932
H_ H_ 0.120962 0.676562 0.935218 0.10932
H_ H_ 0.371015 0.671439 0.932272 0.10932
H_ H_ 0.116644 0.804825 0.947378 0.10932
H_ H_ 0.388502 0.803611 0.939865 0.10932
H_ H_ 0.168709 0.76692 0.648353 0.10932
H_ H_ 0.383503 0.817527 0.643624 0.10932
H_ H_ 0.0765504 0.739487 0.639785 0.10932
H_ H_ 0.372021 0.687867 0.636599 0.10932
H_ H_ 0.0825852 0.725147 0.561944 0.10932
H_ H_ 0.372032 0.691502 0.557381 0.10932
H_ H_ 0.172616 0.764089 0.570051 0.10932
H_ H_ 0.391049 0.820747 0.563951 0.10932
C_ C_ 0.0663993 0.852921 0.749565 -0.02249
C_ C_ 0.322216 0.848436 0.750389 -0.02249
C_ C_ 0.0167 0.967594 0.754725 -0.02249
C_ C_ 0.271841 0.960842 0.754266 -0.02249
C_ C_ 0.0348924 0.905005 0.714202 -0.11473
C_ C_ 0.296244 0.904158 0.714608 -0.11473
C_ C_ 0.0556296 0.867908 0.78819 -0.11473
C_ C_ 0.312972 0.86439 0.788079 -0.11473
C_ C_ 0.0527231 0.868862 0.711438 -0.11473
C_ C_ 0.313285 0.868518 0.713304 -0.11473
C_ C_ 0.0314478 0.92695 0.75152 -0.02249
C_ C_ 0.290943 0.923276 0.75266 -0.02249
C_ C_ 0.0853911 0.814399 0.748985 0.6875
C_ C_ 0.340304 0.808903 0.750703 0.6875
C_ C_ 0.0405842 0.905764 0.789521 -0.11473
C_ C_ 0.299331 0.902342 0.789901 -0.11473
C_ C_ 0.186762 0.846173 0.756387 -0.02249
C_ C_ 0.442068 0.845801 0.749719 -0.02249
C_ C_ 0.240503 0.958327 0.758405 -0.02249
C_ C_ 0.484772 0.965203 0.758757 -0.02249
C_ C_ 0.219524 0.895105 0.791906 -0.11473
C_ C_ 0.476834 0.894428 0.786124 -0.11473
C_ C_ 0.191579 0.869218 0.718611 -0.11473
C_ C_ 0.439252 0.876347 0.717331 -0.11473
C_ C_ 0.2001 0.860334 0.792828 -0.11473
C_ C_ 0.458659 0.858039 0.786214 -0.11473
C_ C_ 0.223295 0.918577 0.75588 -0.02249
C_ C_ 0.469973 0.925008 0.755545 -0.02249
C_ C_ 0.164423 0.810725 0.757995 0.6875
C_ C_ 0.421118 0.810927 0.752889 0.6875
C_ C_ 0.210207 0.904822 0.718287 -0.11473
C_ C_ 0.450738 0.915311 0.721543 -0.11473
C_ C_ 0.187598 0.659588 0.750971 -0.02249
C_ C_ 0.442972 0.653893 0.749526 -0.02249
C_ C_ 0.237975 0.544582 0.749291 -0.02249
C_ C_ 0.489288 0.535658 0.746843 -0.02249
C_ C_ 0.210747 0.602482 0.78811 -0.11473
C_ C_ 0.461545 0.590643 0.783719 -0.11473
C_ C_ 0.20354 0.64926 0.713255 -0.11473
C_ C_ 0.459112 0.641218 0.712377 -0.11473
C_ C_ 0.195393 0.640305 0.789152 -0.11473
C_ C_ 0.447722 0.629362 0.787312 -0.11473
C_ C_ 0.221575 0.584681 0.749917 -0.02249
C_ C_ 0.472272 0.575549 0.747243 -0.02249
C_ C_ 0.164555 0.692957 0.751721 0.6875
C_ C_ 0.425052 0.693097 0.753156 0.6875
C_ C_ 0.219982 0.612075 0.713423 -0.11473
C_ C_ 0.46846 0.599589 0.710613 -0.11473
C_ C_ 0.0675965 0.652829 0.749994 -0.02249
C_ C_ 0.32381 0.650626 0.741937 -0.02249
C_ C_ 0.0184842 0.538322 0.757273 -0.02249
C_ C_ 0.26723 0.544186 0.73638 -0.02249
C_ C_ 0.0402073 0.596937 0.714124 -0.11473
C_ C_ 0.292402 0.604461 0.700287 -0.11473
C_ C_ 0.0625774 0.632219 0.789367 -0.11473
C_ C_ 0.313244 0.633826 0.779616 -0.11473
C_ C_ 0.0551656 0.635264 0.713305 -0.11473
C_ C_ 0.310414 0.639142 0.702382 -0.11473
C_ C_ 0.0354466 0.577762 0.753078 -0.02249
C_ C_ 0.286198 0.582563 0.736947 -0.02249
C_ C_ 0.0859368 0.692575 0.750495 0.6875
C_ C_ 0.341545 0.691594 0.746586 0.6875
C_ C_ 0.0479039 0.59396 0.790449 -0.11473
C_ C_ 0.294646 0.598683 0.775636 -0.11473
C_ C_ 0.114859 0.782048 0.88229 0.17695
C_ C_ 0.391666 0.775011 0.879719 0.17695
C_ C_ 0.124419 0.710976 0.874804 0.17695
C_ C_ 0.38063 0.703246 0.875314 0.17695
C_ C_ 0.121696 0.705506 0.919014 -0.11473
C_ C_ 0.377242 0.701194 0.918949 -0.11473
C_ C_ 0.12108 0.740556 0.943805 0.23465
C_ C_ 0.378497 0.738859 0.943605 0.23465
C_ C_ 0.11775 0.779032 0.925634 -0.11473
C_ C_ 0.387726 0.776477 0.922568 -0.11473
C_ C_ 0.149278 0.763119 0.628615 0.17695
C_ C_ 0.384366 0.789234 0.62448 0.17695
C_ C_ 0.0979151 0.743483 0.622585 0.17695
C_ C_ 0.374426 0.717784 0.620104 0.17695
C_ C_ 0.0998285 0.739014 0.579355 -0.11473
C_ C_ 0.37822 0.718625 0.576076 -0.11473
C_ C_ 0.125995 0.751163 0.558927 0.23465
C_ C_ 0.378372 0.756521 0.555842 0.23465
C_ C_ 0.150426 0.762981 0.583069 -0.11473
C_ C_ 0.386388 0.792007 0.57966 -0.11473
C_ C_ 0.0332618 0.00492587 0.751447 0.05793
C_ C_ 0.28522 0.000363029 0.753933 0.05793
C_ C_ 0.221038 0.508099 0.749063 0.05793
C_ C_ 0.473321 0.49757 0.746318 0.05793
Br Br 0.0770951 0.000620639 0.754107 -0.17191
Br Br 0.327708 0.0017144 0.74105 -0.17191
Br Br 0.180027 0.507984 0.763127 -0.17191
Br Br 0.430376 0.495475 0.747594 -0.17191
N_ N_ 0.123757 0.749698 0.857201 -0.272
N_ N_ 0.383993 0.740546 0.85779 -0.272
N_ N_ 0.115942 0.734315 0.987943 -0.12501
N_ N_ 0.377347 0.734455 0.988154 -0.12501
N_ N_ 0.122962 0.752515 0.646841 -0.272
N_ N_ 0.378636 0.752912 0.644058 -0.272
N_ N_ 0.128819 0.748001 0.513561 -0.12501
N_ N_ 0.376489 0.758594 0.5113 -0.12501
O_ O_ 0.0882838 0.795293 0.71606 -0.60745
O_ O_ 0.346974 0.793839 0.715973 -0.60745
O_ O_ 0.0975491 0.800445 0.783567 -0.60745
O_ O_ 0.349103 0.7925 0.785105 -0.60745
O_ O_ 0.156107 0.796087 0.793116 -0.60745
O_ O_ 0.413328 0.794407 0.787406 -0.60745
O_ O_ 0.152142 0.7987 0.724149 -0.60745
O_ O_ 0.410363 0.796328 0.719596 -0.60745
O_ O_ 0.152287 0.704502 0.785959 -0.60745
O_ O_ 0.413958 0.703507 0.788816 -0.60745
O_ O_ 0.156745 0.713566 0.719459 -0.60745
O_ O_ 0.413484 0.709103 0.72019 -0.60745
O_ O_ 0.0919809 0.711543 0.716707 -0.60745
O_ O_ 0.350829 0.706871 0.714898 -0.60745
O_ O_ 0.0962365 0.70789 0.785515 -0.60745
O_ O_ 0.351033 0.70383 0.781483 -0.60745
Zn Zn 0.623213 0.24765 0.286287 0.9476
Zn Zn 0.874861 0.24673 0.281907 0.9476
Zn Zn 0.623065 0.251171 0.215802 0.9476
Zn Zn 0.87545 0.245657 0.211799 0.9476
H_ H_ 0.527801 0.409698 0.183002 0.10932
H_ H_ 0.777235 0.412327 0.176749 0.10932
H_ H_ 0.558507 0.345324 0.316498 0.10932
H_ H_ 0.808006 0.347686 0.312826 0.10932
H_ H_ 0.562287 0.346881 0.182052 0.10932
H_ H_ 0.805146 0.348783 0.173108 0.10932
H_ H_ 0.539168 0.415565 0.318083 0.10932
H_ H_ 0.787009 0.412697 0.311403 0.10932
H_ H_ 0.726401 0.407057 0.318787 0.10932
H_ H_ 0.981389 0.396392 0.312772 0.10932
H_ H_ 0.65978 0.372428 0.195303 0.10932
H_ H_ 0.919555 0.371429 0.185391 0.10932
H_ H_ 0.693341 0.341033 0.321444 0.10932
H_ H_ 0.943434 0.339082 0.311747 0.10932
H_ H_ 0.696491 0.425156 0.190178 0.10932
H_ H_ 0.951219 0.431685 0.189018 0.10932
H_ H_ 0.711082 0.0775974 0.319268 0.10932
H_ H_ 0.968316 0.0869716 0.321595 0.10932
H_ H_ 0.688034 0.150852 0.187484 0.10932
H_ H_ 0.929398 0.141341 0.184678 0.10932
H_ H_ 0.690038 0.149057 0.320458 0.10932
H_ H_ 0.947173 0.156156 0.317875 0.10932
H_ H_ 0.722626 0.0935787 0.185965 0.10932
H_ H_ 0.956435 0.0750536 0.184673 0.10932
H_ H_ 0.530954 0.080917 0.178107 0.10932
H_ H_ 0.789384 0.0763366 0.192011 0.10932
H_ H_ 0.550039 0.154799 0.311134 0.10932
H_ H_ 0.808937 0.152418 0.323934 0.10932
H_ H_ 0.552746 0.151294 0.179621 0.10932
H_ H_ 0.821013 0.136857 0.191493 0.10932
H_ H_ 0.523965 0.0894327 0.314027 0.10932
H_ H_ 0.775707 0.0896918 0.321488 0.10932
H_ H_ 0.618137 0.189434 0.365439 0.10932
H_ H_ 0.870693 0.179883 0.356968 0.10932
H_ H_ 0.628238 0.315102 0.355315 0.10932
H_ H_ 0.879945 0.314812 0.354256 0.10932
H_ H_ 0.634318 0.326318 0.431921 0.10932
H_ H_ 0.876242 0.312888 0.432079 0.10932
H_ H_ 0.614522 0.19598 0.446137 0.10932
H_ H_ 0.869336 0.182443 0.436578 0.10932
H_ H_ 0.609416 0.185904 0.146358 0.10932
H_ H_ 0.824784 0.232575 0.138385 0.10932
H_ H_ 0.626634 0.31392 0.134829 0.10932
H_ H_ 0.920526 0.245342 0.134464 0.10932
H_ H_ 0.63011 0.305331 0.0556363 0.10932
H_ H_ 0.918538 0.234389 0.0586932 0.10932
H_ H_ 0.612638 0.177745 0.0666082 0.10932
H_ H_ 0.822828 0.23406 0.0627624 0.10932
C_ C_ 0.563105 0.343068 0.248694 -0.02249
C_ C_ 0.813487 0.345449 0.243436 -0.02249
C_ C_ 0.51473 0.458408 0.25035 -0.02249
C_ C_ 0.761442 0.458655 0.24723 -0.02249
C_ C_ 0.538812 0.399601 0.213773 -0.11473
C_ C_ 0.783138 0.39645 0.206699 -0.11473
C_ C_ 0.556525 0.360653 0.287418 -0.11473
C_ C_ 0.80244 0.360147 0.282931 -0.11473
C_ C_ 0.556138 0.363865 0.212611 -0.11473
C_ C_ 0.798353 0.360172 0.206168 -0.11473
C_ C_ 0.530647 0.416771 0.251007 -0.02249
C_ C_ 0.777395 0.41687 0.244628 -0.02249
C_ C_ 0.583664 0.308264 0.249759 0.6875
C_ C_ 0.835388 0.308422 0.242279 0.6875
C_ C_ 0.540405 0.397818 0.28936 -0.11473
C_ C_ 0.786685 0.397164 0.283568 -0.11473
C_ C_ 0.675295 0.348896 0.257444 -0.02249
C_ C_ 0.932175 0.34551 0.24512 -0.02249
C_ C_ 0.730326 0.46179 0.253238 -0.02249
C_ C_ 0.983459 0.458522 0.251958 -0.02249
C_ C_ 0.713199 0.396114 0.291534 -0.11473
C_ C_ 0.967383 0.390912 0.285149 -0.11473
C_ C_ 0.675928 0.374896 0.220972 -0.11473
C_ C_ 0.932107 0.375438 0.21317 -0.11473
C_ C_ 0.69504 0.35956 0.291737 -0.11473
C_ C_ 0.946756 0.356999 0.283927 -0.11473
C_ C_ 0.711551 0.422356 0.256168 -0.02249
C_ C_ 0.969512 0.417948 0.250215 -0.02249
C_ C_ 0.659493 0.307827 0.255878 0.6875
C_ C_ 0.912846 0.306827 0.244211 0.6875
C_ C_ 0.694431 0.410094 0.220413 -0.11473
C_ C_ 0.952536 0.410143 0.214089 -0.11473
C_ C_ 0.685937 0.153371 0.25445 -0.02249
C_ C_ 0.933683 0.152306 0.252734 -0.02249
C_ C_ 0.735994 0.0385441 0.25249 -0.02249
C_ C_ 0.981924 0.0348606 0.25112 -0.02249
C_ C_ 0.711125 0.096305 0.290848 -0.11473
C_ C_ 0.962729 0.0989831 0.290143 -0.11473
C_ C_ 0.696775 0.137547 0.21668 -0.11473
C_ C_ 0.936619 0.128955 0.21432 -0.11473
C_ C_ 0.696155 0.134784 0.291338 -0.11473
C_ C_ 0.949187 0.13778 0.288653 -0.11473
C_ C_ 0.720348 0.0794243 0.252136 -0.02249
C_ C_ 0.964461 0.0740991 0.253603 -0.02249
C_ C_ 0.665605 0.190204 0.254731 0.6875
C_ C_ 0.914446 0.190095 0.252468 0.6875
C_ C_ 0.713279 0.101324 0.214943 -0.11473
C_ C_ 0.95281 0.0921437 0.213746 -0.11473
C_ C_ 0.56155 0.153402 0.246806 -0.02249
C_ C_ 0.819622 0.147476 0.25774 -0.02249
C_ C_ 0.512183 0.0378915 0.24651 -0.02249
C_ C_ 0.767513 0.0370724 0.258483 -0.02249
C_ C_ 0.534635 0.0967719 0.208475 -0.11473
C_ C_ 0.795519 0.0906322 0.221395 -0.11473
C_ C_ 0.548568 0.137426 0.284004 -0.11473
C_ C_ 0.806645 0.132992 0.295756 -0.11473
C_ C_ 0.550144 0.135756 0.208662 -0.11473
C_ C_ 0.813246 0.124447 0.220233 -0.11473
C_ C_ 0.527526 0.0779686 0.246796 -0.02249
C_ C_ 0.78537 0.0755525 0.258646 -0.02249
C_ C_ 0.580914 0.190487 0.246803 0.6875
C_ C_ 0.835021 0.187517 0.25172 0.6875
C_ C_ 0.533374 0.0994217 0.283745 -0.11473
C_ C_ 0.789385 0.0964653 0.296038 -0.11473
C_ C_ 0.620199 0.218942 0.38165 0.17695
C_ C_ 0.874627 0.210361 0.373903 0.17695
C_ C_ 0.625587 0.290295 0.37506 0.17695
C_ C_ 0.876356 0.284827 0.371998 0.17695
C_ C_ 0.631029 0.293688 0.418206 -0.11473
C_ C_ 0.877573 0.285015 0.416635 -0.11473
C_ C_ 0.624806 0.259224 0.443851 0.23465
C_ C_ 0.873572 0.249805 0.439945 0.23465
C_ C_ 0.621651 0.22081 0.425845 -0.11473
C_ C_ 0.872158 0.210456 0.41882 -0.11473
C_ C_ 0.616353 0.211155 0.126258 0.17695
C_ C_ 0.845916 0.233012 0.122178 0.17695
C_ C_ 0.626178 0.282633 0.119905 0.17695
C_ C_ 0.898793 0.23981 0.119166 0.17695
C_ C_ 0.628134 0.279082 0.0764943 -0.11473
C_ C_ 0.897999 0.234651 0.0749567 -0.11473
C_ C_ 0.621943 0.240857 0.0564702 0.23465
C_ C_ 0.869911 0.237312 0.05328 0.23465
C_ C_ 0.614179 0.207969 0.0815699 -0.11473
C_ C_ 0.844379 0.234416 0.0777203 -0.11473
C_ C_ 0.531153 0.496773 0.255256 0.05793
C_ C_ 0.779502 0.494298 0.241617 0.05793
C_ C_ 0.71885 1.00296847 0.250769 0.05793
C_ C_ 0.967002 0.996837 0.249643 0.05793
Br Br 0.568729 0.496809 0.285109 -0.17191
Br Br 0.823841 0.489406 0.23903 -0.17191
Br Br 0.674386 0.00370378 0.256167 -0.17191
Br Br 0.925585 -0.0014640000000000208 0.231603 -0.17191
N_ N_ 0.622636 0.252609 0.356732 -0.272
N_ N_ 0.875313 0.247387 0.3524 -0.272
N_ N_ 0.624721 0.263205 0.488998 -0.12501
N_ N_ 0.867563 0.25132 0.483702 -0.12501
N_ N_ 0.624203 0.247731 0.14455 -0.272
N_ N_ 0.872998 0.240878 0.141447 -0.272
N_ N_ 0.619501 0.238346 0.012701 -0.12501
N_ N_ 0.86631 0.234722 0.009094 -0.12501
O_ O_ 0.594367 0.296424 0.215404 -0.60745
O_ O_ 0.841423 0.288681 0.209498 -0.60745
O_ O_ 0.589902 0.287973 0.282903 -0.60745
O_ O_ 0.845 0.293788 0.277185 -0.60745
O_ O_ 0.652245 0.29099 0.28939 -0.60745
O_ O_ 0.906756 0.288863 0.277334 -0.60745
O_ O_ 0.652217 0.294054 0.220517 -0.60745
O_ O_ 0.903714 0.291476 0.209012 -0.60745
O_ O_ 0.651255 0.201905 0.287481 -0.60745
O_ O_ 0.903175 0.201756 0.287105 -0.60745
O_ O_ 0.654737 0.204018 0.220221 -0.60745
O_ O_ 0.905239 0.204408 0.217846 -0.60745
O_ O_ 0.5907 0.205963 0.213054 -0.60745
O_ O_ 0.844146 0.198949 0.216006 -0.60745
O_ O_ 0.591079 0.203774 0.280623 -0.60745
O_ O_ 0.841744 0.206395 0.284662 -0.60745
Zn Zn 0.632066 0.250533 0.789968 0.9476
Zn Zn 0.875283 0.256156 0.781094 0.9476
Zn Zn 0.627801 0.246098 0.718475 0.9476
Zn Zn 0.872526 0.251819 0.710628 0.9476
H_ H_ 0.517551 0.393782 0.698723 0.10932
H_ H_ 0.784921 0.422155 0.673498 0.10932
H_ H_ 0.593542 0.369728 0.811073 0.10932
H_ H_ 0.807711 0.350113 0.809984 0.10932
H_ H_ 0.546671 0.330775 0.697511 0.10932
H_ H_ 0.822014 0.368461 0.679412 0.10932
H_ H_ 0.560471 0.433852 0.81501 0.10932
H_ H_ 0.786412 0.418545 0.809134 0.10932
H_ H_ 0.711052 0.430347 0.80994 0.10932
H_ H_ 0.969145 0.41528 0.815929 0.10932
H_ H_ 0.682115 0.358628 0.679271 0.10932
H_ H_ 0.930972 0.360172 0.676251 0.10932
H_ H_ 0.68989 0.359468 0.815646 0.10932
H_ H_ 0.938654 0.355928 0.812938 0.10932
H_ H_ 0.712013 0.419687 0.67477 0.10932
H_ H_ 0.955545 0.429467 0.679819 0.10932
H_ H_ 0.701856 0.0663857 0.801454 0.10932
H_ H_ 0.972399 0.0977017 0.81401 0.10932
H_ H_ 0.714422 0.170271 0.692044 0.10932
H_ H_ 0.925508 0.138295 0.681793 0.10932
H_ H_ 0.66519 0.124577 0.792904 0.10932
H_ H_ 0.940508 0.154625 0.813389 0.10932
H_ H_ 0.742637 0.104432 0.686266 0.10932
H_ H_ 0.959709 0.0795131 0.681707 0.10932
H_ H_ 0.523075 0.0961357 0.690594 0.10932
H_ H_ 0.811588 0.0653377 0.690782 0.10932
H_ H_ 0.573996 0.138417 0.823203 0.10932
H_ H_ 0.797459 0.16684 0.809375 0.10932
H_ H_ 0.55921 0.152792 0.69079 0.10932
H_ H_ 0.835497 0.133785 0.687841 0.10932
H_ H_ 0.545903 0.0734231 0.821094 0.10932
H_ H_ 0.768545 0.100778 0.806195 0.10932
H_ H_ 0.646522 0.318822 0.860989 0.10932
H_ H_ 0.92201 0.272138 0.850538 0.10932
H_ H_ 0.620313 0.193876 0.862955 0.10932
H_ H_ 0.831425 0.236826 0.863475 0.10932
H_ H_ 0.62032 0.193389 0.939783 0.10932
H_ H_ 0.837175 0.232148 0.941509 0.10932
H_ H_ 0.651284 0.31938 0.939952 0.10932
H_ H_ 0.92812 0.267856 0.930249 0.10932
H_ H_ 0.614537 0.179686 0.649175 0.10932
H_ H_ 0.922715 0.262936 0.649914 0.10932
H_ H_ 0.63552 0.306026 0.640143 0.10932
H_ H_ 0.830161 0.237624 0.627949 0.10932
H_ H_ 0.631569 0.302777 0.560561 0.10932
H_ H_ 0.837403 0.231669 0.552809 0.10932
H_ H_ 0.610043 0.173276 0.572503 0.10932
H_ H_ 0.927623 0.275163 0.569388 0.10932
C_ C_ 0.572469 0.344409 0.756719 -0.02249
C_ C_ 0.814896 0.351123 0.742268 -0.02249
C_ C_ 0.521071 0.458781 0.752189 -0.02249
C_ C_ 0.764462 0.466601 0.739509 -0.02249
C_ C_ 0.53537 0.388638 0.72358 -0.11473
C_ C_ 0.789276 0.406391 0.703505 -0.11473
C_ C_ 0.576057 0.37402 0.788367 -0.11473
C_ C_ 0.803875 0.366117 0.779112 -0.11473
C_ C_ 0.551409 0.352257 0.724698 -0.11473
C_ C_ 0.809113 0.372967 0.705075 -0.11473
C_ C_ 0.537447 0.418135 0.755699 -0.02249
C_ C_ 0.78161 0.425203 0.741368 -0.02249
C_ C_ 0.589756 0.306256 0.756773 0.6875
C_ C_ 0.834608 0.311527 0.741769 0.6875
C_ C_ 0.558084 0.41055 0.789288 -0.11473
C_ C_ 0.786993 0.40356 0.779487 -0.11473
C_ C_ 0.686128 0.350472 0.746489 -0.02249
C_ C_ 0.934289 0.352449 0.743807 -0.02249
C_ C_ 0.732732 0.466886 0.742693 -0.02249
C_ C_ 0.985675 0.464232 0.745374 -0.02249
C_ C_ 0.708485 0.411314 0.7827 -0.11473
C_ C_ 0.961509 0.406586 0.783634 -0.11473
C_ C_ 0.691251 0.371183 0.70856 -0.11473
C_ C_ 0.941629 0.371496 0.705648 -0.11473
C_ C_ 0.693814 0.372123 0.785067 -0.11473
C_ C_ 0.944508 0.36963 0.783394 -0.11473
C_ C_ 0.716271 0.428981 0.745602 -0.02249
C_ C_ 0.966915 0.426083 0.745251 -0.02249
C_ C_ 0.670177 0.308891 0.74725 0.6875
C_ C_ 0.91005 0.318531 0.745736 0.6875
C_ C_ 0.708419 0.406908 0.70791 -0.11473
C_ C_ 0.954897 0.410577 0.70812 -0.11473
C_ C_ 0.686668 0.154178 0.743671 -0.02249
C_ C_ 0.935073 0.156294 0.744833 -0.02249
C_ C_ 0.738271 0.0382313 0.738577 -0.02249
C_ C_ 0.987913 0.0446744 0.747561 -0.02249
C_ C_ 0.703664 0.0869121 0.775346 -0.11473
C_ C_ 0.965575 0.106953 0.783352 -0.11473
C_ C_ 0.708239 0.145901 0.71153 -0.11473
C_ C_ 0.937809 0.131254 0.710727 -0.11473
C_ C_ 0.685082 0.123723 0.774292 -0.11473
C_ C_ 0.947906 0.142738 0.783636 -0.11473
C_ C_ 0.719763 0.0766914 0.738816 -0.02249
C_ C_ 0.973634 0.0860318 0.746804 -0.02249
C_ C_ 0.668021 0.193052 0.745229 0.6875
C_ C_ 0.914701 0.19458 0.745422 0.6875
C_ C_ 0.724623 0.108949 0.708812 -0.11473
C_ C_ 0.959059 0.0981956 0.708608 -0.11473
C_ C_ 0.569618 0.152337 0.756361 -0.02249
C_ C_ 0.818686 0.154702 0.746913 -0.02249
C_ C_ 0.512549 0.0441682 0.755429 -0.02249
C_ C_ 0.770106 0.0382566 0.747112 -0.02249
C_ C_ 0.534715 0.105205 0.720725 -0.11473
C_ C_ 0.807265 0.0869558 0.71668 -0.11473
C_ C_ 0.566609 0.126116 0.793689 -0.11473
C_ C_ 0.799191 0.145601 0.780164 -0.11473
C_ C_ 0.553456 0.140308 0.720479 -0.11473
C_ C_ 0.82107 0.126233 0.713757 -0.11473
C_ C_ 0.528258 0.0857892 0.756783 -0.02249
C_ C_ 0.787042 0.0778114 0.74932 -0.02249
C_ C_ 0.588926 0.18933 0.754508 0.6875
C_ C_ 0.837091 0.192724 0.744983 0.6875
C_ C_ 0.54686 0.092156 0.792942 -0.11473
C_ C_ 0.781029 0.109359 0.779505 -0.11473
C_ C_ 0.641421 0.290779 0.879237 0.17695
C_ C_ 0.904643 0.257079 0.870234 0.17695
C_ C_ 0.63025 0.21936 0.8798 0.17695
C_ C_ 0.85236 0.244953 0.87733 0.17695
C_ C_ 0.626324 0.221157 0.922954 -0.11473
C_ C_ 0.854819 0.242065 0.920446 -0.11473
C_ C_ 0.632748 0.257427 0.945437 0.23465
C_ C_ 0.882021 0.252565 0.940358 0.23465
C_ C_ 0.641032 0.29288 0.922934 -0.11473
C_ C_ 0.907926 0.256961 0.914433 -0.11473
C_ C_ 0.614243 0.2087 0.628677 0.17695
C_ C_ 0.904946 0.259241 0.626753 0.17695
C_ C_ 0.631126 0.277807 0.623408 0.17695
C_ C_ 0.853355 0.242712 0.615991 0.17695
C_ C_ 0.625704 0.27736 0.580164 -0.11473
C_ C_ 0.856687 0.241996 0.572456 -0.11473
C_ C_ 0.620682 0.239978 0.560326 0.23465
C_ C_ 0.883961 0.250764 0.55404 0.23465
C_ C_ 0.614359 0.204873 0.583971 -0.11473
C_ C_ 0.908377 0.260444 0.581815 -0.11473
C_ C_ 0.537821 0.49759 0.749878 0.05793
C_ C_ 0.78098 0.503609 0.740062 0.05793
C_ C_ 0.722543 0.000672501 0.740718 0.05793
C_ C_ 0.969368 0.00978685 0.754126 0.05793
Br Br 0.581049 0.495189 0.745526 -0.17191
Br Br 0.824054 0.502552 0.742202 -0.17191
Br Br 0.680906 -0.00040799999999996395 0.723785 -0.17191
Br Br 0.92679 0.0131116 0.75612 -0.17191
N_ N_ 0.63493 0.254128 0.858592 -0.272
N_ N_ 0.876809 0.250635 0.851609 -0.272
N_ N_ 0.636475 0.256896 0.98905 -0.12501
N_ N_ 0.885375 0.251271 0.985396 -0.12501
N_ N_ 0.624363 0.245394 0.646795 -0.272
N_ N_ 0.877511 0.249837 0.64238 -0.272
N_ N_ 0.616945 0.236744 0.51542 -0.12501
N_ N_ 0.888481 0.247943 0.509601 -0.12501
O_ O_ 0.596243 0.288359 0.723137 -0.60745
O_ O_ 0.842794 0.295362 0.707581 -0.60745
O_ O_ 0.603386 0.295857 0.789319 -0.60745
O_ O_ 0.841127 0.294321 0.776188 -0.60745
O_ O_ 0.665014 0.292577 0.781827 -0.60745
O_ O_ 0.902073 0.303815 0.779932 -0.60745
O_ O_ 0.659684 0.293842 0.713382 -0.60745
O_ O_ 0.905704 0.295256 0.713599 -0.60745
O_ O_ 0.656041 0.201358 0.780163 -0.60745
O_ O_ 0.910578 0.214429 0.779252 -0.60745
O_ O_ 0.657599 0.207705 0.71154 -0.60745
O_ O_ 0.904225 0.208797 0.710989 -0.60745
O_ O_ 0.59685 0.202162 0.71904 -0.60745
O_ O_ 0.8431 0.210086 0.710039 -0.60745
O_ O_ 0.600736 0.205837 0.787637 -0.60745
O_ O_ 0.846017 0.208045 0.779345 -0.60745
Zn Zn 0.624538 0.75166 0.289102 0.9476
Zn Zn 0.872106 0.748287 0.285492 0.9476
Zn Zn 0.624662 0.74739 0.220064 0.9476
Zn Zn 0.870413 0.747096 0.214718 0.9476
H_ H_ 0.515691 0.900255 0.192171 0.10932
H_ H_ 0.782213 0.916155 0.187362 0.10932
H_ H_ 0.578126 0.868589 0.317043 0.10932
H_ H_ 0.805967 0.84122 0.319067 0.10932
H_ H_ 0.54453 0.837197 0.190252 0.10932
H_ H_ 0.816994 0.857438 0.18699 0.10932
H_ H_ 0.544879 0.930148 0.314766 0.10932
H_ H_ 0.769195 0.901178 0.322262 0.10932
H_ H_ 0.704129 0.928145 0.313847 0.10932
H_ H_ 0.961261 0.91759 0.323312 0.10932
H_ H_ 0.675505 0.857748 0.181421 0.10932
H_ H_ 0.938013 0.846464 0.187114 0.10932
H_ H_ 0.682903 0.859741 0.317744 0.10932
H_ H_ 0.939578 0.849038 0.323233 0.10932
H_ H_ 0.713233 0.913789 0.181775 0.10932
H_ H_ 0.967653 0.909477 0.187953 0.10932
H_ H_ 0.732433 0.594956 0.318382 0.10932
H_ H_ 0.96123 0.576413 0.318455 0.10932
H_ H_ 0.676885 0.636245 0.188589 0.10932
H_ H_ 0.932737 0.639082 0.182741 0.10932
H_ H_ 0.701103 0.659541 0.317473 0.10932
H_ H_ 0.931785 0.643019 0.317319 0.10932
H_ H_ 0.709597 0.573719 0.188173 0.10932
H_ H_ 0.952981 0.569477 0.183682 0.10932
H_ H_ 0.561418 0.5607 0.196666 0.10932
H_ H_ 0.777101 0.578939 0.176998 0.10932
H_ H_ 0.547792 0.659384 0.309204 0.10932
H_ H_ 0.822966 0.634289 0.309032 0.10932
H_ H_ 0.583751 0.629472 0.190063 0.10932
H_ H_ 0.799053 0.651653 0.176134 0.10932
H_ H_ 0.516826 0.59737 0.308498 0.10932
H_ H_ 0.790994 0.569227 0.307349 0.10932
H_ H_ 0.635885 0.683281 0.359562 0.10932
H_ H_ 0.820495 0.762666 0.355774 0.10932
H_ H_ 0.622547 0.81225 0.365262 0.10932
H_ H_ 0.911749 0.713084 0.367032 0.10932
H_ H_ 0.632554 0.810447 0.447673 0.10932
H_ H_ 0.906777 0.707053 0.44266 0.10932
H_ H_ 0.641619 0.677521 0.438247 0.10932
H_ H_ 0.823207 0.774335 0.430927 0.10932
H_ H_ 0.57496 0.743695 0.147212 0.10932
H_ H_ 0.862823 0.690608 0.143183 0.10932
H_ H_ 0.670461 0.74973 0.143061 0.10932
H_ H_ 0.883463 0.819102 0.14218 0.10932
H_ H_ 0.669449 0.752269 0.0675764 0.10932
H_ H_ 0.879041 0.819411 0.0640062 0.10932
H_ H_ 0.571281 0.748168 0.0708893 0.10932
H_ H_ 0.860901 0.689636 0.0580039 0.10932
C_ C_ 0.566865 0.849624 0.252103 -0.02249
C_ C_ 0.814848 0.846657 0.253538 -0.02249
C_ C_ 0.512246 0.96079 0.249183 -0.02249
C_ C_ 0.764738 0.960184 0.258031 -0.02249
C_ C_ 0.53296 0.897281 0.215415 -0.11473
C_ C_ 0.787278 0.901348 0.216918 -0.11473
C_ C_ 0.564254 0.875109 0.288032 -0.11473
C_ C_ 0.80191 0.859734 0.29186 -0.11473
C_ C_ 0.550588 0.861576 0.215348 -0.11473
C_ C_ 0.807128 0.867911 0.216164 -0.11473
C_ C_ 0.529922 0.921792 0.25172 -0.02249
C_ C_ 0.779276 0.919402 0.255398 -0.02249
C_ C_ 0.586134 0.810204 0.254535 0.6875
C_ C_ 0.837038 0.810736 0.252098 0.6875
C_ C_ 0.545427 0.910739 0.288036 -0.11473
C_ C_ 0.782105 0.89439 0.292645 -0.11473
C_ C_ 0.676784 0.852956 0.249839 -0.02249
C_ C_ 0.933587 0.842422 0.255523 -0.02249
C_ C_ 0.733669 0.964094 0.247646 -0.02249
C_ C_ 0.982607 0.96008 0.256056 -0.02249
C_ C_ 0.701674 0.910276 0.285412 -0.11473
C_ C_ 0.95806 0.900363 0.292903 -0.11473
C_ C_ 0.686449 0.870242 0.210048 -0.11473
C_ C_ 0.940932 0.863388 0.217424 -0.11473
C_ C_ 0.685989 0.872948 0.287429 -0.11473
C_ C_ 0.943741 0.862431 0.292603 -0.11473
C_ C_ 0.713672 0.925058 0.246273 -0.02249
C_ C_ 0.965619 0.919389 0.253487 -0.02249
C_ C_ 0.659843 0.811232 0.250224 0.6875
C_ C_ 0.91205 0.806206 0.258131 0.6875
C_ C_ 0.70588 0.903693 0.209253 -0.11473
C_ C_ 0.957906 0.899756 0.2168 -0.11473
C_ C_ 0.687784 0.654619 0.251718 -0.02249
C_ C_ 0.932278 0.649174 0.251901 -0.02249
C_ C_ 0.734806 0.535792 0.257741 -0.02249
C_ C_ 0.979078 0.532235 0.252915 -0.02249
C_ C_ 0.722806 0.605932 0.288536 -0.11473
C_ C_ 0.955356 0.591375 0.28941 -0.11473
C_ C_ 0.691106 0.629674 0.216906 -0.11473
C_ C_ 0.937594 0.626555 0.213452 -0.11473
C_ C_ 0.704689 0.642967 0.287527 -0.11473
C_ C_ 0.938901 0.628809 0.288823 -0.11473
C_ C_ 0.719561 0.577046 0.255346 -0.02249
C_ C_ 0.958776 0.567309 0.252559 -0.02249
C_ C_ 0.664995 0.691019 0.252949 0.6875
C_ C_ 0.912555 0.686521 0.251568 0.6875
C_ C_ 0.706851 0.592942 0.217329 -0.11473
C_ C_ 0.949832 0.586044 0.214698 -0.11473
C_ C_ 0.568497 0.650437 0.251029 -0.02249
C_ C_ 0.814016 0.648777 0.241297 -0.02249
C_ C_ 0.518079 0.535545 0.249764 -0.02249
C_ C_ 0.765007 0.532823 0.245085 -0.02249
C_ C_ 0.554421 0.585601 0.21679 -0.11473
C_ C_ 0.784556 0.595138 0.205797 -0.11473
C_ C_ 0.550403 0.638467 0.285447 -0.11473
C_ C_ 0.811999 0.624225 0.279704 -0.11473
C_ C_ 0.569743 0.623542 0.215849 -0.11473
C_ C_ 0.798471 0.634326 0.205638 -0.11473
C_ C_ 0.53477 0.575253 0.250019 -0.02249
C_ C_ 0.783418 0.570956 0.244433 -0.02249
C_ C_ 0.585322 0.691822 0.24921 0.6875
C_ C_ 0.831797 0.688802 0.243979 0.6875
C_ C_ 0.532036 0.604365 0.282664 -0.11473
C_ C_ 0.793081 0.588659 0.280674 -0.11473
C_ C_ 0.637099 0.709532 0.37898 0.17695
C_ C_ 0.841037 0.750127 0.374427 0.17695
C_ C_ 0.628016 0.782553 0.382398 0.17695
C_ C_ 0.890478 0.721264 0.379445 0.17695
C_ C_ 0.63203 0.781311 0.427756 -0.11473
C_ C_ 0.890181 0.723621 0.424075 -0.11473
C_ C_ 0.633247 0.74222 0.447698 0.23465
C_ C_ 0.86507 0.741561 0.443406 0.23465
C_ C_ 0.63736 0.706552 0.422593 -0.11473
C_ C_ 0.840758 0.755097 0.418394 -0.11473
C_ C_ 0.594819 0.745379 0.130212 0.17695
C_ C_ 0.865323 0.7184 0.123471 0.17695
C_ C_ 0.648315 0.749861 0.127918 0.17695
C_ C_ 0.880377 0.788789 0.124671 0.17695
C_ C_ 0.647478 0.752662 0.0843281 -0.11473
C_ C_ 0.876437 0.790447 0.0804602 -0.11473
C_ C_ 0.619497 0.753561 0.0625041 0.23465
C_ C_ 0.872098 0.754654 0.0554148 0.23465
C_ C_ 0.59301 0.74964 0.087516 -0.11473
C_ C_ 0.866104 0.716312 0.0785201 -0.11473
C_ C_ 0.527525 0.998968 0.249163 0.05793
C_ C_ 0.781792 0.998212 0.263289 0.05793
C_ C_ 0.717252 0.499439 0.258304 0.05793
C_ C_ 0.967062 0.493337 0.264317 0.05793
Br Br 0.569066 1.0000686723 0.255684 -0.17191
Br Br 0.825136 0.997316 0.277474 -0.17191
Br Br 0.673963 0.500449 0.263682 -0.17191
Br Br 0.925984 0.488476 0.283084 -0.17191
N_ N_ 0.631271 0.747074 0.36039 -0.272
N_ N_ 0.866803 0.73803 0.355506 -0.272
N_ N_ 0.628506 0.737312 0.492201 -0.12501
N_ N_ 0.863877 0.746309 0.488555 -0.12501
N_ N_ 0.622275 0.747271 0.149977 -0.272
N_ N_ 0.874464 0.75258 0.145416 -0.272
N_ N_ 0.613998 0.752181 0.0191351 -0.12501
N_ N_ 0.865314 0.758642 0.011793 -0.12501
O_ O_ 0.594222 0.791489 0.220923 -0.60745
O_ O_ 0.848133 0.800333 0.216848 -0.60745
O_ O_ 0.594742 0.795585 0.291453 -0.60745
O_ O_ 0.838515 0.786791 0.282768 -0.60745
O_ O_ 0.658094 0.793263 0.284822 -0.60745
O_ O_ 0.901707 0.795625 0.293123 -0.60745
O_ O_ 0.65194 0.793306 0.215982 -0.60745
O_ O_ 0.903897 0.786472 0.224909 -0.60745
O_ O_ 0.654703 0.702579 0.287184 -0.60745
O_ O_ 0.907432 0.707094 0.285671 -0.60745
O_ O_ 0.657364 0.708843 0.218374 -0.60745
O_ O_ 0.897099 0.696039 0.218624 -0.60745
O_ O_ 0.596448 0.701756 0.214184 -0.60745
O_ O_ 0.838097 0.705641 0.209867 -0.60745
O_ O_ 0.593689 0.707438 0.283367 -0.60745
O_ O_ 0.843699 0.702308 0.279008 -0.60745
Zn Zn 0.62525 0.752262 0.7888 0.9476
Zn Zn 0.877302 0.751013 0.784241 0.9476
Zn Zn 0.623323 0.756742 0.72024 0.9476
Zn Zn 0.878418 0.750707 0.713293 0.9476
H_ H_ 0.533031 0.92223 0.685109 0.10932
H_ H_ 0.801902 0.929823 0.680721 0.10932
H_ H_ 0.574955 0.86547 0.816804 0.10932
H_ H_ 0.800145 0.839782 0.803011 0.10932
H_ H_ 0.561627 0.857846 0.682429 0.10932
H_ H_ 0.83398 0.866125 0.681454 0.10932
H_ H_ 0.541179 0.926136 0.82092 0.10932
H_ H_ 0.776522 0.904927 0.80565 0.10932
H_ H_ 0.703517 0.934669 0.810488 0.10932
H_ H_ 0.973228 0.918405 0.818214 0.10932
H_ H_ 0.703197 0.839128 0.688171 0.10932
H_ H_ 0.917152 0.877448 0.687768 0.10932
H_ H_ 0.672611 0.87166 0.810582 0.10932
H_ H_ 0.948365 0.849389 0.813757 0.10932
H_ H_ 0.730299 0.902895 0.683433 0.10932
H_ H_ 0.946219 0.943827 0.690803 0.10932
H_ H_ 0.698769 0.571928 0.810896 0.10932
H_ H_ 0.983055 0.595281 0.814861 0.10932
H_ H_ 0.694858 0.666809 0.687683 0.10932
H_ H_ 0.928548 0.642472 0.686394 0.10932
H_ H_ 0.670347 0.637416 0.811796 0.10932
H_ H_ 0.953595 0.658713 0.81536 0.10932
H_ H_ 0.728053 0.60312 0.686259 0.10932
H_ H_ 0.960673 0.582184 0.682124 0.10932
H_ H_ 0.540928 0.582102 0.684705 0.10932
H_ H_ 0.781618 0.590116 0.6778 0.10932
H_ H_ 0.56182 0.65145 0.817287 0.10932
H_ H_ 0.813101 0.650038 0.814811 0.10932
H_ H_ 0.562197 0.649895 0.684309 0.10932
H_ H_ 0.812366 0.653379 0.677453 0.10932
H_ H_ 0.537608 0.582983 0.818748 0.10932
H_ H_ 0.781385 0.590605 0.814743 0.10932
H_ H_ 0.672702 0.72406 0.86245 0.10932
H_ H_ 0.891803 0.691452 0.8533 0.10932
H_ H_ 0.58979 0.787518 0.865204 0.10932
H_ H_ 0.869095 0.818667 0.861971 0.10932
H_ H_ 0.590166 0.788781 0.941189 0.10932
H_ H_ 0.863435 0.814613 0.94114 0.10932
H_ H_ 0.674122 0.72618 0.942179 0.10932
H_ H_ 0.90111 0.690882 0.932855 0.10932
H_ H_ 0.624881 0.693615 0.642484 0.10932
H_ H_ 0.877034 0.811068 0.635688 0.10932
H_ H_ 0.623184 0.82405 0.645011 0.10932
H_ H_ 0.874497 0.682644 0.649097 0.10932
H_ H_ 0.629454 0.827584 0.566942 0.10932
H_ H_ 0.877427 0.671018 0.570355 0.10932
H_ H_ 0.63862 0.695819 0.566209 0.10932
H_ H_ 0.884883 0.803456 0.557331 0.10932
C_ C_ 0.566334 0.85311 0.751342 -0.02249
C_ C_ 0.819334 0.847128 0.742057 -0.02249
C_ C_ 0.516158 0.968925 0.75516 -0.02249
C_ C_ 0.769798 0.960284 0.747045 -0.02249
C_ C_ 0.538553 0.907811 0.71464 -0.11473
C_ C_ 0.800398 0.908124 0.70621 -0.11473
C_ C_ 0.560924 0.874919 0.790304 -0.11473
C_ C_ 0.804617 0.859636 0.777604 -0.11473
C_ C_ 0.555538 0.870989 0.713034 -0.11473
C_ C_ 0.818091 0.871915 0.70653 -0.11473
C_ C_ 0.533746 0.930151 0.753406 -0.02249
C_ C_ 0.784594 0.920042 0.743032 -0.02249
C_ C_ 0.585541 0.815568 0.75281 0.6875
C_ C_ 0.837992 0.809089 0.744117 0.6875
C_ C_ 0.547517 0.914516 0.790298 -0.11473
C_ C_ 0.787645 0.895145 0.777942 -0.11473
C_ C_ 0.688809 0.8452 0.752148 -0.02249
C_ C_ 0.934377 0.855252 0.748441 -0.02249
C_ C_ 0.737922 0.963328 0.746879 -0.02249
C_ C_ 0.984452 0.970356 0.755767 -0.02249
C_ C_ 0.703645 0.913949 0.783009 -0.11473
C_ C_ 0.96243 0.907472 0.789284 -0.11473
C_ C_ 0.702995 0.857618 0.715883 -0.11473
C_ C_ 0.931661 0.883439 0.715326 -0.11473
C_ C_ 0.687221 0.876009 0.783968 -0.11473
C_ C_ 0.949384 0.868698 0.786142 -0.11473
C_ C_ 0.720004 0.924135 0.746883 -0.02249
C_ C_ 0.965369 0.932657 0.753991 -0.02249
C_ C_ 0.666504 0.809988 0.752433 0.6875
C_ C_ 0.914237 0.817263 0.748238 0.6875
C_ C_ 0.718805 0.895743 0.712117 -0.11473
C_ C_ 0.948296 0.922901 0.717442 -0.11473
C_ C_ 0.683755 0.659109 0.752597 -0.02249
C_ C_ 0.938972 0.65569 0.749901 -0.02249
C_ C_ 0.732849 0.543452 0.743842 -0.02249
C_ C_ 0.987032 0.539677 0.749948 -0.02249
C_ C_ 0.70001 0.593405 0.783979 -0.11473
C_ C_ 0.969334 0.602418 0.787971 -0.11473
C_ C_ 0.699297 0.648891 0.715152 -0.11473
C_ C_ 0.941123 0.632568 0.714409 -0.11473
C_ C_ 0.68354 0.630763 0.784533 -0.11473
C_ C_ 0.952719 0.640202 0.787973 -0.11473
C_ C_ 0.716806 0.58441 0.748709 -0.02249
C_ C_ 0.970634 0.580527 0.750324 -0.02249
C_ C_ 0.661797 0.693177 0.753491 0.6875
C_ C_ 0.918639 0.692398 0.7515 0.6875
C_ C_ 0.71654 0.611332 0.714546 -0.11473
C_ C_ 0.956912 0.595403 0.712804 -0.11473
C_ C_ 0.564656 0.656805 0.750765 -0.02249
C_ C_ 0.814226 0.657157 0.745961 -0.02249
C_ C_ 0.521346 0.536462 0.748418 -0.02249
C_ C_ 0.76511 0.542611 0.744614 -0.02249
C_ C_ 0.544807 0.596372 0.713932 -0.11473
C_ C_ 0.789592 0.60161 0.706758 -0.11473
C_ C_ 0.555038 0.639106 0.788213 -0.11473
C_ C_ 0.803824 0.640175 0.784002 -0.11473
C_ C_ 0.555528 0.636409 0.714839 -0.11473
C_ C_ 0.804533 0.639561 0.706642 -0.11473
C_ C_ 0.53786 0.577371 0.750934 -0.02249
C_ C_ 0.781361 0.582121 0.743203 -0.02249
C_ C_ 0.58149 0.696093 0.752201 0.6875
C_ C_ 0.835496 0.694792 0.7474 0.6875
C_ C_ 0.545134 0.596791 0.788864 -0.11473
C_ C_ 0.787925 0.602313 0.782832 -0.11473
C_ C_ 0.654055 0.736511 0.880847 0.17695
C_ C_ 0.887737 0.718601 0.872414 0.17695
C_ C_ 0.606401 0.769131 0.881211 0.17695
C_ C_ 0.869773 0.789132 0.877691 0.17695
C_ C_ 0.607412 0.769796 0.925665 -0.11473
C_ C_ 0.867897 0.786115 0.921723 -0.11473
C_ C_ 0.629954 0.750732 0.948195 0.23465
C_ C_ 0.879326 0.749962 0.941542 0.23465
C_ C_ 0.653515 0.731789 0.925005 -0.11473
C_ C_ 0.888799 0.716368 0.917078 -0.11473
C_ C_ 0.627282 0.723287 0.626345 0.17695
C_ C_ 0.879047 0.780997 0.620039 0.17695
C_ C_ 0.627533 0.796995 0.627721 0.17695
C_ C_ 0.878294 0.706905 0.628148 0.17695
C_ C_ 0.631794 0.798826 0.583839 -0.11473
C_ C_ 0.878785 0.701634 0.583556 -0.11473
C_ C_ 0.635259 0.761309 0.559748 0.23465
C_ C_ 0.881535 0.737462 0.558169 0.23465
C_ C_ 0.633079 0.723808 0.58128 -0.11473
C_ C_ 0.880423 0.776152 0.576556 -0.11473
C_ C_ 0.530044 0.00840131 0.753758 0.05793
C_ C_ 0.786714 -0.0012159999999999949 0.750175 0.05793
C_ C_ 0.716729 0.505313 0.741745 0.05793
C_ C_ 0.970838 0.503174 0.740178 0.05793
Br Br 0.573303 0.00792806 0.743363 -0.17191
Br Br 0.830048 0.998023 0.758601 -0.17191
Br Br 0.673047 0.506682 0.7391 -0.17191
Br Br 0.926526 0.505123 0.737655 -0.17191
N_ N_ 0.629504 0.752034 0.860416 -0.272
N_ N_ 0.878347 0.753898 0.852525 -0.272
N_ N_ 0.633591 0.759618 0.993424 -0.12501
N_ N_ 0.883853 0.746103 0.984943 -0.12501
N_ N_ 0.62584 0.758979 0.64724 -0.272
N_ N_ 0.877056 0.746181 0.643784 -0.272
N_ N_ 0.638814 0.764748 0.51581 -0.12501
N_ N_ 0.884959 0.73488 0.513333 -0.12501
O_ O_ 0.595424 0.801523 0.719291 -0.60745
O_ O_ 0.848287 0.794995 0.710997 -0.60745
O_ O_ 0.594105 0.797902 0.78681 -0.60745
O_ O_ 0.845868 0.792409 0.778721 -0.60745
O_ O_ 0.655558 0.796763 0.785704 -0.60745
O_ O_ 0.903787 0.803376 0.782207 -0.60745
O_ O_ 0.65825 0.793604 0.719838 -0.60745
O_ O_ 0.910412 0.796996 0.714531 -0.60745
O_ O_ 0.655948 0.708546 0.788311 -0.60745
O_ O_ 0.912433 0.709411 0.786212 -0.60745
O_ O_ 0.65284 0.710241 0.717835 -0.60745
O_ O_ 0.906677 0.706004 0.71747 -0.60745
O_ O_ 0.584746 0.718295 0.720354 -0.60745
O_ O_ 0.847031 0.708124 0.713917 -0.60745
O_ O_ 0.595663 0.707236 0.785686 -0.60745
O_ O_ 0.850327 0.702064 0.783735 -0.60745
