_cell_length_a 44.444
_cell_length_b 32.3360000049186
_cell_length_c 31.843999878906452
_cell_angle_alpha 89.99799923859553
_cell_angle_beta 91.13600050494348
_cell_angle_gamma 89.9990006550086
_symmetry_space_group_name_H-M         'P 1'
_symmetry_Int_Tables_number            1
loop_
_symmetry_equiv_pos_as_xyz
   'x, y, z'
                         
loop_
_atom_site_label
_atom_site_type_symbol
_atom_site_fract_x 
_atom_site_fract_y
_atom_site_fract_z
_atom_site_charge
Zn Zn 0.125479 0.250348 0.28285 0.9476
Zn Zn 0.380102 0.252916 0.28605 0.9476
Zn Zn 0.125868 0.253293 0.211336 0.9476
Zn Zn 0.373783 0.253861 0.216513 0.9476
H_ H_ 0.0313706 0.415602 0.181399 0.10932
H_ H_ 0.283029 0.416739 0.183192 0.10932
H_ H_ 0.0690109 0.361656 0.314747 0.10932
H_ H_ 0.301321 0.349119 0.317466 0.10932
H_ H_ 0.0633183 0.353962 0.180482 0.10932
H_ H_ 0.31253 0.353937 0.184553 0.10932
H_ H_ 0.0465383 0.429557 0.313923 0.10932
H_ H_ 0.286336 0.421552 0.318349 0.10932
H_ H_ 0.210044 0.426386 0.310642 0.10932
H_ H_ 0.478776 0.41077 0.312784 0.10932
H_ H_ 0.186683 0.3539 0.175098 0.10932
H_ H_ 0.423363 0.367208 0.187656 0.10932
H_ H_ 0.187277 0.357386 0.313319 0.10932
H_ H_ 0.456038 0.340193 0.310333 0.10932
H_ H_ 0.221586 0.413078 0.17631 0.10932
H_ H_ 0.449947 0.431461 0.187104 0.10932
H_ H_ 0.216789 0.0716688 0.305463 0.10932
H_ H_ 0.486079 0.0986314 0.314561 0.10932
H_ H_ 0.184008 0.143184 0.173839 0.10932
H_ H_ 0.417509 0.127655 0.191964 0.10932
H_ H_ 0.183964 0.134579 0.311406 0.10932
H_ H_ 0.459884 0.164957 0.312246 0.10932
H_ H_ 0.217471 0.0863531 0.171549 0.10932
H_ H_ 0.436954 0.0595997 0.205413 0.10932
H_ H_ 0.0428292 0.0786493 0.179627 0.10932
H_ H_ 0.275075 0.0991095 0.179861 0.10932
H_ H_ 0.0533588 0.151408 0.312577 0.10932
H_ H_ 0.328682 0.128513 0.31498 0.10932
H_ H_ 0.0700843 0.143887 0.180566 0.10932
H_ H_ 0.300979 0.161934 0.185077 0.10932
H_ H_ 0.031502 0.0857499 0.311033 0.10932
H_ H_ 0.301284 0.0654171 0.305621 0.10932
H_ H_ 0.133996 0.320432 0.34909 0.10932
H_ H_ 0.378919 0.313341 0.366534 0.10932
H_ H_ 0.121371 0.194272 0.358608 0.10932
H_ H_ 0.379933 0.182334 0.358502 0.10932
H_ H_ 0.120935 0.195917 0.437666 0.10932
H_ H_ 0.382584 0.178701 0.434525 0.10932
H_ H_ 0.137448 0.326638 0.425584 0.10932
H_ H_ 0.387005 0.309196 0.4427 0.10932
H_ H_ 0.122842 0.308683 0.135979 0.10932
H_ H_ 0.34783 0.196479 0.142518 0.10932
H_ H_ 0.120829 0.179168 0.141443 0.10932
H_ H_ 0.41339 0.291595 0.143885 0.10932
H_ H_ 0.124427 0.175631 0.0660309 0.10932
H_ H_ 0.413267 0.292461 0.0642166 0.10932
H_ H_ 0.121446 0.30778 0.0589662 0.10932
H_ H_ 0.355851 0.186163 0.0684754 0.10932
C_ C_ 0.0674704 0.351839 0.248489 -0.02249
C_ C_ 0.313599 0.347312 0.252058 -0.02249
C_ C_ 0.0165295 0.465913 0.24766 -0.02249
C_ C_ 0.265345 0.462649 0.24787 -0.02249
C_ C_ 0.0403975 0.406014 0.210119 -0.11473
C_ C_ 0.291038 0.404116 0.211974 -0.11473
C_ C_ 0.0631013 0.374104 0.285985 -0.11473
C_ C_ 0.303515 0.366684 0.290057 -0.11473
C_ C_ 0.0558949 0.368536 0.2106 -0.11473
C_ C_ 0.307666 0.368037 0.214005 -0.11473
C_ C_ 0.0352722 0.428534 0.248205 -0.02249
C_ C_ 0.283152 0.423436 0.249544 -0.02249
C_ C_ 0.0870773 0.314513 0.248493 0.6875
C_ C_ 0.335728 0.312536 0.25213 0.6875
C_ C_ 0.0468262 0.411378 0.28573 -0.11473
C_ C_ 0.289127 0.405387 0.288765 -0.11473
C_ C_ 0.184963 0.348487 0.245018 -0.02249
C_ C_ 0.434061 0.349017 0.25065 -0.02249
C_ C_ 0.234082 0.463156 0.244975 -0.02249
C_ C_ 0.486172 0.465693 0.251465 -0.02249
C_ C_ 0.202998 0.410787 0.281543 -0.11473
C_ C_ 0.466892 0.400247 0.284401 -0.11473
C_ C_ 0.193581 0.367331 0.207116 -0.11473
C_ C_ 0.435345 0.375429 0.214977 -0.11473
C_ C_ 0.191011 0.3711 0.282793 -0.11473
C_ C_ 0.450044 0.363023 0.28679 -0.11473
C_ C_ 0.214481 0.425317 0.243967 -0.02249
C_ C_ 0.46794 0.425617 0.250627 -0.02249
C_ C_ 0.164232 0.311783 0.244193 0.6875
C_ C_ 0.416454 0.310186 0.252131 0.6875
C_ C_ 0.211178 0.404124 0.206815 -0.11473
C_ C_ 0.452588 0.412941 0.214519 -0.11473
C_ C_ 0.182112 0.147852 0.242121 -0.02249
C_ C_ 0.435524 0.152186 0.253942 -0.02249
C_ C_ 0.235021 0.0364921 0.23781 -0.02249
C_ C_ 0.483176 0.0363886 0.261666 -0.02249
C_ C_ 0.209552 0.0890893 0.276962 -0.11473
C_ C_ 0.471945 0.106187 0.287237 -0.11473
C_ C_ 0.188108 0.128247 0.202817 -0.11473
C_ C_ 0.4301 0.120656 0.223334 -0.11473
C_ C_ 0.190724 0.12395 0.279365 -0.11473
C_ C_ 0.457268 0.143943 0.28692 -0.11473
C_ C_ 0.219223 0.0763008 0.239355 -0.02249
C_ C_ 0.465604 0.0748877 0.258776 -0.02249
C_ C_ 0.163804 0.188998 0.243005 0.6875
C_ C_ 0.418863 0.193507 0.254524 0.6875
C_ C_ 0.209332 0.0978539 0.2016 -0.11473
C_ C_ 0.445918 0.0836882 0.22571 -0.11473
C_ C_ 0.0660007 0.153279 0.246533 -0.02249
C_ C_ 0.31629 0.152784 0.251826 -0.02249
C_ C_ 0.0178842 0.0376896 0.242389 -0.02249
C_ C_ 0.266237 0.0376903 0.241626 -0.02249
C_ C_ 0.0485088 0.0916587 0.208786 -0.11473
C_ C_ 0.285419 0.105159 0.209401 -0.11473
C_ C_ 0.0518592 0.136679 0.282479 -0.11473
C_ C_ 0.314155 0.12404 0.286527 -0.11473
C_ C_ 0.0639718 0.129531 0.20947 -0.11473
C_ C_ 0.300295 0.142675 0.214086 -0.11473
C_ C_ 0.0361656 0.0763379 0.245638 -0.02249
C_ C_ 0.283097 0.078196 0.244788 -0.02249
C_ C_ 0.0841887 0.19329 0.247988 0.6875
C_ C_ 0.338374 0.190176 0.251037 0.6875
C_ C_ 0.0374777 0.0993323 0.281601 -0.11473
C_ C_ 0.299857 0.0860839 0.280954 -0.11473
C_ C_ 0.134531 0.293912 0.369947 0.17695
C_ C_ 0.376804 0.283227 0.382138 0.17695
C_ C_ 0.123927 0.221804 0.375793 0.17695
C_ C_ 0.38073 0.211686 0.376578 0.17695
C_ C_ 0.123796 0.223984 0.419627 -0.11473
C_ C_ 0.381725 0.208003 0.420941 -0.11473
C_ C_ 0.131598 0.262198 0.439801 0.23465
C_ C_ 0.379992 0.242724 0.445526 0.23465
C_ C_ 0.136809 0.297555 0.413373 -0.11473
C_ C_ 0.380937 0.281035 0.425409 -0.11473
C_ C_ 0.122315 0.280639 0.120027 0.17695
C_ C_ 0.362109 0.218244 0.126453 0.17695
C_ C_ 0.121329 0.208081 0.124237 0.17695
C_ C_ 0.397782 0.273224 0.126948 0.17695
C_ C_ 0.120339 0.204937 0.0808793 -0.11473
C_ C_ 0.398008 0.271051 0.0812195 -0.11473
C_ C_ 0.120955 0.240856 0.055823 0.23465
C_ C_ 0.379531 0.243482 0.0601011 0.23465
C_ C_ 0.124988 0.278692 0.0758872 -0.11473
C_ C_ 0.363175 0.214847 0.083331 -0.11473
C_ C_ 0.0318157 0.504016 0.254166 0.05793
C_ C_ 0.281627 0.500087 0.250364 0.05793
C_ C_ 0.21893 -0.0022480000000000278 0.234081 0.05793
C_ C_ 0.466819 1.00086 0.266084 0.05793
Br Br 0.072614 0.506143 0.273878 -0.17191
Br Br 0.324719 0.496895 0.253699 -0.17191
Br Br 0.176511 -0.0018679999999999808 0.237891 -0.17191
Br Br 0.423346 1.000867093 0.279564 -0.17191
N_ N_ 0.12932 0.256369 0.352167 -0.272
N_ N_ 0.378077 0.248573 0.358355 -0.272
N_ N_ 0.132496 0.267864 0.484124 -0.12501
N_ N_ 0.383198 0.2396 0.489845 -0.12501
N_ N_ 0.121823 0.246352 0.142955 -0.272
N_ N_ 0.377339 0.248626 0.146598 -0.272
N_ N_ 0.118445 0.237718 0.0117425 -0.12501
N_ N_ 0.383867 0.238275 0.0153235 -0.12501
O_ O_ 0.0960967 0.299541 0.214371 -0.60745
O_ O_ 0.34611 0.301448 0.217781 -0.60745
O_ O_ 0.0973401 0.300793 0.283432 -0.60745
O_ O_ 0.346227 0.298571 0.286454 -0.60745
O_ O_ 0.156624 0.294317 0.276606 -0.60745
O_ O_ 0.407519 0.297144 0.286647 -0.60745
O_ O_ 0.155287 0.296735 0.209467 -0.60745
O_ O_ 0.408052 0.292096 0.218689 -0.60745
O_ O_ 0.15461 0.202727 0.278716 -0.60745
O_ O_ 0.412885 0.211493 0.288816 -0.60745
O_ O_ 0.154539 0.206539 0.208991 -0.60745
O_ O_ 0.404826 0.206882 0.221594 -0.60745
O_ O_ 0.0930822 0.209513 0.214756 -0.60745
O_ O_ 0.341579 0.210054 0.217334 -0.60745
O_ O_ 0.0955621 0.205889 0.28185 -0.60745
O_ O_ 0.35103 0.203523 0.28458 -0.60745
Zn Zn 0.124253 0.248261 0.781102 0.9476
Zn Zn 0.37765 0.252246 0.78805 0.9476
Zn Zn 0.123258 0.249491 0.711661 0.9476
Zn Zn 0.373861 0.250773 0.719132 0.9476
H_ H_ 0.0167547 0.405462 0.679973 0.10932
H_ H_ 0.292873 0.419755 0.682496 0.10932
H_ H_ 0.0848906 0.374669 0.7977 0.10932
H_ H_ 0.30661 0.343732 0.820317 0.10932
H_ H_ 0.0418779 0.335691 0.686317 0.10932
H_ H_ 0.322614 0.361178 0.687495 0.10932
H_ H_ 0.0476663 0.434944 0.801019 0.10932
H_ H_ 0.272053 0.409404 0.813995 0.10932
H_ H_ 0.21533 0.416157 0.819326 0.10932
H_ H_ 0.47364 0.41228 0.811343 0.10932
H_ H_ 0.181788 0.3626 0.682244 0.10932
H_ H_ 0.422208 0.360808 0.684709 0.10932
H_ H_ 0.189442 0.346945 0.815581 0.10932
H_ H_ 0.451768 0.342054 0.813516 0.10932
H_ H_ 0.215585 0.421489 0.684685 0.10932
H_ H_ 0.451208 0.425249 0.682884 0.10932
H_ H_ 0.219587 0.0873498 0.813039 0.10932
H_ H_ 0.455374 0.0699138 0.810644 0.10932
H_ H_ 0.178655 0.141581 0.6757 0.10932
H_ H_ 0.448909 0.158859 0.686673 0.10932
H_ H_ 0.191983 0.153408 0.810772 0.10932
H_ H_ 0.42243 0.130575 0.814613 0.10932
H_ H_ 0.21039 0.0732309 0.680068 0.10932
H_ H_ 0.475087 0.0906355 0.682763 0.10932
H_ H_ 0.0483573 0.06384 0.685749 0.10932
H_ H_ 0.271294 0.10045 0.683331 0.10932
H_ H_ 0.0448156 0.159877 0.807135 0.10932
H_ H_ 0.325832 0.135118 0.815541 0.10932
H_ H_ 0.0772229 0.128149 0.685436 0.10932
H_ H_ 0.296728 0.167993 0.69386 0.10932
H_ H_ 0.0263856 0.0911249 0.81316 0.10932
H_ H_ 0.288836 0.0784985 0.814223 0.10932
H_ H_ 0.144071 0.304924 0.849966 0.10932
H_ H_ 0.393895 0.312205 0.867228 0.10932
H_ H_ 0.115225 0.182339 0.864486 0.10932
H_ H_ 0.370821 0.18605 0.862191 0.10932
H_ H_ 0.118888 0.187613 0.942564 0.10932
H_ H_ 0.355829 0.187823 0.937595 0.10932
H_ H_ 0.146428 0.313703 0.930262 0.10932
H_ H_ 0.391179 0.310324 0.945443 0.10932
H_ H_ 0.0785957 0.249583 0.633381 0.10932
H_ H_ 0.380542 0.193175 0.636954 0.10932
H_ H_ 0.173261 0.247712 0.644283 0.10932
H_ H_ 0.372373 0.320816 0.646049 0.10932
H_ H_ 0.177307 0.236274 0.568257 0.10932
H_ H_ 0.371595 0.329358 0.570715 0.10932
H_ H_ 0.0818885 0.240189 0.556028 0.10932
H_ H_ 0.380706 0.198963 0.559105 0.10932
C_ C_ 0.0627542 0.347859 0.742729 -0.02249
C_ C_ 0.317552 0.349493 0.755246 -0.02249
C_ C_ 0.0139635 0.463333 0.738661 -0.02249
C_ C_ 0.267397 0.462561 0.753359 -0.02249
C_ C_ 0.0296033 0.397238 0.706885 -0.11473
C_ C_ 0.296408 0.40812 0.713583 -0.11473
C_ C_ 0.0643466 0.375656 0.777749 -0.11473
C_ C_ 0.302005 0.361281 0.791194 -0.11473
C_ C_ 0.045764 0.360181 0.707788 -0.11473
C_ C_ 0.314863 0.371746 0.715838 -0.11473
C_ C_ 0.032768 0.425719 0.738704 -0.02249
C_ C_ 0.283743 0.421707 0.751795 -0.02249
C_ C_ 0.0825427 0.310825 0.743851 0.6875
C_ C_ 0.33836 0.313858 0.754367 0.6875
C_ C_ 0.0504432 0.414999 0.775317 -0.11473
C_ C_ 0.285208 0.399675 0.787884 -0.11473
C_ C_ 0.183895 0.349016 0.748306 -0.02249
C_ C_ 0.434423 0.346651 0.74857 -0.02249
C_ C_ 0.236564 0.463997 0.756607 -0.02249
C_ C_ 0.48528 0.460349 0.745033 -0.02249
C_ C_ 0.209882 0.402986 0.789481 -0.11473
C_ C_ 0.467176 0.397984 0.783743 -0.11473
C_ C_ 0.193119 0.368786 0.710788 -0.11473
C_ C_ 0.438087 0.367067 0.709532 -0.11473
C_ C_ 0.193504 0.365613 0.787814 -0.11473
C_ C_ 0.449406 0.361975 0.785216 -0.11473
C_ C_ 0.217642 0.425593 0.753116 -0.02249
C_ C_ 0.468159 0.419895 0.745608 -0.02249
C_ C_ 0.164737 0.30958 0.745635 0.6875
C_ C_ 0.416355 0.307778 0.749483 0.6875
C_ C_ 0.208498 0.406737 0.714229 -0.11473
C_ C_ 0.452733 0.405043 0.710476 -0.11473
C_ C_ 0.185401 0.153069 0.743501 -0.02249
C_ C_ 0.432464 0.152403 0.75132 -0.02249
C_ C_ 0.233476 0.0378899 0.747425 -0.02249
C_ C_ 0.482126 0.0377823 0.742092 -0.02249
C_ C_ 0.212216 0.0996912 0.783009 -0.11473
C_ C_ 0.452753 0.0889483 0.78458 -0.11473
C_ C_ 0.190209 0.131463 0.705684 -0.11473
C_ C_ 0.447327 0.138228 0.713676 -0.11473
C_ C_ 0.194936 0.137391 0.780971 -0.11473
C_ C_ 0.434049 0.125268 0.786233 -0.11473
C_ C_ 0.215238 0.0769817 0.746223 -0.02249
C_ C_ 0.464096 0.0747364 0.745481 -0.02249
C_ C_ 0.165118 0.189703 0.744362 0.6875
C_ C_ 0.414472 0.191909 0.752995 0.6875
C_ C_ 0.205542 0.0934509 0.70727 -0.11473
C_ C_ 0.460584 0.0996135 0.709432 -0.11473
C_ C_ 0.0624239 0.15227 0.74523 -0.02249
C_ C_ 0.312368 0.155742 0.755152 -0.02249
C_ C_ 0.0153587 0.0339602 0.750126 -0.02249
C_ C_ 0.265293 0.0388819 0.744891 -0.02249
C_ C_ 0.0473504 0.0853869 0.711915 -0.11473
C_ C_ 0.281991 0.107389 0.713521 -0.11473
C_ C_ 0.0447537 0.141411 0.779669 -0.11473
C_ C_ 0.312469 0.127389 0.787892 -0.11473
C_ C_ 0.0619237 0.123994 0.710578 -0.11473
C_ C_ 0.298384 0.143749 0.717929 -0.11473
C_ C_ 0.0331493 0.072439 0.74949 -0.02249
C_ C_ 0.281206 0.0792347 0.746671 -0.02249
C_ C_ 0.0824017 0.189803 0.745855 0.6875
C_ C_ 0.332498 0.194789 0.75371 0.6875
C_ C_ 0.0320148 0.102249 0.781796 -0.11473
C_ C_ 0.293512 0.092487 0.785102 -0.11473
C_ C_ 0.13488 0.281263 0.870803 0.17695
C_ C_ 0.387301 0.284464 0.882612 0.17695
C_ C_ 0.118286 0.212726 0.880529 0.17695
C_ C_ 0.371611 0.213484 0.879715 0.17695
C_ C_ 0.121903 0.216413 0.923167 -0.11473
C_ C_ 0.364944 0.214316 0.922355 -0.11473
C_ C_ 0.130783 0.254785 0.941804 0.23465
C_ C_ 0.372313 0.249226 0.945637 0.23465
C_ C_ 0.137849 0.28611 0.915629 -0.11473
C_ C_ 0.386443 0.283649 0.925613 -0.11473
C_ C_ 0.100828 0.2503 0.618781 0.17695
C_ C_ 0.37787 0.223421 0.622292 0.17695
C_ C_ 0.153952 0.251008 0.62418 0.17695
C_ C_ 0.375732 0.295565 0.627605 0.17695
C_ C_ 0.155214 0.24349 0.581812 -0.11473
C_ C_ 0.377418 0.300484 0.585103 -0.11473
C_ C_ 0.130723 0.246549 0.555335 0.23465
C_ C_ 0.380819 0.265825 0.559446 0.23465
C_ C_ 0.102428 0.247143 0.573945 -0.11473
C_ C_ 0.379397 0.226377 0.57824 -0.11473
C_ C_ 0.0279446 0.501424 0.73941 0.05793
C_ C_ 0.285486 0.49941 0.754773 0.05793
C_ C_ 0.218728 -0.0011010000000000186 0.747188 0.05793
C_ C_ 0.466915 0.998971 0.734144 0.05793
Br Br 0.0676312 0.504215 0.717738 -0.17191
Br Br 0.32776 0.496166 0.761263 -0.17191
Br Br 0.175306 -0.003654000000000046 0.759492 -0.17191
Br Br 0.429244 0.996095 0.707035 -0.17191
N_ N_ 0.125435 0.244894 0.855105 -0.272
N_ N_ 0.379103 0.250161 0.859953 -0.272
N_ N_ 0.131386 0.261701 0.98638 -0.12501
N_ N_ 0.36549 0.251883 0.989676 -0.12501
N_ N_ 0.126138 0.255332 0.642244 -0.272
N_ N_ 0.374474 0.25727 0.646548 -0.272
N_ N_ 0.13166 0.238902 0.510522 -0.12501
N_ N_ 0.376908 0.268599 0.514246 -0.12501
O_ O_ 0.0903906 0.294726 0.709514 -0.60745
O_ O_ 0.345233 0.296091 0.719495 -0.60745
O_ O_ 0.0928435 0.296207 0.779043 -0.60745
O_ O_ 0.346989 0.298008 0.788632 -0.60745
O_ O_ 0.157069 0.292191 0.778738 -0.60745
O_ O_ 0.408913 0.293321 0.784735 -0.60745
O_ O_ 0.153171 0.295311 0.712272 -0.60745
O_ O_ 0.405899 0.291508 0.716299 -0.60745
O_ O_ 0.154384 0.201617 0.779618 -0.60745
O_ O_ 0.405011 0.204683 0.786762 -0.60745
O_ O_ 0.157504 0.206997 0.710888 -0.60745
O_ O_ 0.403262 0.204992 0.718594 -0.60745
O_ O_ 0.093563 0.203443 0.711204 -0.60745
O_ O_ 0.342273 0.20892 0.719849 -0.60745
O_ O_ 0.0902212 0.205098 0.780099 -0.60745
O_ O_ 0.342467 0.206533 0.789058 -0.60745
Zn Zn 0.124764 0.751854 0.279039 0.9476
Zn Zn 0.378357 0.748078 0.289178 0.9476
Zn Zn 0.126855 0.748721 0.209864 0.9476
Zn Zn 0.378186 0.745567 0.220398 0.9476
H_ H_ 0.0482914 0.927113 0.181456 0.10932
H_ H_ 0.27457 0.901634 0.181756 0.10932
H_ H_ 0.0459676 0.835879 0.304875 0.10932
H_ H_ 0.3321 0.863109 0.314715 0.10932
H_ H_ 0.0762408 0.864148 0.178175 0.10932
H_ H_ 0.311205 0.844338 0.184124 0.10932
H_ H_ 0.0220316 0.903728 0.306601 0.10932
H_ H_ 0.295371 0.921248 0.318284 0.10932
H_ H_ 0.226607 0.911597 0.308603 0.10932
H_ H_ 0.46245 0.92137 0.33434 0.10932
H_ H_ 0.170613 0.864311 0.181165 0.10932
H_ H_ 0.429761 0.85826 0.197023 0.10932
H_ H_ 0.192227 0.852539 0.316012 0.10932
H_ H_ 0.435402 0.852621 0.335503 0.10932
H_ H_ 0.206295 0.921106 0.175262 0.10932
H_ H_ 0.453886 0.924312 0.198123 0.10932
H_ H_ 0.219676 0.583802 0.316045 0.10932
H_ H_ 0.474739 0.582901 0.326108 0.10932
H_ H_ 0.179078 0.637806 0.18391 0.10932
H_ H_ 0.445973 0.652609 0.192438 0.10932
H_ H_ 0.189685 0.650555 0.316686 0.10932
H_ H_ 0.441691 0.643377 0.326479 0.10932
H_ H_ 0.215281 0.579944 0.183838 0.10932
H_ H_ 0.471465 0.5873 0.192771 0.10932
H_ H_ 0.0333559 0.583097 0.180359 0.10932
H_ H_ 0.288499 0.580334 0.181106 0.10932
H_ H_ 0.0574752 0.656769 0.314552 0.10932
H_ H_ 0.314419 0.645695 0.316983 0.10932
H_ H_ 0.0643299 0.644617 0.178812 0.10932
H_ H_ 0.314727 0.646606 0.180216 0.10932
H_ H_ 0.0236517 0.598023 0.314751 0.10932
H_ H_ 0.294123 0.575217 0.315193 0.10932
H_ H_ 0.116262 0.816142 0.363187 0.10932
H_ H_ 0.374489 0.678513 0.355673 0.10932
H_ H_ 0.134953 0.689573 0.349809 0.10932
H_ H_ 0.368333 0.808202 0.367173 0.10932
H_ H_ 0.130473 0.679456 0.426945 0.10932
H_ H_ 0.371441 0.802859 0.443218 0.10932
H_ H_ 0.115669 0.809332 0.438397 0.10932
H_ H_ 0.3662 0.671013 0.433141 0.10932
H_ H_ 0.174499 0.753456 0.133804 0.10932
H_ H_ 0.377065 0.680587 0.138946 0.10932
H_ H_ 0.0793373 0.749778 0.139214 0.10932
H_ H_ 0.378603 0.81137 0.151651 0.10932
H_ H_ 0.0765627 0.762323 0.0667915 0.10932
H_ H_ 0.373711 0.818974 0.0759682 0.10932
H_ H_ 0.171965 0.752344 0.0538204 0.10932
H_ H_ 0.374229 0.688382 0.0640361 0.10932
C_ C_ 0.0648502 0.84493 0.244301 -0.02249
C_ C_ 0.319635 0.845293 0.249728 -0.02249
C_ C_ 0.0140369 0.960769 0.239985 -0.02249
C_ C_ 0.267889 0.960294 0.245784 -0.02249
C_ C_ 0.0481288 0.907625 0.206344 -0.11473
C_ C_ 0.28804 0.895147 0.212003 -0.11473
C_ C_ 0.0450958 0.854814 0.276142 -0.11473
C_ C_ 0.316986 0.869246 0.287573 -0.11473
C_ C_ 0.0655984 0.872332 0.207854 -0.11473
C_ C_ 0.307985 0.860877 0.212829 -0.11473
C_ C_ 0.0302384 0.919823 0.240042 -0.02249
C_ C_ 0.285374 0.919443 0.248799 -0.02249
C_ C_ 0.0869702 0.810292 0.247598 0.6875
C_ C_ 0.339919 0.809123 0.249097 0.6875
C_ C_ 0.0304686 0.893801 0.275869 -0.11473
C_ C_ 0.29837 0.904324 0.288433 -0.11473
C_ C_ 0.181424 0.850572 0.247984 -0.02249
C_ C_ 0.431958 0.848483 0.266048 -0.02249
C_ C_ 0.235626 0.960415 0.238229 -0.02249
C_ C_ 0.48155 0.962212 0.267685 -0.02249
C_ C_ 0.214428 0.902529 0.281333 -0.11473
C_ C_ 0.45892 0.903472 0.305563 -0.11473
C_ C_ 0.183588 0.873615 0.209283 -0.11473
C_ C_ 0.436746 0.870605 0.228931 -0.11473
C_ C_ 0.195233 0.867454 0.284158 -0.11473
C_ C_ 0.441317 0.866696 0.305255 -0.11473
C_ C_ 0.218869 0.920814 0.242663 -0.02249
C_ C_ 0.464434 0.92376 0.267503 -0.02249
C_ C_ 0.164729 0.809467 0.250202 0.6875
C_ C_ 0.417274 0.807066 0.263714 0.6875
C_ C_ 0.204704 0.905511 0.206192 -0.11473
C_ C_ 0.449814 0.910722 0.229614 -0.11473
C_ C_ 0.185672 0.652794 0.247928 -0.02249
C_ C_ 0.443476 0.655896 0.260776 -0.02249
C_ C_ 0.235922 0.539506 0.248183 -0.02249
C_ C_ 0.489977 0.539859 0.258376 -0.02249
C_ C_ 0.208303 0.596218 0.28784 -0.11473
C_ C_ 0.469166 0.599498 0.297731 -0.11473
C_ C_ 0.188348 0.627957 0.212149 -0.11473
C_ C_ 0.452671 0.638264 0.222792 -0.11473
C_ C_ 0.192026 0.634697 0.286664 -0.11473
C_ C_ 0.451313 0.634028 0.297736 -0.11473
C_ C_ 0.220381 0.579986 0.249665 -0.02249
C_ C_ 0.476213 0.581763 0.258222 -0.02249
C_ C_ 0.169285 0.693294 0.245114 0.6875
C_ C_ 0.41928 0.687877 0.260497 0.6875
C_ C_ 0.20995 0.595457 0.212891 -0.11473
C_ C_ 0.466871 0.600343 0.22176 -0.11473
C_ C_ 0.0660532 0.653796 0.246725 -0.02249
C_ C_ 0.315214 0.65504 0.248917 -0.02249
C_ C_ 0.0146751 0.540635 0.249879 -0.02249
C_ C_ 0.267775 0.537588 0.244027 -0.02249
C_ C_ 0.0393828 0.598345 0.208765 -0.11473
C_ C_ 0.293694 0.596176 0.210498 -0.11473
C_ C_ 0.054991 0.638483 0.284263 -0.11473
C_ C_ 0.306282 0.634749 0.287869 -0.11473
C_ C_ 0.0544515 0.637586 0.207702 -0.11473
C_ C_ 0.310037 0.632836 0.211297 -0.11473
C_ C_ 0.0292701 0.581475 0.247632 -0.02249
C_ C_ 0.284686 0.578714 0.247349 -0.02249
C_ C_ 0.0878692 0.690266 0.245139 0.6875
C_ C_ 0.336042 0.69066 0.24819 0.6875
C_ C_ 0.034383 0.604789 0.284861 -0.11473
C_ C_ 0.294944 0.594636 0.285271 -0.11473
C_ C_ 0.123243 0.787346 0.375465 0.17695
C_ C_ 0.370932 0.705812 0.375328 0.17695
C_ C_ 0.134132 0.716909 0.369713 0.17695
C_ C_ 0.368593 0.779316 0.382621 0.17695
C_ C_ 0.132201 0.710654 0.413404 -0.11473
C_ C_ 0.372503 0.775959 0.425925 -0.11473
C_ C_ 0.12922 0.744528 0.438421 0.23465
C_ C_ 0.371064 0.73752 0.445573 0.23465
C_ C_ 0.124487 0.783122 0.4195 -0.11473
C_ C_ 0.366997 0.701809 0.41979 -0.11473
C_ C_ 0.153216 0.750429 0.117633 0.17695
C_ C_ 0.377509 0.711734 0.124834 0.17695
C_ C_ 0.09953 0.753048 0.1217 0.17695
C_ C_ 0.377614 0.78345 0.131155 0.17695
C_ C_ 0.097493 0.75306 0.0791128 -0.11473
C_ C_ 0.376642 0.78894 0.0874739 -0.11473
C_ C_ 0.122521 0.75483 0.0534075 0.23465
C_ C_ 0.375525 0.754811 0.0620639 0.23465
C_ C_ 0.150787 0.752506 0.0737791 -0.11473
C_ C_ 0.375325 0.71587 0.0811369 -0.11473
C_ C_ 0.032694 0.998853 0.238633 0.05793
C_ C_ 0.282272 0.999481 0.241193 0.05793
C_ C_ 0.219406 0.501741 0.247032 0.05793
C_ C_ 0.472867 0.503631 0.259884 0.05793
Br Br 0.0760953 -0.005159000000000025 0.241726 -0.17191
Br Br 0.324386 0.998436 0.237628 -0.17191
Br Br 0.176354 0.506211 0.245497 -0.17191
Br Br 0.43038 0.50708 0.268595 -0.17191
N_ N_ 0.129071 0.753878 0.352118 -0.272
N_ N_ 0.374048 0.743985 0.359176 -0.272
N_ N_ 0.123807 0.736254 0.481851 -0.12501
N_ N_ 0.36428 0.734252 0.489774 -0.12501
N_ N_ 0.127506 0.75034 0.141086 -0.272
N_ N_ 0.381221 0.745771 0.148915 -0.272
N_ N_ 0.118902 0.761653 0.00832775 -0.12501
N_ N_ 0.371446 0.759204 0.0170739 -0.12501
O_ O_ 0.0939289 0.791358 0.214127 -0.60745
O_ O_ 0.346438 0.791713 0.215381 -0.60745
O_ O_ 0.0951863 0.79727 0.283297 -0.60745
O_ O_ 0.347405 0.789983 0.282395 -0.60745
O_ O_ 0.154249 0.796662 0.284262 -0.60745
O_ O_ 0.406551 0.791136 0.295948 -0.60745
O_ O_ 0.159091 0.791369 0.215534 -0.60745
O_ O_ 0.410116 0.792477 0.227747 -0.60745
O_ O_ 0.157984 0.709159 0.278667 -0.60745
O_ O_ 0.411713 0.705004 0.293931 -0.60745
O_ O_ 0.159686 0.706888 0.209479 -0.60745
O_ O_ 0.407238 0.699808 0.22613 -0.60745
O_ O_ 0.096108 0.704104 0.210005 -0.60745
O_ O_ 0.344154 0.705772 0.214151 -0.60745
O_ O_ 0.0913471 0.710725 0.277894 -0.60745
O_ O_ 0.349009 0.700284 0.281548 -0.60745
Zn Zn 0.122825 0.750993 0.782471 0.9476
Zn Zn 0.376181 0.749778 0.787065 0.9476
Zn Zn 0.122804 0.746652 0.712768 0.9476
Zn Zn 0.376691 0.749268 0.71841 0.9476
H_ H_ 0.0384346 0.91875 0.687238 0.10932
H_ H_ 0.29837 0.930432 0.681433 0.10932
H_ H_ 0.0465806 0.831103 0.811733 0.10932
H_ H_ 0.305988 0.848695 0.815743 0.10932
H_ H_ 0.0674332 0.853468 0.681027 0.10932
H_ H_ 0.328948 0.862748 0.681535 0.10932
H_ H_ 0.02983 0.904153 0.82125 0.10932
H_ H_ 0.278437 0.915216 0.809669 0.10932
H_ H_ 0.218825 0.914905 0.813324 0.10932
H_ H_ 0.469012 0.920281 0.808223 0.10932
H_ H_ 0.182638 0.853871 0.680057 0.10932
H_ H_ 0.424833 0.848158 0.685033 0.10932
H_ H_ 0.204474 0.842377 0.814856 0.10932
H_ H_ 0.440475 0.854498 0.816478 0.10932
H_ H_ 0.210872 0.919548 0.680305 0.10932
H_ H_ 0.454553 0.916554 0.676288 0.10932
H_ H_ 0.210191 0.582271 0.823498 0.10932
H_ H_ 0.459551 0.573817 0.810179 0.10932
H_ H_ 0.191965 0.651994 0.68409 0.10932
H_ H_ 0.448401 0.658752 0.681032 0.10932
H_ H_ 0.181447 0.646098 0.816064 0.10932
H_ H_ 0.431548 0.637936 0.811207 0.10932
H_ H_ 0.225368 0.585093 0.690746 0.10932
H_ H_ 0.478783 0.588532 0.680271 0.10932
H_ H_ 0.0380361 0.574852 0.67997 0.10932
H_ H_ 0.297834 0.574865 0.689933 0.10932
H_ H_ 0.0565123 0.654362 0.808245 0.10932
H_ H_ 0.31837 0.646921 0.826327 0.10932
H_ H_ 0.0696429 0.636502 0.677421 0.10932
H_ H_ 0.326391 0.639372 0.692797 0.10932
H_ H_ 0.0227298 0.592084 0.810888 0.10932
H_ H_ 0.294467 0.581897 0.827404 0.10932
H_ H_ 0.12268 0.812834 0.860704 0.10932
H_ H_ 0.364153 0.807683 0.870487 0.10932
H_ H_ 0.109064 0.681392 0.849196 0.10932
H_ H_ 0.393296 0.685817 0.856399 0.10932
H_ H_ 0.10983 0.672639 0.928446 0.10932
H_ H_ 0.377941 0.667318 0.927779 0.10932
H_ H_ 0.112842 0.802939 0.936765 0.10932
H_ H_ 0.365971 0.803008 0.946388 0.10932
H_ H_ 0.162165 0.778642 0.644054 0.10932
H_ H_ 0.388435 0.814208 0.649529 0.10932
H_ H_ 0.0824891 0.715062 0.631154 0.10932
H_ H_ 0.357648 0.691564 0.644018 0.10932
H_ H_ 0.0807203 0.726306 0.551754 0.10932
H_ H_ 0.358176 0.691842 0.565596 0.10932
H_ H_ 0.16858 0.784072 0.565273 0.10932
H_ H_ 0.38759 0.818733 0.572862 0.10932
C_ C_ 0.060292 0.839427 0.748448 -0.02249
C_ C_ 0.321774 0.851722 0.749864 -0.02249
C_ C_ 0.0150003 0.955664 0.754498 -0.02249
C_ C_ 0.266091 0.963179 0.74542 -0.02249
C_ C_ 0.0381818 0.898 0.712622 -0.11473
C_ C_ 0.298734 0.908744 0.709366 -0.11473
C_ C_ 0.048784 0.852416 0.785193 -0.11473
C_ C_ 0.307638 0.866938 0.785462 -0.11473
C_ C_ 0.0544472 0.861308 0.709549 -0.11473
C_ C_ 0.316815 0.872345 0.709736 -0.11473
C_ C_ 0.0317948 0.915841 0.752438 -0.02249
C_ C_ 0.285202 0.922478 0.74549 -0.02249
C_ C_ 0.0814001 0.803607 0.749255 0.6875
C_ C_ 0.340183 0.811846 0.754432 0.6875
C_ C_ 0.0383927 0.893717 0.789196 -0.11473
C_ C_ 0.29192 0.904838 0.784569 -0.11473
C_ C_ 0.185503 0.843422 0.74899 -0.02249
C_ C_ 0.433286 0.844621 0.750977 -0.02249
C_ C_ 0.234539 0.960793 0.745021 -0.02249
C_ C_ 0.484415 0.960975 0.737837 -0.02249
C_ C_ 0.215164 0.898045 0.784988 -0.11473
C_ C_ 0.463323 0.901809 0.781878 -0.11473
C_ C_ 0.192458 0.864573 0.709836 -0.11473
C_ C_ 0.438525 0.862693 0.710646 -0.11473
C_ C_ 0.200063 0.860596 0.786377 -0.11473
C_ C_ 0.446805 0.865697 0.785975 -0.11473
C_ C_ 0.218466 0.919688 0.746175 -0.02249
C_ C_ 0.468273 0.918454 0.741708 -0.02249
C_ C_ 0.165417 0.80562 0.75181 0.6875
C_ C_ 0.415196 0.804845 0.752599 0.6875
C_ C_ 0.209122 0.901566 0.708857 -0.11473
C_ C_ 0.455278 0.900476 0.705815 -0.11473
C_ C_ 0.183153 0.65249 0.750227 -0.02249
C_ C_ 0.437602 0.652627 0.745725 -0.02249
C_ C_ 0.23849 0.540909 0.758029 -0.02249
C_ C_ 0.485126 0.536446 0.745077 -0.02249
C_ C_ 0.207889 0.596384 0.792703 -0.11473
C_ C_ 0.457219 0.591738 0.781739 -0.11473
C_ C_ 0.19808 0.635031 0.715 -0.11473
C_ C_ 0.450183 0.637748 0.707793 -0.11473
C_ C_ 0.191205 0.633492 0.789518 -0.11473
C_ C_ 0.439943 0.628319 0.781799 -0.11473
C_ C_ 0.22248 0.581196 0.757332 -0.02249
C_ C_ 0.46931 0.576387 0.744433 -0.02249
C_ C_ 0.161808 0.689238 0.748203 0.6875
C_ C_ 0.414612 0.68783 0.74686 0.6875
C_ C_ 0.215832 0.598423 0.718311 -0.11473
C_ C_ 0.468429 0.601723 0.708336 -0.11473
C_ C_ 0.0612494 0.652809 0.741703 -0.02249
C_ C_ 0.319979 0.654755 0.758463 -0.02249
C_ C_ 0.0119474 0.537465 0.747257 -0.02249
C_ C_ 0.271087 0.538601 0.75697 -0.02249
C_ C_ 0.0391273 0.593374 0.706215 -0.11473
C_ C_ 0.300694 0.591675 0.719699 -0.11473
C_ C_ 0.0490312 0.638943 0.779466 -0.11473
C_ C_ 0.312793 0.633306 0.795693 -0.11473
C_ C_ 0.0572726 0.628656 0.705047 -0.11473
C_ C_ 0.316774 0.629911 0.721254 -0.11473
C_ C_ 0.0286286 0.57779 0.745805 -0.02249
C_ C_ 0.289751 0.576071 0.757615 -0.02249
C_ C_ 0.082041 0.688478 0.741692 0.6875
C_ C_ 0.337661 0.691737 0.757203 0.6875
C_ C_ 0.0345211 0.601025 0.781924 -0.11473
C_ C_ 0.300142 0.593513 0.795446 -0.11473
C_ C_ 0.117524 0.780644 0.875964 0.17695
C_ C_ 0.37351 0.778466 0.885157 0.17695
C_ C_ 0.111876 0.708287 0.868508 0.17695
C_ C_ 0.384985 0.708837 0.876347 0.17695
C_ C_ 0.114154 0.703454 0.913509 -0.11473
C_ C_ 0.380915 0.699222 0.919361 -0.11473
C_ C_ 0.116835 0.738323 0.939043 0.23465
C_ C_ 0.375614 0.733647 0.946658 0.23465
C_ C_ 0.117209 0.776364 0.919228 -0.11473
C_ C_ 0.371618 0.773967 0.928871 -0.11473
C_ C_ 0.146265 0.765948 0.623948 0.17695
C_ C_ 0.380703 0.788089 0.630237 0.17695
C_ C_ 0.0981869 0.732483 0.615523 0.17695
C_ C_ 0.364288 0.718615 0.627121 0.17695
C_ C_ 0.0985114 0.738445 0.571636 -0.11473
C_ C_ 0.36363 0.720026 0.582829 -0.11473
C_ C_ 0.123618 0.755463 0.552492 0.23465
C_ C_ 0.372339 0.757399 0.560943 0.23465
C_ C_ 0.147801 0.772423 0.579627 -0.11473
C_ C_ 0.380658 0.791182 0.586459 -0.11473
C_ C_ 0.029734 -0.005530999999999953 0.756741 0.05793
C_ C_ 0.280257 0.00167261 0.742231 0.05793
C_ C_ 0.221877 0.502508 0.759212 0.05793
C_ C_ 0.469939 0.498286 0.746942 0.05793
Br Br 0.0725144 -0.0035800000000000276 0.767844 -0.17191
Br Br 0.322791 -0.000106705 0.72903 -0.17191
Br Br 0.17982 0.506948 0.75544 -0.17191
Br Br 0.427359 0.498876 0.743515 -0.17191
N_ N_ 0.118318 0.746851 0.851432 -0.272
N_ N_ 0.378104 0.746769 0.859714 -0.272
N_ N_ 0.115867 0.732899 0.983375 -0.12501
N_ N_ 0.378231 0.730949 0.992656 -0.12501
N_ N_ 0.120984 0.748804 0.640336 -0.272
N_ N_ 0.373794 0.753147 0.649101 -0.272
N_ N_ 0.125706 0.763791 0.508475 -0.12501
N_ N_ 0.371643 0.762694 0.516038 -0.12501
O_ O_ 0.0883352 0.784833 0.715505 -0.60745
O_ O_ 0.346458 0.793516 0.720743 -0.60745
O_ O_ 0.0950847 0.794896 0.782797 -0.60745
O_ O_ 0.343984 0.79439 0.789096 -0.60745
O_ O_ 0.157552 0.790365 0.787406 -0.60745
O_ O_ 0.406435 0.789615 0.788053 -0.60745
O_ O_ 0.150861 0.795181 0.718371 -0.60745
O_ O_ 0.404669 0.790389 0.71935 -0.60745
O_ O_ 0.150587 0.704115 0.780761 -0.60745
O_ O_ 0.407393 0.703449 0.781462 -0.60745
O_ O_ 0.157791 0.707865 0.713591 -0.60745
O_ O_ 0.408114 0.705904 0.71314 -0.60745
O_ O_ 0.0931391 0.698422 0.70718 -0.60745
O_ O_ 0.346368 0.70437 0.721106 -0.60745
O_ O_ 0.0890223 0.70852 0.775198 -0.60745
O_ O_ 0.345543 0.70934 0.790353 -0.60745
Zn Zn 0.622621 0.247449 0.284005 0.9476
Zn Zn 0.881519 0.25443 0.292818 0.9476
Zn Zn 0.620084 0.247888 0.214662 0.9476
Zn Zn 0.877398 0.250521 0.221016 0.9476
H_ H_ 0.515163 0.395707 0.188163 0.10932
H_ H_ 0.787678 0.418521 0.187443 0.10932
H_ H_ 0.580696 0.367959 0.308677 0.10932
H_ H_ 0.805688 0.340633 0.317784 0.10932
H_ H_ 0.536473 0.328816 0.198225 0.10932
H_ H_ 0.829588 0.368668 0.189582 0.10932
H_ H_ 0.561718 0.436886 0.299861 0.10932
H_ H_ 0.78007 0.412596 0.320683 0.10932
H_ H_ 0.717627 0.411779 0.31612 0.10932
H_ H_ 0.973779 0.420058 0.314253 0.10932
H_ H_ 0.669945 0.366018 0.184113 0.10932
H_ H_ 0.932864 0.354632 0.186986 0.10932
H_ H_ 0.691197 0.351445 0.315017 0.10932
H_ H_ 0.940609 0.359674 0.321817 0.10932
H_ H_ 0.713049 0.419792 0.183496 0.10932
H_ H_ 0.962654 0.415636 0.178264 0.10932
H_ H_ 0.70118 0.0737218 0.317442 0.10932
H_ H_ 0.968502 0.0784079 0.314948 0.10932
H_ H_ 0.694174 0.160791 0.191312 0.10932
H_ H_ 0.936187 0.149383 0.184704 0.10932
H_ H_ 0.670697 0.13462 0.318346 0.10932
H_ H_ 0.941267 0.148239 0.319607 0.10932
H_ H_ 0.728924 0.103639 0.188433 0.10932
H_ H_ 0.971067 0.0920878 0.182523 0.10932
H_ H_ 0.538129 0.0701653 0.186293 0.10932
H_ H_ 0.786451 0.0891889 0.180555 0.10932
H_ H_ 0.559962 0.151332 0.31651 0.10932
H_ H_ 0.811329 0.155655 0.317858 0.10932
H_ H_ 0.568202 0.132121 0.182457 0.10932
H_ H_ 0.822231 0.148229 0.182912 0.10932
H_ H_ 0.537167 0.0792099 0.32105 0.10932
H_ H_ 0.791878 0.084537 0.317925 0.10932
H_ H_ 0.620412 0.185235 0.366957 0.10932
H_ H_ 0.876108 0.188288 0.35856 0.10932
H_ H_ 0.611601 0.314732 0.353538 0.10932
H_ H_ 0.8886 0.314382 0.376193 0.10932
H_ H_ 0.609115 0.31655 0.43553 0.10932
H_ H_ 0.881906 0.306484 0.453299 0.10932
H_ H_ 0.629391 0.190083 0.442047 0.10932
H_ H_ 0.87739 0.175132 0.434922 0.10932
H_ H_ 0.645127 0.187802 0.147837 0.10932
H_ H_ 0.828631 0.257261 0.148344 0.10932
H_ H_ 0.604658 0.305751 0.135274 0.10932
H_ H_ 0.923689 0.253363 0.142601 0.10932
H_ H_ 0.601598 0.296059 0.0587578 0.10932
H_ H_ 0.920982 0.265501 0.0674182 0.10932
H_ H_ 0.645562 0.180237 0.066921 0.10932
H_ H_ 0.823553 0.260388 0.0737275 0.10932
C_ C_ 0.563227 0.344333 0.250182 -0.02249
C_ C_ 0.820404 0.348824 0.254441 -0.02249
C_ C_ 0.518452 0.464023 0.243138 -0.02249
C_ C_ 0.767435 0.460154 0.250499 -0.02249
C_ C_ 0.527017 0.390916 0.216489 -0.11473
C_ C_ 0.795712 0.405074 0.216236 -0.11473
C_ C_ 0.570261 0.376213 0.27748 -0.11473
C_ C_ 0.805407 0.361335 0.290119 -0.11473
C_ C_ 0.541551 0.353932 0.21791 -0.11473
C_ C_ 0.818367 0.373882 0.21729 -0.11473
C_ C_ 0.534371 0.423186 0.244239 -0.02249
C_ C_ 0.782737 0.419235 0.253857 -0.02249
C_ C_ 0.582119 0.306402 0.247804 0.6875
C_ C_ 0.838 0.308865 0.255256 0.6875
C_ C_ 0.557275 0.4151 0.273701 -0.11473
C_ C_ 0.78709 0.397545 0.290474 -0.11473
C_ C_ 0.68199 0.347058 0.247908 -0.02249
C_ C_ 0.937086 0.351425 0.253891 -0.02249
C_ C_ 0.734474 0.461004 0.2495 -0.02249
C_ C_ 0.984869 0.463668 0.243339 -0.02249
C_ C_ 0.710788 0.400457 0.28584 -0.11473
C_ C_ 0.965906 0.405326 0.285184 -0.11473
C_ C_ 0.685223 0.370572 0.210874 -0.11473
C_ C_ 0.944876 0.366522 0.215033 -0.11473
C_ C_ 0.692742 0.364981 0.286216 -0.11473
C_ C_ 0.947031 0.371093 0.290582 -0.11473
C_ C_ 0.716482 0.420447 0.249317 -0.02249
C_ C_ 0.968211 0.424246 0.246253 -0.02249
C_ C_ 0.660193 0.31003 0.249385 0.6875
C_ C_ 0.919839 0.31189 0.2569 0.6875
C_ C_ 0.704432 0.405727 0.212122 -0.11473
C_ C_ 0.959911 0.402525 0.210181 -0.11473
C_ C_ 0.680228 0.150881 0.255546 -0.02249
C_ C_ 0.93812 0.156156 0.252319 -0.02249
C_ C_ 0.736202 0.0444867 0.247766 -0.02249
C_ C_ 0.986232 0.0388983 0.245081 -0.02249
C_ C_ 0.701107 0.092367 0.289391 -0.11473
C_ C_ 0.962061 0.096752 0.287663 -0.11473
C_ C_ 0.697265 0.142243 0.21884 -0.11473
C_ C_ 0.945866 0.137652 0.214583 -0.11473
C_ C_ 0.684927 0.128474 0.29284 -0.11473
C_ C_ 0.946951 0.134975 0.290322 -0.11473
C_ C_ 0.71785 0.082869 0.252298 -0.02249
C_ C_ 0.970782 0.0804402 0.248583 -0.02249
C_ C_ 0.662068 0.190263 0.256125 0.6875
C_ C_ 0.919799 0.196272 0.253244 0.6875
C_ C_ 0.716282 0.109111 0.21795 -0.11473
C_ C_ 0.96343 0.10206 0.212958 -0.11473
C_ C_ 0.565236 0.145042 0.248335 -0.02249
C_ C_ 0.818713 0.15785 0.250342 -0.02249
C_ C_ 0.515593 0.0335512 0.25947 -0.02249
C_ C_ 0.768354 0.0431063 0.246006 -0.02249
C_ C_ 0.544877 0.0845953 0.214607 -0.11473
C_ C_ 0.795847 0.0996312 0.210185 -0.11473
C_ C_ 0.556723 0.130566 0.28841 -0.11473
C_ C_ 0.80842 0.14028 0.288516 -0.11473
C_ C_ 0.561545 0.120324 0.212574 -0.11473
C_ C_ 0.81211 0.134978 0.212108 -0.11473
C_ C_ 0.534323 0.0710567 0.254088 -0.02249
C_ C_ 0.787213 0.081676 0.248509 -0.02249
C_ C_ 0.584195 0.185678 0.245359 0.6875
C_ C_ 0.839576 0.194261 0.250354 0.6875
C_ C_ 0.541899 0.0925508 0.291001 -0.11473
C_ C_ 0.79291 0.10258 0.287016 -0.11473
C_ C_ 0.621937 0.216738 0.380247 0.17695
C_ C_ 0.879431 0.213541 0.378285 0.17695
C_ C_ 0.614287 0.289036 0.374781 0.17695
C_ C_ 0.884043 0.284951 0.388044 0.17695
C_ C_ 0.616197 0.291095 0.419365 -0.11473
C_ C_ 0.885136 0.279016 0.432003 -0.11473
C_ C_ 0.622447 0.25661 0.445005 0.23465
C_ C_ 0.884878 0.23802 0.448329 0.23465
C_ C_ 0.62679 0.218406 0.423879 -0.11473
C_ C_ 0.880421 0.205573 0.421192 -0.11473
C_ C_ 0.636817 0.211708 0.127054 0.17695
C_ C_ 0.849241 0.255954 0.1305 0.17695
C_ C_ 0.615518 0.278483 0.121822 0.17695
C_ C_ 0.902037 0.252118 0.126969 0.17695
C_ C_ 0.614781 0.275367 0.0776034 -0.11473
C_ C_ 0.900079 0.262987 0.0845166 -0.11473
C_ C_ 0.624167 0.239999 0.0567857 0.23465
C_ C_ 0.872316 0.26287 0.0633789 0.23465
C_ C_ 0.637628 0.208038 0.0830521 -0.11473
C_ C_ 0.846446 0.2628 0.0877835 -0.11473
C_ C_ 0.535167 0.499358 0.237473 0.05793
C_ C_ 0.782707 0.499248 0.252935 0.05793
C_ C_ 0.720602 1.00672642 0.244967 0.05793
C_ C_ 0.96878 1.0029387 0.244438 0.05793
Br Br 0.575056 0.499572 0.212551 -0.17191
Br Br 0.826379 0.499525 0.24776 -0.17191
Br Br 0.677745 0.00872873 0.237041 -0.17191
Br Br 0.925329 0.0044537 0.239823 -0.17191
N_ N_ 0.619803 0.251232 0.356842 -0.272
N_ N_ 0.882892 0.251878 0.362828 -0.272
N_ N_ 0.6255 0.261236 0.490495 -0.12501
N_ N_ 0.88162 0.22893 0.492054 -0.12501
N_ N_ 0.62572 0.247154 0.145245 -0.272
N_ N_ 0.876312 0.254323 0.150203 -0.272
N_ N_ 0.618824 0.232937 0.0117196 -0.12501
N_ N_ 0.869674 0.266332 0.018214 -0.12501
O_ O_ 0.584977 0.286605 0.211461 -0.60745
O_ O_ 0.847714 0.295423 0.22114 -0.60745
O_ O_ 0.593119 0.291919 0.281049 -0.60745
O_ O_ 0.845186 0.291867 0.288874 -0.60745
O_ O_ 0.654291 0.294155 0.285311 -0.60745
O_ O_ 0.910019 0.301374 0.291967 -0.60745
O_ O_ 0.647567 0.295654 0.215854 -0.60745
O_ O_ 0.912277 0.293329 0.223397 -0.60745
O_ O_ 0.655762 0.207477 0.291523 -0.60745
O_ O_ 0.917625 0.216454 0.28767 -0.60745
O_ O_ 0.656266 0.20956 0.222701 -0.60745
O_ O_ 0.903428 0.205808 0.221182 -0.60745
O_ O_ 0.593785 0.199211 0.2102 -0.60745
O_ O_ 0.844402 0.213454 0.217313 -0.60745
O_ O_ 0.591163 0.204991 0.279527 -0.60745
O_ O_ 0.853959 0.204932 0.284795 -0.60745
Zn Zn 0.622362 0.24838 0.787191 0.9476
Zn Zn 0.876624 0.247096 0.792571 0.9476
Zn Zn 0.623039 0.24683 0.715928 0.9476
Zn Zn 0.874501 0.246473 0.720277 0.9476
H_ H_ 0.517567 0.406767 0.683516 0.10932
H_ H_ 0.773811 0.402963 0.689511 0.10932
H_ H_ 0.572041 0.356333 0.80984 0.10932
H_ H_ 0.811536 0.344459 0.823096 0.10932
H_ H_ 0.544306 0.338165 0.679378 0.10932
H_ H_ 0.801738 0.339074 0.687747 0.10932
H_ H_ 0.546262 0.424007 0.807788 0.10932
H_ H_ 0.787996 0.416345 0.824735 0.10932
H_ H_ 0.722996 0.406071 0.820413 0.10932
H_ H_ 0.973632 0.412926 0.811608 0.10932
H_ H_ 0.672766 0.360258 0.686878 0.10932
H_ H_ 0.927407 0.350266 0.685081 0.10932
H_ H_ 0.692796 0.345583 0.820361 0.10932
H_ H_ 0.939189 0.353937 0.81922 0.10932
H_ H_ 0.707995 0.42291 0.689288 0.10932
H_ H_ 0.952555 0.413874 0.680168 0.10932
H_ H_ 0.721379 0.08773 0.824855 0.10932
H_ H_ 0.962611 0.0716361 0.815357 0.10932
H_ H_ 0.676173 0.141959 0.692892 0.10932
H_ H_ 0.935051 0.144202 0.681558 0.10932
H_ H_ 0.691748 0.148666 0.828863 0.10932
H_ H_ 0.939325 0.14429 0.819113 0.10932
H_ H_ 0.701336 0.0725352 0.693834 0.10932
H_ H_ 0.966021 0.0851785 0.677697 0.10932
H_ H_ 0.54115 0.0749435 0.682546 0.10932
H_ H_ 0.767303 0.093177 0.694841 0.10932
H_ H_ 0.54805 0.161652 0.812162 0.10932
H_ H_ 0.833884 0.122575 0.815993 0.10932
H_ H_ 0.574291 0.136976 0.685531 0.10932
H_ H_ 0.799672 0.156954 0.692645 0.10932
H_ H_ 0.518568 0.0957357 0.815171 0.10932
H_ H_ 0.806947 0.0578936 0.816177 0.10932
H_ H_ 0.630981 0.318725 0.858183 0.10932
H_ H_ 0.922843 0.268926 0.857716 0.10932
H_ H_ 0.607882 0.192079 0.861453 0.10932
H_ H_ 0.834644 0.228785 0.875706 0.10932
H_ H_ 0.598027 0.197563 0.93689 0.10932
H_ H_ 0.840541 0.236968 0.953135 0.10932
H_ H_ 0.620426 0.323335 0.934042 0.10932
H_ H_ 0.930851 0.277151 0.932521 0.10932
H_ H_ 0.629184 0.179915 0.647751 0.10932
H_ H_ 0.9179 0.231018 0.648794 0.10932
H_ H_ 0.614054 0.30693 0.643056 0.10932
H_ H_ 0.830007 0.272204 0.640167 0.10932
H_ H_ 0.611399 0.30837 0.559972 0.10932
H_ H_ 0.83215 0.274583 0.566069 0.10932
H_ H_ 0.624224 0.175012 0.572204 0.10932
H_ H_ 0.922121 0.228905 0.572776 0.10932
C_ C_ 0.561709 0.342893 0.743336 -0.02249
C_ C_ 0.811734 0.339829 0.756535 -0.02249
C_ C_ 0.517384 0.460033 0.744434 -0.02249
C_ C_ 0.764467 0.457075 0.75558 -0.02249
C_ C_ 0.530073 0.394295 0.708507 -0.11473
C_ C_ 0.782821 0.392941 0.718802 -0.11473
C_ C_ 0.561196 0.367427 0.779904 -0.11473
C_ C_ 0.8052 0.358505 0.794702 -0.11473
C_ C_ 0.54475 0.355507 0.706973 -0.11473
C_ C_ 0.798335 0.354965 0.71917 -0.11473
C_ C_ 0.532579 0.419687 0.743918 -0.02249
C_ C_ 0.781054 0.416622 0.755875 -0.02249
C_ C_ 0.58329 0.306742 0.744843 0.6875
C_ C_ 0.833863 0.304535 0.755452 0.6875
C_ C_ 0.545039 0.403065 0.781559 -0.11473
C_ C_ 0.791257 0.399567 0.794861 -0.11473
C_ C_ 0.682429 0.347363 0.75288 -0.02249
C_ C_ 0.929367 0.349321 0.753531 -0.02249
C_ C_ 0.732953 0.458909 0.756808 -0.02249
C_ C_ 0.981802 0.461449 0.740716 -0.02249
C_ C_ 0.710947 0.397653 0.791911 -0.11473
C_ C_ 0.963752 0.399848 0.78335 -0.11473
C_ C_ 0.683642 0.371081 0.71709 -0.11473
C_ C_ 0.935127 0.365319 0.713087 -0.11473
C_ C_ 0.69555 0.361525 0.79003 -0.11473
C_ C_ 0.944333 0.366186 0.787444 -0.11473
C_ C_ 0.713963 0.421277 0.754583 -0.02249
C_ C_ 0.966191 0.419437 0.744535 -0.02249
C_ C_ 0.661261 0.311342 0.754516 0.6875
C_ C_ 0.91326 0.308368 0.755396 0.6875
C_ C_ 0.702501 0.406714 0.71653 -0.11473
C_ C_ 0.950507 0.403238 0.711119 -0.11473
C_ C_ 0.681287 0.15052 0.759687 -0.02249
C_ C_ 0.9313 0.146424 0.750495 -0.02249
C_ C_ 0.732447 0.0370974 0.759422 -0.02249
C_ C_ 0.983338 0.0340616 0.746898 -0.02249
C_ C_ 0.716227 0.102342 0.795048 -0.11473
C_ C_ 0.957828 0.0895845 0.786501 -0.11473
C_ C_ 0.686591 0.129365 0.72218 -0.11473
C_ C_ 0.940423 0.130225 0.711611 -0.11473
C_ C_ 0.696067 0.135535 0.796767 -0.11473
C_ C_ 0.941885 0.127732 0.789041 -0.11473
C_ C_ 0.717709 0.0775386 0.758188 -0.02249
C_ C_ 0.966584 0.0743433 0.747383 -0.02249
C_ C_ 0.663214 0.189549 0.757797 0.6875
C_ C_ 0.913528 0.186693 0.75159 0.6875
C_ C_ 0.703087 0.0918013 0.722389 -0.11473
C_ C_ 0.958248 0.0942735 0.710074 -0.11473
C_ C_ 0.561898 0.1524 0.749464 -0.02249
C_ C_ 0.81655 0.148225 0.757315 -0.02249
C_ C_ 0.513175 0.0391188 0.749602 -0.02249
C_ C_ 0.763275 0.0351943 0.756321 -0.02249
C_ C_ 0.542354 0.0920913 0.71109 -0.11473
C_ C_ 0.783014 0.0989794 0.720668 -0.11473
C_ C_ 0.544193 0.143029 0.783209 -0.11473
C_ C_ 0.820948 0.11793 0.788999 -0.11473
C_ C_ 0.561529 0.125744 0.713695 -0.11473
C_ C_ 0.798516 0.137675 0.721561 -0.11473
C_ C_ 0.52918 0.0789437 0.749018 -0.02249
C_ C_ 0.782589 0.0727812 0.756356 -0.02249
C_ C_ 0.58284 0.189236 0.748746 0.6875
C_ C_ 0.837566 0.183894 0.758635 0.6875
C_ C_ 0.529234 0.10487 0.784439 -0.11473
C_ C_ 0.803365 0.0809938 0.789321 -0.11473
C_ C_ 0.626256 0.291653 0.87624 0.17695
C_ C_ 0.905206 0.262101 0.877625 0.17695
C_ C_ 0.611795 0.221252 0.877157 0.17695
C_ C_ 0.854875 0.241474 0.889065 0.17695
C_ C_ 0.606415 0.224585 0.92048 -0.11473
C_ C_ 0.858676 0.245457 0.932265 -0.11473
C_ C_ 0.615384 0.259639 0.942065 0.23465
C_ C_ 0.8866 0.256656 0.949027 0.23465
C_ C_ 0.620396 0.294477 0.919404 -0.11473
C_ C_ 0.909255 0.268588 0.920157 -0.11473
C_ C_ 0.622832 0.205776 0.628902 0.17695
C_ C_ 0.899127 0.240976 0.631262 0.17695
C_ C_ 0.615106 0.279551 0.624088 0.17695
C_ C_ 0.848333 0.256456 0.62733 0.17695
C_ C_ 0.615162 0.280647 0.57929 -0.11473
C_ C_ 0.849285 0.259142 0.583039 -0.11473
C_ C_ 0.617096 0.241511 0.55855 0.23465
C_ C_ 0.875234 0.24941 0.562622 0.23465
C_ C_ 0.619558 0.205271 0.584017 -0.11473
C_ C_ 0.900614 0.23922 0.586791 -0.11473
C_ C_ 0.533122 0.49906 0.746193 0.05793
C_ C_ 0.780344 0.496646 0.752214 0.05793
C_ C_ 0.717297 0.000580726 0.766549 0.05793
C_ C_ 0.96793 -0.004033999999999982 0.74603 0.05793
Br Br 0.575589 0.500626 0.747324 -0.17191
Br Br 0.822333 0.501215 0.738769 -0.17191
Br Br 0.675142 0.00579976 0.77717 -0.17191
Br Br 0.926524 -0.0023060000000000302 0.730582 -0.17191
N_ N_ 0.620486 0.255612 0.855226 -0.272
N_ N_ 0.87756 0.251839 0.861839 -0.272
N_ N_ 0.614313 0.262556 0.986985 -0.12501
N_ N_ 0.890615 0.256313 0.994046 -0.12501
N_ N_ 0.620295 0.244672 0.6466 -0.272
N_ N_ 0.873103 0.249885 0.651053 -0.272
N_ N_ 0.61365 0.236332 0.514289 -0.12501
N_ N_ 0.877495 0.256632 0.519183 -0.12501
O_ O_ 0.59069 0.289622 0.711072 -0.60745
O_ O_ 0.84266 0.289982 0.721649 -0.60745
O_ O_ 0.593171 0.291511 0.7797 -0.60745
O_ O_ 0.841206 0.288682 0.789871 -0.60745
O_ O_ 0.653064 0.294404 0.789467 -0.60745
O_ O_ 0.906976 0.293485 0.790829 -0.60745
O_ O_ 0.651242 0.294743 0.721636 -0.60745
O_ O_ 0.90736 0.287982 0.721565 -0.60745
O_ O_ 0.654397 0.206088 0.792262 -0.60745
O_ O_ 0.90801 0.202404 0.786596 -0.60745
O_ O_ 0.655318 0.205628 0.721928 -0.60745
O_ O_ 0.904049 0.20368 0.717525 -0.60745
O_ O_ 0.594429 0.200773 0.715405 -0.60745
O_ O_ 0.845641 0.20155 0.725545 -0.60745
O_ O_ 0.593455 0.203933 0.783211 -0.60745
O_ O_ 0.844776 0.200777 0.794419 -0.60745
Zn Zn 0.62736 0.750127 0.284717 0.9476
Zn Zn 0.870644 0.74863 0.285652 0.9476
Zn Zn 0.625036 0.753615 0.216374 0.9476
Zn Zn 0.871057 0.752168 0.215294 0.9476
H_ H_ 0.523515 0.909393 0.194643 0.10932
H_ H_ 0.774088 0.91627 0.185685 0.10932
H_ H_ 0.556295 0.848055 0.327824 0.10932
H_ H_ 0.819988 0.860557 0.319864 0.10932
H_ H_ 0.551697 0.844256 0.193199 0.10932
H_ H_ 0.802712 0.850993 0.183486 0.10932
H_ H_ 0.534504 0.916481 0.32614 0.10932
H_ H_ 0.791614 0.925693 0.319157 0.10932
H_ H_ 0.722321 0.918375 0.316952 0.10932
H_ H_ 0.954963 0.928609 0.312717 0.10932
H_ H_ 0.674769 0.866183 0.18733 0.10932
H_ H_ 0.935707 0.846511 0.185947 0.10932
H_ H_ 0.693854 0.851659 0.318593 0.10932
H_ H_ 0.932824 0.861272 0.320678 0.10932
H_ H_ 0.701608 0.931781 0.181283 0.10932
H_ H_ 0.96905 0.909483 0.182653 0.10932
H_ H_ 0.728931 0.593384 0.310303 0.10932
H_ H_ 0.960883 0.577107 0.309989 0.10932
H_ H_ 0.67494 0.636764 0.18067 0.10932
H_ H_ 0.931582 0.652692 0.181019 0.10932
H_ H_ 0.698612 0.654863 0.308753 0.10932
H_ H_ 0.928046 0.636882 0.315107 0.10932
H_ H_ 0.706829 0.574377 0.181255 0.10932
H_ H_ 0.958871 0.583703 0.178457 0.10932
H_ H_ 0.532799 0.586442 0.18106 0.10932
H_ H_ 0.78365 0.579787 0.181364 0.10932
H_ H_ 0.572017 0.642031 0.316004 0.10932
H_ H_ 0.811565 0.649487 0.315493 0.10932
H_ H_ 0.560318 0.651428 0.17894 0.10932
H_ H_ 0.811566 0.642975 0.178936 0.10932
H_ H_ 0.546807 0.574121 0.312324 0.10932
H_ H_ 0.782323 0.58689 0.31594 0.10932
H_ H_ 0.636956 0.687717 0.353775 0.10932
H_ H_ 0.822818 0.768346 0.359053 0.10932
H_ H_ 0.627549 0.816112 0.364142 0.10932
H_ H_ 0.914499 0.725242 0.361192 0.10932
H_ H_ 0.628551 0.810974 0.442404 0.10932
H_ H_ 0.914756 0.728594 0.439715 0.10932
H_ H_ 0.652498 0.686383 0.430949 0.10932
H_ H_ 0.823175 0.766306 0.436305 0.10932
H_ H_ 0.572813 0.757222 0.14687 0.10932
H_ H_ 0.873194 0.690281 0.137003 0.10932
H_ H_ 0.669087 0.761205 0.138907 0.10932
H_ H_ 0.875605 0.820024 0.142361 0.10932
H_ H_ 0.664048 0.762772 0.0658785 0.10932
H_ H_ 0.8753 0.823061 0.0646055 0.10932
H_ H_ 0.566864 0.76421 0.0730874 0.10932
H_ H_ 0.879919 0.69447 0.0595469 0.10932
C_ C_ 0.563556 0.8445 0.259511 -0.02249
C_ C_ 0.815354 0.85245 0.250241 -0.02249
C_ C_ 0.512893 0.958576 0.260587 -0.02249
C_ C_ 0.76682 0.965852 0.251477 -0.02249
C_ C_ 0.535907 0.898593 0.223163 -0.11473
C_ C_ 0.784779 0.904998 0.213842 -0.11473
C_ C_ 0.55377 0.86236 0.297973 -0.11473
C_ C_ 0.809261 0.871686 0.289872 -0.11473
C_ C_ 0.551825 0.86127 0.222046 -0.11473
C_ C_ 0.799817 0.86601 0.213435 -0.11473
C_ C_ 0.528715 0.916675 0.260119 -0.02249
C_ C_ 0.781685 0.925159 0.252064 -0.02249
C_ C_ 0.584265 0.807412 0.255894 0.6875
C_ C_ 0.831699 0.811517 0.251034 0.6875
C_ C_ 0.540643 0.900796 0.296233 -0.11473
C_ C_ 0.793959 0.909698 0.289238 -0.11473
C_ C_ 0.685537 0.851583 0.252257 -0.02249
C_ C_ 0.933912 0.845805 0.255001 -0.02249
C_ C_ 0.735475 0.96857 0.250558 -0.02249
C_ C_ 0.983141 0.963195 0.245538 -0.02249
C_ C_ 0.712118 0.90675 0.286921 -0.11473
C_ C_ 0.953773 0.909955 0.28701 -0.11473
C_ C_ 0.685644 0.877623 0.215737 -0.11473
C_ C_ 0.943367 0.861363 0.214721 -0.11473
C_ C_ 0.697861 0.86817 0.287866 -0.11473
C_ C_ 0.939928 0.870581 0.290384 -0.11473
C_ C_ 0.717214 0.928218 0.248065 -0.02249
C_ C_ 0.963863 0.92456 0.248103 -0.02249
C_ C_ 0.665092 0.81475 0.249621 0.6875
C_ C_ 0.91069 0.810649 0.255872 0.6875
C_ C_ 0.701025 0.914808 0.212921 -0.11473
C_ C_ 0.958696 0.899472 0.212358 -0.11473
C_ C_ 0.679972 0.649798 0.247503 -0.02249
C_ C_ 0.928689 0.651802 0.247501 -0.02249
C_ C_ 0.73689 0.536687 0.243051 -0.02249
C_ C_ 0.98245 0.538987 0.24215 -0.02249
C_ C_ 0.7178 0.603269 0.281469 -0.11473
C_ C_ 0.956661 0.595164 0.281016 -0.11473
C_ C_ 0.686584 0.628696 0.208555 -0.11473
C_ C_ 0.94066 0.638734 0.208891 -0.11473
C_ C_ 0.698204 0.636997 0.281629 -0.11473
C_ C_ 0.938819 0.631205 0.284545 -0.11473
C_ C_ 0.720675 0.578044 0.24482 -0.02249
C_ C_ 0.964081 0.578473 0.24296 -0.02249
C_ C_ 0.664097 0.691833 0.248955 0.6875
C_ C_ 0.909086 0.690674 0.247918 0.6875
C_ C_ 0.707075 0.593397 0.207724 -0.11473
C_ C_ 0.955063 0.599979 0.206136 -0.11473
C_ C_ 0.569136 0.653486 0.248661 -0.02249
C_ C_ 0.818195 0.649775 0.246542 -0.02249
C_ C_ 0.521348 0.538133 0.247798 -0.02249
C_ C_ 0.767743 0.5371 0.252586 -0.02249
C_ C_ 0.543173 0.599747 0.209377 -0.11473
C_ C_ 0.791836 0.593166 0.211424 -0.11473
C_ C_ 0.565816 0.628806 0.286019 -0.11473
C_ C_ 0.80647 0.635401 0.284653 -0.11473
C_ C_ 0.558531 0.637562 0.209764 -0.11473
C_ C_ 0.805434 0.631471 0.209769 -0.11473
C_ C_ 0.538033 0.576705 0.24606 -0.02249
C_ C_ 0.783922 0.575614 0.24954 -0.02249
C_ C_ 0.585177 0.692907 0.25026 0.6875
C_ C_ 0.836886 0.686312 0.244754 0.6875
C_ C_ 0.549503 0.591336 0.284204 -0.11473
C_ C_ 0.790952 0.598415 0.285434 -0.11473
C_ C_ 0.634906 0.715113 0.374956 0.17695
C_ C_ 0.844545 0.764785 0.376736 0.17695
C_ C_ 0.63035 0.787062 0.380172 0.17695
C_ C_ 0.893337 0.736503 0.377391 0.17695
C_ C_ 0.631662 0.785376 0.424185 -0.11473
C_ C_ 0.894876 0.738985 0.421428 -0.11473
C_ C_ 0.63475 0.746829 0.443941 0.23465
C_ C_ 0.86928 0.753895 0.443055 0.23465
C_ C_ 0.638697 0.71166 0.418213 -0.11473
C_ C_ 0.843976 0.764862 0.420405 -0.11473
C_ C_ 0.594083 0.761455 0.129499 0.17695
C_ C_ 0.873462 0.719402 0.121578 0.17695
C_ C_ 0.64623 0.760506 0.124478 0.17695
C_ C_ 0.87795 0.792125 0.125454 0.17695
C_ C_ 0.644175 0.763802 0.0812831 -0.11473
C_ C_ 0.875843 0.794417 0.0809603 -0.11473
C_ C_ 0.615543 0.765122 0.0597017 0.23465
C_ C_ 0.874326 0.758092 0.0576032 0.23465
C_ C_ 0.590242 0.763453 0.0857154 -0.11473
C_ C_ 0.87736 0.721404 0.0787363 -0.11473
C_ C_ 0.530154 0.994225 0.255697 0.05793
C_ C_ 0.783363 1.00268548 0.250007 0.05793
C_ C_ 0.719756 0.49945 0.243477 0.05793
C_ C_ 0.968705 0.501382 0.246164 0.05793
Br Br 0.573004 0.990706 0.245406 -0.17191
Br Br 0.825509 0.998508 0.259166 -0.17191
Br Br 0.677496 0.503564 0.256015 -0.17191
Br Br 0.926131 0.498463 0.245392 -0.17191
N_ N_ 0.63128 0.752857 0.356191 -0.272
N_ N_ 0.868115 0.747657 0.356045 -0.272
N_ N_ 0.631291 0.741725 0.487759 -0.12501
N_ N_ 0.866271 0.744685 0.487432 -0.12501
N_ N_ 0.621662 0.757798 0.148644 -0.272
N_ N_ 0.874156 0.754748 0.144012 -0.272
N_ N_ 0.611844 0.762398 0.0156012 -0.12501
N_ N_ 0.878767 0.762028 0.0126886 -0.12501
O_ O_ 0.594015 0.797008 0.22059 -0.60745
O_ O_ 0.837429 0.79232 0.217465 -0.60745
O_ O_ 0.595021 0.78912 0.289834 -0.60745
O_ O_ 0.843533 0.798183 0.285095 -0.60745
O_ O_ 0.656374 0.798368 0.283912 -0.60745
O_ O_ 0.905354 0.790743 0.28892 -0.60745
O_ O_ 0.657807 0.796857 0.214813 -0.60745
O_ O_ 0.897472 0.802321 0.221976 -0.60745
O_ O_ 0.658376 0.708196 0.283657 -0.60745
O_ O_ 0.900393 0.70373 0.283198 -0.60745
O_ O_ 0.656486 0.70939 0.216595 -0.60745
O_ O_ 0.90873 0.715375 0.218126 -0.60745
O_ O_ 0.592639 0.712087 0.216762 -0.60745
O_ O_ 0.849927 0.695942 0.211856 -0.60745
O_ O_ 0.597957 0.704361 0.284143 -0.60745
O_ O_ 0.837806 0.71022 0.276628 -0.60745
Zn Zn 0.626956 0.750807 0.784735 0.9476
Zn Zn 0.873162 0.75009 0.785779 0.9476
Zn Zn 0.625648 0.750377 0.715785 0.9476
Zn Zn 0.86894 0.750961 0.715418 0.9476
H_ H_ 0.539196 0.923505 0.676318 0.10932
H_ H_ 0.775673 0.909808 0.683969 0.10932
H_ H_ 0.566585 0.851782 0.8065 0.10932
H_ H_ 0.823927 0.863131 0.814942 0.10932
H_ H_ 0.565857 0.857964 0.671733 0.10932
H_ H_ 0.796897 0.839945 0.687441 0.10932
H_ H_ 0.537747 0.914116 0.811415 0.10932
H_ H_ 0.792935 0.926064 0.817063 0.10932
H_ H_ 0.71699 0.913421 0.827104 0.10932
H_ H_ 0.963926 0.914955 0.817441 0.10932
H_ H_ 0.675819 0.860196 0.693235 0.10932
H_ H_ 0.936845 0.850848 0.679723 0.10932
H_ H_ 0.69377 0.84526 0.824806 0.10932
H_ H_ 0.931206 0.854828 0.816769 0.10932
H_ H_ 0.704116 0.928314 0.694979 0.10932
H_ H_ 0.963569 0.913638 0.682105 0.10932
H_ H_ 0.709864 0.575222 0.827395 0.10932
H_ H_ 0.963233 0.582975 0.811359 0.10932
H_ H_ 0.685109 0.644258 0.690382 0.10932
H_ H_ 0.920861 0.636847 0.681269 0.10932
H_ H_ 0.684227 0.641817 0.826634 0.10932
H_ H_ 0.938007 0.650142 0.812004 0.10932
H_ H_ 0.7115 0.579638 0.690909 0.10932
H_ H_ 0.953585 0.579719 0.67437 0.10932
H_ H_ 0.537582 0.577433 0.674394 0.10932
H_ H_ 0.775525 0.585196 0.684191 0.10932
H_ H_ 0.561633 0.653626 0.809495 0.10932
H_ H_ 0.82451 0.634475 0.815911 0.10932
H_ H_ 0.561589 0.647625 0.673891 0.10932
H_ H_ 0.806173 0.652148 0.684467 0.10932
H_ H_ 0.537171 0.586161 0.810137 0.10932
H_ H_ 0.800383 0.568181 0.813932 0.10932
H_ H_ 0.667959 0.724178 0.858055 0.10932
H_ H_ 0.877976 0.683114 0.852142 0.10932
H_ H_ 0.583832 0.783659 0.859447 0.10932
H_ H_ 0.870157 0.814889 0.863613 0.10932
H_ H_ 0.585521 0.786072 0.93574 0.10932
H_ H_ 0.859669 0.801882 0.941411 0.10932
H_ H_ 0.673495 0.733269 0.937518 0.10932
H_ H_ 0.876628 0.676597 0.927613 0.10932
H_ H_ 0.631242 0.684082 0.639458 0.10932
H_ H_ 0.864563 0.818558 0.652281 0.10932
H_ H_ 0.642674 0.811462 0.649475 0.10932
H_ H_ 0.879953 0.693357 0.63311 0.10932
H_ H_ 0.656197 0.814182 0.573248 0.10932
H_ H_ 0.871072 0.699539 0.558865 0.10932
H_ H_ 0.636522 0.687132 0.561079 0.10932
H_ H_ 0.855235 0.830905 0.575844 0.10932
C_ C_ 0.568501 0.848296 0.740471 -0.02249
C_ C_ 0.808235 0.841885 0.752683 -0.02249
C_ C_ 0.517542 0.963642 0.742446 -0.02249
C_ C_ 0.762032 0.960728 0.755093 -0.02249
C_ C_ 0.546598 0.907515 0.704904 -0.11473
C_ C_ 0.781942 0.896969 0.714329 -0.11473
C_ C_ 0.556422 0.86302 0.778504 -0.11473
C_ C_ 0.808062 0.868121 0.788287 -0.11473
C_ C_ 0.562763 0.871329 0.703072 -0.11473
C_ C_ 0.795771 0.857792 0.715484 -0.11473
C_ C_ 0.536118 0.922915 0.743286 -0.02249
C_ C_ 0.777782 0.920928 0.752567 -0.02249
C_ C_ 0.587609 0.811043 0.740176 0.6875
C_ C_ 0.828224 0.804483 0.750229 0.6875
C_ C_ 0.539755 0.898852 0.779644 -0.11473
C_ C_ 0.792751 0.905893 0.789023 -0.11473
C_ C_ 0.684538 0.846752 0.759059 -0.02249
C_ C_ 0.927979 0.850555 0.746441 -0.02249
C_ C_ 0.730957 0.962908 0.761892 -0.02249
C_ C_ 0.983119 0.958138 0.749738 -0.02249
C_ C_ 0.711365 0.900743 0.797511 -0.11473
C_ C_ 0.955747 0.903905 0.787065 -0.11473
C_ C_ 0.686901 0.869811 0.72236 -0.11473
C_ C_ 0.939115 0.86647 0.709243 -0.11473
C_ C_ 0.697653 0.861843 0.796464 -0.11473
C_ C_ 0.938465 0.867398 0.785826 -0.11473
C_ C_ 0.712457 0.92508 0.761794 -0.02249
C_ C_ 0.963952 0.920958 0.750596 -0.02249
C_ C_ 0.667244 0.807884 0.758071 0.6875
C_ C_ 0.909513 0.812081 0.748625 0.6875
C_ C_ 0.699635 0.909946 0.723656 -0.11473
C_ C_ 0.956557 0.899875 0.711507 -0.11473
C_ C_ 0.681158 0.646774 0.758315 -0.02249
C_ C_ 0.930068 0.651998 0.74644 -0.02249
C_ C_ 0.733926 0.535161 0.758951 -0.02249
C_ C_ 0.980746 0.536624 0.744625 -0.02249
C_ C_ 0.706572 0.590178 0.798146 -0.11473
C_ C_ 0.958243 0.598581 0.782034 -0.11473
C_ C_ 0.690051 0.628313 0.72151 -0.11473
C_ C_ 0.93272 0.628403 0.708084 -0.11473
C_ C_ 0.690181 0.627558 0.797637 -0.11473
C_ C_ 0.939138 0.633005 0.783417 -0.11473
C_ C_ 0.716524 0.57314 0.759839 -0.02249
C_ C_ 0.96319 0.576404 0.745053 -0.02249
C_ C_ 0.663081 0.685368 0.756854 0.6875
C_ C_ 0.91007 0.690128 0.7477 0.6875
C_ C_ 0.70711 0.591979 0.722285 -0.11473
C_ C_ 0.952185 0.593674 0.706418 -0.11473
C_ C_ 0.566886 0.653565 0.74258 -0.02249
C_ C_ 0.815073 0.649891 0.752242 -0.02249
C_ C_ 0.51658 0.535901 0.74586 -0.02249
C_ C_ 0.764935 0.535038 0.752019 -0.02249
C_ C_ 0.544035 0.59262 0.70453 -0.11473
C_ C_ 0.788061 0.596023 0.712872 -0.11473
C_ C_ 0.556357 0.636478 0.779775 -0.11473
C_ C_ 0.81364 0.626928 0.78741 -0.11473
C_ C_ 0.556956 0.633681 0.703194 -0.11473
C_ C_ 0.803342 0.634567 0.713566 -0.11473
C_ C_ 0.535324 0.575993 0.743912 -0.02249
C_ C_ 0.78359 0.574057 0.750904 -0.02249
C_ C_ 0.586687 0.692916 0.744019 0.6875
C_ C_ 0.833801 0.68821 0.749192 0.6875
C_ C_ 0.540453 0.599711 0.780328 -0.11473
C_ C_ 0.797332 0.588782 0.787634 -0.11473
C_ C_ 0.649545 0.735722 0.875468 0.17695
C_ C_ 0.876039 0.711126 0.872453 0.17695
C_ C_ 0.603416 0.771543 0.875944 0.17695
C_ C_ 0.870256 0.783356 0.87877 0.17695
C_ C_ 0.602982 0.769418 0.921472 -0.11473
C_ C_ 0.868649 0.779838 0.922619 -0.11473
C_ C_ 0.628919 0.757916 0.943736 0.23465
C_ C_ 0.872031 0.740614 0.939478 0.23465
C_ C_ 0.653154 0.741036 0.919715 -0.11473
C_ C_ 0.875411 0.707028 0.91456 -0.11473
C_ C_ 0.634212 0.714185 0.622814 0.17695
C_ C_ 0.864272 0.794358 0.630168 0.17695
C_ C_ 0.639921 0.785276 0.628158 0.17695
C_ C_ 0.874105 0.724114 0.619786 0.17695
C_ C_ 0.645935 0.786753 0.584573 -0.11473
C_ C_ 0.870128 0.727776 0.576594 -0.11473
C_ C_ 0.644919 0.752293 0.559119 0.23465
C_ C_ 0.865314 0.766401 0.558575 0.23465
C_ C_ 0.636369 0.715647 0.578266 -0.11473
C_ C_ 0.860069 0.799972 0.586715 -0.11473
C_ C_ 0.531353 0.003430000000000044 0.745705 0.05793
C_ C_ 0.777467 -0.002599000000000018 0.745944 0.05793
C_ C_ 0.719062 0.496815 0.760744 0.05793
C_ C_ 0.965399 0.498282 0.743578 0.05793
Br Br 0.574645 0.00420419 0.75416 -0.17191
Br Br 0.820508 0.999739 0.731476 -0.17191
Br Br 0.676095 0.498128 0.772005 -0.17191
Br Br 0.923011 0.497771 0.760493 -0.17191
N_ N_ 0.625389 0.751574 0.854737 -0.272
N_ N_ 0.871031 0.749105 0.85527 -0.272
N_ N_ 0.632689 0.764555 0.989534 -0.12501
N_ N_ 0.8713 0.734439 0.985984 -0.12501
N_ N_ 0.634964 0.749128 0.645677 -0.272
N_ N_ 0.872085 0.756776 0.644788 -0.272
N_ N_ 0.648833 0.756315 0.51488 -0.12501
N_ N_ 0.863499 0.773105 0.513899 -0.12501
O_ O_ 0.595143 0.793151 0.706925 -0.60745
O_ O_ 0.834627 0.78798 0.716124 -0.60745
O_ O_ 0.600894 0.799126 0.773412 -0.60745
O_ O_ 0.839047 0.789275 0.784221 -0.60745
O_ O_ 0.659983 0.789752 0.792795 -0.60745
O_ O_ 0.900796 0.799815 0.783432 -0.60745
O_ O_ 0.657962 0.79263 0.722536 -0.60745
O_ O_ 0.898406 0.796445 0.715651 -0.60745
O_ O_ 0.651611 0.698575 0.790327 -0.60745
O_ O_ 0.903038 0.707898 0.784015 -0.60745
O_ O_ 0.65974 0.705192 0.723273 -0.60745
O_ O_ 0.901041 0.707596 0.712821 -0.60745
O_ O_ 0.599768 0.702509 0.710029 -0.60745
O_ O_ 0.838005 0.707179 0.715774 -0.60745
O_ O_ 0.590056 0.715116 0.77714 -0.60745
O_ O_ 0.84316 0.703909 0.784295 -0.60745
_cell_length_a 44.444
_cell_length_b 32.3360000049186
_cell_length_c 31.843999878906452
_cell_angle_alpha 89.99799923859553
_cell_angle_beta 91.13600050494348
_cell_angle_gamma 89.9990006550086
_symmetry_space_group_name_H-M         'P 1'
_symmetry_Int_Tables_number            1
loop_
_symmetry_equiv_pos_as_xyz
   'x, y, z'
                         
loop_
_atom_site_label
_atom_site_type_symbol
_atom_site_fract_x 
_atom_site_fract_y
_atom_site_fract_z
_atom_site_charge
Zn Zn 0.125479 0.250348 0.28285 0.9476
Zn Zn 0.380102 0.252916 0.28605 0.9476
Zn Zn 0.125868 0.253293 0.211336 0.9476
Zn Zn 0.373783 0.253861 0.216513 0.9476
H_ H_ 0.0313706 0.415602 0.181399 0.10932
H_ H_ 0.283029 0.416739 0.183192 0.10932
H_ H_ 0.0690109 0.361656 0.314747 0.10932
H_ H_ 0.301321 0.349119 0.317466 0.10932
H_ H_ 0.0633183 0.353962 0.180482 0.10932
H_ H_ 0.31253 0.353937 0.184553 0.10932
H_ H_ 0.0465383 0.429557 0.313923 0.10932
H_ H_ 0.286336 0.421552 0.318349 0.10932
H_ H_ 0.210044 0.426386 0.310642 0.10932
H_ H_ 0.478776 0.41077 0.312784 0.10932
H_ H_ 0.186683 0.3539 0.175098 0.10932
H_ H_ 0.423363 0.367208 0.187656 0.10932
H_ H_ 0.187277 0.357386 0.313319 0.10932
H_ H_ 0.456038 0.340193 0.310333 0.10932
H_ H_ 0.221586 0.413078 0.17631 0.10932
H_ H_ 0.449947 0.431461 0.187104 0.10932
H_ H_ 0.216789 0.0716688 0.305463 0.10932
H_ H_ 0.486079 0.0986314 0.314561 0.10932
H_ H_ 0.184008 0.143184 0.173839 0.10932
H_ H_ 0.417509 0.127655 0.191964 0.10932
H_ H_ 0.183964 0.134579 0.311406 0.10932
H_ H_ 0.459884 0.164957 0.312246 0.10932
H_ H_ 0.217471 0.0863531 0.171549 0.10932
H_ H_ 0.436954 0.0595997 0.205413 0.10932
H_ H_ 0.0428292 0.0786493 0.179627 0.10932
H_ H_ 0.275075 0.0991095 0.179861 0.10932
H_ H_ 0.0533588 0.151408 0.312577 0.10932
H_ H_ 0.328682 0.128513 0.31498 0.10932
H_ H_ 0.0700843 0.143887 0.180566 0.10932
H_ H_ 0.300979 0.161934 0.185077 0.10932
H_ H_ 0.031502 0.0857499 0.311033 0.10932
H_ H_ 0.301284 0.0654171 0.305621 0.10932
H_ H_ 0.133996 0.320432 0.34909 0.10932
H_ H_ 0.378919 0.313341 0.366534 0.10932
H_ H_ 0.121371 0.194272 0.358608 0.10932
H_ H_ 0.379933 0.182334 0.358502 0.10932
H_ H_ 0.120935 0.195917 0.437666 0.10932
H_ H_ 0.382584 0.178701 0.434525 0.10932
H_ H_ 0.137448 0.326638 0.425584 0.10932
H_ H_ 0.387005 0.309196 0.4427 0.10932
H_ H_ 0.122842 0.308683 0.135979 0.10932
H_ H_ 0.34783 0.196479 0.142518 0.10932
H_ H_ 0.120829 0.179168 0.141443 0.10932
H_ H_ 0.41339 0.291595 0.143885 0.10932
H_ H_ 0.124427 0.175631 0.0660309 0.10932
H_ H_ 0.413267 0.292461 0.0642166 0.10932
H_ H_ 0.121446 0.30778 0.0589662 0.10932
H_ H_ 0.355851 0.186163 0.0684754 0.10932
C_ C_ 0.0674704 0.351839 0.248489 -0.02249
C_ C_ 0.313599 0.347312 0.252058 -0.02249
C_ C_ 0.0165295 0.465913 0.24766 -0.02249
C_ C_ 0.265345 0.462649 0.24787 -0.02249
C_ C_ 0.0403975 0.406014 0.210119 -0.11473
C_ C_ 0.291038 0.404116 0.211974 -0.11473
C_ C_ 0.0631013 0.374104 0.285985 -0.11473
C_ C_ 0.303515 0.366684 0.290057 -0.11473
C_ C_ 0.0558949 0.368536 0.2106 -0.11473
C_ C_ 0.307666 0.368037 0.214005 -0.11473
C_ C_ 0.0352722 0.428534 0.248205 -0.02249
C_ C_ 0.283152 0.423436 0.249544 -0.02249
C_ C_ 0.0870773 0.314513 0.248493 0.6875
C_ C_ 0.335728 0.312536 0.25213 0.6875
C_ C_ 0.0468262 0.411378 0.28573 -0.11473
C_ C_ 0.289127 0.405387 0.288765 -0.11473
C_ C_ 0.184963 0.348487 0.245018 -0.02249
C_ C_ 0.434061 0.349017 0.25065 -0.02249
C_ C_ 0.234082 0.463156 0.244975 -0.02249
C_ C_ 0.486172 0.465693 0.251465 -0.02249
C_ C_ 0.202998 0.410787 0.281543 -0.11473
C_ C_ 0.466892 0.400247 0.284401 -0.11473
C_ C_ 0.193581 0.367331 0.207116 -0.11473
C_ C_ 0.435345 0.375429 0.214977 -0.11473
C_ C_ 0.191011 0.3711 0.282793 -0.11473
C_ C_ 0.450044 0.363023 0.28679 -0.11473
C_ C_ 0.214481 0.425317 0.243967 -0.02249
C_ C_ 0.46794 0.425617 0.250627 -0.02249
C_ C_ 0.164232 0.311783 0.244193 0.6875
C_ C_ 0.416454 0.310186 0.252131 0.6875
C_ C_ 0.211178 0.404124 0.206815 -0.11473
C_ C_ 0.452588 0.412941 0.214519 -0.11473
C_ C_ 0.182112 0.147852 0.242121 -0.02249
C_ C_ 0.435524 0.152186 0.253942 -0.02249
C_ C_ 0.235021 0.0364921 0.23781 -0.02249
C_ C_ 0.483176 0.0363886 0.261666 -0.02249
C_ C_ 0.209552 0.0890893 0.276962 -0.11473
C_ C_ 0.471945 0.106187 0.287237 -0.11473
C_ C_ 0.188108 0.128247 0.202817 -0.11473
C_ C_ 0.4301 0.120656 0.223334 -0.11473
C_ C_ 0.190724 0.12395 0.279365 -0.11473
C_ C_ 0.457268 0.143943 0.28692 -0.11473
C_ C_ 0.219223 0.0763008 0.239355 -0.02249
C_ C_ 0.465604 0.0748877 0.258776 -0.02249
C_ C_ 0.163804 0.188998 0.243005 0.6875
C_ C_ 0.418863 0.193507 0.254524 0.6875
C_ C_ 0.209332 0.0978539 0.2016 -0.11473
C_ C_ 0.445918 0.0836882 0.22571 -0.11473
C_ C_ 0.0660007 0.153279 0.246533 -0.02249
C_ C_ 0.31629 0.152784 0.251826 -0.02249
C_ C_ 0.0178842 0.0376896 0.242389 -0.02249
C_ C_ 0.266237 0.0376903 0.241626 -0.02249
C_ C_ 0.0485088 0.0916587 0.208786 -0.11473
C_ C_ 0.285419 0.105159 0.209401 -0.11473
C_ C_ 0.0518592 0.136679 0.282479 -0.11473
C_ C_ 0.314155 0.12404 0.286527 -0.11473
C_ C_ 0.0639718 0.129531 0.20947 -0.11473
C_ C_ 0.300295 0.142675 0.214086 -0.11473
C_ C_ 0.0361656 0.0763379 0.245638 -0.02249
C_ C_ 0.283097 0.078196 0.244788 -0.02249
C_ C_ 0.0841887 0.19329 0.247988 0.6875
C_ C_ 0.338374 0.190176 0.251037 0.6875
C_ C_ 0.0374777 0.0993323 0.281601 -0.11473
C_ C_ 0.299857 0.0860839 0.280954 -0.11473
C_ C_ 0.134531 0.293912 0.369947 0.17695
C_ C_ 0.376804 0.283227 0.382138 0.17695
C_ C_ 0.123927 0.221804 0.375793 0.17695
C_ C_ 0.38073 0.211686 0.376578 0.17695
C_ C_ 0.123796 0.223984 0.419627 -0.11473
C_ C_ 0.381725 0.208003 0.420941 -0.11473
C_ C_ 0.131598 0.262198 0.439801 0.23465
C_ C_ 0.379992 0.242724 0.445526 0.23465
C_ C_ 0.136809 0.297555 0.413373 -0.11473
C_ C_ 0.380937 0.281035 0.425409 -0.11473
C_ C_ 0.122315 0.280639 0.120027 0.17695
C_ C_ 0.362109 0.218244 0.126453 0.17695
C_ C_ 0.121329 0.208081 0.124237 0.17695
C_ C_ 0.397782 0.273224 0.126948 0.17695
C_ C_ 0.120339 0.204937 0.0808793 -0.11473
C_ C_ 0.398008 0.271051 0.0812195 -0.11473
C_ C_ 0.120955 0.240856 0.055823 0.23465
C_ C_ 0.379531 0.243482 0.0601011 0.23465
C_ C_ 0.124988 0.278692 0.0758872 -0.11473
C_ C_ 0.363175 0.214847 0.083331 -0.11473
C_ C_ 0.0318157 0.504016 0.254166 0.05793
C_ C_ 0.281627 0.500087 0.250364 0.05793
C_ C_ 0.21893 -0.0022480000000000278 0.234081 0.05793
C_ C_ 0.466819 1.00086 0.266084 0.05793
Br Br 0.072614 0.506143 0.273878 -0.17191
Br Br 0.324719 0.496895 0.253699 -0.17191
Br Br 0.176511 -0.0018679999999999808 0.237891 -0.17191
Br Br 0.423346 1.000867093 0.279564 -0.17191
N_ N_ 0.12932 0.256369 0.352167 -0.272
N_ N_ 0.378077 0.248573 0.358355 -0.272
N_ N_ 0.132496 0.267864 0.484124 -0.12501
N_ N_ 0.383198 0.2396 0.489845 -0.12501
N_ N_ 0.121823 0.246352 0.142955 -0.272
N_ N_ 0.377339 0.248626 0.146598 -0.272
N_ N_ 0.118445 0.237718 0.0117425 -0.12501
N_ N_ 0.383867 0.238275 0.0153235 -0.12501
O_ O_ 0.0960967 0.299541 0.214371 -0.60745
O_ O_ 0.34611 0.301448 0.217781 -0.60745
O_ O_ 0.0973401 0.300793 0.283432 -0.60745
O_ O_ 0.346227 0.298571 0.286454 -0.60745
O_ O_ 0.156624 0.294317 0.276606 -0.60745
O_ O_ 0.407519 0.297144 0.286647 -0.60745
O_ O_ 0.155287 0.296735 0.209467 -0.60745
O_ O_ 0.408052 0.292096 0.218689 -0.60745
O_ O_ 0.15461 0.202727 0.278716 -0.60745
O_ O_ 0.412885 0.211493 0.288816 -0.60745
O_ O_ 0.154539 0.206539 0.208991 -0.60745
O_ O_ 0.404826 0.206882 0.221594 -0.60745
O_ O_ 0.0930822 0.209513 0.214756 -0.60745
O_ O_ 0.341579 0.210054 0.217334 -0.60745
O_ O_ 0.0955621 0.205889 0.28185 -0.60745
O_ O_ 0.35103 0.203523 0.28458 -0.60745
Zn Zn 0.124253 0.248261 0.781102 0.9476
Zn Zn 0.37765 0.252246 0.78805 0.9476
Zn Zn 0.123258 0.249491 0.711661 0.9476
Zn Zn 0.373861 0.250773 0.719132 0.9476
H_ H_ 0.0167547 0.405462 0.679973 0.10932
H_ H_ 0.292873 0.419755 0.682496 0.10932
H_ H_ 0.0848906 0.374669 0.7977 0.10932
H_ H_ 0.30661 0.343732 0.820317 0.10932
H_ H_ 0.0418779 0.335691 0.686317 0.10932
H_ H_ 0.322614 0.361178 0.687495 0.10932
H_ H_ 0.0476663 0.434944 0.801019 0.10932
H_ H_ 0.272053 0.409404 0.813995 0.10932
H_ H_ 0.21533 0.416157 0.819326 0.10932
H_ H_ 0.47364 0.41228 0.811343 0.10932
H_ H_ 0.181788 0.3626 0.682244 0.10932
H_ H_ 0.422208 0.360808 0.684709 0.10932
H_ H_ 0.189442 0.346945 0.815581 0.10932
H_ H_ 0.451768 0.342054 0.813516 0.10932
H_ H_ 0.215585 0.421489 0.684685 0.10932
H_ H_ 0.451208 0.425249 0.682884 0.10932
H_ H_ 0.219587 0.0873498 0.813039 0.10932
H_ H_ 0.455374 0.0699138 0.810644 0.10932
H_ H_ 0.178655 0.141581 0.6757 0.10932
H_ H_ 0.448909 0.158859 0.686673 0.10932
H_ H_ 0.191983 0.153408 0.810772 0.10932
H_ H_ 0.42243 0.130575 0.814613 0.10932
H_ H_ 0.21039 0.0732309 0.680068 0.10932
H_ H_ 0.475087 0.0906355 0.682763 0.10932
H_ H_ 0.0483573 0.06384 0.685749 0.10932
H_ H_ 0.271294 0.10045 0.683331 0.10932
H_ H_ 0.0448156 0.159877 0.807135 0.10932
H_ H_ 0.325832 0.135118 0.815541 0.10932
H_ H_ 0.0772229 0.128149 0.685436 0.10932
H_ H_ 0.296728 0.167993 0.69386 0.10932
H_ H_ 0.0263856 0.0911249 0.81316 0.10932
H_ H_ 0.288836 0.0784985 0.814223 0.10932
H_ H_ 0.144071 0.304924 0.849966 0.10932
H_ H_ 0.393895 0.312205 0.867228 0.10932
H_ H_ 0.115225 0.182339 0.864486 0.10932
H_ H_ 0.370821 0.18605 0.862191 0.10932
H_ H_ 0.118888 0.187613 0.942564 0.10932
H_ H_ 0.355829 0.187823 0.937595 0.10932
H_ H_ 0.146428 0.313703 0.930262 0.10932
H_ H_ 0.391179 0.310324 0.945443 0.10932
H_ H_ 0.0785957 0.249583 0.633381 0.10932
H_ H_ 0.380542 0.193175 0.636954 0.10932
H_ H_ 0.173261 0.247712 0.644283 0.10932
H_ H_ 0.372373 0.320816 0.646049 0.10932
H_ H_ 0.177307 0.236274 0.568257 0.10932
H_ H_ 0.371595 0.329358 0.570715 0.10932
H_ H_ 0.0818885 0.240189 0.556028 0.10932
H_ H_ 0.380706 0.198963 0.559105 0.10932
C_ C_ 0.0627542 0.347859 0.742729 -0.02249
C_ C_ 0.317552 0.349493 0.755246 -0.02249
C_ C_ 0.0139635 0.463333 0.738661 -0.02249
C_ C_ 0.267397 0.462561 0.753359 -0.02249
C_ C_ 0.0296033 0.397238 0.706885 -0.11473
C_ C_ 0.296408 0.40812 0.713583 -0.11473
C_ C_ 0.0643466 0.375656 0.777749 -0.11473
C_ C_ 0.302005 0.361281 0.791194 -0.11473
C_ C_ 0.045764 0.360181 0.707788 -0.11473
C_ C_ 0.314863 0.371746 0.715838 -0.11473
C_ C_ 0.032768 0.425719 0.738704 -0.02249
C_ C_ 0.283743 0.421707 0.751795 -0.02249
C_ C_ 0.0825427 0.310825 0.743851 0.6875
C_ C_ 0.33836 0.313858 0.754367 0.6875
C_ C_ 0.0504432 0.414999 0.775317 -0.11473
C_ C_ 0.285208 0.399675 0.787884 -0.11473
C_ C_ 0.183895 0.349016 0.748306 -0.02249
C_ C_ 0.434423 0.346651 0.74857 -0.02249
C_ C_ 0.236564 0.463997 0.756607 -0.02249
C_ C_ 0.48528 0.460349 0.745033 -0.02249
C_ C_ 0.209882 0.402986 0.789481 -0.11473
C_ C_ 0.467176 0.397984 0.783743 -0.11473
C_ C_ 0.193119 0.368786 0.710788 -0.11473
C_ C_ 0.438087 0.367067 0.709532 -0.11473
C_ C_ 0.193504 0.365613 0.787814 -0.11473
C_ C_ 0.449406 0.361975 0.785216 -0.11473
C_ C_ 0.217642 0.425593 0.753116 -0.02249
C_ C_ 0.468159 0.419895 0.745608 -0.02249
C_ C_ 0.164737 0.30958 0.745635 0.6875
C_ C_ 0.416355 0.307778 0.749483 0.6875
C_ C_ 0.208498 0.406737 0.714229 -0.11473
C_ C_ 0.452733 0.405043 0.710476 -0.11473
C_ C_ 0.185401 0.153069 0.743501 -0.02249
C_ C_ 0.432464 0.152403 0.75132 -0.02249
C_ C_ 0.233476 0.0378899 0.747425 -0.02249
C_ C_ 0.482126 0.0377823 0.742092 -0.02249
C_ C_ 0.212216 0.0996912 0.783009 -0.11473
C_ C_ 0.452753 0.0889483 0.78458 -0.11473
C_ C_ 0.190209 0.131463 0.705684 -0.11473
C_ C_ 0.447327 0.138228 0.713676 -0.11473
C_ C_ 0.194936 0.137391 0.780971 -0.11473
C_ C_ 0.434049 0.125268 0.786233 -0.11473
C_ C_ 0.215238 0.0769817 0.746223 -0.02249
C_ C_ 0.464096 0.0747364 0.745481 -0.02249
C_ C_ 0.165118 0.189703 0.744362 0.6875
C_ C_ 0.414472 0.191909 0.752995 0.6875
C_ C_ 0.205542 0.0934509 0.70727 -0.11473
C_ C_ 0.460584 0.0996135 0.709432 -0.11473
C_ C_ 0.0624239 0.15227 0.74523 -0.02249
C_ C_ 0.312368 0.155742 0.755152 -0.02249
C_ C_ 0.0153587 0.0339602 0.750126 -0.02249
C_ C_ 0.265293 0.0388819 0.744891 -0.02249
C_ C_ 0.0473504 0.0853869 0.711915 -0.11473
C_ C_ 0.281991 0.107389 0.713521 -0.11473
C_ C_ 0.0447537 0.141411 0.779669 -0.11473
C_ C_ 0.312469 0.127389 0.787892 -0.11473
C_ C_ 0.0619237 0.123994 0.710578 -0.11473
C_ C_ 0.298384 0.143749 0.717929 -0.11473
C_ C_ 0.0331493 0.072439 0.74949 -0.02249
C_ C_ 0.281206 0.0792347 0.746671 -0.02249
C_ C_ 0.0824017 0.189803 0.745855 0.6875
C_ C_ 0.332498 0.194789 0.75371 0.6875
C_ C_ 0.0320148 0.102249 0.781796 -0.11473
C_ C_ 0.293512 0.092487 0.785102 -0.11473
C_ C_ 0.13488 0.281263 0.870803 0.17695
C_ C_ 0.387301 0.284464 0.882612 0.17695
C_ C_ 0.118286 0.212726 0.880529 0.17695
C_ C_ 0.371611 0.213484 0.879715 0.17695
C_ C_ 0.121903 0.216413 0.923167 -0.11473
C_ C_ 0.364944 0.214316 0.922355 -0.11473
C_ C_ 0.130783 0.254785 0.941804 0.23465
C_ C_ 0.372313 0.249226 0.945637 0.23465
C_ C_ 0.137849 0.28611 0.915629 -0.11473
C_ C_ 0.386443 0.283649 0.925613 -0.11473
C_ C_ 0.100828 0.2503 0.618781 0.17695
C_ C_ 0.37787 0.223421 0.622292 0.17695
C_ C_ 0.153952 0.251008 0.62418 0.17695
C_ C_ 0.375732 0.295565 0.627605 0.17695
C_ C_ 0.155214 0.24349 0.581812 -0.11473
C_ C_ 0.377418 0.300484 0.585103 -0.11473
C_ C_ 0.130723 0.246549 0.555335 0.23465
C_ C_ 0.380819 0.265825 0.559446 0.23465
C_ C_ 0.102428 0.247143 0.573945 -0.11473
C_ C_ 0.379397 0.226377 0.57824 -0.11473
C_ C_ 0.0279446 0.501424 0.73941 0.05793
C_ C_ 0.285486 0.49941 0.754773 0.05793
C_ C_ 0.218728 -0.0011010000000000186 0.747188 0.05793
C_ C_ 0.466915 0.998971 0.734144 0.05793
Br Br 0.0676312 0.504215 0.717738 -0.17191
Br Br 0.32776 0.496166 0.761263 -0.17191
Br Br 0.175306 -0.003654000000000046 0.759492 -0.17191
Br Br 0.429244 0.996095 0.707035 -0.17191
N_ N_ 0.125435 0.244894 0.855105 -0.272
N_ N_ 0.379103 0.250161 0.859953 -0.272
N_ N_ 0.131386 0.261701 0.98638 -0.12501
N_ N_ 0.36549 0.251883 0.989676 -0.12501
N_ N_ 0.126138 0.255332 0.642244 -0.272
N_ N_ 0.374474 0.25727 0.646548 -0.272
N_ N_ 0.13166 0.238902 0.510522 -0.12501
N_ N_ 0.376908 0.268599 0.514246 -0.12501
O_ O_ 0.0903906 0.294726 0.709514 -0.60745
O_ O_ 0.345233 0.296091 0.719495 -0.60745
O_ O_ 0.0928435 0.296207 0.779043 -0.60745
O_ O_ 0.346989 0.298008 0.788632 -0.60745
O_ O_ 0.157069 0.292191 0.778738 -0.60745
O_ O_ 0.408913 0.293321 0.784735 -0.60745
O_ O_ 0.153171 0.295311 0.712272 -0.60745
O_ O_ 0.405899 0.291508 0.716299 -0.60745
O_ O_ 0.154384 0.201617 0.779618 -0.60745
O_ O_ 0.405011 0.204683 0.786762 -0.60745
O_ O_ 0.157504 0.206997 0.710888 -0.60745
O_ O_ 0.403262 0.204992 0.718594 -0.60745
O_ O_ 0.093563 0.203443 0.711204 -0.60745
O_ O_ 0.342273 0.20892 0.719849 -0.60745
O_ O_ 0.0902212 0.205098 0.780099 -0.60745
O_ O_ 0.342467 0.206533 0.789058 -0.60745
Zn Zn 0.124764 0.751854 0.279039 0.9476
Zn Zn 0.378357 0.748078 0.289178 0.9476
Zn Zn 0.126855 0.748721 0.209864 0.9476
Zn Zn 0.378186 0.745567 0.220398 0.9476
H_ H_ 0.0482914 0.927113 0.181456 0.10932
H_ H_ 0.27457 0.901634 0.181756 0.10932
H_ H_ 0.0459676 0.835879 0.304875 0.10932
H_ H_ 0.3321 0.863109 0.314715 0.10932
H_ H_ 0.0762408 0.864148 0.178175 0.10932
H_ H_ 0.311205 0.844338 0.184124 0.10932
H_ H_ 0.0220316 0.903728 0.306601 0.10932
H_ H_ 0.295371 0.921248 0.318284 0.10932
H_ H_ 0.226607 0.911597 0.308603 0.10932
H_ H_ 0.46245 0.92137 0.33434 0.10932
H_ H_ 0.170613 0.864311 0.181165 0.10932
H_ H_ 0.429761 0.85826 0.197023 0.10932
H_ H_ 0.192227 0.852539 0.316012 0.10932
H_ H_ 0.435402 0.852621 0.335503 0.10932
H_ H_ 0.206295 0.921106 0.175262 0.10932
H_ H_ 0.453886 0.924312 0.198123 0.10932
H_ H_ 0.219676 0.583802 0.316045 0.10932
H_ H_ 0.474739 0.582901 0.326108 0.10932
H_ H_ 0.179078 0.637806 0.18391 0.10932
H_ H_ 0.445973 0.652609 0.192438 0.10932
H_ H_ 0.189685 0.650555 0.316686 0.10932
H_ H_ 0.441691 0.643377 0.326479 0.10932
H_ H_ 0.215281 0.579944 0.183838 0.10932
H_ H_ 0.471465 0.5873 0.192771 0.10932
H_ H_ 0.0333559 0.583097 0.180359 0.10932
H_ H_ 0.288499 0.580334 0.181106 0.10932
H_ H_ 0.0574752 0.656769 0.314552 0.10932
H_ H_ 0.314419 0.645695 0.316983 0.10932
H_ H_ 0.0643299 0.644617 0.178812 0.10932
H_ H_ 0.314727 0.646606 0.180216 0.10932
H_ H_ 0.0236517 0.598023 0.314751 0.10932
H_ H_ 0.294123 0.575217 0.315193 0.10932
H_ H_ 0.116262 0.816142 0.363187 0.10932
H_ H_ 0.374489 0.678513 0.355673 0.10932
H_ H_ 0.134953 0.689573 0.349809 0.10932
H_ H_ 0.368333 0.808202 0.367173 0.10932
H_ H_ 0.130473 0.679456 0.426945 0.10932
H_ H_ 0.371441 0.802859 0.443218 0.10932
H_ H_ 0.115669 0.809332 0.438397 0.10932
H_ H_ 0.3662 0.671013 0.433141 0.10932
H_ H_ 0.174499 0.753456 0.133804 0.10932
H_ H_ 0.377065 0.680587 0.138946 0.10932
H_ H_ 0.0793373 0.749778 0.139214 0.10932
H_ H_ 0.378603 0.81137 0.151651 0.10932
H_ H_ 0.0765627 0.762323 0.0667915 0.10932
H_ H_ 0.373711 0.818974 0.0759682 0.10932
H_ H_ 0.171965 0.752344 0.0538204 0.10932
H_ H_ 0.374229 0.688382 0.0640361 0.10932
C_ C_ 0.0648502 0.84493 0.244301 -0.02249
C_ C_ 0.319635 0.845293 0.249728 -0.02249
C_ C_ 0.0140369 0.960769 0.239985 -0.02249
C_ C_ 0.267889 0.960294 0.245784 -0.02249
C_ C_ 0.0481288 0.907625 0.206344 -0.11473
C_ C_ 0.28804 0.895147 0.212003 -0.11473
C_ C_ 0.0450958 0.854814 0.276142 -0.11473
C_ C_ 0.316986 0.869246 0.287573 -0.11473
C_ C_ 0.0655984 0.872332 0.207854 -0.11473
C_ C_ 0.307985 0.860877 0.212829 -0.11473
C_ C_ 0.0302384 0.919823 0.240042 -0.02249
C_ C_ 0.285374 0.919443 0.248799 -0.02249
C_ C_ 0.0869702 0.810292 0.247598 0.6875
C_ C_ 0.339919 0.809123 0.249097 0.6875
C_ C_ 0.0304686 0.893801 0.275869 -0.11473
C_ C_ 0.29837 0.904324 0.288433 -0.11473
C_ C_ 0.181424 0.850572 0.247984 -0.02249
C_ C_ 0.431958 0.848483 0.266048 -0.02249
C_ C_ 0.235626 0.960415 0.238229 -0.02249
C_ C_ 0.48155 0.962212 0.267685 -0.02249
C_ C_ 0.214428 0.902529 0.281333 -0.11473
C_ C_ 0.45892 0.903472 0.305563 -0.11473
C_ C_ 0.183588 0.873615 0.209283 -0.11473
C_ C_ 0.436746 0.870605 0.228931 -0.11473
C_ C_ 0.195233 0.867454 0.284158 -0.11473
C_ C_ 0.441317 0.866696 0.305255 -0.11473
C_ C_ 0.218869 0.920814 0.242663 -0.02249
C_ C_ 0.464434 0.92376 0.267503 -0.02249
C_ C_ 0.164729 0.809467 0.250202 0.6875
C_ C_ 0.417274 0.807066 0.263714 0.6875
C_ C_ 0.204704 0.905511 0.206192 -0.11473
C_ C_ 0.449814 0.910722 0.229614 -0.11473
C_ C_ 0.185672 0.652794 0.247928 -0.02249
C_ C_ 0.443476 0.655896 0.260776 -0.02249
C_ C_ 0.235922 0.539506 0.248183 -0.02249
C_ C_ 0.489977 0.539859 0.258376 -0.02249
C_ C_ 0.208303 0.596218 0.28784 -0.11473
C_ C_ 0.469166 0.599498 0.297731 -0.11473
C_ C_ 0.188348 0.627957 0.212149 -0.11473
C_ C_ 0.452671 0.638264 0.222792 -0.11473
C_ C_ 0.192026 0.634697 0.286664 -0.11473
C_ C_ 0.451313 0.634028 0.297736 -0.11473
C_ C_ 0.220381 0.579986 0.249665 -0.02249
C_ C_ 0.476213 0.581763 0.258222 -0.02249
C_ C_ 0.169285 0.693294 0.245114 0.6875
C_ C_ 0.41928 0.687877 0.260497 0.6875
C_ C_ 0.20995 0.595457 0.212891 -0.11473
C_ C_ 0.466871 0.600343 0.22176 -0.11473
C_ C_ 0.0660532 0.653796 0.246725 -0.02249
C_ C_ 0.315214 0.65504 0.248917 -0.02249
C_ C_ 0.0146751 0.540635 0.249879 -0.02249
C_ C_ 0.267775 0.537588 0.244027 -0.02249
C_ C_ 0.0393828 0.598345 0.208765 -0.11473
C_ C_ 0.293694 0.596176 0.210498 -0.11473
C_ C_ 0.054991 0.638483 0.284263 -0.11473
C_ C_ 0.306282 0.634749 0.287869 -0.11473
C_ C_ 0.0544515 0.637586 0.207702 -0.11473
C_ C_ 0.310037 0.632836 0.211297 -0.11473
C_ C_ 0.0292701 0.581475 0.247632 -0.02249
C_ C_ 0.284686 0.578714 0.247349 -0.02249
C_ C_ 0.0878692 0.690266 0.245139 0.6875
C_ C_ 0.336042 0.69066 0.24819 0.6875
C_ C_ 0.034383 0.604789 0.284861 -0.11473
C_ C_ 0.294944 0.594636 0.285271 -0.11473
C_ C_ 0.123243 0.787346 0.375465 0.17695
C_ C_ 0.370932 0.705812 0.375328 0.17695
C_ C_ 0.134132 0.716909 0.369713 0.17695
C_ C_ 0.368593 0.779316 0.382621 0.17695
C_ C_ 0.132201 0.710654 0.413404 -0.11473
C_ C_ 0.372503 0.775959 0.425925 -0.11473
C_ C_ 0.12922 0.744528 0.438421 0.23465
C_ C_ 0.371064 0.73752 0.445573 0.23465
C_ C_ 0.124487 0.783122 0.4195 -0.11473
C_ C_ 0.366997 0.701809 0.41979 -0.11473
C_ C_ 0.153216 0.750429 0.117633 0.17695
C_ C_ 0.377509 0.711734 0.124834 0.17695
C_ C_ 0.09953 0.753048 0.1217 0.17695
C_ C_ 0.377614 0.78345 0.131155 0.17695
C_ C_ 0.097493 0.75306 0.0791128 -0.11473
C_ C_ 0.376642 0.78894 0.0874739 -0.11473
C_ C_ 0.122521 0.75483 0.0534075 0.23465
C_ C_ 0.375525 0.754811 0.0620639 0.23465
C_ C_ 0.150787 0.752506 0.0737791 -0.11473
C_ C_ 0.375325 0.71587 0.0811369 -0.11473
C_ C_ 0.032694 0.998853 0.238633 0.05793
C_ C_ 0.282272 0.999481 0.241193 0.05793
C_ C_ 0.219406 0.501741 0.247032 0.05793
C_ C_ 0.472867 0.503631 0.259884 0.05793
Br Br 0.0760953 -0.005159000000000025 0.241726 -0.17191
Br Br 0.324386 0.998436 0.237628 -0.17191
Br Br 0.176354 0.506211 0.245497 -0.17191
Br Br 0.43038 0.50708 0.268595 -0.17191
N_ N_ 0.129071 0.753878 0.352118 -0.272
N_ N_ 0.374048 0.743985 0.359176 -0.272
N_ N_ 0.123807 0.736254 0.481851 -0.12501
N_ N_ 0.36428 0.734252 0.489774 -0.12501
N_ N_ 0.127506 0.75034 0.141086 -0.272
N_ N_ 0.381221 0.745771 0.148915 -0.272
N_ N_ 0.118902 0.761653 0.00832775 -0.12501
N_ N_ 0.371446 0.759204 0.0170739 -0.12501
O_ O_ 0.0939289 0.791358 0.214127 -0.60745
O_ O_ 0.346438 0.791713 0.215381 -0.60745
O_ O_ 0.0951863 0.79727 0.283297 -0.60745
O_ O_ 0.347405 0.789983 0.282395 -0.60745
O_ O_ 0.154249 0.796662 0.284262 -0.60745
O_ O_ 0.406551 0.791136 0.295948 -0.60745
O_ O_ 0.159091 0.791369 0.215534 -0.60745
O_ O_ 0.410116 0.792477 0.227747 -0.60745
O_ O_ 0.157984 0.709159 0.278667 -0.60745
O_ O_ 0.411713 0.705004 0.293931 -0.60745
O_ O_ 0.159686 0.706888 0.209479 -0.60745
O_ O_ 0.407238 0.699808 0.22613 -0.60745
O_ O_ 0.096108 0.704104 0.210005 -0.60745
O_ O_ 0.344154 0.705772 0.214151 -0.60745
O_ O_ 0.0913471 0.710725 0.277894 -0.60745
O_ O_ 0.349009 0.700284 0.281548 -0.60745
Zn Zn 0.122825 0.750993 0.782471 0.9476
Zn Zn 0.376181 0.749778 0.787065 0.9476
Zn Zn 0.122804 0.746652 0.712768 0.9476
Zn Zn 0.376691 0.749268 0.71841 0.9476
H_ H_ 0.0384346 0.91875 0.687238 0.10932
H_ H_ 0.29837 0.930432 0.681433 0.10932
H_ H_ 0.0465806 0.831103 0.811733 0.10932
H_ H_ 0.305988 0.848695 0.815743 0.10932
H_ H_ 0.0674332 0.853468 0.681027 0.10932
H_ H_ 0.328948 0.862748 0.681535 0.10932
H_ H_ 0.02983 0.904153 0.82125 0.10932
H_ H_ 0.278437 0.915216 0.809669 0.10932
H_ H_ 0.218825 0.914905 0.813324 0.10932
H_ H_ 0.469012 0.920281 0.808223 0.10932
H_ H_ 0.182638 0.853871 0.680057 0.10932
H_ H_ 0.424833 0.848158 0.685033 0.10932
H_ H_ 0.204474 0.842377 0.814856 0.10932
H_ H_ 0.440475 0.854498 0.816478 0.10932
H_ H_ 0.210872 0.919548 0.680305 0.10932
H_ H_ 0.454553 0.916554 0.676288 0.10932
H_ H_ 0.210191 0.582271 0.823498 0.10932
H_ H_ 0.459551 0.573817 0.810179 0.10932
H_ H_ 0.191965 0.651994 0.68409 0.10932
H_ H_ 0.448401 0.658752 0.681032 0.10932
H_ H_ 0.181447 0.646098 0.816064 0.10932
H_ H_ 0.431548 0.637936 0.811207 0.10932
H_ H_ 0.225368 0.585093 0.690746 0.10932
H_ H_ 0.478783 0.588532 0.680271 0.10932
H_ H_ 0.0380361 0.574852 0.67997 0.10932
H_ H_ 0.297834 0.574865 0.689933 0.10932
H_ H_ 0.0565123 0.654362 0.808245 0.10932
H_ H_ 0.31837 0.646921 0.826327 0.10932
H_ H_ 0.0696429 0.636502 0.677421 0.10932
H_ H_ 0.326391 0.639372 0.692797 0.10932
H_ H_ 0.0227298 0.592084 0.810888 0.10932
H_ H_ 0.294467 0.581897 0.827404 0.10932
H_ H_ 0.12268 0.812834 0.860704 0.10932
H_ H_ 0.364153 0.807683 0.870487 0.10932
H_ H_ 0.109064 0.681392 0.849196 0.10932
H_ H_ 0.393296 0.685817 0.856399 0.10932
H_ H_ 0.10983 0.672639 0.928446 0.10932
H_ H_ 0.377941 0.667318 0.927779 0.10932
H_ H_ 0.112842 0.802939 0.936765 0.10932
H_ H_ 0.365971 0.803008 0.946388 0.10932
H_ H_ 0.162165 0.778642 0.644054 0.10932
H_ H_ 0.388435 0.814208 0.649529 0.10932
H_ H_ 0.0824891 0.715062 0.631154 0.10932
H_ H_ 0.357648 0.691564 0.644018 0.10932
H_ H_ 0.0807203 0.726306 0.551754 0.10932
H_ H_ 0.358176 0.691842 0.565596 0.10932
H_ H_ 0.16858 0.784072 0.565273 0.10932
H_ H_ 0.38759 0.818733 0.572862 0.10932
C_ C_ 0.060292 0.839427 0.748448 -0.02249
C_ C_ 0.321774 0.851722 0.749864 -0.02249
C_ C_ 0.0150003 0.955664 0.754498 -0.02249
C_ C_ 0.266091 0.963179 0.74542 -0.02249
C_ C_ 0.0381818 0.898 0.712622 -0.11473
C_ C_ 0.298734 0.908744 0.709366 -0.11473
C_ C_ 0.048784 0.852416 0.785193 -0.11473
C_ C_ 0.307638 0.866938 0.785462 -0.11473
C_ C_ 0.0544472 0.861308 0.709549 -0.11473
C_ C_ 0.316815 0.872345 0.709736 -0.11473
C_ C_ 0.0317948 0.915841 0.752438 -0.02249
C_ C_ 0.285202 0.922478 0.74549 -0.02249
C_ C_ 0.0814001 0.803607 0.749255 0.6875
C_ C_ 0.340183 0.811846 0.754432 0.6875
C_ C_ 0.0383927 0.893717 0.789196 -0.11473
C_ C_ 0.29192 0.904838 0.784569 -0.11473
C_ C_ 0.185503 0.843422 0.74899 -0.02249
C_ C_ 0.433286 0.844621 0.750977 -0.02249
C_ C_ 0.234539 0.960793 0.745021 -0.02249
C_ C_ 0.484415 0.960975 0.737837 -0.02249
C_ C_ 0.215164 0.898045 0.784988 -0.11473
C_ C_ 0.463323 0.901809 0.781878 -0.11473
C_ C_ 0.192458 0.864573 0.709836 -0.11473
C_ C_ 0.438525 0.862693 0.710646 -0.11473
C_ C_ 0.200063 0.860596 0.786377 -0.11473
C_ C_ 0.446805 0.865697 0.785975 -0.11473
C_ C_ 0.218466 0.919688 0.746175 -0.02249
C_ C_ 0.468273 0.918454 0.741708 -0.02249
C_ C_ 0.165417 0.80562 0.75181 0.6875
C_ C_ 0.415196 0.804845 0.752599 0.6875
C_ C_ 0.209122 0.901566 0.708857 -0.11473
C_ C_ 0.455278 0.900476 0.705815 -0.11473
C_ C_ 0.183153 0.65249 0.750227 -0.02249
C_ C_ 0.437602 0.652627 0.745725 -0.02249
C_ C_ 0.23849 0.540909 0.758029 -0.02249
C_ C_ 0.485126 0.536446 0.745077 -0.02249
C_ C_ 0.207889 0.596384 0.792703 -0.11473
C_ C_ 0.457219 0.591738 0.781739 -0.11473
C_ C_ 0.19808 0.635031 0.715 -0.11473
C_ C_ 0.450183 0.637748 0.707793 -0.11473
C_ C_ 0.191205 0.633492 0.789518 -0.11473
C_ C_ 0.439943 0.628319 0.781799 -0.11473
C_ C_ 0.22248 0.581196 0.757332 -0.02249
C_ C_ 0.46931 0.576387 0.744433 -0.02249
C_ C_ 0.161808 0.689238 0.748203 0.6875
C_ C_ 0.414612 0.68783 0.74686 0.6875
C_ C_ 0.215832 0.598423 0.718311 -0.11473
C_ C_ 0.468429 0.601723 0.708336 -0.11473
C_ C_ 0.0612494 0.652809 0.741703 -0.02249
C_ C_ 0.319979 0.654755 0.758463 -0.02249
C_ C_ 0.0119474 0.537465 0.747257 -0.02249
C_ C_ 0.271087 0.538601 0.75697 -0.02249
C_ C_ 0.0391273 0.593374 0.706215 -0.11473
C_ C_ 0.300694 0.591675 0.719699 -0.11473
C_ C_ 0.0490312 0.638943 0.779466 -0.11473
C_ C_ 0.312793 0.633306 0.795693 -0.11473
C_ C_ 0.0572726 0.628656 0.705047 -0.11473
C_ C_ 0.316774 0.629911 0.721254 -0.11473
C_ C_ 0.0286286 0.57779 0.745805 -0.02249
C_ C_ 0.289751 0.576071 0.757615 -0.02249
C_ C_ 0.082041 0.688478 0.741692 0.6875
C_ C_ 0.337661 0.691737 0.757203 0.6875
C_ C_ 0.0345211 0.601025 0.781924 -0.11473
C_ C_ 0.300142 0.593513 0.795446 -0.11473
C_ C_ 0.117524 0.780644 0.875964 0.17695
C_ C_ 0.37351 0.778466 0.885157 0.17695
C_ C_ 0.111876 0.708287 0.868508 0.17695
C_ C_ 0.384985 0.708837 0.876347 0.17695
C_ C_ 0.114154 0.703454 0.913509 -0.11473
C_ C_ 0.380915 0.699222 0.919361 -0.11473
C_ C_ 0.116835 0.738323 0.939043 0.23465
C_ C_ 0.375614 0.733647 0.946658 0.23465
C_ C_ 0.117209 0.776364 0.919228 -0.11473
C_ C_ 0.371618 0.773967 0.928871 -0.11473
C_ C_ 0.146265 0.765948 0.623948 0.17695
C_ C_ 0.380703 0.788089 0.630237 0.17695
C_ C_ 0.0981869 0.732483 0.615523 0.17695
C_ C_ 0.364288 0.718615 0.627121 0.17695
C_ C_ 0.0985114 0.738445 0.571636 -0.11473
C_ C_ 0.36363 0.720026 0.582829 -0.11473
C_ C_ 0.123618 0.755463 0.552492 0.23465
C_ C_ 0.372339 0.757399 0.560943 0.23465
C_ C_ 0.147801 0.772423 0.579627 -0.11473
C_ C_ 0.380658 0.791182 0.586459 -0.11473
C_ C_ 0.029734 -0.005530999999999953 0.756741 0.05793
C_ C_ 0.280257 0.00167261 0.742231 0.05793
C_ C_ 0.221877 0.502508 0.759212 0.05793
C_ C_ 0.469939 0.498286 0.746942 0.05793
Br Br 0.0725144 -0.0035800000000000276 0.767844 -0.17191
Br Br 0.322791 -0.000106705 0.72903 -0.17191
Br Br 0.17982 0.506948 0.75544 -0.17191
Br Br 0.427359 0.498876 0.743515 -0.17191
N_ N_ 0.118318 0.746851 0.851432 -0.272
N_ N_ 0.378104 0.746769 0.859714 -0.272
N_ N_ 0.115867 0.732899 0.983375 -0.12501
N_ N_ 0.378231 0.730949 0.992656 -0.12501
N_ N_ 0.120984 0.748804 0.640336 -0.272
N_ N_ 0.373794 0.753147 0.649101 -0.272
N_ N_ 0.125706 0.763791 0.508475 -0.12501
N_ N_ 0.371643 0.762694 0.516038 -0.12501
O_ O_ 0.0883352 0.784833 0.715505 -0.60745
O_ O_ 0.346458 0.793516 0.720743 -0.60745
O_ O_ 0.0950847 0.794896 0.782797 -0.60745
O_ O_ 0.343984 0.79439 0.789096 -0.60745
O_ O_ 0.157552 0.790365 0.787406 -0.60745
O_ O_ 0.406435 0.789615 0.788053 -0.60745
O_ O_ 0.150861 0.795181 0.718371 -0.60745
O_ O_ 0.404669 0.790389 0.71935 -0.60745
O_ O_ 0.150587 0.704115 0.780761 -0.60745
O_ O_ 0.407393 0.703449 0.781462 -0.60745
O_ O_ 0.157791 0.707865 0.713591 -0.60745
O_ O_ 0.408114 0.705904 0.71314 -0.60745
O_ O_ 0.0931391 0.698422 0.70718 -0.60745
O_ O_ 0.346368 0.70437 0.721106 -0.60745
O_ O_ 0.0890223 0.70852 0.775198 -0.60745
O_ O_ 0.345543 0.70934 0.790353 -0.60745
Zn Zn 0.622621 0.247449 0.284005 0.9476
Zn Zn 0.881519 0.25443 0.292818 0.9476
Zn Zn 0.620084 0.247888 0.214662 0.9476
Zn Zn 0.877398 0.250521 0.221016 0.9476
H_ H_ 0.515163 0.395707 0.188163 0.10932
H_ H_ 0.787678 0.418521 0.187443 0.10932
H_ H_ 0.580696 0.367959 0.308677 0.10932
H_ H_ 0.805688 0.340633 0.317784 0.10932
H_ H_ 0.536473 0.328816 0.198225 0.10932
H_ H_ 0.829588 0.368668 0.189582 0.10932
H_ H_ 0.561718 0.436886 0.299861 0.10932
H_ H_ 0.78007 0.412596 0.320683 0.10932
H_ H_ 0.717627 0.411779 0.31612 0.10932
H_ H_ 0.973779 0.420058 0.314253 0.10932
H_ H_ 0.669945 0.366018 0.184113 0.10932
H_ H_ 0.932864 0.354632 0.186986 0.10932
H_ H_ 0.691197 0.351445 0.315017 0.10932
H_ H_ 0.940609 0.359674 0.321817 0.10932
H_ H_ 0.713049 0.419792 0.183496 0.10932
H_ H_ 0.962654 0.415636 0.178264 0.10932
H_ H_ 0.70118 0.0737218 0.317442 0.10932
H_ H_ 0.968502 0.0784079 0.314948 0.10932
H_ H_ 0.694174 0.160791 0.191312 0.10932
H_ H_ 0.936187 0.149383 0.184704 0.10932
H_ H_ 0.670697 0.13462 0.318346 0.10932
H_ H_ 0.941267 0.148239 0.319607 0.10932
H_ H_ 0.728924 0.103639 0.188433 0.10932
H_ H_ 0.971067 0.0920878 0.182523 0.10932
H_ H_ 0.538129 0.0701653 0.186293 0.10932
H_ H_ 0.786451 0.0891889 0.180555 0.10932
H_ H_ 0.559962 0.151332 0.31651 0.10932
H_ H_ 0.811329 0.155655 0.317858 0.10932
H_ H_ 0.568202 0.132121 0.182457 0.10932
H_ H_ 0.822231 0.148229 0.182912 0.10932
H_ H_ 0.537167 0.0792099 0.32105 0.10932
H_ H_ 0.791878 0.084537 0.317925 0.10932
H_ H_ 0.620412 0.185235 0.366957 0.10932
H_ H_ 0.876108 0.188288 0.35856 0.10932
H_ H_ 0.611601 0.314732 0.353538 0.10932
H_ H_ 0.8886 0.314382 0.376193 0.10932
H_ H_ 0.609115 0.31655 0.43553 0.10932
H_ H_ 0.881906 0.306484 0.453299 0.10932
H_ H_ 0.629391 0.190083 0.442047 0.10932
H_ H_ 0.87739 0.175132 0.434922 0.10932
H_ H_ 0.645127 0.187802 0.147837 0.10932
H_ H_ 0.828631 0.257261 0.148344 0.10932
H_ H_ 0.604658 0.305751 0.135274 0.10932
H_ H_ 0.923689 0.253363 0.142601 0.10932
H_ H_ 0.601598 0.296059 0.0587578 0.10932
H_ H_ 0.920982 0.265501 0.0674182 0.10932
H_ H_ 0.645562 0.180237 0.066921 0.10932
H_ H_ 0.823553 0.260388 0.0737275 0.10932
C_ C_ 0.563227 0.344333 0.250182 -0.02249
C_ C_ 0.820404 0.348824 0.254441 -0.02249
C_ C_ 0.518452 0.464023 0.243138 -0.02249
C_ C_ 0.767435 0.460154 0.250499 -0.02249
C_ C_ 0.527017 0.390916 0.216489 -0.11473
C_ C_ 0.795712 0.405074 0.216236 -0.11473
C_ C_ 0.570261 0.376213 0.27748 -0.11473
C_ C_ 0.805407 0.361335 0.290119 -0.11473
C_ C_ 0.541551 0.353932 0.21791 -0.11473
C_ C_ 0.818367 0.373882 0.21729 -0.11473
C_ C_ 0.534371 0.423186 0.244239 -0.02249
C_ C_ 0.782737 0.419235 0.253857 -0.02249
C_ C_ 0.582119 0.306402 0.247804 0.6875
C_ C_ 0.838 0.308865 0.255256 0.6875
C_ C_ 0.557275 0.4151 0.273701 -0.11473
C_ C_ 0.78709 0.397545 0.290474 -0.11473
C_ C_ 0.68199 0.347058 0.247908 -0.02249
C_ C_ 0.937086 0.351425 0.253891 -0.02249
C_ C_ 0.734474 0.461004 0.2495 -0.02249
C_ C_ 0.984869 0.463668 0.243339 -0.02249
C_ C_ 0.710788 0.400457 0.28584 -0.11473
C_ C_ 0.965906 0.405326 0.285184 -0.11473
C_ C_ 0.685223 0.370572 0.210874 -0.11473
C_ C_ 0.944876 0.366522 0.215033 -0.11473
C_ C_ 0.692742 0.364981 0.286216 -0.11473
C_ C_ 0.947031 0.371093 0.290582 -0.11473
C_ C_ 0.716482 0.420447 0.249317 -0.02249
C_ C_ 0.968211 0.424246 0.246253 -0.02249
C_ C_ 0.660193 0.31003 0.249385 0.6875
C_ C_ 0.919839 0.31189 0.2569 0.6875
C_ C_ 0.704432 0.405727 0.212122 -0.11473
C_ C_ 0.959911 0.402525 0.210181 -0.11473
C_ C_ 0.680228 0.150881 0.255546 -0.02249
C_ C_ 0.93812 0.156156 0.252319 -0.02249
C_ C_ 0.736202 0.0444867 0.247766 -0.02249
C_ C_ 0.986232 0.0388983 0.245081 -0.02249
C_ C_ 0.701107 0.092367 0.289391 -0.11473
C_ C_ 0.962061 0.096752 0.287663 -0.11473
C_ C_ 0.697265 0.142243 0.21884 -0.11473
C_ C_ 0.945866 0.137652 0.214583 -0.11473
C_ C_ 0.684927 0.128474 0.29284 -0.11473
C_ C_ 0.946951 0.134975 0.290322 -0.11473
C_ C_ 0.71785 0.082869 0.252298 -0.02249
C_ C_ 0.970782 0.0804402 0.248583 -0.02249
C_ C_ 0.662068 0.190263 0.256125 0.6875
C_ C_ 0.919799 0.196272 0.253244 0.6875
C_ C_ 0.716282 0.109111 0.21795 -0.11473
C_ C_ 0.96343 0.10206 0.212958 -0.11473
C_ C_ 0.565236 0.145042 0.248335 -0.02249
C_ C_ 0.818713 0.15785 0.250342 -0.02249
C_ C_ 0.515593 0.0335512 0.25947 -0.02249
C_ C_ 0.768354 0.0431063 0.246006 -0.02249
C_ C_ 0.544877 0.0845953 0.214607 -0.11473
C_ C_ 0.795847 0.0996312 0.210185 -0.11473
C_ C_ 0.556723 0.130566 0.28841 -0.11473
C_ C_ 0.80842 0.14028 0.288516 -0.11473
C_ C_ 0.561545 0.120324 0.212574 -0.11473
C_ C_ 0.81211 0.134978 0.212108 -0.11473
C_ C_ 0.534323 0.0710567 0.254088 -0.02249
C_ C_ 0.787213 0.081676 0.248509 -0.02249
C_ C_ 0.584195 0.185678 0.245359 0.6875
C_ C_ 0.839576 0.194261 0.250354 0.6875
C_ C_ 0.541899 0.0925508 0.291001 -0.11473
C_ C_ 0.79291 0.10258 0.287016 -0.11473
C_ C_ 0.621937 0.216738 0.380247 0.17695
C_ C_ 0.879431 0.213541 0.378285 0.17695
C_ C_ 0.614287 0.289036 0.374781 0.17695
C_ C_ 0.884043 0.284951 0.388044 0.17695
C_ C_ 0.616197 0.291095 0.419365 -0.11473
C_ C_ 0.885136 0.279016 0.432003 -0.11473
C_ C_ 0.622447 0.25661 0.445005 0.23465
C_ C_ 0.884878 0.23802 0.448329 0.23465
C_ C_ 0.62679 0.218406 0.423879 -0.11473
C_ C_ 0.880421 0.205573 0.421192 -0.11473
C_ C_ 0.636817 0.211708 0.127054 0.17695
C_ C_ 0.849241 0.255954 0.1305 0.17695
C_ C_ 0.615518 0.278483 0.121822 0.17695
C_ C_ 0.902037 0.252118 0.126969 0.17695
C_ C_ 0.614781 0.275367 0.0776034 -0.11473
C_ C_ 0.900079 0.262987 0.0845166 -0.11473
C_ C_ 0.624167 0.239999 0.0567857 0.23465
C_ C_ 0.872316 0.26287 0.0633789 0.23465
C_ C_ 0.637628 0.208038 0.0830521 -0.11473
C_ C_ 0.846446 0.2628 0.0877835 -0.11473
C_ C_ 0.535167 0.499358 0.237473 0.05793
C_ C_ 0.782707 0.499248 0.252935 0.05793
C_ C_ 0.720602 1.00672642 0.244967 0.05793
C_ C_ 0.96878 1.0029387 0.244438 0.05793
Br Br 0.575056 0.499572 0.212551 -0.17191
Br Br 0.826379 0.499525 0.24776 -0.17191
Br Br 0.677745 0.00872873 0.237041 -0.17191
Br Br 0.925329 0.0044537 0.239823 -0.17191
N_ N_ 0.619803 0.251232 0.356842 -0.272
N_ N_ 0.882892 0.251878 0.362828 -0.272
N_ N_ 0.6255 0.261236 0.490495 -0.12501
N_ N_ 0.88162 0.22893 0.492054 -0.12501
N_ N_ 0.62572 0.247154 0.145245 -0.272
N_ N_ 0.876312 0.254323 0.150203 -0.272
N_ N_ 0.618824 0.232937 0.0117196 -0.12501
N_ N_ 0.869674 0.266332 0.018214 -0.12501
O_ O_ 0.584977 0.286605 0.211461 -0.60745
O_ O_ 0.847714 0.295423 0.22114 -0.60745
O_ O_ 0.593119 0.291919 0.281049 -0.60745
O_ O_ 0.845186 0.291867 0.288874 -0.60745
O_ O_ 0.654291 0.294155 0.285311 -0.60745
O_ O_ 0.910019 0.301374 0.291967 -0.60745
O_ O_ 0.647567 0.295654 0.215854 -0.60745
O_ O_ 0.912277 0.293329 0.223397 -0.60745
O_ O_ 0.655762 0.207477 0.291523 -0.60745
O_ O_ 0.917625 0.216454 0.28767 -0.60745
O_ O_ 0.656266 0.20956 0.222701 -0.60745
O_ O_ 0.903428 0.205808 0.221182 -0.60745
O_ O_ 0.593785 0.199211 0.2102 -0.60745
O_ O_ 0.844402 0.213454 0.217313 -0.60745
O_ O_ 0.591163 0.204991 0.279527 -0.60745
O_ O_ 0.853959 0.204932 0.284795 -0.60745
Zn Zn 0.622362 0.24838 0.787191 0.9476
Zn Zn 0.876624 0.247096 0.792571 0.9476
Zn Zn 0.623039 0.24683 0.715928 0.9476
Zn Zn 0.874501 0.246473 0.720277 0.9476
H_ H_ 0.517567 0.406767 0.683516 0.10932
H_ H_ 0.773811 0.402963 0.689511 0.10932
H_ H_ 0.572041 0.356333 0.80984 0.10932
H_ H_ 0.811536 0.344459 0.823096 0.10932
H_ H_ 0.544306 0.338165 0.679378 0.10932
H_ H_ 0.801738 0.339074 0.687747 0.10932
H_ H_ 0.546262 0.424007 0.807788 0.10932
H_ H_ 0.787996 0.416345 0.824735 0.10932
H_ H_ 0.722996 0.406071 0.820413 0.10932
H_ H_ 0.973632 0.412926 0.811608 0.10932
H_ H_ 0.672766 0.360258 0.686878 0.10932
H_ H_ 0.927407 0.350266 0.685081 0.10932
H_ H_ 0.692796 0.345583 0.820361 0.10932
H_ H_ 0.939189 0.353937 0.81922 0.10932
H_ H_ 0.707995 0.42291 0.689288 0.10932
H_ H_ 0.952555 0.413874 0.680168 0.10932
H_ H_ 0.721379 0.08773 0.824855 0.10932
H_ H_ 0.962611 0.0716361 0.815357 0.10932
H_ H_ 0.676173 0.141959 0.692892 0.10932
H_ H_ 0.935051 0.144202 0.681558 0.10932
H_ H_ 0.691748 0.148666 0.828863 0.10932
H_ H_ 0.939325 0.14429 0.819113 0.10932
H_ H_ 0.701336 0.0725352 0.693834 0.10932
H_ H_ 0.966021 0.0851785 0.677697 0.10932
H_ H_ 0.54115 0.0749435 0.682546 0.10932
H_ H_ 0.767303 0.093177 0.694841 0.10932
H_ H_ 0.54805 0.161652 0.812162 0.10932
H_ H_ 0.833884 0.122575 0.815993 0.10932
H_ H_ 0.574291 0.136976 0.685531 0.10932
H_ H_ 0.799672 0.156954 0.692645 0.10932
H_ H_ 0.518568 0.0957357 0.815171 0.10932
H_ H_ 0.806947 0.0578936 0.816177 0.10932
H_ H_ 0.630981 0.318725 0.858183 0.10932
H_ H_ 0.922843 0.268926 0.857716 0.10932
H_ H_ 0.607882 0.192079 0.861453 0.10932
H_ H_ 0.834644 0.228785 0.875706 0.10932
H_ H_ 0.598027 0.197563 0.93689 0.10932
H_ H_ 0.840541 0.236968 0.953135 0.10932
H_ H_ 0.620426 0.323335 0.934042 0.10932
H_ H_ 0.930851 0.277151 0.932521 0.10932
H_ H_ 0.629184 0.179915 0.647751 0.10932
H_ H_ 0.9179 0.231018 0.648794 0.10932
H_ H_ 0.614054 0.30693 0.643056 0.10932
H_ H_ 0.830007 0.272204 0.640167 0.10932
H_ H_ 0.611399 0.30837 0.559972 0.10932
H_ H_ 0.83215 0.274583 0.566069 0.10932
H_ H_ 0.624224 0.175012 0.572204 0.10932
H_ H_ 0.922121 0.228905 0.572776 0.10932
C_ C_ 0.561709 0.342893 0.743336 -0.02249
C_ C_ 0.811734 0.339829 0.756535 -0.02249
C_ C_ 0.517384 0.460033 0.744434 -0.02249
C_ C_ 0.764467 0.457075 0.75558 -0.02249
C_ C_ 0.530073 0.394295 0.708507 -0.11473
C_ C_ 0.782821 0.392941 0.718802 -0.11473
C_ C_ 0.561196 0.367427 0.779904 -0.11473
C_ C_ 0.8052 0.358505 0.794702 -0.11473
C_ C_ 0.54475 0.355507 0.706973 -0.11473
C_ C_ 0.798335 0.354965 0.71917 -0.11473
C_ C_ 0.532579 0.419687 0.743918 -0.02249
C_ C_ 0.781054 0.416622 0.755875 -0.02249
C_ C_ 0.58329 0.306742 0.744843 0.6875
C_ C_ 0.833863 0.304535 0.755452 0.6875
C_ C_ 0.545039 0.403065 0.781559 -0.11473
C_ C_ 0.791257 0.399567 0.794861 -0.11473
C_ C_ 0.682429 0.347363 0.75288 -0.02249
C_ C_ 0.929367 0.349321 0.753531 -0.02249
C_ C_ 0.732953 0.458909 0.756808 -0.02249
C_ C_ 0.981802 0.461449 0.740716 -0.02249
C_ C_ 0.710947 0.397653 0.791911 -0.11473
C_ C_ 0.963752 0.399848 0.78335 -0.11473
C_ C_ 0.683642 0.371081 0.71709 -0.11473
C_ C_ 0.935127 0.365319 0.713087 -0.11473
C_ C_ 0.69555 0.361525 0.79003 -0.11473
C_ C_ 0.944333 0.366186 0.787444 -0.11473
C_ C_ 0.713963 0.421277 0.754583 -0.02249
C_ C_ 0.966191 0.419437 0.744535 -0.02249
C_ C_ 0.661261 0.311342 0.754516 0.6875
C_ C_ 0.91326 0.308368 0.755396 0.6875
C_ C_ 0.702501 0.406714 0.71653 -0.11473
C_ C_ 0.950507 0.403238 0.711119 -0.11473
C_ C_ 0.681287 0.15052 0.759687 -0.02249
C_ C_ 0.9313 0.146424 0.750495 -0.02249
C_ C_ 0.732447 0.0370974 0.759422 -0.02249
C_ C_ 0.983338 0.0340616 0.746898 -0.02249
C_ C_ 0.716227 0.102342 0.795048 -0.11473
C_ C_ 0.957828 0.0895845 0.786501 -0.11473
C_ C_ 0.686591 0.129365 0.72218 -0.11473
C_ C_ 0.940423 0.130225 0.711611 -0.11473
C_ C_ 0.696067 0.135535 0.796767 -0.11473
C_ C_ 0.941885 0.127732 0.789041 -0.11473
C_ C_ 0.717709 0.0775386 0.758188 -0.02249
C_ C_ 0.966584 0.0743433 0.747383 -0.02249
C_ C_ 0.663214 0.189549 0.757797 0.6875
C_ C_ 0.913528 0.186693 0.75159 0.6875
C_ C_ 0.703087 0.0918013 0.722389 -0.11473
C_ C_ 0.958248 0.0942735 0.710074 -0.11473
C_ C_ 0.561898 0.1524 0.749464 -0.02249
C_ C_ 0.81655 0.148225 0.757315 -0.02249
C_ C_ 0.513175 0.0391188 0.749602 -0.02249
C_ C_ 0.763275 0.0351943 0.756321 -0.02249
C_ C_ 0.542354 0.0920913 0.71109 -0.11473
C_ C_ 0.783014 0.0989794 0.720668 -0.11473
C_ C_ 0.544193 0.143029 0.783209 -0.11473
C_ C_ 0.820948 0.11793 0.788999 -0.11473
C_ C_ 0.561529 0.125744 0.713695 -0.11473
C_ C_ 0.798516 0.137675 0.721561 -0.11473
C_ C_ 0.52918 0.0789437 0.749018 -0.02249
C_ C_ 0.782589 0.0727812 0.756356 -0.02249
C_ C_ 0.58284 0.189236 0.748746 0.6875
C_ C_ 0.837566 0.183894 0.758635 0.6875
C_ C_ 0.529234 0.10487 0.784439 -0.11473
C_ C_ 0.803365 0.0809938 0.789321 -0.11473
C_ C_ 0.626256 0.291653 0.87624 0.17695
C_ C_ 0.905206 0.262101 0.877625 0.17695
C_ C_ 0.611795 0.221252 0.877157 0.17695
C_ C_ 0.854875 0.241474 0.889065 0.17695
C_ C_ 0.606415 0.224585 0.92048 -0.11473
C_ C_ 0.858676 0.245457 0.932265 -0.11473
C_ C_ 0.615384 0.259639 0.942065 0.23465
C_ C_ 0.8866 0.256656 0.949027 0.23465
C_ C_ 0.620396 0.294477 0.919404 -0.11473
C_ C_ 0.909255 0.268588 0.920157 -0.11473
C_ C_ 0.622832 0.205776 0.628902 0.17695
C_ C_ 0.899127 0.240976 0.631262 0.17695
C_ C_ 0.615106 0.279551 0.624088 0.17695
C_ C_ 0.848333 0.256456 0.62733 0.17695
C_ C_ 0.615162 0.280647 0.57929 -0.11473
C_ C_ 0.849285 0.259142 0.583039 -0.11473
C_ C_ 0.617096 0.241511 0.55855 0.23465
C_ C_ 0.875234 0.24941 0.562622 0.23465
C_ C_ 0.619558 0.205271 0.584017 -0.11473
C_ C_ 0.900614 0.23922 0.586791 -0.11473
C_ C_ 0.533122 0.49906 0.746193 0.05793
C_ C_ 0.780344 0.496646 0.752214 0.05793
C_ C_ 0.717297 0.000580726 0.766549 0.05793
C_ C_ 0.96793 -0.004033999999999982 0.74603 0.05793
Br Br 0.575589 0.500626 0.747324 -0.17191
Br Br 0.822333 0.501215 0.738769 -0.17191
Br Br 0.675142 0.00579976 0.77717 -0.17191
Br Br 0.926524 -0.0023060000000000302 0.730582 -0.17191
N_ N_ 0.620486 0.255612 0.855226 -0.272
N_ N_ 0.87756 0.251839 0.861839 -0.272
N_ N_ 0.614313 0.262556 0.986985 -0.12501
N_ N_ 0.890615 0.256313 0.994046 -0.12501
N_ N_ 0.620295 0.244672 0.6466 -0.272
N_ N_ 0.873103 0.249885 0.651053 -0.272
N_ N_ 0.61365 0.236332 0.514289 -0.12501
N_ N_ 0.877495 0.256632 0.519183 -0.12501
O_ O_ 0.59069 0.289622 0.711072 -0.60745
O_ O_ 0.84266 0.289982 0.721649 -0.60745
O_ O_ 0.593171 0.291511 0.7797 -0.60745
O_ O_ 0.841206 0.288682 0.789871 -0.60745
O_ O_ 0.653064 0.294404 0.789467 -0.60745
O_ O_ 0.906976 0.293485 0.790829 -0.60745
O_ O_ 0.651242 0.294743 0.721636 -0.60745
O_ O_ 0.90736 0.287982 0.721565 -0.60745
O_ O_ 0.654397 0.206088 0.792262 -0.60745
O_ O_ 0.90801 0.202404 0.786596 -0.60745
O_ O_ 0.655318 0.205628 0.721928 -0.60745
O_ O_ 0.904049 0.20368 0.717525 -0.60745
O_ O_ 0.594429 0.200773 0.715405 -0.60745
O_ O_ 0.845641 0.20155 0.725545 -0.60745
O_ O_ 0.593455 0.203933 0.783211 -0.60745
O_ O_ 0.844776 0.200777 0.794419 -0.60745
Zn Zn 0.62736 0.750127 0.284717 0.9476
Zn Zn 0.870644 0.74863 0.285652 0.9476
Zn Zn 0.625036 0.753615 0.216374 0.9476
Zn Zn 0.871057 0.752168 0.215294 0.9476
H_ H_ 0.523515 0.909393 0.194643 0.10932
H_ H_ 0.774088 0.91627 0.185685 0.10932
H_ H_ 0.556295 0.848055 0.327824 0.10932
H_ H_ 0.819988 0.860557 0.319864 0.10932
H_ H_ 0.551697 0.844256 0.193199 0.10932
H_ H_ 0.802712 0.850993 0.183486 0.10932
H_ H_ 0.534504 0.916481 0.32614 0.10932
H_ H_ 0.791614 0.925693 0.319157 0.10932
H_ H_ 0.722321 0.918375 0.316952 0.10932
H_ H_ 0.954963 0.928609 0.312717 0.10932
H_ H_ 0.674769 0.866183 0.18733 0.10932
H_ H_ 0.935707 0.846511 0.185947 0.10932
H_ H_ 0.693854 0.851659 0.318593 0.10932
H_ H_ 0.932824 0.861272 0.320678 0.10932
H_ H_ 0.701608 0.931781 0.181283 0.10932
H_ H_ 0.96905 0.909483 0.182653 0.10932
H_ H_ 0.728931 0.593384 0.310303 0.10932
H_ H_ 0.960883 0.577107 0.309989 0.10932
H_ H_ 0.67494 0.636764 0.18067 0.10932
H_ H_ 0.931582 0.652692 0.181019 0.10932
H_ H_ 0.698612 0.654863 0.308753 0.10932
H_ H_ 0.928046 0.636882 0.315107 0.10932
H_ H_ 0.706829 0.574377 0.181255 0.10932
H_ H_ 0.958871 0.583703 0.178457 0.10932
H_ H_ 0.532799 0.586442 0.18106 0.10932
H_ H_ 0.78365 0.579787 0.181364 0.10932
H_ H_ 0.572017 0.642031 0.316004 0.10932
H_ H_ 0.811565 0.649487 0.315493 0.10932
H_ H_ 0.560318 0.651428 0.17894 0.10932
H_ H_ 0.811566 0.642975 0.178936 0.10932
H_ H_ 0.546807 0.574121 0.312324 0.10932
H_ H_ 0.782323 0.58689 0.31594 0.10932
H_ H_ 0.636956 0.687717 0.353775 0.10932
H_ H_ 0.822818 0.768346 0.359053 0.10932
H_ H_ 0.627549 0.816112 0.364142 0.10932
H_ H_ 0.914499 0.725242 0.361192 0.10932
H_ H_ 0.628551 0.810974 0.442404 0.10932
H_ H_ 0.914756 0.728594 0.439715 0.10932
H_ H_ 0.652498 0.686383 0.430949 0.10932
H_ H_ 0.823175 0.766306 0.436305 0.10932
H_ H_ 0.572813 0.757222 0.14687 0.10932
H_ H_ 0.873194 0.690281 0.137003 0.10932
H_ H_ 0.669087 0.761205 0.138907 0.10932
H_ H_ 0.875605 0.820024 0.142361 0.10932
H_ H_ 0.664048 0.762772 0.0658785 0.10932
H_ H_ 0.8753 0.823061 0.0646055 0.10932
H_ H_ 0.566864 0.76421 0.0730874 0.10932
H_ H_ 0.879919 0.69447 0.0595469 0.10932
C_ C_ 0.563556 0.8445 0.259511 -0.02249
C_ C_ 0.815354 0.85245 0.250241 -0.02249
C_ C_ 0.512893 0.958576 0.260587 -0.02249
C_ C_ 0.76682 0.965852 0.251477 -0.02249
C_ C_ 0.535907 0.898593 0.223163 -0.11473
C_ C_ 0.784779 0.904998 0.213842 -0.11473
C_ C_ 0.55377 0.86236 0.297973 -0.11473
C_ C_ 0.809261 0.871686 0.289872 -0.11473
C_ C_ 0.551825 0.86127 0.222046 -0.11473
C_ C_ 0.799817 0.86601 0.213435 -0.11473
C_ C_ 0.528715 0.916675 0.260119 -0.02249
C_ C_ 0.781685 0.925159 0.252064 -0.02249
C_ C_ 0.584265 0.807412 0.255894 0.6875
C_ C_ 0.831699 0.811517 0.251034 0.6875
C_ C_ 0.540643 0.900796 0.296233 -0.11473
C_ C_ 0.793959 0.909698 0.289238 -0.11473
C_ C_ 0.685537 0.851583 0.252257 -0.02249
C_ C_ 0.933912 0.845805 0.255001 -0.02249
C_ C_ 0.735475 0.96857 0.250558 -0.02249
C_ C_ 0.983141 0.963195 0.245538 -0.02249
C_ C_ 0.712118 0.90675 0.286921 -0.11473
C_ C_ 0.953773 0.909955 0.28701 -0.11473
C_ C_ 0.685644 0.877623 0.215737 -0.11473
C_ C_ 0.943367 0.861363 0.214721 -0.11473
C_ C_ 0.697861 0.86817 0.287866 -0.11473
C_ C_ 0.939928 0.870581 0.290384 -0.11473
C_ C_ 0.717214 0.928218 0.248065 -0.02249
C_ C_ 0.963863 0.92456 0.248103 -0.02249
C_ C_ 0.665092 0.81475 0.249621 0.6875
C_ C_ 0.91069 0.810649 0.255872 0.6875
C_ C_ 0.701025 0.914808 0.212921 -0.11473
C_ C_ 0.958696 0.899472 0.212358 -0.11473
C_ C_ 0.679972 0.649798 0.247503 -0.02249
C_ C_ 0.928689 0.651802 0.247501 -0.02249
C_ C_ 0.73689 0.536687 0.243051 -0.02249
C_ C_ 0.98245 0.538987 0.24215 -0.02249
C_ C_ 0.7178 0.603269 0.281469 -0.11473
C_ C_ 0.956661 0.595164 0.281016 -0.11473
C_ C_ 0.686584 0.628696 0.208555 -0.11473
C_ C_ 0.94066 0.638734 0.208891 -0.11473
C_ C_ 0.698204 0.636997 0.281629 -0.11473
C_ C_ 0.938819 0.631205 0.284545 -0.11473
C_ C_ 0.720675 0.578044 0.24482 -0.02249
C_ C_ 0.964081 0.578473 0.24296 -0.02249
C_ C_ 0.664097 0.691833 0.248955 0.6875
C_ C_ 0.909086 0.690674 0.247918 0.6875
C_ C_ 0.707075 0.593397 0.207724 -0.11473
C_ C_ 0.955063 0.599979 0.206136 -0.11473
C_ C_ 0.569136 0.653486 0.248661 -0.02249
C_ C_ 0.818195 0.649775 0.246542 -0.02249
C_ C_ 0.521348 0.538133 0.247798 -0.02249
C_ C_ 0.767743 0.5371 0.252586 -0.02249
C_ C_ 0.543173 0.599747 0.209377 -0.11473
C_ C_ 0.791836 0.593166 0.211424 -0.11473
C_ C_ 0.565816 0.628806 0.286019 -0.11473
C_ C_ 0.80647 0.635401 0.284653 -0.11473
C_ C_ 0.558531 0.637562 0.209764 -0.11473
C_ C_ 0.805434 0.631471 0.209769 -0.11473
C_ C_ 0.538033 0.576705 0.24606 -0.02249
C_ C_ 0.783922 0.575614 0.24954 -0.02249
C_ C_ 0.585177 0.692907 0.25026 0.6875
C_ C_ 0.836886 0.686312 0.244754 0.6875
C_ C_ 0.549503 0.591336 0.284204 -0.11473
C_ C_ 0.790952 0.598415 0.285434 -0.11473
C_ C_ 0.634906 0.715113 0.374956 0.17695
C_ C_ 0.844545 0.764785 0.376736 0.17695
C_ C_ 0.63035 0.787062 0.380172 0.17695
C_ C_ 0.893337 0.736503 0.377391 0.17695
C_ C_ 0.631662 0.785376 0.424185 -0.11473
C_ C_ 0.894876 0.738985 0.421428 -0.11473
C_ C_ 0.63475 0.746829 0.443941 0.23465
C_ C_ 0.86928 0.753895 0.443055 0.23465
C_ C_ 0.638697 0.71166 0.418213 -0.11473
C_ C_ 0.843976 0.764862 0.420405 -0.11473
C_ C_ 0.594083 0.761455 0.129499 0.17695
C_ C_ 0.873462 0.719402 0.121578 0.17695
C_ C_ 0.64623 0.760506 0.124478 0.17695
C_ C_ 0.87795 0.792125 0.125454 0.17695
C_ C_ 0.644175 0.763802 0.0812831 -0.11473
C_ C_ 0.875843 0.794417 0.0809603 -0.11473
C_ C_ 0.615543 0.765122 0.0597017 0.23465
C_ C_ 0.874326 0.758092 0.0576032 0.23465
C_ C_ 0.590242 0.763453 0.0857154 -0.11473
C_ C_ 0.87736 0.721404 0.0787363 -0.11473
C_ C_ 0.530154 0.994225 0.255697 0.05793
C_ C_ 0.783363 1.00268548 0.250007 0.05793
C_ C_ 0.719756 0.49945 0.243477 0.05793
C_ C_ 0.968705 0.501382 0.246164 0.05793
Br Br 0.573004 0.990706 0.245406 -0.17191
Br Br 0.825509 0.998508 0.259166 -0.17191
Br Br 0.677496 0.503564 0.256015 -0.17191
Br Br 0.926131 0.498463 0.245392 -0.17191
N_ N_ 0.63128 0.752857 0.356191 -0.272
N_ N_ 0.868115 0.747657 0.356045 -0.272
N_ N_ 0.631291 0.741725 0.487759 -0.12501
N_ N_ 0.866271 0.744685 0.487432 -0.12501
N_ N_ 0.621662 0.757798 0.148644 -0.272
N_ N_ 0.874156 0.754748 0.144012 -0.272
N_ N_ 0.611844 0.762398 0.0156012 -0.12501
N_ N_ 0.878767 0.762028 0.0126886 -0.12501
O_ O_ 0.594015 0.797008 0.22059 -0.60745
O_ O_ 0.837429 0.79232 0.217465 -0.60745
O_ O_ 0.595021 0.78912 0.289834 -0.60745
O_ O_ 0.843533 0.798183 0.285095 -0.60745
O_ O_ 0.656374 0.798368 0.283912 -0.60745
O_ O_ 0.905354 0.790743 0.28892 -0.60745
O_ O_ 0.657807 0.796857 0.214813 -0.60745
O_ O_ 0.897472 0.802321 0.221976 -0.60745
O_ O_ 0.658376 0.708196 0.283657 -0.60745
O_ O_ 0.900393 0.70373 0.283198 -0.60745
O_ O_ 0.656486 0.70939 0.216595 -0.60745
O_ O_ 0.90873 0.715375 0.218126 -0.60745
O_ O_ 0.592639 0.712087 0.216762 -0.60745
O_ O_ 0.849927 0.695942 0.211856 -0.60745
O_ O_ 0.597957 0.704361 0.284143 -0.60745
O_ O_ 0.837806 0.71022 0.276628 -0.60745
Zn Zn 0.626956 0.750807 0.784735 0.9476
Zn Zn 0.873162 0.75009 0.785779 0.9476
Zn Zn 0.625648 0.750377 0.715785 0.9476
Zn Zn 0.86894 0.750961 0.715418 0.9476
H_ H_ 0.539196 0.923505 0.676318 0.10932
H_ H_ 0.775673 0.909808 0.683969 0.10932
H_ H_ 0.566585 0.851782 0.8065 0.10932
H_ H_ 0.823927 0.863131 0.814942 0.10932
H_ H_ 0.565857 0.857964 0.671733 0.10932
H_ H_ 0.796897 0.839945 0.687441 0.10932
H_ H_ 0.537747 0.914116 0.811415 0.10932
H_ H_ 0.792935 0.926064 0.817063 0.10932
H_ H_ 0.71699 0.913421 0.827104 0.10932
H_ H_ 0.963926 0.914955 0.817441 0.10932
H_ H_ 0.675819 0.860196 0.693235 0.10932
H_ H_ 0.936845 0.850848 0.679723 0.10932
H_ H_ 0.69377 0.84526 0.824806 0.10932
H_ H_ 0.931206 0.854828 0.816769 0.10932
H_ H_ 0.704116 0.928314 0.694979 0.10932
H_ H_ 0.963569 0.913638 0.682105 0.10932
H_ H_ 0.709864 0.575222 0.827395 0.10932
H_ H_ 0.963233 0.582975 0.811359 0.10932
H_ H_ 0.685109 0.644258 0.690382 0.10932
H_ H_ 0.920861 0.636847 0.681269 0.10932
H_ H_ 0.684227 0.641817 0.826634 0.10932
H_ H_ 0.938007 0.650142 0.812004 0.10932
H_ H_ 0.7115 0.579638 0.690909 0.10932
H_ H_ 0.953585 0.579719 0.67437 0.10932
H_ H_ 0.537582 0.577433 0.674394 0.10932
H_ H_ 0.775525 0.585196 0.684191 0.10932
H_ H_ 0.561633 0.653626 0.809495 0.10932
H_ H_ 0.82451 0.634475 0.815911 0.10932
H_ H_ 0.561589 0.647625 0.673891 0.10932
H_ H_ 0.806173 0.652148 0.684467 0.10932
H_ H_ 0.537171 0.586161 0.810137 0.10932
H_ H_ 0.800383 0.568181 0.813932 0.10932
H_ H_ 0.667959 0.724178 0.858055 0.10932
H_ H_ 0.877976 0.683114 0.852142 0.10932
H_ H_ 0.583832 0.783659 0.859447 0.10932
H_ H_ 0.870157 0.814889 0.863613 0.10932
H_ H_ 0.585521 0.786072 0.93574 0.10932
H_ H_ 0.859669 0.801882 0.941411 0.10932
H_ H_ 0.673495 0.733269 0.937518 0.10932
H_ H_ 0.876628 0.676597 0.927613 0.10932
H_ H_ 0.631242 0.684082 0.639458 0.10932
H_ H_ 0.864563 0.818558 0.652281 0.10932
H_ H_ 0.642674 0.811462 0.649475 0.10932
H_ H_ 0.879953 0.693357 0.63311 0.10932
H_ H_ 0.656197 0.814182 0.573248 0.10932
H_ H_ 0.871072 0.699539 0.558865 0.10932
H_ H_ 0.636522 0.687132 0.561079 0.10932
H_ H_ 0.855235 0.830905 0.575844 0.10932
C_ C_ 0.568501 0.848296 0.740471 -0.02249
C_ C_ 0.808235 0.841885 0.752683 -0.02249
C_ C_ 0.517542 0.963642 0.742446 -0.02249
C_ C_ 0.762032 0.960728 0.755093 -0.02249
C_ C_ 0.546598 0.907515 0.704904 -0.11473
C_ C_ 0.781942 0.896969 0.714329 -0.11473
C_ C_ 0.556422 0.86302 0.778504 -0.11473
C_ C_ 0.808062 0.868121 0.788287 -0.11473
C_ C_ 0.562763 0.871329 0.703072 -0.11473
C_ C_ 0.795771 0.857792 0.715484 -0.11473
C_ C_ 0.536118 0.922915 0.743286 -0.02249
C_ C_ 0.777782 0.920928 0.752567 -0.02249
C_ C_ 0.587609 0.811043 0.740176 0.6875
C_ C_ 0.828224 0.804483 0.750229 0.6875
C_ C_ 0.539755 0.898852 0.779644 -0.11473
C_ C_ 0.792751 0.905893 0.789023 -0.11473
C_ C_ 0.684538 0.846752 0.759059 -0.02249
C_ C_ 0.927979 0.850555 0.746441 -0.02249
C_ C_ 0.730957 0.962908 0.761892 -0.02249
C_ C_ 0.983119 0.958138 0.749738 -0.02249
C_ C_ 0.711365 0.900743 0.797511 -0.11473
C_ C_ 0.955747 0.903905 0.787065 -0.11473
C_ C_ 0.686901 0.869811 0.72236 -0.11473
C_ C_ 0.939115 0.86647 0.709243 -0.11473
C_ C_ 0.697653 0.861843 0.796464 -0.11473
C_ C_ 0.938465 0.867398 0.785826 -0.11473
C_ C_ 0.712457 0.92508 0.761794 -0.02249
C_ C_ 0.963952 0.920958 0.750596 -0.02249
C_ C_ 0.667244 0.807884 0.758071 0.6875
C_ C_ 0.909513 0.812081 0.748625 0.6875
C_ C_ 0.699635 0.909946 0.723656 -0.11473
C_ C_ 0.956557 0.899875 0.711507 -0.11473
C_ C_ 0.681158 0.646774 0.758315 -0.02249
C_ C_ 0.930068 0.651998 0.74644 -0.02249
C_ C_ 0.733926 0.535161 0.758951 -0.02249
C_ C_ 0.980746 0.536624 0.744625 -0.02249
C_ C_ 0.706572 0.590178 0.798146 -0.11473
C_ C_ 0.958243 0.598581 0.782034 -0.11473
C_ C_ 0.690051 0.628313 0.72151 -0.11473
C_ C_ 0.93272 0.628403 0.708084 -0.11473
C_ C_ 0.690181 0.627558 0.797637 -0.11473
C_ C_ 0.939138 0.633005 0.783417 -0.11473
C_ C_ 0.716524 0.57314 0.759839 -0.02249
C_ C_ 0.96319 0.576404 0.745053 -0.02249
C_ C_ 0.663081 0.685368 0.756854 0.6875
C_ C_ 0.91007 0.690128 0.7477 0.6875
C_ C_ 0.70711 0.591979 0.722285 -0.11473
C_ C_ 0.952185 0.593674 0.706418 -0.11473
C_ C_ 0.566886 0.653565 0.74258 -0.02249
C_ C_ 0.815073 0.649891 0.752242 -0.02249
C_ C_ 0.51658 0.535901 0.74586 -0.02249
C_ C_ 0.764935 0.535038 0.752019 -0.02249
C_ C_ 0.544035 0.59262 0.70453 -0.11473
C_ C_ 0.788061 0.596023 0.712872 -0.11473
C_ C_ 0.556357 0.636478 0.779775 -0.11473
C_ C_ 0.81364 0.626928 0.78741 -0.11473
C_ C_ 0.556956 0.633681 0.703194 -0.11473
C_ C_ 0.803342 0.634567 0.713566 -0.11473
C_ C_ 0.535324 0.575993 0.743912 -0.02249
C_ C_ 0.78359 0.574057 0.750904 -0.02249
C_ C_ 0.586687 0.692916 0.744019 0.6875
C_ C_ 0.833801 0.68821 0.749192 0.6875
C_ C_ 0.540453 0.599711 0.780328 -0.11473
C_ C_ 0.797332 0.588782 0.787634 -0.11473
C_ C_ 0.649545 0.735722 0.875468 0.17695
C_ C_ 0.876039 0.711126 0.872453 0.17695
C_ C_ 0.603416 0.771543 0.875944 0.17695
C_ C_ 0.870256 0.783356 0.87877 0.17695
C_ C_ 0.602982 0.769418 0.921472 -0.11473
C_ C_ 0.868649 0.779838 0.922619 -0.11473
C_ C_ 0.628919 0.757916 0.943736 0.23465
C_ C_ 0.872031 0.740614 0.939478 0.23465
C_ C_ 0.653154 0.741036 0.919715 -0.11473
C_ C_ 0.875411 0.707028 0.91456 -0.11473
C_ C_ 0.634212 0.714185 0.622814 0.17695
C_ C_ 0.864272 0.794358 0.630168 0.17695
C_ C_ 0.639921 0.785276 0.628158 0.17695
C_ C_ 0.874105 0.724114 0.619786 0.17695
C_ C_ 0.645935 0.786753 0.584573 -0.11473
C_ C_ 0.870128 0.727776 0.576594 -0.11473
C_ C_ 0.644919 0.752293 0.559119 0.23465
C_ C_ 0.865314 0.766401 0.558575 0.23465
C_ C_ 0.636369 0.715647 0.578266 -0.11473
C_ C_ 0.860069 0.799972 0.586715 -0.11473
C_ C_ 0.531353 0.003430000000000044 0.745705 0.05793
C_ C_ 0.777467 -0.002599000000000018 0.745944 0.05793
C_ C_ 0.719062 0.496815 0.760744 0.05793
C_ C_ 0.965399 0.498282 0.743578 0.05793
Br Br 0.574645 0.00420419 0.75416 -0.17191
Br Br 0.820508 0.999739 0.731476 -0.17191
Br Br 0.676095 0.498128 0.772005 -0.17191
Br Br 0.923011 0.497771 0.760493 -0.17191
N_ N_ 0.625389 0.751574 0.854737 -0.272
N_ N_ 0.871031 0.749105 0.85527 -0.272
N_ N_ 0.632689 0.764555 0.989534 -0.12501
N_ N_ 0.8713 0.734439 0.985984 -0.12501
N_ N_ 0.634964 0.749128 0.645677 -0.272
N_ N_ 0.872085 0.756776 0.644788 -0.272
N_ N_ 0.648833 0.756315 0.51488 -0.12501
N_ N_ 0.863499 0.773105 0.513899 -0.12501
O_ O_ 0.595143 0.793151 0.706925 -0.60745
O_ O_ 0.834627 0.78798 0.716124 -0.60745
O_ O_ 0.600894 0.799126 0.773412 -0.60745
O_ O_ 0.839047 0.789275 0.784221 -0.60745
O_ O_ 0.659983 0.789752 0.792795 -0.60745
O_ O_ 0.900796 0.799815 0.783432 -0.60745
O_ O_ 0.657962 0.79263 0.722536 -0.60745
O_ O_ 0.898406 0.796445 0.715651 -0.60745
O_ O_ 0.651611 0.698575 0.790327 -0.60745
O_ O_ 0.903038 0.707898 0.784015 -0.60745
O_ O_ 0.65974 0.705192 0.723273 -0.60745
O_ O_ 0.901041 0.707596 0.712821 -0.60745
O_ O_ 0.599768 0.702509 0.710029 -0.60745
O_ O_ 0.838005 0.707179 0.715774 -0.60745
O_ O_ 0.590056 0.715116 0.77714 -0.60745
O_ O_ 0.84316 0.703909 0.784295 -0.60745
