_cell_length_a 44.444
_cell_length_b 32.3360000049186
_cell_length_c 31.843999878906452
_cell_angle_alpha 89.99799923859553
_cell_angle_beta 91.13600050494348
_cell_angle_gamma 89.9990006550086
_symmetry_space_group_name_H-M         'P 1'
_symmetry_Int_Tables_number            1
loop_
_symmetry_equiv_pos_as_xyz
   'x, y, z'
                         
loop_
_atom_site_label
_atom_site_type_symbol
_atom_site_fract_x 
_atom_site_fract_y
_atom_site_fract_z
_atom_site_charge
Zn Zn 0.12638 0.252216 0.284376 0.9476
Zn Zn 0.376691 0.249136 0.288451 0.9476
Zn Zn 0.125688 0.246879 0.215268 0.9476
Zn Zn 0.372617 0.24672 0.218951 0.9476
H_ H_ 0.0296508 0.412509 0.178117 0.10932
H_ H_ 0.291933 0.422959 0.187267 0.10932
H_ H_ 0.0728234 0.357621 0.313741 0.10932
H_ H_ 0.309441 0.345847 0.325107 0.10932
H_ H_ 0.0574305 0.34655 0.179704 0.10932
H_ H_ 0.318922 0.357315 0.187873 0.10932
H_ H_ 0.047862 0.426663 0.310964 0.10932
H_ H_ 0.282641 0.415575 0.321625 0.10932
H_ H_ 0.204197 0.427772 0.303682 0.10932
H_ H_ 0.448263 0.427679 0.313005 0.10932
H_ H_ 0.209219 0.339561 0.184684 0.10932
H_ H_ 0.445463 0.337888 0.187037 0.10932
H_ H_ 0.174734 0.3674 0.305688 0.10932
H_ H_ 0.424431 0.359239 0.313817 0.10932
H_ H_ 0.231338 0.404609 0.18046 0.10932
H_ H_ 0.469776 0.404328 0.181774 0.10932
H_ H_ 0.22165 0.087511 0.324666 0.10932
H_ H_ 0.457513 0.0702743 0.309855 0.10932
H_ H_ 0.183326 0.137351 0.187739 0.10932
H_ H_ 0.43434 0.153818 0.184912 0.10932
H_ H_ 0.198617 0.154697 0.318494 0.10932
H_ H_ 0.434721 0.138967 0.317582 0.10932
H_ H_ 0.205117 0.0622471 0.195186 0.10932
H_ H_ 0.466768 0.089926 0.178465 0.10932
H_ H_ 0.0424978 0.0816694 0.18055 0.10932
H_ H_ 0.279318 0.0859641 0.185231 0.10932
H_ H_ 0.0647506 0.153947 0.317687 0.10932
H_ H_ 0.321507 0.13402 0.322522 0.10932
H_ H_ 0.0753447 0.142373 0.184328 0.10932
H_ H_ 0.312089 0.147108 0.189611 0.10932
H_ H_ 0.0338332 0.0853714 0.315953 0.10932
H_ H_ 0.288243 0.0743868 0.32207 0.10932
H_ H_ 0.130186 0.315526 0.351972 0.10932
H_ H_ 0.376476 0.313054 0.354501 0.10932
H_ H_ 0.124349 0.187797 0.362998 0.10932
H_ H_ 0.375859 0.184571 0.369199 0.10932
H_ H_ 0.126282 0.1888 0.441419 0.10932
H_ H_ 0.375952 0.190964 0.446808 0.10932
H_ H_ 0.129604 0.321342 0.43563 0.10932
H_ H_ 0.381116 0.32395 0.430195 0.10932
H_ H_ 0.134875 0.309743 0.136782 0.10932
H_ H_ 0.416833 0.269694 0.15416 0.10932
H_ H_ 0.119925 0.18279 0.147776 0.10932
H_ H_ 0.331878 0.222412 0.134943 0.10932
H_ H_ 0.123239 0.175901 0.0689915 0.10932
H_ H_ 0.335362 0.228335 0.0578075 0.10932
H_ H_ 0.142246 0.307134 0.0614932 0.10932
H_ H_ 0.425444 0.26884 0.0762538 0.10932
C_ C_ 0.0701368 0.349816 0.244208 -0.02249
C_ C_ 0.314239 0.345059 0.256384 -0.02249
C_ C_ 0.0195193 0.46306 0.245697 -0.02249
C_ C_ 0.268114 0.462758 0.251317 -0.02249
C_ C_ 0.0420183 0.40307 0.207164 -0.11473
C_ C_ 0.295108 0.405213 0.217913 -0.11473
C_ C_ 0.0660213 0.371744 0.282356 -0.11473
C_ C_ 0.305912 0.363188 0.29455 -0.11473
C_ C_ 0.0570829 0.364322 0.207034 -0.11473
C_ C_ 0.309588 0.366738 0.218226 -0.11473
C_ C_ 0.0362998 0.423209 0.244939 -0.02249
C_ C_ 0.284902 0.421443 0.254392 -0.02249
C_ C_ 0.0862577 0.309268 0.244034 0.6875
C_ C_ 0.330178 0.303373 0.255411 0.6875
C_ C_ 0.0496264 0.408973 0.281943 -0.11473
C_ C_ 0.293043 0.402837 0.293278 -0.11473
C_ C_ 0.187461 0.345257 0.242604 -0.02249
C_ C_ 0.432325 0.343876 0.250757 -0.02249
C_ C_ 0.237562 0.462883 0.242172 -0.02249
C_ C_ 0.48248 0.461657 0.244219 -0.02249
C_ C_ 0.207281 0.408149 0.278597 -0.11473
C_ C_ 0.450571 0.409219 0.28527 -0.11473
C_ C_ 0.205735 0.358183 0.209515 -0.11473
C_ C_ 0.445521 0.358147 0.214722 -0.11473
C_ C_ 0.189382 0.37166 0.279008 -0.11473
C_ C_ 0.433905 0.371341 0.285314 -0.11473
C_ C_ 0.220245 0.42235 0.242856 -0.02249
C_ C_ 0.463508 0.423648 0.247193 -0.02249
C_ C_ 0.167421 0.307269 0.243873 0.6875
C_ C_ 0.413334 0.306909 0.252886 0.6875
C_ C_ 0.218619 0.397349 0.207538 -0.11473
C_ C_ 0.459812 0.397786 0.211417 -0.11473
C_ C_ 0.181935 0.146435 0.254572 -0.02249
C_ C_ 0.43861 0.155684 0.249786 -0.02249
C_ C_ 0.235072 0.0332262 0.259749 -0.02249
C_ C_ 0.487367 0.0419535 0.243121 -0.02249
C_ C_ 0.214538 0.0990409 0.294238 -0.11473
C_ C_ 0.458188 0.092355 0.283316 -0.11473
C_ C_ 0.187405 0.12233 0.217976 -0.11473
C_ C_ 0.444428 0.139493 0.21028 -0.11473
C_ C_ 0.197882 0.135586 0.29199 -0.11473
C_ C_ 0.442213 0.12932 0.285913 -0.11473
C_ C_ 0.217807 0.0726441 0.257974 -0.02249
C_ C_ 0.470337 0.0807978 0.246096 -0.02249
C_ C_ 0.165327 0.188036 0.252073 0.6875
C_ C_ 0.421197 0.196844 0.252752 0.6875
C_ C_ 0.206139 0.0856715 0.21922 -0.11473
C_ C_ 0.461142 0.101298 0.20914 -0.11473
C_ C_ 0.0711019 0.153552 0.251431 -0.02249
C_ C_ 0.317393 0.147512 0.256039 -0.02249
C_ C_ 0.0165974 0.0425014 0.249291 -0.02249
C_ C_ 0.266275 0.0345625 0.25205 -0.02249
C_ C_ 0.0457622 0.0983288 0.210568 -0.11473
C_ C_ 0.288106 0.095871 0.217124 -0.11473
C_ C_ 0.0614712 0.135586 0.289362 -0.11473
C_ C_ 0.310153 0.127362 0.294306 -0.11473
C_ C_ 0.0629695 0.134204 0.212326 -0.11473
C_ C_ 0.305715 0.131435 0.218295 -0.11473
C_ C_ 0.0350321 0.080723 0.24858 -0.02249
C_ C_ 0.281616 0.0753952 0.253842 -0.02249
C_ C_ 0.0871054 0.193446 0.252231 0.6875
C_ C_ 0.338571 0.184146 0.253873 0.6875
C_ C_ 0.0435853 0.0983807 0.287215 -0.11473
C_ C_ 0.290934 0.092489 0.292519 -0.11473
C_ C_ 0.127516 0.289298 0.374269 0.17695
C_ C_ 0.378516 0.286669 0.374708 0.17695
C_ C_ 0.127578 0.216306 0.379631 0.17695
C_ C_ 0.374668 0.214177 0.382752 0.17695
C_ C_ 0.1304 0.217392 0.424018 -0.11473
C_ C_ 0.374629 0.218817 0.426899 -0.11473
C_ C_ 0.128145 0.256718 0.444042 0.23465
C_ C_ 0.375566 0.259269 0.446031 0.23465
C_ C_ 0.128104 0.292064 0.418365 -0.11473
C_ C_ 0.376183 0.293085 0.418735 -0.11473
C_ C_ 0.131781 0.280906 0.120912 0.17695
C_ C_ 0.399587 0.258784 0.132815 0.17695
C_ C_ 0.124079 0.209501 0.128127 0.17695
C_ C_ 0.351799 0.231073 0.123255 0.17695
C_ C_ 0.126287 0.205074 0.083525 -0.11473
C_ C_ 0.35386 0.231544 0.078569 -0.11473
C_ C_ 0.136461 0.239412 0.0585809 0.23465
C_ C_ 0.379476 0.248452 0.0610732 0.23465
C_ C_ 0.138152 0.277982 0.0778658 -0.11473
C_ C_ 0.403896 0.261185 0.0889349 -0.11473
C_ C_ 0.0334713 0.500811 0.25494 0.05793
C_ C_ 0.282437 0.499899 0.255618 0.05793
C_ C_ 0.22003 -0.005878999999999968 0.262669 0.05793
C_ C_ 0.470454 1.00451262 0.24052 0.05793
Br Br 0.0773086 0.503837 0.261225 -0.17191
Br Br 0.324373 0.50124 0.271958 -0.17191
Br Br 0.175172 -0.006588000000000038 0.263291 -0.17191
Br Br 0.428789 1.00860681 0.224256 -0.17191
N_ N_ 0.130051 0.251896 0.355899 -0.272
N_ N_ 0.377406 0.247872 0.357467 -0.272
N_ N_ 0.130152 0.262814 0.487827 -0.12501
N_ N_ 0.37956 0.265815 0.489738 -0.12501
N_ N_ 0.127303 0.247221 0.145308 -0.272
N_ N_ 0.373022 0.247739 0.148004 -0.272
N_ N_ 0.135789 0.233436 0.0134283 -0.12501
N_ N_ 0.383401 0.252338 0.0171519 -0.12501
O_ O_ 0.0997532 0.297601 0.211415 -0.60745
O_ O_ 0.33793 0.289051 0.220012 -0.60745
O_ O_ 0.0937171 0.291569 0.279397 -0.60745
O_ O_ 0.34299 0.287251 0.287379 -0.60745
O_ O_ 0.157411 0.295538 0.279337 -0.60745
O_ O_ 0.405017 0.295051 0.288869 -0.60745
O_ O_ 0.160268 0.286217 0.211441 -0.60745
O_ O_ 0.400948 0.29338 0.219987 -0.60745
O_ O_ 0.157941 0.204569 0.286977 -0.60745
O_ O_ 0.411632 0.211326 0.286409 -0.60745
O_ O_ 0.152164 0.198123 0.217176 -0.60745
O_ O_ 0.409832 0.210344 0.21815 -0.60745
O_ O_ 0.0894863 0.211933 0.217427 -0.60745
O_ O_ 0.344876 0.200998 0.218477 -0.60745
O_ O_ 0.0998912 0.205911 0.2867 -0.60745
O_ O_ 0.34974 0.197775 0.288292 -0.60745
Zn Zn 0.123892 0.251445 0.786085 0.9476
Zn Zn 0.375703 0.24756 0.78966 0.9476
Zn Zn 0.124891 0.252895 0.715423 0.9476
Zn Zn 0.372463 0.245113 0.721484 0.9476
H_ H_ 0.0299681 0.414355 0.684421 0.10932
H_ H_ 0.281121 0.413133 0.680192 0.10932
H_ H_ 0.0710617 0.361603 0.818442 0.10932
H_ H_ 0.31028 0.351382 0.816903 0.10932
H_ H_ 0.0524482 0.344375 0.687323 0.10932
H_ H_ 0.306546 0.344684 0.68087 0.10932
H_ H_ 0.0353367 0.421286 0.816684 0.10932
H_ H_ 0.289584 0.41547 0.816417 0.10932
H_ H_ 0.233846 0.403712 0.807712 0.10932
H_ H_ 0.462896 0.415485 0.823985 0.10932
H_ H_ 0.164863 0.374762 0.687691 0.10932
H_ H_ 0.42979 0.348699 0.687679 0.10932
H_ H_ 0.200312 0.342429 0.812805 0.10932
H_ H_ 0.444669 0.341293 0.822167 0.10932
H_ H_ 0.208109 0.426494 0.68082 0.10932
H_ H_ 0.456481 0.416256 0.688024 0.10932
H_ H_ 0.209201 0.0783658 0.818913 0.10932
H_ H_ 0.46858 0.08373 0.825811 0.10932
H_ H_ 0.195958 0.154542 0.686021 0.10932
H_ H_ 0.425718 0.132217 0.687033 0.10932
H_ H_ 0.176454 0.137133 0.817856 0.10932
H_ H_ 0.439717 0.15205 0.819767 0.10932
H_ H_ 0.222841 0.0888004 0.685581 0.10932
H_ H_ 0.454335 0.0647504 0.695241 0.10932
H_ H_ 0.0434064 0.0809548 0.683567 0.10932
H_ H_ 0.272932 0.0850714 0.693013 0.10932
H_ H_ 0.0552885 0.149337 0.821105 0.10932
H_ H_ 0.313231 0.148235 0.824281 0.10932
H_ H_ 0.0638533 0.149611 0.684119 0.10932
H_ H_ 0.304846 0.146239 0.689683 0.10932
H_ H_ 0.0362912 0.0771506 0.814528 0.10932
H_ H_ 0.289917 0.0772529 0.826705 0.10932
H_ H_ 0.124102 0.320918 0.857627 0.10932
H_ H_ 0.390158 0.307968 0.872819 0.10932
H_ H_ 0.124894 0.192991 0.861966 0.10932
H_ H_ 0.365534 0.181041 0.85856 0.10932
H_ H_ 0.133206 0.193155 0.940762 0.10932
H_ H_ 0.359281 0.176327 0.937364 0.10932
H_ H_ 0.135575 0.32689 0.936189 0.10932
H_ H_ 0.383535 0.304131 0.94895 0.10932
H_ H_ 0.0727908 0.253784 0.647626 0.10932
H_ H_ 0.389193 0.182967 0.643266 0.10932
H_ H_ 0.166126 0.241582 0.636995 0.10932
H_ H_ 0.361451 0.306762 0.643597 0.10932
H_ H_ 0.161808 0.242277 0.559304 0.10932
H_ H_ 0.35436 0.305735 0.565595 0.10932
H_ H_ 0.0670449 0.248947 0.568448 0.10932
H_ H_ 0.395569 0.185224 0.566415 0.10932
C_ C_ 0.0667045 0.348327 0.751642 -0.02249
C_ C_ 0.315958 0.345041 0.749634 -0.02249
C_ C_ 0.013926 0.462662 0.747686 -0.02249
C_ C_ 0.267584 0.45949 0.747254 -0.02249
C_ C_ 0.0380315 0.400833 0.713259 -0.11473
C_ C_ 0.29077 0.401165 0.710258 -0.11473
C_ C_ 0.0624778 0.372375 0.789064 -0.11473
C_ C_ 0.309722 0.36561 0.788006 -0.11473
C_ C_ 0.0542804 0.364792 0.71388 -0.11473
C_ C_ 0.305684 0.362411 0.711139 -0.11473
C_ C_ 0.032164 0.423286 0.750754 -0.02249
C_ C_ 0.284053 0.419289 0.747001 -0.02249
C_ C_ 0.0843655 0.309627 0.751366 0.6875
C_ C_ 0.33422 0.304795 0.753389 0.6875
C_ C_ 0.0439062 0.407052 0.787997 -0.11473
C_ C_ 0.293982 0.403232 0.785387 -0.11473
C_ C_ 0.181806 0.352193 0.748671 -0.02249
C_ C_ 0.433069 0.339859 0.754288 -0.02249
C_ C_ 0.234265 0.461958 0.747595 -0.02249
C_ C_ 0.478192 0.459367 0.754376 -0.02249
C_ C_ 0.223038 0.392603 0.779376 -0.11473
C_ C_ 0.458334 0.398249 0.793027 -0.11473
C_ C_ 0.182473 0.378536 0.713135 -0.11473
C_ C_ 0.439152 0.361764 0.717254 -0.11473
C_ C_ 0.201545 0.360592 0.783667 -0.11473
C_ C_ 0.444419 0.359172 0.791828 -0.11473
C_ C_ 0.218985 0.421493 0.746387 -0.02249
C_ C_ 0.460144 0.419869 0.756037 -0.02249
C_ C_ 0.161073 0.314925 0.749067 0.6875
C_ C_ 0.411968 0.305013 0.756194 0.6875
C_ C_ 0.204119 0.410135 0.709743 -0.11473
C_ C_ 0.45076 0.402027 0.718271 -0.11473
C_ C_ 0.183566 0.152951 0.751748 -0.02249
C_ C_ 0.430058 0.145917 0.752846 -0.02249
C_ C_ 0.232429 0.0368349 0.751708 -0.02249
C_ C_ 0.484959 0.0335621 0.763006 -0.02249
C_ C_ 0.204701 0.0950552 0.789424 -0.11473
C_ C_ 0.459258 0.096989 0.79567 -0.11473
C_ C_ 0.197496 0.138496 0.71483 -0.11473
C_ C_ 0.435655 0.123741 0.717093 -0.11473
C_ C_ 0.18835 0.130994 0.789971 -0.11473
C_ C_ 0.443959 0.133429 0.791884 -0.11473
C_ C_ 0.216589 0.0780671 0.751359 -0.02249
C_ C_ 0.465523 0.0737183 0.758924 -0.02249
C_ C_ 0.163527 0.191825 0.747995 0.6875
C_ C_ 0.409808 0.183146 0.752575 0.6875
C_ C_ 0.212692 0.101096 0.713912 -0.11473
C_ C_ 0.453288 0.0866492 0.720548 -0.11473
C_ C_ 0.0616329 0.154327 0.751969 -0.02249
C_ C_ 0.315114 0.15107 0.756955 -0.02249
C_ C_ 0.0150969 0.0396137 0.744268 -0.02249
C_ C_ 0.265015 0.0370688 0.753736 -0.02249
C_ C_ 0.0413499 0.0984991 0.712143 -0.11473
C_ C_ 0.285422 0.0958212 0.720072 -0.11473
C_ C_ 0.0507442 0.135214 0.78989 -0.11473
C_ C_ 0.306133 0.133098 0.796563 -0.11473
C_ C_ 0.0554146 0.135974 0.713187 -0.11473
C_ C_ 0.301316 0.133556 0.718392 -0.11473
C_ C_ 0.0310338 0.0787516 0.747561 -0.02249
C_ C_ 0.280799 0.0787277 0.757521 -0.02249
C_ C_ 0.0841589 0.190822 0.751754 0.6875
C_ C_ 0.333597 0.188116 0.754801 0.6875
C_ C_ 0.0386868 0.0949084 0.788012 -0.11473
C_ C_ 0.290295 0.0959722 0.796507 -0.11473
C_ C_ 0.125334 0.293368 0.877347 0.17695
C_ C_ 0.385122 0.277954 0.887041 0.17695
C_ C_ 0.127008 0.220681 0.879933 0.17695
C_ C_ 0.368668 0.209606 0.87794 0.17695
C_ C_ 0.129116 0.221637 0.925531 -0.11473
C_ C_ 0.364013 0.2053 0.921413 -0.11473
C_ C_ 0.134773 0.260378 0.944396 0.23465
C_ C_ 0.368497 0.2406 0.9478 0.23465
C_ C_ 0.133298 0.296482 0.921043 -0.11473
C_ C_ 0.377161 0.277942 0.928944 -0.11473
C_ C_ 0.0922054 0.253579 0.626717 0.17695
C_ C_ 0.38686 0.212209 0.627585 0.17695
C_ C_ 0.144146 0.245811 0.620291 0.17695
C_ C_ 0.367896 0.279922 0.626475 0.17695
C_ C_ 0.142433 0.246397 0.576798 -0.11473
C_ C_ 0.365138 0.279606 0.581864 -0.11473
C_ C_ 0.114388 0.25536 0.555885 0.23465
C_ C_ 0.376776 0.245998 0.55958 0.23465
C_ C_ 0.0888806 0.255992 0.582181 -0.11473
C_ C_ 0.386264 0.211266 0.583601 -0.11473
C_ C_ 0.0292566 0.501434 0.749315 0.05793
C_ C_ 0.284546 0.497263 0.749436 0.05793
C_ C_ 0.217746 -0.0009059999999999624 0.756738 0.05793
C_ C_ 0.472111 0.995027 0.772305 0.05793
Br Br 0.0720999 0.503135 0.75199 -0.17191
Br Br 0.327403 0.495934 0.740941 -0.17191
Br Br 0.175627 -0.0019820000000000393 0.747256 -0.17191
Br Br 0.43151 0.995181 0.791396 -0.17191
N_ N_ 0.12326 0.255811 0.857791 -0.272
N_ N_ 0.376319 0.246251 0.860369 -0.272
N_ N_ 0.134693 0.264836 0.990088 -0.12501
N_ N_ 0.366711 0.234544 0.99067 -0.12501
N_ N_ 0.121009 0.255713 0.644252 -0.272
N_ N_ 0.375926 0.244748 0.648656 -0.272
N_ N_ 0.110247 0.250537 0.510951 -0.12501
N_ N_ 0.369583 0.239842 0.515641 -0.12501
O_ O_ 0.0934615 0.29623 0.716944 -0.60745
O_ O_ 0.339844 0.288461 0.719738 -0.60745
O_ O_ 0.091352 0.291804 0.785632 -0.60745
O_ O_ 0.346944 0.293278 0.787596 -0.60745
O_ O_ 0.152202 0.299727 0.782884 -0.60745
O_ O_ 0.404297 0.293243 0.792115 -0.60745
O_ O_ 0.154996 0.296983 0.715377 -0.60745
O_ O_ 0.399116 0.292694 0.722586 -0.60745
O_ O_ 0.156487 0.208963 0.782839 -0.60745
O_ O_ 0.403675 0.199781 0.786718 -0.60745
O_ O_ 0.154451 0.206415 0.714967 -0.60745
O_ O_ 0.403641 0.201311 0.718287 -0.60745
O_ O_ 0.0914738 0.210164 0.718195 -0.60745
O_ O_ 0.343254 0.200513 0.719696 -0.60745
O_ O_ 0.0935568 0.204943 0.787373 -0.60745
O_ O_ 0.343166 0.205954 0.788573 -0.60745
Zn Zn 0.121582 0.752464 0.282726 0.9476
Zn Zn 0.379601 0.749349 0.284458 0.9476
Zn Zn 0.12162 0.752505 0.215346 0.9476
Zn Zn 0.377893 0.751618 0.215941 0.9476
H_ H_ 0.0310389 0.922996 0.188653 0.10932
H_ H_ 0.286622 0.914564 0.188869 0.10932
H_ H_ 0.0469481 0.839941 0.317147 0.10932
H_ H_ 0.314029 0.843118 0.320282 0.10932
H_ H_ 0.0610392 0.85833 0.186247 0.10932
H_ H_ 0.313022 0.84992 0.183554 0.10932
H_ H_ 0.0276627 0.910675 0.324607 0.10932
H_ H_ 0.290833 0.909998 0.325161 0.10932
H_ H_ 0.220301 0.907537 0.329337 0.10932
H_ H_ 0.475917 0.910962 0.310858 0.10932
H_ H_ 0.181994 0.858548 0.187535 0.10932
H_ H_ 0.422154 0.866794 0.181863 0.10932
H_ H_ 0.191325 0.845341 0.322051 0.10932
H_ H_ 0.446672 0.852244 0.313898 0.10932
H_ H_ 0.208644 0.920425 0.193806 0.10932
H_ H_ 0.455143 0.928191 0.179981 0.10932
H_ H_ 0.206314 0.572055 0.311311 0.10932
H_ H_ 0.44607 0.564372 0.304394 0.10932
H_ H_ 0.189638 0.653552 0.180442 0.10932
H_ H_ 0.464311 0.66983 0.196037 0.10932
H_ H_ 0.183382 0.63688 0.317351 0.10932
H_ H_ 0.418244 0.630189 0.304076 0.10932
H_ H_ 0.225416 0.596872 0.180926 0.10932
H_ H_ 0.485623 0.599589 0.185686 0.10932
H_ H_ 0.0356806 0.575135 0.18546 0.10932
H_ H_ 0.288129 0.579021 0.179311 0.10932
H_ H_ 0.0586816 0.658544 0.310108 0.10932
H_ H_ 0.313704 0.649969 0.315303 0.10932
H_ H_ 0.0622655 0.639777 0.176266 0.10932
H_ H_ 0.322871 0.638761 0.182694 0.10932
H_ H_ 0.0255791 0.600888 0.314279 0.10932
H_ H_ 0.284989 0.584136 0.312567 0.10932
H_ H_ 0.124765 0.816131 0.364719 0.10932
H_ H_ 0.389799 0.679114 0.353398 0.10932
H_ H_ 0.102098 0.693466 0.352424 0.10932
H_ H_ 0.38089 0.810106 0.35912 0.10932
H_ H_ 0.101755 0.68038 0.427084 0.10932
H_ H_ 0.384907 0.805462 0.437566 0.10932
H_ H_ 0.119599 0.809953 0.442869 0.10932
H_ H_ 0.393076 0.672537 0.429214 0.10932
H_ H_ 0.17041 0.754207 0.15156 0.10932
H_ H_ 0.404946 0.698915 0.137717 0.10932
H_ H_ 0.0766261 0.758762 0.135282 0.10932
H_ H_ 0.373878 0.818388 0.143958 0.10932
H_ H_ 0.0798352 0.750735 0.0554831 0.10932
H_ H_ 0.366839 0.821447 0.0649537 0.10932
H_ H_ 0.175063 0.750347 0.0700366 0.10932
H_ H_ 0.396945 0.695172 0.060878 0.10932
C_ C_ 0.0592189 0.845592 0.253077 -0.02249
C_ C_ 0.318367 0.843203 0.252965 -0.02249
C_ C_ 0.0149464 0.964826 0.259297 -0.02249
C_ C_ 0.268146 0.957012 0.257821 -0.02249
C_ C_ 0.0352957 0.903955 0.217519 -0.11473
C_ C_ 0.289509 0.897938 0.216335 -0.11473
C_ C_ 0.0490227 0.86143 0.291546 -0.11473
C_ C_ 0.307979 0.857664 0.291508 -0.11473
C_ C_ 0.0502742 0.865607 0.215972 -0.11473
C_ C_ 0.307038 0.861795 0.214771 -0.11473
C_ C_ 0.0290387 0.921843 0.255612 -0.02249
C_ C_ 0.28403 0.916873 0.256733 -0.02249
C_ C_ 0.0809228 0.810382 0.250188 0.6875
C_ C_ 0.33859 0.805909 0.251072 0.6875
C_ C_ 0.0328707 0.897625 0.29369 -0.11473
C_ C_ 0.293974 0.897318 0.294567 -0.11473
C_ C_ 0.181826 0.84796 0.255897 -0.02249
C_ C_ 0.431276 0.854794 0.247136 -0.02249
C_ C_ 0.236801 0.95797 0.261248 -0.02249
C_ C_ 0.483161 0.965975 0.246258 -0.02249
C_ C_ 0.213076 0.897014 0.29755 -0.11473
C_ C_ 0.463752 0.903618 0.282252 -0.11473
C_ C_ 0.189726 0.868391 0.218651 -0.11473
C_ C_ 0.434398 0.87564 0.208698 -0.11473
C_ C_ 0.193543 0.8637 0.295254 -0.11473
C_ C_ 0.446086 0.869089 0.283777 -0.11473
C_ C_ 0.219522 0.918702 0.260307 -0.02249
C_ C_ 0.465364 0.92664 0.246655 -0.02249
C_ C_ 0.16309 0.809132 0.254166 0.6875
C_ C_ 0.413624 0.813738 0.248909 0.6875
C_ C_ 0.208173 0.903562 0.22208 -0.11473
C_ C_ 0.450374 0.912613 0.208806 -0.11473
C_ C_ 0.18406 0.653107 0.251035 -0.02249
C_ C_ 0.436796 0.653477 0.248769 -0.02249
C_ C_ 0.235606 0.538676 0.246997 -0.02249
C_ C_ 0.484966 0.538154 0.242115 -0.02249
C_ C_ 0.206312 0.591504 0.284747 -0.11473
C_ C_ 0.450907 0.587551 0.280416 -0.11473
C_ C_ 0.196717 0.640497 0.211905 -0.11473
C_ C_ 0.459054 0.646867 0.218414 -0.11473
C_ C_ 0.192197 0.629599 0.287448 -0.11473
C_ C_ 0.435717 0.626227 0.28143 -0.11473
C_ C_ 0.219269 0.579838 0.246538 -0.02249
C_ C_ 0.469165 0.578569 0.245246 -0.02249
C_ C_ 0.162095 0.688109 0.250892 0.6875
C_ C_ 0.420505 0.691975 0.248729 0.6875
C_ C_ 0.21447 0.606075 0.210219 -0.11473
C_ C_ 0.471713 0.607595 0.213784 -0.11473
C_ C_ 0.0643374 0.653912 0.242252 -0.02249
C_ C_ 0.320384 0.650162 0.247819 -0.02249
C_ C_ 0.0172559 0.538358 0.253691 -0.02249
C_ C_ 0.267506 0.537619 0.249426 -0.02249
C_ C_ 0.0431517 0.590943 0.21374 -0.11473
C_ C_ 0.29177 0.595992 0.208163 -0.11473
C_ C_ 0.0552469 0.640426 0.282803 -0.11473
C_ C_ 0.311757 0.631096 0.284381 -0.11473
C_ C_ 0.0575972 0.628532 0.20803 -0.11473
C_ C_ 0.312974 0.628742 0.210706 -0.11473
C_ C_ 0.033063 0.578966 0.251452 -0.02249
C_ C_ 0.283549 0.578548 0.247287 -0.02249
C_ C_ 0.0834855 0.692883 0.241466 0.6875
C_ C_ 0.342989 0.68553 0.248363 0.6875
C_ C_ 0.0335957 0.608076 0.284081 -0.11473
C_ C_ 0.291334 0.597304 0.284884 -0.11473
C_ C_ 0.123485 0.785431 0.379886 0.17695
C_ C_ 0.386948 0.706828 0.371125 0.17695
C_ C_ 0.111558 0.715612 0.371973 0.17695
C_ C_ 0.382424 0.779331 0.375939 0.17695
C_ C_ 0.109193 0.710803 0.416219 -0.11473
C_ C_ 0.385627 0.777141 0.419106 -0.11473
C_ C_ 0.115269 0.743938 0.443189 0.23465
C_ C_ 0.388445 0.738552 0.439888 0.23465
C_ C_ 0.119484 0.783232 0.424983 -0.11473
C_ C_ 0.387475 0.703059 0.415033 -0.11473
C_ C_ 0.151526 0.749379 0.131309 0.17695
C_ C_ 0.39222 0.722122 0.122717 0.17695
C_ C_ 0.0977665 0.753019 0.120028 0.17695
C_ C_ 0.374149 0.790335 0.125552 0.17695
C_ C_ 0.0998881 0.751772 0.0767164 -0.11473
C_ C_ 0.373514 0.792763 0.0814279 -0.11473
C_ C_ 0.12901 0.754824 0.0597177 0.23465
C_ C_ 0.381643 0.758031 0.0576429 0.23465
C_ C_ 0.154902 0.750332 0.0858987 -0.11473
C_ C_ 0.389561 0.722348 0.0794204 -0.11473
C_ C_ 0.0312317 1.00188039 0.249959 0.05793
C_ C_ 0.283147 0.99632 0.253859 0.05793
C_ C_ 0.220685 0.50205 0.241903 0.05793
C_ C_ 0.468242 0.501434 0.239601 0.05793
Br Br 0.0735651 -0.0035680000000000156 0.237947 -0.17191
Br Br 0.326991 0.994481 0.254457 -0.17191
Br Br 0.178001 0.502778 0.231031 -0.17191
Br Br 0.42406 0.503353 0.236147 -0.17191
N_ N_ 0.121542 0.75084 0.356647 -0.272
N_ N_ 0.383127 0.743573 0.352466 -0.272
N_ N_ 0.117242 0.736723 0.487939 -0.12501
N_ N_ 0.390435 0.734846 0.485554 -0.12501
N_ N_ 0.123197 0.757802 0.146966 -0.272
N_ N_ 0.379185 0.753455 0.144401 -0.272
N_ N_ 0.132144 0.760043 0.0150194 -0.12501
N_ N_ 0.378014 0.75874 0.0118461 -0.12501
O_ O_ 0.090521 0.796804 0.21518 -0.60745
O_ O_ 0.347481 0.793522 0.215358 -0.60745
O_ O_ 0.0924831 0.796693 0.283446 -0.60745
O_ O_ 0.346775 0.787611 0.284669 -0.60745
O_ O_ 0.153915 0.79352 0.288698 -0.60745
O_ O_ 0.402177 0.799711 0.283773 -0.60745
O_ O_ 0.151355 0.798117 0.219341 -0.60745
O_ O_ 0.40948 0.793803 0.214861 -0.60745
O_ O_ 0.152166 0.703665 0.284638 -0.60745
O_ O_ 0.415538 0.710588 0.283608 -0.60745
O_ O_ 0.151458 0.70257 0.216575 -0.60745
O_ O_ 0.406778 0.703956 0.215307 -0.60745
O_ O_ 0.090575 0.708294 0.207605 -0.60745
O_ O_ 0.349528 0.703947 0.215257 -0.60745
O_ O_ 0.0901461 0.711257 0.275364 -0.60745
O_ O_ 0.351912 0.701701 0.284001 -0.60745
Zn Zn 0.124438 0.747687 0.789482 0.9476
Zn Zn 0.374703 0.749309 0.785609 0.9476
Zn Zn 0.124395 0.748851 0.71723 0.9476
Zn Zn 0.376829 0.751046 0.713888 0.9476
H_ H_ 0.0390912 0.915427 0.676028 0.10932
H_ H_ 0.290064 0.926391 0.694735 0.10932
H_ H_ 0.0612846 0.857043 0.817441 0.10932
H_ H_ 0.301364 0.837142 0.814634 0.10932
H_ H_ 0.0786859 0.864551 0.687212 0.10932
H_ H_ 0.323652 0.866133 0.687822 0.10932
H_ H_ 0.0367165 0.922483 0.813491 0.10932
H_ H_ 0.27569 0.90258 0.822858 0.10932
H_ H_ 0.202668 0.929458 0.822229 0.10932
H_ H_ 0.478247 0.902927 0.831399 0.10932
H_ H_ 0.194141 0.840654 0.69463 0.10932
H_ H_ 0.432259 0.858769 0.697063 0.10932
H_ H_ 0.178518 0.857142 0.826343 0.10932
H_ H_ 0.445583 0.8375 0.827766 0.10932
H_ H_ 0.224901 0.907437 0.695821 0.10932
H_ H_ 0.454711 0.925034 0.700526 0.10932
H_ H_ 0.210492 0.569325 0.814177 0.10932
H_ H_ 0.464836 0.581786 0.820126 0.10932
H_ H_ 0.190495 0.652896 0.68787 0.10932
H_ H_ 0.444259 0.654703 0.685058 0.10932
H_ H_ 0.180316 0.635543 0.819322 0.10932
H_ H_ 0.441623 0.652979 0.818385 0.10932
H_ H_ 0.225419 0.595095 0.681508 0.10932
H_ H_ 0.466169 0.584882 0.685207 0.10932
H_ H_ 0.0448388 0.568921 0.682325 0.10932
H_ H_ 0.293377 0.578786 0.676945 0.10932
H_ H_ 0.0517041 0.658158 0.810167 0.10932
H_ H_ 0.31353 0.652933 0.81183 0.10932
H_ H_ 0.0766673 0.63332 0.684754 0.10932
H_ H_ 0.319034 0.644309 0.675478 0.10932
H_ H_ 0.0192784 0.59268 0.808934 0.10932
H_ H_ 0.286467 0.585555 0.814357 0.10932
H_ H_ 0.126907 0.816607 0.866985 0.10932
H_ H_ 0.360664 0.803092 0.863822 0.10932
H_ H_ 0.120192 0.683597 0.856596 0.10932
H_ H_ 0.38643 0.679075 0.857628 0.10932
H_ H_ 0.122992 0.676775 0.936423 0.10932
H_ H_ 0.40361 0.675014 0.933826 0.10932
H_ H_ 0.12767 0.81069 0.942345 0.10932
H_ H_ 0.375376 0.805881 0.937149 0.10932
H_ H_ 0.0997253 0.701688 0.636551 0.10932
H_ H_ 0.375288 0.81436 0.644828 0.10932
H_ H_ 0.15448 0.803765 0.648489 0.10932
H_ H_ 0.378095 0.686341 0.634106 0.10932
H_ H_ 0.160815 0.807936 0.567117 0.10932
H_ H_ 0.380871 0.689301 0.556488 0.10932
H_ H_ 0.100291 0.706226 0.558236 0.10932
H_ H_ 0.381488 0.823111 0.566604 0.10932
C_ C_ 0.0686481 0.851076 0.749979 -0.02249
C_ C_ 0.31188 0.843919 0.750359 -0.02249
C_ C_ 0.0150368 0.962654 0.749161 -0.02249
C_ C_ 0.266135 0.960895 0.758187 -0.02249
C_ C_ 0.0449724 0.907172 0.709144 -0.11473
C_ C_ 0.295743 0.908667 0.721156 -0.11473
C_ C_ 0.05517 0.868012 0.787182 -0.11473
C_ C_ 0.29678 0.85324 0.786743 -0.11473
C_ C_ 0.0641733 0.872434 0.713341 -0.11473
C_ C_ 0.310062 0.869226 0.715458 -0.11473
C_ C_ 0.0317901 0.923368 0.746287 -0.02249
C_ C_ 0.283766 0.921023 0.75833 -0.02249
C_ C_ 0.0887812 0.813405 0.751802 0.6875
C_ C_ 0.33402 0.808585 0.751332 0.6875
C_ C_ 0.0400791 0.905078 0.785545 -0.11473
C_ C_ 0.282468 0.892052 0.791089 -0.11473
C_ C_ 0.183828 0.844329 0.76125 -0.02249
C_ C_ 0.437057 0.843003 0.762281 -0.02249
C_ C_ 0.233851 0.960001 0.759011 -0.02249
C_ C_ 0.488073 0.958658 0.767341 -0.02249
C_ C_ 0.201871 0.907736 0.795347 -0.11473
C_ C_ 0.468694 0.891959 0.800737 -0.11473
C_ C_ 0.196286 0.859452 0.722899 -0.11473
C_ C_ 0.44037 0.870248 0.726231 -0.11473
C_ C_ 0.188587 0.867094 0.79763 -0.11473
C_ C_ 0.453263 0.853002 0.799536 -0.11473
C_ C_ 0.217113 0.919327 0.760808 -0.02249
C_ C_ 0.471491 0.917815 0.765944 -0.02249
C_ C_ 0.166091 0.80517 0.762336 0.6875
C_ C_ 0.415157 0.808105 0.758155 0.6875
C_ C_ 0.211803 0.898121 0.722418 -0.11473
C_ C_ 0.454282 0.907074 0.729814 -0.11473
C_ C_ 0.181075 0.646783 0.752701 -0.02249
C_ C_ 0.435869 0.656195 0.751916 -0.02249
C_ C_ 0.23562 0.536113 0.74668 -0.02249
C_ C_ 0.479957 0.536605 0.751807 -0.02249
C_ C_ 0.206585 0.586869 0.786201 -0.11473
C_ C_ 0.45832 0.597564 0.791185 -0.11473
C_ C_ 0.194088 0.635421 0.71404 -0.11473
C_ C_ 0.445363 0.636643 0.714596 -0.11473
C_ C_ 0.189877 0.623731 0.78895 -0.11473
C_ C_ 0.446631 0.637952 0.78888 -0.11473
C_ C_ 0.219117 0.575929 0.747364 -0.02249
C_ C_ 0.46519 0.57763 0.752633 -0.02249
C_ C_ 0.160599 0.682993 0.754733 0.6875
C_ C_ 0.412001 0.689481 0.749655 0.6875
C_ C_ 0.21502 0.601876 0.711796 -0.11473
C_ C_ 0.460179 0.598285 0.71554 -0.11473
C_ C_ 0.0635817 0.652298 0.746553 -0.02249
C_ C_ 0.316773 0.652045 0.743668 -0.02249
C_ C_ 0.0123525 0.53868 0.745384 -0.02249
C_ C_ 0.268466 0.534745 0.748022 -0.02249
C_ C_ 0.0476733 0.588446 0.712128 -0.11473
C_ C_ 0.295145 0.593882 0.706763 -0.11473
C_ C_ 0.0487179 0.63821 0.782679 -0.11473
C_ C_ 0.309196 0.63556 0.782921 -0.11473
C_ C_ 0.0642141 0.624413 0.712928 -0.11473
C_ C_ 0.310038 0.63175 0.705804 -0.11473
C_ C_ 0.0295624 0.578313 0.745139 -0.02249
C_ C_ 0.285635 0.575872 0.744933 -0.02249
C_ C_ 0.0818386 0.691455 0.746499 0.6875
C_ C_ 0.33758 0.687973 0.742457 0.6875
C_ C_ 0.0324855 0.600779 0.782678 -0.11473
C_ C_ 0.292133 0.598307 0.783666 -0.11473
C_ C_ 0.123933 0.784673 0.882086 0.17695
C_ C_ 0.37033 0.775904 0.880041 0.17695
C_ C_ 0.121794 0.710616 0.876892 0.17695
C_ C_ 0.384248 0.707109 0.875387 0.17695
C_ C_ 0.12058 0.707099 0.921344 -0.11473
C_ C_ 0.391693 0.704112 0.918638 -0.11473
C_ C_ 0.120144 0.742812 0.945781 0.23465
C_ C_ 0.387258 0.740183 0.942238 0.23465
C_ C_ 0.123835 0.782127 0.925708 -0.11473
C_ C_ 0.375155 0.776303 0.922903 -0.11473
C_ C_ 0.114379 0.722961 0.620929 0.17695
C_ C_ 0.382026 0.787218 0.625139 0.17695
C_ C_ 0.144078 0.783362 0.627306 0.17695
C_ C_ 0.381806 0.714615 0.618944 0.17695
C_ C_ 0.146963 0.784846 0.581162 -0.11473
C_ C_ 0.381208 0.717469 0.574788 -0.11473
C_ C_ 0.127971 0.759973 0.55644 0.23465
C_ C_ 0.382892 0.757072 0.554 0.23465
C_ C_ 0.113697 0.726466 0.576736 -0.11473
C_ C_ 0.383479 0.792334 0.580576 -0.11473
C_ C_ 0.0297651 0.00093822 0.740791 0.05793
C_ C_ 0.28105 -0.0003553 0.759181 0.05793
C_ C_ 0.219248 0.500241 0.744036 0.05793
C_ C_ 0.464202 0.499097 0.75613 0.05793
Br Br 0.0711431 0.00246424 0.723244 -0.17191
Br Br 0.323523 0.00217815 0.774207 -0.17191
Br Br 0.175348 0.499624 0.736378 -0.17191
Br Br 0.421961 0.502892 0.762908 -0.17191
N_ N_ 0.121736 0.748725 0.858902 -0.272
N_ N_ 0.375022 0.741817 0.855397 -0.272
N_ N_ 0.116304 0.73937 0.988909 -0.12501
N_ N_ 0.391026 0.736209 0.987852 -0.12501
N_ N_ 0.128069 0.751187 0.64456 -0.272
N_ N_ 0.379119 0.750382 0.642973 -0.272
N_ N_ 0.126213 0.764776 0.512301 -0.12501
N_ N_ 0.381495 0.762527 0.509864 -0.12501
O_ O_ 0.0980906 0.799454 0.717618 -0.60745
O_ O_ 0.344494 0.795067 0.717126 -0.60745
O_ O_ 0.0946823 0.794532 0.786316 -0.60745
O_ O_ 0.347741 0.799237 0.785505 -0.60745
O_ O_ 0.157074 0.791004 0.797155 -0.60745
O_ O_ 0.405635 0.790367 0.790217 -0.60745
O_ O_ 0.157835 0.788158 0.728706 -0.60745
O_ O_ 0.408218 0.792735 0.723646 -0.60745
O_ O_ 0.154896 0.699597 0.790684 -0.60745
O_ O_ 0.402474 0.703812 0.783922 -0.60745
O_ O_ 0.15403 0.700989 0.720401 -0.60745
O_ O_ 0.407252 0.709874 0.716799 -0.60745
O_ O_ 0.0933185 0.704003 0.71378 -0.60745
O_ O_ 0.348585 0.701974 0.709088 -0.60745
O_ O_ 0.0903761 0.707134 0.780577 -0.60745
O_ O_ 0.342605 0.708607 0.776621 -0.60745
Zn Zn 0.626182 0.252909 0.282917 0.9476
Zn Zn 0.875074 0.255814 0.279039 0.9476
Zn Zn 0.624542 0.252774 0.211837 0.9476
Zn Zn 0.873561 0.250234 0.209763 0.9476
H_ H_ 0.528659 0.41803 0.181746 0.10932
H_ H_ 0.787222 0.424573 0.177003 0.10932
H_ H_ 0.557151 0.343857 0.313969 0.10932
H_ H_ 0.809271 0.356884 0.313928 0.10932
H_ H_ 0.555288 0.348012 0.179361 0.10932
H_ H_ 0.826713 0.370514 0.180836 0.10932
H_ H_ 0.534989 0.411109 0.31709 0.10932
H_ H_ 0.775696 0.41626 0.311013 0.10932
H_ H_ 0.711406 0.428596 0.312591 0.10932
H_ H_ 0.959722 0.427998 0.305973 0.10932
H_ H_ 0.685951 0.35937 0.176351 0.10932
H_ H_ 0.947474 0.341442 0.179369 0.10932
H_ H_ 0.690936 0.354764 0.313974 0.10932
H_ H_ 0.925557 0.368601 0.305637 0.10932
H_ H_ 0.716705 0.419605 0.176819 0.10932
H_ H_ 0.977991 0.406226 0.174903 0.10932
H_ H_ 0.720955 0.0903557 0.320097 0.10932
H_ H_ 0.977276 0.102133 0.319042 0.10932
H_ H_ 0.687624 0.150671 0.184842 0.10932
H_ H_ 0.919303 0.135939 0.189811 0.10932
H_ H_ 0.693955 0.162222 0.319081 0.10932
H_ H_ 0.952999 0.167799 0.314519 0.10932
H_ H_ 0.703258 0.078045 0.190484 0.10932
H_ H_ 0.95109 0.0719404 0.19284 0.10932
H_ H_ 0.54646 0.0715435 0.187296 0.10932
H_ H_ 0.785572 0.0861193 0.174467 0.10932
H_ H_ 0.562425 0.155629 0.313629 0.10932
H_ H_ 0.811046 0.154725 0.311722 0.10932
H_ H_ 0.577494 0.135217 0.185164 0.10932
H_ H_ 0.820243 0.146896 0.177 0.10932
H_ H_ 0.531272 0.0932251 0.319274 0.10932
H_ H_ 0.783176 0.0884415 0.309537 0.10932
H_ H_ 0.631186 0.19552 0.359295 0.10932
H_ H_ 0.875512 0.181281 0.343669 0.10932
H_ H_ 0.608775 0.321142 0.35765 0.10932
H_ H_ 0.869472 0.311194 0.360602 0.10932
H_ H_ 0.605858 0.32284 0.429189 0.10932
H_ H_ 0.880558 0.3029 0.438808 0.10932
H_ H_ 0.626861 0.194797 0.43933 0.10932
H_ H_ 0.881389 0.170525 0.419612 0.10932
H_ H_ 0.640721 0.186073 0.147039 0.10932
H_ H_ 0.818847 0.258211 0.14279 0.10932
H_ H_ 0.618938 0.31193 0.131093 0.10932
H_ H_ 0.913495 0.239653 0.130753 0.10932
H_ H_ 0.610925 0.302112 0.0528207 0.10932
H_ H_ 0.90825 0.24339 0.0534138 0.10932
H_ H_ 0.64682 0.179635 0.0695251 0.10932
H_ H_ 0.813002 0.260495 0.0654165 0.10932
C_ C_ 0.562423 0.343366 0.245355 -0.02249
C_ C_ 0.815827 0.351472 0.243875 -0.02249
C_ C_ 0.512909 0.460383 0.252973 -0.02249
C_ C_ 0.765791 0.466613 0.246326 -0.02249
C_ C_ 0.533541 0.401445 0.211013 -0.11473
C_ C_ 0.793355 0.411698 0.206832 -0.11473
C_ C_ 0.550929 0.357713 0.285315 -0.11473
C_ C_ 0.803168 0.36846 0.283203 -0.11473
C_ C_ 0.550868 0.364293 0.209375 -0.11473
C_ C_ 0.812843 0.376279 0.20759 -0.11473
C_ C_ 0.528969 0.420008 0.250366 -0.02249
C_ C_ 0.781943 0.427512 0.244589 -0.02249
C_ C_ 0.582493 0.306904 0.245707 0.6875
C_ C_ 0.835467 0.313044 0.24744 0.6875
C_ C_ 0.53629 0.396818 0.287396 -0.11473
C_ C_ 0.784411 0.403587 0.281932 -0.11473
C_ C_ 0.685325 0.352408 0.245008 -0.02249
C_ C_ 0.93566 0.347956 0.242932 -0.02249
C_ C_ 0.733776 0.467999 0.245303 -0.02249
C_ C_ 0.988005 0.463056 0.239938 -0.02249
C_ C_ 0.708204 0.409752 0.284143 -0.11473
C_ C_ 0.958374 0.408801 0.278551 -0.11473
C_ C_ 0.691852 0.372472 0.206848 -0.11473
C_ C_ 0.950427 0.360248 0.207031 -0.11473
C_ C_ 0.694355 0.371116 0.283004 -0.11473
C_ C_ 0.940131 0.373369 0.279247 -0.11473
C_ C_ 0.71666 0.428738 0.246788 -0.02249
C_ C_ 0.9715 0.422531 0.241718 -0.02249
C_ C_ 0.661968 0.316387 0.245953 0.6875
C_ C_ 0.914949 0.312308 0.243136 0.6875
C_ C_ 0.70893 0.408976 0.207412 -0.11473
C_ C_ 0.966522 0.398997 0.203986 -0.11473
C_ C_ 0.68614 0.157215 0.251252 -0.02249
C_ C_ 0.937162 0.160844 0.247621 -0.02249
C_ C_ 0.735127 0.0396421 0.252569 -0.02249
C_ C_ 0.985845 0.0451833 0.256099 -0.02249
C_ C_ 0.714084 0.103482 0.290723 -0.11473
C_ C_ 0.969049 0.111771 0.288152 -0.11473
C_ C_ 0.695004 0.137391 0.215856 -0.11473
C_ C_ 0.9355 0.131053 0.21565 -0.11473
C_ C_ 0.697662 0.142372 0.290344 -0.11473
C_ C_ 0.952658 0.149321 0.284828 -0.11473
C_ C_ 0.716971 0.0795006 0.255229 -0.02249
C_ C_ 0.969963 0.0854038 0.253864 -0.02249
C_ C_ 0.66575 0.194877 0.249081 0.6875
C_ C_ 0.916692 0.197037 0.246549 0.6875
C_ C_ 0.706799 0.0968897 0.217181 -0.11473
C_ C_ 0.953315 0.0949281 0.21734 -0.11473
C_ C_ 0.569138 0.154295 0.247807 -0.02249
C_ C_ 0.814068 0.159246 0.243567 -0.02249
C_ C_ 0.517621 0.0402679 0.25487 -0.02249
C_ C_ 0.765931 0.0407804 0.24461 -0.02249
C_ C_ 0.545133 0.0935714 0.21399 -0.11473
C_ C_ 0.791795 0.0994406 0.205193 -0.11473
C_ C_ 0.556924 0.140897 0.285549 -0.11473
C_ C_ 0.804139 0.139908 0.281219 -0.11473
C_ C_ 0.562411 0.130013 0.211295 -0.11473
C_ C_ 0.809043 0.137334 0.204152 -0.11473
C_ C_ 0.5355 0.0789859 0.253878 -0.02249
C_ C_ 0.781653 0.0824291 0.242815 -0.02249
C_ C_ 0.587831 0.192572 0.247226 0.6875
C_ C_ 0.832504 0.199157 0.244413 0.6875
C_ C_ 0.539217 0.104809 0.288738 -0.11473
C_ C_ 0.791653 0.100046 0.281836 -0.11473
C_ C_ 0.631884 0.222437 0.37685 0.17695
C_ C_ 0.877241 0.208487 0.364582 0.17695
C_ C_ 0.619508 0.293224 0.37327 0.17695
C_ C_ 0.875965 0.282314 0.373705 0.17695
C_ C_ 0.620315 0.296597 0.416732 -0.11473
C_ C_ 0.876233 0.277253 0.41911 -0.11473
C_ C_ 0.622499 0.260215 0.440591 0.23465
C_ C_ 0.875916 0.236295 0.435701 0.23465
C_ C_ 0.628608 0.223664 0.42192 -0.11473
C_ C_ 0.879801 0.201868 0.408358 -0.11473
C_ C_ 0.636247 0.210856 0.126717 0.17695
C_ C_ 0.83841 0.255637 0.122941 0.17695
C_ C_ 0.622434 0.28185 0.118257 0.17695
C_ C_ 0.891936 0.248257 0.116445 0.17695
C_ C_ 0.619368 0.276357 0.0733037 -0.11473
C_ C_ 0.888624 0.24866 0.0722715 -0.11473
C_ C_ 0.62833 0.236883 0.0558528 0.23465
C_ C_ 0.859225 0.254793 0.054107 0.23465
C_ C_ 0.639365 0.207167 0.0834977 -0.11473
C_ C_ 0.834387 0.258272 0.0802158 -0.11473
C_ C_ 0.529628 0.497457 0.256021 0.05793
C_ C_ 0.780275 0.505354 0.250886 0.05793
C_ C_ 0.720412 1.00269955 0.261295 0.05793
C_ C_ 0.969033 1.0076491 0.264342 0.05793
Br Br 0.572137 0.49369 0.269183 -0.17191
Br Br 0.823748 0.508502 0.250433 -0.17191
Br Br 0.678247 0.0063233 0.278897 -0.17191
Br Br 0.924947 0.01152 0.273703 -0.17191
N_ N_ 0.625496 0.257377 0.35399 -0.272
N_ N_ 0.875129 0.248641 0.348731 -0.272
N_ N_ 0.61715 0.263497 0.48505 -0.12501
N_ N_ 0.879425 0.229559 0.480431 -0.12501
N_ N_ 0.627566 0.248318 0.143403 -0.272
N_ N_ 0.866782 0.248349 0.140515 -0.272
N_ N_ 0.630921 0.231248 0.0102344 -0.12501
N_ N_ 0.854687 0.250835 0.00938221 -0.12501
O_ O_ 0.588833 0.289982 0.211429 -0.60745
O_ O_ 0.838732 0.290836 0.216068 -0.60745
O_ O_ 0.596322 0.295889 0.280846 -0.60745
O_ O_ 0.84514 0.302232 0.281966 -0.60745
O_ O_ 0.659777 0.295785 0.279784 -0.60745
O_ O_ 0.908037 0.298302 0.277775 -0.60745
O_ O_ 0.653009 0.299636 0.212557 -0.60745
O_ O_ 0.903421 0.297238 0.211368 -0.60745
O_ O_ 0.656568 0.207902 0.28327 -0.60745
O_ O_ 0.906218 0.21108 0.279593 -0.60745
O_ O_ 0.656389 0.209537 0.214553 -0.60745
O_ O_ 0.907382 0.208854 0.210391 -0.60745
O_ O_ 0.595024 0.20868 0.212812 -0.60745
O_ O_ 0.843715 0.209997 0.210107 -0.60745
O_ O_ 0.599377 0.20504 0.281689 -0.60745
O_ O_ 0.842822 0.21399 0.279855 -0.60745
Zn Zn 0.625661 0.252104 0.785357 0.9476
Zn Zn 0.875157 0.24718 0.782249 0.9476
Zn Zn 0.623904 0.248332 0.715381 0.9476
Zn Zn 0.874436 0.246654 0.710381 0.9476
H_ H_ 0.531478 0.415757 0.683213 0.10932
H_ H_ 0.790812 0.421925 0.676181 0.10932
H_ H_ 0.554455 0.339706 0.813856 0.10932
H_ H_ 0.812009 0.353572 0.812654 0.10932
H_ H_ 0.562395 0.350812 0.68084 0.10932
H_ H_ 0.824 0.35681 0.678423 0.10932
H_ H_ 0.527549 0.40801 0.818231 0.10932
H_ H_ 0.781823 0.412359 0.806204 0.10932
H_ H_ 0.707743 0.431129 0.808313 0.10932
H_ H_ 0.976343 0.407341 0.816236 0.10932
H_ H_ 0.693305 0.339609 0.687021 0.10932
H_ H_ 0.927149 0.357402 0.682983 0.10932
H_ H_ 0.672803 0.369953 0.811966 0.10932
H_ H_ 0.945809 0.343774 0.815874 0.10932
H_ H_ 0.727205 0.397382 0.682148 0.10932
H_ H_ 0.951322 0.425653 0.682912 0.10932
H_ H_ 0.720411 0.0843889 0.80929 0.10932
H_ H_ 0.972771 0.0885247 0.817661 0.10932
H_ H_ 0.677109 0.147099 0.678118 0.10932
H_ H_ 0.938786 0.148312 0.683781 0.10932
H_ H_ 0.690509 0.148704 0.813857 0.10932
H_ H_ 0.940573 0.14757 0.81929 0.10932
H_ H_ 0.706515 0.0824925 0.678598 0.10932
H_ H_ 0.959757 0.075835 0.686583 0.10932
H_ H_ 0.534775 0.0768489 0.69074 0.10932
H_ H_ 0.778289 0.085007 0.679815 0.10932
H_ H_ 0.563059 0.154475 0.817962 0.10932
H_ H_ 0.818068 0.145873 0.813335 0.10932
H_ H_ 0.552848 0.148106 0.686913 0.10932
H_ H_ 0.802491 0.156027 0.682359 0.10932
H_ H_ 0.535241 0.0870541 0.822815 0.10932
H_ H_ 0.800031 0.0744104 0.808687 0.10932
H_ H_ 0.611941 0.319495 0.855876 0.10932
H_ H_ 0.918436 0.255723 0.857138 0.10932
H_ H_ 0.636867 0.192629 0.857483 0.10932
H_ H_ 0.826085 0.227231 0.857157 0.10932
H_ H_ 0.638274 0.193149 0.935932 0.10932
H_ H_ 0.825018 0.241518 0.932853 0.10932
H_ H_ 0.609239 0.32105 0.934596 0.10932
H_ H_ 0.920792 0.26843 0.930014 0.10932
H_ H_ 0.618428 0.189975 0.636631 0.10932
H_ H_ 0.91333 0.207351 0.630355 0.10932
H_ H_ 0.634052 0.314975 0.641734 0.10932
H_ H_ 0.839581 0.291068 0.636785 0.10932
H_ H_ 0.634975 0.318341 0.56277 0.10932
H_ H_ 0.835486 0.294221 0.560441 0.10932
H_ H_ 0.627385 0.184192 0.563334 0.10932
H_ H_ 0.911211 0.205612 0.557083 0.10932
C_ C_ 0.561543 0.341592 0.747801 -0.02249
C_ C_ 0.815077 0.343291 0.743263 -0.02249
C_ C_ 0.510765 0.456911 0.753742 -0.02249
C_ C_ 0.766185 0.456225 0.739476 -0.02249
C_ C_ 0.534754 0.397254 0.711857 -0.11473
C_ C_ 0.793032 0.401977 0.704025 -0.11473
C_ C_ 0.548235 0.354413 0.785499 -0.11473
C_ C_ 0.804809 0.361885 0.780334 -0.11473
C_ C_ 0.553205 0.361932 0.711274 -0.11473
C_ C_ 0.812407 0.36725 0.704733 -0.11473
C_ C_ 0.527819 0.416731 0.750824 -0.02249
C_ C_ 0.781527 0.415835 0.740157 -0.02249
C_ C_ 0.58388 0.307153 0.748491 0.6875
C_ C_ 0.836039 0.306697 0.745504 0.6875
C_ C_ 0.534305 0.394408 0.787978 -0.11473
C_ C_ 0.786206 0.395499 0.778625 -0.11473
C_ C_ 0.679876 0.351251 0.749641 -0.02249
C_ C_ 0.931702 0.34724 0.750015 -0.02249
C_ C_ 0.734563 0.459245 0.73637 -0.02249
C_ C_ 0.981607 0.461996 0.749856 -0.02249
C_ C_ 0.703013 0.411923 0.779921 -0.11473
C_ C_ 0.965205 0.397323 0.786664 -0.11473
C_ C_ 0.695569 0.359374 0.71195 -0.11473
C_ C_ 0.93701 0.370194 0.712708 -0.11473
C_ C_ 0.684003 0.375665 0.783645 -0.11473
C_ C_ 0.948625 0.360291 0.787152 -0.11473
C_ C_ 0.715631 0.422314 0.74133 -0.02249
C_ C_ 0.965059 0.422357 0.749463 -0.02249
C_ C_ 0.662427 0.310749 0.748349 0.6875
C_ C_ 0.912372 0.308487 0.748239 0.6875
C_ C_ 0.711111 0.396219 0.707525 -0.11473
C_ C_ 0.954422 0.405835 0.711409 -0.11473
C_ C_ 0.682595 0.154545 0.747437 -0.02249
C_ C_ 0.93435 0.150282 0.751515 -0.02249
C_ C_ 0.733355 0.0395442 0.744221 -0.02249
C_ C_ 0.982693 0.0372432 0.749773 -0.02249
C_ C_ 0.711166 0.0996991 0.781036 -0.11473
C_ C_ 0.963377 0.0988927 0.788396 -0.11473
C_ C_ 0.688597 0.134721 0.706631 -0.11473
C_ C_ 0.945933 0.134015 0.713467 -0.11473
C_ C_ 0.692042 0.13477 0.783958 -0.11473
C_ C_ 0.946067 0.135062 0.789581 -0.11473
C_ C_ 0.715353 0.0799547 0.74417 -0.02249
C_ C_ 0.96509 0.0760734 0.750975 -0.02249
C_ C_ 0.665392 0.19389 0.749057 0.6875
C_ C_ 0.914016 0.187862 0.750345 0.6875
C_ C_ 0.703966 0.0971362 0.706478 -0.11473
C_ C_ 0.95887 0.093944 0.713333 -0.11473
C_ C_ 0.564397 0.151892 0.751205 -0.02249
C_ C_ 0.813348 0.152372 0.746347 -0.02249
C_ C_ 0.517234 0.0348732 0.760077 -0.02249
C_ C_ 0.765476 0.0402023 0.750202 -0.02249
C_ C_ 0.541035 0.0916528 0.720058 -0.11473
C_ C_ 0.784075 0.100501 0.709543 -0.11473
C_ C_ 0.556892 0.136365 0.791123 -0.11473
C_ C_ 0.809281 0.131392 0.783484 -0.11473
C_ C_ 0.553569 0.131179 0.715108 -0.11473
C_ C_ 0.797764 0.140005 0.710139 -0.11473
C_ C_ 0.532535 0.0763303 0.758815 -0.02249
C_ C_ 0.78351 0.0784785 0.746341 -0.02249
C_ C_ 0.582174 0.191826 0.748186 0.6875
C_ C_ 0.834091 0.189414 0.745544 0.6875
C_ C_ 0.543913 0.0955388 0.794165 -0.11473
C_ C_ 0.796505 0.092836 0.783255 -0.11473
C_ C_ 0.615124 0.291307 0.874122 0.17695
C_ C_ 0.897479 0.256509 0.874251 0.17695
C_ C_ 0.631703 0.221288 0.873754 0.17695
C_ C_ 0.845528 0.243518 0.872932 0.17695
C_ C_ 0.63452 0.221442 0.917808 -0.11473
C_ C_ 0.845609 0.248664 0.917315 -0.11473
C_ C_ 0.626305 0.257353 0.940236 0.23465
C_ C_ 0.872466 0.261013 0.939739 0.23465
C_ C_ 0.61679 0.292641 0.917679 -0.11473
C_ C_ 0.898131 0.261946 0.916469 -0.11473
C_ C_ 0.626299 0.216535 0.622014 0.17695
C_ C_ 0.896233 0.226197 0.616497 0.17695
C_ C_ 0.627813 0.288684 0.622983 0.17695
C_ C_ 0.854758 0.271522 0.619241 0.17695
C_ C_ 0.6308 0.290596 0.57935 -0.11473
C_ C_ 0.852987 0.273849 0.574403 -0.11473
C_ C_ 0.631574 0.252197 0.555704 0.23465
C_ C_ 0.873258 0.250166 0.550844 0.23465
C_ C_ 0.630084 0.21541 0.577031 -0.11473
C_ C_ 0.894685 0.225374 0.572138 -0.11473
C_ C_ 0.527447 0.493385 0.754247 0.05793
C_ C_ 0.784002 0.493015 0.743821 0.05793
C_ C_ 0.717561 0.00134828 0.742706 0.05793
C_ C_ 0.967801 1.0000000000065512e-05 0.752847 0.05793
Br Br 0.570494 0.493271 0.754188 -0.17191
Br Br 0.826403 0.491195 0.758224 -0.17191
Br Br 0.674626 -0.000553355 0.73354 -0.17191
Br Br 0.924629 -0.0007909999999999862 0.762538 -0.17191
N_ N_ 0.623988 0.256897 0.852714 -0.272
N_ N_ 0.872097 0.245876 0.853435 -0.272
N_ N_ 0.626947 0.260703 0.985308 -0.12501
N_ N_ 0.87558 0.261438 0.985161 -0.12501
N_ N_ 0.626677 0.251728 0.64313 -0.272
N_ N_ 0.875907 0.249166 0.639634 -0.272
N_ N_ 0.636977 0.251325 0.512629 -0.12501
N_ N_ 0.874652 0.256749 0.506815 -0.12501
O_ O_ 0.5905 0.28853 0.714077 -0.60745
O_ O_ 0.84205 0.28575 0.712494 -0.60745
O_ O_ 0.596412 0.297085 0.782758 -0.60745
O_ O_ 0.846112 0.294711 0.780884 -0.60745
O_ O_ 0.660267 0.28877 0.782008 -0.60745
O_ O_ 0.906531 0.28854 0.781741 -0.60745
O_ O_ 0.648331 0.299298 0.714679 -0.60745
O_ O_ 0.903346 0.294691 0.713383 -0.60745
O_ O_ 0.654688 0.20719 0.783213 -0.60745
O_ O_ 0.903768 0.202445 0.783768 -0.60745
O_ O_ 0.658607 0.212902 0.714854 -0.60745
O_ O_ 0.907738 0.205576 0.714396 -0.60745
O_ O_ 0.598977 0.196273 0.716264 -0.60745
O_ O_ 0.847241 0.198268 0.713248 -0.60745
O_ O_ 0.589366 0.212074 0.781806 -0.60745
O_ O_ 0.841641 0.206343 0.779021 -0.60745
Zn Zn 0.622179 0.753849 0.290406 0.9476
Zn Zn 0.874251 0.753306 0.281057 0.9476
Zn Zn 0.621341 0.75323 0.219166 0.9476
Zn Zn 0.877371 0.751639 0.21214 0.9476
H_ H_ 0.524286 0.906892 0.188979 0.10932
H_ H_ 0.764373 0.899103 0.181793 0.10932
H_ H_ 0.574376 0.867048 0.325175 0.10932
H_ H_ 0.837946 0.877251 0.30092 0.10932
H_ H_ 0.558455 0.850495 0.192318 0.10932
H_ H_ 0.79213 0.833165 0.186953 0.10932
H_ H_ 0.545996 0.932206 0.320915 0.10932
H_ H_ 0.804595 0.933767 0.302647 0.10932
H_ H_ 0.732853 0.895279 0.312311 0.10932
H_ H_ 0.951061 0.929182 0.32802 0.10932
H_ H_ 0.661976 0.877729 0.191297 0.10932
H_ H_ 0.940152 0.858823 0.185775 0.10932
H_ H_ 0.699228 0.838524 0.309769 0.10932
H_ H_ 0.923062 0.862077 0.320254 0.10932
H_ H_ 0.691692 0.941676 0.197382 0.10932
H_ H_ 0.96904 0.920891 0.193289 0.10932
H_ H_ 0.724182 0.593418 0.315331 0.10932
H_ H_ 0.958889 0.576647 0.309147 0.10932
H_ H_ 0.682232 0.65215 0.180733 0.10932
H_ H_ 0.952714 0.660954 0.181016 0.10932
H_ H_ 0.697011 0.660211 0.316576 0.10932
H_ H_ 0.931692 0.641461 0.310982 0.10932
H_ H_ 0.713075 0.587235 0.180233 0.10932
H_ H_ 0.972827 0.591092 0.176734 0.10932
H_ H_ 0.552965 0.567496 0.187381 0.10932
H_ H_ 0.781171 0.588157 0.179022 0.10932
H_ H_ 0.554047 0.650783 0.317718 0.10932
H_ H_ 0.827316 0.636357 0.310909 0.10932
H_ H_ 0.580938 0.63505 0.189888 0.10932
H_ H_ 0.815449 0.647049 0.18034 0.10932
H_ H_ 0.526761 0.586081 0.312501 0.10932
H_ H_ 0.787727 0.58518 0.315383 0.10932
H_ H_ 0.633036 0.684869 0.362457 0.10932
H_ H_ 0.824251 0.757502 0.34599 0.10932
H_ H_ 0.629129 0.812746 0.362613 0.10932
H_ H_ 0.91676 0.746801 0.362308 0.10932
H_ H_ 0.633632 0.817285 0.44071 0.10932
H_ H_ 0.909975 0.744758 0.443611 0.10932
H_ H_ 0.638279 0.682899 0.441419 0.10932
H_ H_ 0.81614 0.760931 0.424545 0.10932
H_ H_ 0.5737 0.762069 0.15226 0.10932
H_ H_ 0.888251 0.691144 0.131438 0.10932
H_ H_ 0.664132 0.730189 0.132225 0.10932
H_ H_ 0.863957 0.818395 0.142755 0.10932
H_ H_ 0.657651 0.731803 0.056818 0.10932
H_ H_ 0.871994 0.826236 0.0675031 0.10932
H_ H_ 0.563823 0.76578 0.0789244 0.10932
H_ H_ 0.879056 0.691719 0.0539323 0.10932
C_ C_ 0.567167 0.853358 0.256931 -0.02249
C_ C_ 0.817112 0.850402 0.244166 -0.02249
C_ C_ 0.513985 0.964463 0.252851 -0.02249
C_ C_ 0.764281 0.963299 0.245566 -0.02249
C_ C_ 0.534153 0.89979 0.218795 -0.11473
C_ C_ 0.779645 0.893745 0.210171 -0.11473
C_ C_ 0.563214 0.875683 0.294482 -0.11473
C_ C_ 0.819572 0.878328 0.278805 -0.11473
C_ C_ 0.55389 0.867286 0.219912 -0.11473
C_ C_ 0.797211 0.857107 0.21113 -0.11473
C_ C_ 0.532313 0.92594 0.255149 -0.02249
C_ C_ 0.782223 0.92185 0.244242 -0.02249
C_ C_ 0.585753 0.813517 0.255987 0.6875
C_ C_ 0.835085 0.811271 0.24629 0.6875
C_ C_ 0.546562 0.912957 0.293268 -0.11473
C_ C_ 0.801705 0.913004 0.277899 -0.11473
C_ C_ 0.678066 0.853776 0.251217 -0.02249
C_ C_ 0.929824 0.854911 0.252857 -0.02249
C_ C_ 0.733858 0.962916 0.254238 -0.02249
C_ C_ 0.982577 0.968009 0.262043 -0.02249
C_ C_ 0.719243 0.893211 0.285303 -0.11473
C_ C_ 0.950481 0.911165 0.296668 -0.11473
C_ C_ 0.678635 0.882023 0.216667 -0.11473
C_ C_ 0.941236 0.873135 0.216554 -0.11473
C_ C_ 0.700487 0.857348 0.283569 -0.11473
C_ C_ 0.935008 0.873371 0.293074 -0.11473
C_ C_ 0.716605 0.924082 0.253013 -0.02249
C_ C_ 0.96431 0.928793 0.260185 -0.02249
C_ C_ 0.660456 0.816263 0.251321 0.6875
C_ C_ 0.911799 0.814872 0.249784 0.6875
C_ C_ 0.694912 0.919551 0.220661 -0.11473
C_ C_ 0.961367 0.906688 0.221151 -0.11473
C_ C_ 0.685497 0.660071 0.248126 -0.02249
C_ C_ 0.93872 0.656901 0.24701 -0.02249
C_ C_ 0.732759 0.54308 0.248471 -0.02249
C_ C_ 0.985932 0.539883 0.244232 -0.02249
C_ C_ 0.715298 0.606116 0.286503 -0.11473
C_ C_ 0.956348 0.593392 0.281489 -0.11473
C_ C_ 0.692022 0.640336 0.209297 -0.11473
C_ C_ 0.952478 0.642213 0.20929 -0.11473
C_ C_ 0.699397 0.645118 0.285894 -0.11473
C_ C_ 0.940592 0.631313 0.282362 -0.11473
C_ C_ 0.716922 0.584169 0.248581 -0.02249
C_ C_ 0.968191 0.578069 0.243346 -0.02249
C_ C_ 0.663296 0.694113 0.249132 0.6875
C_ C_ 0.919231 0.694397 0.246436 0.6875
C_ C_ 0.707117 0.601772 0.210236 -0.11473
C_ C_ 0.964577 0.601942 0.207469 -0.11473
C_ C_ 0.568299 0.649629 0.254356 -0.02249
C_ C_ 0.82187 0.648979 0.24602 -0.02249
C_ C_ 0.516217 0.535425 0.248542 -0.02249
C_ C_ 0.765116 0.544284 0.247578 -0.02249
C_ C_ 0.551591 0.586342 0.215004 -0.11473
C_ C_ 0.789774 0.599464 0.207947 -0.11473
C_ C_ 0.553541 0.634219 0.287651 -0.11473
C_ C_ 0.813445 0.6327 0.284312 -0.11473
C_ C_ 0.567764 0.624463 0.217926 -0.11473
C_ C_ 0.80879 0.63278 0.208421 -0.11473
C_ C_ 0.535271 0.572866 0.249257 -0.02249
C_ C_ 0.780958 0.583351 0.24696 -0.02249
C_ C_ 0.584306 0.691045 0.257249 0.6875
C_ C_ 0.841423 0.687787 0.242255 0.6875
C_ C_ 0.536231 0.599227 0.284333 -0.11473
C_ C_ 0.792951 0.599118 0.286213 -0.11473
C_ C_ 0.630494 0.712456 0.380339 0.17695
C_ C_ 0.842728 0.755135 0.366411 0.17695
C_ C_ 0.62888 0.785491 0.380589 0.17695
C_ C_ 0.895807 0.749072 0.377827 0.17695
C_ C_ 0.634127 0.786452 0.422866 -0.11473
C_ C_ 0.89253 0.75202 0.421911 -0.11473
C_ C_ 0.636233 0.748978 0.445077 0.23465
C_ C_ 0.863763 0.759643 0.439075 0.23465
C_ C_ 0.63545 0.711364 0.424404 -0.11473
C_ C_ 0.838626 0.759195 0.410243 -0.11473
C_ C_ 0.591881 0.754754 0.132698 0.17695
C_ C_ 0.88153 0.719531 0.117635 0.17695
C_ C_ 0.643059 0.743464 0.120529 0.17695
C_ C_ 0.869565 0.791727 0.124288 0.17695
C_ C_ 0.638095 0.740708 0.0772818 -0.11473
C_ C_ 0.871817 0.795258 0.0813029 -0.11473
C_ C_ 0.609803 0.75001 0.0602609 0.23465
C_ C_ 0.873352 0.760664 0.0541747 0.23465
C_ C_ 0.586215 0.756379 0.0893135 -0.11473
C_ C_ 0.878387 0.72052 0.0717279 -0.11473
C_ C_ 0.531179 1.00148619 0.257806 0.05793
C_ C_ 0.78093 1.0017191 0.240173 0.05793
C_ C_ 0.718234 0.506557 0.243938 0.05793
C_ C_ 0.972342 0.50084 0.236561 0.05793
Br Br 0.573975 0.998587 0.254267 -0.17191
Br Br 0.823575 0.999859449 0.224458 -0.17191
Br Br 0.675435 0.505728 0.256355 -0.17191
Br Br 0.934273 0.498861 0.207913 -0.17191
N_ N_ 0.63058 0.749373 0.359471 -0.272
N_ N_ 0.871038 0.752115 0.351377 -0.272
N_ N_ 0.636917 0.751914 0.489185 -0.12501
N_ N_ 0.858527 0.760956 0.485074 -0.12501
N_ N_ 0.621086 0.752338 0.148153 -0.272
N_ N_ 0.876213 0.753886 0.142293 -0.272
N_ N_ 0.605781 0.755059 0.0163559 -0.12501
N_ N_ 0.869305 0.764816 0.0102092 -0.12501
O_ O_ 0.587693 0.792194 0.222383 -0.60745
O_ O_ 0.846565 0.795848 0.213473 -0.60745
O_ O_ 0.593346 0.798171 0.291443 -0.60745
O_ O_ 0.842613 0.796404 0.280649 -0.60745
O_ O_ 0.653343 0.800815 0.287188 -0.60745
O_ O_ 0.906563 0.795507 0.28336 -0.60745
O_ O_ 0.650204 0.801681 0.216109 -0.60745
O_ O_ 0.906924 0.797163 0.214784 -0.60745
O_ O_ 0.653388 0.709917 0.283707 -0.60745
O_ O_ 0.909609 0.707699 0.281681 -0.60745
O_ O_ 0.655333 0.713001 0.214374 -0.60745
O_ O_ 0.909386 0.707503 0.212097 -0.60745
O_ O_ 0.595799 0.705364 0.224487 -0.60745
O_ O_ 0.846197 0.704376 0.206796 -0.60745
O_ O_ 0.591898 0.705885 0.292482 -0.60745
O_ O_ 0.846191 0.708323 0.275286 -0.60745
Zn Zn 0.627454 0.745784 0.785309 0.9476
Zn Zn 0.870932 0.753035 0.782677 0.9476
Zn Zn 0.624895 0.743122 0.71176 0.9476
Zn Zn 0.873195 0.754515 0.713254 0.9476
H_ H_ 0.547968 0.930611 0.693696 0.10932
H_ H_ 0.786605 0.927281 0.685559 0.10932
H_ H_ 0.551249 0.830818 0.809457 0.10932
H_ H_ 0.805607 0.847127 0.815344 0.10932
H_ H_ 0.576017 0.866558 0.684734 0.10932
H_ H_ 0.810099 0.859147 0.680878 0.10932
H_ H_ 0.533805 0.903276 0.822633 0.10932
H_ H_ 0.779723 0.914384 0.817502 0.10932
H_ H_ 0.705046 0.927028 0.810869 0.10932
H_ H_ 0.961915 0.921737 0.823104 0.10932
H_ H_ 0.705152 0.833557 0.683664 0.10932
H_ H_ 0.939631 0.849606 0.687427 0.10932
H_ H_ 0.672497 0.861674 0.809279 0.10932
H_ H_ 0.935398 0.855982 0.822262 0.10932
H_ H_ 0.721954 0.906713 0.677846 0.10932
H_ H_ 0.966744 0.915955 0.687844 0.10932
H_ H_ 0.714986 0.57372 0.808811 0.10932
H_ H_ 0.947284 0.568538 0.810003 0.10932
H_ H_ 0.685291 0.642091 0.68042 0.10932
H_ H_ 0.945051 0.661549 0.68464 0.10932
H_ H_ 0.689666 0.638959 0.813961 0.10932
H_ H_ 0.925493 0.638723 0.816266 0.10932
H_ H_ 0.716044 0.582081 0.674276 0.10932
H_ H_ 0.96932 0.589986 0.682876 0.10932
H_ H_ 0.518671 0.587199 0.688974 0.10932
H_ H_ 0.790388 0.580485 0.672087 0.10932
H_ H_ 0.572866 0.633303 0.815802 0.10932
H_ H_ 0.812791 0.642615 0.811914 0.10932
H_ H_ 0.557272 0.646199 0.682584 0.10932
H_ H_ 0.808026 0.651565 0.676321 0.10932
H_ H_ 0.534602 0.5762 0.820536 0.10932
H_ H_ 0.789378 0.573658 0.807216 0.10932
H_ H_ 0.666991 0.762936 0.864393 0.10932
H_ H_ 0.852244 0.687042 0.851582 0.10932
H_ H_ 0.578847 0.721818 0.857574 0.10932
H_ H_ 0.891933 0.807735 0.861341 0.10932
H_ H_ 0.573934 0.738027 0.937352 0.10932
H_ H_ 0.894859 0.799651 0.943115 0.10932
H_ H_ 0.668 0.762087 0.943494 0.10932
H_ H_ 0.853846 0.677779 0.928726 0.10932
H_ H_ 0.622557 0.674197 0.646363 0.10932
H_ H_ 0.862452 0.823355 0.635074 0.10932
H_ H_ 0.638597 0.800473 0.637755 0.10932
H_ H_ 0.871371 0.691985 0.643773 0.10932
H_ H_ 0.627388 0.79938 0.558014 0.10932
H_ H_ 0.876262 0.687114 0.568584 0.10932
H_ H_ 0.622735 0.66499 0.567558 0.10932
H_ H_ 0.867698 0.819457 0.554813 0.10932
C_ C_ 0.567222 0.844277 0.745194 -0.02249
C_ C_ 0.812477 0.849183 0.749186 -0.02249
C_ C_ 0.518705 0.959332 0.759988 -0.02249
C_ C_ 0.764515 0.963547 0.752158 -0.02249
C_ C_ 0.547919 0.907623 0.718073 -0.11473
C_ C_ 0.792418 0.910206 0.713976 -0.11473
C_ C_ 0.552719 0.854411 0.783882 -0.11473
C_ C_ 0.802461 0.864856 0.787183 -0.11473
C_ C_ 0.561801 0.870554 0.711578 -0.11473
C_ C_ 0.806771 0.872558 0.712152 -0.11473
C_ C_ 0.537176 0.920181 0.757503 -0.02249
C_ C_ 0.781037 0.923796 0.751303 -0.02249
C_ C_ 0.588916 0.807161 0.743671 0.6875
C_ C_ 0.833553 0.811989 0.74918 0.6875
C_ C_ 0.54011 0.893633 0.7919 -0.11473
C_ C_ 0.787417 0.90326 0.78827 -0.11473
C_ C_ 0.687011 0.842937 0.747086 -0.02249
C_ C_ 0.933696 0.847711 0.755168 -0.02249
C_ C_ 0.732769 0.96291 0.747484 -0.02249
C_ C_ 0.983523 0.962401 0.751357 -0.02249
C_ C_ 0.70257 0.907193 0.782006 -0.11473
C_ C_ 0.958072 0.905104 0.794553 -0.11473
C_ C_ 0.702912 0.854794 0.710112 -0.11473
C_ C_ 0.945173 0.863781 0.718476 -0.11473
C_ C_ 0.687249 0.869359 0.782593 -0.11473
C_ C_ 0.940452 0.86985 0.792919 -0.11473
C_ C_ 0.716232 0.922179 0.744706 -0.02249
C_ C_ 0.967588 0.922368 0.755082 -0.02249
C_ C_ 0.667289 0.80476 0.747695 0.6875
C_ C_ 0.916453 0.808427 0.753863 0.6875
C_ C_ 0.71577 0.89521 0.707907 -0.11473
C_ C_ 0.959613 0.903382 0.717934 -0.11473
C_ C_ 0.686933 0.648141 0.745809 -0.02249
C_ C_ 0.929623 0.651325 0.747084 -0.02249
C_ C_ 0.737912 0.535059 0.738714 -0.02249
C_ C_ 0.98015 0.536894 0.747164 -0.02249
C_ C_ 0.71347 0.592227 0.780151 -0.11473
C_ C_ 0.950844 0.589305 0.783789 -0.11473
C_ C_ 0.698233 0.634815 0.706897 -0.11473
C_ C_ 0.944825 0.638289 0.712384 -0.11473
C_ C_ 0.69624 0.627792 0.782822 -0.11473
C_ C_ 0.935227 0.628112 0.785444 -0.11473
C_ C_ 0.722667 0.575808 0.741596 -0.02249
C_ C_ 0.96362 0.576525 0.747903 -0.02249
C_ C_ 0.666534 0.685464 0.747905 0.6875
C_ C_ 0.909999 0.687414 0.746145 0.6875
C_ C_ 0.71462 0.59805 0.703772 -0.11473
C_ C_ 0.962216 0.601758 0.712586 -0.11473
C_ C_ 0.56491 0.645029 0.750254 -0.02249
C_ C_ 0.815093 0.65224 0.742588 -0.02249
C_ C_ 0.512541 0.533133 0.753409 -0.02249
C_ C_ 0.770125 0.532309 0.740169 -0.02249
C_ C_ 0.534239 0.593919 0.714266 -0.11473
C_ C_ 0.793673 0.593087 0.70272 -0.11473
C_ C_ 0.560051 0.623534 0.788692 -0.11473
C_ C_ 0.807864 0.631479 0.77936 -0.11473
C_ C_ 0.550762 0.631016 0.712825 -0.11473
C_ C_ 0.805904 0.633804 0.704778 -0.11473
C_ C_ 0.53084 0.571633 0.750075 -0.02249
C_ C_ 0.788988 0.57161 0.740028 -0.02249
C_ C_ 0.586599 0.682203 0.750047 0.6875
C_ C_ 0.830618 0.694013 0.743095 0.6875
C_ C_ 0.540474 0.588961 0.788825 -0.11473
C_ C_ 0.797732 0.589376 0.778815 -0.11473
C_ C_ 0.647446 0.756336 0.880408 0.17695
C_ C_ 0.860833 0.711927 0.870444 0.17695
C_ C_ 0.597057 0.73458 0.877046 0.17695
C_ C_ 0.883517 0.778564 0.877497 0.17695
C_ C_ 0.59542 0.739019 0.920902 -0.11473
C_ C_ 0.884079 0.774794 0.922587 -0.11473
C_ C_ 0.621657 0.745027 0.945485 0.23465
C_ C_ 0.871684 0.738277 0.9401 0.23465
C_ C_ 0.64886 0.751328 0.924374 -0.11473
C_ C_ 0.859042 0.708801 0.915253 -0.11473
C_ C_ 0.624148 0.699796 0.625274 0.17695
C_ C_ 0.868023 0.793728 0.619179 0.17695
C_ C_ 0.62775 0.773588 0.621172 0.17695
C_ C_ 0.868768 0.720954 0.624726 0.17695
C_ C_ 0.624961 0.770946 0.57591 -0.11473
C_ C_ 0.869891 0.716501 0.581003 -0.11473
C_ C_ 0.62112 0.731507 0.557528 0.23465
C_ C_ 0.870686 0.752277 0.554636 0.23465
C_ C_ 0.622138 0.695889 0.581803 -0.11473
C_ C_ 0.868523 0.791535 0.574469 -0.11473
C_ C_ 0.533628 -0.001866999999999952 0.758557 0.05793
C_ C_ 0.780327 0.00223381 0.753522 0.05793
C_ C_ 0.72087 0.499553 0.732894 0.05793
C_ C_ 0.96554 0.499163 0.747382 0.05793
Br Br 0.57521 0.0001100000000000545 0.751489 -0.17191
Br Br 0.821191 1.00360583 0.763181 -0.17191
Br Br 0.67839 0.50257 0.722537 -0.17191
Br Br 0.92418 0.497025 0.751982 -0.17191
N_ N_ 0.621279 0.748263 0.858391 -0.272
N_ N_ 0.870983 0.748138 0.853113 -0.272
N_ N_ 0.62301 0.738117 0.990697 -0.12501
N_ N_ 0.87062 0.734554 0.98638 -0.12501
N_ N_ 0.624562 0.738037 0.643606 -0.272
N_ N_ 0.86968 0.758406 0.64345 -0.272
N_ N_ 0.622297 0.726614 0.511851 -0.12501
N_ N_ 0.878026 0.75016 0.512195 -0.12501
O_ O_ 0.59306 0.789515 0.709022 -0.60745
O_ O_ 0.842629 0.797312 0.714776 -0.60745
O_ O_ 0.596538 0.790251 0.778178 -0.60745
O_ O_ 0.843877 0.796396 0.782035 -0.60745
O_ O_ 0.660235 0.787602 0.781222 -0.60745
O_ O_ 0.905444 0.79063 0.786438 -0.60745
O_ O_ 0.653873 0.792806 0.713521 -0.60745
O_ O_ 0.908057 0.796027 0.717477 -0.60745
O_ O_ 0.659679 0.702121 0.783727 -0.60745
O_ O_ 0.899342 0.702359 0.780905 -0.60745
O_ O_ 0.658226 0.702452 0.714195 -0.60745
O_ O_ 0.902836 0.703423 0.710979 -0.60745
O_ O_ 0.596764 0.69532 0.716151 -0.60745
O_ O_ 0.844755 0.704323 0.711624 -0.60745
O_ O_ 0.592443 0.703788 0.781993 -0.60745
O_ O_ 0.836887 0.711132 0.778132 -0.60745
_cell_length_a 44.444
_cell_length_b 32.3360000049186
_cell_length_c 31.843999878906452
_cell_angle_alpha 89.99799923859553
_cell_angle_beta 91.13600050494348
_cell_angle_gamma 89.9990006550086
_symmetry_space_group_name_H-M         'P 1'
_symmetry_Int_Tables_number            1
loop_
_symmetry_equiv_pos_as_xyz
   'x, y, z'
                         
loop_
_atom_site_label
_atom_site_type_symbol
_atom_site_fract_x 
_atom_site_fract_y
_atom_site_fract_z
_atom_site_charge
Zn Zn 0.12638 0.252216 0.284376 0.9476
Zn Zn 0.376691 0.249136 0.288451 0.9476
Zn Zn 0.125688 0.246879 0.215268 0.9476
Zn Zn 0.372617 0.24672 0.218951 0.9476
H_ H_ 0.0296508 0.412509 0.178117 0.10932
H_ H_ 0.291933 0.422959 0.187267 0.10932
H_ H_ 0.0728234 0.357621 0.313741 0.10932
H_ H_ 0.309441 0.345847 0.325107 0.10932
H_ H_ 0.0574305 0.34655 0.179704 0.10932
H_ H_ 0.318922 0.357315 0.187873 0.10932
H_ H_ 0.047862 0.426663 0.310964 0.10932
H_ H_ 0.282641 0.415575 0.321625 0.10932
H_ H_ 0.204197 0.427772 0.303682 0.10932
H_ H_ 0.448263 0.427679 0.313005 0.10932
H_ H_ 0.209219 0.339561 0.184684 0.10932
H_ H_ 0.445463 0.337888 0.187037 0.10932
H_ H_ 0.174734 0.3674 0.305688 0.10932
H_ H_ 0.424431 0.359239 0.313817 0.10932
H_ H_ 0.231338 0.404609 0.18046 0.10932
H_ H_ 0.469776 0.404328 0.181774 0.10932
H_ H_ 0.22165 0.087511 0.324666 0.10932
H_ H_ 0.457513 0.0702743 0.309855 0.10932
H_ H_ 0.183326 0.137351 0.187739 0.10932
H_ H_ 0.43434 0.153818 0.184912 0.10932
H_ H_ 0.198617 0.154697 0.318494 0.10932
H_ H_ 0.434721 0.138967 0.317582 0.10932
H_ H_ 0.205117 0.0622471 0.195186 0.10932
H_ H_ 0.466768 0.089926 0.178465 0.10932
H_ H_ 0.0424978 0.0816694 0.18055 0.10932
H_ H_ 0.279318 0.0859641 0.185231 0.10932
H_ H_ 0.0647506 0.153947 0.317687 0.10932
H_ H_ 0.321507 0.13402 0.322522 0.10932
H_ H_ 0.0753447 0.142373 0.184328 0.10932
H_ H_ 0.312089 0.147108 0.189611 0.10932
H_ H_ 0.0338332 0.0853714 0.315953 0.10932
H_ H_ 0.288243 0.0743868 0.32207 0.10932
H_ H_ 0.130186 0.315526 0.351972 0.10932
H_ H_ 0.376476 0.313054 0.354501 0.10932
H_ H_ 0.124349 0.187797 0.362998 0.10932
H_ H_ 0.375859 0.184571 0.369199 0.10932
H_ H_ 0.126282 0.1888 0.441419 0.10932
H_ H_ 0.375952 0.190964 0.446808 0.10932
H_ H_ 0.129604 0.321342 0.43563 0.10932
H_ H_ 0.381116 0.32395 0.430195 0.10932
H_ H_ 0.134875 0.309743 0.136782 0.10932
H_ H_ 0.416833 0.269694 0.15416 0.10932
H_ H_ 0.119925 0.18279 0.147776 0.10932
H_ H_ 0.331878 0.222412 0.134943 0.10932
H_ H_ 0.123239 0.175901 0.0689915 0.10932
H_ H_ 0.335362 0.228335 0.0578075 0.10932
H_ H_ 0.142246 0.307134 0.0614932 0.10932
H_ H_ 0.425444 0.26884 0.0762538 0.10932
C_ C_ 0.0701368 0.349816 0.244208 -0.02249
C_ C_ 0.314239 0.345059 0.256384 -0.02249
C_ C_ 0.0195193 0.46306 0.245697 -0.02249
C_ C_ 0.268114 0.462758 0.251317 -0.02249
C_ C_ 0.0420183 0.40307 0.207164 -0.11473
C_ C_ 0.295108 0.405213 0.217913 -0.11473
C_ C_ 0.0660213 0.371744 0.282356 -0.11473
C_ C_ 0.305912 0.363188 0.29455 -0.11473
C_ C_ 0.0570829 0.364322 0.207034 -0.11473
C_ C_ 0.309588 0.366738 0.218226 -0.11473
C_ C_ 0.0362998 0.423209 0.244939 -0.02249
C_ C_ 0.284902 0.421443 0.254392 -0.02249
C_ C_ 0.0862577 0.309268 0.244034 0.6875
C_ C_ 0.330178 0.303373 0.255411 0.6875
C_ C_ 0.0496264 0.408973 0.281943 -0.11473
C_ C_ 0.293043 0.402837 0.293278 -0.11473
C_ C_ 0.187461 0.345257 0.242604 -0.02249
C_ C_ 0.432325 0.343876 0.250757 -0.02249
C_ C_ 0.237562 0.462883 0.242172 -0.02249
C_ C_ 0.48248 0.461657 0.244219 -0.02249
C_ C_ 0.207281 0.408149 0.278597 -0.11473
C_ C_ 0.450571 0.409219 0.28527 -0.11473
C_ C_ 0.205735 0.358183 0.209515 -0.11473
C_ C_ 0.445521 0.358147 0.214722 -0.11473
C_ C_ 0.189382 0.37166 0.279008 -0.11473
C_ C_ 0.433905 0.371341 0.285314 -0.11473
C_ C_ 0.220245 0.42235 0.242856 -0.02249
C_ C_ 0.463508 0.423648 0.247193 -0.02249
C_ C_ 0.167421 0.307269 0.243873 0.6875
C_ C_ 0.413334 0.306909 0.252886 0.6875
C_ C_ 0.218619 0.397349 0.207538 -0.11473
C_ C_ 0.459812 0.397786 0.211417 -0.11473
C_ C_ 0.181935 0.146435 0.254572 -0.02249
C_ C_ 0.43861 0.155684 0.249786 -0.02249
C_ C_ 0.235072 0.0332262 0.259749 -0.02249
C_ C_ 0.487367 0.0419535 0.243121 -0.02249
C_ C_ 0.214538 0.0990409 0.294238 -0.11473
C_ C_ 0.458188 0.092355 0.283316 -0.11473
C_ C_ 0.187405 0.12233 0.217976 -0.11473
C_ C_ 0.444428 0.139493 0.21028 -0.11473
C_ C_ 0.197882 0.135586 0.29199 -0.11473
C_ C_ 0.442213 0.12932 0.285913 -0.11473
C_ C_ 0.217807 0.0726441 0.257974 -0.02249
C_ C_ 0.470337 0.0807978 0.246096 -0.02249
C_ C_ 0.165327 0.188036 0.252073 0.6875
C_ C_ 0.421197 0.196844 0.252752 0.6875
C_ C_ 0.206139 0.0856715 0.21922 -0.11473
C_ C_ 0.461142 0.101298 0.20914 -0.11473
C_ C_ 0.0711019 0.153552 0.251431 -0.02249
C_ C_ 0.317393 0.147512 0.256039 -0.02249
C_ C_ 0.0165974 0.0425014 0.249291 -0.02249
C_ C_ 0.266275 0.0345625 0.25205 -0.02249
C_ C_ 0.0457622 0.0983288 0.210568 -0.11473
C_ C_ 0.288106 0.095871 0.217124 -0.11473
C_ C_ 0.0614712 0.135586 0.289362 -0.11473
C_ C_ 0.310153 0.127362 0.294306 -0.11473
C_ C_ 0.0629695 0.134204 0.212326 -0.11473
C_ C_ 0.305715 0.131435 0.218295 -0.11473
C_ C_ 0.0350321 0.080723 0.24858 -0.02249
C_ C_ 0.281616 0.0753952 0.253842 -0.02249
C_ C_ 0.0871054 0.193446 0.252231 0.6875
C_ C_ 0.338571 0.184146 0.253873 0.6875
C_ C_ 0.0435853 0.0983807 0.287215 -0.11473
C_ C_ 0.290934 0.092489 0.292519 -0.11473
C_ C_ 0.127516 0.289298 0.374269 0.17695
C_ C_ 0.378516 0.286669 0.374708 0.17695
C_ C_ 0.127578 0.216306 0.379631 0.17695
C_ C_ 0.374668 0.214177 0.382752 0.17695
C_ C_ 0.1304 0.217392 0.424018 -0.11473
C_ C_ 0.374629 0.218817 0.426899 -0.11473
C_ C_ 0.128145 0.256718 0.444042 0.23465
C_ C_ 0.375566 0.259269 0.446031 0.23465
C_ C_ 0.128104 0.292064 0.418365 -0.11473
C_ C_ 0.376183 0.293085 0.418735 -0.11473
C_ C_ 0.131781 0.280906 0.120912 0.17695
C_ C_ 0.399587 0.258784 0.132815 0.17695
C_ C_ 0.124079 0.209501 0.128127 0.17695
C_ C_ 0.351799 0.231073 0.123255 0.17695
C_ C_ 0.126287 0.205074 0.083525 -0.11473
C_ C_ 0.35386 0.231544 0.078569 -0.11473
C_ C_ 0.136461 0.239412 0.0585809 0.23465
C_ C_ 0.379476 0.248452 0.0610732 0.23465
C_ C_ 0.138152 0.277982 0.0778658 -0.11473
C_ C_ 0.403896 0.261185 0.0889349 -0.11473
C_ C_ 0.0334713 0.500811 0.25494 0.05793
C_ C_ 0.282437 0.499899 0.255618 0.05793
C_ C_ 0.22003 -0.005878999999999968 0.262669 0.05793
C_ C_ 0.470454 1.00451262 0.24052 0.05793
Br Br 0.0773086 0.503837 0.261225 -0.17191
Br Br 0.324373 0.50124 0.271958 -0.17191
Br Br 0.175172 -0.006588000000000038 0.263291 -0.17191
Br Br 0.428789 1.00860681 0.224256 -0.17191
N_ N_ 0.130051 0.251896 0.355899 -0.272
N_ N_ 0.377406 0.247872 0.357467 -0.272
N_ N_ 0.130152 0.262814 0.487827 -0.12501
N_ N_ 0.37956 0.265815 0.489738 -0.12501
N_ N_ 0.127303 0.247221 0.145308 -0.272
N_ N_ 0.373022 0.247739 0.148004 -0.272
N_ N_ 0.135789 0.233436 0.0134283 -0.12501
N_ N_ 0.383401 0.252338 0.0171519 -0.12501
O_ O_ 0.0997532 0.297601 0.211415 -0.60745
O_ O_ 0.33793 0.289051 0.220012 -0.60745
O_ O_ 0.0937171 0.291569 0.279397 -0.60745
O_ O_ 0.34299 0.287251 0.287379 -0.60745
O_ O_ 0.157411 0.295538 0.279337 -0.60745
O_ O_ 0.405017 0.295051 0.288869 -0.60745
O_ O_ 0.160268 0.286217 0.211441 -0.60745
O_ O_ 0.400948 0.29338 0.219987 -0.60745
O_ O_ 0.157941 0.204569 0.286977 -0.60745
O_ O_ 0.411632 0.211326 0.286409 -0.60745
O_ O_ 0.152164 0.198123 0.217176 -0.60745
O_ O_ 0.409832 0.210344 0.21815 -0.60745
O_ O_ 0.0894863 0.211933 0.217427 -0.60745
O_ O_ 0.344876 0.200998 0.218477 -0.60745
O_ O_ 0.0998912 0.205911 0.2867 -0.60745
O_ O_ 0.34974 0.197775 0.288292 -0.60745
Zn Zn 0.123892 0.251445 0.786085 0.9476
Zn Zn 0.375703 0.24756 0.78966 0.9476
Zn Zn 0.124891 0.252895 0.715423 0.9476
Zn Zn 0.372463 0.245113 0.721484 0.9476
H_ H_ 0.0299681 0.414355 0.684421 0.10932
H_ H_ 0.281121 0.413133 0.680192 0.10932
H_ H_ 0.0710617 0.361603 0.818442 0.10932
H_ H_ 0.31028 0.351382 0.816903 0.10932
H_ H_ 0.0524482 0.344375 0.687323 0.10932
H_ H_ 0.306546 0.344684 0.68087 0.10932
H_ H_ 0.0353367 0.421286 0.816684 0.10932
H_ H_ 0.289584 0.41547 0.816417 0.10932
H_ H_ 0.233846 0.403712 0.807712 0.10932
H_ H_ 0.462896 0.415485 0.823985 0.10932
H_ H_ 0.164863 0.374762 0.687691 0.10932
H_ H_ 0.42979 0.348699 0.687679 0.10932
H_ H_ 0.200312 0.342429 0.812805 0.10932
H_ H_ 0.444669 0.341293 0.822167 0.10932
H_ H_ 0.208109 0.426494 0.68082 0.10932
H_ H_ 0.456481 0.416256 0.688024 0.10932
H_ H_ 0.209201 0.0783658 0.818913 0.10932
H_ H_ 0.46858 0.08373 0.825811 0.10932
H_ H_ 0.195958 0.154542 0.686021 0.10932
H_ H_ 0.425718 0.132217 0.687033 0.10932
H_ H_ 0.176454 0.137133 0.817856 0.10932
H_ H_ 0.439717 0.15205 0.819767 0.10932
H_ H_ 0.222841 0.0888004 0.685581 0.10932
H_ H_ 0.454335 0.0647504 0.695241 0.10932
H_ H_ 0.0434064 0.0809548 0.683567 0.10932
H_ H_ 0.272932 0.0850714 0.693013 0.10932
H_ H_ 0.0552885 0.149337 0.821105 0.10932
H_ H_ 0.313231 0.148235 0.824281 0.10932
H_ H_ 0.0638533 0.149611 0.684119 0.10932
H_ H_ 0.304846 0.146239 0.689683 0.10932
H_ H_ 0.0362912 0.0771506 0.814528 0.10932
H_ H_ 0.289917 0.0772529 0.826705 0.10932
H_ H_ 0.124102 0.320918 0.857627 0.10932
H_ H_ 0.390158 0.307968 0.872819 0.10932
H_ H_ 0.124894 0.192991 0.861966 0.10932
H_ H_ 0.365534 0.181041 0.85856 0.10932
H_ H_ 0.133206 0.193155 0.940762 0.10932
H_ H_ 0.359281 0.176327 0.937364 0.10932
H_ H_ 0.135575 0.32689 0.936189 0.10932
H_ H_ 0.383535 0.304131 0.94895 0.10932
H_ H_ 0.0727908 0.253784 0.647626 0.10932
H_ H_ 0.389193 0.182967 0.643266 0.10932
H_ H_ 0.166126 0.241582 0.636995 0.10932
H_ H_ 0.361451 0.306762 0.643597 0.10932
H_ H_ 0.161808 0.242277 0.559304 0.10932
H_ H_ 0.35436 0.305735 0.565595 0.10932
H_ H_ 0.0670449 0.248947 0.568448 0.10932
H_ H_ 0.395569 0.185224 0.566415 0.10932
C_ C_ 0.0667045 0.348327 0.751642 -0.02249
C_ C_ 0.315958 0.345041 0.749634 -0.02249
C_ C_ 0.013926 0.462662 0.747686 -0.02249
C_ C_ 0.267584 0.45949 0.747254 -0.02249
C_ C_ 0.0380315 0.400833 0.713259 -0.11473
C_ C_ 0.29077 0.401165 0.710258 -0.11473
C_ C_ 0.0624778 0.372375 0.789064 -0.11473
C_ C_ 0.309722 0.36561 0.788006 -0.11473
C_ C_ 0.0542804 0.364792 0.71388 -0.11473
C_ C_ 0.305684 0.362411 0.711139 -0.11473
C_ C_ 0.032164 0.423286 0.750754 -0.02249
C_ C_ 0.284053 0.419289 0.747001 -0.02249
C_ C_ 0.0843655 0.309627 0.751366 0.6875
C_ C_ 0.33422 0.304795 0.753389 0.6875
C_ C_ 0.0439062 0.407052 0.787997 -0.11473
C_ C_ 0.293982 0.403232 0.785387 -0.11473
C_ C_ 0.181806 0.352193 0.748671 -0.02249
C_ C_ 0.433069 0.339859 0.754288 -0.02249
C_ C_ 0.234265 0.461958 0.747595 -0.02249
C_ C_ 0.478192 0.459367 0.754376 -0.02249
C_ C_ 0.223038 0.392603 0.779376 -0.11473
C_ C_ 0.458334 0.398249 0.793027 -0.11473
C_ C_ 0.182473 0.378536 0.713135 -0.11473
C_ C_ 0.439152 0.361764 0.717254 -0.11473
C_ C_ 0.201545 0.360592 0.783667 -0.11473
C_ C_ 0.444419 0.359172 0.791828 -0.11473
C_ C_ 0.218985 0.421493 0.746387 -0.02249
C_ C_ 0.460144 0.419869 0.756037 -0.02249
C_ C_ 0.161073 0.314925 0.749067 0.6875
C_ C_ 0.411968 0.305013 0.756194 0.6875
C_ C_ 0.204119 0.410135 0.709743 -0.11473
C_ C_ 0.45076 0.402027 0.718271 -0.11473
C_ C_ 0.183566 0.152951 0.751748 -0.02249
C_ C_ 0.430058 0.145917 0.752846 -0.02249
C_ C_ 0.232429 0.0368349 0.751708 -0.02249
C_ C_ 0.484959 0.0335621 0.763006 -0.02249
C_ C_ 0.204701 0.0950552 0.789424 -0.11473
C_ C_ 0.459258 0.096989 0.79567 -0.11473
C_ C_ 0.197496 0.138496 0.71483 -0.11473
C_ C_ 0.435655 0.123741 0.717093 -0.11473
C_ C_ 0.18835 0.130994 0.789971 -0.11473
C_ C_ 0.443959 0.133429 0.791884 -0.11473
C_ C_ 0.216589 0.0780671 0.751359 -0.02249
C_ C_ 0.465523 0.0737183 0.758924 -0.02249
C_ C_ 0.163527 0.191825 0.747995 0.6875
C_ C_ 0.409808 0.183146 0.752575 0.6875
C_ C_ 0.212692 0.101096 0.713912 -0.11473
C_ C_ 0.453288 0.0866492 0.720548 -0.11473
C_ C_ 0.0616329 0.154327 0.751969 -0.02249
C_ C_ 0.315114 0.15107 0.756955 -0.02249
C_ C_ 0.0150969 0.0396137 0.744268 -0.02249
C_ C_ 0.265015 0.0370688 0.753736 -0.02249
C_ C_ 0.0413499 0.0984991 0.712143 -0.11473
C_ C_ 0.285422 0.0958212 0.720072 -0.11473
C_ C_ 0.0507442 0.135214 0.78989 -0.11473
C_ C_ 0.306133 0.133098 0.796563 -0.11473
C_ C_ 0.0554146 0.135974 0.713187 -0.11473
C_ C_ 0.301316 0.133556 0.718392 -0.11473
C_ C_ 0.0310338 0.0787516 0.747561 -0.02249
C_ C_ 0.280799 0.0787277 0.757521 -0.02249
C_ C_ 0.0841589 0.190822 0.751754 0.6875
C_ C_ 0.333597 0.188116 0.754801 0.6875
C_ C_ 0.0386868 0.0949084 0.788012 -0.11473
C_ C_ 0.290295 0.0959722 0.796507 -0.11473
C_ C_ 0.125334 0.293368 0.877347 0.17695
C_ C_ 0.385122 0.277954 0.887041 0.17695
C_ C_ 0.127008 0.220681 0.879933 0.17695
C_ C_ 0.368668 0.209606 0.87794 0.17695
C_ C_ 0.129116 0.221637 0.925531 -0.11473
C_ C_ 0.364013 0.2053 0.921413 -0.11473
C_ C_ 0.134773 0.260378 0.944396 0.23465
C_ C_ 0.368497 0.2406 0.9478 0.23465
C_ C_ 0.133298 0.296482 0.921043 -0.11473
C_ C_ 0.377161 0.277942 0.928944 -0.11473
C_ C_ 0.0922054 0.253579 0.626717 0.17695
C_ C_ 0.38686 0.212209 0.627585 0.17695
C_ C_ 0.144146 0.245811 0.620291 0.17695
C_ C_ 0.367896 0.279922 0.626475 0.17695
C_ C_ 0.142433 0.246397 0.576798 -0.11473
C_ C_ 0.365138 0.279606 0.581864 -0.11473
C_ C_ 0.114388 0.25536 0.555885 0.23465
C_ C_ 0.376776 0.245998 0.55958 0.23465
C_ C_ 0.0888806 0.255992 0.582181 -0.11473
C_ C_ 0.386264 0.211266 0.583601 -0.11473
C_ C_ 0.0292566 0.501434 0.749315 0.05793
C_ C_ 0.284546 0.497263 0.749436 0.05793
C_ C_ 0.217746 -0.0009059999999999624 0.756738 0.05793
C_ C_ 0.472111 0.995027 0.772305 0.05793
Br Br 0.0720999 0.503135 0.75199 -0.17191
Br Br 0.327403 0.495934 0.740941 -0.17191
Br Br 0.175627 -0.0019820000000000393 0.747256 -0.17191
Br Br 0.43151 0.995181 0.791396 -0.17191
N_ N_ 0.12326 0.255811 0.857791 -0.272
N_ N_ 0.376319 0.246251 0.860369 -0.272
N_ N_ 0.134693 0.264836 0.990088 -0.12501
N_ N_ 0.366711 0.234544 0.99067 -0.12501
N_ N_ 0.121009 0.255713 0.644252 -0.272
N_ N_ 0.375926 0.244748 0.648656 -0.272
N_ N_ 0.110247 0.250537 0.510951 -0.12501
N_ N_ 0.369583 0.239842 0.515641 -0.12501
O_ O_ 0.0934615 0.29623 0.716944 -0.60745
O_ O_ 0.339844 0.288461 0.719738 -0.60745
O_ O_ 0.091352 0.291804 0.785632 -0.60745
O_ O_ 0.346944 0.293278 0.787596 -0.60745
O_ O_ 0.152202 0.299727 0.782884 -0.60745
O_ O_ 0.404297 0.293243 0.792115 -0.60745
O_ O_ 0.154996 0.296983 0.715377 -0.60745
O_ O_ 0.399116 0.292694 0.722586 -0.60745
O_ O_ 0.156487 0.208963 0.782839 -0.60745
O_ O_ 0.403675 0.199781 0.786718 -0.60745
O_ O_ 0.154451 0.206415 0.714967 -0.60745
O_ O_ 0.403641 0.201311 0.718287 -0.60745
O_ O_ 0.0914738 0.210164 0.718195 -0.60745
O_ O_ 0.343254 0.200513 0.719696 -0.60745
O_ O_ 0.0935568 0.204943 0.787373 -0.60745
O_ O_ 0.343166 0.205954 0.788573 -0.60745
Zn Zn 0.121582 0.752464 0.282726 0.9476
Zn Zn 0.379601 0.749349 0.284458 0.9476
Zn Zn 0.12162 0.752505 0.215346 0.9476
Zn Zn 0.377893 0.751618 0.215941 0.9476
H_ H_ 0.0310389 0.922996 0.188653 0.10932
H_ H_ 0.286622 0.914564 0.188869 0.10932
H_ H_ 0.0469481 0.839941 0.317147 0.10932
H_ H_ 0.314029 0.843118 0.320282 0.10932
H_ H_ 0.0610392 0.85833 0.186247 0.10932
H_ H_ 0.313022 0.84992 0.183554 0.10932
H_ H_ 0.0276627 0.910675 0.324607 0.10932
H_ H_ 0.290833 0.909998 0.325161 0.10932
H_ H_ 0.220301 0.907537 0.329337 0.10932
H_ H_ 0.475917 0.910962 0.310858 0.10932
H_ H_ 0.181994 0.858548 0.187535 0.10932
H_ H_ 0.422154 0.866794 0.181863 0.10932
H_ H_ 0.191325 0.845341 0.322051 0.10932
H_ H_ 0.446672 0.852244 0.313898 0.10932
H_ H_ 0.208644 0.920425 0.193806 0.10932
H_ H_ 0.455143 0.928191 0.179981 0.10932
H_ H_ 0.206314 0.572055 0.311311 0.10932
H_ H_ 0.44607 0.564372 0.304394 0.10932
H_ H_ 0.189638 0.653552 0.180442 0.10932
H_ H_ 0.464311 0.66983 0.196037 0.10932
H_ H_ 0.183382 0.63688 0.317351 0.10932
H_ H_ 0.418244 0.630189 0.304076 0.10932
H_ H_ 0.225416 0.596872 0.180926 0.10932
H_ H_ 0.485623 0.599589 0.185686 0.10932
H_ H_ 0.0356806 0.575135 0.18546 0.10932
H_ H_ 0.288129 0.579021 0.179311 0.10932
H_ H_ 0.0586816 0.658544 0.310108 0.10932
H_ H_ 0.313704 0.649969 0.315303 0.10932
H_ H_ 0.0622655 0.639777 0.176266 0.10932
H_ H_ 0.322871 0.638761 0.182694 0.10932
H_ H_ 0.0255791 0.600888 0.314279 0.10932
H_ H_ 0.284989 0.584136 0.312567 0.10932
H_ H_ 0.124765 0.816131 0.364719 0.10932
H_ H_ 0.389799 0.679114 0.353398 0.10932
H_ H_ 0.102098 0.693466 0.352424 0.10932
H_ H_ 0.38089 0.810106 0.35912 0.10932
H_ H_ 0.101755 0.68038 0.427084 0.10932
H_ H_ 0.384907 0.805462 0.437566 0.10932
H_ H_ 0.119599 0.809953 0.442869 0.10932
H_ H_ 0.393076 0.672537 0.429214 0.10932
H_ H_ 0.17041 0.754207 0.15156 0.10932
H_ H_ 0.404946 0.698915 0.137717 0.10932
H_ H_ 0.0766261 0.758762 0.135282 0.10932
H_ H_ 0.373878 0.818388 0.143958 0.10932
H_ H_ 0.0798352 0.750735 0.0554831 0.10932
H_ H_ 0.366839 0.821447 0.0649537 0.10932
H_ H_ 0.175063 0.750347 0.0700366 0.10932
H_ H_ 0.396945 0.695172 0.060878 0.10932
C_ C_ 0.0592189 0.845592 0.253077 -0.02249
C_ C_ 0.318367 0.843203 0.252965 -0.02249
C_ C_ 0.0149464 0.964826 0.259297 -0.02249
C_ C_ 0.268146 0.957012 0.257821 -0.02249
C_ C_ 0.0352957 0.903955 0.217519 -0.11473
C_ C_ 0.289509 0.897938 0.216335 -0.11473
C_ C_ 0.0490227 0.86143 0.291546 -0.11473
C_ C_ 0.307979 0.857664 0.291508 -0.11473
C_ C_ 0.0502742 0.865607 0.215972 -0.11473
C_ C_ 0.307038 0.861795 0.214771 -0.11473
C_ C_ 0.0290387 0.921843 0.255612 -0.02249
C_ C_ 0.28403 0.916873 0.256733 -0.02249
C_ C_ 0.0809228 0.810382 0.250188 0.6875
C_ C_ 0.33859 0.805909 0.251072 0.6875
C_ C_ 0.0328707 0.897625 0.29369 -0.11473
C_ C_ 0.293974 0.897318 0.294567 -0.11473
C_ C_ 0.181826 0.84796 0.255897 -0.02249
C_ C_ 0.431276 0.854794 0.247136 -0.02249
C_ C_ 0.236801 0.95797 0.261248 -0.02249
C_ C_ 0.483161 0.965975 0.246258 -0.02249
C_ C_ 0.213076 0.897014 0.29755 -0.11473
C_ C_ 0.463752 0.903618 0.282252 -0.11473
C_ C_ 0.189726 0.868391 0.218651 -0.11473
C_ C_ 0.434398 0.87564 0.208698 -0.11473
C_ C_ 0.193543 0.8637 0.295254 -0.11473
C_ C_ 0.446086 0.869089 0.283777 -0.11473
C_ C_ 0.219522 0.918702 0.260307 -0.02249
C_ C_ 0.465364 0.92664 0.246655 -0.02249
C_ C_ 0.16309 0.809132 0.254166 0.6875
C_ C_ 0.413624 0.813738 0.248909 0.6875
C_ C_ 0.208173 0.903562 0.22208 -0.11473
C_ C_ 0.450374 0.912613 0.208806 -0.11473
C_ C_ 0.18406 0.653107 0.251035 -0.02249
C_ C_ 0.436796 0.653477 0.248769 -0.02249
C_ C_ 0.235606 0.538676 0.246997 -0.02249
C_ C_ 0.484966 0.538154 0.242115 -0.02249
C_ C_ 0.206312 0.591504 0.284747 -0.11473
C_ C_ 0.450907 0.587551 0.280416 -0.11473
C_ C_ 0.196717 0.640497 0.211905 -0.11473
C_ C_ 0.459054 0.646867 0.218414 -0.11473
C_ C_ 0.192197 0.629599 0.287448 -0.11473
C_ C_ 0.435717 0.626227 0.28143 -0.11473
C_ C_ 0.219269 0.579838 0.246538 -0.02249
C_ C_ 0.469165 0.578569 0.245246 -0.02249
C_ C_ 0.162095 0.688109 0.250892 0.6875
C_ C_ 0.420505 0.691975 0.248729 0.6875
C_ C_ 0.21447 0.606075 0.210219 -0.11473
C_ C_ 0.471713 0.607595 0.213784 -0.11473
C_ C_ 0.0643374 0.653912 0.242252 -0.02249
C_ C_ 0.320384 0.650162 0.247819 -0.02249
C_ C_ 0.0172559 0.538358 0.253691 -0.02249
C_ C_ 0.267506 0.537619 0.249426 -0.02249
C_ C_ 0.0431517 0.590943 0.21374 -0.11473
C_ C_ 0.29177 0.595992 0.208163 -0.11473
C_ C_ 0.0552469 0.640426 0.282803 -0.11473
C_ C_ 0.311757 0.631096 0.284381 -0.11473
C_ C_ 0.0575972 0.628532 0.20803 -0.11473
C_ C_ 0.312974 0.628742 0.210706 -0.11473
C_ C_ 0.033063 0.578966 0.251452 -0.02249
C_ C_ 0.283549 0.578548 0.247287 -0.02249
C_ C_ 0.0834855 0.692883 0.241466 0.6875
C_ C_ 0.342989 0.68553 0.248363 0.6875
C_ C_ 0.0335957 0.608076 0.284081 -0.11473
C_ C_ 0.291334 0.597304 0.284884 -0.11473
C_ C_ 0.123485 0.785431 0.379886 0.17695
C_ C_ 0.386948 0.706828 0.371125 0.17695
C_ C_ 0.111558 0.715612 0.371973 0.17695
C_ C_ 0.382424 0.779331 0.375939 0.17695
C_ C_ 0.109193 0.710803 0.416219 -0.11473
C_ C_ 0.385627 0.777141 0.419106 -0.11473
C_ C_ 0.115269 0.743938 0.443189 0.23465
C_ C_ 0.388445 0.738552 0.439888 0.23465
C_ C_ 0.119484 0.783232 0.424983 -0.11473
C_ C_ 0.387475 0.703059 0.415033 -0.11473
C_ C_ 0.151526 0.749379 0.131309 0.17695
C_ C_ 0.39222 0.722122 0.122717 0.17695
C_ C_ 0.0977665 0.753019 0.120028 0.17695
C_ C_ 0.374149 0.790335 0.125552 0.17695
C_ C_ 0.0998881 0.751772 0.0767164 -0.11473
C_ C_ 0.373514 0.792763 0.0814279 -0.11473
C_ C_ 0.12901 0.754824 0.0597177 0.23465
C_ C_ 0.381643 0.758031 0.0576429 0.23465
C_ C_ 0.154902 0.750332 0.0858987 -0.11473
C_ C_ 0.389561 0.722348 0.0794204 -0.11473
C_ C_ 0.0312317 1.00188039 0.249959 0.05793
C_ C_ 0.283147 0.99632 0.253859 0.05793
C_ C_ 0.220685 0.50205 0.241903 0.05793
C_ C_ 0.468242 0.501434 0.239601 0.05793
Br Br 0.0735651 -0.0035680000000000156 0.237947 -0.17191
Br Br 0.326991 0.994481 0.254457 -0.17191
Br Br 0.178001 0.502778 0.231031 -0.17191
Br Br 0.42406 0.503353 0.236147 -0.17191
N_ N_ 0.121542 0.75084 0.356647 -0.272
N_ N_ 0.383127 0.743573 0.352466 -0.272
N_ N_ 0.117242 0.736723 0.487939 -0.12501
N_ N_ 0.390435 0.734846 0.485554 -0.12501
N_ N_ 0.123197 0.757802 0.146966 -0.272
N_ N_ 0.379185 0.753455 0.144401 -0.272
N_ N_ 0.132144 0.760043 0.0150194 -0.12501
N_ N_ 0.378014 0.75874 0.0118461 -0.12501
O_ O_ 0.090521 0.796804 0.21518 -0.60745
O_ O_ 0.347481 0.793522 0.215358 -0.60745
O_ O_ 0.0924831 0.796693 0.283446 -0.60745
O_ O_ 0.346775 0.787611 0.284669 -0.60745
O_ O_ 0.153915 0.79352 0.288698 -0.60745
O_ O_ 0.402177 0.799711 0.283773 -0.60745
O_ O_ 0.151355 0.798117 0.219341 -0.60745
O_ O_ 0.40948 0.793803 0.214861 -0.60745
O_ O_ 0.152166 0.703665 0.284638 -0.60745
O_ O_ 0.415538 0.710588 0.283608 -0.60745
O_ O_ 0.151458 0.70257 0.216575 -0.60745
O_ O_ 0.406778 0.703956 0.215307 -0.60745
O_ O_ 0.090575 0.708294 0.207605 -0.60745
O_ O_ 0.349528 0.703947 0.215257 -0.60745
O_ O_ 0.0901461 0.711257 0.275364 -0.60745
O_ O_ 0.351912 0.701701 0.284001 -0.60745
Zn Zn 0.124438 0.747687 0.789482 0.9476
Zn Zn 0.374703 0.749309 0.785609 0.9476
Zn Zn 0.124395 0.748851 0.71723 0.9476
Zn Zn 0.376829 0.751046 0.713888 0.9476
H_ H_ 0.0390912 0.915427 0.676028 0.10932
H_ H_ 0.290064 0.926391 0.694735 0.10932
H_ H_ 0.0612846 0.857043 0.817441 0.10932
H_ H_ 0.301364 0.837142 0.814634 0.10932
H_ H_ 0.0786859 0.864551 0.687212 0.10932
H_ H_ 0.323652 0.866133 0.687822 0.10932
H_ H_ 0.0367165 0.922483 0.813491 0.10932
H_ H_ 0.27569 0.90258 0.822858 0.10932
H_ H_ 0.202668 0.929458 0.822229 0.10932
H_ H_ 0.478247 0.902927 0.831399 0.10932
H_ H_ 0.194141 0.840654 0.69463 0.10932
H_ H_ 0.432259 0.858769 0.697063 0.10932
H_ H_ 0.178518 0.857142 0.826343 0.10932
H_ H_ 0.445583 0.8375 0.827766 0.10932
H_ H_ 0.224901 0.907437 0.695821 0.10932
H_ H_ 0.454711 0.925034 0.700526 0.10932
H_ H_ 0.210492 0.569325 0.814177 0.10932
H_ H_ 0.464836 0.581786 0.820126 0.10932
H_ H_ 0.190495 0.652896 0.68787 0.10932
H_ H_ 0.444259 0.654703 0.685058 0.10932
H_ H_ 0.180316 0.635543 0.819322 0.10932
H_ H_ 0.441623 0.652979 0.818385 0.10932
H_ H_ 0.225419 0.595095 0.681508 0.10932
H_ H_ 0.466169 0.584882 0.685207 0.10932
H_ H_ 0.0448388 0.568921 0.682325 0.10932
H_ H_ 0.293377 0.578786 0.676945 0.10932
H_ H_ 0.0517041 0.658158 0.810167 0.10932
H_ H_ 0.31353 0.652933 0.81183 0.10932
H_ H_ 0.0766673 0.63332 0.684754 0.10932
H_ H_ 0.319034 0.644309 0.675478 0.10932
H_ H_ 0.0192784 0.59268 0.808934 0.10932
H_ H_ 0.286467 0.585555 0.814357 0.10932
H_ H_ 0.126907 0.816607 0.866985 0.10932
H_ H_ 0.360664 0.803092 0.863822 0.10932
H_ H_ 0.120192 0.683597 0.856596 0.10932
H_ H_ 0.38643 0.679075 0.857628 0.10932
H_ H_ 0.122992 0.676775 0.936423 0.10932
H_ H_ 0.40361 0.675014 0.933826 0.10932
H_ H_ 0.12767 0.81069 0.942345 0.10932
H_ H_ 0.375376 0.805881 0.937149 0.10932
H_ H_ 0.0997253 0.701688 0.636551 0.10932
H_ H_ 0.375288 0.81436 0.644828 0.10932
H_ H_ 0.15448 0.803765 0.648489 0.10932
H_ H_ 0.378095 0.686341 0.634106 0.10932
H_ H_ 0.160815 0.807936 0.567117 0.10932
H_ H_ 0.380871 0.689301 0.556488 0.10932
H_ H_ 0.100291 0.706226 0.558236 0.10932
H_ H_ 0.381488 0.823111 0.566604 0.10932
C_ C_ 0.0686481 0.851076 0.749979 -0.02249
C_ C_ 0.31188 0.843919 0.750359 -0.02249
C_ C_ 0.0150368 0.962654 0.749161 -0.02249
C_ C_ 0.266135 0.960895 0.758187 -0.02249
C_ C_ 0.0449724 0.907172 0.709144 -0.11473
C_ C_ 0.295743 0.908667 0.721156 -0.11473
C_ C_ 0.05517 0.868012 0.787182 -0.11473
C_ C_ 0.29678 0.85324 0.786743 -0.11473
C_ C_ 0.0641733 0.872434 0.713341 -0.11473
C_ C_ 0.310062 0.869226 0.715458 -0.11473
C_ C_ 0.0317901 0.923368 0.746287 -0.02249
C_ C_ 0.283766 0.921023 0.75833 -0.02249
C_ C_ 0.0887812 0.813405 0.751802 0.6875
C_ C_ 0.33402 0.808585 0.751332 0.6875
C_ C_ 0.0400791 0.905078 0.785545 -0.11473
C_ C_ 0.282468 0.892052 0.791089 -0.11473
C_ C_ 0.183828 0.844329 0.76125 -0.02249
C_ C_ 0.437057 0.843003 0.762281 -0.02249
C_ C_ 0.233851 0.960001 0.759011 -0.02249
C_ C_ 0.488073 0.958658 0.767341 -0.02249
C_ C_ 0.201871 0.907736 0.795347 -0.11473
C_ C_ 0.468694 0.891959 0.800737 -0.11473
C_ C_ 0.196286 0.859452 0.722899 -0.11473
C_ C_ 0.44037 0.870248 0.726231 -0.11473
C_ C_ 0.188587 0.867094 0.79763 -0.11473
C_ C_ 0.453263 0.853002 0.799536 -0.11473
C_ C_ 0.217113 0.919327 0.760808 -0.02249
C_ C_ 0.471491 0.917815 0.765944 -0.02249
C_ C_ 0.166091 0.80517 0.762336 0.6875
C_ C_ 0.415157 0.808105 0.758155 0.6875
C_ C_ 0.211803 0.898121 0.722418 -0.11473
C_ C_ 0.454282 0.907074 0.729814 -0.11473
C_ C_ 0.181075 0.646783 0.752701 -0.02249
C_ C_ 0.435869 0.656195 0.751916 -0.02249
C_ C_ 0.23562 0.536113 0.74668 -0.02249
C_ C_ 0.479957 0.536605 0.751807 -0.02249
C_ C_ 0.206585 0.586869 0.786201 -0.11473
C_ C_ 0.45832 0.597564 0.791185 -0.11473
C_ C_ 0.194088 0.635421 0.71404 -0.11473
C_ C_ 0.445363 0.636643 0.714596 -0.11473
C_ C_ 0.189877 0.623731 0.78895 -0.11473
C_ C_ 0.446631 0.637952 0.78888 -0.11473
C_ C_ 0.219117 0.575929 0.747364 -0.02249
C_ C_ 0.46519 0.57763 0.752633 -0.02249
C_ C_ 0.160599 0.682993 0.754733 0.6875
C_ C_ 0.412001 0.689481 0.749655 0.6875
C_ C_ 0.21502 0.601876 0.711796 -0.11473
C_ C_ 0.460179 0.598285 0.71554 -0.11473
C_ C_ 0.0635817 0.652298 0.746553 -0.02249
C_ C_ 0.316773 0.652045 0.743668 -0.02249
C_ C_ 0.0123525 0.53868 0.745384 -0.02249
C_ C_ 0.268466 0.534745 0.748022 -0.02249
C_ C_ 0.0476733 0.588446 0.712128 -0.11473
C_ C_ 0.295145 0.593882 0.706763 -0.11473
C_ C_ 0.0487179 0.63821 0.782679 -0.11473
C_ C_ 0.309196 0.63556 0.782921 -0.11473
C_ C_ 0.0642141 0.624413 0.712928 -0.11473
C_ C_ 0.310038 0.63175 0.705804 -0.11473
C_ C_ 0.0295624 0.578313 0.745139 -0.02249
C_ C_ 0.285635 0.575872 0.744933 -0.02249
C_ C_ 0.0818386 0.691455 0.746499 0.6875
C_ C_ 0.33758 0.687973 0.742457 0.6875
C_ C_ 0.0324855 0.600779 0.782678 -0.11473
C_ C_ 0.292133 0.598307 0.783666 -0.11473
C_ C_ 0.123933 0.784673 0.882086 0.17695
C_ C_ 0.37033 0.775904 0.880041 0.17695
C_ C_ 0.121794 0.710616 0.876892 0.17695
C_ C_ 0.384248 0.707109 0.875387 0.17695
C_ C_ 0.12058 0.707099 0.921344 -0.11473
C_ C_ 0.391693 0.704112 0.918638 -0.11473
C_ C_ 0.120144 0.742812 0.945781 0.23465
C_ C_ 0.387258 0.740183 0.942238 0.23465
C_ C_ 0.123835 0.782127 0.925708 -0.11473
C_ C_ 0.375155 0.776303 0.922903 -0.11473
C_ C_ 0.114379 0.722961 0.620929 0.17695
C_ C_ 0.382026 0.787218 0.625139 0.17695
C_ C_ 0.144078 0.783362 0.627306 0.17695
C_ C_ 0.381806 0.714615 0.618944 0.17695
C_ C_ 0.146963 0.784846 0.581162 -0.11473
C_ C_ 0.381208 0.717469 0.574788 -0.11473
C_ C_ 0.127971 0.759973 0.55644 0.23465
C_ C_ 0.382892 0.757072 0.554 0.23465
C_ C_ 0.113697 0.726466 0.576736 -0.11473
C_ C_ 0.383479 0.792334 0.580576 -0.11473
C_ C_ 0.0297651 0.00093822 0.740791 0.05793
C_ C_ 0.28105 -0.0003553 0.759181 0.05793
C_ C_ 0.219248 0.500241 0.744036 0.05793
C_ C_ 0.464202 0.499097 0.75613 0.05793
Br Br 0.0711431 0.00246424 0.723244 -0.17191
Br Br 0.323523 0.00217815 0.774207 -0.17191
Br Br 0.175348 0.499624 0.736378 -0.17191
Br Br 0.421961 0.502892 0.762908 -0.17191
N_ N_ 0.121736 0.748725 0.858902 -0.272
N_ N_ 0.375022 0.741817 0.855397 -0.272
N_ N_ 0.116304 0.73937 0.988909 -0.12501
N_ N_ 0.391026 0.736209 0.987852 -0.12501
N_ N_ 0.128069 0.751187 0.64456 -0.272
N_ N_ 0.379119 0.750382 0.642973 -0.272
N_ N_ 0.126213 0.764776 0.512301 -0.12501
N_ N_ 0.381495 0.762527 0.509864 -0.12501
O_ O_ 0.0980906 0.799454 0.717618 -0.60745
O_ O_ 0.344494 0.795067 0.717126 -0.60745
O_ O_ 0.0946823 0.794532 0.786316 -0.60745
O_ O_ 0.347741 0.799237 0.785505 -0.60745
O_ O_ 0.157074 0.791004 0.797155 -0.60745
O_ O_ 0.405635 0.790367 0.790217 -0.60745
O_ O_ 0.157835 0.788158 0.728706 -0.60745
O_ O_ 0.408218 0.792735 0.723646 -0.60745
O_ O_ 0.154896 0.699597 0.790684 -0.60745
O_ O_ 0.402474 0.703812 0.783922 -0.60745
O_ O_ 0.15403 0.700989 0.720401 -0.60745
O_ O_ 0.407252 0.709874 0.716799 -0.60745
O_ O_ 0.0933185 0.704003 0.71378 -0.60745
O_ O_ 0.348585 0.701974 0.709088 -0.60745
O_ O_ 0.0903761 0.707134 0.780577 -0.60745
O_ O_ 0.342605 0.708607 0.776621 -0.60745
Zn Zn 0.626182 0.252909 0.282917 0.9476
Zn Zn 0.875074 0.255814 0.279039 0.9476
Zn Zn 0.624542 0.252774 0.211837 0.9476
Zn Zn 0.873561 0.250234 0.209763 0.9476
H_ H_ 0.528659 0.41803 0.181746 0.10932
H_ H_ 0.787222 0.424573 0.177003 0.10932
H_ H_ 0.557151 0.343857 0.313969 0.10932
H_ H_ 0.809271 0.356884 0.313928 0.10932
H_ H_ 0.555288 0.348012 0.179361 0.10932
H_ H_ 0.826713 0.370514 0.180836 0.10932
H_ H_ 0.534989 0.411109 0.31709 0.10932
H_ H_ 0.775696 0.41626 0.311013 0.10932
H_ H_ 0.711406 0.428596 0.312591 0.10932
H_ H_ 0.959722 0.427998 0.305973 0.10932
H_ H_ 0.685951 0.35937 0.176351 0.10932
H_ H_ 0.947474 0.341442 0.179369 0.10932
H_ H_ 0.690936 0.354764 0.313974 0.10932
H_ H_ 0.925557 0.368601 0.305637 0.10932
H_ H_ 0.716705 0.419605 0.176819 0.10932
H_ H_ 0.977991 0.406226 0.174903 0.10932
H_ H_ 0.720955 0.0903557 0.320097 0.10932
H_ H_ 0.977276 0.102133 0.319042 0.10932
H_ H_ 0.687624 0.150671 0.184842 0.10932
H_ H_ 0.919303 0.135939 0.189811 0.10932
H_ H_ 0.693955 0.162222 0.319081 0.10932
H_ H_ 0.952999 0.167799 0.314519 0.10932
H_ H_ 0.703258 0.078045 0.190484 0.10932
H_ H_ 0.95109 0.0719404 0.19284 0.10932
H_ H_ 0.54646 0.0715435 0.187296 0.10932
H_ H_ 0.785572 0.0861193 0.174467 0.10932
H_ H_ 0.562425 0.155629 0.313629 0.10932
H_ H_ 0.811046 0.154725 0.311722 0.10932
H_ H_ 0.577494 0.135217 0.185164 0.10932
H_ H_ 0.820243 0.146896 0.177 0.10932
H_ H_ 0.531272 0.0932251 0.319274 0.10932
H_ H_ 0.783176 0.0884415 0.309537 0.10932
H_ H_ 0.631186 0.19552 0.359295 0.10932
H_ H_ 0.875512 0.181281 0.343669 0.10932
H_ H_ 0.608775 0.321142 0.35765 0.10932
H_ H_ 0.869472 0.311194 0.360602 0.10932
H_ H_ 0.605858 0.32284 0.429189 0.10932
H_ H_ 0.880558 0.3029 0.438808 0.10932
H_ H_ 0.626861 0.194797 0.43933 0.10932
H_ H_ 0.881389 0.170525 0.419612 0.10932
H_ H_ 0.640721 0.186073 0.147039 0.10932
H_ H_ 0.818847 0.258211 0.14279 0.10932
H_ H_ 0.618938 0.31193 0.131093 0.10932
H_ H_ 0.913495 0.239653 0.130753 0.10932
H_ H_ 0.610925 0.302112 0.0528207 0.10932
H_ H_ 0.90825 0.24339 0.0534138 0.10932
H_ H_ 0.64682 0.179635 0.0695251 0.10932
H_ H_ 0.813002 0.260495 0.0654165 0.10932
C_ C_ 0.562423 0.343366 0.245355 -0.02249
C_ C_ 0.815827 0.351472 0.243875 -0.02249
C_ C_ 0.512909 0.460383 0.252973 -0.02249
C_ C_ 0.765791 0.466613 0.246326 -0.02249
C_ C_ 0.533541 0.401445 0.211013 -0.11473
C_ C_ 0.793355 0.411698 0.206832 -0.11473
C_ C_ 0.550929 0.357713 0.285315 -0.11473
C_ C_ 0.803168 0.36846 0.283203 -0.11473
C_ C_ 0.550868 0.364293 0.209375 -0.11473
C_ C_ 0.812843 0.376279 0.20759 -0.11473
C_ C_ 0.528969 0.420008 0.250366 -0.02249
C_ C_ 0.781943 0.427512 0.244589 -0.02249
C_ C_ 0.582493 0.306904 0.245707 0.6875
C_ C_ 0.835467 0.313044 0.24744 0.6875
C_ C_ 0.53629 0.396818 0.287396 -0.11473
C_ C_ 0.784411 0.403587 0.281932 -0.11473
C_ C_ 0.685325 0.352408 0.245008 -0.02249
C_ C_ 0.93566 0.347956 0.242932 -0.02249
C_ C_ 0.733776 0.467999 0.245303 -0.02249
C_ C_ 0.988005 0.463056 0.239938 -0.02249
C_ C_ 0.708204 0.409752 0.284143 -0.11473
C_ C_ 0.958374 0.408801 0.278551 -0.11473
C_ C_ 0.691852 0.372472 0.206848 -0.11473
C_ C_ 0.950427 0.360248 0.207031 -0.11473
C_ C_ 0.694355 0.371116 0.283004 -0.11473
C_ C_ 0.940131 0.373369 0.279247 -0.11473
C_ C_ 0.71666 0.428738 0.246788 -0.02249
C_ C_ 0.9715 0.422531 0.241718 -0.02249
C_ C_ 0.661968 0.316387 0.245953 0.6875
C_ C_ 0.914949 0.312308 0.243136 0.6875
C_ C_ 0.70893 0.408976 0.207412 -0.11473
C_ C_ 0.966522 0.398997 0.203986 -0.11473
C_ C_ 0.68614 0.157215 0.251252 -0.02249
C_ C_ 0.937162 0.160844 0.247621 -0.02249
C_ C_ 0.735127 0.0396421 0.252569 -0.02249
C_ C_ 0.985845 0.0451833 0.256099 -0.02249
C_ C_ 0.714084 0.103482 0.290723 -0.11473
C_ C_ 0.969049 0.111771 0.288152 -0.11473
C_ C_ 0.695004 0.137391 0.215856 -0.11473
C_ C_ 0.9355 0.131053 0.21565 -0.11473
C_ C_ 0.697662 0.142372 0.290344 -0.11473
C_ C_ 0.952658 0.149321 0.284828 -0.11473
C_ C_ 0.716971 0.0795006 0.255229 -0.02249
C_ C_ 0.969963 0.0854038 0.253864 -0.02249
C_ C_ 0.66575 0.194877 0.249081 0.6875
C_ C_ 0.916692 0.197037 0.246549 0.6875
C_ C_ 0.706799 0.0968897 0.217181 -0.11473
C_ C_ 0.953315 0.0949281 0.21734 -0.11473
C_ C_ 0.569138 0.154295 0.247807 -0.02249
C_ C_ 0.814068 0.159246 0.243567 -0.02249
C_ C_ 0.517621 0.0402679 0.25487 -0.02249
C_ C_ 0.765931 0.0407804 0.24461 -0.02249
C_ C_ 0.545133 0.0935714 0.21399 -0.11473
C_ C_ 0.791795 0.0994406 0.205193 -0.11473
C_ C_ 0.556924 0.140897 0.285549 -0.11473
C_ C_ 0.804139 0.139908 0.281219 -0.11473
C_ C_ 0.562411 0.130013 0.211295 -0.11473
C_ C_ 0.809043 0.137334 0.204152 -0.11473
C_ C_ 0.5355 0.0789859 0.253878 -0.02249
C_ C_ 0.781653 0.0824291 0.242815 -0.02249
C_ C_ 0.587831 0.192572 0.247226 0.6875
C_ C_ 0.832504 0.199157 0.244413 0.6875
C_ C_ 0.539217 0.104809 0.288738 -0.11473
C_ C_ 0.791653 0.100046 0.281836 -0.11473
C_ C_ 0.631884 0.222437 0.37685 0.17695
C_ C_ 0.877241 0.208487 0.364582 0.17695
C_ C_ 0.619508 0.293224 0.37327 0.17695
C_ C_ 0.875965 0.282314 0.373705 0.17695
C_ C_ 0.620315 0.296597 0.416732 -0.11473
C_ C_ 0.876233 0.277253 0.41911 -0.11473
C_ C_ 0.622499 0.260215 0.440591 0.23465
C_ C_ 0.875916 0.236295 0.435701 0.23465
C_ C_ 0.628608 0.223664 0.42192 -0.11473
C_ C_ 0.879801 0.201868 0.408358 -0.11473
C_ C_ 0.636247 0.210856 0.126717 0.17695
C_ C_ 0.83841 0.255637 0.122941 0.17695
C_ C_ 0.622434 0.28185 0.118257 0.17695
C_ C_ 0.891936 0.248257 0.116445 0.17695
C_ C_ 0.619368 0.276357 0.0733037 -0.11473
C_ C_ 0.888624 0.24866 0.0722715 -0.11473
C_ C_ 0.62833 0.236883 0.0558528 0.23465
C_ C_ 0.859225 0.254793 0.054107 0.23465
C_ C_ 0.639365 0.207167 0.0834977 -0.11473
C_ C_ 0.834387 0.258272 0.0802158 -0.11473
C_ C_ 0.529628 0.497457 0.256021 0.05793
C_ C_ 0.780275 0.505354 0.250886 0.05793
C_ C_ 0.720412 1.00269955 0.261295 0.05793
C_ C_ 0.969033 1.0076491 0.264342 0.05793
Br Br 0.572137 0.49369 0.269183 -0.17191
Br Br 0.823748 0.508502 0.250433 -0.17191
Br Br 0.678247 0.0063233 0.278897 -0.17191
Br Br 0.924947 0.01152 0.273703 -0.17191
N_ N_ 0.625496 0.257377 0.35399 -0.272
N_ N_ 0.875129 0.248641 0.348731 -0.272
N_ N_ 0.61715 0.263497 0.48505 -0.12501
N_ N_ 0.879425 0.229559 0.480431 -0.12501
N_ N_ 0.627566 0.248318 0.143403 -0.272
N_ N_ 0.866782 0.248349 0.140515 -0.272
N_ N_ 0.630921 0.231248 0.0102344 -0.12501
N_ N_ 0.854687 0.250835 0.00938221 -0.12501
O_ O_ 0.588833 0.289982 0.211429 -0.60745
O_ O_ 0.838732 0.290836 0.216068 -0.60745
O_ O_ 0.596322 0.295889 0.280846 -0.60745
O_ O_ 0.84514 0.302232 0.281966 -0.60745
O_ O_ 0.659777 0.295785 0.279784 -0.60745
O_ O_ 0.908037 0.298302 0.277775 -0.60745
O_ O_ 0.653009 0.299636 0.212557 -0.60745
O_ O_ 0.903421 0.297238 0.211368 -0.60745
O_ O_ 0.656568 0.207902 0.28327 -0.60745
O_ O_ 0.906218 0.21108 0.279593 -0.60745
O_ O_ 0.656389 0.209537 0.214553 -0.60745
O_ O_ 0.907382 0.208854 0.210391 -0.60745
O_ O_ 0.595024 0.20868 0.212812 -0.60745
O_ O_ 0.843715 0.209997 0.210107 -0.60745
O_ O_ 0.599377 0.20504 0.281689 -0.60745
O_ O_ 0.842822 0.21399 0.279855 -0.60745
Zn Zn 0.625661 0.252104 0.785357 0.9476
Zn Zn 0.875157 0.24718 0.782249 0.9476
Zn Zn 0.623904 0.248332 0.715381 0.9476
Zn Zn 0.874436 0.246654 0.710381 0.9476
H_ H_ 0.531478 0.415757 0.683213 0.10932
H_ H_ 0.790812 0.421925 0.676181 0.10932
H_ H_ 0.554455 0.339706 0.813856 0.10932
H_ H_ 0.812009 0.353572 0.812654 0.10932
H_ H_ 0.562395 0.350812 0.68084 0.10932
H_ H_ 0.824 0.35681 0.678423 0.10932
H_ H_ 0.527549 0.40801 0.818231 0.10932
H_ H_ 0.781823 0.412359 0.806204 0.10932
H_ H_ 0.707743 0.431129 0.808313 0.10932
H_ H_ 0.976343 0.407341 0.816236 0.10932
H_ H_ 0.693305 0.339609 0.687021 0.10932
H_ H_ 0.927149 0.357402 0.682983 0.10932
H_ H_ 0.672803 0.369953 0.811966 0.10932
H_ H_ 0.945809 0.343774 0.815874 0.10932
H_ H_ 0.727205 0.397382 0.682148 0.10932
H_ H_ 0.951322 0.425653 0.682912 0.10932
H_ H_ 0.720411 0.0843889 0.80929 0.10932
H_ H_ 0.972771 0.0885247 0.817661 0.10932
H_ H_ 0.677109 0.147099 0.678118 0.10932
H_ H_ 0.938786 0.148312 0.683781 0.10932
H_ H_ 0.690509 0.148704 0.813857 0.10932
H_ H_ 0.940573 0.14757 0.81929 0.10932
H_ H_ 0.706515 0.0824925 0.678598 0.10932
H_ H_ 0.959757 0.075835 0.686583 0.10932
H_ H_ 0.534775 0.0768489 0.69074 0.10932
H_ H_ 0.778289 0.085007 0.679815 0.10932
H_ H_ 0.563059 0.154475 0.817962 0.10932
H_ H_ 0.818068 0.145873 0.813335 0.10932
H_ H_ 0.552848 0.148106 0.686913 0.10932
H_ H_ 0.802491 0.156027 0.682359 0.10932
H_ H_ 0.535241 0.0870541 0.822815 0.10932
H_ H_ 0.800031 0.0744104 0.808687 0.10932
H_ H_ 0.611941 0.319495 0.855876 0.10932
H_ H_ 0.918436 0.255723 0.857138 0.10932
H_ H_ 0.636867 0.192629 0.857483 0.10932
H_ H_ 0.826085 0.227231 0.857157 0.10932
H_ H_ 0.638274 0.193149 0.935932 0.10932
H_ H_ 0.825018 0.241518 0.932853 0.10932
H_ H_ 0.609239 0.32105 0.934596 0.10932
H_ H_ 0.920792 0.26843 0.930014 0.10932
H_ H_ 0.618428 0.189975 0.636631 0.10932
H_ H_ 0.91333 0.207351 0.630355 0.10932
H_ H_ 0.634052 0.314975 0.641734 0.10932
H_ H_ 0.839581 0.291068 0.636785 0.10932
H_ H_ 0.634975 0.318341 0.56277 0.10932
H_ H_ 0.835486 0.294221 0.560441 0.10932
H_ H_ 0.627385 0.184192 0.563334 0.10932
H_ H_ 0.911211 0.205612 0.557083 0.10932
C_ C_ 0.561543 0.341592 0.747801 -0.02249
C_ C_ 0.815077 0.343291 0.743263 -0.02249
C_ C_ 0.510765 0.456911 0.753742 -0.02249
C_ C_ 0.766185 0.456225 0.739476 -0.02249
C_ C_ 0.534754 0.397254 0.711857 -0.11473
C_ C_ 0.793032 0.401977 0.704025 -0.11473
C_ C_ 0.548235 0.354413 0.785499 -0.11473
C_ C_ 0.804809 0.361885 0.780334 -0.11473
C_ C_ 0.553205 0.361932 0.711274 -0.11473
C_ C_ 0.812407 0.36725 0.704733 -0.11473
C_ C_ 0.527819 0.416731 0.750824 -0.02249
C_ C_ 0.781527 0.415835 0.740157 -0.02249
C_ C_ 0.58388 0.307153 0.748491 0.6875
C_ C_ 0.836039 0.306697 0.745504 0.6875
C_ C_ 0.534305 0.394408 0.787978 -0.11473
C_ C_ 0.786206 0.395499 0.778625 -0.11473
C_ C_ 0.679876 0.351251 0.749641 -0.02249
C_ C_ 0.931702 0.34724 0.750015 -0.02249
C_ C_ 0.734563 0.459245 0.73637 -0.02249
C_ C_ 0.981607 0.461996 0.749856 -0.02249
C_ C_ 0.703013 0.411923 0.779921 -0.11473
C_ C_ 0.965205 0.397323 0.786664 -0.11473
C_ C_ 0.695569 0.359374 0.71195 -0.11473
C_ C_ 0.93701 0.370194 0.712708 -0.11473
C_ C_ 0.684003 0.375665 0.783645 -0.11473
C_ C_ 0.948625 0.360291 0.787152 -0.11473
C_ C_ 0.715631 0.422314 0.74133 -0.02249
C_ C_ 0.965059 0.422357 0.749463 -0.02249
C_ C_ 0.662427 0.310749 0.748349 0.6875
C_ C_ 0.912372 0.308487 0.748239 0.6875
C_ C_ 0.711111 0.396219 0.707525 -0.11473
C_ C_ 0.954422 0.405835 0.711409 -0.11473
C_ C_ 0.682595 0.154545 0.747437 -0.02249
C_ C_ 0.93435 0.150282 0.751515 -0.02249
C_ C_ 0.733355 0.0395442 0.744221 -0.02249
C_ C_ 0.982693 0.0372432 0.749773 -0.02249
C_ C_ 0.711166 0.0996991 0.781036 -0.11473
C_ C_ 0.963377 0.0988927 0.788396 -0.11473
C_ C_ 0.688597 0.134721 0.706631 -0.11473
C_ C_ 0.945933 0.134015 0.713467 -0.11473
C_ C_ 0.692042 0.13477 0.783958 -0.11473
C_ C_ 0.946067 0.135062 0.789581 -0.11473
C_ C_ 0.715353 0.0799547 0.74417 -0.02249
C_ C_ 0.96509 0.0760734 0.750975 -0.02249
C_ C_ 0.665392 0.19389 0.749057 0.6875
C_ C_ 0.914016 0.187862 0.750345 0.6875
C_ C_ 0.703966 0.0971362 0.706478 -0.11473
C_ C_ 0.95887 0.093944 0.713333 -0.11473
C_ C_ 0.564397 0.151892 0.751205 -0.02249
C_ C_ 0.813348 0.152372 0.746347 -0.02249
C_ C_ 0.517234 0.0348732 0.760077 -0.02249
C_ C_ 0.765476 0.0402023 0.750202 -0.02249
C_ C_ 0.541035 0.0916528 0.720058 -0.11473
C_ C_ 0.784075 0.100501 0.709543 -0.11473
C_ C_ 0.556892 0.136365 0.791123 -0.11473
C_ C_ 0.809281 0.131392 0.783484 -0.11473
C_ C_ 0.553569 0.131179 0.715108 -0.11473
C_ C_ 0.797764 0.140005 0.710139 -0.11473
C_ C_ 0.532535 0.0763303 0.758815 -0.02249
C_ C_ 0.78351 0.0784785 0.746341 -0.02249
C_ C_ 0.582174 0.191826 0.748186 0.6875
C_ C_ 0.834091 0.189414 0.745544 0.6875
C_ C_ 0.543913 0.0955388 0.794165 -0.11473
C_ C_ 0.796505 0.092836 0.783255 -0.11473
C_ C_ 0.615124 0.291307 0.874122 0.17695
C_ C_ 0.897479 0.256509 0.874251 0.17695
C_ C_ 0.631703 0.221288 0.873754 0.17695
C_ C_ 0.845528 0.243518 0.872932 0.17695
C_ C_ 0.63452 0.221442 0.917808 -0.11473
C_ C_ 0.845609 0.248664 0.917315 -0.11473
C_ C_ 0.626305 0.257353 0.940236 0.23465
C_ C_ 0.872466 0.261013 0.939739 0.23465
C_ C_ 0.61679 0.292641 0.917679 -0.11473
C_ C_ 0.898131 0.261946 0.916469 -0.11473
C_ C_ 0.626299 0.216535 0.622014 0.17695
C_ C_ 0.896233 0.226197 0.616497 0.17695
C_ C_ 0.627813 0.288684 0.622983 0.17695
C_ C_ 0.854758 0.271522 0.619241 0.17695
C_ C_ 0.6308 0.290596 0.57935 -0.11473
C_ C_ 0.852987 0.273849 0.574403 -0.11473
C_ C_ 0.631574 0.252197 0.555704 0.23465
C_ C_ 0.873258 0.250166 0.550844 0.23465
C_ C_ 0.630084 0.21541 0.577031 -0.11473
C_ C_ 0.894685 0.225374 0.572138 -0.11473
C_ C_ 0.527447 0.493385 0.754247 0.05793
C_ C_ 0.784002 0.493015 0.743821 0.05793
C_ C_ 0.717561 0.00134828 0.742706 0.05793
C_ C_ 0.967801 1.0000000000065512e-05 0.752847 0.05793
Br Br 0.570494 0.493271 0.754188 -0.17191
Br Br 0.826403 0.491195 0.758224 -0.17191
Br Br 0.674626 -0.000553355 0.73354 -0.17191
Br Br 0.924629 -0.0007909999999999862 0.762538 -0.17191
N_ N_ 0.623988 0.256897 0.852714 -0.272
N_ N_ 0.872097 0.245876 0.853435 -0.272
N_ N_ 0.626947 0.260703 0.985308 -0.12501
N_ N_ 0.87558 0.261438 0.985161 -0.12501
N_ N_ 0.626677 0.251728 0.64313 -0.272
N_ N_ 0.875907 0.249166 0.639634 -0.272
N_ N_ 0.636977 0.251325 0.512629 -0.12501
N_ N_ 0.874652 0.256749 0.506815 -0.12501
O_ O_ 0.5905 0.28853 0.714077 -0.60745
O_ O_ 0.84205 0.28575 0.712494 -0.60745
O_ O_ 0.596412 0.297085 0.782758 -0.60745
O_ O_ 0.846112 0.294711 0.780884 -0.60745
O_ O_ 0.660267 0.28877 0.782008 -0.60745
O_ O_ 0.906531 0.28854 0.781741 -0.60745
O_ O_ 0.648331 0.299298 0.714679 -0.60745
O_ O_ 0.903346 0.294691 0.713383 -0.60745
O_ O_ 0.654688 0.20719 0.783213 -0.60745
O_ O_ 0.903768 0.202445 0.783768 -0.60745
O_ O_ 0.658607 0.212902 0.714854 -0.60745
O_ O_ 0.907738 0.205576 0.714396 -0.60745
O_ O_ 0.598977 0.196273 0.716264 -0.60745
O_ O_ 0.847241 0.198268 0.713248 -0.60745
O_ O_ 0.589366 0.212074 0.781806 -0.60745
O_ O_ 0.841641 0.206343 0.779021 -0.60745
Zn Zn 0.622179 0.753849 0.290406 0.9476
Zn Zn 0.874251 0.753306 0.281057 0.9476
Zn Zn 0.621341 0.75323 0.219166 0.9476
Zn Zn 0.877371 0.751639 0.21214 0.9476
H_ H_ 0.524286 0.906892 0.188979 0.10932
H_ H_ 0.764373 0.899103 0.181793 0.10932
H_ H_ 0.574376 0.867048 0.325175 0.10932
H_ H_ 0.837946 0.877251 0.30092 0.10932
H_ H_ 0.558455 0.850495 0.192318 0.10932
H_ H_ 0.79213 0.833165 0.186953 0.10932
H_ H_ 0.545996 0.932206 0.320915 0.10932
H_ H_ 0.804595 0.933767 0.302647 0.10932
H_ H_ 0.732853 0.895279 0.312311 0.10932
H_ H_ 0.951061 0.929182 0.32802 0.10932
H_ H_ 0.661976 0.877729 0.191297 0.10932
H_ H_ 0.940152 0.858823 0.185775 0.10932
H_ H_ 0.699228 0.838524 0.309769 0.10932
H_ H_ 0.923062 0.862077 0.320254 0.10932
H_ H_ 0.691692 0.941676 0.197382 0.10932
H_ H_ 0.96904 0.920891 0.193289 0.10932
H_ H_ 0.724182 0.593418 0.315331 0.10932
H_ H_ 0.958889 0.576647 0.309147 0.10932
H_ H_ 0.682232 0.65215 0.180733 0.10932
H_ H_ 0.952714 0.660954 0.181016 0.10932
H_ H_ 0.697011 0.660211 0.316576 0.10932
H_ H_ 0.931692 0.641461 0.310982 0.10932
H_ H_ 0.713075 0.587235 0.180233 0.10932
H_ H_ 0.972827 0.591092 0.176734 0.10932
H_ H_ 0.552965 0.567496 0.187381 0.10932
H_ H_ 0.781171 0.588157 0.179022 0.10932
H_ H_ 0.554047 0.650783 0.317718 0.10932
H_ H_ 0.827316 0.636357 0.310909 0.10932
H_ H_ 0.580938 0.63505 0.189888 0.10932
H_ H_ 0.815449 0.647049 0.18034 0.10932
H_ H_ 0.526761 0.586081 0.312501 0.10932
H_ H_ 0.787727 0.58518 0.315383 0.10932
H_ H_ 0.633036 0.684869 0.362457 0.10932
H_ H_ 0.824251 0.757502 0.34599 0.10932
H_ H_ 0.629129 0.812746 0.362613 0.10932
H_ H_ 0.91676 0.746801 0.362308 0.10932
H_ H_ 0.633632 0.817285 0.44071 0.10932
H_ H_ 0.909975 0.744758 0.443611 0.10932
H_ H_ 0.638279 0.682899 0.441419 0.10932
H_ H_ 0.81614 0.760931 0.424545 0.10932
H_ H_ 0.5737 0.762069 0.15226 0.10932
H_ H_ 0.888251 0.691144 0.131438 0.10932
H_ H_ 0.664132 0.730189 0.132225 0.10932
H_ H_ 0.863957 0.818395 0.142755 0.10932
H_ H_ 0.657651 0.731803 0.056818 0.10932
H_ H_ 0.871994 0.826236 0.0675031 0.10932
H_ H_ 0.563823 0.76578 0.0789244 0.10932
H_ H_ 0.879056 0.691719 0.0539323 0.10932
C_ C_ 0.567167 0.853358 0.256931 -0.02249
C_ C_ 0.817112 0.850402 0.244166 -0.02249
C_ C_ 0.513985 0.964463 0.252851 -0.02249
C_ C_ 0.764281 0.963299 0.245566 -0.02249
C_ C_ 0.534153 0.89979 0.218795 -0.11473
C_ C_ 0.779645 0.893745 0.210171 -0.11473
C_ C_ 0.563214 0.875683 0.294482 -0.11473
C_ C_ 0.819572 0.878328 0.278805 -0.11473
C_ C_ 0.55389 0.867286 0.219912 -0.11473
C_ C_ 0.797211 0.857107 0.21113 -0.11473
C_ C_ 0.532313 0.92594 0.255149 -0.02249
C_ C_ 0.782223 0.92185 0.244242 -0.02249
C_ C_ 0.585753 0.813517 0.255987 0.6875
C_ C_ 0.835085 0.811271 0.24629 0.6875
C_ C_ 0.546562 0.912957 0.293268 -0.11473
C_ C_ 0.801705 0.913004 0.277899 -0.11473
C_ C_ 0.678066 0.853776 0.251217 -0.02249
C_ C_ 0.929824 0.854911 0.252857 -0.02249
C_ C_ 0.733858 0.962916 0.254238 -0.02249
C_ C_ 0.982577 0.968009 0.262043 -0.02249
C_ C_ 0.719243 0.893211 0.285303 -0.11473
C_ C_ 0.950481 0.911165 0.296668 -0.11473
C_ C_ 0.678635 0.882023 0.216667 -0.11473
C_ C_ 0.941236 0.873135 0.216554 -0.11473
C_ C_ 0.700487 0.857348 0.283569 -0.11473
C_ C_ 0.935008 0.873371 0.293074 -0.11473
C_ C_ 0.716605 0.924082 0.253013 -0.02249
C_ C_ 0.96431 0.928793 0.260185 -0.02249
C_ C_ 0.660456 0.816263 0.251321 0.6875
C_ C_ 0.911799 0.814872 0.249784 0.6875
C_ C_ 0.694912 0.919551 0.220661 -0.11473
C_ C_ 0.961367 0.906688 0.221151 -0.11473
C_ C_ 0.685497 0.660071 0.248126 -0.02249
C_ C_ 0.93872 0.656901 0.24701 -0.02249
C_ C_ 0.732759 0.54308 0.248471 -0.02249
C_ C_ 0.985932 0.539883 0.244232 -0.02249
C_ C_ 0.715298 0.606116 0.286503 -0.11473
C_ C_ 0.956348 0.593392 0.281489 -0.11473
C_ C_ 0.692022 0.640336 0.209297 -0.11473
C_ C_ 0.952478 0.642213 0.20929 -0.11473
C_ C_ 0.699397 0.645118 0.285894 -0.11473
C_ C_ 0.940592 0.631313 0.282362 -0.11473
C_ C_ 0.716922 0.584169 0.248581 -0.02249
C_ C_ 0.968191 0.578069 0.243346 -0.02249
C_ C_ 0.663296 0.694113 0.249132 0.6875
C_ C_ 0.919231 0.694397 0.246436 0.6875
C_ C_ 0.707117 0.601772 0.210236 -0.11473
C_ C_ 0.964577 0.601942 0.207469 -0.11473
C_ C_ 0.568299 0.649629 0.254356 -0.02249
C_ C_ 0.82187 0.648979 0.24602 -0.02249
C_ C_ 0.516217 0.535425 0.248542 -0.02249
C_ C_ 0.765116 0.544284 0.247578 -0.02249
C_ C_ 0.551591 0.586342 0.215004 -0.11473
C_ C_ 0.789774 0.599464 0.207947 -0.11473
C_ C_ 0.553541 0.634219 0.287651 -0.11473
C_ C_ 0.813445 0.6327 0.284312 -0.11473
C_ C_ 0.567764 0.624463 0.217926 -0.11473
C_ C_ 0.80879 0.63278 0.208421 -0.11473
C_ C_ 0.535271 0.572866 0.249257 -0.02249
C_ C_ 0.780958 0.583351 0.24696 -0.02249
C_ C_ 0.584306 0.691045 0.257249 0.6875
C_ C_ 0.841423 0.687787 0.242255 0.6875
C_ C_ 0.536231 0.599227 0.284333 -0.11473
C_ C_ 0.792951 0.599118 0.286213 -0.11473
C_ C_ 0.630494 0.712456 0.380339 0.17695
C_ C_ 0.842728 0.755135 0.366411 0.17695
C_ C_ 0.62888 0.785491 0.380589 0.17695
C_ C_ 0.895807 0.749072 0.377827 0.17695
C_ C_ 0.634127 0.786452 0.422866 -0.11473
C_ C_ 0.89253 0.75202 0.421911 -0.11473
C_ C_ 0.636233 0.748978 0.445077 0.23465
C_ C_ 0.863763 0.759643 0.439075 0.23465
C_ C_ 0.63545 0.711364 0.424404 -0.11473
C_ C_ 0.838626 0.759195 0.410243 -0.11473
C_ C_ 0.591881 0.754754 0.132698 0.17695
C_ C_ 0.88153 0.719531 0.117635 0.17695
C_ C_ 0.643059 0.743464 0.120529 0.17695
C_ C_ 0.869565 0.791727 0.124288 0.17695
C_ C_ 0.638095 0.740708 0.0772818 -0.11473
C_ C_ 0.871817 0.795258 0.0813029 -0.11473
C_ C_ 0.609803 0.75001 0.0602609 0.23465
C_ C_ 0.873352 0.760664 0.0541747 0.23465
C_ C_ 0.586215 0.756379 0.0893135 -0.11473
C_ C_ 0.878387 0.72052 0.0717279 -0.11473
C_ C_ 0.531179 1.00148619 0.257806 0.05793
C_ C_ 0.78093 1.0017191 0.240173 0.05793
C_ C_ 0.718234 0.506557 0.243938 0.05793
C_ C_ 0.972342 0.50084 0.236561 0.05793
Br Br 0.573975 0.998587 0.254267 -0.17191
Br Br 0.823575 0.999859449 0.224458 -0.17191
Br Br 0.675435 0.505728 0.256355 -0.17191
Br Br 0.934273 0.498861 0.207913 -0.17191
N_ N_ 0.63058 0.749373 0.359471 -0.272
N_ N_ 0.871038 0.752115 0.351377 -0.272
N_ N_ 0.636917 0.751914 0.489185 -0.12501
N_ N_ 0.858527 0.760956 0.485074 -0.12501
N_ N_ 0.621086 0.752338 0.148153 -0.272
N_ N_ 0.876213 0.753886 0.142293 -0.272
N_ N_ 0.605781 0.755059 0.0163559 -0.12501
N_ N_ 0.869305 0.764816 0.0102092 -0.12501
O_ O_ 0.587693 0.792194 0.222383 -0.60745
O_ O_ 0.846565 0.795848 0.213473 -0.60745
O_ O_ 0.593346 0.798171 0.291443 -0.60745
O_ O_ 0.842613 0.796404 0.280649 -0.60745
O_ O_ 0.653343 0.800815 0.287188 -0.60745
O_ O_ 0.906563 0.795507 0.28336 -0.60745
O_ O_ 0.650204 0.801681 0.216109 -0.60745
O_ O_ 0.906924 0.797163 0.214784 -0.60745
O_ O_ 0.653388 0.709917 0.283707 -0.60745
O_ O_ 0.909609 0.707699 0.281681 -0.60745
O_ O_ 0.655333 0.713001 0.214374 -0.60745
O_ O_ 0.909386 0.707503 0.212097 -0.60745
O_ O_ 0.595799 0.705364 0.224487 -0.60745
O_ O_ 0.846197 0.704376 0.206796 -0.60745
O_ O_ 0.591898 0.705885 0.292482 -0.60745
O_ O_ 0.846191 0.708323 0.275286 -0.60745
Zn Zn 0.627454 0.745784 0.785309 0.9476
Zn Zn 0.870932 0.753035 0.782677 0.9476
Zn Zn 0.624895 0.743122 0.71176 0.9476
Zn Zn 0.873195 0.754515 0.713254 0.9476
H_ H_ 0.547968 0.930611 0.693696 0.10932
H_ H_ 0.786605 0.927281 0.685559 0.10932
H_ H_ 0.551249 0.830818 0.809457 0.10932
H_ H_ 0.805607 0.847127 0.815344 0.10932
H_ H_ 0.576017 0.866558 0.684734 0.10932
H_ H_ 0.810099 0.859147 0.680878 0.10932
H_ H_ 0.533805 0.903276 0.822633 0.10932
H_ H_ 0.779723 0.914384 0.817502 0.10932
H_ H_ 0.705046 0.927028 0.810869 0.10932
H_ H_ 0.961915 0.921737 0.823104 0.10932
H_ H_ 0.705152 0.833557 0.683664 0.10932
H_ H_ 0.939631 0.849606 0.687427 0.10932
H_ H_ 0.672497 0.861674 0.809279 0.10932
H_ H_ 0.935398 0.855982 0.822262 0.10932
H_ H_ 0.721954 0.906713 0.677846 0.10932
H_ H_ 0.966744 0.915955 0.687844 0.10932
H_ H_ 0.714986 0.57372 0.808811 0.10932
H_ H_ 0.947284 0.568538 0.810003 0.10932
H_ H_ 0.685291 0.642091 0.68042 0.10932
H_ H_ 0.945051 0.661549 0.68464 0.10932
H_ H_ 0.689666 0.638959 0.813961 0.10932
H_ H_ 0.925493 0.638723 0.816266 0.10932
H_ H_ 0.716044 0.582081 0.674276 0.10932
H_ H_ 0.96932 0.589986 0.682876 0.10932
H_ H_ 0.518671 0.587199 0.688974 0.10932
H_ H_ 0.790388 0.580485 0.672087 0.10932
H_ H_ 0.572866 0.633303 0.815802 0.10932
H_ H_ 0.812791 0.642615 0.811914 0.10932
H_ H_ 0.557272 0.646199 0.682584 0.10932
H_ H_ 0.808026 0.651565 0.676321 0.10932
H_ H_ 0.534602 0.5762 0.820536 0.10932
H_ H_ 0.789378 0.573658 0.807216 0.10932
H_ H_ 0.666991 0.762936 0.864393 0.10932
H_ H_ 0.852244 0.687042 0.851582 0.10932
H_ H_ 0.578847 0.721818 0.857574 0.10932
H_ H_ 0.891933 0.807735 0.861341 0.10932
H_ H_ 0.573934 0.738027 0.937352 0.10932
H_ H_ 0.894859 0.799651 0.943115 0.10932
H_ H_ 0.668 0.762087 0.943494 0.10932
H_ H_ 0.853846 0.677779 0.928726 0.10932
H_ H_ 0.622557 0.674197 0.646363 0.10932
H_ H_ 0.862452 0.823355 0.635074 0.10932
H_ H_ 0.638597 0.800473 0.637755 0.10932
H_ H_ 0.871371 0.691985 0.643773 0.10932
H_ H_ 0.627388 0.79938 0.558014 0.10932
H_ H_ 0.876262 0.687114 0.568584 0.10932
H_ H_ 0.622735 0.66499 0.567558 0.10932
H_ H_ 0.867698 0.819457 0.554813 0.10932
C_ C_ 0.567222 0.844277 0.745194 -0.02249
C_ C_ 0.812477 0.849183 0.749186 -0.02249
C_ C_ 0.518705 0.959332 0.759988 -0.02249
C_ C_ 0.764515 0.963547 0.752158 -0.02249
C_ C_ 0.547919 0.907623 0.718073 -0.11473
C_ C_ 0.792418 0.910206 0.713976 -0.11473
C_ C_ 0.552719 0.854411 0.783882 -0.11473
C_ C_ 0.802461 0.864856 0.787183 -0.11473
C_ C_ 0.561801 0.870554 0.711578 -0.11473
C_ C_ 0.806771 0.872558 0.712152 -0.11473
C_ C_ 0.537176 0.920181 0.757503 -0.02249
C_ C_ 0.781037 0.923796 0.751303 -0.02249
C_ C_ 0.588916 0.807161 0.743671 0.6875
C_ C_ 0.833553 0.811989 0.74918 0.6875
C_ C_ 0.54011 0.893633 0.7919 -0.11473
C_ C_ 0.787417 0.90326 0.78827 -0.11473
C_ C_ 0.687011 0.842937 0.747086 -0.02249
C_ C_ 0.933696 0.847711 0.755168 -0.02249
C_ C_ 0.732769 0.96291 0.747484 -0.02249
C_ C_ 0.983523 0.962401 0.751357 -0.02249
C_ C_ 0.70257 0.907193 0.782006 -0.11473
C_ C_ 0.958072 0.905104 0.794553 -0.11473
C_ C_ 0.702912 0.854794 0.710112 -0.11473
C_ C_ 0.945173 0.863781 0.718476 -0.11473
C_ C_ 0.687249 0.869359 0.782593 -0.11473
C_ C_ 0.940452 0.86985 0.792919 -0.11473
C_ C_ 0.716232 0.922179 0.744706 -0.02249
C_ C_ 0.967588 0.922368 0.755082 -0.02249
C_ C_ 0.667289 0.80476 0.747695 0.6875
C_ C_ 0.916453 0.808427 0.753863 0.6875
C_ C_ 0.71577 0.89521 0.707907 -0.11473
C_ C_ 0.959613 0.903382 0.717934 -0.11473
C_ C_ 0.686933 0.648141 0.745809 -0.02249
C_ C_ 0.929623 0.651325 0.747084 -0.02249
C_ C_ 0.737912 0.535059 0.738714 -0.02249
C_ C_ 0.98015 0.536894 0.747164 -0.02249
C_ C_ 0.71347 0.592227 0.780151 -0.11473
C_ C_ 0.950844 0.589305 0.783789 -0.11473
C_ C_ 0.698233 0.634815 0.706897 -0.11473
C_ C_ 0.944825 0.638289 0.712384 -0.11473
C_ C_ 0.69624 0.627792 0.782822 -0.11473
C_ C_ 0.935227 0.628112 0.785444 -0.11473
C_ C_ 0.722667 0.575808 0.741596 -0.02249
C_ C_ 0.96362 0.576525 0.747903 -0.02249
C_ C_ 0.666534 0.685464 0.747905 0.6875
C_ C_ 0.909999 0.687414 0.746145 0.6875
C_ C_ 0.71462 0.59805 0.703772 -0.11473
C_ C_ 0.962216 0.601758 0.712586 -0.11473
C_ C_ 0.56491 0.645029 0.750254 -0.02249
C_ C_ 0.815093 0.65224 0.742588 -0.02249
C_ C_ 0.512541 0.533133 0.753409 -0.02249
C_ C_ 0.770125 0.532309 0.740169 -0.02249
C_ C_ 0.534239 0.593919 0.714266 -0.11473
C_ C_ 0.793673 0.593087 0.70272 -0.11473
C_ C_ 0.560051 0.623534 0.788692 -0.11473
C_ C_ 0.807864 0.631479 0.77936 -0.11473
C_ C_ 0.550762 0.631016 0.712825 -0.11473
C_ C_ 0.805904 0.633804 0.704778 -0.11473
C_ C_ 0.53084 0.571633 0.750075 -0.02249
C_ C_ 0.788988 0.57161 0.740028 -0.02249
C_ C_ 0.586599 0.682203 0.750047 0.6875
C_ C_ 0.830618 0.694013 0.743095 0.6875
C_ C_ 0.540474 0.588961 0.788825 -0.11473
C_ C_ 0.797732 0.589376 0.778815 -0.11473
C_ C_ 0.647446 0.756336 0.880408 0.17695
C_ C_ 0.860833 0.711927 0.870444 0.17695
C_ C_ 0.597057 0.73458 0.877046 0.17695
C_ C_ 0.883517 0.778564 0.877497 0.17695
C_ C_ 0.59542 0.739019 0.920902 -0.11473
C_ C_ 0.884079 0.774794 0.922587 -0.11473
C_ C_ 0.621657 0.745027 0.945485 0.23465
C_ C_ 0.871684 0.738277 0.9401 0.23465
C_ C_ 0.64886 0.751328 0.924374 -0.11473
C_ C_ 0.859042 0.708801 0.915253 -0.11473
C_ C_ 0.624148 0.699796 0.625274 0.17695
C_ C_ 0.868023 0.793728 0.619179 0.17695
C_ C_ 0.62775 0.773588 0.621172 0.17695
C_ C_ 0.868768 0.720954 0.624726 0.17695
C_ C_ 0.624961 0.770946 0.57591 -0.11473
C_ C_ 0.869891 0.716501 0.581003 -0.11473
C_ C_ 0.62112 0.731507 0.557528 0.23465
C_ C_ 0.870686 0.752277 0.554636 0.23465
C_ C_ 0.622138 0.695889 0.581803 -0.11473
C_ C_ 0.868523 0.791535 0.574469 -0.11473
C_ C_ 0.533628 -0.001866999999999952 0.758557 0.05793
C_ C_ 0.780327 0.00223381 0.753522 0.05793
C_ C_ 0.72087 0.499553 0.732894 0.05793
C_ C_ 0.96554 0.499163 0.747382 0.05793
Br Br 0.57521 0.0001100000000000545 0.751489 -0.17191
Br Br 0.821191 1.00360583 0.763181 -0.17191
Br Br 0.67839 0.50257 0.722537 -0.17191
Br Br 0.92418 0.497025 0.751982 -0.17191
N_ N_ 0.621279 0.748263 0.858391 -0.272
N_ N_ 0.870983 0.748138 0.853113 -0.272
N_ N_ 0.62301 0.738117 0.990697 -0.12501
N_ N_ 0.87062 0.734554 0.98638 -0.12501
N_ N_ 0.624562 0.738037 0.643606 -0.272
N_ N_ 0.86968 0.758406 0.64345 -0.272
N_ N_ 0.622297 0.726614 0.511851 -0.12501
N_ N_ 0.878026 0.75016 0.512195 -0.12501
O_ O_ 0.59306 0.789515 0.709022 -0.60745
O_ O_ 0.842629 0.797312 0.714776 -0.60745
O_ O_ 0.596538 0.790251 0.778178 -0.60745
O_ O_ 0.843877 0.796396 0.782035 -0.60745
O_ O_ 0.660235 0.787602 0.781222 -0.60745
O_ O_ 0.905444 0.79063 0.786438 -0.60745
O_ O_ 0.653873 0.792806 0.713521 -0.60745
O_ O_ 0.908057 0.796027 0.717477 -0.60745
O_ O_ 0.659679 0.702121 0.783727 -0.60745
O_ O_ 0.899342 0.702359 0.780905 -0.60745
O_ O_ 0.658226 0.702452 0.714195 -0.60745
O_ O_ 0.902836 0.703423 0.710979 -0.60745
O_ O_ 0.596764 0.69532 0.716151 -0.60745
O_ O_ 0.844755 0.704323 0.711624 -0.60745
O_ O_ 0.592443 0.703788 0.781993 -0.60745
O_ O_ 0.836887 0.711132 0.778132 -0.60745
