_cell_length_a 44.444
_cell_length_b 32.3360000049186
_cell_length_c 31.843999878906452
_cell_angle_alpha 89.99799923859553
_cell_angle_beta 91.13600050494348
_cell_angle_gamma 89.9990006550086
_symmetry_space_group_name_H-M         'P 1'
_symmetry_Int_Tables_number            1
loop_
_symmetry_equiv_pos_as_xyz
   'x, y, z'
                         
loop_
_atom_site_label
_atom_site_type_symbol
_atom_site_fract_x 
_atom_site_fract_y
_atom_site_fract_z
_atom_site_charge
Zn Zn 0.127541 0.24661 0.288865 0.9476
Zn Zn 0.374516 0.245926 0.281721 0.9476
Zn Zn 0.126358 0.248194 0.219932 0.9476
Zn Zn 0.373732 0.24433 0.210897 0.9476
H_ H_ 0.0239737 0.401343 0.183705 0.10932
H_ H_ 0.274624 0.405904 0.177747 0.10932
H_ H_ 0.0799237 0.369489 0.312755 0.10932
H_ H_ 0.323948 0.358939 0.307748 0.10932
H_ H_ 0.0482922 0.335735 0.191596 0.10932
H_ H_ 0.297291 0.336083 0.179913 0.10932
H_ H_ 0.0457211 0.428944 0.313783 0.10932
H_ H_ 0.2977 0.423851 0.305274 0.10932
H_ H_ 0.218402 0.417617 0.320146 0.10932
H_ H_ 0.449759 0.422923 0.313636 0.10932
H_ H_ 0.190545 0.3375 0.188901 0.10932
H_ H_ 0.438796 0.347412 0.180928 0.10932
H_ H_ 0.1843 0.352658 0.322011 0.10932
H_ H_ 0.417369 0.361468 0.307843 0.10932
H_ H_ 0.217489 0.405269 0.184534 0.10932
H_ H_ 0.469728 0.410864 0.181486 0.10932
H_ H_ 0.222277 0.0833439 0.322147 0.10932
H_ H_ 0.473112 0.0961805 0.328115 0.10932
H_ H_ 0.183409 0.140357 0.188859 0.10932
H_ H_ 0.426021 0.124957 0.187756 0.10932
H_ H_ 0.201969 0.156026 0.319794 0.10932
H_ H_ 0.446561 0.16317 0.315685 0.10932
H_ H_ 0.214109 0.0812483 0.185887 0.10932
H_ H_ 0.464628 0.0697754 0.194407 0.10932
H_ H_ 0.0220853 0.0928486 0.183405 0.10932
H_ H_ 0.273496 0.0865519 0.185085 0.10932
H_ H_ 0.0607275 0.142561 0.32044 0.10932
H_ H_ 0.313536 0.14908 0.317085 0.10932
H_ H_ 0.052074 0.160597 0.187045 0.10932
H_ H_ 0.305797 0.147685 0.181773 0.10932
H_ H_ 0.0351428 0.0763746 0.314494 0.10932
H_ H_ 0.286254 0.0837864 0.317852 0.10932
H_ H_ 0.122364 0.308486 0.362093 0.10932
H_ H_ 0.357222 0.31605 0.34764 0.10932
H_ H_ 0.134829 0.182371 0.364043 0.10932
H_ H_ 0.382255 0.191562 0.358706 0.10932
H_ H_ 0.129254 0.182122 0.441881 0.10932
H_ H_ 0.374023 0.193398 0.436691 0.10932
H_ H_ 0.125197 0.313736 0.440909 0.10932
H_ H_ 0.35015 0.320725 0.424157 0.10932
H_ H_ 0.133499 0.310837 0.140732 0.10932
H_ H_ 0.421174 0.252586 0.132608 0.10932
H_ H_ 0.129685 0.179803 0.14982 0.10932
H_ H_ 0.326832 0.233989 0.141365 0.10932
H_ H_ 0.125862 0.172506 0.071886 0.10932
H_ H_ 0.320574 0.23744 0.0659468 0.10932
H_ H_ 0.133709 0.304337 0.0617734 0.10932
H_ H_ 0.41627 0.253839 0.0527256 0.10932
C_ C_ 0.0649682 0.345166 0.255167 -0.02249
C_ C_ 0.315825 0.342301 0.242722 -0.02249
C_ C_ 0.0129861 0.459208 0.247333 -0.02249
C_ C_ 0.267186 0.460545 0.243299 -0.02249
C_ C_ 0.0330914 0.393905 0.214293 -0.11473
C_ C_ 0.285148 0.395077 0.204867 -0.11473
C_ C_ 0.0650476 0.37433 0.287917 -0.11473
C_ C_ 0.311444 0.365784 0.279856 -0.11473
C_ C_ 0.049148 0.356529 0.218881 -0.11473
C_ C_ 0.29971 0.356862 0.205347 -0.11473
C_ C_ 0.03009 0.419998 0.250397 -0.02249
C_ C_ 0.285033 0.420259 0.24192 -0.02249
C_ C_ 0.0865983 0.307996 0.254167 0.6875
C_ C_ 0.334211 0.303254 0.242222 0.6875
C_ C_ 0.0467352 0.410356 0.286115 -0.11473
C_ C_ 0.298759 0.40538 0.277805 -0.11473
C_ C_ 0.186305 0.34203 0.25819 -0.02249
C_ C_ 0.431705 0.346398 0.24598 -0.02249
C_ C_ 0.235993 0.456955 0.25108 -0.02249
C_ C_ 0.479359 0.462254 0.253265 -0.02249
C_ C_ 0.209095 0.402194 0.290898 -0.11473
C_ C_ 0.449765 0.4058 0.284933 -0.11473
C_ C_ 0.196236 0.355883 0.217985 -0.11473
C_ C_ 0.444612 0.362491 0.21006 -0.11473
C_ C_ 0.189829 0.368488 0.293232 -0.11473
C_ C_ 0.433988 0.369437 0.282443 -0.11473
C_ C_ 0.219167 0.415338 0.252421 -0.02249
C_ C_ 0.461116 0.423285 0.249531 -0.02249
C_ C_ 0.164902 0.305484 0.257585 0.6875
C_ C_ 0.413437 0.307075 0.247225 0.6875
C_ C_ 0.213151 0.392126 0.214917 -0.11473
C_ C_ 0.457554 0.401447 0.209522 -0.11473
C_ C_ 0.18519 0.148933 0.255843 -0.02249
C_ C_ 0.433642 0.148088 0.252442 -0.02249
C_ C_ 0.233101 0.033793 0.255077 -0.02249
C_ C_ 0.486738 0.0374431 0.266455 -0.02249
C_ C_ 0.215785 0.0980538 0.292664 -0.11473
C_ C_ 0.46765 0.104938 0.297003 -0.11473
C_ C_ 0.191784 0.128375 0.217896 -0.11473
C_ C_ 0.438729 0.121022 0.218351 -0.11473
C_ C_ 0.199498 0.135121 0.292167 -0.11473
C_ C_ 0.450455 0.141972 0.289929 -0.11473
C_ C_ 0.216125 0.0732821 0.254485 -0.02249
C_ C_ 0.47244 0.079332 0.261992 -0.02249
C_ C_ 0.166418 0.187254 0.25821 0.6875
C_ C_ 0.412579 0.184426 0.250618 0.6875
C_ C_ 0.206269 0.0908914 0.216712 -0.11473
C_ C_ 0.460167 0.0895691 0.221162 -0.11473
C_ C_ 0.0638246 0.151415 0.252617 -0.02249
C_ C_ 0.314792 0.150458 0.24842 -0.02249
C_ C_ 0.0137537 0.0377614 0.246331 -0.02249
C_ C_ 0.26452 0.0354815 0.254598 -0.02249
C_ C_ 0.0347624 0.101005 0.211423 -0.11473
C_ C_ 0.284523 0.0964597 0.211979 -0.11473
C_ C_ 0.0553118 0.129742 0.289284 -0.11473
C_ C_ 0.306083 0.134556 0.286684 -0.11473
C_ C_ 0.0514572 0.139185 0.213508 -0.11473
C_ C_ 0.30181 0.132783 0.210591 -0.11473
C_ C_ 0.0307913 0.0766679 0.246869 -0.02249
C_ C_ 0.281396 0.0760128 0.250448 -0.02249
C_ C_ 0.0846461 0.188111 0.253329 0.6875
C_ C_ 0.336039 0.184849 0.246728 0.6875
C_ C_ 0.0392809 0.0931984 0.286807 -0.11473
C_ C_ 0.291357 0.0958334 0.287467 -0.11473
C_ C_ 0.125726 0.281199 0.380064 0.17695
C_ C_ 0.360483 0.289462 0.367966 0.17695
C_ C_ 0.127689 0.21038 0.381667 0.17695
C_ C_ 0.373583 0.217954 0.374885 0.17695
C_ C_ 0.127088 0.210012 0.424972 -0.11473
C_ C_ 0.373547 0.222204 0.418897 -0.11473
C_ C_ 0.127865 0.247064 0.44798 0.23465
C_ C_ 0.364558 0.259154 0.437036 0.23465
C_ C_ 0.127817 0.284197 0.425511 -0.11473
C_ C_ 0.356622 0.292664 0.410346 -0.11473
C_ C_ 0.133069 0.279883 0.125241 0.17695
C_ C_ 0.39928 0.248324 0.117859 0.17695
C_ C_ 0.126727 0.207932 0.130738 0.17695
C_ C_ 0.347686 0.231529 0.123222 0.17695
C_ C_ 0.123791 0.203944 0.0861435 -0.11473
C_ C_ 0.34372 0.233734 0.0798816 -0.11473
C_ C_ 0.125613 0.237949 0.0620066 0.23465
C_ C_ 0.368375 0.24083 0.0535484 0.23465
C_ C_ 0.131257 0.277458 0.0820384 -0.11473
C_ C_ 0.397382 0.245961 0.0724572 -0.11473
C_ C_ 0.0269418 0.49712 0.241921 0.05793
C_ C_ 0.281732 0.500204 0.239384 0.05793
C_ C_ 0.218311 -0.0041160000000000085 0.252128 0.05793
C_ C_ 0.468668 1.000586613 0.267001 0.05793
Br Br 0.0675297 0.497509 0.220039 -0.17191
Br Br 0.32152 0.502774 0.218997 -0.17191
Br Br 0.175588 -0.0031130000000000324 0.255448 -0.17191
Br Br 0.425349 1.0075566 0.278761 -0.17191
N_ N_ 0.12604 0.245295 0.359535 -0.272
N_ N_ 0.370865 0.253084 0.350527 -0.272
N_ N_ 0.132907 0.24702 0.492162 -0.12501
N_ N_ 0.36444 0.264129 0.48246 -0.12501
N_ N_ 0.129364 0.245629 0.149154 -0.272
N_ N_ 0.374413 0.240399 0.141873 -0.272
N_ N_ 0.128739 0.232637 0.0172124 -0.12501
N_ N_ 0.364505 0.240593 0.0087474 -0.12501
O_ O_ 0.0911316 0.287776 0.220304 -0.60745
O_ O_ 0.343057 0.287975 0.207628 -0.60745
O_ O_ 0.099041 0.295796 0.287267 -0.60745
O_ O_ 0.341176 0.286735 0.276172 -0.60745
O_ O_ 0.161657 0.283692 0.28964 -0.60745
O_ O_ 0.402989 0.292421 0.281755 -0.60745
O_ O_ 0.152699 0.294022 0.223646 -0.60745
O_ O_ 0.406028 0.290437 0.212956 -0.60745
O_ O_ 0.154304 0.197017 0.29299 -0.60745
O_ O_ 0.407852 0.204114 0.285483 -0.60745
O_ O_ 0.15777 0.207273 0.224384 -0.60745
O_ O_ 0.405381 0.200948 0.217034 -0.60745
O_ O_ 0.0968893 0.201134 0.218427 -0.60745
O_ O_ 0.343483 0.200154 0.211008 -0.60745
O_ O_ 0.0925107 0.205848 0.287468 -0.60745
O_ O_ 0.346377 0.199063 0.282374 -0.60745
Zn Zn 0.127742 0.244985 0.788236 0.9476
Zn Zn 0.377745 0.25113 0.778734 0.9476
Zn Zn 0.124361 0.245411 0.71816 0.9476
Zn Zn 0.375233 0.250183 0.707899 0.9476
H_ H_ 0.0416524 0.426135 0.686723 0.10932
H_ H_ 0.289584 0.422555 0.676889 0.10932
H_ H_ 0.0623866 0.345097 0.819537 0.10932
H_ H_ 0.313185 0.346649 0.812114 0.10932
H_ H_ 0.0669528 0.356103 0.684229 0.10932
H_ H_ 0.320388 0.362861 0.672829 0.10932
H_ H_ 0.0289239 0.410197 0.818679 0.10932
H_ H_ 0.283205 0.411626 0.812347 0.10932
H_ H_ 0.224571 0.410059 0.812015 0.10932
H_ H_ 0.472477 0.411186 0.81555 0.10932
H_ H_ 0.171714 0.363521 0.686035 0.10932
H_ H_ 0.445514 0.353128 0.677842 0.10932
H_ H_ 0.198387 0.345266 0.814129 0.10932
H_ H_ 0.445026 0.345975 0.809806 0.10932
H_ H_ 0.202988 0.425998 0.682626 0.10932
H_ H_ 0.47196 0.418335 0.684649 0.10932
H_ H_ 0.225969 0.0845787 0.813382 0.10932
H_ H_ 0.462708 0.0868656 0.816011 0.10932
H_ H_ 0.170641 0.133837 0.691374 0.10932
H_ H_ 0.43183 0.139094 0.677219 0.10932
H_ H_ 0.20509 0.157609 0.815842 0.10932
H_ H_ 0.43376 0.149265 0.812195 0.10932
H_ H_ 0.208916 0.0776114 0.685877 0.10932
H_ H_ 0.464778 0.0766865 0.682772 0.10932
H_ H_ 0.0357368 0.0720844 0.690858 0.10932
H_ H_ 0.279793 0.0873221 0.683041 0.10932
H_ H_ 0.0567008 0.155114 0.821152 0.10932
H_ H_ 0.318397 0.146377 0.816638 0.10932
H_ H_ 0.0696328 0.135526 0.689373 0.10932
H_ H_ 0.305594 0.155949 0.679709 0.10932
H_ H_ 0.0199103 0.0980149 0.822171 0.10932
H_ H_ 0.293755 0.0801388 0.814867 0.10932
H_ H_ 0.13024 0.311543 0.854836 0.10932
H_ H_ 0.397701 0.313649 0.856158 0.10932
H_ H_ 0.127729 0.184576 0.870654 0.10932
H_ H_ 0.355429 0.193987 0.857119 0.10932
H_ H_ 0.131616 0.189558 0.947749 0.10932
H_ H_ 0.357398 0.194653 0.93265 0.10932
H_ H_ 0.130276 0.321476 0.934778 0.10932
H_ H_ 0.40459 0.30911 0.936271 0.10932
H_ H_ 0.0752305 0.245503 0.650766 0.10932
H_ H_ 0.362504 0.185795 0.641805 0.10932
H_ H_ 0.167657 0.24593 0.641082 0.10932
H_ H_ 0.37779 0.316134 0.629892 0.10932
H_ H_ 0.165534 0.24229 0.563698 0.10932
H_ H_ 0.374417 0.30691 0.552277 0.10932
H_ H_ 0.0666485 0.24133 0.573005 0.10932
H_ H_ 0.358073 0.17726 0.565622 0.10932
C_ C_ 0.0667416 0.345289 0.751328 -0.02249
C_ C_ 0.317116 0.346913 0.742379 -0.02249
C_ C_ 0.0204387 0.465782 0.753116 -0.02249
C_ C_ 0.267779 0.462627 0.74972 -0.02249
C_ C_ 0.0481596 0.408963 0.715474 -0.11473
C_ C_ 0.293113 0.406834 0.705965 -0.11473
C_ C_ 0.0559045 0.361445 0.789983 -0.11473
C_ C_ 0.307911 0.364087 0.781042 -0.11473
C_ C_ 0.0637498 0.370453 0.715341 -0.11473
C_ C_ 0.311174 0.370104 0.704539 -0.11473
C_ C_ 0.036929 0.424782 0.754446 -0.02249
C_ C_ 0.283384 0.422498 0.744944 -0.02249
C_ C_ 0.0865818 0.306023 0.749761 0.6875
C_ C_ 0.337004 0.309678 0.739642 0.6875
C_ C_ 0.039276 0.398843 0.789924 -0.11473
C_ C_ 0.288964 0.398121 0.782497 -0.11473
C_ C_ 0.185158 0.34533 0.746765 -0.02249
C_ C_ 0.438063 0.348341 0.745104 -0.02249
C_ C_ 0.236072 0.461037 0.748873 -0.02249
C_ C_ 0.484359 0.466356 0.749107 -0.02249
C_ C_ 0.214893 0.397274 0.78368 -0.11473
C_ C_ 0.463331 0.402027 0.786624 -0.11473
C_ C_ 0.187519 0.368951 0.710004 -0.11473
C_ C_ 0.447234 0.368425 0.708398 -0.11473
C_ C_ 0.199536 0.359853 0.78458 -0.11473
C_ C_ 0.445375 0.365371 0.784558 -0.11473
C_ C_ 0.218688 0.419699 0.746698 -0.02249
C_ C_ 0.469204 0.425052 0.750363 -0.02249
C_ C_ 0.164029 0.308064 0.747684 0.6875
C_ C_ 0.41786 0.309796 0.74273 0.6875
C_ C_ 0.203811 0.40701 0.710703 -0.11473
C_ C_ 0.462754 0.406579 0.711873 -0.11473
C_ C_ 0.186581 0.150251 0.753599 -0.02249
C_ C_ 0.434162 0.153511 0.745219 -0.02249
C_ C_ 0.238856 0.0365003 0.749225 -0.02249
C_ C_ 0.485777 0.0381765 0.752045 -0.02249
C_ C_ 0.218595 0.100601 0.7852 -0.11473
C_ C_ 0.457609 0.0985053 0.785715 -0.11473
C_ C_ 0.188203 0.128433 0.715473 -0.11473
C_ C_ 0.439944 0.129764 0.7077 -0.11473
C_ C_ 0.205448 0.140621 0.78597 -0.11473
C_ C_ 0.439868 0.134168 0.783082 -0.11473
C_ C_ 0.221235 0.0762163 0.74879 -0.02249
C_ C_ 0.46731 0.0786599 0.748998 -0.02249
C_ C_ 0.163566 0.18346 0.75759 0.6875
C_ C_ 0.416999 0.192244 0.743992 0.6875
C_ C_ 0.206003 0.0923794 0.714694 -0.11473
C_ C_ 0.45903 0.0957539 0.709145 -0.11473
C_ C_ 0.063878 0.151558 0.754622 -0.02249
C_ C_ 0.313046 0.157099 0.748368 -0.02249
C_ C_ 0.0112868 0.0396338 0.761194 -0.02249
C_ C_ 0.270883 0.0354202 0.750524 -0.02249
C_ C_ 0.0404774 0.0901232 0.718445 -0.11473
C_ C_ 0.286774 0.0999164 0.712239 -0.11473
C_ C_ 0.051748 0.138194 0.792959 -0.11473
C_ C_ 0.31142 0.132739 0.786319 -0.11473
C_ C_ 0.0589129 0.12635 0.717371 -0.11473
C_ C_ 0.301262 0.138694 0.710587 -0.11473
C_ C_ 0.0274715 0.079794 0.757405 -0.02249
C_ C_ 0.2858 0.0777328 0.749465 -0.02249
C_ C_ 0.0835725 0.189528 0.754003 0.6875
C_ C_ 0.335175 0.191966 0.747085 0.6875
C_ C_ 0.0362977 0.100522 0.794573 -0.11473
C_ C_ 0.297265 0.0940049 0.787074 -0.11473
C_ C_ 0.128399 0.286248 0.875936 0.17695
C_ C_ 0.389378 0.287286 0.87385 0.17695
C_ C_ 0.13028 0.214164 0.884676 0.17695
C_ C_ 0.367046 0.220633 0.873946 0.17695
C_ C_ 0.131832 0.216998 0.927793 -0.11473
C_ C_ 0.364245 0.222845 0.917007 -0.11473
C_ C_ 0.129712 0.255709 0.945996 0.23465
C_ C_ 0.378146 0.254704 0.940405 0.23465
C_ C_ 0.129927 0.290953 0.920321 -0.11473
C_ C_ 0.391575 0.286649 0.919211 -0.11473
C_ C_ 0.0926821 0.239862 0.630548 0.17695
C_ C_ 0.366062 0.212213 0.621312 0.17695
C_ C_ 0.146148 0.240607 0.625133 0.17695
C_ C_ 0.373416 0.284349 0.61402 0.17695
C_ C_ 0.144641 0.240385 0.581689 -0.11473
C_ C_ 0.370497 0.280397 0.571407 -0.11473
C_ C_ 0.11577 0.23826 0.560787 0.23465
C_ C_ 0.364202 0.240709 0.553278 0.23465
C_ C_ 0.0892012 0.236578 0.587106 -0.11473
C_ C_ 0.362552 0.207505 0.578437 -0.11473
C_ C_ 0.0378578 0.503664 0.751868 0.05793
C_ C_ 0.282865 0.500171 0.751263 0.05793
C_ C_ 0.222878 -0.0023579999999999712 0.748643 0.05793
C_ C_ 0.469794 0.999141095 0.753328 0.05793
Br Br 0.0790912 0.503363 0.767942 -0.17191
Br Br 0.325841 0.498879 0.752298 -0.17191
Br Br 0.17976 -0.000831837 0.76425 -0.17191
Br Br 0.425647 0.998768 0.761012 -0.17191
N_ N_ 0.12741 0.247598 0.859348 -0.272
N_ N_ 0.377881 0.253978 0.852892 -0.272
N_ N_ 0.128029 0.261645 0.991247 -0.12501
N_ N_ 0.383797 0.252241 0.984829 -0.12501
N_ N_ 0.120999 0.236279 0.648683 -0.272
N_ N_ 0.369396 0.250929 0.63828 -0.272
N_ N_ 0.111581 0.242173 0.517218 -0.12501
N_ N_ 0.358707 0.236152 0.508103 -0.12501
O_ O_ 0.0922581 0.289225 0.714794 -0.60745
O_ O_ 0.344154 0.292063 0.705164 -0.60745
O_ O_ 0.0983422 0.290544 0.783444 -0.60745
O_ O_ 0.343967 0.290695 0.772574 -0.60745
O_ O_ 0.160737 0.289607 0.782222 -0.60745
O_ O_ 0.407502 0.293816 0.775775 -0.60745
O_ O_ 0.153294 0.2926 0.713298 -0.60745
O_ O_ 0.411623 0.293088 0.708067 -0.60745
O_ O_ 0.153549 0.195005 0.792895 -0.60745
O_ O_ 0.411657 0.212721 0.778844 -0.60745
O_ O_ 0.157866 0.205599 0.724737 -0.60745
O_ O_ 0.402265 0.200001 0.71015 -0.60745
O_ O_ 0.0921334 0.200646 0.717503 -0.60745
O_ O_ 0.341593 0.206906 0.711034 -0.60745
O_ O_ 0.0955307 0.20301 0.787887 -0.60745
O_ O_ 0.345953 0.207304 0.779817 -0.60745
Zn Zn 0.122882 0.741998 0.283703 0.9476
Zn Zn 0.374448 0.747738 0.286046 0.9476
Zn Zn 0.122684 0.749095 0.21403 0.9476
Zn Zn 0.376746 0.749038 0.216702 0.9476
H_ H_ 0.0361948 0.923937 0.181947 0.10932
H_ H_ 0.288305 0.918418 0.182729 0.10932
H_ H_ 0.0508823 0.837994 0.30945 0.10932
H_ H_ 0.309951 0.844826 0.317329 0.10932
H_ H_ 0.0700932 0.863329 0.178797 0.10932
H_ H_ 0.321695 0.859121 0.183356 0.10932
H_ H_ 0.0238677 0.905776 0.311062 0.10932
H_ H_ 0.27905 0.905731 0.31758 0.10932
H_ H_ 0.204664 0.915285 0.319824 0.10932
H_ H_ 0.4815 0.900067 0.321925 0.10932
H_ H_ 0.190479 0.847224 0.182648 0.10932
H_ H_ 0.415262 0.869842 0.196994 0.10932
H_ H_ 0.169319 0.858752 0.312636 0.10932
H_ H_ 0.447971 0.839989 0.321208 0.10932
H_ H_ 0.22204 0.911364 0.188594 0.10932
H_ H_ 0.436446 0.938583 0.207028 0.10932
H_ H_ 0.220832 0.580641 0.325788 0.10932
H_ H_ 0.46569 0.584266 0.324157 0.10932
H_ H_ 0.178222 0.640058 0.190986 0.10932
H_ H_ 0.445026 0.651742 0.186692 0.10932
H_ H_ 0.190747 0.650624 0.322622 0.10932
H_ H_ 0.446282 0.655534 0.323141 0.10932
H_ H_ 0.210569 0.577858 0.190877 0.10932
H_ H_ 0.470749 0.586486 0.19123 0.10932
H_ H_ 0.0342745 0.578948 0.176865 0.10932
H_ H_ 0.279929 0.58925 0.180464 0.10932
H_ H_ 0.0494329 0.651041 0.313694 0.10932
H_ H_ 0.314076 0.639627 0.317033 0.10932
H_ H_ 0.0627668 0.641639 0.178487 0.10932
H_ H_ 0.303885 0.656853 0.185464 0.10932
H_ H_ 0.0240993 0.585281 0.311725 0.10932
H_ H_ 0.295833 0.571409 0.317549 0.10932
H_ H_ 0.141822 0.816441 0.352491 0.10932
H_ H_ 0.368053 0.682366 0.355168 0.10932
H_ H_ 0.109028 0.691742 0.36264 0.10932
H_ H_ 0.392268 0.81109 0.365138 0.10932
H_ H_ 0.113321 0.697479 0.440878 0.10932
H_ H_ 0.384643 0.807377 0.440739 0.10932
H_ H_ 0.152822 0.818228 0.428732 0.10932
H_ H_ 0.369749 0.676974 0.432934 0.10932
H_ H_ 0.169245 0.751841 0.1373 0.10932
H_ H_ 0.391298 0.691939 0.136671 0.10932
H_ H_ 0.073849 0.749558 0.140226 0.10932
H_ H_ 0.352866 0.814646 0.14546 0.10932
H_ H_ 0.0693447 0.750953 0.0654244 0.10932
H_ H_ 0.350435 0.818258 0.0658599 0.10932
H_ H_ 0.163948 0.759764 0.0591955 0.10932
H_ H_ 0.388689 0.697 0.0593584 0.10932
C_ C_ 0.0651169 0.845616 0.243461 -0.02249
C_ C_ 0.317179 0.844814 0.250341 -0.02249
C_ C_ 0.0143973 0.961216 0.250934 -0.02249
C_ C_ 0.267195 0.957543 0.253312 -0.02249
C_ C_ 0.0413149 0.906241 0.210133 -0.11473
C_ C_ 0.293823 0.902495 0.21369 -0.11473
C_ C_ 0.0503347 0.856621 0.280703 -0.11473
C_ C_ 0.302623 0.857626 0.286853 -0.11473
C_ C_ 0.0597928 0.871559 0.207424 -0.11473
C_ C_ 0.311962 0.868008 0.212569 -0.11473
C_ C_ 0.0317778 0.921047 0.248402 -0.02249
C_ C_ 0.285222 0.919721 0.251561 -0.02249
C_ C_ 0.0842219 0.808017 0.242447 0.6875
C_ C_ 0.338642 0.808494 0.252653 0.6875
C_ C_ 0.0335403 0.894356 0.283547 -0.11473
C_ C_ 0.28797 0.894951 0.287434 -0.11473
C_ C_ 0.181656 0.844004 0.24838 -0.02249
C_ C_ 0.430793 0.847907 0.257897 -0.02249
C_ C_ 0.234218 0.956651 0.254672 -0.02249
C_ C_ 0.48165 0.96044 0.265027 -0.02249
C_ C_ 0.204025 0.899983 0.290002 -0.11473
C_ C_ 0.46586 0.894593 0.295533 -0.11473
C_ C_ 0.192669 0.862774 0.211834 -0.11473
C_ C_ 0.428737 0.876711 0.226171 -0.11473
C_ C_ 0.184342 0.865949 0.286446 -0.11473
C_ C_ 0.450727 0.856023 0.292706 -0.11473
C_ C_ 0.216646 0.916579 0.253393 -0.02249
C_ C_ 0.462201 0.923812 0.264826 -0.02249
C_ C_ 0.162659 0.807943 0.245067 0.6875
C_ C_ 0.414701 0.808467 0.253573 0.6875
C_ C_ 0.211518 0.896662 0.216126 -0.11473
C_ C_ 0.444287 0.915168 0.228997 -0.11473
C_ C_ 0.181572 0.647949 0.256291 -0.02249
C_ C_ 0.440488 0.657794 0.255124 -0.02249
C_ C_ 0.236179 0.534838 0.255315 -0.02249
C_ C_ 0.486037 0.538836 0.257477 -0.02249
C_ C_ 0.212201 0.594569 0.295415 -0.11473
C_ C_ 0.464109 0.600373 0.294221 -0.11473
C_ C_ 0.188402 0.629117 0.219208 -0.11473
C_ C_ 0.449164 0.637978 0.218073 -0.11473
C_ C_ 0.1929 0.630262 0.295082 -0.11473
C_ C_ 0.447393 0.637816 0.293527 -0.11473
C_ C_ 0.219821 0.574865 0.258132 -0.02249
C_ C_ 0.470448 0.579162 0.256583 -0.02249
C_ C_ 0.159904 0.684748 0.256346 0.6875
C_ C_ 0.418333 0.692373 0.253029 0.6875
C_ C_ 0.207538 0.593342 0.219484 -0.11473
C_ C_ 0.467262 0.601802 0.219619 -0.11473
C_ C_ 0.059353 0.652717 0.247042 -0.02249
C_ C_ 0.317565 0.650352 0.25042 -0.02249
C_ C_ 0.0111223 0.53581 0.245326 -0.02249
C_ C_ 0.266646 0.536536 0.246195 -0.02249
C_ C_ 0.0390563 0.592808 0.208456 -0.11473
C_ C_ 0.286887 0.600001 0.211627 -0.11473
C_ C_ 0.0460725 0.636596 0.282992 -0.11473
C_ C_ 0.309713 0.629778 0.288698 -0.11473
C_ C_ 0.0535077 0.631685 0.208197 -0.11473
C_ C_ 0.30435 0.636022 0.211885 -0.11473
C_ C_ 0.0281398 0.577515 0.245132 -0.02249
C_ C_ 0.283053 0.576482 0.247876 -0.02249
C_ C_ 0.0791489 0.688642 0.25085 0.6875
C_ C_ 0.337956 0.686332 0.250135 0.6875
C_ C_ 0.0300095 0.600607 0.282104 -0.11473
C_ C_ 0.294021 0.591975 0.288235 -0.11473
C_ C_ 0.136848 0.788352 0.371208 0.17695
C_ C_ 0.373714 0.710234 0.373357 0.17695
C_ C_ 0.116271 0.721142 0.376482 0.17695
C_ C_ 0.385368 0.781341 0.380144 0.17695
C_ C_ 0.118454 0.724669 0.421123 -0.11473
C_ C_ 0.384396 0.779008 0.423182 -0.11473
C_ C_ 0.129999 0.760962 0.440019 0.23465
C_ C_ 0.379523 0.741221 0.443193 0.23465
C_ C_ 0.140124 0.792702 0.414226 -0.11473
C_ C_ 0.373229 0.706114 0.417593 -0.11473
C_ C_ 0.146135 0.74783 0.121758 0.17695
C_ C_ 0.382601 0.720446 0.121569 0.17695
C_ C_ 0.0939935 0.757284 0.125427 0.17695
C_ C_ 0.361398 0.789345 0.126875 0.17695
C_ C_ 0.0906545 0.755701 0.0803983 -0.11473
C_ C_ 0.357354 0.791592 0.082593 -0.11473
C_ C_ 0.117037 0.755913 0.0575984 0.23465
C_ C_ 0.369621 0.758802 0.0566151 0.23465
C_ C_ 0.143927 0.751277 0.0767584 -0.11473
C_ C_ 0.38025 0.721578 0.078242 -0.11473
C_ C_ 0.0286737 1.00004 0.252686 0.05793
C_ C_ 0.281679 0.997104 0.253953 0.05793
C_ C_ 0.220894 0.495285 0.259794 0.05793
C_ C_ 0.466165 0.502459 0.257257 0.05793
Br Br 0.0728124 0.00366899 0.252018 -0.17191
Br Br 0.325717 0.996255 0.254102 -0.17191
Br Br 0.179861 0.500548 0.274739 -0.17191
Br Br 0.42581 0.510632 0.274006 -0.17191
N_ N_ 0.125496 0.753074 0.353471 -0.272
N_ N_ 0.379568 0.747445 0.355603 -0.272
N_ N_ 0.135433 0.76155 0.484296 -0.12501
N_ N_ 0.37654 0.73749 0.487552 -0.12501
N_ N_ 0.121123 0.750667 0.144441 -0.272
N_ N_ 0.373292 0.753967 0.14463 -0.272
N_ N_ 0.114294 0.75389 0.0110423 -0.12501
N_ N_ 0.368923 0.763732 0.0112531 -0.12501
O_ O_ 0.0986414 0.800287 0.209044 -0.60745
O_ O_ 0.342443 0.785373 0.220479 -0.60745
O_ O_ 0.0889961 0.785311 0.273647 -0.60745
O_ O_ 0.345074 0.793895 0.288907 -0.60745
O_ O_ 0.153329 0.789874 0.278571 -0.60745
O_ O_ 0.407421 0.78934 0.287729 -0.60745
O_ O_ 0.156818 0.790533 0.210216 -0.60745
O_ O_ 0.402945 0.799075 0.217857 -0.60745
O_ O_ 0.151134 0.698451 0.29166 -0.60745
O_ O_ 0.405893 0.704061 0.28559 -0.60745
O_ O_ 0.149128 0.698755 0.222344 -0.60745
O_ O_ 0.412825 0.710639 0.218996 -0.60745
O_ O_ 0.0882005 0.708924 0.217577 -0.60745
O_ O_ 0.350435 0.700158 0.216895 -0.60745
O_ O_ 0.0915607 0.696996 0.284888 -0.60745
O_ O_ 0.343467 0.704354 0.284176 -0.60745
Zn Zn 0.127639 0.753377 0.786069 0.9476
Zn Zn 0.375708 0.752094 0.785515 0.9476
Zn Zn 0.127058 0.7552 0.713571 0.9476
Zn Zn 0.375346 0.749195 0.71461 0.9476
H_ H_ 0.0406298 0.931376 0.686631 0.10932
H_ H_ 0.291218 0.916182 0.676484 0.10932
H_ H_ 0.045788 0.836171 0.808554 0.10932
H_ H_ 0.304569 0.846179 0.816607 0.10932
H_ H_ 0.0771305 0.873157 0.687556 0.10932
H_ H_ 0.314089 0.848571 0.679542 0.10932
H_ H_ 0.0184974 0.901675 0.812278 0.10932
H_ H_ 0.281253 0.915571 0.812574 0.10932
H_ H_ 0.224608 0.916896 0.813731 0.10932
H_ H_ 0.472486 0.913161 0.81471 0.10932
H_ H_ 0.195327 0.844257 0.68516 0.10932
H_ H_ 0.421032 0.862981 0.684826 0.10932
H_ H_ 0.187832 0.859087 0.816267 0.10932
H_ H_ 0.449137 0.844039 0.814411 0.10932
H_ H_ 0.216588 0.915069 0.679552 0.10932
H_ H_ 0.460815 0.923244 0.68364 0.10932
H_ H_ 0.221474 0.585157 0.820577 0.10932
H_ H_ 0.469812 0.585525 0.817409 0.10932
H_ H_ 0.17051 0.631289 0.689664 0.10932
H_ H_ 0.4337 0.652642 0.683772 0.10932
H_ H_ 0.199197 0.655191 0.817723 0.10932
H_ H_ 0.443347 0.653314 0.816018 0.10932
H_ H_ 0.201097 0.569235 0.688567 0.10932
H_ H_ 0.456912 0.582006 0.68242 0.10932
H_ H_ 0.0535172 0.579366 0.68709 0.10932
H_ H_ 0.290845 0.578035 0.686516 0.10932
H_ H_ 0.0595551 0.656981 0.819559 0.10932
H_ H_ 0.316394 0.650975 0.818866 0.10932
H_ H_ 0.0730849 0.648639 0.685199 0.10932
H_ H_ 0.317056 0.646064 0.684036 0.10932
H_ H_ 0.0363422 0.588747 0.815648 0.10932
H_ H_ 0.29381 0.580198 0.818997 0.10932
H_ H_ 0.126547 0.816175 0.860087 0.10932
H_ H_ 0.377672 0.814765 0.866745 0.10932
H_ H_ 0.135899 0.68675 0.861337 0.10932
H_ H_ 0.378633 0.68591 0.853588 0.10932
H_ H_ 0.138798 0.688034 0.93618 0.10932
H_ H_ 0.379649 0.678558 0.93187 0.10932
H_ H_ 0.137264 0.822002 0.932481 0.10932
H_ H_ 0.375818 0.810058 0.938856 0.10932
H_ H_ 0.163866 0.793984 0.637627 0.10932
H_ H_ 0.361296 0.816732 0.647175 0.10932
H_ H_ 0.0939182 0.707441 0.639444 0.10932
H_ H_ 0.39142 0.693827 0.64013 0.10932
H_ H_ 0.0882223 0.708526 0.563361 0.10932
H_ H_ 0.394116 0.699064 0.560895 0.10932
H_ H_ 0.152348 0.809165 0.563179 0.10932
H_ H_ 0.364308 0.826736 0.569717 0.10932
C_ C_ 0.0659488 0.851125 0.748879 -0.02249
C_ C_ 0.315601 0.84492 0.748494 -0.02249
C_ C_ 0.0122406 0.963164 0.753683 -0.02249
C_ C_ 0.270091 0.959829 0.744294 -0.02249
C_ C_ 0.0449293 0.913442 0.715325 -0.11473
C_ C_ 0.294397 0.900743 0.707369 -0.11473
C_ C_ 0.0483748 0.85939 0.782478 -0.11473
C_ C_ 0.303396 0.863041 0.78556 -0.11473
C_ C_ 0.063706 0.878471 0.713692 -0.11473
C_ C_ 0.309948 0.864079 0.710023 -0.11473
C_ C_ 0.0298452 0.924089 0.752636 -0.02249
C_ C_ 0.285615 0.920361 0.745229 -0.02249
C_ C_ 0.0874304 0.815994 0.749025 0.6875
C_ C_ 0.333353 0.80496 0.749691 0.6875
C_ C_ 0.0299457 0.895687 0.783794 -0.11473
C_ C_ 0.289891 0.90212 0.784147 -0.11473
C_ C_ 0.187617 0.847869 0.750064 -0.02249
C_ C_ 0.434025 0.848915 0.748228 -0.02249
C_ C_ 0.23866 0.960443 0.745933 -0.02249
C_ C_ 0.48546 0.961635 0.747085 -0.02249
C_ C_ 0.215409 0.903595 0.786129 -0.11473
C_ C_ 0.462918 0.902984 0.785925 -0.11473
C_ C_ 0.194851 0.86418 0.711762 -0.11473
C_ C_ 0.437584 0.869701 0.711272 -0.11473
C_ C_ 0.194829 0.87068 0.786361 -0.11473
C_ C_ 0.448234 0.864353 0.786012 -0.11473
C_ C_ 0.220904 0.921306 0.746268 -0.02249
C_ C_ 0.46826 0.922328 0.747953 -0.02249
C_ C_ 0.167177 0.810914 0.74946 0.6875
C_ C_ 0.414479 0.81167 0.748559 0.6875
C_ C_ 0.211598 0.900574 0.708905 -0.11473
C_ C_ 0.457625 0.905257 0.710787 -0.11473
C_ C_ 0.184968 0.651742 0.752807 -0.02249
C_ C_ 0.433457 0.656859 0.75038 -0.02249
C_ C_ 0.234139 0.536327 0.749885 -0.02249
C_ C_ 0.483484 0.540931 0.745371 -0.02249
C_ C_ 0.212084 0.597338 0.790249 -0.11473
C_ C_ 0.462434 0.599589 0.786988 -0.11473
C_ C_ 0.186069 0.625575 0.717057 -0.11473
C_ C_ 0.441208 0.639647 0.712289 -0.11473
C_ C_ 0.200315 0.638029 0.789492 -0.11473
C_ C_ 0.443731 0.636418 0.786818 -0.11473
C_ C_ 0.216613 0.576161 0.752469 -0.02249
C_ C_ 0.46509 0.579614 0.748056 -0.02249
C_ C_ 0.165354 0.69032 0.751786 0.6875
C_ C_ 0.416704 0.695391 0.751057 0.6875
C_ C_ 0.200797 0.587919 0.716171 -0.11473
C_ C_ 0.453984 0.599374 0.710797 -0.11473
C_ C_ 0.0728597 0.656488 0.754072 -0.02249
C_ C_ 0.315364 0.654449 0.751358 -0.02249
C_ C_ 0.0229972 0.54116 0.74956 -0.02249
C_ C_ 0.266446 0.53805 0.7525 -0.02249
C_ C_ 0.0513624 0.598322 0.713416 -0.11473
C_ C_ 0.293084 0.595561 0.715779 -0.11473
C_ C_ 0.0588433 0.640536 0.790679 -0.11473
C_ C_ 0.309056 0.635372 0.789907 -0.11473
C_ C_ 0.0651276 0.636878 0.714584 -0.11473
C_ C_ 0.308966 0.634434 0.713327 -0.11473
C_ C_ 0.0389251 0.581635 0.751576 -0.02249
C_ C_ 0.282789 0.577716 0.753244 -0.02249
C_ C_ 0.0874573 0.695856 0.754537 0.6875
C_ C_ 0.336303 0.691466 0.7472 0.6875
C_ C_ 0.0420677 0.604507 0.787287 -0.11473
C_ C_ 0.293349 0.596221 0.790285 -0.11473
C_ C_ 0.130933 0.78991 0.875937 0.17695
C_ C_ 0.373768 0.783798 0.879341 0.17695
C_ C_ 0.13485 0.716921 0.876358 0.17695
C_ C_ 0.375315 0.711238 0.873111 0.17695
C_ C_ 0.13384 0.716806 0.920644 -0.11473
C_ C_ 0.376276 0.706699 0.916038 -0.11473
C_ C_ 0.132539 0.755361 0.942093 0.23465
C_ C_ 0.37562 0.74198 0.940908 0.23465
C_ C_ 0.132764 0.790898 0.91972 -0.11473
C_ C_ 0.373776 0.780949 0.921654 -0.11473
C_ C_ 0.146919 0.775266 0.619454 0.17695
C_ C_ 0.368512 0.79185 0.626585 0.17695
C_ C_ 0.107413 0.726873 0.621764 0.17695
C_ C_ 0.385821 0.722521 0.622807 0.17695
C_ C_ 0.105772 0.727655 0.578846 -0.11473
C_ C_ 0.388625 0.725939 0.578841 -0.11473
C_ C_ 0.120427 0.756874 0.55581 0.23465
C_ C_ 0.37715 0.761651 0.557111 0.23465
C_ C_ 0.144188 0.780389 0.577084 -0.11473
C_ C_ 0.36741 0.796251 0.582401 -0.11473
C_ C_ 0.0270215 0.001122 0.761934 0.05793
C_ C_ 0.286203 -0.0027890000000000414 0.745023 0.05793
C_ C_ 0.219758 0.497894 0.748984 0.05793
C_ C_ 0.468089 0.503509 0.748308 0.05793
Br Br 0.0710947 0.00525 0.769619 -0.17191
Br Br 0.329163 -0.003565999999999958 0.737145 -0.17191
Br Br 0.178148 0.494786 0.766959 -0.17191
Br Br 0.424523 0.501456 0.753753 -0.17191
N_ N_ 0.131704 0.753755 0.854648 -0.272
N_ N_ 0.376975 0.749558 0.855171 -0.272
N_ N_ 0.136311 0.755417 0.986408 -0.12501
N_ N_ 0.373524 0.736014 0.985175 -0.12501
N_ N_ 0.12842 0.750011 0.642406 -0.272
N_ N_ 0.377908 0.755705 0.645792 -0.272
N_ N_ 0.11417 0.759873 0.510877 -0.12501
N_ N_ 0.379816 0.766545 0.513374 -0.12501
O_ O_ 0.0982078 0.80448 0.714739 -0.60745
O_ O_ 0.34153 0.789917 0.714643 -0.60745
O_ O_ 0.0973431 0.799746 0.783006 -0.60745
O_ O_ 0.347136 0.795042 0.784096 -0.60745
O_ O_ 0.159224 0.795511 0.782745 -0.60745
O_ O_ 0.40543 0.797362 0.784275 -0.60745
O_ O_ 0.161085 0.794678 0.714177 -0.60745
O_ O_ 0.400176 0.798592 0.71572 -0.60745
O_ O_ 0.158706 0.707677 0.785889 -0.60745
O_ O_ 0.404387 0.706447 0.784476 -0.60745
O_ O_ 0.152704 0.703151 0.717661 -0.60745
O_ O_ 0.40915 0.713515 0.716359 -0.60745
O_ O_ 0.0942017 0.712477 0.71977 -0.60745
O_ O_ 0.349425 0.700281 0.712086 -0.60745
O_ O_ 0.0972724 0.71014 0.788129 -0.60745
O_ O_ 0.343435 0.711485 0.779622 -0.60745
Zn Zn 0.627652 0.249556 0.286615 0.9476
Zn Zn 0.872956 0.246922 0.279488 0.9476
Zn Zn 0.622618 0.248796 0.216375 0.9476
Zn Zn 0.871525 0.247141 0.209604 0.9476
H_ H_ 0.517415 0.404701 0.186292 0.10932
H_ H_ 0.775252 0.412075 0.180643 0.10932
H_ H_ 0.567032 0.350867 0.316902 0.10932
H_ H_ 0.828912 0.366094 0.311694 0.10932
H_ H_ 0.550248 0.343247 0.184438 0.10932
H_ H_ 0.808515 0.350598 0.179273 0.10932
H_ H_ 0.538246 0.419717 0.318851 0.10932
H_ H_ 0.792899 0.423014 0.313901 0.10932
H_ H_ 0.722564 0.412098 0.310853 0.10932
H_ H_ 0.986286 0.394313 0.306973 0.10932
H_ H_ 0.670947 0.364227 0.180202 0.10932
H_ H_ 0.903818 0.374081 0.202714 0.10932
H_ H_ 0.697988 0.34586 0.311166 0.10932
H_ H_ 0.957598 0.329725 0.306607 0.10932
H_ H_ 0.701276 0.430377 0.18141 0.10932
H_ H_ 0.935214 0.436252 0.19939 0.10932
H_ H_ 0.700329 0.0712442 0.310241 0.10932
H_ H_ 0.964013 0.0790005 0.309644 0.10932
H_ H_ 0.701438 0.162928 0.187643 0.10932
H_ H_ 0.932631 0.142538 0.174256 0.10932
H_ H_ 0.678853 0.136651 0.314082 0.10932
H_ H_ 0.926326 0.13495 0.308197 0.10932
H_ H_ 0.726122 0.0962093 0.181192 0.10932
H_ H_ 0.958273 0.080842 0.173264 0.10932
H_ H_ 0.548532 0.0649735 0.197566 0.10932
H_ H_ 0.807626 0.0595951 0.198847 0.10932
H_ H_ 0.565393 0.146946 0.330046 0.10932
H_ H_ 0.784732 0.170301 0.297643 0.10932
H_ H_ 0.570882 0.135086 0.195859 0.10932
H_ H_ 0.837641 0.123154 0.199231 0.10932
H_ H_ 0.537497 0.0807298 0.328923 0.10932
H_ H_ 0.762439 0.0969734 0.307492 0.10932
H_ H_ 0.635041 0.189955 0.366416 0.10932
H_ H_ 0.876449 0.181859 0.348522 0.10932
H_ H_ 0.616566 0.319471 0.352335 0.10932
H_ H_ 0.863828 0.313236 0.35636 0.10932
H_ H_ 0.611303 0.324602 0.428868 0.10932
H_ H_ 0.873015 0.308039 0.437654 0.10932
H_ H_ 0.635258 0.198777 0.443538 0.10932
H_ H_ 0.874709 0.176413 0.426528 0.10932
H_ H_ 0.615601 0.181589 0.147044 0.10932
H_ H_ 0.826691 0.230444 0.14064 0.10932
H_ H_ 0.628625 0.310656 0.136503 0.10932
H_ H_ 0.915927 0.269231 0.136587 0.10932
H_ H_ 0.638031 0.302203 0.0610499 0.10932
H_ H_ 0.913075 0.276132 0.0584122 0.10932
H_ H_ 0.617642 0.17262 0.0700342 0.10932
H_ H_ 0.819898 0.240522 0.0640309 0.10932
C_ C_ 0.56111 0.34333 0.250572 -0.02249
C_ C_ 0.819229 0.352139 0.247243 -0.02249
C_ C_ 0.510898 0.458552 0.255793 -0.02249
C_ C_ 0.762934 0.459772 0.247969 -0.02249
C_ C_ 0.529797 0.395513 0.214417 -0.11473
C_ C_ 0.783395 0.397438 0.211657 -0.11473
C_ C_ 0.556653 0.366287 0.28863 -0.11473
C_ C_ 0.81418 0.372958 0.285333 -0.11473
C_ C_ 0.54701 0.358817 0.213683 -0.11473
C_ C_ 0.802065 0.363063 0.210903 -0.11473
C_ C_ 0.526488 0.417644 0.253431 -0.02249
C_ C_ 0.7804 0.420685 0.24975 -0.02249
C_ C_ 0.580953 0.304297 0.247779 0.6875
C_ C_ 0.841265 0.315816 0.244491 0.6875
C_ C_ 0.538539 0.401443 0.289389 -0.11473
C_ C_ 0.794267 0.406106 0.286462 -0.11473
C_ C_ 0.6815 0.349976 0.244605 -0.02249
C_ C_ 0.932107 0.344656 0.250813 -0.02249
C_ C_ 0.730778 0.462295 0.244354 -0.02249
C_ C_ 0.980713 0.45773 0.249358 -0.02249
C_ C_ 0.711245 0.400356 0.283003 -0.11473
C_ C_ 0.967125 0.391973 0.285221 -0.11473
C_ C_ 0.682717 0.374893 0.20775 -0.11473
C_ C_ 0.922319 0.378188 0.224363 -0.11473
C_ C_ 0.696986 0.36213 0.282089 -0.11473
C_ C_ 0.951347 0.35362 0.283662 -0.11473
C_ C_ 0.714808 0.422652 0.245664 -0.02249
C_ C_ 0.963327 0.419835 0.251338 -0.02249
C_ C_ 0.662057 0.311707 0.246909 0.6875
C_ C_ 0.914734 0.306025 0.249987 0.6875
C_ C_ 0.701166 0.40903 0.20768 -0.11473
C_ C_ 0.93941 0.41339 0.223297 -0.11473
C_ C_ 0.684465 0.156444 0.249064 -0.02249
C_ C_ 0.928353 0.146573 0.242916 -0.02249
C_ C_ 0.731774 0.0390712 0.246573 -0.02249
C_ C_ 0.98204 0.038126 0.239592 -0.02249
C_ C_ 0.702586 0.0929296 0.283142 -0.11473
C_ C_ 0.957665 0.0937971 0.279744 -0.11473
C_ C_ 0.700695 0.143321 0.213012 -0.11473
C_ C_ 0.935651 0.12866 0.203896 -0.11473
C_ C_ 0.685933 0.128271 0.284332 -0.11473
C_ C_ 0.935946 0.125727 0.280215 -0.11473
C_ C_ 0.71509 0.0799033 0.246743 -0.02249
C_ C_ 0.96596 0.0771471 0.241769 -0.02249
C_ C_ 0.668774 0.196605 0.251938 0.6875
C_ C_ 0.909182 0.184976 0.244436 0.6875
C_ C_ 0.716374 0.105297 0.211608 -0.11473
C_ C_ 0.953188 0.0930102 0.204597 -0.11473
C_ C_ 0.569864 0.147792 0.260802 -0.02249
C_ C_ 0.810553 0.152204 0.246187 -0.02249
C_ C_ 0.518236 0.0345191 0.262339 -0.02249
C_ C_ 0.76364 0.0349085 0.248234 -0.02249
C_ C_ 0.551285 0.0832745 0.225813 -0.11473
C_ C_ 0.801373 0.084009 0.219388 -0.11473
C_ C_ 0.561296 0.13081 0.299632 -0.11473
C_ C_ 0.787982 0.146008 0.276149 -0.11473
C_ C_ 0.563624 0.122836 0.224615 -0.11473
C_ C_ 0.81661 0.121095 0.216981 -0.11473
C_ C_ 0.538224 0.0712285 0.263586 -0.02249
C_ C_ 0.782179 0.0741092 0.250799 -0.02249
C_ C_ 0.590852 0.184088 0.259699 0.6875
C_ C_ 0.831462 0.189355 0.247572 0.6875
C_ C_ 0.545181 0.0929787 0.300687 -0.11473
C_ C_ 0.776951 0.104179 0.280725 -0.11473
C_ C_ 0.633569 0.221268 0.380364 0.17695
C_ C_ 0.873295 0.209818 0.36911 0.17695
C_ C_ 0.621918 0.293282 0.374427 0.17695
C_ C_ 0.867721 0.282945 0.374171 0.17695
C_ C_ 0.620773 0.297336 0.418561 -0.11473
C_ C_ 0.869687 0.279864 0.417972 -0.11473
C_ C_ 0.62434 0.263527 0.444101 0.23465
C_ C_ 0.870886 0.24222 0.43806 0.23465
C_ C_ 0.63091 0.224479 0.424317 -0.11473
C_ C_ 0.876972 0.20689 0.413076 -0.11473
C_ C_ 0.617797 0.207669 0.12614 0.17695
C_ C_ 0.844528 0.242919 0.121461 0.17695
C_ C_ 0.626771 0.280152 0.122111 0.17695
C_ C_ 0.894976 0.262338 0.120706 0.17695
C_ C_ 0.6305 0.276546 0.078589 -0.11473
C_ C_ 0.894266 0.264762 0.0765 -0.11473
C_ C_ 0.62795 0.237972 0.0596863 0.23465
C_ C_ 0.866019 0.260622 0.0554111 0.23465
C_ C_ 0.620173 0.204305 0.0825437 -0.11473
C_ C_ 0.842092 0.245998 0.0788924 -0.11473
C_ C_ 0.529659 0.494214 0.252027 0.05793
C_ C_ 0.779868 0.4977 0.245816 0.05793
C_ C_ 0.71413 1.00215 0.245276 0.05793
C_ C_ 0.967162 0.998964 0.236293 0.05793
Br Br 0.573065 0.488542 0.250947 -0.17191
Br Br 0.822024 0.49753 0.239471 -0.17191
Br Br 0.671754 0.0087226 0.241058 -0.17191
Br Br 0.923796 -0.004781999999999953 0.233848 -0.17191
N_ N_ 0.628856 0.255595 0.357188 -0.272
N_ N_ 0.87177 0.247725 0.350984 -0.272
N_ N_ 0.626414 0.268242 0.489437 -0.12501
N_ N_ 0.866752 0.236679 0.483194 -0.12501
N_ N_ 0.621359 0.245498 0.145197 -0.272
N_ N_ 0.870013 0.25428 0.142654 -0.272
N_ N_ 0.629537 0.233927 0.0142429 -0.12501
N_ N_ 0.86283 0.264866 0.00937186 -0.12501
O_ O_ 0.588121 0.287967 0.213413 -0.60745
O_ O_ 0.843653 0.297713 0.209213 -0.60745
O_ O_ 0.593204 0.292565 0.281524 -0.60745
O_ O_ 0.84455 0.293271 0.277793 -0.60745
O_ O_ 0.656434 0.293916 0.282174 -0.60745
O_ O_ 0.905401 0.289637 0.282055 -0.60745
O_ O_ 0.650554 0.298192 0.212492 -0.60745
O_ O_ 0.905322 0.292031 0.215686 -0.60745
O_ O_ 0.658706 0.208773 0.287614 -0.60745
O_ O_ 0.902288 0.199387 0.280094 -0.60745
O_ O_ 0.656779 0.210154 0.216606 -0.60745
O_ O_ 0.900868 0.202079 0.21144 -0.60745
O_ O_ 0.597377 0.199144 0.225328 -0.60745
O_ O_ 0.840849 0.202295 0.212055 -0.60745
O_ O_ 0.599507 0.202654 0.292931 -0.60745
O_ O_ 0.839147 0.205448 0.281325 -0.60745
Zn Zn 0.626194 0.252091 0.787363 0.9476
Zn Zn 0.878179 0.256278 0.784237 0.9476
Zn Zn 0.624258 0.256427 0.719117 0.9476
Zn Zn 0.876559 0.258576 0.713752 0.9476
H_ H_ 0.533053 0.416177 0.681674 0.10932
H_ H_ 0.78182 0.419666 0.685848 0.10932
H_ H_ 0.564788 0.35783 0.821134 0.10932
H_ H_ 0.817228 0.35519 0.817699 0.10932
H_ H_ 0.562418 0.353711 0.684189 0.10932
H_ H_ 0.801526 0.348053 0.6842 0.10932
H_ H_ 0.53896 0.424735 0.815135 0.10932
H_ H_ 0.787232 0.424677 0.818394 0.10932
H_ H_ 0.719209 0.414272 0.817481 0.10932
H_ H_ 0.961939 0.430216 0.817076 0.10932
H_ H_ 0.677074 0.364603 0.681128 0.10932
H_ H_ 0.947381 0.350353 0.687571 0.10932
H_ H_ 0.698829 0.346154 0.817143 0.10932
H_ H_ 0.93448 0.363392 0.819477 0.10932
H_ H_ 0.699086 0.432768 0.686348 0.10932
H_ H_ 0.981734 0.411909 0.690238 0.10932
H_ H_ 0.724473 0.0871062 0.814101 0.10932
H_ H_ 0.954283 0.0787927 0.823057 0.10932
H_ H_ 0.684235 0.153764 0.686747 0.10932
H_ H_ 0.942436 0.150775 0.687675 0.10932
H_ H_ 0.693867 0.150413 0.820245 0.10932
H_ H_ 0.92002 0.138891 0.816188 0.10932
H_ H_ 0.712515 0.0843892 0.679429 0.10932
H_ H_ 0.967116 0.0865682 0.690768 0.10932
H_ H_ 0.527525 0.0948174 0.677786 0.10932
H_ H_ 0.773874 0.100874 0.68716 0.10932
H_ H_ 0.565004 0.142486 0.815881 0.10932
H_ H_ 0.83176 0.140116 0.815732 0.10932
H_ H_ 0.560087 0.157964 0.678609 0.10932
H_ H_ 0.801049 0.16695 0.689836 0.10932
H_ H_ 0.542161 0.0740133 0.809219 0.10932
H_ H_ 0.805614 0.0690929 0.813565 0.10932
H_ H_ 0.62095 0.323536 0.860143 0.10932
H_ H_ 0.928055 0.273344 0.857812 0.10932
H_ H_ 0.634948 0.194126 0.863666 0.10932
H_ H_ 0.834982 0.243258 0.858975 0.10932
H_ H_ 0.632612 0.194638 0.939808 0.10932
H_ H_ 0.835789 0.242755 0.936689 0.10932
H_ H_ 0.624835 0.324147 0.937294 0.10932
H_ H_ 0.929816 0.274733 0.932471 0.10932
H_ H_ 0.626927 0.185199 0.649949 0.10932
H_ H_ 0.855116 0.198634 0.636307 0.10932
H_ H_ 0.623522 0.319254 0.63609 0.10932
H_ H_ 0.895674 0.316812 0.640164 0.10932
H_ H_ 0.62738 0.311568 0.556986 0.10932
H_ H_ 0.892982 0.319892 0.564491 0.10932
H_ H_ 0.63073 0.17677 0.574628 0.10932
H_ H_ 0.850013 0.204408 0.558151 0.10932
C_ C_ 0.565553 0.349617 0.752831 -0.02249
C_ C_ 0.817301 0.351493 0.749592 -0.02249
C_ C_ 0.517031 0.467449 0.746349 -0.02249
C_ C_ 0.766025 0.464777 0.752449 -0.02249
C_ C_ 0.541861 0.405781 0.71209 -0.11473
C_ C_ 0.787731 0.403122 0.714248 -0.11473
C_ C_ 0.557228 0.369993 0.791017 -0.11473
C_ C_ 0.809543 0.370054 0.789008 -0.11473
C_ C_ 0.555519 0.366198 0.713834 -0.11473
C_ C_ 0.802571 0.366514 0.712952 -0.11473
C_ C_ 0.534932 0.427692 0.749522 -0.02249
C_ C_ 0.781789 0.423657 0.752271 -0.02249
C_ C_ 0.585134 0.311473 0.752825 0.6875
C_ C_ 0.83655 0.314578 0.748323 0.6875
C_ C_ 0.543611 0.409402 0.787269 -0.11473
C_ C_ 0.791089 0.405143 0.789886 -0.11473
C_ C_ 0.683939 0.349512 0.750568 -0.02249
C_ C_ 0.937225 0.35195 0.751528 -0.02249
C_ C_ 0.734901 0.465595 0.754346 -0.02249
C_ C_ 0.989206 0.467763 0.749721 -0.02249
C_ C_ 0.71192 0.402962 0.788221 -0.11473
C_ C_ 0.958505 0.413769 0.789067 -0.11473
C_ C_ 0.689117 0.373064 0.712328 -0.11473
C_ C_ 0.951044 0.366282 0.715567 -0.11473
C_ C_ 0.699812 0.363588 0.787092 -0.11473
C_ C_ 0.943327 0.374662 0.7899 -0.11473
C_ C_ 0.71473 0.427701 0.751218 -0.02249
C_ C_ 0.969087 0.42924 0.751147 -0.02249
C_ C_ 0.663548 0.313407 0.751046 0.6875
C_ C_ 0.918272 0.314064 0.751549 0.6875
C_ C_ 0.702948 0.412056 0.713108 -0.11473
C_ C_ 0.966226 0.40467 0.713944 -0.11473
C_ C_ 0.685821 0.154959 0.752608 -0.02249
C_ C_ 0.931617 0.154552 0.753303 -0.02249
C_ C_ 0.736848 0.0419603 0.746395 -0.02249
C_ C_ 0.980108 0.0397955 0.760655 -0.02249
C_ C_ 0.71519 0.0990846 0.786353 -0.11473
C_ C_ 0.950845 0.0948675 0.793214 -0.11473
C_ C_ 0.692057 0.138533 0.713089 -0.11473
C_ C_ 0.943604 0.136122 0.716892 -0.11473
C_ C_ 0.696689 0.134468 0.789422 -0.11473
C_ C_ 0.934494 0.131002 0.790353 -0.11473
C_ C_ 0.719725 0.0814148 0.746498 -0.02249
C_ C_ 0.962848 0.0804123 0.756974 -0.02249
C_ C_ 0.66588 0.194862 0.75565 0.6875
C_ C_ 0.911746 0.192252 0.750063 0.6875
C_ C_ 0.707046 0.0998312 0.711287 -0.11473
C_ C_ 0.957412 0.0991411 0.720027 -0.11473
C_ C_ 0.567591 0.155083 0.747238 -0.02249
C_ C_ 0.821541 0.156499 0.751982 -0.02249
C_ C_ 0.517941 0.039185 0.740902 -0.02249
C_ C_ 0.769054 0.0418077 0.747589 -0.02249
C_ C_ 0.538607 0.102727 0.706943 -0.11473
C_ C_ 0.788829 0.1063 0.71328 -0.11473
C_ C_ 0.561801 0.128979 0.784099 -0.11473
C_ C_ 0.819065 0.130488 0.788577 -0.11473
C_ C_ 0.554689 0.140505 0.708204 -0.11473
C_ C_ 0.804008 0.145701 0.716388 -0.11473
C_ C_ 0.533815 0.0795568 0.743285 -0.02249
C_ C_ 0.788039 0.0793055 0.748323 -0.02249
C_ C_ 0.585638 0.193988 0.751686 0.6875
C_ C_ 0.835361 0.198417 0.753925 0.6875
C_ C_ 0.542879 0.0944908 0.782141 -0.11473
C_ C_ 0.804488 0.090483 0.785011 -0.11473
C_ C_ 0.623359 0.295223 0.878199 0.17695
C_ C_ 0.907691 0.26583 0.874109 0.17695
C_ C_ 0.62886 0.223314 0.878923 0.17695
C_ C_ 0.856389 0.249577 0.875111 0.17695
C_ C_ 0.629176 0.222572 0.922976 -0.11473
C_ C_ 0.85588 0.252038 0.92094 -0.11473
C_ C_ 0.623545 0.259944 0.944463 0.23465
C_ C_ 0.88273 0.261627 0.941936 0.23465
C_ C_ 0.623161 0.295663 0.92081 -0.11473
C_ C_ 0.908222 0.268821 0.917802 -0.11473
C_ C_ 0.628854 0.213657 0.629546 0.17695
C_ C_ 0.862745 0.226752 0.618729 0.17695
C_ C_ 0.623418 0.287538 0.622611 0.17695
C_ C_ 0.889101 0.288999 0.622798 0.17695
C_ C_ 0.625991 0.284729 0.577423 -0.11473
C_ C_ 0.889577 0.290271 0.57832 -0.11473
C_ C_ 0.631906 0.244584 0.55895 0.23465
C_ C_ 0.877096 0.259067 0.552907 0.23465
C_ C_ 0.630594 0.208745 0.585548 -0.11473
C_ C_ 0.86188 0.227629 0.575402 -0.11473
C_ C_ 0.531601 0.506119 0.746172 0.05793
C_ C_ 0.782579 0.500945 0.757799 0.05793
C_ C_ 0.721605 0.00403948 0.746017 0.05793
C_ C_ 0.964476 0.0014400000000001079 0.756173 0.05793
Br Br 0.575791 0.506388 0.743249 -0.17191
Br Br 0.824552 0.502045 0.74346 -0.17191
Br Br 0.677063 0.0017137 0.753801 -0.17191
Br Br 0.922033 -0.0016580000000000483 0.752372 -0.17191
N_ N_ 0.625668 0.258677 0.857371 -0.272
N_ N_ 0.880872 0.2616 0.853563 -0.272
N_ N_ 0.620283 0.26225 0.989366 -0.12501
N_ N_ 0.885263 0.258868 0.986638 -0.12501
N_ N_ 0.625301 0.252951 0.64646 -0.272
N_ N_ 0.877301 0.256493 0.641175 -0.272
N_ N_ 0.628612 0.238085 0.514315 -0.12501
N_ N_ 0.875482 0.26428 0.508503 -0.12501
O_ O_ 0.593772 0.296421 0.718383 -0.60745
O_ O_ 0.847616 0.305333 0.71372 -0.60745
O_ O_ 0.594974 0.29547 0.787365 -0.60745
O_ O_ 0.843533 0.295885 0.782813 -0.60745
O_ O_ 0.655306 0.297991 0.785314 -0.60745
O_ O_ 0.905634 0.303965 0.785967 -0.60745
O_ O_ 0.655845 0.295656 0.71734 -0.60745
O_ O_ 0.911014 0.295342 0.717618 -0.60745
O_ O_ 0.660118 0.210435 0.791349 -0.60745
O_ O_ 0.908894 0.211644 0.784315 -0.60745
O_ O_ 0.654991 0.211475 0.723594 -0.60745
O_ O_ 0.904432 0.208557 0.715166 -0.60745
O_ O_ 0.595985 0.211717 0.71886 -0.60745
O_ O_ 0.84308 0.215907 0.719641 -0.60745
O_ O_ 0.595073 0.205957 0.789013 -0.60745
O_ O_ 0.846482 0.211562 0.787198 -0.60745
Zn Zn 0.619475 0.748817 0.281478 0.9476
Zn Zn 0.872744 0.748145 0.279069 0.9476
Zn Zn 0.620412 0.749219 0.212836 0.9476
Zn Zn 0.873484 0.748263 0.209095 0.9476
H_ H_ 0.51622 0.909968 0.196212 0.10932
H_ H_ 0.799984 0.92887 0.189032 0.10932
H_ H_ 0.567838 0.848587 0.323511 0.10932
H_ H_ 0.795264 0.831645 0.310715 0.10932
H_ H_ 0.547657 0.845628 0.19176 0.10932
H_ H_ 0.824709 0.863776 0.186962 0.10932
H_ H_ 0.539792 0.916536 0.32962 0.10932
H_ H_ 0.762796 0.8955 0.309937 0.10932
H_ H_ 0.701144 0.928349 0.31339 0.10932
H_ H_ 0.961 0.919304 0.312658 0.10932
H_ H_ 0.678459 0.85227 0.180489 0.10932
H_ H_ 0.927689 0.858362 0.178193 0.10932
H_ H_ 0.675932 0.858822 0.315071 0.10932
H_ H_ 0.932565 0.853564 0.314051 0.10932
H_ H_ 0.710043 0.916147 0.178909 0.10932
H_ H_ 0.960985 0.920114 0.179145 0.10932
H_ H_ 0.726878 0.593855 0.315017 0.10932
H_ H_ 0.968302 0.58741 0.322054 0.10932
H_ H_ 0.671686 0.637645 0.181138 0.10932
H_ H_ 0.923744 0.634093 0.186702 0.10932
H_ H_ 0.704349 0.661189 0.312963 0.10932
H_ H_ 0.939064 0.650295 0.321105 0.10932
H_ H_ 0.69716 0.573499 0.184292 0.10932
H_ H_ 0.950441 0.566452 0.190673 0.10932
H_ H_ 0.53857 0.568651 0.182944 0.10932
H_ H_ 0.774612 0.578599 0.181686 0.10932
H_ H_ 0.564811 0.645161 0.31436 0.10932
H_ H_ 0.819996 0.64103 0.312087 0.10932
H_ H_ 0.562862 0.635598 0.179573 0.10932
H_ H_ 0.801949 0.647551 0.176606 0.10932
H_ H_ 0.542397 0.577041 0.317634 0.10932
H_ H_ 0.796295 0.569067 0.313218 0.10932
H_ H_ 0.615381 0.683065 0.352357 0.10932
H_ H_ 0.82473 0.743579 0.345385 0.10932
H_ H_ 0.618961 0.811885 0.357233 0.10932
H_ H_ 0.915176 0.764415 0.352512 0.10932
H_ H_ 0.622104 0.810618 0.435057 0.10932
H_ H_ 0.916063 0.748848 0.431092 0.10932
H_ H_ 0.619661 0.6813 0.431643 0.10932
H_ H_ 0.820017 0.736535 0.424956 0.10932
H_ H_ 0.575447 0.76737 0.136938 0.10932
H_ H_ 0.842157 0.699416 0.126923 0.10932
H_ H_ 0.666723 0.7315 0.138753 0.10932
H_ H_ 0.899076 0.806965 0.140108 0.10932
H_ H_ 0.667241 0.731733 0.0654566 0.10932
H_ H_ 0.897049 0.817593 0.0640695 0.10932
H_ H_ 0.571756 0.756753 0.0603331 0.10932
H_ H_ 0.847952 0.705428 0.0495248 0.10932
C_ C_ 0.560688 0.843145 0.257353 -0.02249
C_ C_ 0.809412 0.842273 0.246051 -0.02249
C_ C_ 0.513571 0.957072 0.265447 -0.02249
C_ C_ 0.761342 0.959566 0.251345 -0.02249
C_ C_ 0.52857 0.898113 0.224947 -0.11473
C_ C_ 0.796726 0.909191 0.214118 -0.11473
C_ C_ 0.558081 0.862231 0.297324 -0.11473
C_ C_ 0.79528 0.853183 0.282734 -0.11473
C_ C_ 0.546614 0.862058 0.222431 -0.11473
C_ C_ 0.809134 0.869136 0.211508 -0.11473
C_ C_ 0.526534 0.916295 0.265012 -0.02249
C_ C_ 0.777734 0.918181 0.248137 -0.02249
C_ C_ 0.578658 0.804627 0.252838 0.6875
C_ C_ 0.830304 0.804977 0.246891 0.6875
C_ C_ 0.542022 0.89998 0.300355 -0.11473
C_ C_ 0.777734 0.890029 0.281788 -0.11473
C_ C_ 0.677204 0.84772 0.248309 -0.02249
C_ C_ 0.929718 0.848538 0.246465 -0.02249
C_ C_ 0.728478 0.962886 0.245647 -0.02249
C_ C_ 0.982368 0.96109 0.24604 -0.02249
C_ C_ 0.70004 0.909358 0.283677 -0.11473
C_ C_ 0.956294 0.904528 0.283958 -0.11473
C_ C_ 0.685664 0.866149 0.209381 -0.11473
C_ C_ 0.936391 0.869088 0.208522 -0.11473
C_ C_ 0.684395 0.871506 0.284853 -0.11473
C_ C_ 0.93921 0.866623 0.28351 -0.11473
C_ C_ 0.710597 0.923737 0.245568 -0.02249
C_ C_ 0.965302 0.922474 0.245363 -0.02249
C_ C_ 0.656634 0.810173 0.251286 0.6875
C_ C_ 0.909013 0.811771 0.245458 0.6875
C_ C_ 0.705713 0.901016 0.209306 -0.11473
C_ C_ 0.955794 0.904071 0.208485 -0.11473
C_ C_ 0.685577 0.656596 0.248232 -0.02249
C_ C_ 0.930041 0.648932 0.252451 -0.02249
C_ C_ 0.731899 0.537811 0.248579 -0.02249
C_ C_ 0.980563 0.535033 0.256544 -0.02249
C_ C_ 0.715477 0.602797 0.284573 -0.11473
C_ C_ 0.959296 0.599508 0.291235 -0.11473
C_ C_ 0.684641 0.629832 0.211919 -0.11473
C_ C_ 0.934757 0.623632 0.215752 -0.11473
C_ C_ 0.703008 0.642123 0.284448 -0.11473
C_ C_ 0.942505 0.636168 0.290644 -0.11473
C_ C_ 0.715218 0.578116 0.247965 -0.02249
C_ C_ 0.961249 0.573132 0.257175 -0.02249
C_ C_ 0.664285 0.692886 0.248047 0.6875
C_ C_ 0.914751 0.690441 0.24886 0.6875
C_ C_ 0.700336 0.592847 0.211624 -0.11473
C_ C_ 0.95005 0.586136 0.218416 -0.11473
C_ C_ 0.564841 0.648328 0.245043 -0.02249
C_ C_ 0.818566 0.645101 0.244651 -0.02249
C_ C_ 0.516852 0.533239 0.253901 -0.02249
C_ C_ 0.764226 0.536772 0.249283 -0.02249
C_ C_ 0.544065 0.58594 0.210929 -0.11473
C_ C_ 0.78405 0.595314 0.210404 -0.11473
C_ C_ 0.56196 0.629186 0.284935 -0.11473
C_ C_ 0.814009 0.624449 0.282927 -0.11473
C_ C_ 0.556548 0.624822 0.209192 -0.11473
C_ C_ 0.801561 0.631901 0.208477 -0.11473
C_ C_ 0.536439 0.569616 0.250978 -0.02249
C_ C_ 0.783 0.574072 0.246659 -0.02249
C_ C_ 0.583317 0.6872 0.24282 0.6875
C_ C_ 0.837694 0.683706 0.243763 0.6875
C_ C_ 0.546847 0.590735 0.288146 -0.11473
C_ C_ 0.797974 0.587284 0.283303 -0.11473
C_ C_ 0.620118 0.710816 0.371123 0.17695
C_ C_ 0.843528 0.743893 0.365847 0.17695
C_ C_ 0.622412 0.783126 0.373784 0.17695
C_ C_ 0.896582 0.754493 0.370453 0.17695
C_ C_ 0.619808 0.783324 0.417348 -0.11473
C_ C_ 0.895146 0.749998 0.413426 -0.11473
C_ C_ 0.618401 0.746439 0.43995 0.23465
C_ C_ 0.866988 0.745817 0.434696 0.23465
C_ C_ 0.620215 0.709888 0.416267 -0.11473
C_ C_ 0.841044 0.743066 0.410016 -0.11473
C_ C_ 0.59498 0.758149 0.120742 0.17695
C_ C_ 0.857961 0.723174 0.113179 0.17695
C_ C_ 0.646448 0.737192 0.122671 0.17695
C_ C_ 0.887019 0.784655 0.120289 0.17695
C_ C_ 0.646197 0.736284 0.0791455 -0.11473
C_ C_ 0.888057 0.789358 0.0767522 -0.11473
C_ C_ 0.619582 0.744437 0.0551103 0.23465
C_ C_ 0.877502 0.757155 0.0512404 0.23465
C_ C_ 0.593377 0.754546 0.0769516 -0.11473
C_ C_ 0.86205 0.7249 0.0698371 -0.11473
C_ C_ 0.531914 0.99348 0.259453 0.05793
C_ C_ 0.778089 0.996649 0.25321 0.05793
C_ C_ 0.715955 0.499695 0.250182 0.05793
C_ C_ 0.966669 0.495717 0.260717 0.05793
Br Br 0.576063 0.989657 0.253686 -0.17191
Br Br 0.820567 0.994534 0.263862 -0.17191
Br Br 0.672777 0.501449 0.254568 -0.17191
Br Br 0.932156 0.492503 0.297271 -0.17191
N_ N_ 0.621305 0.74746 0.351524 -0.272
N_ N_ 0.870856 0.747257 0.348094 -0.272
N_ N_ 0.616139 0.746154 0.48428 -0.12501
N_ N_ 0.864716 0.741704 0.481804 -0.12501
N_ N_ 0.620639 0.748544 0.142902 -0.272
N_ N_ 0.872926 0.750929 0.137994 -0.272
N_ N_ 0.616817 0.738068 0.0112004 -0.12501
N_ N_ 0.879437 0.761995 0.00737759 -0.12501
O_ O_ 0.592614 0.796384 0.219143 -0.60745
O_ O_ 0.840985 0.792657 0.213196 -0.60745
O_ O_ 0.585016 0.783701 0.284872 -0.60745
O_ O_ 0.838169 0.789387 0.27999 -0.60745
O_ O_ 0.647757 0.796756 0.28662 -0.60745
O_ O_ 0.897503 0.79777 0.279003 -0.60745
O_ O_ 0.651821 0.789394 0.217815 -0.60745
O_ O_ 0.906686 0.790133 0.211413 -0.60745
O_ O_ 0.654624 0.709363 0.281417 -0.60745
O_ O_ 0.910406 0.713355 0.280989 -0.60745
O_ O_ 0.651561 0.705288 0.214736 -0.60745
O_ O_ 0.904698 0.70252 0.213089 -0.60745
O_ O_ 0.591288 0.702939 0.208192 -0.60745
O_ O_ 0.842368 0.704858 0.209493 -0.60745
O_ O_ 0.592282 0.701702 0.277107 -0.60745
O_ O_ 0.845781 0.698573 0.278638 -0.60745
Zn Zn 0.629093 0.754851 0.782753 0.9476
Zn Zn 0.875969 0.751471 0.779357 0.9476
Zn Zn 0.629439 0.749696 0.712062 0.9476
Zn Zn 0.874114 0.750627 0.708829 0.9476
H_ H_ 0.544013 0.921438 0.677243 0.10932
H_ H_ 0.789261 0.92906 0.677613 0.10932
H_ H_ 0.551849 0.844338 0.806617 0.10932
H_ H_ 0.806987 0.845134 0.807517 0.10932
H_ H_ 0.57853 0.861232 0.681178 0.10932
H_ H_ 0.820161 0.864577 0.674442 0.10932
H_ H_ 0.528059 0.910941 0.8062 0.10932
H_ H_ 0.782653 0.914093 0.811907 0.10932
H_ H_ 0.71936 0.924692 0.814926 0.10932
H_ H_ 0.949171 0.927429 0.811082 0.10932
H_ H_ 0.69178 0.851307 0.685808 0.10932
H_ H_ 0.953534 0.839568 0.68123 0.10932
H_ H_ 0.693115 0.858436 0.818246 0.10932
H_ H_ 0.924768 0.855742 0.808941 0.10932
H_ H_ 0.711793 0.925522 0.682474 0.10932
H_ H_ 0.970947 0.914774 0.68107 0.10932
H_ H_ 0.724859 0.596527 0.821406 0.10932
H_ H_ 0.962667 0.579536 0.81754 0.10932
H_ H_ 0.684266 0.641303 0.684722 0.10932
H_ H_ 0.953849 0.661977 0.688243 0.10932
H_ H_ 0.689305 0.658572 0.818139 0.10932
H_ H_ 0.923838 0.633787 0.811019 0.10932
H_ H_ 0.714995 0.57635 0.692641 0.10932
H_ H_ 0.984137 0.599725 0.689416 0.10932
H_ H_ 0.537887 0.583485 0.678902 0.10932
H_ H_ 0.776375 0.585236 0.688456 0.10932
H_ H_ 0.561342 0.653517 0.813624 0.10932
H_ H_ 0.824664 0.649921 0.813456 0.10932
H_ H_ 0.572628 0.642913 0.680432 0.10932
H_ H_ 0.804106 0.649867 0.681611 0.10932
H_ H_ 0.53224 0.5896 0.814125 0.10932
H_ H_ 0.80147 0.58053 0.821336 0.10932
H_ H_ 0.676368 0.735238 0.858365 0.10932
H_ H_ 0.872 0.684445 0.848583 0.10932
H_ H_ 0.581609 0.757355 0.859765 0.10932
H_ H_ 0.88168 0.812937 0.864355 0.10932
H_ H_ 0.58385 0.737826 0.93437 0.10932
H_ H_ 0.882061 0.802922 0.938012 0.10932
H_ H_ 0.679947 0.748197 0.93413 0.10932
H_ H_ 0.874936 0.676587 0.927215 0.10932
H_ H_ 0.630097 0.695552 0.636083 0.10932
H_ H_ 0.878464 0.818884 0.636166 0.10932
H_ H_ 0.624093 0.823315 0.64434 0.10932
H_ H_ 0.871543 0.688267 0.630928 0.10932
H_ H_ 0.626405 0.829766 0.564267 0.10932
H_ H_ 0.875177 0.688433 0.555082 0.10932
H_ H_ 0.633054 0.696883 0.560475 0.10932
H_ H_ 0.880242 0.822048 0.561146 0.10932
C_ C_ 0.568658 0.847178 0.744079 -0.02249
C_ C_ 0.81549 0.849416 0.741234 -0.02249
C_ C_ 0.518025 0.962195 0.742438 -0.02249
C_ C_ 0.767761 0.966157 0.746502 -0.02249
C_ C_ 0.55028 0.908293 0.707796 -0.11473
C_ C_ 0.790972 0.909079 0.705331 -0.11473
C_ C_ 0.551615 0.859772 0.77769 -0.11473
C_ C_ 0.803575 0.864066 0.779968 -0.11473
C_ C_ 0.568062 0.872105 0.708755 -0.11473
C_ C_ 0.810148 0.872719 0.704022 -0.11473
C_ C_ 0.536072 0.922535 0.743242 -0.02249
C_ C_ 0.785473 0.926239 0.744332 -0.02249
C_ C_ 0.587681 0.808867 0.748461 0.6875
C_ C_ 0.836615 0.813936 0.741915 0.6875
C_ C_ 0.539415 0.899552 0.779772 -0.11473
C_ C_ 0.790382 0.902926 0.781877 -0.11473
C_ C_ 0.689563 0.850987 0.752224 -0.02249
C_ C_ 0.93725 0.844489 0.744543 -0.02249
C_ C_ 0.736716 0.966794 0.74318 -0.02249
C_ C_ 0.980656 0.963369 0.752686 -0.02249
C_ C_ 0.714428 0.908901 0.786936 -0.11473
C_ C_ 0.95112 0.907464 0.782931 -0.11473
C_ C_ 0.694973 0.870414 0.71304 -0.11473
C_ C_ 0.953276 0.859099 0.708103 -0.11473
C_ C_ 0.700663 0.869554 0.788876 -0.11473
C_ C_ 0.936993 0.868238 0.781651 -0.11473
C_ C_ 0.720516 0.927787 0.747125 -0.02249
C_ C_ 0.963539 0.92269 0.747606 -0.02249
C_ C_ 0.667089 0.814723 0.753914 0.6875
C_ C_ 0.915726 0.807574 0.744307 0.6875
C_ C_ 0.709687 0.908332 0.711167 -0.11473
C_ C_ 0.963192 0.899619 0.708393 -0.11473
C_ C_ 0.687882 0.654456 0.750736 -0.02249
C_ C_ 0.933413 0.652121 0.749572 -0.02249
C_ C_ 0.737395 0.541701 0.761901 -0.02249
C_ C_ 0.99059 0.543276 0.750411 -0.02249
C_ C_ 0.712397 0.603306 0.793559 -0.11473
C_ C_ 0.957607 0.594483 0.78738 -0.11473
C_ C_ 0.693968 0.630774 0.715378 -0.11473
C_ C_ 0.950504 0.641366 0.713188 -0.11473
C_ C_ 0.69509 0.640105 0.791472 -0.11473
C_ C_ 0.93921 0.629488 0.786265 -0.11473
C_ C_ 0.720327 0.581248 0.758961 -0.02249
C_ C_ 0.972587 0.583325 0.75141 -0.02249
C_ C_ 0.66941 0.69397 0.748362 0.6875
C_ C_ 0.915655 0.692373 0.748658 0.6875
C_ C_ 0.709056 0.59317 0.71966 -0.11473
C_ C_ 0.971484 0.609394 0.717138 -0.11473
C_ C_ 0.570426 0.651801 0.748113 -0.02249
C_ C_ 0.815903 0.656051 0.746574 -0.02249
C_ C_ 0.515286 0.541955 0.743374 -0.02249
C_ C_ 0.768482 0.539932 0.759742 -0.02249
C_ C_ 0.541528 0.599391 0.707716 -0.11473
C_ C_ 0.787221 0.598241 0.716726 -0.11473
C_ C_ 0.558796 0.635357 0.784718 -0.11473
C_ C_ 0.816198 0.634628 0.786445 -0.11473
C_ C_ 0.562318 0.632244 0.708807 -0.11473
C_ C_ 0.803288 0.636587 0.712541 -0.11473
C_ C_ 0.53266 0.581209 0.745787 -0.02249
C_ C_ 0.785061 0.578866 0.756524 -0.02249
C_ C_ 0.589494 0.690001 0.745401 0.6875
C_ C_ 0.832632 0.696341 0.74272 0.6875
C_ C_ 0.540197 0.600925 0.785228 -0.11473
C_ C_ 0.799047 0.597438 0.791306 -0.11473
C_ C_ 0.656798 0.746427 0.874719 0.17695
C_ C_ 0.876382 0.710074 0.869079 0.17695
C_ C_ 0.60361 0.75236 0.875135 0.17695
C_ C_ 0.881037 0.782101 0.875184 0.17695
C_ C_ 0.603553 0.748176 0.919095 -0.11473
C_ C_ 0.879953 0.776855 0.919711 -0.11473
C_ C_ 0.631964 0.749065 0.941462 0.23465
C_ C_ 0.877057 0.738955 0.936995 0.23465
C_ C_ 0.658363 0.753965 0.918374 -0.11473
C_ C_ 0.878344 0.705412 0.912226 -0.11473
C_ C_ 0.626833 0.72447 0.620285 0.17695
C_ C_ 0.875188 0.790357 0.618444 0.17695
C_ C_ 0.62794 0.79733 0.624201 0.17695
C_ C_ 0.873658 0.717002 0.615537 0.17695
C_ C_ 0.627951 0.800682 0.57895 -0.11473
C_ C_ 0.876762 0.717474 0.572572 -0.11473
C_ C_ 0.630524 0.763999 0.554903 0.23465
C_ C_ 0.878327 0.755563 0.551198 0.23465
C_ C_ 0.627138 0.7256 0.576189 -0.11473
C_ C_ 0.876992 0.79291 0.575713 -0.11473
C_ C_ 0.533231 0.00164648 0.73849 0.05793
C_ C_ 0.784534 0.00326841 0.746583 0.05793
C_ C_ 0.720704 0.503696 0.759662 0.05793
C_ C_ 0.974769 0.506509 0.742653 0.05793
Br Br 0.577339 -0.0015579999999999483 0.735946 -0.17191
Br Br 0.827737 0.997414 0.745828 -0.17191
Br Br 0.677463 0.506062 0.764614 -0.17191
Br Br 0.935068 0.506465 0.715249 -0.17191
N_ N_ 0.629964 0.751524 0.853626 -0.272
N_ N_ 0.879655 0.746978 0.851453 -0.272
N_ N_ 0.634335 0.755469 0.986475 -0.12501
N_ N_ 0.878287 0.732532 0.982652 -0.12501
N_ N_ 0.628074 0.759998 0.642969 -0.272
N_ N_ 0.872853 0.753017 0.637567 -0.272
N_ N_ 0.631897 0.767492 0.508569 -0.12501
N_ N_ 0.882578 0.758413 0.507234 -0.12501
O_ O_ 0.596729 0.792826 0.714557 -0.60745
O_ O_ 0.842658 0.795363 0.707347 -0.60745
O_ O_ 0.599582 0.799296 0.7847 -0.60745
O_ O_ 0.846247 0.799035 0.776346 -0.60745
O_ O_ 0.66077 0.798103 0.787871 -0.60745
O_ O_ 0.909903 0.788259 0.778252 -0.60745
O_ O_ 0.65999 0.798109 0.719104 -0.60745
O_ O_ 0.904644 0.79528 0.70968 -0.60745
O_ O_ 0.656567 0.708838 0.780711 -0.60745
O_ O_ 0.90371 0.706209 0.781147 -0.60745
O_ O_ 0.663344 0.710853 0.713254 -0.60745
O_ O_ 0.906586 0.70522 0.713252 -0.60745
O_ O_ 0.600279 0.700337 0.710273 -0.60745
O_ O_ 0.843312 0.707725 0.707512 -0.60745
O_ O_ 0.594243 0.713179 0.778192 -0.60745
O_ O_ 0.842005 0.71383 0.775075 -0.60745
_cell_length_a 44.444
_cell_length_b 32.3360000049186
_cell_length_c 31.843999878906452
_cell_angle_alpha 89.99799923859553
_cell_angle_beta 91.13600050494348
_cell_angle_gamma 89.9990006550086
_symmetry_space_group_name_H-M         'P 1'
_symmetry_Int_Tables_number            1
loop_
_symmetry_equiv_pos_as_xyz
   'x, y, z'
                         
loop_
_atom_site_label
_atom_site_type_symbol
_atom_site_fract_x 
_atom_site_fract_y
_atom_site_fract_z
_atom_site_charge
Zn Zn 0.127541 0.24661 0.288865 0.9476
Zn Zn 0.374516 0.245926 0.281721 0.9476
Zn Zn 0.126358 0.248194 0.219932 0.9476
Zn Zn 0.373732 0.24433 0.210897 0.9476
H_ H_ 0.0239737 0.401343 0.183705 0.10932
H_ H_ 0.274624 0.405904 0.177747 0.10932
H_ H_ 0.0799237 0.369489 0.312755 0.10932
H_ H_ 0.323948 0.358939 0.307748 0.10932
H_ H_ 0.0482922 0.335735 0.191596 0.10932
H_ H_ 0.297291 0.336083 0.179913 0.10932
H_ H_ 0.0457211 0.428944 0.313783 0.10932
H_ H_ 0.2977 0.423851 0.305274 0.10932
H_ H_ 0.218402 0.417617 0.320146 0.10932
H_ H_ 0.449759 0.422923 0.313636 0.10932
H_ H_ 0.190545 0.3375 0.188901 0.10932
H_ H_ 0.438796 0.347412 0.180928 0.10932
H_ H_ 0.1843 0.352658 0.322011 0.10932
H_ H_ 0.417369 0.361468 0.307843 0.10932
H_ H_ 0.217489 0.405269 0.184534 0.10932
H_ H_ 0.469728 0.410864 0.181486 0.10932
H_ H_ 0.222277 0.0833439 0.322147 0.10932
H_ H_ 0.473112 0.0961805 0.328115 0.10932
H_ H_ 0.183409 0.140357 0.188859 0.10932
H_ H_ 0.426021 0.124957 0.187756 0.10932
H_ H_ 0.201969 0.156026 0.319794 0.10932
H_ H_ 0.446561 0.16317 0.315685 0.10932
H_ H_ 0.214109 0.0812483 0.185887 0.10932
H_ H_ 0.464628 0.0697754 0.194407 0.10932
H_ H_ 0.0220853 0.0928486 0.183405 0.10932
H_ H_ 0.273496 0.0865519 0.185085 0.10932
H_ H_ 0.0607275 0.142561 0.32044 0.10932
H_ H_ 0.313536 0.14908 0.317085 0.10932
H_ H_ 0.052074 0.160597 0.187045 0.10932
H_ H_ 0.305797 0.147685 0.181773 0.10932
H_ H_ 0.0351428 0.0763746 0.314494 0.10932
H_ H_ 0.286254 0.0837864 0.317852 0.10932
H_ H_ 0.122364 0.308486 0.362093 0.10932
H_ H_ 0.357222 0.31605 0.34764 0.10932
H_ H_ 0.134829 0.182371 0.364043 0.10932
H_ H_ 0.382255 0.191562 0.358706 0.10932
H_ H_ 0.129254 0.182122 0.441881 0.10932
H_ H_ 0.374023 0.193398 0.436691 0.10932
H_ H_ 0.125197 0.313736 0.440909 0.10932
H_ H_ 0.35015 0.320725 0.424157 0.10932
H_ H_ 0.133499 0.310837 0.140732 0.10932
H_ H_ 0.421174 0.252586 0.132608 0.10932
H_ H_ 0.129685 0.179803 0.14982 0.10932
H_ H_ 0.326832 0.233989 0.141365 0.10932
H_ H_ 0.125862 0.172506 0.071886 0.10932
H_ H_ 0.320574 0.23744 0.0659468 0.10932
H_ H_ 0.133709 0.304337 0.0617734 0.10932
H_ H_ 0.41627 0.253839 0.0527256 0.10932
C_ C_ 0.0649682 0.345166 0.255167 -0.02249
C_ C_ 0.315825 0.342301 0.242722 -0.02249
C_ C_ 0.0129861 0.459208 0.247333 -0.02249
C_ C_ 0.267186 0.460545 0.243299 -0.02249
C_ C_ 0.0330914 0.393905 0.214293 -0.11473
C_ C_ 0.285148 0.395077 0.204867 -0.11473
C_ C_ 0.0650476 0.37433 0.287917 -0.11473
C_ C_ 0.311444 0.365784 0.279856 -0.11473
C_ C_ 0.049148 0.356529 0.218881 -0.11473
C_ C_ 0.29971 0.356862 0.205347 -0.11473
C_ C_ 0.03009 0.419998 0.250397 -0.02249
C_ C_ 0.285033 0.420259 0.24192 -0.02249
C_ C_ 0.0865983 0.307996 0.254167 0.6875
C_ C_ 0.334211 0.303254 0.242222 0.6875
C_ C_ 0.0467352 0.410356 0.286115 -0.11473
C_ C_ 0.298759 0.40538 0.277805 -0.11473
C_ C_ 0.186305 0.34203 0.25819 -0.02249
C_ C_ 0.431705 0.346398 0.24598 -0.02249
C_ C_ 0.235993 0.456955 0.25108 -0.02249
C_ C_ 0.479359 0.462254 0.253265 -0.02249
C_ C_ 0.209095 0.402194 0.290898 -0.11473
C_ C_ 0.449765 0.4058 0.284933 -0.11473
C_ C_ 0.196236 0.355883 0.217985 -0.11473
C_ C_ 0.444612 0.362491 0.21006 -0.11473
C_ C_ 0.189829 0.368488 0.293232 -0.11473
C_ C_ 0.433988 0.369437 0.282443 -0.11473
C_ C_ 0.219167 0.415338 0.252421 -0.02249
C_ C_ 0.461116 0.423285 0.249531 -0.02249
C_ C_ 0.164902 0.305484 0.257585 0.6875
C_ C_ 0.413437 0.307075 0.247225 0.6875
C_ C_ 0.213151 0.392126 0.214917 -0.11473
C_ C_ 0.457554 0.401447 0.209522 -0.11473
C_ C_ 0.18519 0.148933 0.255843 -0.02249
C_ C_ 0.433642 0.148088 0.252442 -0.02249
C_ C_ 0.233101 0.033793 0.255077 -0.02249
C_ C_ 0.486738 0.0374431 0.266455 -0.02249
C_ C_ 0.215785 0.0980538 0.292664 -0.11473
C_ C_ 0.46765 0.104938 0.297003 -0.11473
C_ C_ 0.191784 0.128375 0.217896 -0.11473
C_ C_ 0.438729 0.121022 0.218351 -0.11473
C_ C_ 0.199498 0.135121 0.292167 -0.11473
C_ C_ 0.450455 0.141972 0.289929 -0.11473
C_ C_ 0.216125 0.0732821 0.254485 -0.02249
C_ C_ 0.47244 0.079332 0.261992 -0.02249
C_ C_ 0.166418 0.187254 0.25821 0.6875
C_ C_ 0.412579 0.184426 0.250618 0.6875
C_ C_ 0.206269 0.0908914 0.216712 -0.11473
C_ C_ 0.460167 0.0895691 0.221162 -0.11473
C_ C_ 0.0638246 0.151415 0.252617 -0.02249
C_ C_ 0.314792 0.150458 0.24842 -0.02249
C_ C_ 0.0137537 0.0377614 0.246331 -0.02249
C_ C_ 0.26452 0.0354815 0.254598 -0.02249
C_ C_ 0.0347624 0.101005 0.211423 -0.11473
C_ C_ 0.284523 0.0964597 0.211979 -0.11473
C_ C_ 0.0553118 0.129742 0.289284 -0.11473
C_ C_ 0.306083 0.134556 0.286684 -0.11473
C_ C_ 0.0514572 0.139185 0.213508 -0.11473
C_ C_ 0.30181 0.132783 0.210591 -0.11473
C_ C_ 0.0307913 0.0766679 0.246869 -0.02249
C_ C_ 0.281396 0.0760128 0.250448 -0.02249
C_ C_ 0.0846461 0.188111 0.253329 0.6875
C_ C_ 0.336039 0.184849 0.246728 0.6875
C_ C_ 0.0392809 0.0931984 0.286807 -0.11473
C_ C_ 0.291357 0.0958334 0.287467 -0.11473
C_ C_ 0.125726 0.281199 0.380064 0.17695
C_ C_ 0.360483 0.289462 0.367966 0.17695
C_ C_ 0.127689 0.21038 0.381667 0.17695
C_ C_ 0.373583 0.217954 0.374885 0.17695
C_ C_ 0.127088 0.210012 0.424972 -0.11473
C_ C_ 0.373547 0.222204 0.418897 -0.11473
C_ C_ 0.127865 0.247064 0.44798 0.23465
C_ C_ 0.364558 0.259154 0.437036 0.23465
C_ C_ 0.127817 0.284197 0.425511 -0.11473
C_ C_ 0.356622 0.292664 0.410346 -0.11473
C_ C_ 0.133069 0.279883 0.125241 0.17695
C_ C_ 0.39928 0.248324 0.117859 0.17695
C_ C_ 0.126727 0.207932 0.130738 0.17695
C_ C_ 0.347686 0.231529 0.123222 0.17695
C_ C_ 0.123791 0.203944 0.0861435 -0.11473
C_ C_ 0.34372 0.233734 0.0798816 -0.11473
C_ C_ 0.125613 0.237949 0.0620066 0.23465
C_ C_ 0.368375 0.24083 0.0535484 0.23465
C_ C_ 0.131257 0.277458 0.0820384 -0.11473
C_ C_ 0.397382 0.245961 0.0724572 -0.11473
C_ C_ 0.0269418 0.49712 0.241921 0.05793
C_ C_ 0.281732 0.500204 0.239384 0.05793
C_ C_ 0.218311 -0.0041160000000000085 0.252128 0.05793
C_ C_ 0.468668 1.000586613 0.267001 0.05793
Br Br 0.0675297 0.497509 0.220039 -0.17191
Br Br 0.32152 0.502774 0.218997 -0.17191
Br Br 0.175588 -0.0031130000000000324 0.255448 -0.17191
Br Br 0.425349 1.0075566 0.278761 -0.17191
N_ N_ 0.12604 0.245295 0.359535 -0.272
N_ N_ 0.370865 0.253084 0.350527 -0.272
N_ N_ 0.132907 0.24702 0.492162 -0.12501
N_ N_ 0.36444 0.264129 0.48246 -0.12501
N_ N_ 0.129364 0.245629 0.149154 -0.272
N_ N_ 0.374413 0.240399 0.141873 -0.272
N_ N_ 0.128739 0.232637 0.0172124 -0.12501
N_ N_ 0.364505 0.240593 0.0087474 -0.12501
O_ O_ 0.0911316 0.287776 0.220304 -0.60745
O_ O_ 0.343057 0.287975 0.207628 -0.60745
O_ O_ 0.099041 0.295796 0.287267 -0.60745
O_ O_ 0.341176 0.286735 0.276172 -0.60745
O_ O_ 0.161657 0.283692 0.28964 -0.60745
O_ O_ 0.402989 0.292421 0.281755 -0.60745
O_ O_ 0.152699 0.294022 0.223646 -0.60745
O_ O_ 0.406028 0.290437 0.212956 -0.60745
O_ O_ 0.154304 0.197017 0.29299 -0.60745
O_ O_ 0.407852 0.204114 0.285483 -0.60745
O_ O_ 0.15777 0.207273 0.224384 -0.60745
O_ O_ 0.405381 0.200948 0.217034 -0.60745
O_ O_ 0.0968893 0.201134 0.218427 -0.60745
O_ O_ 0.343483 0.200154 0.211008 -0.60745
O_ O_ 0.0925107 0.205848 0.287468 -0.60745
O_ O_ 0.346377 0.199063 0.282374 -0.60745
Zn Zn 0.127742 0.244985 0.788236 0.9476
Zn Zn 0.377745 0.25113 0.778734 0.9476
Zn Zn 0.124361 0.245411 0.71816 0.9476
Zn Zn 0.375233 0.250183 0.707899 0.9476
H_ H_ 0.0416524 0.426135 0.686723 0.10932
H_ H_ 0.289584 0.422555 0.676889 0.10932
H_ H_ 0.0623866 0.345097 0.819537 0.10932
H_ H_ 0.313185 0.346649 0.812114 0.10932
H_ H_ 0.0669528 0.356103 0.684229 0.10932
H_ H_ 0.320388 0.362861 0.672829 0.10932
H_ H_ 0.0289239 0.410197 0.818679 0.10932
H_ H_ 0.283205 0.411626 0.812347 0.10932
H_ H_ 0.224571 0.410059 0.812015 0.10932
H_ H_ 0.472477 0.411186 0.81555 0.10932
H_ H_ 0.171714 0.363521 0.686035 0.10932
H_ H_ 0.445514 0.353128 0.677842 0.10932
H_ H_ 0.198387 0.345266 0.814129 0.10932
H_ H_ 0.445026 0.345975 0.809806 0.10932
H_ H_ 0.202988 0.425998 0.682626 0.10932
H_ H_ 0.47196 0.418335 0.684649 0.10932
H_ H_ 0.225969 0.0845787 0.813382 0.10932
H_ H_ 0.462708 0.0868656 0.816011 0.10932
H_ H_ 0.170641 0.133837 0.691374 0.10932
H_ H_ 0.43183 0.139094 0.677219 0.10932
H_ H_ 0.20509 0.157609 0.815842 0.10932
H_ H_ 0.43376 0.149265 0.812195 0.10932
H_ H_ 0.208916 0.0776114 0.685877 0.10932
H_ H_ 0.464778 0.0766865 0.682772 0.10932
H_ H_ 0.0357368 0.0720844 0.690858 0.10932
H_ H_ 0.279793 0.0873221 0.683041 0.10932
H_ H_ 0.0567008 0.155114 0.821152 0.10932
H_ H_ 0.318397 0.146377 0.816638 0.10932
H_ H_ 0.0696328 0.135526 0.689373 0.10932
H_ H_ 0.305594 0.155949 0.679709 0.10932
H_ H_ 0.0199103 0.0980149 0.822171 0.10932
H_ H_ 0.293755 0.0801388 0.814867 0.10932
H_ H_ 0.13024 0.311543 0.854836 0.10932
H_ H_ 0.397701 0.313649 0.856158 0.10932
H_ H_ 0.127729 0.184576 0.870654 0.10932
H_ H_ 0.355429 0.193987 0.857119 0.10932
H_ H_ 0.131616 0.189558 0.947749 0.10932
H_ H_ 0.357398 0.194653 0.93265 0.10932
H_ H_ 0.130276 0.321476 0.934778 0.10932
H_ H_ 0.40459 0.30911 0.936271 0.10932
H_ H_ 0.0752305 0.245503 0.650766 0.10932
H_ H_ 0.362504 0.185795 0.641805 0.10932
H_ H_ 0.167657 0.24593 0.641082 0.10932
H_ H_ 0.37779 0.316134 0.629892 0.10932
H_ H_ 0.165534 0.24229 0.563698 0.10932
H_ H_ 0.374417 0.30691 0.552277 0.10932
H_ H_ 0.0666485 0.24133 0.573005 0.10932
H_ H_ 0.358073 0.17726 0.565622 0.10932
C_ C_ 0.0667416 0.345289 0.751328 -0.02249
C_ C_ 0.317116 0.346913 0.742379 -0.02249
C_ C_ 0.0204387 0.465782 0.753116 -0.02249
C_ C_ 0.267779 0.462627 0.74972 -0.02249
C_ C_ 0.0481596 0.408963 0.715474 -0.11473
C_ C_ 0.293113 0.406834 0.705965 -0.11473
C_ C_ 0.0559045 0.361445 0.789983 -0.11473
C_ C_ 0.307911 0.364087 0.781042 -0.11473
C_ C_ 0.0637498 0.370453 0.715341 -0.11473
C_ C_ 0.311174 0.370104 0.704539 -0.11473
C_ C_ 0.036929 0.424782 0.754446 -0.02249
C_ C_ 0.283384 0.422498 0.744944 -0.02249
C_ C_ 0.0865818 0.306023 0.749761 0.6875
C_ C_ 0.337004 0.309678 0.739642 0.6875
C_ C_ 0.039276 0.398843 0.789924 -0.11473
C_ C_ 0.288964 0.398121 0.782497 -0.11473
C_ C_ 0.185158 0.34533 0.746765 -0.02249
C_ C_ 0.438063 0.348341 0.745104 -0.02249
C_ C_ 0.236072 0.461037 0.748873 -0.02249
C_ C_ 0.484359 0.466356 0.749107 -0.02249
C_ C_ 0.214893 0.397274 0.78368 -0.11473
C_ C_ 0.463331 0.402027 0.786624 -0.11473
C_ C_ 0.187519 0.368951 0.710004 -0.11473
C_ C_ 0.447234 0.368425 0.708398 -0.11473
C_ C_ 0.199536 0.359853 0.78458 -0.11473
C_ C_ 0.445375 0.365371 0.784558 -0.11473
C_ C_ 0.218688 0.419699 0.746698 -0.02249
C_ C_ 0.469204 0.425052 0.750363 -0.02249
C_ C_ 0.164029 0.308064 0.747684 0.6875
C_ C_ 0.41786 0.309796 0.74273 0.6875
C_ C_ 0.203811 0.40701 0.710703 -0.11473
C_ C_ 0.462754 0.406579 0.711873 -0.11473
C_ C_ 0.186581 0.150251 0.753599 -0.02249
C_ C_ 0.434162 0.153511 0.745219 -0.02249
C_ C_ 0.238856 0.0365003 0.749225 -0.02249
C_ C_ 0.485777 0.0381765 0.752045 -0.02249
C_ C_ 0.218595 0.100601 0.7852 -0.11473
C_ C_ 0.457609 0.0985053 0.785715 -0.11473
C_ C_ 0.188203 0.128433 0.715473 -0.11473
C_ C_ 0.439944 0.129764 0.7077 -0.11473
C_ C_ 0.205448 0.140621 0.78597 -0.11473
C_ C_ 0.439868 0.134168 0.783082 -0.11473
C_ C_ 0.221235 0.0762163 0.74879 -0.02249
C_ C_ 0.46731 0.0786599 0.748998 -0.02249
C_ C_ 0.163566 0.18346 0.75759 0.6875
C_ C_ 0.416999 0.192244 0.743992 0.6875
C_ C_ 0.206003 0.0923794 0.714694 -0.11473
C_ C_ 0.45903 0.0957539 0.709145 -0.11473
C_ C_ 0.063878 0.151558 0.754622 -0.02249
C_ C_ 0.313046 0.157099 0.748368 -0.02249
C_ C_ 0.0112868 0.0396338 0.761194 -0.02249
C_ C_ 0.270883 0.0354202 0.750524 -0.02249
C_ C_ 0.0404774 0.0901232 0.718445 -0.11473
C_ C_ 0.286774 0.0999164 0.712239 -0.11473
C_ C_ 0.051748 0.138194 0.792959 -0.11473
C_ C_ 0.31142 0.132739 0.786319 -0.11473
C_ C_ 0.0589129 0.12635 0.717371 -0.11473
C_ C_ 0.301262 0.138694 0.710587 -0.11473
C_ C_ 0.0274715 0.079794 0.757405 -0.02249
C_ C_ 0.2858 0.0777328 0.749465 -0.02249
C_ C_ 0.0835725 0.189528 0.754003 0.6875
C_ C_ 0.335175 0.191966 0.747085 0.6875
C_ C_ 0.0362977 0.100522 0.794573 -0.11473
C_ C_ 0.297265 0.0940049 0.787074 -0.11473
C_ C_ 0.128399 0.286248 0.875936 0.17695
C_ C_ 0.389378 0.287286 0.87385 0.17695
C_ C_ 0.13028 0.214164 0.884676 0.17695
C_ C_ 0.367046 0.220633 0.873946 0.17695
C_ C_ 0.131832 0.216998 0.927793 -0.11473
C_ C_ 0.364245 0.222845 0.917007 -0.11473
C_ C_ 0.129712 0.255709 0.945996 0.23465
C_ C_ 0.378146 0.254704 0.940405 0.23465
C_ C_ 0.129927 0.290953 0.920321 -0.11473
C_ C_ 0.391575 0.286649 0.919211 -0.11473
C_ C_ 0.0926821 0.239862 0.630548 0.17695
C_ C_ 0.366062 0.212213 0.621312 0.17695
C_ C_ 0.146148 0.240607 0.625133 0.17695
C_ C_ 0.373416 0.284349 0.61402 0.17695
C_ C_ 0.144641 0.240385 0.581689 -0.11473
C_ C_ 0.370497 0.280397 0.571407 -0.11473
C_ C_ 0.11577 0.23826 0.560787 0.23465
C_ C_ 0.364202 0.240709 0.553278 0.23465
C_ C_ 0.0892012 0.236578 0.587106 -0.11473
C_ C_ 0.362552 0.207505 0.578437 -0.11473
C_ C_ 0.0378578 0.503664 0.751868 0.05793
C_ C_ 0.282865 0.500171 0.751263 0.05793
C_ C_ 0.222878 -0.0023579999999999712 0.748643 0.05793
C_ C_ 0.469794 0.999141095 0.753328 0.05793
Br Br 0.0790912 0.503363 0.767942 -0.17191
Br Br 0.325841 0.498879 0.752298 -0.17191
Br Br 0.17976 -0.000831837 0.76425 -0.17191
Br Br 0.425647 0.998768 0.761012 -0.17191
N_ N_ 0.12741 0.247598 0.859348 -0.272
N_ N_ 0.377881 0.253978 0.852892 -0.272
N_ N_ 0.128029 0.261645 0.991247 -0.12501
N_ N_ 0.383797 0.252241 0.984829 -0.12501
N_ N_ 0.120999 0.236279 0.648683 -0.272
N_ N_ 0.369396 0.250929 0.63828 -0.272
N_ N_ 0.111581 0.242173 0.517218 -0.12501
N_ N_ 0.358707 0.236152 0.508103 -0.12501
O_ O_ 0.0922581 0.289225 0.714794 -0.60745
O_ O_ 0.344154 0.292063 0.705164 -0.60745
O_ O_ 0.0983422 0.290544 0.783444 -0.60745
O_ O_ 0.343967 0.290695 0.772574 -0.60745
O_ O_ 0.160737 0.289607 0.782222 -0.60745
O_ O_ 0.407502 0.293816 0.775775 -0.60745
O_ O_ 0.153294 0.2926 0.713298 -0.60745
O_ O_ 0.411623 0.293088 0.708067 -0.60745
O_ O_ 0.153549 0.195005 0.792895 -0.60745
O_ O_ 0.411657 0.212721 0.778844 -0.60745
O_ O_ 0.157866 0.205599 0.724737 -0.60745
O_ O_ 0.402265 0.200001 0.71015 -0.60745
O_ O_ 0.0921334 0.200646 0.717503 -0.60745
O_ O_ 0.341593 0.206906 0.711034 -0.60745
O_ O_ 0.0955307 0.20301 0.787887 -0.60745
O_ O_ 0.345953 0.207304 0.779817 -0.60745
Zn Zn 0.122882 0.741998 0.283703 0.9476
Zn Zn 0.374448 0.747738 0.286046 0.9476
Zn Zn 0.122684 0.749095 0.21403 0.9476
Zn Zn 0.376746 0.749038 0.216702 0.9476
H_ H_ 0.0361948 0.923937 0.181947 0.10932
H_ H_ 0.288305 0.918418 0.182729 0.10932
H_ H_ 0.0508823 0.837994 0.30945 0.10932
H_ H_ 0.309951 0.844826 0.317329 0.10932
H_ H_ 0.0700932 0.863329 0.178797 0.10932
H_ H_ 0.321695 0.859121 0.183356 0.10932
H_ H_ 0.0238677 0.905776 0.311062 0.10932
H_ H_ 0.27905 0.905731 0.31758 0.10932
H_ H_ 0.204664 0.915285 0.319824 0.10932
H_ H_ 0.4815 0.900067 0.321925 0.10932
H_ H_ 0.190479 0.847224 0.182648 0.10932
H_ H_ 0.415262 0.869842 0.196994 0.10932
H_ H_ 0.169319 0.858752 0.312636 0.10932
H_ H_ 0.447971 0.839989 0.321208 0.10932
H_ H_ 0.22204 0.911364 0.188594 0.10932
H_ H_ 0.436446 0.938583 0.207028 0.10932
H_ H_ 0.220832 0.580641 0.325788 0.10932
H_ H_ 0.46569 0.584266 0.324157 0.10932
H_ H_ 0.178222 0.640058 0.190986 0.10932
H_ H_ 0.445026 0.651742 0.186692 0.10932
H_ H_ 0.190747 0.650624 0.322622 0.10932
H_ H_ 0.446282 0.655534 0.323141 0.10932
H_ H_ 0.210569 0.577858 0.190877 0.10932
H_ H_ 0.470749 0.586486 0.19123 0.10932
H_ H_ 0.0342745 0.578948 0.176865 0.10932
H_ H_ 0.279929 0.58925 0.180464 0.10932
H_ H_ 0.0494329 0.651041 0.313694 0.10932
H_ H_ 0.314076 0.639627 0.317033 0.10932
H_ H_ 0.0627668 0.641639 0.178487 0.10932
H_ H_ 0.303885 0.656853 0.185464 0.10932
H_ H_ 0.0240993 0.585281 0.311725 0.10932
H_ H_ 0.295833 0.571409 0.317549 0.10932
H_ H_ 0.141822 0.816441 0.352491 0.10932
H_ H_ 0.368053 0.682366 0.355168 0.10932
H_ H_ 0.109028 0.691742 0.36264 0.10932
H_ H_ 0.392268 0.81109 0.365138 0.10932
H_ H_ 0.113321 0.697479 0.440878 0.10932
H_ H_ 0.384643 0.807377 0.440739 0.10932
H_ H_ 0.152822 0.818228 0.428732 0.10932
H_ H_ 0.369749 0.676974 0.432934 0.10932
H_ H_ 0.169245 0.751841 0.1373 0.10932
H_ H_ 0.391298 0.691939 0.136671 0.10932
H_ H_ 0.073849 0.749558 0.140226 0.10932
H_ H_ 0.352866 0.814646 0.14546 0.10932
H_ H_ 0.0693447 0.750953 0.0654244 0.10932
H_ H_ 0.350435 0.818258 0.0658599 0.10932
H_ H_ 0.163948 0.759764 0.0591955 0.10932
H_ H_ 0.388689 0.697 0.0593584 0.10932
C_ C_ 0.0651169 0.845616 0.243461 -0.02249
C_ C_ 0.317179 0.844814 0.250341 -0.02249
C_ C_ 0.0143973 0.961216 0.250934 -0.02249
C_ C_ 0.267195 0.957543 0.253312 -0.02249
C_ C_ 0.0413149 0.906241 0.210133 -0.11473
C_ C_ 0.293823 0.902495 0.21369 -0.11473
C_ C_ 0.0503347 0.856621 0.280703 -0.11473
C_ C_ 0.302623 0.857626 0.286853 -0.11473
C_ C_ 0.0597928 0.871559 0.207424 -0.11473
C_ C_ 0.311962 0.868008 0.212569 -0.11473
C_ C_ 0.0317778 0.921047 0.248402 -0.02249
C_ C_ 0.285222 0.919721 0.251561 -0.02249
C_ C_ 0.0842219 0.808017 0.242447 0.6875
C_ C_ 0.338642 0.808494 0.252653 0.6875
C_ C_ 0.0335403 0.894356 0.283547 -0.11473
C_ C_ 0.28797 0.894951 0.287434 -0.11473
C_ C_ 0.181656 0.844004 0.24838 -0.02249
C_ C_ 0.430793 0.847907 0.257897 -0.02249
C_ C_ 0.234218 0.956651 0.254672 -0.02249
C_ C_ 0.48165 0.96044 0.265027 -0.02249
C_ C_ 0.204025 0.899983 0.290002 -0.11473
C_ C_ 0.46586 0.894593 0.295533 -0.11473
C_ C_ 0.192669 0.862774 0.211834 -0.11473
C_ C_ 0.428737 0.876711 0.226171 -0.11473
C_ C_ 0.184342 0.865949 0.286446 -0.11473
C_ C_ 0.450727 0.856023 0.292706 -0.11473
C_ C_ 0.216646 0.916579 0.253393 -0.02249
C_ C_ 0.462201 0.923812 0.264826 -0.02249
C_ C_ 0.162659 0.807943 0.245067 0.6875
C_ C_ 0.414701 0.808467 0.253573 0.6875
C_ C_ 0.211518 0.896662 0.216126 -0.11473
C_ C_ 0.444287 0.915168 0.228997 -0.11473
C_ C_ 0.181572 0.647949 0.256291 -0.02249
C_ C_ 0.440488 0.657794 0.255124 -0.02249
C_ C_ 0.236179 0.534838 0.255315 -0.02249
C_ C_ 0.486037 0.538836 0.257477 -0.02249
C_ C_ 0.212201 0.594569 0.295415 -0.11473
C_ C_ 0.464109 0.600373 0.294221 -0.11473
C_ C_ 0.188402 0.629117 0.219208 -0.11473
C_ C_ 0.449164 0.637978 0.218073 -0.11473
C_ C_ 0.1929 0.630262 0.295082 -0.11473
C_ C_ 0.447393 0.637816 0.293527 -0.11473
C_ C_ 0.219821 0.574865 0.258132 -0.02249
C_ C_ 0.470448 0.579162 0.256583 -0.02249
C_ C_ 0.159904 0.684748 0.256346 0.6875
C_ C_ 0.418333 0.692373 0.253029 0.6875
C_ C_ 0.207538 0.593342 0.219484 -0.11473
C_ C_ 0.467262 0.601802 0.219619 -0.11473
C_ C_ 0.059353 0.652717 0.247042 -0.02249
C_ C_ 0.317565 0.650352 0.25042 -0.02249
C_ C_ 0.0111223 0.53581 0.245326 -0.02249
C_ C_ 0.266646 0.536536 0.246195 -0.02249
C_ C_ 0.0390563 0.592808 0.208456 -0.11473
C_ C_ 0.286887 0.600001 0.211627 -0.11473
C_ C_ 0.0460725 0.636596 0.282992 -0.11473
C_ C_ 0.309713 0.629778 0.288698 -0.11473
C_ C_ 0.0535077 0.631685 0.208197 -0.11473
C_ C_ 0.30435 0.636022 0.211885 -0.11473
C_ C_ 0.0281398 0.577515 0.245132 -0.02249
C_ C_ 0.283053 0.576482 0.247876 -0.02249
C_ C_ 0.0791489 0.688642 0.25085 0.6875
C_ C_ 0.337956 0.686332 0.250135 0.6875
C_ C_ 0.0300095 0.600607 0.282104 -0.11473
C_ C_ 0.294021 0.591975 0.288235 -0.11473
C_ C_ 0.136848 0.788352 0.371208 0.17695
C_ C_ 0.373714 0.710234 0.373357 0.17695
C_ C_ 0.116271 0.721142 0.376482 0.17695
C_ C_ 0.385368 0.781341 0.380144 0.17695
C_ C_ 0.118454 0.724669 0.421123 -0.11473
C_ C_ 0.384396 0.779008 0.423182 -0.11473
C_ C_ 0.129999 0.760962 0.440019 0.23465
C_ C_ 0.379523 0.741221 0.443193 0.23465
C_ C_ 0.140124 0.792702 0.414226 -0.11473
C_ C_ 0.373229 0.706114 0.417593 -0.11473
C_ C_ 0.146135 0.74783 0.121758 0.17695
C_ C_ 0.382601 0.720446 0.121569 0.17695
C_ C_ 0.0939935 0.757284 0.125427 0.17695
C_ C_ 0.361398 0.789345 0.126875 0.17695
C_ C_ 0.0906545 0.755701 0.0803983 -0.11473
C_ C_ 0.357354 0.791592 0.082593 -0.11473
C_ C_ 0.117037 0.755913 0.0575984 0.23465
C_ C_ 0.369621 0.758802 0.0566151 0.23465
C_ C_ 0.143927 0.751277 0.0767584 -0.11473
C_ C_ 0.38025 0.721578 0.078242 -0.11473
C_ C_ 0.0286737 1.00004 0.252686 0.05793
C_ C_ 0.281679 0.997104 0.253953 0.05793
C_ C_ 0.220894 0.495285 0.259794 0.05793
C_ C_ 0.466165 0.502459 0.257257 0.05793
Br Br 0.0728124 0.00366899 0.252018 -0.17191
Br Br 0.325717 0.996255 0.254102 -0.17191
Br Br 0.179861 0.500548 0.274739 -0.17191
Br Br 0.42581 0.510632 0.274006 -0.17191
N_ N_ 0.125496 0.753074 0.353471 -0.272
N_ N_ 0.379568 0.747445 0.355603 -0.272
N_ N_ 0.135433 0.76155 0.484296 -0.12501
N_ N_ 0.37654 0.73749 0.487552 -0.12501
N_ N_ 0.121123 0.750667 0.144441 -0.272
N_ N_ 0.373292 0.753967 0.14463 -0.272
N_ N_ 0.114294 0.75389 0.0110423 -0.12501
N_ N_ 0.368923 0.763732 0.0112531 -0.12501
O_ O_ 0.0986414 0.800287 0.209044 -0.60745
O_ O_ 0.342443 0.785373 0.220479 -0.60745
O_ O_ 0.0889961 0.785311 0.273647 -0.60745
O_ O_ 0.345074 0.793895 0.288907 -0.60745
O_ O_ 0.153329 0.789874 0.278571 -0.60745
O_ O_ 0.407421 0.78934 0.287729 -0.60745
O_ O_ 0.156818 0.790533 0.210216 -0.60745
O_ O_ 0.402945 0.799075 0.217857 -0.60745
O_ O_ 0.151134 0.698451 0.29166 -0.60745
O_ O_ 0.405893 0.704061 0.28559 -0.60745
O_ O_ 0.149128 0.698755 0.222344 -0.60745
O_ O_ 0.412825 0.710639 0.218996 -0.60745
O_ O_ 0.0882005 0.708924 0.217577 -0.60745
O_ O_ 0.350435 0.700158 0.216895 -0.60745
O_ O_ 0.0915607 0.696996 0.284888 -0.60745
O_ O_ 0.343467 0.704354 0.284176 -0.60745
Zn Zn 0.127639 0.753377 0.786069 0.9476
Zn Zn 0.375708 0.752094 0.785515 0.9476
Zn Zn 0.127058 0.7552 0.713571 0.9476
Zn Zn 0.375346 0.749195 0.71461 0.9476
H_ H_ 0.0406298 0.931376 0.686631 0.10932
H_ H_ 0.291218 0.916182 0.676484 0.10932
H_ H_ 0.045788 0.836171 0.808554 0.10932
H_ H_ 0.304569 0.846179 0.816607 0.10932
H_ H_ 0.0771305 0.873157 0.687556 0.10932
H_ H_ 0.314089 0.848571 0.679542 0.10932
H_ H_ 0.0184974 0.901675 0.812278 0.10932
H_ H_ 0.281253 0.915571 0.812574 0.10932
H_ H_ 0.224608 0.916896 0.813731 0.10932
H_ H_ 0.472486 0.913161 0.81471 0.10932
H_ H_ 0.195327 0.844257 0.68516 0.10932
H_ H_ 0.421032 0.862981 0.684826 0.10932
H_ H_ 0.187832 0.859087 0.816267 0.10932
H_ H_ 0.449137 0.844039 0.814411 0.10932
H_ H_ 0.216588 0.915069 0.679552 0.10932
H_ H_ 0.460815 0.923244 0.68364 0.10932
H_ H_ 0.221474 0.585157 0.820577 0.10932
H_ H_ 0.469812 0.585525 0.817409 0.10932
H_ H_ 0.17051 0.631289 0.689664 0.10932
H_ H_ 0.4337 0.652642 0.683772 0.10932
H_ H_ 0.199197 0.655191 0.817723 0.10932
H_ H_ 0.443347 0.653314 0.816018 0.10932
H_ H_ 0.201097 0.569235 0.688567 0.10932
H_ H_ 0.456912 0.582006 0.68242 0.10932
H_ H_ 0.0535172 0.579366 0.68709 0.10932
H_ H_ 0.290845 0.578035 0.686516 0.10932
H_ H_ 0.0595551 0.656981 0.819559 0.10932
H_ H_ 0.316394 0.650975 0.818866 0.10932
H_ H_ 0.0730849 0.648639 0.685199 0.10932
H_ H_ 0.317056 0.646064 0.684036 0.10932
H_ H_ 0.0363422 0.588747 0.815648 0.10932
H_ H_ 0.29381 0.580198 0.818997 0.10932
H_ H_ 0.126547 0.816175 0.860087 0.10932
H_ H_ 0.377672 0.814765 0.866745 0.10932
H_ H_ 0.135899 0.68675 0.861337 0.10932
H_ H_ 0.378633 0.68591 0.853588 0.10932
H_ H_ 0.138798 0.688034 0.93618 0.10932
H_ H_ 0.379649 0.678558 0.93187 0.10932
H_ H_ 0.137264 0.822002 0.932481 0.10932
H_ H_ 0.375818 0.810058 0.938856 0.10932
H_ H_ 0.163866 0.793984 0.637627 0.10932
H_ H_ 0.361296 0.816732 0.647175 0.10932
H_ H_ 0.0939182 0.707441 0.639444 0.10932
H_ H_ 0.39142 0.693827 0.64013 0.10932
H_ H_ 0.0882223 0.708526 0.563361 0.10932
H_ H_ 0.394116 0.699064 0.560895 0.10932
H_ H_ 0.152348 0.809165 0.563179 0.10932
H_ H_ 0.364308 0.826736 0.569717 0.10932
C_ C_ 0.0659488 0.851125 0.748879 -0.02249
C_ C_ 0.315601 0.84492 0.748494 -0.02249
C_ C_ 0.0122406 0.963164 0.753683 -0.02249
C_ C_ 0.270091 0.959829 0.744294 -0.02249
C_ C_ 0.0449293 0.913442 0.715325 -0.11473
C_ C_ 0.294397 0.900743 0.707369 -0.11473
C_ C_ 0.0483748 0.85939 0.782478 -0.11473
C_ C_ 0.303396 0.863041 0.78556 -0.11473
C_ C_ 0.063706 0.878471 0.713692 -0.11473
C_ C_ 0.309948 0.864079 0.710023 -0.11473
C_ C_ 0.0298452 0.924089 0.752636 -0.02249
C_ C_ 0.285615 0.920361 0.745229 -0.02249
C_ C_ 0.0874304 0.815994 0.749025 0.6875
C_ C_ 0.333353 0.80496 0.749691 0.6875
C_ C_ 0.0299457 0.895687 0.783794 -0.11473
C_ C_ 0.289891 0.90212 0.784147 -0.11473
C_ C_ 0.187617 0.847869 0.750064 -0.02249
C_ C_ 0.434025 0.848915 0.748228 -0.02249
C_ C_ 0.23866 0.960443 0.745933 -0.02249
C_ C_ 0.48546 0.961635 0.747085 -0.02249
C_ C_ 0.215409 0.903595 0.786129 -0.11473
C_ C_ 0.462918 0.902984 0.785925 -0.11473
C_ C_ 0.194851 0.86418 0.711762 -0.11473
C_ C_ 0.437584 0.869701 0.711272 -0.11473
C_ C_ 0.194829 0.87068 0.786361 -0.11473
C_ C_ 0.448234 0.864353 0.786012 -0.11473
C_ C_ 0.220904 0.921306 0.746268 -0.02249
C_ C_ 0.46826 0.922328 0.747953 -0.02249
C_ C_ 0.167177 0.810914 0.74946 0.6875
C_ C_ 0.414479 0.81167 0.748559 0.6875
C_ C_ 0.211598 0.900574 0.708905 -0.11473
C_ C_ 0.457625 0.905257 0.710787 -0.11473
C_ C_ 0.184968 0.651742 0.752807 -0.02249
C_ C_ 0.433457 0.656859 0.75038 -0.02249
C_ C_ 0.234139 0.536327 0.749885 -0.02249
C_ C_ 0.483484 0.540931 0.745371 -0.02249
C_ C_ 0.212084 0.597338 0.790249 -0.11473
C_ C_ 0.462434 0.599589 0.786988 -0.11473
C_ C_ 0.186069 0.625575 0.717057 -0.11473
C_ C_ 0.441208 0.639647 0.712289 -0.11473
C_ C_ 0.200315 0.638029 0.789492 -0.11473
C_ C_ 0.443731 0.636418 0.786818 -0.11473
C_ C_ 0.216613 0.576161 0.752469 -0.02249
C_ C_ 0.46509 0.579614 0.748056 -0.02249
C_ C_ 0.165354 0.69032 0.751786 0.6875
C_ C_ 0.416704 0.695391 0.751057 0.6875
C_ C_ 0.200797 0.587919 0.716171 -0.11473
C_ C_ 0.453984 0.599374 0.710797 -0.11473
C_ C_ 0.0728597 0.656488 0.754072 -0.02249
C_ C_ 0.315364 0.654449 0.751358 -0.02249
C_ C_ 0.0229972 0.54116 0.74956 -0.02249
C_ C_ 0.266446 0.53805 0.7525 -0.02249
C_ C_ 0.0513624 0.598322 0.713416 -0.11473
C_ C_ 0.293084 0.595561 0.715779 -0.11473
C_ C_ 0.0588433 0.640536 0.790679 -0.11473
C_ C_ 0.309056 0.635372 0.789907 -0.11473
C_ C_ 0.0651276 0.636878 0.714584 -0.11473
C_ C_ 0.308966 0.634434 0.713327 -0.11473
C_ C_ 0.0389251 0.581635 0.751576 -0.02249
C_ C_ 0.282789 0.577716 0.753244 -0.02249
C_ C_ 0.0874573 0.695856 0.754537 0.6875
C_ C_ 0.336303 0.691466 0.7472 0.6875
C_ C_ 0.0420677 0.604507 0.787287 -0.11473
C_ C_ 0.293349 0.596221 0.790285 -0.11473
C_ C_ 0.130933 0.78991 0.875937 0.17695
C_ C_ 0.373768 0.783798 0.879341 0.17695
C_ C_ 0.13485 0.716921 0.876358 0.17695
C_ C_ 0.375315 0.711238 0.873111 0.17695
C_ C_ 0.13384 0.716806 0.920644 -0.11473
C_ C_ 0.376276 0.706699 0.916038 -0.11473
C_ C_ 0.132539 0.755361 0.942093 0.23465
C_ C_ 0.37562 0.74198 0.940908 0.23465
C_ C_ 0.132764 0.790898 0.91972 -0.11473
C_ C_ 0.373776 0.780949 0.921654 -0.11473
C_ C_ 0.146919 0.775266 0.619454 0.17695
C_ C_ 0.368512 0.79185 0.626585 0.17695
C_ C_ 0.107413 0.726873 0.621764 0.17695
C_ C_ 0.385821 0.722521 0.622807 0.17695
C_ C_ 0.105772 0.727655 0.578846 -0.11473
C_ C_ 0.388625 0.725939 0.578841 -0.11473
C_ C_ 0.120427 0.756874 0.55581 0.23465
C_ C_ 0.37715 0.761651 0.557111 0.23465
C_ C_ 0.144188 0.780389 0.577084 -0.11473
C_ C_ 0.36741 0.796251 0.582401 -0.11473
C_ C_ 0.0270215 0.001122 0.761934 0.05793
C_ C_ 0.286203 -0.0027890000000000414 0.745023 0.05793
C_ C_ 0.219758 0.497894 0.748984 0.05793
C_ C_ 0.468089 0.503509 0.748308 0.05793
Br Br 0.0710947 0.00525 0.769619 -0.17191
Br Br 0.329163 -0.003565999999999958 0.737145 -0.17191
Br Br 0.178148 0.494786 0.766959 -0.17191
Br Br 0.424523 0.501456 0.753753 -0.17191
N_ N_ 0.131704 0.753755 0.854648 -0.272
N_ N_ 0.376975 0.749558 0.855171 -0.272
N_ N_ 0.136311 0.755417 0.986408 -0.12501
N_ N_ 0.373524 0.736014 0.985175 -0.12501
N_ N_ 0.12842 0.750011 0.642406 -0.272
N_ N_ 0.377908 0.755705 0.645792 -0.272
N_ N_ 0.11417 0.759873 0.510877 -0.12501
N_ N_ 0.379816 0.766545 0.513374 -0.12501
O_ O_ 0.0982078 0.80448 0.714739 -0.60745
O_ O_ 0.34153 0.789917 0.714643 -0.60745
O_ O_ 0.0973431 0.799746 0.783006 -0.60745
O_ O_ 0.347136 0.795042 0.784096 -0.60745
O_ O_ 0.159224 0.795511 0.782745 -0.60745
O_ O_ 0.40543 0.797362 0.784275 -0.60745
O_ O_ 0.161085 0.794678 0.714177 -0.60745
O_ O_ 0.400176 0.798592 0.71572 -0.60745
O_ O_ 0.158706 0.707677 0.785889 -0.60745
O_ O_ 0.404387 0.706447 0.784476 -0.60745
O_ O_ 0.152704 0.703151 0.717661 -0.60745
O_ O_ 0.40915 0.713515 0.716359 -0.60745
O_ O_ 0.0942017 0.712477 0.71977 -0.60745
O_ O_ 0.349425 0.700281 0.712086 -0.60745
O_ O_ 0.0972724 0.71014 0.788129 -0.60745
O_ O_ 0.343435 0.711485 0.779622 -0.60745
Zn Zn 0.627652 0.249556 0.286615 0.9476
Zn Zn 0.872956 0.246922 0.279488 0.9476
Zn Zn 0.622618 0.248796 0.216375 0.9476
Zn Zn 0.871525 0.247141 0.209604 0.9476
H_ H_ 0.517415 0.404701 0.186292 0.10932
H_ H_ 0.775252 0.412075 0.180643 0.10932
H_ H_ 0.567032 0.350867 0.316902 0.10932
H_ H_ 0.828912 0.366094 0.311694 0.10932
H_ H_ 0.550248 0.343247 0.184438 0.10932
H_ H_ 0.808515 0.350598 0.179273 0.10932
H_ H_ 0.538246 0.419717 0.318851 0.10932
H_ H_ 0.792899 0.423014 0.313901 0.10932
H_ H_ 0.722564 0.412098 0.310853 0.10932
H_ H_ 0.986286 0.394313 0.306973 0.10932
H_ H_ 0.670947 0.364227 0.180202 0.10932
H_ H_ 0.903818 0.374081 0.202714 0.10932
H_ H_ 0.697988 0.34586 0.311166 0.10932
H_ H_ 0.957598 0.329725 0.306607 0.10932
H_ H_ 0.701276 0.430377 0.18141 0.10932
H_ H_ 0.935214 0.436252 0.19939 0.10932
H_ H_ 0.700329 0.0712442 0.310241 0.10932
H_ H_ 0.964013 0.0790005 0.309644 0.10932
H_ H_ 0.701438 0.162928 0.187643 0.10932
H_ H_ 0.932631 0.142538 0.174256 0.10932
H_ H_ 0.678853 0.136651 0.314082 0.10932
H_ H_ 0.926326 0.13495 0.308197 0.10932
H_ H_ 0.726122 0.0962093 0.181192 0.10932
H_ H_ 0.958273 0.080842 0.173264 0.10932
H_ H_ 0.548532 0.0649735 0.197566 0.10932
H_ H_ 0.807626 0.0595951 0.198847 0.10932
H_ H_ 0.565393 0.146946 0.330046 0.10932
H_ H_ 0.784732 0.170301 0.297643 0.10932
H_ H_ 0.570882 0.135086 0.195859 0.10932
H_ H_ 0.837641 0.123154 0.199231 0.10932
H_ H_ 0.537497 0.0807298 0.328923 0.10932
H_ H_ 0.762439 0.0969734 0.307492 0.10932
H_ H_ 0.635041 0.189955 0.366416 0.10932
H_ H_ 0.876449 0.181859 0.348522 0.10932
H_ H_ 0.616566 0.319471 0.352335 0.10932
H_ H_ 0.863828 0.313236 0.35636 0.10932
H_ H_ 0.611303 0.324602 0.428868 0.10932
H_ H_ 0.873015 0.308039 0.437654 0.10932
H_ H_ 0.635258 0.198777 0.443538 0.10932
H_ H_ 0.874709 0.176413 0.426528 0.10932
H_ H_ 0.615601 0.181589 0.147044 0.10932
H_ H_ 0.826691 0.230444 0.14064 0.10932
H_ H_ 0.628625 0.310656 0.136503 0.10932
H_ H_ 0.915927 0.269231 0.136587 0.10932
H_ H_ 0.638031 0.302203 0.0610499 0.10932
H_ H_ 0.913075 0.276132 0.0584122 0.10932
H_ H_ 0.617642 0.17262 0.0700342 0.10932
H_ H_ 0.819898 0.240522 0.0640309 0.10932
C_ C_ 0.56111 0.34333 0.250572 -0.02249
C_ C_ 0.819229 0.352139 0.247243 -0.02249
C_ C_ 0.510898 0.458552 0.255793 -0.02249
C_ C_ 0.762934 0.459772 0.247969 -0.02249
C_ C_ 0.529797 0.395513 0.214417 -0.11473
C_ C_ 0.783395 0.397438 0.211657 -0.11473
C_ C_ 0.556653 0.366287 0.28863 -0.11473
C_ C_ 0.81418 0.372958 0.285333 -0.11473
C_ C_ 0.54701 0.358817 0.213683 -0.11473
C_ C_ 0.802065 0.363063 0.210903 -0.11473
C_ C_ 0.526488 0.417644 0.253431 -0.02249
C_ C_ 0.7804 0.420685 0.24975 -0.02249
C_ C_ 0.580953 0.304297 0.247779 0.6875
C_ C_ 0.841265 0.315816 0.244491 0.6875
C_ C_ 0.538539 0.401443 0.289389 -0.11473
C_ C_ 0.794267 0.406106 0.286462 -0.11473
C_ C_ 0.6815 0.349976 0.244605 -0.02249
C_ C_ 0.932107 0.344656 0.250813 -0.02249
C_ C_ 0.730778 0.462295 0.244354 -0.02249
C_ C_ 0.980713 0.45773 0.249358 -0.02249
C_ C_ 0.711245 0.400356 0.283003 -0.11473
C_ C_ 0.967125 0.391973 0.285221 -0.11473
C_ C_ 0.682717 0.374893 0.20775 -0.11473
C_ C_ 0.922319 0.378188 0.224363 -0.11473
C_ C_ 0.696986 0.36213 0.282089 -0.11473
C_ C_ 0.951347 0.35362 0.283662 -0.11473
C_ C_ 0.714808 0.422652 0.245664 -0.02249
C_ C_ 0.963327 0.419835 0.251338 -0.02249
C_ C_ 0.662057 0.311707 0.246909 0.6875
C_ C_ 0.914734 0.306025 0.249987 0.6875
C_ C_ 0.701166 0.40903 0.20768 -0.11473
C_ C_ 0.93941 0.41339 0.223297 -0.11473
C_ C_ 0.684465 0.156444 0.249064 -0.02249
C_ C_ 0.928353 0.146573 0.242916 -0.02249
C_ C_ 0.731774 0.0390712 0.246573 -0.02249
C_ C_ 0.98204 0.038126 0.239592 -0.02249
C_ C_ 0.702586 0.0929296 0.283142 -0.11473
C_ C_ 0.957665 0.0937971 0.279744 -0.11473
C_ C_ 0.700695 0.143321 0.213012 -0.11473
C_ C_ 0.935651 0.12866 0.203896 -0.11473
C_ C_ 0.685933 0.128271 0.284332 -0.11473
C_ C_ 0.935946 0.125727 0.280215 -0.11473
C_ C_ 0.71509 0.0799033 0.246743 -0.02249
C_ C_ 0.96596 0.0771471 0.241769 -0.02249
C_ C_ 0.668774 0.196605 0.251938 0.6875
C_ C_ 0.909182 0.184976 0.244436 0.6875
C_ C_ 0.716374 0.105297 0.211608 -0.11473
C_ C_ 0.953188 0.0930102 0.204597 -0.11473
C_ C_ 0.569864 0.147792 0.260802 -0.02249
C_ C_ 0.810553 0.152204 0.246187 -0.02249
C_ C_ 0.518236 0.0345191 0.262339 -0.02249
C_ C_ 0.76364 0.0349085 0.248234 -0.02249
C_ C_ 0.551285 0.0832745 0.225813 -0.11473
C_ C_ 0.801373 0.084009 0.219388 -0.11473
C_ C_ 0.561296 0.13081 0.299632 -0.11473
C_ C_ 0.787982 0.146008 0.276149 -0.11473
C_ C_ 0.563624 0.122836 0.224615 -0.11473
C_ C_ 0.81661 0.121095 0.216981 -0.11473
C_ C_ 0.538224 0.0712285 0.263586 -0.02249
C_ C_ 0.782179 0.0741092 0.250799 -0.02249
C_ C_ 0.590852 0.184088 0.259699 0.6875
C_ C_ 0.831462 0.189355 0.247572 0.6875
C_ C_ 0.545181 0.0929787 0.300687 -0.11473
C_ C_ 0.776951 0.104179 0.280725 -0.11473
C_ C_ 0.633569 0.221268 0.380364 0.17695
C_ C_ 0.873295 0.209818 0.36911 0.17695
C_ C_ 0.621918 0.293282 0.374427 0.17695
C_ C_ 0.867721 0.282945 0.374171 0.17695
C_ C_ 0.620773 0.297336 0.418561 -0.11473
C_ C_ 0.869687 0.279864 0.417972 -0.11473
C_ C_ 0.62434 0.263527 0.444101 0.23465
C_ C_ 0.870886 0.24222 0.43806 0.23465
C_ C_ 0.63091 0.224479 0.424317 -0.11473
C_ C_ 0.876972 0.20689 0.413076 -0.11473
C_ C_ 0.617797 0.207669 0.12614 0.17695
C_ C_ 0.844528 0.242919 0.121461 0.17695
C_ C_ 0.626771 0.280152 0.122111 0.17695
C_ C_ 0.894976 0.262338 0.120706 0.17695
C_ C_ 0.6305 0.276546 0.078589 -0.11473
C_ C_ 0.894266 0.264762 0.0765 -0.11473
C_ C_ 0.62795 0.237972 0.0596863 0.23465
C_ C_ 0.866019 0.260622 0.0554111 0.23465
C_ C_ 0.620173 0.204305 0.0825437 -0.11473
C_ C_ 0.842092 0.245998 0.0788924 -0.11473
C_ C_ 0.529659 0.494214 0.252027 0.05793
C_ C_ 0.779868 0.4977 0.245816 0.05793
C_ C_ 0.71413 1.00215 0.245276 0.05793
C_ C_ 0.967162 0.998964 0.236293 0.05793
Br Br 0.573065 0.488542 0.250947 -0.17191
Br Br 0.822024 0.49753 0.239471 -0.17191
Br Br 0.671754 0.0087226 0.241058 -0.17191
Br Br 0.923796 -0.004781999999999953 0.233848 -0.17191
N_ N_ 0.628856 0.255595 0.357188 -0.272
N_ N_ 0.87177 0.247725 0.350984 -0.272
N_ N_ 0.626414 0.268242 0.489437 -0.12501
N_ N_ 0.866752 0.236679 0.483194 -0.12501
N_ N_ 0.621359 0.245498 0.145197 -0.272
N_ N_ 0.870013 0.25428 0.142654 -0.272
N_ N_ 0.629537 0.233927 0.0142429 -0.12501
N_ N_ 0.86283 0.264866 0.00937186 -0.12501
O_ O_ 0.588121 0.287967 0.213413 -0.60745
O_ O_ 0.843653 0.297713 0.209213 -0.60745
O_ O_ 0.593204 0.292565 0.281524 -0.60745
O_ O_ 0.84455 0.293271 0.277793 -0.60745
O_ O_ 0.656434 0.293916 0.282174 -0.60745
O_ O_ 0.905401 0.289637 0.282055 -0.60745
O_ O_ 0.650554 0.298192 0.212492 -0.60745
O_ O_ 0.905322 0.292031 0.215686 -0.60745
O_ O_ 0.658706 0.208773 0.287614 -0.60745
O_ O_ 0.902288 0.199387 0.280094 -0.60745
O_ O_ 0.656779 0.210154 0.216606 -0.60745
O_ O_ 0.900868 0.202079 0.21144 -0.60745
O_ O_ 0.597377 0.199144 0.225328 -0.60745
O_ O_ 0.840849 0.202295 0.212055 -0.60745
O_ O_ 0.599507 0.202654 0.292931 -0.60745
O_ O_ 0.839147 0.205448 0.281325 -0.60745
Zn Zn 0.626194 0.252091 0.787363 0.9476
Zn Zn 0.878179 0.256278 0.784237 0.9476
Zn Zn 0.624258 0.256427 0.719117 0.9476
Zn Zn 0.876559 0.258576 0.713752 0.9476
H_ H_ 0.533053 0.416177 0.681674 0.10932
H_ H_ 0.78182 0.419666 0.685848 0.10932
H_ H_ 0.564788 0.35783 0.821134 0.10932
H_ H_ 0.817228 0.35519 0.817699 0.10932
H_ H_ 0.562418 0.353711 0.684189 0.10932
H_ H_ 0.801526 0.348053 0.6842 0.10932
H_ H_ 0.53896 0.424735 0.815135 0.10932
H_ H_ 0.787232 0.424677 0.818394 0.10932
H_ H_ 0.719209 0.414272 0.817481 0.10932
H_ H_ 0.961939 0.430216 0.817076 0.10932
H_ H_ 0.677074 0.364603 0.681128 0.10932
H_ H_ 0.947381 0.350353 0.687571 0.10932
H_ H_ 0.698829 0.346154 0.817143 0.10932
H_ H_ 0.93448 0.363392 0.819477 0.10932
H_ H_ 0.699086 0.432768 0.686348 0.10932
H_ H_ 0.981734 0.411909 0.690238 0.10932
H_ H_ 0.724473 0.0871062 0.814101 0.10932
H_ H_ 0.954283 0.0787927 0.823057 0.10932
H_ H_ 0.684235 0.153764 0.686747 0.10932
H_ H_ 0.942436 0.150775 0.687675 0.10932
H_ H_ 0.693867 0.150413 0.820245 0.10932
H_ H_ 0.92002 0.138891 0.816188 0.10932
H_ H_ 0.712515 0.0843892 0.679429 0.10932
H_ H_ 0.967116 0.0865682 0.690768 0.10932
H_ H_ 0.527525 0.0948174 0.677786 0.10932
H_ H_ 0.773874 0.100874 0.68716 0.10932
H_ H_ 0.565004 0.142486 0.815881 0.10932
H_ H_ 0.83176 0.140116 0.815732 0.10932
H_ H_ 0.560087 0.157964 0.678609 0.10932
H_ H_ 0.801049 0.16695 0.689836 0.10932
H_ H_ 0.542161 0.0740133 0.809219 0.10932
H_ H_ 0.805614 0.0690929 0.813565 0.10932
H_ H_ 0.62095 0.323536 0.860143 0.10932
H_ H_ 0.928055 0.273344 0.857812 0.10932
H_ H_ 0.634948 0.194126 0.863666 0.10932
H_ H_ 0.834982 0.243258 0.858975 0.10932
H_ H_ 0.632612 0.194638 0.939808 0.10932
H_ H_ 0.835789 0.242755 0.936689 0.10932
H_ H_ 0.624835 0.324147 0.937294 0.10932
H_ H_ 0.929816 0.274733 0.932471 0.10932
H_ H_ 0.626927 0.185199 0.649949 0.10932
H_ H_ 0.855116 0.198634 0.636307 0.10932
H_ H_ 0.623522 0.319254 0.63609 0.10932
H_ H_ 0.895674 0.316812 0.640164 0.10932
H_ H_ 0.62738 0.311568 0.556986 0.10932
H_ H_ 0.892982 0.319892 0.564491 0.10932
H_ H_ 0.63073 0.17677 0.574628 0.10932
H_ H_ 0.850013 0.204408 0.558151 0.10932
C_ C_ 0.565553 0.349617 0.752831 -0.02249
C_ C_ 0.817301 0.351493 0.749592 -0.02249
C_ C_ 0.517031 0.467449 0.746349 -0.02249
C_ C_ 0.766025 0.464777 0.752449 -0.02249
C_ C_ 0.541861 0.405781 0.71209 -0.11473
C_ C_ 0.787731 0.403122 0.714248 -0.11473
C_ C_ 0.557228 0.369993 0.791017 -0.11473
C_ C_ 0.809543 0.370054 0.789008 -0.11473
C_ C_ 0.555519 0.366198 0.713834 -0.11473
C_ C_ 0.802571 0.366514 0.712952 -0.11473
C_ C_ 0.534932 0.427692 0.749522 -0.02249
C_ C_ 0.781789 0.423657 0.752271 -0.02249
C_ C_ 0.585134 0.311473 0.752825 0.6875
C_ C_ 0.83655 0.314578 0.748323 0.6875
C_ C_ 0.543611 0.409402 0.787269 -0.11473
C_ C_ 0.791089 0.405143 0.789886 -0.11473
C_ C_ 0.683939 0.349512 0.750568 -0.02249
C_ C_ 0.937225 0.35195 0.751528 -0.02249
C_ C_ 0.734901 0.465595 0.754346 -0.02249
C_ C_ 0.989206 0.467763 0.749721 -0.02249
C_ C_ 0.71192 0.402962 0.788221 -0.11473
C_ C_ 0.958505 0.413769 0.789067 -0.11473
C_ C_ 0.689117 0.373064 0.712328 -0.11473
C_ C_ 0.951044 0.366282 0.715567 -0.11473
C_ C_ 0.699812 0.363588 0.787092 -0.11473
C_ C_ 0.943327 0.374662 0.7899 -0.11473
C_ C_ 0.71473 0.427701 0.751218 -0.02249
C_ C_ 0.969087 0.42924 0.751147 -0.02249
C_ C_ 0.663548 0.313407 0.751046 0.6875
C_ C_ 0.918272 0.314064 0.751549 0.6875
C_ C_ 0.702948 0.412056 0.713108 -0.11473
C_ C_ 0.966226 0.40467 0.713944 -0.11473
C_ C_ 0.685821 0.154959 0.752608 -0.02249
C_ C_ 0.931617 0.154552 0.753303 -0.02249
C_ C_ 0.736848 0.0419603 0.746395 -0.02249
C_ C_ 0.980108 0.0397955 0.760655 -0.02249
C_ C_ 0.71519 0.0990846 0.786353 -0.11473
C_ C_ 0.950845 0.0948675 0.793214 -0.11473
C_ C_ 0.692057 0.138533 0.713089 -0.11473
C_ C_ 0.943604 0.136122 0.716892 -0.11473
C_ C_ 0.696689 0.134468 0.789422 -0.11473
C_ C_ 0.934494 0.131002 0.790353 -0.11473
C_ C_ 0.719725 0.0814148 0.746498 -0.02249
C_ C_ 0.962848 0.0804123 0.756974 -0.02249
C_ C_ 0.66588 0.194862 0.75565 0.6875
C_ C_ 0.911746 0.192252 0.750063 0.6875
C_ C_ 0.707046 0.0998312 0.711287 -0.11473
C_ C_ 0.957412 0.0991411 0.720027 -0.11473
C_ C_ 0.567591 0.155083 0.747238 -0.02249
C_ C_ 0.821541 0.156499 0.751982 -0.02249
C_ C_ 0.517941 0.039185 0.740902 -0.02249
C_ C_ 0.769054 0.0418077 0.747589 -0.02249
C_ C_ 0.538607 0.102727 0.706943 -0.11473
C_ C_ 0.788829 0.1063 0.71328 -0.11473
C_ C_ 0.561801 0.128979 0.784099 -0.11473
C_ C_ 0.819065 0.130488 0.788577 -0.11473
C_ C_ 0.554689 0.140505 0.708204 -0.11473
C_ C_ 0.804008 0.145701 0.716388 -0.11473
C_ C_ 0.533815 0.0795568 0.743285 -0.02249
C_ C_ 0.788039 0.0793055 0.748323 -0.02249
C_ C_ 0.585638 0.193988 0.751686 0.6875
C_ C_ 0.835361 0.198417 0.753925 0.6875
C_ C_ 0.542879 0.0944908 0.782141 -0.11473
C_ C_ 0.804488 0.090483 0.785011 -0.11473
C_ C_ 0.623359 0.295223 0.878199 0.17695
C_ C_ 0.907691 0.26583 0.874109 0.17695
C_ C_ 0.62886 0.223314 0.878923 0.17695
C_ C_ 0.856389 0.249577 0.875111 0.17695
C_ C_ 0.629176 0.222572 0.922976 -0.11473
C_ C_ 0.85588 0.252038 0.92094 -0.11473
C_ C_ 0.623545 0.259944 0.944463 0.23465
C_ C_ 0.88273 0.261627 0.941936 0.23465
C_ C_ 0.623161 0.295663 0.92081 -0.11473
C_ C_ 0.908222 0.268821 0.917802 -0.11473
C_ C_ 0.628854 0.213657 0.629546 0.17695
C_ C_ 0.862745 0.226752 0.618729 0.17695
C_ C_ 0.623418 0.287538 0.622611 0.17695
C_ C_ 0.889101 0.288999 0.622798 0.17695
C_ C_ 0.625991 0.284729 0.577423 -0.11473
C_ C_ 0.889577 0.290271 0.57832 -0.11473
C_ C_ 0.631906 0.244584 0.55895 0.23465
C_ C_ 0.877096 0.259067 0.552907 0.23465
C_ C_ 0.630594 0.208745 0.585548 -0.11473
C_ C_ 0.86188 0.227629 0.575402 -0.11473
C_ C_ 0.531601 0.506119 0.746172 0.05793
C_ C_ 0.782579 0.500945 0.757799 0.05793
C_ C_ 0.721605 0.00403948 0.746017 0.05793
C_ C_ 0.964476 0.0014400000000001079 0.756173 0.05793
Br Br 0.575791 0.506388 0.743249 -0.17191
Br Br 0.824552 0.502045 0.74346 -0.17191
Br Br 0.677063 0.0017137 0.753801 -0.17191
Br Br 0.922033 -0.0016580000000000483 0.752372 -0.17191
N_ N_ 0.625668 0.258677 0.857371 -0.272
N_ N_ 0.880872 0.2616 0.853563 -0.272
N_ N_ 0.620283 0.26225 0.989366 -0.12501
N_ N_ 0.885263 0.258868 0.986638 -0.12501
N_ N_ 0.625301 0.252951 0.64646 -0.272
N_ N_ 0.877301 0.256493 0.641175 -0.272
N_ N_ 0.628612 0.238085 0.514315 -0.12501
N_ N_ 0.875482 0.26428 0.508503 -0.12501
O_ O_ 0.593772 0.296421 0.718383 -0.60745
O_ O_ 0.847616 0.305333 0.71372 -0.60745
O_ O_ 0.594974 0.29547 0.787365 -0.60745
O_ O_ 0.843533 0.295885 0.782813 -0.60745
O_ O_ 0.655306 0.297991 0.785314 -0.60745
O_ O_ 0.905634 0.303965 0.785967 -0.60745
O_ O_ 0.655845 0.295656 0.71734 -0.60745
O_ O_ 0.911014 0.295342 0.717618 -0.60745
O_ O_ 0.660118 0.210435 0.791349 -0.60745
O_ O_ 0.908894 0.211644 0.784315 -0.60745
O_ O_ 0.654991 0.211475 0.723594 -0.60745
O_ O_ 0.904432 0.208557 0.715166 -0.60745
O_ O_ 0.595985 0.211717 0.71886 -0.60745
O_ O_ 0.84308 0.215907 0.719641 -0.60745
O_ O_ 0.595073 0.205957 0.789013 -0.60745
O_ O_ 0.846482 0.211562 0.787198 -0.60745
Zn Zn 0.619475 0.748817 0.281478 0.9476
Zn Zn 0.872744 0.748145 0.279069 0.9476
Zn Zn 0.620412 0.749219 0.212836 0.9476
Zn Zn 0.873484 0.748263 0.209095 0.9476
H_ H_ 0.51622 0.909968 0.196212 0.10932
H_ H_ 0.799984 0.92887 0.189032 0.10932
H_ H_ 0.567838 0.848587 0.323511 0.10932
H_ H_ 0.795264 0.831645 0.310715 0.10932
H_ H_ 0.547657 0.845628 0.19176 0.10932
H_ H_ 0.824709 0.863776 0.186962 0.10932
H_ H_ 0.539792 0.916536 0.32962 0.10932
H_ H_ 0.762796 0.8955 0.309937 0.10932
H_ H_ 0.701144 0.928349 0.31339 0.10932
H_ H_ 0.961 0.919304 0.312658 0.10932
H_ H_ 0.678459 0.85227 0.180489 0.10932
H_ H_ 0.927689 0.858362 0.178193 0.10932
H_ H_ 0.675932 0.858822 0.315071 0.10932
H_ H_ 0.932565 0.853564 0.314051 0.10932
H_ H_ 0.710043 0.916147 0.178909 0.10932
H_ H_ 0.960985 0.920114 0.179145 0.10932
H_ H_ 0.726878 0.593855 0.315017 0.10932
H_ H_ 0.968302 0.58741 0.322054 0.10932
H_ H_ 0.671686 0.637645 0.181138 0.10932
H_ H_ 0.923744 0.634093 0.186702 0.10932
H_ H_ 0.704349 0.661189 0.312963 0.10932
H_ H_ 0.939064 0.650295 0.321105 0.10932
H_ H_ 0.69716 0.573499 0.184292 0.10932
H_ H_ 0.950441 0.566452 0.190673 0.10932
H_ H_ 0.53857 0.568651 0.182944 0.10932
H_ H_ 0.774612 0.578599 0.181686 0.10932
H_ H_ 0.564811 0.645161 0.31436 0.10932
H_ H_ 0.819996 0.64103 0.312087 0.10932
H_ H_ 0.562862 0.635598 0.179573 0.10932
H_ H_ 0.801949 0.647551 0.176606 0.10932
H_ H_ 0.542397 0.577041 0.317634 0.10932
H_ H_ 0.796295 0.569067 0.313218 0.10932
H_ H_ 0.615381 0.683065 0.352357 0.10932
H_ H_ 0.82473 0.743579 0.345385 0.10932
H_ H_ 0.618961 0.811885 0.357233 0.10932
H_ H_ 0.915176 0.764415 0.352512 0.10932
H_ H_ 0.622104 0.810618 0.435057 0.10932
H_ H_ 0.916063 0.748848 0.431092 0.10932
H_ H_ 0.619661 0.6813 0.431643 0.10932
H_ H_ 0.820017 0.736535 0.424956 0.10932
H_ H_ 0.575447 0.76737 0.136938 0.10932
H_ H_ 0.842157 0.699416 0.126923 0.10932
H_ H_ 0.666723 0.7315 0.138753 0.10932
H_ H_ 0.899076 0.806965 0.140108 0.10932
H_ H_ 0.667241 0.731733 0.0654566 0.10932
H_ H_ 0.897049 0.817593 0.0640695 0.10932
H_ H_ 0.571756 0.756753 0.0603331 0.10932
H_ H_ 0.847952 0.705428 0.0495248 0.10932
C_ C_ 0.560688 0.843145 0.257353 -0.02249
C_ C_ 0.809412 0.842273 0.246051 -0.02249
C_ C_ 0.513571 0.957072 0.265447 -0.02249
C_ C_ 0.761342 0.959566 0.251345 -0.02249
C_ C_ 0.52857 0.898113 0.224947 -0.11473
C_ C_ 0.796726 0.909191 0.214118 -0.11473
C_ C_ 0.558081 0.862231 0.297324 -0.11473
C_ C_ 0.79528 0.853183 0.282734 -0.11473
C_ C_ 0.546614 0.862058 0.222431 -0.11473
C_ C_ 0.809134 0.869136 0.211508 -0.11473
C_ C_ 0.526534 0.916295 0.265012 -0.02249
C_ C_ 0.777734 0.918181 0.248137 -0.02249
C_ C_ 0.578658 0.804627 0.252838 0.6875
C_ C_ 0.830304 0.804977 0.246891 0.6875
C_ C_ 0.542022 0.89998 0.300355 -0.11473
C_ C_ 0.777734 0.890029 0.281788 -0.11473
C_ C_ 0.677204 0.84772 0.248309 -0.02249
C_ C_ 0.929718 0.848538 0.246465 -0.02249
C_ C_ 0.728478 0.962886 0.245647 -0.02249
C_ C_ 0.982368 0.96109 0.24604 -0.02249
C_ C_ 0.70004 0.909358 0.283677 -0.11473
C_ C_ 0.956294 0.904528 0.283958 -0.11473
C_ C_ 0.685664 0.866149 0.209381 -0.11473
C_ C_ 0.936391 0.869088 0.208522 -0.11473
C_ C_ 0.684395 0.871506 0.284853 -0.11473
C_ C_ 0.93921 0.866623 0.28351 -0.11473
C_ C_ 0.710597 0.923737 0.245568 -0.02249
C_ C_ 0.965302 0.922474 0.245363 -0.02249
C_ C_ 0.656634 0.810173 0.251286 0.6875
C_ C_ 0.909013 0.811771 0.245458 0.6875
C_ C_ 0.705713 0.901016 0.209306 -0.11473
C_ C_ 0.955794 0.904071 0.208485 -0.11473
C_ C_ 0.685577 0.656596 0.248232 -0.02249
C_ C_ 0.930041 0.648932 0.252451 -0.02249
C_ C_ 0.731899 0.537811 0.248579 -0.02249
C_ C_ 0.980563 0.535033 0.256544 -0.02249
C_ C_ 0.715477 0.602797 0.284573 -0.11473
C_ C_ 0.959296 0.599508 0.291235 -0.11473
C_ C_ 0.684641 0.629832 0.211919 -0.11473
C_ C_ 0.934757 0.623632 0.215752 -0.11473
C_ C_ 0.703008 0.642123 0.284448 -0.11473
C_ C_ 0.942505 0.636168 0.290644 -0.11473
C_ C_ 0.715218 0.578116 0.247965 -0.02249
C_ C_ 0.961249 0.573132 0.257175 -0.02249
C_ C_ 0.664285 0.692886 0.248047 0.6875
C_ C_ 0.914751 0.690441 0.24886 0.6875
C_ C_ 0.700336 0.592847 0.211624 -0.11473
C_ C_ 0.95005 0.586136 0.218416 -0.11473
C_ C_ 0.564841 0.648328 0.245043 -0.02249
C_ C_ 0.818566 0.645101 0.244651 -0.02249
C_ C_ 0.516852 0.533239 0.253901 -0.02249
C_ C_ 0.764226 0.536772 0.249283 -0.02249
C_ C_ 0.544065 0.58594 0.210929 -0.11473
C_ C_ 0.78405 0.595314 0.210404 -0.11473
C_ C_ 0.56196 0.629186 0.284935 -0.11473
C_ C_ 0.814009 0.624449 0.282927 -0.11473
C_ C_ 0.556548 0.624822 0.209192 -0.11473
C_ C_ 0.801561 0.631901 0.208477 -0.11473
C_ C_ 0.536439 0.569616 0.250978 -0.02249
C_ C_ 0.783 0.574072 0.246659 -0.02249
C_ C_ 0.583317 0.6872 0.24282 0.6875
C_ C_ 0.837694 0.683706 0.243763 0.6875
C_ C_ 0.546847 0.590735 0.288146 -0.11473
C_ C_ 0.797974 0.587284 0.283303 -0.11473
C_ C_ 0.620118 0.710816 0.371123 0.17695
C_ C_ 0.843528 0.743893 0.365847 0.17695
C_ C_ 0.622412 0.783126 0.373784 0.17695
C_ C_ 0.896582 0.754493 0.370453 0.17695
C_ C_ 0.619808 0.783324 0.417348 -0.11473
C_ C_ 0.895146 0.749998 0.413426 -0.11473
C_ C_ 0.618401 0.746439 0.43995 0.23465
C_ C_ 0.866988 0.745817 0.434696 0.23465
C_ C_ 0.620215 0.709888 0.416267 -0.11473
C_ C_ 0.841044 0.743066 0.410016 -0.11473
C_ C_ 0.59498 0.758149 0.120742 0.17695
C_ C_ 0.857961 0.723174 0.113179 0.17695
C_ C_ 0.646448 0.737192 0.122671 0.17695
C_ C_ 0.887019 0.784655 0.120289 0.17695
C_ C_ 0.646197 0.736284 0.0791455 -0.11473
C_ C_ 0.888057 0.789358 0.0767522 -0.11473
C_ C_ 0.619582 0.744437 0.0551103 0.23465
C_ C_ 0.877502 0.757155 0.0512404 0.23465
C_ C_ 0.593377 0.754546 0.0769516 -0.11473
C_ C_ 0.86205 0.7249 0.0698371 -0.11473
C_ C_ 0.531914 0.99348 0.259453 0.05793
C_ C_ 0.778089 0.996649 0.25321 0.05793
C_ C_ 0.715955 0.499695 0.250182 0.05793
C_ C_ 0.966669 0.495717 0.260717 0.05793
Br Br 0.576063 0.989657 0.253686 -0.17191
Br Br 0.820567 0.994534 0.263862 -0.17191
Br Br 0.672777 0.501449 0.254568 -0.17191
Br Br 0.932156 0.492503 0.297271 -0.17191
N_ N_ 0.621305 0.74746 0.351524 -0.272
N_ N_ 0.870856 0.747257 0.348094 -0.272
N_ N_ 0.616139 0.746154 0.48428 -0.12501
N_ N_ 0.864716 0.741704 0.481804 -0.12501
N_ N_ 0.620639 0.748544 0.142902 -0.272
N_ N_ 0.872926 0.750929 0.137994 -0.272
N_ N_ 0.616817 0.738068 0.0112004 -0.12501
N_ N_ 0.879437 0.761995 0.00737759 -0.12501
O_ O_ 0.592614 0.796384 0.219143 -0.60745
O_ O_ 0.840985 0.792657 0.213196 -0.60745
O_ O_ 0.585016 0.783701 0.284872 -0.60745
O_ O_ 0.838169 0.789387 0.27999 -0.60745
O_ O_ 0.647757 0.796756 0.28662 -0.60745
O_ O_ 0.897503 0.79777 0.279003 -0.60745
O_ O_ 0.651821 0.789394 0.217815 -0.60745
O_ O_ 0.906686 0.790133 0.211413 -0.60745
O_ O_ 0.654624 0.709363 0.281417 -0.60745
O_ O_ 0.910406 0.713355 0.280989 -0.60745
O_ O_ 0.651561 0.705288 0.214736 -0.60745
O_ O_ 0.904698 0.70252 0.213089 -0.60745
O_ O_ 0.591288 0.702939 0.208192 -0.60745
O_ O_ 0.842368 0.704858 0.209493 -0.60745
O_ O_ 0.592282 0.701702 0.277107 -0.60745
O_ O_ 0.845781 0.698573 0.278638 -0.60745
Zn Zn 0.629093 0.754851 0.782753 0.9476
Zn Zn 0.875969 0.751471 0.779357 0.9476
Zn Zn 0.629439 0.749696 0.712062 0.9476
Zn Zn 0.874114 0.750627 0.708829 0.9476
H_ H_ 0.544013 0.921438 0.677243 0.10932
H_ H_ 0.789261 0.92906 0.677613 0.10932
H_ H_ 0.551849 0.844338 0.806617 0.10932
H_ H_ 0.806987 0.845134 0.807517 0.10932
H_ H_ 0.57853 0.861232 0.681178 0.10932
H_ H_ 0.820161 0.864577 0.674442 0.10932
H_ H_ 0.528059 0.910941 0.8062 0.10932
H_ H_ 0.782653 0.914093 0.811907 0.10932
H_ H_ 0.71936 0.924692 0.814926 0.10932
H_ H_ 0.949171 0.927429 0.811082 0.10932
H_ H_ 0.69178 0.851307 0.685808 0.10932
H_ H_ 0.953534 0.839568 0.68123 0.10932
H_ H_ 0.693115 0.858436 0.818246 0.10932
H_ H_ 0.924768 0.855742 0.808941 0.10932
H_ H_ 0.711793 0.925522 0.682474 0.10932
H_ H_ 0.970947 0.914774 0.68107 0.10932
H_ H_ 0.724859 0.596527 0.821406 0.10932
H_ H_ 0.962667 0.579536 0.81754 0.10932
H_ H_ 0.684266 0.641303 0.684722 0.10932
H_ H_ 0.953849 0.661977 0.688243 0.10932
H_ H_ 0.689305 0.658572 0.818139 0.10932
H_ H_ 0.923838 0.633787 0.811019 0.10932
H_ H_ 0.714995 0.57635 0.692641 0.10932
H_ H_ 0.984137 0.599725 0.689416 0.10932
H_ H_ 0.537887 0.583485 0.678902 0.10932
H_ H_ 0.776375 0.585236 0.688456 0.10932
H_ H_ 0.561342 0.653517 0.813624 0.10932
H_ H_ 0.824664 0.649921 0.813456 0.10932
H_ H_ 0.572628 0.642913 0.680432 0.10932
H_ H_ 0.804106 0.649867 0.681611 0.10932
H_ H_ 0.53224 0.5896 0.814125 0.10932
H_ H_ 0.80147 0.58053 0.821336 0.10932
H_ H_ 0.676368 0.735238 0.858365 0.10932
H_ H_ 0.872 0.684445 0.848583 0.10932
H_ H_ 0.581609 0.757355 0.859765 0.10932
H_ H_ 0.88168 0.812937 0.864355 0.10932
H_ H_ 0.58385 0.737826 0.93437 0.10932
H_ H_ 0.882061 0.802922 0.938012 0.10932
H_ H_ 0.679947 0.748197 0.93413 0.10932
H_ H_ 0.874936 0.676587 0.927215 0.10932
H_ H_ 0.630097 0.695552 0.636083 0.10932
H_ H_ 0.878464 0.818884 0.636166 0.10932
H_ H_ 0.624093 0.823315 0.64434 0.10932
H_ H_ 0.871543 0.688267 0.630928 0.10932
H_ H_ 0.626405 0.829766 0.564267 0.10932
H_ H_ 0.875177 0.688433 0.555082 0.10932
H_ H_ 0.633054 0.696883 0.560475 0.10932
H_ H_ 0.880242 0.822048 0.561146 0.10932
C_ C_ 0.568658 0.847178 0.744079 -0.02249
C_ C_ 0.81549 0.849416 0.741234 -0.02249
C_ C_ 0.518025 0.962195 0.742438 -0.02249
C_ C_ 0.767761 0.966157 0.746502 -0.02249
C_ C_ 0.55028 0.908293 0.707796 -0.11473
C_ C_ 0.790972 0.909079 0.705331 -0.11473
C_ C_ 0.551615 0.859772 0.77769 -0.11473
C_ C_ 0.803575 0.864066 0.779968 -0.11473
C_ C_ 0.568062 0.872105 0.708755 -0.11473
C_ C_ 0.810148 0.872719 0.704022 -0.11473
C_ C_ 0.536072 0.922535 0.743242 -0.02249
C_ C_ 0.785473 0.926239 0.744332 -0.02249
C_ C_ 0.587681 0.808867 0.748461 0.6875
C_ C_ 0.836615 0.813936 0.741915 0.6875
C_ C_ 0.539415 0.899552 0.779772 -0.11473
C_ C_ 0.790382 0.902926 0.781877 -0.11473
C_ C_ 0.689563 0.850987 0.752224 -0.02249
C_ C_ 0.93725 0.844489 0.744543 -0.02249
C_ C_ 0.736716 0.966794 0.74318 -0.02249
C_ C_ 0.980656 0.963369 0.752686 -0.02249
C_ C_ 0.714428 0.908901 0.786936 -0.11473
C_ C_ 0.95112 0.907464 0.782931 -0.11473
C_ C_ 0.694973 0.870414 0.71304 -0.11473
C_ C_ 0.953276 0.859099 0.708103 -0.11473
C_ C_ 0.700663 0.869554 0.788876 -0.11473
C_ C_ 0.936993 0.868238 0.781651 -0.11473
C_ C_ 0.720516 0.927787 0.747125 -0.02249
C_ C_ 0.963539 0.92269 0.747606 -0.02249
C_ C_ 0.667089 0.814723 0.753914 0.6875
C_ C_ 0.915726 0.807574 0.744307 0.6875
C_ C_ 0.709687 0.908332 0.711167 -0.11473
C_ C_ 0.963192 0.899619 0.708393 -0.11473
C_ C_ 0.687882 0.654456 0.750736 -0.02249
C_ C_ 0.933413 0.652121 0.749572 -0.02249
C_ C_ 0.737395 0.541701 0.761901 -0.02249
C_ C_ 0.99059 0.543276 0.750411 -0.02249
C_ C_ 0.712397 0.603306 0.793559 -0.11473
C_ C_ 0.957607 0.594483 0.78738 -0.11473
C_ C_ 0.693968 0.630774 0.715378 -0.11473
C_ C_ 0.950504 0.641366 0.713188 -0.11473
C_ C_ 0.69509 0.640105 0.791472 -0.11473
C_ C_ 0.93921 0.629488 0.786265 -0.11473
C_ C_ 0.720327 0.581248 0.758961 -0.02249
C_ C_ 0.972587 0.583325 0.75141 -0.02249
C_ C_ 0.66941 0.69397 0.748362 0.6875
C_ C_ 0.915655 0.692373 0.748658 0.6875
C_ C_ 0.709056 0.59317 0.71966 -0.11473
C_ C_ 0.971484 0.609394 0.717138 -0.11473
C_ C_ 0.570426 0.651801 0.748113 -0.02249
C_ C_ 0.815903 0.656051 0.746574 -0.02249
C_ C_ 0.515286 0.541955 0.743374 -0.02249
C_ C_ 0.768482 0.539932 0.759742 -0.02249
C_ C_ 0.541528 0.599391 0.707716 -0.11473
C_ C_ 0.787221 0.598241 0.716726 -0.11473
C_ C_ 0.558796 0.635357 0.784718 -0.11473
C_ C_ 0.816198 0.634628 0.786445 -0.11473
C_ C_ 0.562318 0.632244 0.708807 -0.11473
C_ C_ 0.803288 0.636587 0.712541 -0.11473
C_ C_ 0.53266 0.581209 0.745787 -0.02249
C_ C_ 0.785061 0.578866 0.756524 -0.02249
C_ C_ 0.589494 0.690001 0.745401 0.6875
C_ C_ 0.832632 0.696341 0.74272 0.6875
C_ C_ 0.540197 0.600925 0.785228 -0.11473
C_ C_ 0.799047 0.597438 0.791306 -0.11473
C_ C_ 0.656798 0.746427 0.874719 0.17695
C_ C_ 0.876382 0.710074 0.869079 0.17695
C_ C_ 0.60361 0.75236 0.875135 0.17695
C_ C_ 0.881037 0.782101 0.875184 0.17695
C_ C_ 0.603553 0.748176 0.919095 -0.11473
C_ C_ 0.879953 0.776855 0.919711 -0.11473
C_ C_ 0.631964 0.749065 0.941462 0.23465
C_ C_ 0.877057 0.738955 0.936995 0.23465
C_ C_ 0.658363 0.753965 0.918374 -0.11473
C_ C_ 0.878344 0.705412 0.912226 -0.11473
C_ C_ 0.626833 0.72447 0.620285 0.17695
C_ C_ 0.875188 0.790357 0.618444 0.17695
C_ C_ 0.62794 0.79733 0.624201 0.17695
C_ C_ 0.873658 0.717002 0.615537 0.17695
C_ C_ 0.627951 0.800682 0.57895 -0.11473
C_ C_ 0.876762 0.717474 0.572572 -0.11473
C_ C_ 0.630524 0.763999 0.554903 0.23465
C_ C_ 0.878327 0.755563 0.551198 0.23465
C_ C_ 0.627138 0.7256 0.576189 -0.11473
C_ C_ 0.876992 0.79291 0.575713 -0.11473
C_ C_ 0.533231 0.00164648 0.73849 0.05793
C_ C_ 0.784534 0.00326841 0.746583 0.05793
C_ C_ 0.720704 0.503696 0.759662 0.05793
C_ C_ 0.974769 0.506509 0.742653 0.05793
Br Br 0.577339 -0.0015579999999999483 0.735946 -0.17191
Br Br 0.827737 0.997414 0.745828 -0.17191
Br Br 0.677463 0.506062 0.764614 -0.17191
Br Br 0.935068 0.506465 0.715249 -0.17191
N_ N_ 0.629964 0.751524 0.853626 -0.272
N_ N_ 0.879655 0.746978 0.851453 -0.272
N_ N_ 0.634335 0.755469 0.986475 -0.12501
N_ N_ 0.878287 0.732532 0.982652 -0.12501
N_ N_ 0.628074 0.759998 0.642969 -0.272
N_ N_ 0.872853 0.753017 0.637567 -0.272
N_ N_ 0.631897 0.767492 0.508569 -0.12501
N_ N_ 0.882578 0.758413 0.507234 -0.12501
O_ O_ 0.596729 0.792826 0.714557 -0.60745
O_ O_ 0.842658 0.795363 0.707347 -0.60745
O_ O_ 0.599582 0.799296 0.7847 -0.60745
O_ O_ 0.846247 0.799035 0.776346 -0.60745
O_ O_ 0.66077 0.798103 0.787871 -0.60745
O_ O_ 0.909903 0.788259 0.778252 -0.60745
O_ O_ 0.65999 0.798109 0.719104 -0.60745
O_ O_ 0.904644 0.79528 0.70968 -0.60745
O_ O_ 0.656567 0.708838 0.780711 -0.60745
O_ O_ 0.90371 0.706209 0.781147 -0.60745
O_ O_ 0.663344 0.710853 0.713254 -0.60745
O_ O_ 0.906586 0.70522 0.713252 -0.60745
O_ O_ 0.600279 0.700337 0.710273 -0.60745
O_ O_ 0.843312 0.707725 0.707512 -0.60745
O_ O_ 0.594243 0.713179 0.778192 -0.60745
O_ O_ 0.842005 0.71383 0.775075 -0.60745
