_cell_length_a 44.444
_cell_length_b 32.3360000049186
_cell_length_c 31.843999878906452
_cell_angle_alpha 89.99799923859553
_cell_angle_beta 91.13600050494348
_cell_angle_gamma 89.9990006550086
_symmetry_space_group_name_H-M         'P 1'
_symmetry_Int_Tables_number            1
loop_
_symmetry_equiv_pos_as_xyz
   'x, y, z'
                         
loop_
_atom_site_label
_atom_site_type_symbol
_atom_site_fract_x 
_atom_site_fract_y
_atom_site_fract_z
_atom_site_charge
Zn Zn 0.125518 0.250889 0.281297 0.9476
Zn Zn 0.375993 0.247088 0.282814 0.9476
Zn Zn 0.121338 0.247693 0.212074 0.9476
Zn Zn 0.376228 0.245112 0.212075 0.9476
H_ H_ 0.0493847 0.438224 0.193069 0.10932
H_ H_ 0.297579 0.423128 0.184368 0.10932
H_ H_ 0.0523459 0.338327 0.316249 0.10932
H_ H_ 0.298953 0.329772 0.31148 0.10932
H_ H_ 0.0708249 0.366627 0.182878 0.10932
H_ H_ 0.33069 0.359431 0.187544 0.10932
H_ H_ 0.0285073 0.405337 0.320644 0.10932
H_ H_ 0.273654 0.400132 0.31662 0.10932
H_ H_ 0.19903 0.428662 0.307544 0.10932
H_ H_ 0.446315 0.434853 0.306231 0.10932
H_ H_ 0.200394 0.329263 0.188202 0.10932
H_ H_ 0.442151 0.336868 0.180478 0.10932
H_ H_ 0.168433 0.369636 0.308357 0.10932
H_ H_ 0.42419 0.367464 0.310972 0.10932
H_ H_ 0.230097 0.392579 0.182701 0.10932
H_ H_ 0.471711 0.40685 0.180041 0.10932
H_ H_ 0.204224 0.0779881 0.317114 0.10932
H_ H_ 0.467186 0.078602 0.308835 0.10932
H_ H_ 0.18855 0.150059 0.182864 0.10932
H_ H_ 0.447645 0.157844 0.179832 0.10932
H_ H_ 0.183659 0.146588 0.317637 0.10932
H_ H_ 0.438964 0.141014 0.311333 0.10932
H_ H_ 0.226425 0.087125 0.190074 0.10932
H_ H_ 0.479392 0.0929432 0.176543 0.10932
H_ H_ 0.0303263 0.078654 0.189278 0.10932
H_ H_ 0.295178 0.0711468 0.180556 0.10932
H_ H_ 0.0759186 0.141307 0.313016 0.10932
H_ H_ 0.310111 0.152267 0.312592 0.10932
H_ H_ 0.0560796 0.143492 0.181891 0.10932
H_ H_ 0.334508 0.123154 0.185795 0.10932
H_ H_ 0.0397816 0.082608 0.323196 0.10932
H_ H_ 0.27438 0.0939408 0.311271 0.10932
H_ H_ 0.120006 0.309533 0.352213 0.10932
H_ H_ 0.357684 0.305447 0.355379 0.10932
H_ H_ 0.129162 0.180755 0.36045 0.10932
H_ H_ 0.408147 0.193981 0.359737 0.10932
H_ H_ 0.132271 0.184478 0.438341 0.10932
H_ H_ 0.406992 0.192341 0.435933 0.10932
H_ H_ 0.117977 0.31888 0.429457 0.10932
H_ H_ 0.358815 0.307742 0.432252 0.10932
H_ H_ 0.126489 0.310566 0.137048 0.10932
H_ H_ 0.425686 0.264654 0.133377 0.10932
H_ H_ 0.119493 0.179924 0.140581 0.10932
H_ H_ 0.331155 0.227906 0.135257 0.10932
H_ H_ 0.12661 0.177063 0.0625207 0.10932
H_ H_ 0.334653 0.215649 0.0579678 0.10932
H_ H_ 0.120693 0.30954 0.0600666 0.10932
H_ H_ 0.424146 0.26494 0.0583398 0.10932
C_ C_ 0.0649498 0.347033 0.247287 -0.02249
C_ C_ 0.315918 0.342848 0.248875 -0.02249
C_ C_ 0.0141097 0.462539 0.257843 -0.02249
C_ C_ 0.266021 0.45557 0.250213 -0.02249
C_ C_ 0.0475113 0.414017 0.217793 -0.11473
C_ C_ 0.297612 0.404121 0.213542 -0.11473
C_ C_ 0.0510461 0.358359 0.286851 -0.11473
C_ C_ 0.30008 0.353448 0.286781 -0.11473
C_ C_ 0.061129 0.374668 0.213411 -0.11473
C_ C_ 0.315617 0.368231 0.213509 -0.11473
C_ C_ 0.0338406 0.423971 0.254907 -0.02249
C_ C_ 0.282452 0.416008 0.249501 -0.02249
C_ C_ 0.084551 0.309387 0.245201 0.6875
C_ C_ 0.336451 0.305368 0.25016 0.6875
C_ C_ 0.0348325 0.395003 0.288891 -0.11473
C_ C_ 0.285783 0.391296 0.288249 -0.11473
C_ C_ 0.181418 0.346335 0.245923 -0.02249
C_ C_ 0.430129 0.346887 0.246309 -0.02249
C_ C_ 0.23457 0.456116 0.241672 -0.02249
C_ C_ 0.479363 0.463198 0.243142 -0.02249
C_ C_ 0.201759 0.408393 0.282302 -0.11473
C_ C_ 0.445665 0.414425 0.277669 -0.11473
C_ C_ 0.200198 0.352514 0.213012 -0.11473
C_ C_ 0.444601 0.359115 0.207457 -0.11473
C_ C_ 0.184385 0.372843 0.282974 -0.11473
C_ C_ 0.430738 0.376118 0.280737 -0.11473
C_ C_ 0.218767 0.417453 0.243999 -0.02249
C_ C_ 0.461146 0.425355 0.241956 -0.02249
C_ C_ 0.163682 0.307844 0.247515 0.6875
C_ C_ 0.412595 0.308908 0.248781 0.6875
C_ C_ 0.214147 0.390574 0.208337 -0.11473
C_ C_ 0.458761 0.399734 0.206446 -0.11473
C_ C_ 0.181503 0.15006 0.250063 -0.02249
C_ C_ 0.439533 0.154514 0.245548 -0.02249
C_ C_ 0.233086 0.0361042 0.252738 -0.02249
C_ C_ 0.488017 0.0360204 0.240408 -0.02249
C_ C_ 0.204653 0.0943476 0.287874 -0.11473
C_ C_ 0.462692 0.093608 0.278709 -0.11473
C_ C_ 0.194976 0.133459 0.212636 -0.11473
C_ C_ 0.451264 0.139245 0.208116 -0.11473
C_ C_ 0.190657 0.132832 0.288276 -0.11473
C_ C_ 0.447365 0.131619 0.282033 -0.11473
C_ C_ 0.214252 0.0752343 0.250357 -0.02249
C_ C_ 0.471946 0.0770563 0.241138 -0.02249
C_ C_ 0.164309 0.189921 0.248139 0.6875
C_ C_ 0.418467 0.18929 0.244201 0.6875
C_ C_ 0.209983 0.0953682 0.213822 -0.11473
C_ C_ 0.469585 0.102821 0.206432 -0.11473
C_ C_ 0.0647687 0.151468 0.248272 -0.02249
C_ C_ 0.321063 0.146876 0.247995 -0.02249
C_ C_ 0.0158856 0.0374839 0.258506 -0.02249
C_ C_ 0.265238 0.0379786 0.250649 -0.02249
C_ C_ 0.0374091 0.0951012 0.216634 -0.11473
C_ C_ 0.297297 0.0889134 0.211002 -0.11473
C_ C_ 0.0619322 0.132337 0.286883 -0.11473
C_ C_ 0.305449 0.135407 0.284081 -0.11473
C_ C_ 0.0512994 0.132842 0.212983 -0.11473
C_ C_ 0.317691 0.122055 0.211643 -0.11473
C_ C_ 0.0302936 0.0792517 0.254747 -0.02249
C_ C_ 0.280636 0.0784594 0.246137 -0.02249
C_ C_ 0.0828234 0.190098 0.244051 0.6875
C_ C_ 0.341232 0.183742 0.246883 0.6875
C_ C_ 0.041381 0.0985178 0.29157 -0.11473
C_ C_ 0.285381 0.102924 0.282403 -0.11473
C_ C_ 0.120611 0.282913 0.37205 0.17695
C_ C_ 0.36524 0.277212 0.373362 0.17695
C_ C_ 0.122894 0.209025 0.376148 0.17695
C_ C_ 0.394442 0.217583 0.375178 0.17695
C_ C_ 0.124756 0.210971 0.420723 -0.11473
C_ C_ 0.394503 0.215805 0.419451 -0.11473
C_ C_ 0.122091 0.250759 0.440795 0.23465
C_ C_ 0.382269 0.249412 0.44055 0.23465
C_ C_ 0.119324 0.286726 0.416327 -0.11473
C_ C_ 0.369033 0.280668 0.41671 -0.11473
C_ C_ 0.12801 0.280865 0.12008 0.17695
C_ C_ 0.403615 0.256291 0.118668 0.17695
C_ C_ 0.125487 0.207324 0.122699 0.17695
C_ C_ 0.353762 0.230858 0.118772 0.17695
C_ C_ 0.124714 0.206251 0.0777355 -0.11473
C_ C_ 0.354469 0.223976 0.0746201 -0.11473
C_ C_ 0.122796 0.24114 0.0548193 0.23465
C_ C_ 0.378724 0.237631 0.0520622 0.23465
C_ C_ 0.122521 0.280744 0.0758269 -0.11473
C_ C_ 0.403954 0.254199 0.0750126 -0.11473
C_ C_ 0.0289084 0.500703 0.264532 0.05793
C_ C_ 0.281939 0.494087 0.25627 0.05793
C_ C_ 0.218184 -0.003506000000000009 0.255392 0.05793
C_ C_ 0.470843 0.999882154 0.245908 0.05793
Br Br 0.0706292 0.501334 0.288719 -0.17191
Br Br 0.325143 0.495286 0.269645 -0.17191
Br Br 0.174081 -0.0043919999999999515 0.256822 -0.17191
Br Br 0.427933 1.00386187 0.240167 -0.17191
N_ N_ 0.121179 0.244691 0.353958 -0.272
N_ N_ 0.380042 0.246874 0.352532 -0.272
N_ N_ 0.126931 0.255285 0.486453 -0.12501
N_ N_ 0.388084 0.255496 0.484547 -0.12501
N_ N_ 0.125485 0.243806 0.142319 -0.272
N_ N_ 0.377636 0.24688 0.140248 -0.272
N_ N_ 0.116978 0.239045 0.0104797 -0.12501
N_ N_ 0.376938 0.237549 0.00683341 -0.12501
O_ O_ 0.0928691 0.294945 0.209198 -0.60745
O_ O_ 0.342403 0.287102 0.216882 -0.60745
O_ O_ 0.0927391 0.292771 0.280395 -0.60745
O_ O_ 0.342719 0.287815 0.285075 -0.60745
O_ O_ 0.152966 0.296621 0.282118 -0.60745
O_ O_ 0.403912 0.293982 0.282797 -0.60745
O_ O_ 0.154909 0.289385 0.214351 -0.60745
O_ O_ 0.405293 0.290844 0.21601 -0.60745
O_ O_ 0.157798 0.208569 0.28207 -0.60745
O_ O_ 0.410128 0.20336 0.278865 -0.60745
O_ O_ 0.151389 0.200745 0.213865 -0.60745
O_ O_ 0.405439 0.20035 0.210716 -0.60745
O_ O_ 0.0890138 0.203712 0.208008 -0.60745
O_ O_ 0.343796 0.20183 0.211256 -0.60745
O_ O_ 0.0960319 0.206346 0.277353 -0.60745
O_ O_ 0.350119 0.200823 0.280183 -0.60745
Zn Zn 0.123168 0.248695 0.784134 0.9476
Zn Zn 0.376584 0.253115 0.784545 0.9476
Zn Zn 0.124287 0.247088 0.713958 0.9476
Zn Zn 0.375244 0.253224 0.71376 0.9476
H_ H_ 0.0362424 0.414093 0.679518 0.10932
H_ H_ 0.281954 0.4173 0.67895 0.10932
H_ H_ 0.0602871 0.351175 0.817265 0.10932
H_ H_ 0.310739 0.351248 0.813767 0.10932
H_ H_ 0.0605813 0.349024 0.68249 0.10932
H_ H_ 0.31967 0.361648 0.68313 0.10932
H_ H_ 0.034747 0.418181 0.810937 0.10932
H_ H_ 0.279552 0.413257 0.815318 0.10932
H_ H_ 0.210791 0.418205 0.817357 0.10932
H_ H_ 0.466314 0.421798 0.813619 0.10932
H_ H_ 0.18179 0.354732 0.677259 0.10932
H_ H_ 0.444444 0.34782 0.680978 0.10932
H_ H_ 0.187949 0.347173 0.813957 0.10932
H_ H_ 0.429462 0.366417 0.815888 0.10932
H_ H_ 0.211544 0.422035 0.681425 0.10932
H_ H_ 0.478535 0.406052 0.67847 0.10932
H_ H_ 0.225152 0.103028 0.819364 0.10932
H_ H_ 0.455604 0.0786448 0.819815 0.10932
H_ H_ 0.166233 0.123481 0.688612 0.10932
H_ H_ 0.43412 0.148331 0.679098 0.10932
H_ H_ 0.199442 0.166417 0.80878 0.10932
H_ H_ 0.42922 0.143648 0.814842 0.10932
H_ H_ 0.206195 0.0650803 0.692289 0.10932
H_ H_ 0.470309 0.089441 0.682558 0.10932
H_ H_ 0.0404961 0.0770922 0.684248 0.10932
H_ H_ 0.277081 0.0897446 0.684923 0.10932
H_ H_ 0.0573057 0.150396 0.818938 0.10932
H_ H_ 0.322752 0.141223 0.817573 0.10932
H_ H_ 0.0596802 0.149434 0.683144 0.10932
H_ H_ 0.305081 0.154949 0.686552 0.10932
H_ H_ 0.0310607 0.0836635 0.816828 0.10932
H_ H_ 0.288744 0.0859076 0.821689 0.10932
H_ H_ 0.152836 0.307005 0.852311 0.10932
H_ H_ 0.3933 0.314651 0.855997 0.10932
H_ H_ 0.109644 0.190889 0.86006 0.10932
H_ H_ 0.372219 0.187436 0.861161 0.10932
H_ H_ 0.106031 0.196794 0.935202 0.10932
H_ H_ 0.382724 0.187001 0.936324 0.10932
H_ H_ 0.149316 0.314756 0.929691 0.10932
H_ H_ 0.397748 0.316238 0.932382 0.10932
H_ H_ 0.0757268 0.237909 0.650666 0.10932
H_ H_ 0.368255 0.18235 0.639268 0.10932
H_ H_ 0.166898 0.248596 0.635433 0.10932
H_ H_ 0.366756 0.313085 0.634334 0.10932
H_ H_ 0.162023 0.255574 0.558214 0.10932
H_ H_ 0.376616 0.311823 0.556809 0.10932
H_ H_ 0.0673057 0.236756 0.572038 0.10932
H_ H_ 0.362504 0.178919 0.563112 0.10932
C_ C_ 0.0641736 0.344997 0.748793 -0.02249
C_ C_ 0.316889 0.350588 0.748173 -0.02249
C_ C_ 0.0132645 0.460742 0.745734 -0.02249
C_ C_ 0.26358 0.46122 0.744387 -0.02249
C_ C_ 0.040619 0.399825 0.709729 -0.11473
C_ C_ 0.287914 0.401413 0.709423 -0.11473
C_ C_ 0.0560081 0.366218 0.787718 -0.11473
C_ C_ 0.305531 0.364957 0.78512 -0.11473
C_ C_ 0.0555627 0.362293 0.711446 -0.11473
C_ C_ 0.308095 0.369317 0.709568 -0.11473
C_ C_ 0.0310439 0.419829 0.746238 -0.02249
C_ C_ 0.278848 0.421653 0.746691 -0.02249
C_ C_ 0.08162 0.30478 0.750637 0.6875
C_ C_ 0.338515 0.313931 0.749086 0.6875
C_ C_ 0.038075 0.401454 0.784695 -0.11473
C_ C_ 0.288176 0.403175 0.784864 -0.11473
C_ C_ 0.182974 0.346842 0.745735 -0.02249
C_ C_ 0.432998 0.353713 0.745666 -0.02249
C_ C_ 0.232355 0.462588 0.748701 -0.02249
C_ C_ 0.489055 0.463515 0.745659 -0.02249
C_ C_ 0.205472 0.404484 0.786169 -0.11473
C_ C_ 0.458926 0.409476 0.783778 -0.11473
C_ C_ 0.190569 0.366797 0.708035 -0.11473
C_ C_ 0.447667 0.365238 0.709013 -0.11473
C_ C_ 0.191484 0.364628 0.783502 -0.11473
C_ C_ 0.438703 0.376529 0.783505 -0.11473
C_ C_ 0.215012 0.422462 0.74963 -0.02249
C_ C_ 0.471428 0.423208 0.746032 -0.02249
C_ C_ 0.164475 0.307128 0.745311 0.6875
C_ C_ 0.414614 0.31583 0.746204 0.6875
C_ C_ 0.205872 0.404655 0.711308 -0.11473
C_ C_ 0.467635 0.398066 0.709259 -0.11473
C_ C_ 0.182723 0.151995 0.744266 -0.02249
C_ C_ 0.429843 0.151594 0.747487 -0.02249
C_ C_ 0.234977 0.0403753 0.760298 -0.02249
C_ C_ 0.48056 0.0401384 0.755383 -0.02249
C_ C_ 0.215998 0.108709 0.789464 -0.11473
C_ C_ 0.453319 0.0954384 0.788362 -0.11473
C_ C_ 0.183509 0.122 0.712863 -0.11473
C_ C_ 0.439925 0.134694 0.710487 -0.11473
C_ C_ 0.198561 0.144414 0.783556 -0.11473
C_ C_ 0.434925 0.130071 0.785497 -0.11473
C_ C_ 0.217015 0.078843 0.756798 -0.02249
C_ C_ 0.466127 0.0791512 0.752073 -0.02249
C_ C_ 0.161055 0.187007 0.742404 0.6875
C_ C_ 0.413032 0.191626 0.747449 0.6875
C_ C_ 0.203707 0.0885545 0.717427 -0.11473
C_ C_ 0.458948 0.0989507 0.712623 -0.11473
C_ C_ 0.0629235 0.153291 0.750283 -0.02249
C_ C_ 0.319924 0.15246 0.749359 -0.02249
C_ C_ 0.0131057 0.0393618 0.748603 -0.02249
C_ C_ 0.266309 0.0413311 0.755025 -0.02249
C_ C_ 0.0409994 0.0970473 0.711462 -0.11473
C_ C_ 0.287088 0.101743 0.714858 -0.11473
C_ C_ 0.0544073 0.134576 0.789655 -0.11473
C_ C_ 0.313949 0.130862 0.787815 -0.11473
C_ C_ 0.0595131 0.131342 0.71313 -0.11473
C_ C_ 0.30669 0.135918 0.711904 -0.11473
C_ C_ 0.0298466 0.0797363 0.749137 -0.02249
C_ C_ 0.283454 0.0804272 0.753396 -0.02249
C_ C_ 0.0810689 0.191892 0.751375 0.6875
C_ C_ 0.339538 0.189219 0.749569 0.6875
C_ C_ 0.0377441 0.098468 0.788398 -0.11473
C_ C_ 0.292559 0.100363 0.789476 -0.11473
C_ C_ 0.14009 0.284158 0.871727 0.17695
C_ C_ 0.389698 0.285905 0.873333 0.17695
C_ C_ 0.114059 0.221518 0.875416 0.17695
C_ C_ 0.377686 0.214335 0.877662 0.17695
C_ C_ 0.11227 0.224847 0.918256 -0.11473
C_ C_ 0.383525 0.215764 0.921036 -0.11473
C_ C_ 0.124518 0.260369 0.940093 0.23465
C_ C_ 0.392785 0.252018 0.94028 0.23465
C_ C_ 0.13759 0.29022 0.915454 -0.11473
C_ C_ 0.395079 0.286571 0.915904 -0.11473
C_ C_ 0.0935732 0.247227 0.628615 0.17695
C_ C_ 0.366545 0.210731 0.621116 0.17695
C_ C_ 0.146071 0.252549 0.619592 0.17695
C_ C_ 0.36962 0.284281 0.61859 0.17695
C_ C_ 0.142622 0.253843 0.576875 -0.11473
C_ C_ 0.372298 0.283276 0.572735 -0.11473
C_ C_ 0.113691 0.249031 0.557996 0.23465
C_ C_ 0.374231 0.244633 0.55411 0.23465
C_ C_ 0.089293 0.244888 0.584366 -0.11473
C_ C_ 0.367778 0.209082 0.578011 -0.11473
C_ C_ 0.0306204 0.497607 0.743674 0.05793
C_ C_ 0.280585 0.499381 0.746277 0.05793
C_ C_ 0.218999 0.00199059 0.763028 0.05793
C_ C_ 0.464347 1.00217497 0.753107 0.05793
Br Br 0.0714992 0.4956 0.730775 -0.17191
Br Br 0.324002 0.499352 0.752268 -0.17191
Br Br 0.176386 -0.0013490000000000446 0.765996 -0.17191
Br Br 0.421787 1.00397378 0.741977 -0.17191
N_ N_ 0.128409 0.250157 0.852415 -0.272
N_ N_ 0.380894 0.250909 0.855667 -0.272
N_ N_ 0.127472 0.264428 0.984989 -0.12501
N_ N_ 0.395776 0.254796 0.984596 -0.12501
N_ N_ 0.121875 0.251579 0.644603 -0.272
N_ N_ 0.371168 0.248101 0.641346 -0.272
N_ N_ 0.110558 0.240154 0.514087 -0.12501
N_ N_ 0.370084 0.241712 0.510426 -0.12501
O_ O_ 0.0916944 0.288948 0.71687 -0.60745
O_ O_ 0.345632 0.295459 0.714745 -0.60745
O_ O_ 0.0920196 0.29299 0.785984 -0.60745
O_ O_ 0.345556 0.296419 0.782961 -0.60745
O_ O_ 0.156446 0.291616 0.781085 -0.60745
O_ O_ 0.407836 0.299009 0.781789 -0.60745
O_ O_ 0.154894 0.291259 0.711243 -0.60745
O_ O_ 0.4079 0.295888 0.71292 -0.60745
O_ O_ 0.151162 0.201059 0.775634 -0.60745
O_ O_ 0.408642 0.209651 0.78269 -0.60745
O_ O_ 0.154581 0.203372 0.706867 -0.60745
O_ O_ 0.405433 0.208812 0.713638 -0.60745
O_ O_ 0.0900745 0.210319 0.718272 -0.60745
O_ O_ 0.343252 0.207824 0.715695 -0.60745
O_ O_ 0.0907256 0.203966 0.786573 -0.60745
O_ O_ 0.347592 0.207448 0.784194 -0.60745
Zn Zn 0.127601 0.74176 0.283713 0.9476
Zn Zn 0.375298 0.751251 0.282303 0.9476
Zn Zn 0.123479 0.747125 0.216542 0.9476
Zn Zn 0.374361 0.746145 0.214197 0.9476
H_ H_ 0.0362679 0.919565 0.194456 0.10932
H_ H_ 0.285054 0.919245 0.187122 0.10932
H_ H_ 0.0780037 0.856877 0.321939 0.10932
H_ H_ 0.304463 0.842213 0.319452 0.10932
H_ H_ 0.0705322 0.861586 0.187917 0.10932
H_ H_ 0.320531 0.85771 0.190066 0.10932
H_ H_ 0.041024 0.916193 0.328715 0.10932
H_ H_ 0.277035 0.91033 0.318397 0.10932
H_ H_ 0.201206 0.926011 0.316458 0.10932
H_ H_ 0.472917 0.911555 0.317596 0.10932
H_ H_ 0.199586 0.842845 0.185681 0.10932
H_ H_ 0.424578 0.863079 0.184723 0.10932
H_ H_ 0.180129 0.854592 0.317912 0.10932
H_ H_ 0.443757 0.845986 0.317407 0.10932
H_ H_ 0.219418 0.912776 0.186594 0.10932
H_ H_ 0.453656 0.925215 0.18498 0.10932
H_ H_ 0.210834 0.572232 0.311597 0.10932
H_ H_ 0.462257 0.583989 0.309148 0.10932
H_ H_ 0.181356 0.642105 0.180841 0.10932
H_ H_ 0.435375 0.651094 0.175943 0.10932
H_ H_ 0.182185 0.632904 0.314288 0.10932
H_ H_ 0.436778 0.64785 0.310605 0.10932
H_ H_ 0.207789 0.575755 0.177421 0.10932
H_ H_ 0.463359 0.588341 0.174084 0.10932
H_ H_ 0.0582966 0.559255 0.19968 0.10932
H_ H_ 0.296517 0.566014 0.186614 0.10932
H_ H_ 0.0406513 0.669802 0.305547 0.10932
H_ H_ 0.304797 0.655556 0.31454 0.10932
H_ H_ 0.0816738 0.624852 0.192832 0.10932
H_ H_ 0.329749 0.628012 0.184715 0.10932
H_ H_ 0.0168099 0.59925 0.312896 0.10932
H_ H_ 0.274135 0.5913 0.311988 0.10932
H_ H_ 0.125095 0.805451 0.367812 0.10932
H_ H_ 0.364147 0.68002 0.35366 0.10932
H_ H_ 0.131105 0.671686 0.357565 0.10932
H_ H_ 0.386776 0.80891 0.36131 0.10932
H_ H_ 0.129167 0.66877 0.433434 0.10932
H_ H_ 0.384448 0.807119 0.437582 0.10932
H_ H_ 0.117037 0.797608 0.443359 0.10932
H_ H_ 0.357419 0.678717 0.428049 0.10932
H_ H_ 0.169751 0.742718 0.141958 0.10932
H_ H_ 0.379061 0.68593 0.137641 0.10932
H_ H_ 0.0749549 0.758476 0.141762 0.10932
H_ H_ 0.355762 0.812298 0.144963 0.10932
H_ H_ 0.0732325 0.740868 0.0607337 0.10932
H_ H_ 0.357945 0.818223 0.0644596 0.10932
H_ H_ 0.168294 0.737852 0.0620706 0.10932
H_ H_ 0.366665 0.685753 0.0581523 0.10932
C_ C_ 0.0695897 0.846884 0.256114 -0.02249
C_ C_ 0.313538 0.845269 0.254283 -0.02249
C_ C_ 0.0179123 0.96224 0.261602 -0.02249
C_ C_ 0.26511 0.961194 0.25228 -0.02249
C_ C_ 0.0444958 0.904361 0.221551 -0.11473
C_ C_ 0.289731 0.90329 0.214622 -0.11473
C_ C_ 0.0655182 0.867534 0.294571 -0.11473
C_ C_ 0.301075 0.860676 0.291047 -0.11473
C_ C_ 0.0654273 0.872789 0.220313 -0.11473
C_ C_ 0.306807 0.865682 0.216468 -0.11473
C_ C_ 0.0356117 0.922829 0.260193 -0.02249
C_ C_ 0.281725 0.92119 0.251655 -0.02249
C_ C_ 0.0902775 0.808033 0.251422 0.6875
C_ C_ 0.331909 0.80759 0.254801 0.6875
C_ C_ 0.0492662 0.904523 0.296929 -0.11473
C_ C_ 0.285087 0.898223 0.289726 -0.11473
C_ C_ 0.187095 0.841493 0.252474 -0.02249
C_ C_ 0.434614 0.845887 0.24846 -0.02249
C_ C_ 0.233741 0.959968 0.25516 -0.02249
C_ C_ 0.485151 0.962141 0.249505 -0.02249
C_ C_ 0.202514 0.904325 0.290369 -0.11473
C_ C_ 0.463447 0.900327 0.28749 -0.11473
C_ C_ 0.203088 0.857956 0.216965 -0.11473
C_ C_ 0.434489 0.872985 0.213502 -0.11473
C_ C_ 0.18845 0.865927 0.289303 -0.11473
C_ C_ 0.448827 0.861433 0.286814 -0.11473
C_ C_ 0.217096 0.919985 0.254663 -0.02249
C_ C_ 0.467056 0.922537 0.251087 -0.02249
C_ C_ 0.170089 0.800873 0.24895 0.6875
C_ C_ 0.412775 0.808388 0.250043 0.6875
C_ C_ 0.213733 0.898829 0.216635 -0.11473
C_ C_ 0.453358 0.907805 0.213964 -0.11473
C_ C_ 0.184093 0.648385 0.247611 -0.02249
C_ C_ 0.432678 0.654598 0.243082 -0.02249
C_ C_ 0.235167 0.532567 0.242291 -0.02249
C_ C_ 0.481146 0.53908 0.243425 -0.02249
C_ C_ 0.2105 0.590537 0.284438 -0.11473
C_ C_ 0.457223 0.598834 0.27958 -0.11473
C_ C_ 0.191012 0.629786 0.209013 -0.11473
C_ C_ 0.43944 0.635649 0.20561 -0.11473
C_ C_ 0.193267 0.626306 0.285212 -0.11473
C_ C_ 0.440172 0.634006 0.281149 -0.11473
C_ C_ 0.217499 0.573063 0.244936 -0.02249
C_ C_ 0.464825 0.579304 0.242171 -0.02249
C_ C_ 0.167547 0.687273 0.250159 0.6875
C_ C_ 0.417751 0.695437 0.245055 0.6875
C_ C_ 0.207032 0.592441 0.207174 -0.11473
C_ C_ 0.455621 0.59887 0.205159 -0.11473
C_ C_ 0.0642133 0.651539 0.248272 -0.02249
C_ C_ 0.320406 0.645145 0.248211 -0.02249
C_ C_ 0.0137772 0.538432 0.257615 -0.02249
C_ C_ 0.26689 0.53176 0.251987 -0.02249
C_ C_ 0.0518708 0.583846 0.220528 -0.11473
C_ C_ 0.298893 0.583499 0.214198 -0.11473
C_ C_ 0.0450878 0.644724 0.282238 -0.11473
C_ C_ 0.304338 0.634581 0.284166 -0.11473
C_ C_ 0.0686594 0.620857 0.219845 -0.11473
C_ C_ 0.315696 0.620831 0.212745 -0.11473
C_ C_ 0.0323738 0.577351 0.253741 -0.02249
C_ C_ 0.283884 0.571738 0.249634 -0.02249
C_ C_ 0.0823886 0.690628 0.248565 0.6875
C_ C_ 0.339247 0.682921 0.24604 0.6875
C_ C_ 0.0293697 0.607761 0.284967 -0.11473
C_ C_ 0.28695 0.597537 0.285829 -0.11473
C_ C_ 0.126626 0.775359 0.381051 0.17695
C_ C_ 0.372754 0.707788 0.371957 0.17695
C_ C_ 0.130097 0.701674 0.374971 0.17695
C_ C_ 0.384304 0.780731 0.375947 0.17695
C_ C_ 0.129816 0.697547 0.419028 -0.11473
C_ C_ 0.381242 0.779353 0.419625 -0.11473
C_ C_ 0.128535 0.732279 0.445256 0.23465
C_ C_ 0.375336 0.742307 0.441147 0.23465
C_ C_ 0.12514 0.771183 0.425556 -0.11473
C_ C_ 0.369189 0.70676 0.416441 -0.11473
C_ C_ 0.148536 0.740729 0.123572 0.17695
C_ C_ 0.372091 0.714385 0.121865 0.17695
C_ C_ 0.0949914 0.748735 0.123224 0.17695
C_ C_ 0.361429 0.785249 0.126874 0.17695
C_ C_ 0.0943999 0.74868 0.0791495 -0.11473
C_ C_ 0.360304 0.788387 0.0820006 -0.11473
C_ C_ 0.121423 0.741257 0.0571731 0.23465
C_ C_ 0.368054 0.753084 0.0564313 0.23465
C_ C_ 0.148346 0.735837 0.0806141 -0.11473
C_ C_ 0.367584 0.713576 0.0775734 -0.11473
C_ C_ 0.0323059 1.00141782 0.262096 0.05793
C_ C_ 0.281382 0.999013915 0.250271 0.05793
C_ C_ 0.218244 0.494067 0.24208 0.05793
C_ C_ 0.464586 0.502469 0.247215 0.05793
Br Br 0.0734989 0.0101432 0.27697 -0.17191
Br Br 0.324753 0.998436 0.240099 -0.17191
Br Br 0.174293 0.495278 0.241162 -0.17191
Br Br 0.422716 0.504056 0.260588 -0.17191
N_ N_ 0.128629 0.740273 0.356458 -0.272
N_ N_ 0.3791 0.745547 0.353006 -0.272
N_ N_ 0.128997 0.726585 0.489492 -0.12501
N_ N_ 0.370463 0.740534 0.486105 -0.12501
N_ N_ 0.122887 0.744305 0.144516 -0.272
N_ N_ 0.368797 0.74898 0.14548 -0.272
N_ N_ 0.120848 0.733112 0.0126842 -0.12501
N_ N_ 0.373058 0.758705 0.0128621 -0.12501
O_ O_ 0.0974383 0.794652 0.214572 -0.60745
O_ O_ 0.338138 0.78784 0.220216 -0.60745
O_ O_ 0.0981002 0.786028 0.28363 -0.60745
O_ O_ 0.346105 0.79794 0.287906 -0.60745
O_ O_ 0.162499 0.783619 0.284086 -0.60745
O_ O_ 0.412037 0.785758 0.282587 -0.60745
O_ O_ 0.157955 0.78856 0.213548 -0.60745
O_ O_ 0.39739 0.797795 0.217058 -0.60745
O_ O_ 0.158165 0.703153 0.284274 -0.60745
O_ O_ 0.404162 0.703787 0.279158 -0.60745
O_ O_ 0.154656 0.70002 0.21639 -0.60745
O_ O_ 0.409764 0.713216 0.210298 -0.60745
O_ O_ 0.0878957 0.709446 0.213838 -0.60745
O_ O_ 0.349401 0.695548 0.211319 -0.60745
O_ O_ 0.0962367 0.699524 0.28196 -0.60745
O_ O_ 0.344531 0.704748 0.278514 -0.60745
Zn Zn 0.125462 0.75172 0.784803 0.9476
Zn Zn 0.373576 0.750044 0.784542 0.9476
Zn Zn 0.126826 0.752184 0.71748 0.9476
Zn Zn 0.374194 0.749165 0.714359 0.9476
H_ H_ 0.0232763 0.908444 0.683877 0.10932
H_ H_ 0.301963 0.933765 0.689141 0.10932
H_ H_ 0.0673381 0.85946 0.819666 0.10932
H_ H_ 0.30818 0.848217 0.815016 0.10932
H_ H_ 0.0514172 0.84062 0.682953 0.10932
H_ H_ 0.324938 0.86431 0.686934 0.10932
H_ H_ 0.0387618 0.927477 0.817021 0.10932
H_ H_ 0.284257 0.916693 0.817429 0.10932
H_ H_ 0.207606 0.926071 0.824272 0.10932
H_ H_ 0.46273 0.918391 0.824396 0.10932
H_ H_ 0.207968 0.839769 0.695395 0.10932
H_ H_ 0.423917 0.863211 0.691642 0.10932
H_ H_ 0.171823 0.869716 0.818693 0.10932
H_ H_ 0.438434 0.851098 0.820683 0.10932
H_ H_ 0.221547 0.913951 0.690415 0.10932
H_ H_ 0.450165 0.924835 0.688751 0.10932
H_ H_ 0.217891 0.579941 0.816963 0.10932
H_ H_ 0.469312 0.578909 0.813471 0.10932
H_ H_ 0.183074 0.644102 0.685285 0.10932
H_ H_ 0.438824 0.65091 0.681186 0.10932
H_ H_ 0.189267 0.648367 0.821365 0.10932
H_ H_ 0.435612 0.640533 0.81892 0.10932
H_ H_ 0.215606 0.582222 0.681599 0.10932
H_ H_ 0.473558 0.595332 0.679782 0.10932
H_ H_ 0.0401637 0.58268 0.680203 0.10932
H_ H_ 0.292734 0.574296 0.682527 0.10932
H_ H_ 0.0682951 0.64363 0.820369 0.10932
H_ H_ 0.319574 0.644173 0.81593 0.10932
H_ H_ 0.0621308 0.65143 0.682127 0.10932
H_ H_ 0.313082 0.643237 0.67918 0.10932
H_ H_ 0.0412748 0.575623 0.816059 0.10932
H_ H_ 0.284692 0.583556 0.818378 0.10932
H_ H_ 0.129207 0.815526 0.858578 0.10932
H_ H_ 0.377055 0.811903 0.873482 0.10932
H_ H_ 0.130348 0.67996 0.864799 0.10932
H_ H_ 0.368401 0.6847 0.849865 0.10932
H_ H_ 0.130575 0.686928 0.941494 0.10932
H_ H_ 0.359288 0.674565 0.92633 0.10932
H_ H_ 0.133124 0.819216 0.93529 0.10932
H_ H_ 0.376367 0.803352 0.945405 0.10932
H_ H_ 0.0999453 0.700102 0.640852 0.10932
H_ H_ 0.37339 0.819766 0.642899 0.10932
H_ H_ 0.158987 0.803863 0.643116 0.10932
H_ H_ 0.372901 0.691335 0.639204 0.10932
H_ H_ 0.160708 0.803729 0.569971 0.10932
H_ H_ 0.37286 0.691152 0.562773 0.10932
H_ H_ 0.104301 0.699587 0.563062 0.10932
H_ H_ 0.378486 0.822937 0.563307 0.10932
C_ C_ 0.0641433 0.846602 0.750602 -0.02249
C_ C_ 0.315432 0.849784 0.749907 -0.02249
C_ C_ 0.0145603 0.963498 0.747048 -0.02249
C_ C_ 0.2664 0.965074 0.752436 -0.02249
C_ C_ 0.0345992 0.897942 0.712244 -0.11473
C_ C_ 0.297164 0.912173 0.713393 -0.11473
C_ C_ 0.0579166 0.869262 0.790675 -0.11473
C_ C_ 0.302718 0.86391 0.7871 -0.11473
C_ C_ 0.0495245 0.858817 0.714077 -0.11473
C_ C_ 0.312917 0.872826 0.713193 -0.11473
C_ C_ 0.0330751 0.923339 0.748 -0.02249
C_ C_ 0.284222 0.926806 0.751473 -0.02249
C_ C_ 0.0837429 0.808616 0.752646 0.6875
C_ C_ 0.333031 0.810411 0.749687 0.6875
C_ C_ 0.0436585 0.909047 0.788312 -0.11473
C_ C_ 0.28768 0.902266 0.788363 -0.11473
C_ C_ 0.185059 0.84959 0.756242 -0.02249
C_ C_ 0.426487 0.852172 0.756959 -0.02249
C_ C_ 0.235107 0.964156 0.760484 -0.02249
C_ C_ 0.479478 0.963001 0.756157 -0.02249
C_ C_ 0.205086 0.908018 0.794449 -0.11473
C_ C_ 0.458177 0.902673 0.794724 -0.11473
C_ C_ 0.202994 0.861258 0.721581 -0.11473
C_ C_ 0.430948 0.874218 0.71995 -0.11473
C_ C_ 0.187798 0.872163 0.794368 -0.11473
C_ C_ 0.443594 0.863739 0.792662 -0.11473
C_ C_ 0.219493 0.923939 0.758355 -0.02249
C_ C_ 0.461195 0.924696 0.758054 -0.02249
C_ C_ 0.168708 0.810097 0.755091 0.6875
C_ C_ 0.408709 0.81271 0.75845 0.6875
C_ C_ 0.215906 0.90083 0.720793 -0.11473
C_ C_ 0.447173 0.910607 0.72016 -0.11473
C_ C_ 0.184473 0.652261 0.752225 -0.02249
C_ C_ 0.437344 0.654261 0.752448 -0.02249
C_ C_ 0.234994 0.537398 0.750558 -0.02249
C_ C_ 0.490101 0.538181 0.745829 -0.02249
C_ C_ 0.211267 0.59682 0.78985 -0.11473
C_ C_ 0.464118 0.596295 0.786191 -0.11473
C_ C_ 0.18984 0.629611 0.714218 -0.11473
C_ C_ 0.446921 0.639651 0.713256 -0.11473
C_ C_ 0.195914 0.636615 0.79055 -0.11473
C_ C_ 0.442392 0.628769 0.788982 -0.11473
C_ C_ 0.218234 0.578004 0.750955 -0.02249
C_ C_ 0.471493 0.578826 0.746448 -0.02249
C_ C_ 0.165438 0.690447 0.750496 0.6875
C_ C_ 0.413294 0.68798 0.751087 0.6875
C_ C_ 0.20777 0.593959 0.712675 -0.11473
C_ C_ 0.465443 0.60405 0.711228 -0.11473
C_ C_ 0.0678084 0.650618 0.750465 -0.02249
C_ C_ 0.31823 0.652164 0.747797 -0.02249
C_ C_ 0.0168924 0.537325 0.748586 -0.02249
C_ C_ 0.266375 0.537424 0.749776 -0.02249
C_ C_ 0.0416514 0.598214 0.711439 -0.11473
C_ C_ 0.295027 0.591593 0.711333 -0.11473
C_ C_ 0.0612043 0.630233 0.789076 -0.11473
C_ C_ 0.308908 0.633176 0.786898 -0.11473
C_ C_ 0.0579987 0.634404 0.711759 -0.11473
C_ C_ 0.309141 0.630299 0.710203 -0.11473
C_ C_ 0.0357462 0.57676 0.748215 -0.02249
C_ C_ 0.283784 0.576565 0.748283 -0.02249
C_ C_ 0.0886341 0.687277 0.752486 0.6875
C_ C_ 0.33426 0.692331 0.747593 0.6875
C_ C_ 0.0443191 0.593846 0.787129 -0.11473
C_ C_ 0.293219 0.595257 0.787459 -0.11473
C_ C_ 0.130198 0.786337 0.875495 0.17695
C_ C_ 0.374742 0.781996 0.883615 0.17695
C_ C_ 0.129089 0.712175 0.87879 0.17695
C_ C_ 0.370975 0.710462 0.872079 0.17695
C_ C_ 0.132767 0.714769 0.923519 -0.11473
C_ C_ 0.369032 0.703094 0.913953 -0.11473
C_ C_ 0.135562 0.752961 0.943875 0.23465
C_ C_ 0.370817 0.737183 0.942477 0.23465
C_ C_ 0.133075 0.788555 0.919678 -0.11473
C_ C_ 0.378436 0.776166 0.927301 -0.11473
C_ C_ 0.11194 0.724716 0.622669 0.17695
C_ C_ 0.374774 0.792462 0.623831 0.17695
C_ C_ 0.147523 0.779566 0.626426 0.17695
C_ C_ 0.373034 0.720873 0.621993 0.17695
C_ C_ 0.147853 0.780157 0.584347 -0.11473
C_ C_ 0.374609 0.720548 0.578509 -0.11473
C_ C_ 0.134071 0.750993 0.558394 0.23465
C_ C_ 0.379236 0.756923 0.55564 0.23465
C_ C_ 0.115091 0.722281 0.579587 -0.11473
C_ C_ 0.374703 0.793168 0.57943 -0.11473
C_ C_ 0.029779 0.00257029 0.7458 0.05793
C_ C_ 0.281576 0.00344435 0.749086 0.05793
C_ C_ 0.217762 0.500111 0.752418 0.05793
C_ C_ 0.474338 0.500509 0.749814 0.05793
Br Br 0.0736053 0.00429604 0.746542 -0.17191
Br Br 0.325119 0.00480199 0.746651 -0.17191
Br Br 0.175345 0.501845 0.747547 -0.17191
Br Br 0.432511 0.501801 0.746819 -0.17191
N_ N_ 0.126569 0.749089 0.855791 -0.272
N_ N_ 0.372777 0.749247 0.856437 -0.272
N_ N_ 0.134666 0.756061 0.988279 -0.12501
N_ N_ 0.36865 0.729824 0.987047 -0.12501
N_ N_ 0.129105 0.751622 0.64628 -0.272
N_ N_ 0.376666 0.755236 0.644433 -0.272
N_ N_ 0.131666 0.756358 0.513256 -0.12501
N_ N_ 0.386983 0.758636 0.512936 -0.12501
O_ O_ 0.0925678 0.792131 0.719383 -0.60745
O_ O_ 0.339809 0.792721 0.714085 -0.60745
O_ O_ 0.0940645 0.79752 0.789189 -0.60745
O_ O_ 0.343671 0.796114 0.783768 -0.60745
O_ O_ 0.159537 0.79459 0.7887 -0.60745
O_ O_ 0.405678 0.791822 0.791843 -0.60745
O_ O_ 0.155956 0.799665 0.719638 -0.60745
O_ O_ 0.399007 0.798736 0.723056 -0.60745
O_ O_ 0.155361 0.703931 0.784722 -0.60745
O_ O_ 0.403275 0.702223 0.784488 -0.60745
O_ O_ 0.160666 0.70896 0.7149 -0.60745
O_ O_ 0.406116 0.706049 0.717059 -0.60745
O_ O_ 0.0993669 0.702886 0.718985 -0.60745
O_ O_ 0.345534 0.70442 0.712046 -0.60745
O_ O_ 0.0958743 0.703338 0.788405 -0.60745
O_ O_ 0.341592 0.711216 0.782372 -0.60745
Zn Zn 0.623105 0.254801 0.281226 0.9476
Zn Zn 0.876841 0.248875 0.287535 0.9476
Zn Zn 0.621814 0.251591 0.209579 0.9476
Zn Zn 0.874181 0.249534 0.215496 0.9476
H_ H_ 0.532657 0.420694 0.171191 0.10932
H_ H_ 0.775016 0.408377 0.193726 0.10932
H_ H_ 0.549047 0.346936 0.304998 0.10932
H_ H_ 0.829152 0.365068 0.320633 0.10932
H_ H_ 0.563721 0.357622 0.174194 0.10932
H_ H_ 0.801229 0.340639 0.194196 0.10932
H_ H_ 0.532439 0.418394 0.302309 0.10932
H_ H_ 0.792316 0.425982 0.323868 0.10932
H_ H_ 0.724563 0.414196 0.311307 0.10932
H_ H_ 0.943786 0.439012 0.306963 0.10932
H_ H_ 0.672991 0.366459 0.178702 0.10932
H_ H_ 0.951169 0.33539 0.193559 0.10932
H_ H_ 0.693992 0.348447 0.309982 0.10932
H_ H_ 0.926238 0.365763 0.31704 0.10932
H_ H_ 0.708223 0.427207 0.180185 0.10932
H_ H_ 0.977481 0.401382 0.189217 0.10932
H_ H_ 0.720944 0.0980427 0.322117 0.10932
H_ H_ 0.971369 0.0892377 0.32109 0.10932
H_ H_ 0.686737 0.15005 0.184359 0.10932
H_ H_ 0.927598 0.141155 0.18577 0.10932
H_ H_ 0.686395 0.160409 0.319255 0.10932
H_ H_ 0.942928 0.152217 0.320325 0.10932
H_ H_ 0.711392 0.0830585 0.189698 0.10932
H_ H_ 0.959314 0.0740394 0.190878 0.10932
H_ H_ 0.544315 0.0795476 0.174279 0.10932
H_ H_ 0.792222 0.0731537 0.185521 0.10932
H_ H_ 0.558158 0.146475 0.310443 0.10932
H_ H_ 0.803954 0.160411 0.318369 0.10932
H_ H_ 0.571927 0.145604 0.176487 0.10932
H_ H_ 0.813903 0.142866 0.181908 0.10932
H_ H_ 0.528287 0.0784048 0.306451 0.10932
H_ H_ 0.781799 0.0926631 0.321409 0.10932
H_ H_ 0.623975 0.193972 0.358925 0.10932
H_ H_ 0.871041 0.182559 0.354236 0.10932
H_ H_ 0.624869 0.3231 0.347282 0.10932
H_ H_ 0.880749 0.310393 0.364027 0.10932
H_ H_ 0.625989 0.331727 0.423257 0.10932
H_ H_ 0.879449 0.306786 0.440711 0.10932
H_ H_ 0.626274 0.199216 0.436606 0.10932
H_ H_ 0.864117 0.175986 0.43261 0.10932
H_ H_ 0.625831 0.184286 0.135538 0.10932
H_ H_ 0.840527 0.213958 0.141919 0.10932
H_ H_ 0.605321 0.313913 0.13721 0.10932
H_ H_ 0.920074 0.286121 0.139767 0.10932
H_ H_ 0.605361 0.314945 0.0592452 0.10932
H_ H_ 0.914615 0.295636 0.0657406 0.10932
H_ H_ 0.62748 0.186226 0.057265 0.10932
H_ H_ 0.837899 0.215415 0.0641078 0.10932
C_ C_ 0.563479 0.350635 0.240628 -0.02249
C_ C_ 0.819211 0.349824 0.255731 -0.02249
C_ C_ 0.51004 0.461332 0.236072 -0.02249
C_ C_ 0.76895 0.462227 0.254548 -0.02249
C_ C_ 0.536661 0.403792 0.198734 -0.11473
C_ C_ 0.788361 0.398878 0.218708 -0.11473
C_ C_ 0.552421 0.367395 0.277651 -0.11473
C_ C_ 0.816395 0.374315 0.292614 -0.11473
C_ C_ 0.554485 0.368974 0.202241 -0.11473
C_ C_ 0.804461 0.362413 0.21855 -0.11473
C_ C_ 0.526217 0.421344 0.236915 -0.02249
C_ C_ 0.784705 0.421399 0.255808 -0.02249
C_ C_ 0.580127 0.312459 0.24232 0.6875
C_ C_ 0.837783 0.30994 0.255789 0.6875
C_ C_ 0.536978 0.404503 0.274931 -0.11473
C_ C_ 0.798737 0.40959 0.293934 -0.11473
C_ C_ 0.678373 0.355876 0.243665 -0.02249
C_ C_ 0.934812 0.347244 0.254921 -0.02249
C_ C_ 0.73671 0.462506 0.249181 -0.02249
C_ C_ 0.982557 0.463452 0.24865 -0.02249
C_ C_ 0.712802 0.402195 0.283575 -0.11473
C_ C_ 0.947521 0.41459 0.284397 -0.11473
C_ C_ 0.682712 0.378204 0.208566 -0.11473
C_ C_ 0.950722 0.357967 0.219313 -0.11473
C_ C_ 0.693538 0.368398 0.282357 -0.11473
C_ C_ 0.934626 0.375761 0.287456 -0.11473
C_ C_ 0.718987 0.423962 0.247223 -0.02249
C_ C_ 0.964865 0.424518 0.249513 -0.02249
C_ C_ 0.660249 0.318499 0.243333 0.6875
C_ C_ 0.918713 0.306047 0.256654 0.6875
C_ C_ 0.70264 0.412092 0.209712 -0.11473
C_ C_ 0.965705 0.395591 0.217936 -0.11473
C_ C_ 0.683274 0.159852 0.251699 -0.02249
C_ C_ 0.933632 0.151594 0.25268 -0.02249
C_ C_ 0.731476 0.0422542 0.258378 -0.02249
C_ C_ 0.983948 0.037173 0.257012 -0.02249
C_ C_ 0.71071 0.106102 0.293891 -0.11473
C_ C_ 0.96103 0.0972762 0.292135 -0.11473
C_ C_ 0.691219 0.136618 0.21655 -0.11473
C_ C_ 0.937822 0.129199 0.21624 -0.11473
C_ C_ 0.693385 0.143296 0.290523 -0.11473
C_ C_ 0.944071 0.13329 0.290545 -0.11473
C_ C_ 0.717038 0.0840464 0.257358 -0.02249
C_ C_ 0.965773 0.0757384 0.255257 -0.02249
C_ C_ 0.665147 0.198388 0.249192 0.6875
C_ C_ 0.914799 0.190866 0.25179 0.6875
C_ C_ 0.706149 0.0987879 0.218489 -0.11473
C_ C_ 0.954884 0.0919455 0.218236 -0.11473
C_ C_ 0.570366 0.148695 0.244704 -0.02249
C_ C_ 0.810511 0.155401 0.249667 -0.02249
C_ C_ 0.519565 0.035129 0.238296 -0.02249
C_ C_ 0.763301 0.0396801 0.256181 -0.02249
C_ C_ 0.552588 0.0903847 0.204054 -0.11473
C_ C_ 0.795513 0.0901612 0.215617 -0.11473
C_ C_ 0.555774 0.130984 0.281055 -0.11473
C_ C_ 0.799491 0.140896 0.289044 -0.11473
C_ C_ 0.565639 0.130364 0.205839 -0.11473
C_ C_ 0.807851 0.131131 0.21382 -0.11473
C_ C_ 0.538031 0.0741643 0.241213 -0.02249
C_ C_ 0.781904 0.0785438 0.253232 -0.02249
C_ C_ 0.584444 0.191936 0.245339 0.6875
C_ C_ 0.832404 0.189823 0.250221 0.6875
C_ C_ 0.541035 0.0928304 0.278967 -0.11473
C_ C_ 0.788963 0.101722 0.291902 -0.11473
C_ C_ 0.622083 0.224851 0.371921 0.17695
C_ C_ 0.872017 0.209011 0.374669 0.17695
C_ C_ 0.624362 0.295381 0.367485 0.17695
C_ C_ 0.882116 0.281039 0.379622 0.17695
C_ C_ 0.620567 0.300374 0.411952 -0.11473
C_ C_ 0.878312 0.278841 0.42363 -0.11473
C_ C_ 0.622934 0.264481 0.436253 0.23465
C_ C_ 0.876404 0.239178 0.444249 0.23465
C_ C_ 0.619924 0.227191 0.415247 -0.11473
C_ C_ 0.871908 0.20462 0.418274 -0.11473
C_ C_ 0.623153 0.213614 0.118674 0.17695
C_ C_ 0.856553 0.230617 0.123253 0.17695
C_ C_ 0.612567 0.285772 0.119556 0.17695
C_ C_ 0.900498 0.272369 0.124127 0.17695
C_ C_ 0.610217 0.286349 0.0754159 -0.11473
C_ C_ 0.89925 0.27423 0.0802003 -0.11473
C_ C_ 0.616339 0.249376 0.0529367 0.23465
C_ C_ 0.876129 0.25558 0.0575012 0.23465
C_ C_ 0.62138 0.212854 0.0759679 -0.11473
C_ C_ 0.85463 0.232411 0.0799313 -0.11473
C_ C_ 0.525535 0.497467 0.230899 0.05793
C_ C_ 0.785957 0.500647 0.252381 0.05793
C_ C_ 0.714953 1.00415751 0.253886 0.05793
C_ C_ 0.970464 0.998936 0.25851 0.05793
Br Br 0.568462 0.496845 0.22091 -0.17191
Br Br 0.829114 0.502366 0.252474 -0.17191
Br Br 0.671539 0.00743733 0.243423 -0.17191
Br Br 0.926859 -0.00013300000000004975 0.263801 -0.17191
N_ N_ 0.623292 0.258189 0.348547 -0.272
N_ N_ 0.87584 0.246595 0.356158 -0.272
N_ N_ 0.627464 0.269428 0.481351 -0.12501
N_ N_ 0.873421 0.234675 0.487903 -0.12501
N_ N_ 0.619589 0.250456 0.140522 -0.272
N_ N_ 0.878615 0.252342 0.14509 -0.272
N_ N_ 0.609761 0.247409 0.0100065 -0.12501
N_ N_ 0.873327 0.261663 0.0110957 -0.12501
O_ O_ 0.58672 0.294168 0.209494 -0.60745
O_ O_ 0.84745 0.294118 0.221451 -0.60745
O_ O_ 0.589281 0.29553 0.275819 -0.60745
O_ O_ 0.847529 0.295006 0.291081 -0.60745
O_ O_ 0.649522 0.30635 0.279416 -0.60745
O_ O_ 0.90855 0.292913 0.290793 -0.60745
O_ O_ 0.65214 0.300338 0.20912 -0.60745
O_ O_ 0.909936 0.291408 0.22153 -0.60745
O_ O_ 0.659975 0.220867 0.281976 -0.60745
O_ O_ 0.906289 0.20494 0.284608 -0.60745
O_ O_ 0.654462 0.208672 0.214023 -0.60745
O_ O_ 0.901973 0.202375 0.217368 -0.60745
O_ O_ 0.592402 0.207741 0.21028 -0.60745
O_ O_ 0.84281 0.202782 0.214274 -0.60745
O_ O_ 0.595444 0.205988 0.280868 -0.60745
O_ O_ 0.842122 0.205937 0.284357 -0.60745
Zn Zn 0.626341 0.249087 0.784213 0.9476
Zn Zn 0.874481 0.252585 0.782583 0.9476
Zn Zn 0.621899 0.249324 0.71434 0.9476
Zn Zn 0.872584 0.252598 0.711144 0.9476
H_ H_ 0.536526 0.418539 0.684966 0.10932
H_ H_ 0.787837 0.418748 0.678365 0.10932
H_ H_ 0.569211 0.355017 0.820288 0.10932
H_ H_ 0.803701 0.347144 0.812054 0.10932
H_ H_ 0.563748 0.355226 0.683983 0.10932
H_ H_ 0.811443 0.347949 0.679116 0.10932
H_ H_ 0.550684 0.425527 0.816713 0.10932
H_ H_ 0.772304 0.411328 0.809071 0.10932
H_ H_ 0.708554 0.423886 0.813899 0.10932
H_ H_ 0.975649 0.404555 0.813413 0.10932
H_ H_ 0.682953 0.351248 0.678826 0.10932
H_ H_ 0.920247 0.36862 0.680687 0.10932
H_ H_ 0.678338 0.354518 0.811306 0.10932
H_ H_ 0.950695 0.335521 0.806864 0.10932
H_ H_ 0.712089 0.419957 0.680943 0.10932
H_ H_ 0.946293 0.434209 0.684966 0.10932
H_ H_ 0.717564 0.0844676 0.823381 0.10932
H_ H_ 0.958463 0.076921 0.809797 0.10932
H_ H_ 0.685255 0.145895 0.681156 0.10932
H_ H_ 0.942515 0.158789 0.678182 0.10932
H_ H_ 0.690936 0.15272 0.817622 0.10932
H_ H_ 0.930772 0.141644 0.811407 0.10932
H_ H_ 0.711989 0.0777488 0.688113 0.10932
H_ H_ 0.970683 0.0875255 0.679953 0.10932
H_ H_ 0.531238 0.075129 0.692355 0.10932
H_ H_ 0.77178 0.0907693 0.690397 0.10932
H_ H_ 0.570366 0.145536 0.817047 0.10932
H_ H_ 0.827861 0.140487 0.816485 0.10932
H_ H_ 0.553119 0.146945 0.689609 0.10932
H_ H_ 0.802069 0.15572 0.686801 0.10932
H_ H_ 0.532887 0.087664 0.825348 0.10932
H_ H_ 0.80019 0.0760858 0.816042 0.10932
H_ H_ 0.633796 0.316623 0.851581 0.10932
H_ H_ 0.928547 0.249901 0.849743 0.10932
H_ H_ 0.607847 0.1912 0.869476 0.10932
H_ H_ 0.833098 0.257601 0.866221 0.10932
H_ H_ 0.601779 0.204281 0.943965 0.10932
H_ H_ 0.840653 0.261593 0.942885 0.10932
H_ H_ 0.634088 0.330207 0.92879 0.10932
H_ H_ 0.937048 0.248596 0.925553 0.10932
H_ H_ 0.629251 0.183743 0.642104 0.10932
H_ H_ 0.861341 0.190961 0.637025 0.10932
H_ H_ 0.616529 0.313254 0.633686 0.10932
H_ H_ 0.890607 0.31407 0.640841 0.10932
H_ H_ 0.627352 0.311109 0.555537 0.10932
H_ H_ 0.885388 0.324509 0.563826 0.10932
H_ H_ 0.6309 0.178189 0.565571 0.10932
H_ H_ 0.859472 0.197619 0.555681 0.10932
C_ C_ 0.566219 0.347076 0.751243 -0.02249
C_ C_ 0.813904 0.347535 0.747049 -0.02249
C_ C_ 0.520802 0.461974 0.750218 -0.02249
C_ C_ 0.766718 0.461276 0.741908 -0.02249
C_ C_ 0.541358 0.402504 0.713767 -0.11473
C_ C_ 0.792718 0.402684 0.707008 -0.11473
C_ C_ 0.559191 0.36681 0.790445 -0.11473
C_ C_ 0.802767 0.366322 0.784132 -0.11473
C_ C_ 0.555884 0.365105 0.714324 -0.11473
C_ C_ 0.808627 0.365381 0.708855 -0.11473
C_ C_ 0.536757 0.421943 0.752667 -0.02249
C_ C_ 0.781658 0.421822 0.744214 -0.02249
C_ C_ 0.582993 0.305771 0.749722 0.6875
C_ C_ 0.834993 0.312122 0.748799 0.6875
C_ C_ 0.544108 0.404277 0.791741 -0.11473
C_ C_ 0.783166 0.399259 0.781753 -0.11473
C_ C_ 0.679408 0.346762 0.744873 -0.02249
C_ C_ 0.932235 0.347921 0.746297 -0.02249
C_ C_ 0.735084 0.461082 0.745848 -0.02249
C_ C_ 0.981928 0.461886 0.751954 -0.02249
C_ C_ 0.704936 0.405763 0.784072 -0.11473
C_ C_ 0.963713 0.395541 0.784123 -0.11473
C_ C_ 0.687868 0.366135 0.707537 -0.11473
C_ C_ 0.934283 0.373228 0.709394 -0.11473
C_ C_ 0.688773 0.36644 0.783899 -0.11473
C_ C_ 0.951446 0.356923 0.780563 -0.11473
C_ C_ 0.717015 0.421227 0.746506 -0.02249
C_ C_ 0.964396 0.422871 0.749554 -0.02249
C_ C_ 0.663067 0.30907 0.748038 0.6875
C_ C_ 0.913473 0.310604 0.745983 0.6875
C_ C_ 0.705345 0.404584 0.708951 -0.11473
C_ C_ 0.949131 0.411585 0.711398 -0.11473
C_ C_ 0.684198 0.15265 0.751687 -0.02249
C_ C_ 0.931782 0.152279 0.745323 -0.02249
C_ C_ 0.737081 0.0373313 0.756261 -0.02249
C_ C_ 0.982098 0.0386365 0.7441 -0.02249
C_ C_ 0.712138 0.0987067 0.792005 -0.11473
C_ C_ 0.951765 0.0915997 0.780511 -0.11473
C_ C_ 0.693002 0.133414 0.714267 -0.11473
C_ C_ 0.944228 0.136795 0.706021 -0.11473
C_ C_ 0.695133 0.134802 0.789995 -0.11473
C_ C_ 0.935003 0.128404 0.781404 -0.11473
C_ C_ 0.718002 0.0768253 0.754362 -0.02249
C_ C_ 0.964306 0.0780537 0.743604 -0.02249
C_ C_ 0.663751 0.189501 0.750999 0.6875
C_ C_ 0.914675 0.191449 0.74681 0.6875
C_ C_ 0.706476 0.093162 0.715212 -0.11473
C_ C_ 0.961972 0.100964 0.706651 -0.11473
C_ C_ 0.565373 0.14991 0.753049 -0.02249
C_ C_ 0.816561 0.153656 0.751472 -0.02249
C_ C_ 0.512561 0.0387479 0.760036 -0.02249
C_ C_ 0.769064 0.0373386 0.753895 -0.02249
C_ C_ 0.536805 0.0931197 0.720607 -0.11473
C_ C_ 0.784915 0.100695 0.717654 -0.11473
C_ C_ 0.556646 0.135157 0.792205 -0.11473
C_ C_ 0.817476 0.128573 0.787716 -0.11473
C_ C_ 0.552369 0.131078 0.717666 -0.11473
C_ C_ 0.800403 0.138819 0.716253 -0.11473
C_ C_ 0.531484 0.0763755 0.759062 -0.02249
C_ C_ 0.785025 0.0779719 0.753013 -0.02249
C_ C_ 0.584762 0.188683 0.751792 0.6875
C_ C_ 0.836584 0.188456 0.74984 0.6875
C_ C_ 0.538962 0.0988061 0.794694 -0.11473
C_ C_ 0.800414 0.0923655 0.788303 -0.11473
C_ C_ 0.630686 0.291458 0.872877 0.17695
C_ C_ 0.909171 0.257155 0.868744 0.17695
C_ C_ 0.615709 0.221296 0.880847 0.17695
C_ C_ 0.855476 0.260032 0.878562 0.17695
C_ C_ 0.612453 0.228298 0.923909 -0.11473
C_ C_ 0.860193 0.260328 0.921712 -0.11473
C_ C_ 0.620045 0.267539 0.942309 0.23465
C_ C_ 0.889511 0.255717 0.94043 0.23465
C_ C_ 0.628245 0.299546 0.916869 -0.11473
C_ C_ 0.914535 0.254239 0.91356 -0.11473
C_ C_ 0.626493 0.21231 0.622964 0.17695
C_ C_ 0.866837 0.22019 0.620546 0.17695
C_ C_ 0.620053 0.284366 0.616611 0.17695
C_ C_ 0.882334 0.288253 0.622574 0.17695
C_ C_ 0.626822 0.282265 0.57342 -0.11473
C_ C_ 0.88059 0.293672 0.57936 -0.11473
C_ C_ 0.627692 0.243841 0.553064 0.23465
C_ C_ 0.872153 0.260019 0.554742 0.23465
C_ C_ 0.629879 0.20853 0.578811 -0.11473
C_ C_ 0.865735 0.2237 0.574511 -0.11473
C_ C_ 0.536508 0.500026 0.75184 0.05793
C_ C_ 0.781494 0.500347 0.743708 0.05793
C_ C_ 0.722079 -0.0007129999999999637 0.761275 0.05793
C_ C_ 0.966912 5.0000000000105516e-05 0.742855 0.05793
Br Br 0.578387 0.498039 0.739852 -0.17191
Br Br 0.825909 0.497927 0.741833 -0.17191
Br Br 0.680069 -0.003638999999999948 0.77278 -0.17191
Br Br 0.923172 -0.0014450000000000296 0.74061 -0.17191
N_ N_ 0.625956 0.252601 0.855599 -0.272
N_ N_ 0.879881 0.255159 0.852962 -0.272
N_ N_ 0.624737 0.26993 0.986314 -0.12501
N_ N_ 0.893308 0.250874 0.98582 -0.12501
N_ N_ 0.621324 0.249375 0.64186 -0.272
N_ N_ 0.874524 0.253326 0.642663 -0.272
N_ N_ 0.629334 0.238965 0.507445 -0.12501
N_ N_ 0.871621 0.265415 0.512025 -0.12501
O_ O_ 0.591657 0.290026 0.714068 -0.60745
O_ O_ 0.842516 0.292857 0.714296 -0.60745
O_ O_ 0.59564 0.293563 0.783534 -0.60745
O_ O_ 0.841984 0.295858 0.784211 -0.60745
O_ O_ 0.65488 0.297255 0.78268 -0.60745
O_ O_ 0.906889 0.294959 0.78092 -0.60745
O_ O_ 0.654981 0.291415 0.714738 -0.60745
O_ O_ 0.898006 0.30274 0.714075 -0.60745
O_ O_ 0.657302 0.206403 0.785128 -0.60745
O_ O_ 0.907379 0.209276 0.781477 -0.60745
O_ O_ 0.652792 0.204454 0.716272 -0.60745
O_ O_ 0.905259 0.206662 0.712122 -0.60745
O_ O_ 0.590515 0.204732 0.716606 -0.60745
O_ O_ 0.843058 0.206102 0.714601 -0.60745
O_ O_ 0.598361 0.202305 0.784262 -0.60745
O_ O_ 0.843537 0.206554 0.783767 -0.60745
Zn Zn 0.622754 0.746069 0.281536 0.9476
Zn Zn 0.873732 0.752886 0.2886 0.9476
Zn Zn 0.623552 0.746015 0.214069 0.9476
Zn Zn 0.871666 0.753633 0.219891 0.9476
H_ H_ 0.54295 0.922651 0.176878 0.10932
H_ H_ 0.780614 0.920744 0.190094 0.10932
H_ H_ 0.565724 0.852548 0.313741 0.10932
H_ H_ 0.81463 0.860984 0.324977 0.10932
H_ H_ 0.568664 0.855171 0.176286 0.10932
H_ H_ 0.808582 0.856335 0.1902 0.10932
H_ H_ 0.525072 0.908007 0.304529 0.10932
H_ H_ 0.774051 0.909011 0.326038 0.10932
H_ H_ 0.706211 0.919827 0.31848 0.10932
H_ H_ 0.974033 0.911432 0.327533 0.10932
H_ H_ 0.680722 0.855272 0.182708 0.10932
H_ H_ 0.928094 0.860246 0.194069 0.10932
H_ H_ 0.68444 0.848562 0.316058 0.10932
H_ H_ 0.95053 0.841103 0.324657 0.10932
H_ H_ 0.710552 0.919124 0.185549 0.10932
H_ H_ 0.954527 0.928469 0.196465 0.10932
H_ H_ 0.726123 0.588001 0.319021 0.10932
H_ H_ 0.949698 0.575466 0.312318 0.10932
H_ H_ 0.677449 0.63653 0.188847 0.10932
H_ H_ 0.950447 0.665211 0.186932 0.10932
H_ H_ 0.694396 0.653579 0.321863 0.10932
H_ H_ 0.926113 0.643307 0.314407 0.10932
H_ H_ 0.709089 0.572218 0.190591 0.10932
H_ H_ 0.974532 0.597959 0.186558 0.10932
H_ H_ 0.521152 0.588706 0.171198 0.10932
H_ H_ 0.78881 0.580771 0.184492 0.10932
H_ H_ 0.572463 0.634334 0.303747 0.10932
H_ H_ 0.815842 0.646726 0.320361 0.10932
H_ H_ 0.556712 0.651671 0.170636 0.10932
H_ H_ 0.822471 0.635401 0.181307 0.10932
H_ H_ 0.533218 0.579537 0.302896 0.10932
H_ H_ 0.786666 0.583191 0.316926 0.10932
H_ H_ 0.629965 0.685078 0.352278 0.10932
H_ H_ 0.903865 0.69876 0.356447 0.10932
H_ H_ 0.615029 0.815476 0.358576 0.10932
H_ H_ 0.842043 0.797754 0.365911 0.10932
H_ H_ 0.612171 0.811099 0.435598 0.10932
H_ H_ 0.846398 0.796176 0.444835 0.10932
H_ H_ 0.627099 0.67857 0.433166 0.10932
H_ H_ 0.909811 0.696974 0.434986 0.10932
H_ H_ 0.579723 0.753541 0.141607 0.10932
H_ H_ 0.859553 0.689633 0.141426 0.10932
H_ H_ 0.670509 0.722304 0.130928 0.10932
H_ H_ 0.875901 0.820769 0.15013 0.10932
H_ H_ 0.668883 0.738142 0.0553905 0.10932
H_ H_ 0.866982 0.829882 0.0735024 0.10932
H_ H_ 0.574422 0.757754 0.0670158 0.10932
H_ H_ 0.858271 0.695033 0.0652228 0.10932
C_ C_ 0.569032 0.847948 0.24499 -0.02249
C_ C_ 0.811378 0.84676 0.25843 -0.02249
C_ C_ 0.516606 0.960267 0.239696 -0.02249
C_ C_ 0.761381 0.963648 0.254902 -0.02249
C_ C_ 0.545113 0.903017 0.204728 -0.11473
C_ C_ 0.785991 0.903987 0.221076 -0.11473
C_ C_ 0.559034 0.867057 0.282835 -0.11473
C_ C_ 0.803895 0.868126 0.296182 -0.11473
C_ C_ 0.560567 0.866014 0.205785 -0.11473
C_ C_ 0.801946 0.866343 0.221317 -0.11473
C_ C_ 0.531962 0.918628 0.240614 -0.02249
C_ C_ 0.776832 0.921762 0.25863 -0.02249
C_ C_ 0.588949 0.811035 0.24598 0.6875
C_ C_ 0.832564 0.811921 0.257015 0.6875
C_ C_ 0.53858 0.900364 0.279 -0.11473
C_ C_ 0.784359 0.902991 0.297476 -0.11473
C_ C_ 0.680597 0.84853 0.25072 -0.02249
C_ C_ 0.934781 0.848974 0.26013 -0.02249
C_ C_ 0.729582 0.965372 0.253344 -0.02249
C_ C_ 0.986476 0.960804 0.261845 -0.02249
C_ C_ 0.705349 0.90426 0.289902 -0.11473
C_ C_ 0.966341 0.898053 0.297566 -0.11473
C_ C_ 0.685637 0.869803 0.213313 -0.11473
C_ C_ 0.936579 0.872901 0.224131 -0.11473
C_ C_ 0.689867 0.866285 0.288744 -0.11473
C_ C_ 0.950471 0.859996 0.298016 -0.11473
C_ C_ 0.711429 0.925195 0.25364 -0.02249
C_ C_ 0.969036 0.922541 0.261349 -0.02249
C_ C_ 0.662812 0.809113 0.250716 0.6875
C_ C_ 0.913635 0.81346 0.259752 0.6875
C_ C_ 0.700063 0.910153 0.215498 -0.11473
C_ C_ 0.953334 0.909549 0.224911 -0.11473
C_ C_ 0.686406 0.649941 0.252844 -0.02249
C_ C_ 0.932019 0.656293 0.248592 -0.02249
C_ C_ 0.737321 0.537795 0.254238 -0.02249
C_ C_ 0.982036 0.539129 0.251041 -0.02249
C_ C_ 0.71645 0.600045 0.291137 -0.11473
C_ C_ 0.950136 0.593508 0.28531 -0.11473
C_ C_ 0.690023 0.627427 0.215577 -0.11473
C_ C_ 0.948478 0.644541 0.213638 -0.11473
C_ C_ 0.699742 0.636993 0.292054 -0.11473
C_ C_ 0.934895 0.63187 0.284922 -0.11473
C_ C_ 0.720582 0.57838 0.253145 -0.02249
C_ C_ 0.966294 0.580706 0.250401 -0.02249
C_ C_ 0.665145 0.687463 0.250925 0.6875
C_ C_ 0.913487 0.69606 0.248856 0.6875
C_ C_ 0.708223 0.592247 0.217381 -0.11473
C_ C_ 0.965308 0.607308 0.214787 -0.11473
C_ C_ 0.566237 0.649456 0.238558 -0.02249
C_ C_ 0.819454 0.650142 0.250844 -0.02249
C_ C_ 0.511079 0.537689 0.236822 -0.02249
C_ C_ 0.768395 0.537916 0.249919 -0.02249
C_ C_ 0.533286 0.600121 0.199369 -0.11473
C_ C_ 0.798748 0.592027 0.212605 -0.11473
C_ C_ 0.560325 0.628203 0.274851 -0.11473
C_ C_ 0.809094 0.633645 0.290285 -0.11473
C_ C_ 0.552437 0.636474 0.200797 -0.11473
C_ C_ 0.816234 0.626879 0.21266 -0.11473
C_ C_ 0.529244 0.577469 0.235606 -0.02249
C_ C_ 0.785726 0.577409 0.2502 -0.02249
C_ C_ 0.584568 0.686584 0.239049 0.6875
C_ C_ 0.837577 0.68893 0.249382 0.6875
C_ C_ 0.541438 0.593583 0.273618 -0.11473
C_ C_ 0.792273 0.59768 0.288663 -0.11473
C_ C_ 0.625769 0.712356 0.372515 0.17695
C_ C_ 0.89153 0.719526 0.376862 0.17695
C_ C_ 0.615089 0.784129 0.374288 0.17695
C_ C_ 0.857064 0.775057 0.382422 0.17695
C_ C_ 0.613836 0.782648 0.418792 -0.11473
C_ C_ 0.857285 0.771568 0.426915 -0.11473
C_ C_ 0.617473 0.746254 0.441486 0.23465
C_ C_ 0.878496 0.745129 0.447825 0.23465
C_ C_ 0.622459 0.709717 0.418204 -0.11473
C_ C_ 0.893362 0.717189 0.420908 -0.11473
C_ C_ 0.600379 0.756383 0.122825 0.17695
C_ C_ 0.86325 0.72015 0.126053 0.17695
C_ C_ 0.651017 0.739116 0.117528 0.17695
C_ C_ 0.871026 0.793345 0.129101 0.17695
C_ C_ 0.648813 0.741985 0.0744019 -0.11473
C_ C_ 0.868498 0.798067 0.0866162 -0.11473
C_ C_ 0.621605 0.753465 0.0551937 0.23465
C_ C_ 0.867472 0.759861 0.0604504 0.23465
C_ C_ 0.596902 0.757193 0.079111 -0.11473
C_ C_ 0.860855 0.722844 0.0823522 -0.11473
C_ C_ 0.53393 0.996509 0.24001 0.05793
C_ C_ 0.778533 1.000569313 0.254036 0.05793
C_ C_ 0.722145 0.501229 0.246152 0.05793
C_ C_ 0.966228 0.501441 0.244342 0.05793
Br Br 0.57843 0.994339 0.243813 -0.17191
Br Br 0.821005 0.996795 0.240871 -0.17191
Br Br 0.677886 0.499955 0.25166 -0.17191
Br Br 0.931945 0.505412 0.203118 -0.17191
N_ N_ 0.619276 0.748708 0.352651 -0.272
N_ N_ 0.872662 0.748583 0.358214 -0.272
N_ N_ 0.618405 0.74389 0.486187 -0.12501
N_ N_ 0.882251 0.743088 0.492981 -0.12501
N_ N_ 0.626498 0.747887 0.142237 -0.272
N_ N_ 0.872998 0.754904 0.147315 -0.272
N_ N_ 0.616884 0.757441 0.0111562 -0.12501
N_ N_ 0.865781 0.762771 0.0164057 -0.12501
O_ O_ 0.595183 0.793102 0.212848 -0.60745
O_ O_ 0.846688 0.802385 0.223451 -0.60745
O_ O_ 0.591238 0.788409 0.278312 -0.60745
O_ O_ 0.835759 0.788296 0.28939 -0.60745
O_ O_ 0.653102 0.792291 0.284352 -0.60745
O_ O_ 0.902053 0.803059 0.294296 -0.60745
O_ O_ 0.654066 0.791323 0.21732 -0.60745
O_ O_ 0.907251 0.794253 0.225879 -0.60745
O_ O_ 0.656916 0.70246 0.28557 -0.60745
O_ O_ 0.905975 0.713687 0.28472 -0.60745
O_ O_ 0.654989 0.699774 0.215155 -0.60745
O_ O_ 0.900893 0.709655 0.214956 -0.60745
O_ O_ 0.593033 0.704594 0.206112 -0.60745
O_ O_ 0.839108 0.711176 0.215569 -0.60745
O_ O_ 0.593668 0.702697 0.27438 -0.60745
O_ O_ 0.849188 0.70269 0.281577 -0.60745
Zn Zn 0.625561 0.753038 0.784368 0.9476
Zn Zn 0.87973 0.751382 0.78958 0.9476
Zn Zn 0.627349 0.753812 0.714451 0.9476
Zn Zn 0.876646 0.750198 0.721303 0.9476
H_ H_ 0.535379 0.922639 0.686004 0.10932
H_ H_ 0.799925 0.928661 0.691296 0.10932
H_ H_ 0.556856 0.846509 0.819017 0.10932
H_ H_ 0.817784 0.850532 0.82396 0.10932
H_ H_ 0.569463 0.865166 0.684825 0.10932
H_ H_ 0.83264 0.866095 0.689018 0.10932
H_ H_ 0.527246 0.909082 0.822446 0.10932
H_ H_ 0.778144 0.906238 0.819251 0.10932
H_ H_ 0.719982 0.915848 0.819876 0.10932
H_ H_ 0.97103 0.923716 0.813894 0.10932
H_ H_ 0.691748 0.85348 0.683052 0.10932
H_ H_ 0.942387 0.839722 0.688527 0.10932
H_ H_ 0.679715 0.858778 0.817094 0.10932
H_ H_ 0.947737 0.856021 0.822042 0.10932
H_ H_ 0.714789 0.924205 0.686748 0.10932
H_ H_ 0.965682 0.908942 0.681383 0.10932
H_ H_ 0.724025 0.588809 0.81591 0.10932
H_ H_ 0.981945 0.597023 0.816137 0.10932
H_ H_ 0.680961 0.641055 0.682644 0.10932
H_ H_ 0.922618 0.634585 0.690294 0.10932
H_ H_ 0.692257 0.648196 0.818321 0.10932
H_ H_ 0.949579 0.658847 0.817088 0.10932
H_ H_ 0.717453 0.58309 0.680709 0.10932
H_ H_ 0.947093 0.567359 0.695894 0.10932
H_ H_ 0.534744 0.589095 0.67975 0.10932
H_ H_ 0.788053 0.581074 0.680302 0.10932
H_ H_ 0.576319 0.642271 0.816187 0.10932
H_ H_ 0.809296 0.652558 0.817244 0.10932
H_ H_ 0.5591 0.656984 0.685259 0.10932
H_ H_ 0.823597 0.638497 0.681977 0.10932
H_ H_ 0.548464 0.574502 0.81401 0.10932
H_ H_ 0.782264 0.585667 0.814318 0.10932
H_ H_ 0.675807 0.755991 0.854284 0.10932
H_ H_ 0.888984 0.675512 0.861601 0.10932
H_ H_ 0.580255 0.754996 0.863209 0.10932
H_ H_ 0.863659 0.804517 0.867341 0.10932
H_ H_ 0.584108 0.760167 0.938706 0.10932
H_ H_ 0.861858 0.80196 0.946145 0.10932
H_ H_ 0.680722 0.738509 0.926544 0.10932
H_ H_ 0.882975 0.671111 0.939152 0.10932
H_ H_ 0.610199 0.702198 0.635704 0.10932
H_ H_ 0.889611 0.816717 0.64737 0.10932
H_ H_ 0.643111 0.823737 0.645861 0.10932
H_ H_ 0.871233 0.691073 0.640337 0.10932
H_ H_ 0.63974 0.833944 0.567516 0.10932
H_ H_ 0.863457 0.693897 0.564551 0.10932
H_ H_ 0.60392 0.70886 0.557558 0.10932
H_ H_ 0.881069 0.823104 0.573239 0.10932
C_ C_ 0.566375 0.849551 0.752409 -0.02249
C_ C_ 0.823383 0.849585 0.755014 -0.02249
C_ C_ 0.511088 0.960339 0.758149 -0.02249
C_ C_ 0.768498 0.960768 0.754508 -0.02249
C_ C_ 0.537532 0.904345 0.713866 -0.11473
C_ C_ 0.800741 0.907499 0.717845 -0.11473
C_ C_ 0.554443 0.862553 0.78922 -0.11473
C_ C_ 0.810293 0.863942 0.793255 -0.11473
C_ C_ 0.556856 0.870183 0.7137 -0.11473
C_ C_ 0.819635 0.873226 0.716685 -0.11473
C_ C_ 0.52769 0.92 0.754068 -0.02249
C_ C_ 0.786772 0.921238 0.754029 -0.02249
C_ C_ 0.586061 0.812546 0.752181 0.6875
C_ C_ 0.841521 0.811685 0.755092 0.6875
C_ C_ 0.536279 0.898874 0.791259 -0.11473
C_ C_ 0.791637 0.899408 0.791491 -0.11473
C_ C_ 0.684628 0.850201 0.751085 -0.02249
C_ C_ 0.937046 0.845438 0.756373 -0.02249
C_ C_ 0.736739 0.96137 0.756704 -0.02249
C_ C_ 0.983871 0.962242 0.741613 -0.02249
C_ C_ 0.709439 0.904595 0.790682 -0.11473
C_ C_ 0.962502 0.906147 0.787922 -0.11473
C_ C_ 0.697517 0.866042 0.713743 -0.11473
C_ C_ 0.945813 0.859814 0.715849 -0.11473
C_ C_ 0.689755 0.871407 0.789341 -0.11473
C_ C_ 0.948248 0.868918 0.791834 -0.11473
C_ C_ 0.719342 0.921925 0.753252 -0.02249
C_ C_ 0.968415 0.921958 0.748665 -0.02249
C_ C_ 0.663068 0.815617 0.747433 0.6875
C_ C_ 0.918556 0.807038 0.75985 0.6875
C_ C_ 0.71286 0.90403 0.714773 -0.11473
C_ C_ 0.960159 0.89832 0.713242 -0.11473
C_ C_ 0.68394 0.652837 0.74944 -0.02249
C_ C_ 0.93833 0.656335 0.750539 -0.02249
C_ C_ 0.733573 0.53699 0.750945 -0.02249
C_ C_ 0.985478 0.537821 0.755051 -0.02249
C_ C_ 0.712645 0.597065 0.786638 -0.11473
C_ C_ 0.967992 0.604579 0.790222 -0.11473
C_ C_ 0.690082 0.630133 0.711869 -0.11473
C_ C_ 0.936335 0.628155 0.716894 -0.11473
C_ C_ 0.695707 0.633293 0.787939 -0.11473
C_ C_ 0.953343 0.642646 0.786622 -0.11473
C_ C_ 0.716377 0.575495 0.750133 -0.02249
C_ C_ 0.968308 0.578105 0.754107 -0.02249
C_ C_ 0.666164 0.693114 0.749944 0.6875
C_ C_ 0.917429 0.693402 0.752708 0.6875
C_ C_ 0.708553 0.593338 0.712045 -0.11473
C_ C_ 0.951021 0.590004 0.719809 -0.11473
C_ C_ 0.570247 0.654461 0.750217 -0.02249
C_ C_ 0.818679 0.652991 0.750585 -0.02249
C_ C_ 0.52146 0.538972 0.749609 -0.02249
C_ C_ 0.765871 0.537099 0.748925 -0.02249
C_ C_ 0.543378 0.600524 0.710664 -0.11473
C_ C_ 0.794932 0.595188 0.709716 -0.11473
C_ C_ 0.566424 0.632001 0.786913 -0.11473
C_ C_ 0.806036 0.63521 0.787583 -0.11473
C_ C_ 0.559247 0.637363 0.712535 -0.11473
C_ C_ 0.813246 0.631293 0.712291 -0.11473
C_ C_ 0.536969 0.578598 0.74896 -0.02249
C_ C_ 0.783229 0.578622 0.74829 -0.02249
C_ C_ 0.586133 0.695437 0.750306 0.6875
C_ C_ 0.836558 0.693511 0.7505 0.6875
C_ C_ 0.548516 0.595026 0.786348 -0.11473
C_ C_ 0.790019 0.597997 0.785867 -0.11473
C_ C_ 0.654748 0.754443 0.872213 0.17695
C_ C_ 0.882567 0.70349 0.878938 0.17695
C_ C_ 0.602327 0.758733 0.877473 0.17695
C_ C_ 0.869204 0.775926 0.881418 0.17695
C_ C_ 0.604272 0.757842 0.920313 -0.11473
C_ C_ 0.868974 0.77465 0.926238 -0.11473
C_ C_ 0.632946 0.750584 0.941069 0.23465
C_ C_ 0.874061 0.737697 0.946939 0.23465
C_ C_ 0.657674 0.745465 0.915621 -0.11473
C_ C_ 0.881846 0.701302 0.923008 -0.11473
C_ C_ 0.616282 0.730791 0.619045 0.17695
C_ C_ 0.881663 0.789729 0.631181 0.17695
C_ C_ 0.633217 0.799695 0.625596 0.17695
C_ C_ 0.874537 0.719424 0.62484 0.17695
C_ C_ 0.631595 0.804313 0.580803 -0.11473
C_ C_ 0.868373 0.721763 0.582055 -0.11473
C_ C_ 0.621316 0.771072 0.556611 0.23465
C_ C_ 0.870974 0.759866 0.562232 0.23465
C_ C_ 0.6123 0.734927 0.575558 -0.11473
C_ C_ 0.878828 0.793384 0.587697 -0.11473
C_ C_ 0.527143 -0.002175000000000038 0.758911 0.05793
C_ C_ 0.784627 -0.001690999999999998 0.757297 0.05793
C_ C_ 0.718028 0.499402 0.749812 0.05793
C_ C_ 0.968651 0.499433 0.761205 0.05793
Br Br 0.569533 -0.00328700000000004 0.767822 -0.17191
Br Br 0.828012 0.996634 0.759123 -0.17191
Br Br 0.674332 0.498579 0.749981 -0.17191
Br Br 0.932486 0.501352 0.793371 -0.17191
N_ N_ 0.627645 0.760155 0.853074 -0.272
N_ N_ 0.877837 0.740359 0.858944 -0.272
N_ N_ 0.637009 0.750015 0.985577 -0.12501
N_ N_ 0.875803 0.734995 0.992151 -0.12501
N_ N_ 0.626071 0.761999 0.64347 -0.272
N_ N_ 0.878565 0.753375 0.649477 -0.272
N_ N_ 0.62127 0.774802 0.510611 -0.12501
N_ N_ 0.866892 0.764057 0.518143 -0.12501
O_ O_ 0.593861 0.797896 0.716845 -0.60745
O_ O_ 0.850603 0.797509 0.720825 -0.60745
O_ O_ 0.591979 0.792989 0.786622 -0.60745
O_ O_ 0.849242 0.794358 0.788718 -0.60745
O_ O_ 0.651232 0.8019 0.780986 -0.60745
O_ O_ 0.907125 0.797382 0.795326 -0.60745
O_ O_ 0.658189 0.797768 0.712677 -0.60745
O_ O_ 0.911877 0.786282 0.727888 -0.60745
O_ O_ 0.657951 0.707654 0.783682 -0.60745
O_ O_ 0.913666 0.711307 0.787909 -0.60745
O_ O_ 0.659349 0.711068 0.715527 -0.60745
O_ O_ 0.903279 0.704717 0.720662 -0.60745
O_ O_ 0.593907 0.711377 0.715189 -0.60745
O_ O_ 0.843796 0.708608 0.715227 -0.60745
O_ O_ 0.595669 0.710552 0.78458 -0.60745
O_ O_ 0.850303 0.705996 0.783174 -0.60745
_cell_length_a 44.444
_cell_length_b 32.3360000049186
_cell_length_c 31.843999878906452
_cell_angle_alpha 89.99799923859553
_cell_angle_beta 91.13600050494348
_cell_angle_gamma 89.9990006550086
_symmetry_space_group_name_H-M         'P 1'
_symmetry_Int_Tables_number            1
loop_
_symmetry_equiv_pos_as_xyz
   'x, y, z'
                         
loop_
_atom_site_label
_atom_site_type_symbol
_atom_site_fract_x 
_atom_site_fract_y
_atom_site_fract_z
_atom_site_charge
Zn Zn 0.125518 0.250889 0.281297 0.9476
Zn Zn 0.375993 0.247088 0.282814 0.9476
Zn Zn 0.121338 0.247693 0.212074 0.9476
Zn Zn 0.376228 0.245112 0.212075 0.9476
H_ H_ 0.0493847 0.438224 0.193069 0.10932
H_ H_ 0.297579 0.423128 0.184368 0.10932
H_ H_ 0.0523459 0.338327 0.316249 0.10932
H_ H_ 0.298953 0.329772 0.31148 0.10932
H_ H_ 0.0708249 0.366627 0.182878 0.10932
H_ H_ 0.33069 0.359431 0.187544 0.10932
H_ H_ 0.0285073 0.405337 0.320644 0.10932
H_ H_ 0.273654 0.400132 0.31662 0.10932
H_ H_ 0.19903 0.428662 0.307544 0.10932
H_ H_ 0.446315 0.434853 0.306231 0.10932
H_ H_ 0.200394 0.329263 0.188202 0.10932
H_ H_ 0.442151 0.336868 0.180478 0.10932
H_ H_ 0.168433 0.369636 0.308357 0.10932
H_ H_ 0.42419 0.367464 0.310972 0.10932
H_ H_ 0.230097 0.392579 0.182701 0.10932
H_ H_ 0.471711 0.40685 0.180041 0.10932
H_ H_ 0.204224 0.0779881 0.317114 0.10932
H_ H_ 0.467186 0.078602 0.308835 0.10932
H_ H_ 0.18855 0.150059 0.182864 0.10932
H_ H_ 0.447645 0.157844 0.179832 0.10932
H_ H_ 0.183659 0.146588 0.317637 0.10932
H_ H_ 0.438964 0.141014 0.311333 0.10932
H_ H_ 0.226425 0.087125 0.190074 0.10932
H_ H_ 0.479392 0.0929432 0.176543 0.10932
H_ H_ 0.0303263 0.078654 0.189278 0.10932
H_ H_ 0.295178 0.0711468 0.180556 0.10932
H_ H_ 0.0759186 0.141307 0.313016 0.10932
H_ H_ 0.310111 0.152267 0.312592 0.10932
H_ H_ 0.0560796 0.143492 0.181891 0.10932
H_ H_ 0.334508 0.123154 0.185795 0.10932
H_ H_ 0.0397816 0.082608 0.323196 0.10932
H_ H_ 0.27438 0.0939408 0.311271 0.10932
H_ H_ 0.120006 0.309533 0.352213 0.10932
H_ H_ 0.357684 0.305447 0.355379 0.10932
H_ H_ 0.129162 0.180755 0.36045 0.10932
H_ H_ 0.408147 0.193981 0.359737 0.10932
H_ H_ 0.132271 0.184478 0.438341 0.10932
H_ H_ 0.406992 0.192341 0.435933 0.10932
H_ H_ 0.117977 0.31888 0.429457 0.10932
H_ H_ 0.358815 0.307742 0.432252 0.10932
H_ H_ 0.126489 0.310566 0.137048 0.10932
H_ H_ 0.425686 0.264654 0.133377 0.10932
H_ H_ 0.119493 0.179924 0.140581 0.10932
H_ H_ 0.331155 0.227906 0.135257 0.10932
H_ H_ 0.12661 0.177063 0.0625207 0.10932
H_ H_ 0.334653 0.215649 0.0579678 0.10932
H_ H_ 0.120693 0.30954 0.0600666 0.10932
H_ H_ 0.424146 0.26494 0.0583398 0.10932
C_ C_ 0.0649498 0.347033 0.247287 -0.02249
C_ C_ 0.315918 0.342848 0.248875 -0.02249
C_ C_ 0.0141097 0.462539 0.257843 -0.02249
C_ C_ 0.266021 0.45557 0.250213 -0.02249
C_ C_ 0.0475113 0.414017 0.217793 -0.11473
C_ C_ 0.297612 0.404121 0.213542 -0.11473
C_ C_ 0.0510461 0.358359 0.286851 -0.11473
C_ C_ 0.30008 0.353448 0.286781 -0.11473
C_ C_ 0.061129 0.374668 0.213411 -0.11473
C_ C_ 0.315617 0.368231 0.213509 -0.11473
C_ C_ 0.0338406 0.423971 0.254907 -0.02249
C_ C_ 0.282452 0.416008 0.249501 -0.02249
C_ C_ 0.084551 0.309387 0.245201 0.6875
C_ C_ 0.336451 0.305368 0.25016 0.6875
C_ C_ 0.0348325 0.395003 0.288891 -0.11473
C_ C_ 0.285783 0.391296 0.288249 -0.11473
C_ C_ 0.181418 0.346335 0.245923 -0.02249
C_ C_ 0.430129 0.346887 0.246309 -0.02249
C_ C_ 0.23457 0.456116 0.241672 -0.02249
C_ C_ 0.479363 0.463198 0.243142 -0.02249
C_ C_ 0.201759 0.408393 0.282302 -0.11473
C_ C_ 0.445665 0.414425 0.277669 -0.11473
C_ C_ 0.200198 0.352514 0.213012 -0.11473
C_ C_ 0.444601 0.359115 0.207457 -0.11473
C_ C_ 0.184385 0.372843 0.282974 -0.11473
C_ C_ 0.430738 0.376118 0.280737 -0.11473
C_ C_ 0.218767 0.417453 0.243999 -0.02249
C_ C_ 0.461146 0.425355 0.241956 -0.02249
C_ C_ 0.163682 0.307844 0.247515 0.6875
C_ C_ 0.412595 0.308908 0.248781 0.6875
C_ C_ 0.214147 0.390574 0.208337 -0.11473
C_ C_ 0.458761 0.399734 0.206446 -0.11473
C_ C_ 0.181503 0.15006 0.250063 -0.02249
C_ C_ 0.439533 0.154514 0.245548 -0.02249
C_ C_ 0.233086 0.0361042 0.252738 -0.02249
C_ C_ 0.488017 0.0360204 0.240408 -0.02249
C_ C_ 0.204653 0.0943476 0.287874 -0.11473
C_ C_ 0.462692 0.093608 0.278709 -0.11473
C_ C_ 0.194976 0.133459 0.212636 -0.11473
C_ C_ 0.451264 0.139245 0.208116 -0.11473
C_ C_ 0.190657 0.132832 0.288276 -0.11473
C_ C_ 0.447365 0.131619 0.282033 -0.11473
C_ C_ 0.214252 0.0752343 0.250357 -0.02249
C_ C_ 0.471946 0.0770563 0.241138 -0.02249
C_ C_ 0.164309 0.189921 0.248139 0.6875
C_ C_ 0.418467 0.18929 0.244201 0.6875
C_ C_ 0.209983 0.0953682 0.213822 -0.11473
C_ C_ 0.469585 0.102821 0.206432 -0.11473
C_ C_ 0.0647687 0.151468 0.248272 -0.02249
C_ C_ 0.321063 0.146876 0.247995 -0.02249
C_ C_ 0.0158856 0.0374839 0.258506 -0.02249
C_ C_ 0.265238 0.0379786 0.250649 -0.02249
C_ C_ 0.0374091 0.0951012 0.216634 -0.11473
C_ C_ 0.297297 0.0889134 0.211002 -0.11473
C_ C_ 0.0619322 0.132337 0.286883 -0.11473
C_ C_ 0.305449 0.135407 0.284081 -0.11473
C_ C_ 0.0512994 0.132842 0.212983 -0.11473
C_ C_ 0.317691 0.122055 0.211643 -0.11473
C_ C_ 0.0302936 0.0792517 0.254747 -0.02249
C_ C_ 0.280636 0.0784594 0.246137 -0.02249
C_ C_ 0.0828234 0.190098 0.244051 0.6875
C_ C_ 0.341232 0.183742 0.246883 0.6875
C_ C_ 0.041381 0.0985178 0.29157 -0.11473
C_ C_ 0.285381 0.102924 0.282403 -0.11473
C_ C_ 0.120611 0.282913 0.37205 0.17695
C_ C_ 0.36524 0.277212 0.373362 0.17695
C_ C_ 0.122894 0.209025 0.376148 0.17695
C_ C_ 0.394442 0.217583 0.375178 0.17695
C_ C_ 0.124756 0.210971 0.420723 -0.11473
C_ C_ 0.394503 0.215805 0.419451 -0.11473
C_ C_ 0.122091 0.250759 0.440795 0.23465
C_ C_ 0.382269 0.249412 0.44055 0.23465
C_ C_ 0.119324 0.286726 0.416327 -0.11473
C_ C_ 0.369033 0.280668 0.41671 -0.11473
C_ C_ 0.12801 0.280865 0.12008 0.17695
C_ C_ 0.403615 0.256291 0.118668 0.17695
C_ C_ 0.125487 0.207324 0.122699 0.17695
C_ C_ 0.353762 0.230858 0.118772 0.17695
C_ C_ 0.124714 0.206251 0.0777355 -0.11473
C_ C_ 0.354469 0.223976 0.0746201 -0.11473
C_ C_ 0.122796 0.24114 0.0548193 0.23465
C_ C_ 0.378724 0.237631 0.0520622 0.23465
C_ C_ 0.122521 0.280744 0.0758269 -0.11473
C_ C_ 0.403954 0.254199 0.0750126 -0.11473
C_ C_ 0.0289084 0.500703 0.264532 0.05793
C_ C_ 0.281939 0.494087 0.25627 0.05793
C_ C_ 0.218184 -0.003506000000000009 0.255392 0.05793
C_ C_ 0.470843 0.999882154 0.245908 0.05793
Br Br 0.0706292 0.501334 0.288719 -0.17191
Br Br 0.325143 0.495286 0.269645 -0.17191
Br Br 0.174081 -0.0043919999999999515 0.256822 -0.17191
Br Br 0.427933 1.00386187 0.240167 -0.17191
N_ N_ 0.121179 0.244691 0.353958 -0.272
N_ N_ 0.380042 0.246874 0.352532 -0.272
N_ N_ 0.126931 0.255285 0.486453 -0.12501
N_ N_ 0.388084 0.255496 0.484547 -0.12501
N_ N_ 0.125485 0.243806 0.142319 -0.272
N_ N_ 0.377636 0.24688 0.140248 -0.272
N_ N_ 0.116978 0.239045 0.0104797 -0.12501
N_ N_ 0.376938 0.237549 0.00683341 -0.12501
O_ O_ 0.0928691 0.294945 0.209198 -0.60745
O_ O_ 0.342403 0.287102 0.216882 -0.60745
O_ O_ 0.0927391 0.292771 0.280395 -0.60745
O_ O_ 0.342719 0.287815 0.285075 -0.60745
O_ O_ 0.152966 0.296621 0.282118 -0.60745
O_ O_ 0.403912 0.293982 0.282797 -0.60745
O_ O_ 0.154909 0.289385 0.214351 -0.60745
O_ O_ 0.405293 0.290844 0.21601 -0.60745
O_ O_ 0.157798 0.208569 0.28207 -0.60745
O_ O_ 0.410128 0.20336 0.278865 -0.60745
O_ O_ 0.151389 0.200745 0.213865 -0.60745
O_ O_ 0.405439 0.20035 0.210716 -0.60745
O_ O_ 0.0890138 0.203712 0.208008 -0.60745
O_ O_ 0.343796 0.20183 0.211256 -0.60745
O_ O_ 0.0960319 0.206346 0.277353 -0.60745
O_ O_ 0.350119 0.200823 0.280183 -0.60745
Zn Zn 0.123168 0.248695 0.784134 0.9476
Zn Zn 0.376584 0.253115 0.784545 0.9476
Zn Zn 0.124287 0.247088 0.713958 0.9476
Zn Zn 0.375244 0.253224 0.71376 0.9476
H_ H_ 0.0362424 0.414093 0.679518 0.10932
H_ H_ 0.281954 0.4173 0.67895 0.10932
H_ H_ 0.0602871 0.351175 0.817265 0.10932
H_ H_ 0.310739 0.351248 0.813767 0.10932
H_ H_ 0.0605813 0.349024 0.68249 0.10932
H_ H_ 0.31967 0.361648 0.68313 0.10932
H_ H_ 0.034747 0.418181 0.810937 0.10932
H_ H_ 0.279552 0.413257 0.815318 0.10932
H_ H_ 0.210791 0.418205 0.817357 0.10932
H_ H_ 0.466314 0.421798 0.813619 0.10932
H_ H_ 0.18179 0.354732 0.677259 0.10932
H_ H_ 0.444444 0.34782 0.680978 0.10932
H_ H_ 0.187949 0.347173 0.813957 0.10932
H_ H_ 0.429462 0.366417 0.815888 0.10932
H_ H_ 0.211544 0.422035 0.681425 0.10932
H_ H_ 0.478535 0.406052 0.67847 0.10932
H_ H_ 0.225152 0.103028 0.819364 0.10932
H_ H_ 0.455604 0.0786448 0.819815 0.10932
H_ H_ 0.166233 0.123481 0.688612 0.10932
H_ H_ 0.43412 0.148331 0.679098 0.10932
H_ H_ 0.199442 0.166417 0.80878 0.10932
H_ H_ 0.42922 0.143648 0.814842 0.10932
H_ H_ 0.206195 0.0650803 0.692289 0.10932
H_ H_ 0.470309 0.089441 0.682558 0.10932
H_ H_ 0.0404961 0.0770922 0.684248 0.10932
H_ H_ 0.277081 0.0897446 0.684923 0.10932
H_ H_ 0.0573057 0.150396 0.818938 0.10932
H_ H_ 0.322752 0.141223 0.817573 0.10932
H_ H_ 0.0596802 0.149434 0.683144 0.10932
H_ H_ 0.305081 0.154949 0.686552 0.10932
H_ H_ 0.0310607 0.0836635 0.816828 0.10932
H_ H_ 0.288744 0.0859076 0.821689 0.10932
H_ H_ 0.152836 0.307005 0.852311 0.10932
H_ H_ 0.3933 0.314651 0.855997 0.10932
H_ H_ 0.109644 0.190889 0.86006 0.10932
H_ H_ 0.372219 0.187436 0.861161 0.10932
H_ H_ 0.106031 0.196794 0.935202 0.10932
H_ H_ 0.382724 0.187001 0.936324 0.10932
H_ H_ 0.149316 0.314756 0.929691 0.10932
H_ H_ 0.397748 0.316238 0.932382 0.10932
H_ H_ 0.0757268 0.237909 0.650666 0.10932
H_ H_ 0.368255 0.18235 0.639268 0.10932
H_ H_ 0.166898 0.248596 0.635433 0.10932
H_ H_ 0.366756 0.313085 0.634334 0.10932
H_ H_ 0.162023 0.255574 0.558214 0.10932
H_ H_ 0.376616 0.311823 0.556809 0.10932
H_ H_ 0.0673057 0.236756 0.572038 0.10932
H_ H_ 0.362504 0.178919 0.563112 0.10932
C_ C_ 0.0641736 0.344997 0.748793 -0.02249
C_ C_ 0.316889 0.350588 0.748173 -0.02249
C_ C_ 0.0132645 0.460742 0.745734 -0.02249
C_ C_ 0.26358 0.46122 0.744387 -0.02249
C_ C_ 0.040619 0.399825 0.709729 -0.11473
C_ C_ 0.287914 0.401413 0.709423 -0.11473
C_ C_ 0.0560081 0.366218 0.787718 -0.11473
C_ C_ 0.305531 0.364957 0.78512 -0.11473
C_ C_ 0.0555627 0.362293 0.711446 -0.11473
C_ C_ 0.308095 0.369317 0.709568 -0.11473
C_ C_ 0.0310439 0.419829 0.746238 -0.02249
C_ C_ 0.278848 0.421653 0.746691 -0.02249
C_ C_ 0.08162 0.30478 0.750637 0.6875
C_ C_ 0.338515 0.313931 0.749086 0.6875
C_ C_ 0.038075 0.401454 0.784695 -0.11473
C_ C_ 0.288176 0.403175 0.784864 -0.11473
C_ C_ 0.182974 0.346842 0.745735 -0.02249
C_ C_ 0.432998 0.353713 0.745666 -0.02249
C_ C_ 0.232355 0.462588 0.748701 -0.02249
C_ C_ 0.489055 0.463515 0.745659 -0.02249
C_ C_ 0.205472 0.404484 0.786169 -0.11473
C_ C_ 0.458926 0.409476 0.783778 -0.11473
C_ C_ 0.190569 0.366797 0.708035 -0.11473
C_ C_ 0.447667 0.365238 0.709013 -0.11473
C_ C_ 0.191484 0.364628 0.783502 -0.11473
C_ C_ 0.438703 0.376529 0.783505 -0.11473
C_ C_ 0.215012 0.422462 0.74963 -0.02249
C_ C_ 0.471428 0.423208 0.746032 -0.02249
C_ C_ 0.164475 0.307128 0.745311 0.6875
C_ C_ 0.414614 0.31583 0.746204 0.6875
C_ C_ 0.205872 0.404655 0.711308 -0.11473
C_ C_ 0.467635 0.398066 0.709259 -0.11473
C_ C_ 0.182723 0.151995 0.744266 -0.02249
C_ C_ 0.429843 0.151594 0.747487 -0.02249
C_ C_ 0.234977 0.0403753 0.760298 -0.02249
C_ C_ 0.48056 0.0401384 0.755383 -0.02249
C_ C_ 0.215998 0.108709 0.789464 -0.11473
C_ C_ 0.453319 0.0954384 0.788362 -0.11473
C_ C_ 0.183509 0.122 0.712863 -0.11473
C_ C_ 0.439925 0.134694 0.710487 -0.11473
C_ C_ 0.198561 0.144414 0.783556 -0.11473
C_ C_ 0.434925 0.130071 0.785497 -0.11473
C_ C_ 0.217015 0.078843 0.756798 -0.02249
C_ C_ 0.466127 0.0791512 0.752073 -0.02249
C_ C_ 0.161055 0.187007 0.742404 0.6875
C_ C_ 0.413032 0.191626 0.747449 0.6875
C_ C_ 0.203707 0.0885545 0.717427 -0.11473
C_ C_ 0.458948 0.0989507 0.712623 -0.11473
C_ C_ 0.0629235 0.153291 0.750283 -0.02249
C_ C_ 0.319924 0.15246 0.749359 -0.02249
C_ C_ 0.0131057 0.0393618 0.748603 -0.02249
C_ C_ 0.266309 0.0413311 0.755025 -0.02249
C_ C_ 0.0409994 0.0970473 0.711462 -0.11473
C_ C_ 0.287088 0.101743 0.714858 -0.11473
C_ C_ 0.0544073 0.134576 0.789655 -0.11473
C_ C_ 0.313949 0.130862 0.787815 -0.11473
C_ C_ 0.0595131 0.131342 0.71313 -0.11473
C_ C_ 0.30669 0.135918 0.711904 -0.11473
C_ C_ 0.0298466 0.0797363 0.749137 -0.02249
C_ C_ 0.283454 0.0804272 0.753396 -0.02249
C_ C_ 0.0810689 0.191892 0.751375 0.6875
C_ C_ 0.339538 0.189219 0.749569 0.6875
C_ C_ 0.0377441 0.098468 0.788398 -0.11473
C_ C_ 0.292559 0.100363 0.789476 -0.11473
C_ C_ 0.14009 0.284158 0.871727 0.17695
C_ C_ 0.389698 0.285905 0.873333 0.17695
C_ C_ 0.114059 0.221518 0.875416 0.17695
C_ C_ 0.377686 0.214335 0.877662 0.17695
C_ C_ 0.11227 0.224847 0.918256 -0.11473
C_ C_ 0.383525 0.215764 0.921036 -0.11473
C_ C_ 0.124518 0.260369 0.940093 0.23465
C_ C_ 0.392785 0.252018 0.94028 0.23465
C_ C_ 0.13759 0.29022 0.915454 -0.11473
C_ C_ 0.395079 0.286571 0.915904 -0.11473
C_ C_ 0.0935732 0.247227 0.628615 0.17695
C_ C_ 0.366545 0.210731 0.621116 0.17695
C_ C_ 0.146071 0.252549 0.619592 0.17695
C_ C_ 0.36962 0.284281 0.61859 0.17695
C_ C_ 0.142622 0.253843 0.576875 -0.11473
C_ C_ 0.372298 0.283276 0.572735 -0.11473
C_ C_ 0.113691 0.249031 0.557996 0.23465
C_ C_ 0.374231 0.244633 0.55411 0.23465
C_ C_ 0.089293 0.244888 0.584366 -0.11473
C_ C_ 0.367778 0.209082 0.578011 -0.11473
C_ C_ 0.0306204 0.497607 0.743674 0.05793
C_ C_ 0.280585 0.499381 0.746277 0.05793
C_ C_ 0.218999 0.00199059 0.763028 0.05793
C_ C_ 0.464347 1.00217497 0.753107 0.05793
Br Br 0.0714992 0.4956 0.730775 -0.17191
Br Br 0.324002 0.499352 0.752268 -0.17191
Br Br 0.176386 -0.0013490000000000446 0.765996 -0.17191
Br Br 0.421787 1.00397378 0.741977 -0.17191
N_ N_ 0.128409 0.250157 0.852415 -0.272
N_ N_ 0.380894 0.250909 0.855667 -0.272
N_ N_ 0.127472 0.264428 0.984989 -0.12501
N_ N_ 0.395776 0.254796 0.984596 -0.12501
N_ N_ 0.121875 0.251579 0.644603 -0.272
N_ N_ 0.371168 0.248101 0.641346 -0.272
N_ N_ 0.110558 0.240154 0.514087 -0.12501
N_ N_ 0.370084 0.241712 0.510426 -0.12501
O_ O_ 0.0916944 0.288948 0.71687 -0.60745
O_ O_ 0.345632 0.295459 0.714745 -0.60745
O_ O_ 0.0920196 0.29299 0.785984 -0.60745
O_ O_ 0.345556 0.296419 0.782961 -0.60745
O_ O_ 0.156446 0.291616 0.781085 -0.60745
O_ O_ 0.407836 0.299009 0.781789 -0.60745
O_ O_ 0.154894 0.291259 0.711243 -0.60745
O_ O_ 0.4079 0.295888 0.71292 -0.60745
O_ O_ 0.151162 0.201059 0.775634 -0.60745
O_ O_ 0.408642 0.209651 0.78269 -0.60745
O_ O_ 0.154581 0.203372 0.706867 -0.60745
O_ O_ 0.405433 0.208812 0.713638 -0.60745
O_ O_ 0.0900745 0.210319 0.718272 -0.60745
O_ O_ 0.343252 0.207824 0.715695 -0.60745
O_ O_ 0.0907256 0.203966 0.786573 -0.60745
O_ O_ 0.347592 0.207448 0.784194 -0.60745
Zn Zn 0.127601 0.74176 0.283713 0.9476
Zn Zn 0.375298 0.751251 0.282303 0.9476
Zn Zn 0.123479 0.747125 0.216542 0.9476
Zn Zn 0.374361 0.746145 0.214197 0.9476
H_ H_ 0.0362679 0.919565 0.194456 0.10932
H_ H_ 0.285054 0.919245 0.187122 0.10932
H_ H_ 0.0780037 0.856877 0.321939 0.10932
H_ H_ 0.304463 0.842213 0.319452 0.10932
H_ H_ 0.0705322 0.861586 0.187917 0.10932
H_ H_ 0.320531 0.85771 0.190066 0.10932
H_ H_ 0.041024 0.916193 0.328715 0.10932
H_ H_ 0.277035 0.91033 0.318397 0.10932
H_ H_ 0.201206 0.926011 0.316458 0.10932
H_ H_ 0.472917 0.911555 0.317596 0.10932
H_ H_ 0.199586 0.842845 0.185681 0.10932
H_ H_ 0.424578 0.863079 0.184723 0.10932
H_ H_ 0.180129 0.854592 0.317912 0.10932
H_ H_ 0.443757 0.845986 0.317407 0.10932
H_ H_ 0.219418 0.912776 0.186594 0.10932
H_ H_ 0.453656 0.925215 0.18498 0.10932
H_ H_ 0.210834 0.572232 0.311597 0.10932
H_ H_ 0.462257 0.583989 0.309148 0.10932
H_ H_ 0.181356 0.642105 0.180841 0.10932
H_ H_ 0.435375 0.651094 0.175943 0.10932
H_ H_ 0.182185 0.632904 0.314288 0.10932
H_ H_ 0.436778 0.64785 0.310605 0.10932
H_ H_ 0.207789 0.575755 0.177421 0.10932
H_ H_ 0.463359 0.588341 0.174084 0.10932
H_ H_ 0.0582966 0.559255 0.19968 0.10932
H_ H_ 0.296517 0.566014 0.186614 0.10932
H_ H_ 0.0406513 0.669802 0.305547 0.10932
H_ H_ 0.304797 0.655556 0.31454 0.10932
H_ H_ 0.0816738 0.624852 0.192832 0.10932
H_ H_ 0.329749 0.628012 0.184715 0.10932
H_ H_ 0.0168099 0.59925 0.312896 0.10932
H_ H_ 0.274135 0.5913 0.311988 0.10932
H_ H_ 0.125095 0.805451 0.367812 0.10932
H_ H_ 0.364147 0.68002 0.35366 0.10932
H_ H_ 0.131105 0.671686 0.357565 0.10932
H_ H_ 0.386776 0.80891 0.36131 0.10932
H_ H_ 0.129167 0.66877 0.433434 0.10932
H_ H_ 0.384448 0.807119 0.437582 0.10932
H_ H_ 0.117037 0.797608 0.443359 0.10932
H_ H_ 0.357419 0.678717 0.428049 0.10932
H_ H_ 0.169751 0.742718 0.141958 0.10932
H_ H_ 0.379061 0.68593 0.137641 0.10932
H_ H_ 0.0749549 0.758476 0.141762 0.10932
H_ H_ 0.355762 0.812298 0.144963 0.10932
H_ H_ 0.0732325 0.740868 0.0607337 0.10932
H_ H_ 0.357945 0.818223 0.0644596 0.10932
H_ H_ 0.168294 0.737852 0.0620706 0.10932
H_ H_ 0.366665 0.685753 0.0581523 0.10932
C_ C_ 0.0695897 0.846884 0.256114 -0.02249
C_ C_ 0.313538 0.845269 0.254283 -0.02249
C_ C_ 0.0179123 0.96224 0.261602 -0.02249
C_ C_ 0.26511 0.961194 0.25228 -0.02249
C_ C_ 0.0444958 0.904361 0.221551 -0.11473
C_ C_ 0.289731 0.90329 0.214622 -0.11473
C_ C_ 0.0655182 0.867534 0.294571 -0.11473
C_ C_ 0.301075 0.860676 0.291047 -0.11473
C_ C_ 0.0654273 0.872789 0.220313 -0.11473
C_ C_ 0.306807 0.865682 0.216468 -0.11473
C_ C_ 0.0356117 0.922829 0.260193 -0.02249
C_ C_ 0.281725 0.92119 0.251655 -0.02249
C_ C_ 0.0902775 0.808033 0.251422 0.6875
C_ C_ 0.331909 0.80759 0.254801 0.6875
C_ C_ 0.0492662 0.904523 0.296929 -0.11473
C_ C_ 0.285087 0.898223 0.289726 -0.11473
C_ C_ 0.187095 0.841493 0.252474 -0.02249
C_ C_ 0.434614 0.845887 0.24846 -0.02249
C_ C_ 0.233741 0.959968 0.25516 -0.02249
C_ C_ 0.485151 0.962141 0.249505 -0.02249
C_ C_ 0.202514 0.904325 0.290369 -0.11473
C_ C_ 0.463447 0.900327 0.28749 -0.11473
C_ C_ 0.203088 0.857956 0.216965 -0.11473
C_ C_ 0.434489 0.872985 0.213502 -0.11473
C_ C_ 0.18845 0.865927 0.289303 -0.11473
C_ C_ 0.448827 0.861433 0.286814 -0.11473
C_ C_ 0.217096 0.919985 0.254663 -0.02249
C_ C_ 0.467056 0.922537 0.251087 -0.02249
C_ C_ 0.170089 0.800873 0.24895 0.6875
C_ C_ 0.412775 0.808388 0.250043 0.6875
C_ C_ 0.213733 0.898829 0.216635 -0.11473
C_ C_ 0.453358 0.907805 0.213964 -0.11473
C_ C_ 0.184093 0.648385 0.247611 -0.02249
C_ C_ 0.432678 0.654598 0.243082 -0.02249
C_ C_ 0.235167 0.532567 0.242291 -0.02249
C_ C_ 0.481146 0.53908 0.243425 -0.02249
C_ C_ 0.2105 0.590537 0.284438 -0.11473
C_ C_ 0.457223 0.598834 0.27958 -0.11473
C_ C_ 0.191012 0.629786 0.209013 -0.11473
C_ C_ 0.43944 0.635649 0.20561 -0.11473
C_ C_ 0.193267 0.626306 0.285212 -0.11473
C_ C_ 0.440172 0.634006 0.281149 -0.11473
C_ C_ 0.217499 0.573063 0.244936 -0.02249
C_ C_ 0.464825 0.579304 0.242171 -0.02249
C_ C_ 0.167547 0.687273 0.250159 0.6875
C_ C_ 0.417751 0.695437 0.245055 0.6875
C_ C_ 0.207032 0.592441 0.207174 -0.11473
C_ C_ 0.455621 0.59887 0.205159 -0.11473
C_ C_ 0.0642133 0.651539 0.248272 -0.02249
C_ C_ 0.320406 0.645145 0.248211 -0.02249
C_ C_ 0.0137772 0.538432 0.257615 -0.02249
C_ C_ 0.26689 0.53176 0.251987 -0.02249
C_ C_ 0.0518708 0.583846 0.220528 -0.11473
C_ C_ 0.298893 0.583499 0.214198 -0.11473
C_ C_ 0.0450878 0.644724 0.282238 -0.11473
C_ C_ 0.304338 0.634581 0.284166 -0.11473
C_ C_ 0.0686594 0.620857 0.219845 -0.11473
C_ C_ 0.315696 0.620831 0.212745 -0.11473
C_ C_ 0.0323738 0.577351 0.253741 -0.02249
C_ C_ 0.283884 0.571738 0.249634 -0.02249
C_ C_ 0.0823886 0.690628 0.248565 0.6875
C_ C_ 0.339247 0.682921 0.24604 0.6875
C_ C_ 0.0293697 0.607761 0.284967 -0.11473
C_ C_ 0.28695 0.597537 0.285829 -0.11473
C_ C_ 0.126626 0.775359 0.381051 0.17695
C_ C_ 0.372754 0.707788 0.371957 0.17695
C_ C_ 0.130097 0.701674 0.374971 0.17695
C_ C_ 0.384304 0.780731 0.375947 0.17695
C_ C_ 0.129816 0.697547 0.419028 -0.11473
C_ C_ 0.381242 0.779353 0.419625 -0.11473
C_ C_ 0.128535 0.732279 0.445256 0.23465
C_ C_ 0.375336 0.742307 0.441147 0.23465
C_ C_ 0.12514 0.771183 0.425556 -0.11473
C_ C_ 0.369189 0.70676 0.416441 -0.11473
C_ C_ 0.148536 0.740729 0.123572 0.17695
C_ C_ 0.372091 0.714385 0.121865 0.17695
C_ C_ 0.0949914 0.748735 0.123224 0.17695
C_ C_ 0.361429 0.785249 0.126874 0.17695
C_ C_ 0.0943999 0.74868 0.0791495 -0.11473
C_ C_ 0.360304 0.788387 0.0820006 -0.11473
C_ C_ 0.121423 0.741257 0.0571731 0.23465
C_ C_ 0.368054 0.753084 0.0564313 0.23465
C_ C_ 0.148346 0.735837 0.0806141 -0.11473
C_ C_ 0.367584 0.713576 0.0775734 -0.11473
C_ C_ 0.0323059 1.00141782 0.262096 0.05793
C_ C_ 0.281382 0.999013915 0.250271 0.05793
C_ C_ 0.218244 0.494067 0.24208 0.05793
C_ C_ 0.464586 0.502469 0.247215 0.05793
Br Br 0.0734989 0.0101432 0.27697 -0.17191
Br Br 0.324753 0.998436 0.240099 -0.17191
Br Br 0.174293 0.495278 0.241162 -0.17191
Br Br 0.422716 0.504056 0.260588 -0.17191
N_ N_ 0.128629 0.740273 0.356458 -0.272
N_ N_ 0.3791 0.745547 0.353006 -0.272
N_ N_ 0.128997 0.726585 0.489492 -0.12501
N_ N_ 0.370463 0.740534 0.486105 -0.12501
N_ N_ 0.122887 0.744305 0.144516 -0.272
N_ N_ 0.368797 0.74898 0.14548 -0.272
N_ N_ 0.120848 0.733112 0.0126842 -0.12501
N_ N_ 0.373058 0.758705 0.0128621 -0.12501
O_ O_ 0.0974383 0.794652 0.214572 -0.60745
O_ O_ 0.338138 0.78784 0.220216 -0.60745
O_ O_ 0.0981002 0.786028 0.28363 -0.60745
O_ O_ 0.346105 0.79794 0.287906 -0.60745
O_ O_ 0.162499 0.783619 0.284086 -0.60745
O_ O_ 0.412037 0.785758 0.282587 -0.60745
O_ O_ 0.157955 0.78856 0.213548 -0.60745
O_ O_ 0.39739 0.797795 0.217058 -0.60745
O_ O_ 0.158165 0.703153 0.284274 -0.60745
O_ O_ 0.404162 0.703787 0.279158 -0.60745
O_ O_ 0.154656 0.70002 0.21639 -0.60745
O_ O_ 0.409764 0.713216 0.210298 -0.60745
O_ O_ 0.0878957 0.709446 0.213838 -0.60745
O_ O_ 0.349401 0.695548 0.211319 -0.60745
O_ O_ 0.0962367 0.699524 0.28196 -0.60745
O_ O_ 0.344531 0.704748 0.278514 -0.60745
Zn Zn 0.125462 0.75172 0.784803 0.9476
Zn Zn 0.373576 0.750044 0.784542 0.9476
Zn Zn 0.126826 0.752184 0.71748 0.9476
Zn Zn 0.374194 0.749165 0.714359 0.9476
H_ H_ 0.0232763 0.908444 0.683877 0.10932
H_ H_ 0.301963 0.933765 0.689141 0.10932
H_ H_ 0.0673381 0.85946 0.819666 0.10932
H_ H_ 0.30818 0.848217 0.815016 0.10932
H_ H_ 0.0514172 0.84062 0.682953 0.10932
H_ H_ 0.324938 0.86431 0.686934 0.10932
H_ H_ 0.0387618 0.927477 0.817021 0.10932
H_ H_ 0.284257 0.916693 0.817429 0.10932
H_ H_ 0.207606 0.926071 0.824272 0.10932
H_ H_ 0.46273 0.918391 0.824396 0.10932
H_ H_ 0.207968 0.839769 0.695395 0.10932
H_ H_ 0.423917 0.863211 0.691642 0.10932
H_ H_ 0.171823 0.869716 0.818693 0.10932
H_ H_ 0.438434 0.851098 0.820683 0.10932
H_ H_ 0.221547 0.913951 0.690415 0.10932
H_ H_ 0.450165 0.924835 0.688751 0.10932
H_ H_ 0.217891 0.579941 0.816963 0.10932
H_ H_ 0.469312 0.578909 0.813471 0.10932
H_ H_ 0.183074 0.644102 0.685285 0.10932
H_ H_ 0.438824 0.65091 0.681186 0.10932
H_ H_ 0.189267 0.648367 0.821365 0.10932
H_ H_ 0.435612 0.640533 0.81892 0.10932
H_ H_ 0.215606 0.582222 0.681599 0.10932
H_ H_ 0.473558 0.595332 0.679782 0.10932
H_ H_ 0.0401637 0.58268 0.680203 0.10932
H_ H_ 0.292734 0.574296 0.682527 0.10932
H_ H_ 0.0682951 0.64363 0.820369 0.10932
H_ H_ 0.319574 0.644173 0.81593 0.10932
H_ H_ 0.0621308 0.65143 0.682127 0.10932
H_ H_ 0.313082 0.643237 0.67918 0.10932
H_ H_ 0.0412748 0.575623 0.816059 0.10932
H_ H_ 0.284692 0.583556 0.818378 0.10932
H_ H_ 0.129207 0.815526 0.858578 0.10932
H_ H_ 0.377055 0.811903 0.873482 0.10932
H_ H_ 0.130348 0.67996 0.864799 0.10932
H_ H_ 0.368401 0.6847 0.849865 0.10932
H_ H_ 0.130575 0.686928 0.941494 0.10932
H_ H_ 0.359288 0.674565 0.92633 0.10932
H_ H_ 0.133124 0.819216 0.93529 0.10932
H_ H_ 0.376367 0.803352 0.945405 0.10932
H_ H_ 0.0999453 0.700102 0.640852 0.10932
H_ H_ 0.37339 0.819766 0.642899 0.10932
H_ H_ 0.158987 0.803863 0.643116 0.10932
H_ H_ 0.372901 0.691335 0.639204 0.10932
H_ H_ 0.160708 0.803729 0.569971 0.10932
H_ H_ 0.37286 0.691152 0.562773 0.10932
H_ H_ 0.104301 0.699587 0.563062 0.10932
H_ H_ 0.378486 0.822937 0.563307 0.10932
C_ C_ 0.0641433 0.846602 0.750602 -0.02249
C_ C_ 0.315432 0.849784 0.749907 -0.02249
C_ C_ 0.0145603 0.963498 0.747048 -0.02249
C_ C_ 0.2664 0.965074 0.752436 -0.02249
C_ C_ 0.0345992 0.897942 0.712244 -0.11473
C_ C_ 0.297164 0.912173 0.713393 -0.11473
C_ C_ 0.0579166 0.869262 0.790675 -0.11473
C_ C_ 0.302718 0.86391 0.7871 -0.11473
C_ C_ 0.0495245 0.858817 0.714077 -0.11473
C_ C_ 0.312917 0.872826 0.713193 -0.11473
C_ C_ 0.0330751 0.923339 0.748 -0.02249
C_ C_ 0.284222 0.926806 0.751473 -0.02249
C_ C_ 0.0837429 0.808616 0.752646 0.6875
C_ C_ 0.333031 0.810411 0.749687 0.6875
C_ C_ 0.0436585 0.909047 0.788312 -0.11473
C_ C_ 0.28768 0.902266 0.788363 -0.11473
C_ C_ 0.185059 0.84959 0.756242 -0.02249
C_ C_ 0.426487 0.852172 0.756959 -0.02249
C_ C_ 0.235107 0.964156 0.760484 -0.02249
C_ C_ 0.479478 0.963001 0.756157 -0.02249
C_ C_ 0.205086 0.908018 0.794449 -0.11473
C_ C_ 0.458177 0.902673 0.794724 -0.11473
C_ C_ 0.202994 0.861258 0.721581 -0.11473
C_ C_ 0.430948 0.874218 0.71995 -0.11473
C_ C_ 0.187798 0.872163 0.794368 -0.11473
C_ C_ 0.443594 0.863739 0.792662 -0.11473
C_ C_ 0.219493 0.923939 0.758355 -0.02249
C_ C_ 0.461195 0.924696 0.758054 -0.02249
C_ C_ 0.168708 0.810097 0.755091 0.6875
C_ C_ 0.408709 0.81271 0.75845 0.6875
C_ C_ 0.215906 0.90083 0.720793 -0.11473
C_ C_ 0.447173 0.910607 0.72016 -0.11473
C_ C_ 0.184473 0.652261 0.752225 -0.02249
C_ C_ 0.437344 0.654261 0.752448 -0.02249
C_ C_ 0.234994 0.537398 0.750558 -0.02249
C_ C_ 0.490101 0.538181 0.745829 -0.02249
C_ C_ 0.211267 0.59682 0.78985 -0.11473
C_ C_ 0.464118 0.596295 0.786191 -0.11473
C_ C_ 0.18984 0.629611 0.714218 -0.11473
C_ C_ 0.446921 0.639651 0.713256 -0.11473
C_ C_ 0.195914 0.636615 0.79055 -0.11473
C_ C_ 0.442392 0.628769 0.788982 -0.11473
C_ C_ 0.218234 0.578004 0.750955 -0.02249
C_ C_ 0.471493 0.578826 0.746448 -0.02249
C_ C_ 0.165438 0.690447 0.750496 0.6875
C_ C_ 0.413294 0.68798 0.751087 0.6875
C_ C_ 0.20777 0.593959 0.712675 -0.11473
C_ C_ 0.465443 0.60405 0.711228 -0.11473
C_ C_ 0.0678084 0.650618 0.750465 -0.02249
C_ C_ 0.31823 0.652164 0.747797 -0.02249
C_ C_ 0.0168924 0.537325 0.748586 -0.02249
C_ C_ 0.266375 0.537424 0.749776 -0.02249
C_ C_ 0.0416514 0.598214 0.711439 -0.11473
C_ C_ 0.295027 0.591593 0.711333 -0.11473
C_ C_ 0.0612043 0.630233 0.789076 -0.11473
C_ C_ 0.308908 0.633176 0.786898 -0.11473
C_ C_ 0.0579987 0.634404 0.711759 -0.11473
C_ C_ 0.309141 0.630299 0.710203 -0.11473
C_ C_ 0.0357462 0.57676 0.748215 -0.02249
C_ C_ 0.283784 0.576565 0.748283 -0.02249
C_ C_ 0.0886341 0.687277 0.752486 0.6875
C_ C_ 0.33426 0.692331 0.747593 0.6875
C_ C_ 0.0443191 0.593846 0.787129 -0.11473
C_ C_ 0.293219 0.595257 0.787459 -0.11473
C_ C_ 0.130198 0.786337 0.875495 0.17695
C_ C_ 0.374742 0.781996 0.883615 0.17695
C_ C_ 0.129089 0.712175 0.87879 0.17695
C_ C_ 0.370975 0.710462 0.872079 0.17695
C_ C_ 0.132767 0.714769 0.923519 -0.11473
C_ C_ 0.369032 0.703094 0.913953 -0.11473
C_ C_ 0.135562 0.752961 0.943875 0.23465
C_ C_ 0.370817 0.737183 0.942477 0.23465
C_ C_ 0.133075 0.788555 0.919678 -0.11473
C_ C_ 0.378436 0.776166 0.927301 -0.11473
C_ C_ 0.11194 0.724716 0.622669 0.17695
C_ C_ 0.374774 0.792462 0.623831 0.17695
C_ C_ 0.147523 0.779566 0.626426 0.17695
C_ C_ 0.373034 0.720873 0.621993 0.17695
C_ C_ 0.147853 0.780157 0.584347 -0.11473
C_ C_ 0.374609 0.720548 0.578509 -0.11473
C_ C_ 0.134071 0.750993 0.558394 0.23465
C_ C_ 0.379236 0.756923 0.55564 0.23465
C_ C_ 0.115091 0.722281 0.579587 -0.11473
C_ C_ 0.374703 0.793168 0.57943 -0.11473
C_ C_ 0.029779 0.00257029 0.7458 0.05793
C_ C_ 0.281576 0.00344435 0.749086 0.05793
C_ C_ 0.217762 0.500111 0.752418 0.05793
C_ C_ 0.474338 0.500509 0.749814 0.05793
Br Br 0.0736053 0.00429604 0.746542 -0.17191
Br Br 0.325119 0.00480199 0.746651 -0.17191
Br Br 0.175345 0.501845 0.747547 -0.17191
Br Br 0.432511 0.501801 0.746819 -0.17191
N_ N_ 0.126569 0.749089 0.855791 -0.272
N_ N_ 0.372777 0.749247 0.856437 -0.272
N_ N_ 0.134666 0.756061 0.988279 -0.12501
N_ N_ 0.36865 0.729824 0.987047 -0.12501
N_ N_ 0.129105 0.751622 0.64628 -0.272
N_ N_ 0.376666 0.755236 0.644433 -0.272
N_ N_ 0.131666 0.756358 0.513256 -0.12501
N_ N_ 0.386983 0.758636 0.512936 -0.12501
O_ O_ 0.0925678 0.792131 0.719383 -0.60745
O_ O_ 0.339809 0.792721 0.714085 -0.60745
O_ O_ 0.0940645 0.79752 0.789189 -0.60745
O_ O_ 0.343671 0.796114 0.783768 -0.60745
O_ O_ 0.159537 0.79459 0.7887 -0.60745
O_ O_ 0.405678 0.791822 0.791843 -0.60745
O_ O_ 0.155956 0.799665 0.719638 -0.60745
O_ O_ 0.399007 0.798736 0.723056 -0.60745
O_ O_ 0.155361 0.703931 0.784722 -0.60745
O_ O_ 0.403275 0.702223 0.784488 -0.60745
O_ O_ 0.160666 0.70896 0.7149 -0.60745
O_ O_ 0.406116 0.706049 0.717059 -0.60745
O_ O_ 0.0993669 0.702886 0.718985 -0.60745
O_ O_ 0.345534 0.70442 0.712046 -0.60745
O_ O_ 0.0958743 0.703338 0.788405 -0.60745
O_ O_ 0.341592 0.711216 0.782372 -0.60745
Zn Zn 0.623105 0.254801 0.281226 0.9476
Zn Zn 0.876841 0.248875 0.287535 0.9476
Zn Zn 0.621814 0.251591 0.209579 0.9476
Zn Zn 0.874181 0.249534 0.215496 0.9476
H_ H_ 0.532657 0.420694 0.171191 0.10932
H_ H_ 0.775016 0.408377 0.193726 0.10932
H_ H_ 0.549047 0.346936 0.304998 0.10932
H_ H_ 0.829152 0.365068 0.320633 0.10932
H_ H_ 0.563721 0.357622 0.174194 0.10932
H_ H_ 0.801229 0.340639 0.194196 0.10932
H_ H_ 0.532439 0.418394 0.302309 0.10932
H_ H_ 0.792316 0.425982 0.323868 0.10932
H_ H_ 0.724563 0.414196 0.311307 0.10932
H_ H_ 0.943786 0.439012 0.306963 0.10932
H_ H_ 0.672991 0.366459 0.178702 0.10932
H_ H_ 0.951169 0.33539 0.193559 0.10932
H_ H_ 0.693992 0.348447 0.309982 0.10932
H_ H_ 0.926238 0.365763 0.31704 0.10932
H_ H_ 0.708223 0.427207 0.180185 0.10932
H_ H_ 0.977481 0.401382 0.189217 0.10932
H_ H_ 0.720944 0.0980427 0.322117 0.10932
H_ H_ 0.971369 0.0892377 0.32109 0.10932
H_ H_ 0.686737 0.15005 0.184359 0.10932
H_ H_ 0.927598 0.141155 0.18577 0.10932
H_ H_ 0.686395 0.160409 0.319255 0.10932
H_ H_ 0.942928 0.152217 0.320325 0.10932
H_ H_ 0.711392 0.0830585 0.189698 0.10932
H_ H_ 0.959314 0.0740394 0.190878 0.10932
H_ H_ 0.544315 0.0795476 0.174279 0.10932
H_ H_ 0.792222 0.0731537 0.185521 0.10932
H_ H_ 0.558158 0.146475 0.310443 0.10932
H_ H_ 0.803954 0.160411 0.318369 0.10932
H_ H_ 0.571927 0.145604 0.176487 0.10932
H_ H_ 0.813903 0.142866 0.181908 0.10932
H_ H_ 0.528287 0.0784048 0.306451 0.10932
H_ H_ 0.781799 0.0926631 0.321409 0.10932
H_ H_ 0.623975 0.193972 0.358925 0.10932
H_ H_ 0.871041 0.182559 0.354236 0.10932
H_ H_ 0.624869 0.3231 0.347282 0.10932
H_ H_ 0.880749 0.310393 0.364027 0.10932
H_ H_ 0.625989 0.331727 0.423257 0.10932
H_ H_ 0.879449 0.306786 0.440711 0.10932
H_ H_ 0.626274 0.199216 0.436606 0.10932
H_ H_ 0.864117 0.175986 0.43261 0.10932
H_ H_ 0.625831 0.184286 0.135538 0.10932
H_ H_ 0.840527 0.213958 0.141919 0.10932
H_ H_ 0.605321 0.313913 0.13721 0.10932
H_ H_ 0.920074 0.286121 0.139767 0.10932
H_ H_ 0.605361 0.314945 0.0592452 0.10932
H_ H_ 0.914615 0.295636 0.0657406 0.10932
H_ H_ 0.62748 0.186226 0.057265 0.10932
H_ H_ 0.837899 0.215415 0.0641078 0.10932
C_ C_ 0.563479 0.350635 0.240628 -0.02249
C_ C_ 0.819211 0.349824 0.255731 -0.02249
C_ C_ 0.51004 0.461332 0.236072 -0.02249
C_ C_ 0.76895 0.462227 0.254548 -0.02249
C_ C_ 0.536661 0.403792 0.198734 -0.11473
C_ C_ 0.788361 0.398878 0.218708 -0.11473
C_ C_ 0.552421 0.367395 0.277651 -0.11473
C_ C_ 0.816395 0.374315 0.292614 -0.11473
C_ C_ 0.554485 0.368974 0.202241 -0.11473
C_ C_ 0.804461 0.362413 0.21855 -0.11473
C_ C_ 0.526217 0.421344 0.236915 -0.02249
C_ C_ 0.784705 0.421399 0.255808 -0.02249
C_ C_ 0.580127 0.312459 0.24232 0.6875
C_ C_ 0.837783 0.30994 0.255789 0.6875
C_ C_ 0.536978 0.404503 0.274931 -0.11473
C_ C_ 0.798737 0.40959 0.293934 -0.11473
C_ C_ 0.678373 0.355876 0.243665 -0.02249
C_ C_ 0.934812 0.347244 0.254921 -0.02249
C_ C_ 0.73671 0.462506 0.249181 -0.02249
C_ C_ 0.982557 0.463452 0.24865 -0.02249
C_ C_ 0.712802 0.402195 0.283575 -0.11473
C_ C_ 0.947521 0.41459 0.284397 -0.11473
C_ C_ 0.682712 0.378204 0.208566 -0.11473
C_ C_ 0.950722 0.357967 0.219313 -0.11473
C_ C_ 0.693538 0.368398 0.282357 -0.11473
C_ C_ 0.934626 0.375761 0.287456 -0.11473
C_ C_ 0.718987 0.423962 0.247223 -0.02249
C_ C_ 0.964865 0.424518 0.249513 -0.02249
C_ C_ 0.660249 0.318499 0.243333 0.6875
C_ C_ 0.918713 0.306047 0.256654 0.6875
C_ C_ 0.70264 0.412092 0.209712 -0.11473
C_ C_ 0.965705 0.395591 0.217936 -0.11473
C_ C_ 0.683274 0.159852 0.251699 -0.02249
C_ C_ 0.933632 0.151594 0.25268 -0.02249
C_ C_ 0.731476 0.0422542 0.258378 -0.02249
C_ C_ 0.983948 0.037173 0.257012 -0.02249
C_ C_ 0.71071 0.106102 0.293891 -0.11473
C_ C_ 0.96103 0.0972762 0.292135 -0.11473
C_ C_ 0.691219 0.136618 0.21655 -0.11473
C_ C_ 0.937822 0.129199 0.21624 -0.11473
C_ C_ 0.693385 0.143296 0.290523 -0.11473
C_ C_ 0.944071 0.13329 0.290545 -0.11473
C_ C_ 0.717038 0.0840464 0.257358 -0.02249
C_ C_ 0.965773 0.0757384 0.255257 -0.02249
C_ C_ 0.665147 0.198388 0.249192 0.6875
C_ C_ 0.914799 0.190866 0.25179 0.6875
C_ C_ 0.706149 0.0987879 0.218489 -0.11473
C_ C_ 0.954884 0.0919455 0.218236 -0.11473
C_ C_ 0.570366 0.148695 0.244704 -0.02249
C_ C_ 0.810511 0.155401 0.249667 -0.02249
C_ C_ 0.519565 0.035129 0.238296 -0.02249
C_ C_ 0.763301 0.0396801 0.256181 -0.02249
C_ C_ 0.552588 0.0903847 0.204054 -0.11473
C_ C_ 0.795513 0.0901612 0.215617 -0.11473
C_ C_ 0.555774 0.130984 0.281055 -0.11473
C_ C_ 0.799491 0.140896 0.289044 -0.11473
C_ C_ 0.565639 0.130364 0.205839 -0.11473
C_ C_ 0.807851 0.131131 0.21382 -0.11473
C_ C_ 0.538031 0.0741643 0.241213 -0.02249
C_ C_ 0.781904 0.0785438 0.253232 -0.02249
C_ C_ 0.584444 0.191936 0.245339 0.6875
C_ C_ 0.832404 0.189823 0.250221 0.6875
C_ C_ 0.541035 0.0928304 0.278967 -0.11473
C_ C_ 0.788963 0.101722 0.291902 -0.11473
C_ C_ 0.622083 0.224851 0.371921 0.17695
C_ C_ 0.872017 0.209011 0.374669 0.17695
C_ C_ 0.624362 0.295381 0.367485 0.17695
C_ C_ 0.882116 0.281039 0.379622 0.17695
C_ C_ 0.620567 0.300374 0.411952 -0.11473
C_ C_ 0.878312 0.278841 0.42363 -0.11473
C_ C_ 0.622934 0.264481 0.436253 0.23465
C_ C_ 0.876404 0.239178 0.444249 0.23465
C_ C_ 0.619924 0.227191 0.415247 -0.11473
C_ C_ 0.871908 0.20462 0.418274 -0.11473
C_ C_ 0.623153 0.213614 0.118674 0.17695
C_ C_ 0.856553 0.230617 0.123253 0.17695
C_ C_ 0.612567 0.285772 0.119556 0.17695
C_ C_ 0.900498 0.272369 0.124127 0.17695
C_ C_ 0.610217 0.286349 0.0754159 -0.11473
C_ C_ 0.89925 0.27423 0.0802003 -0.11473
C_ C_ 0.616339 0.249376 0.0529367 0.23465
C_ C_ 0.876129 0.25558 0.0575012 0.23465
C_ C_ 0.62138 0.212854 0.0759679 -0.11473
C_ C_ 0.85463 0.232411 0.0799313 -0.11473
C_ C_ 0.525535 0.497467 0.230899 0.05793
C_ C_ 0.785957 0.500647 0.252381 0.05793
C_ C_ 0.714953 1.00415751 0.253886 0.05793
C_ C_ 0.970464 0.998936 0.25851 0.05793
Br Br 0.568462 0.496845 0.22091 -0.17191
Br Br 0.829114 0.502366 0.252474 -0.17191
Br Br 0.671539 0.00743733 0.243423 -0.17191
Br Br 0.926859 -0.00013300000000004975 0.263801 -0.17191
N_ N_ 0.623292 0.258189 0.348547 -0.272
N_ N_ 0.87584 0.246595 0.356158 -0.272
N_ N_ 0.627464 0.269428 0.481351 -0.12501
N_ N_ 0.873421 0.234675 0.487903 -0.12501
N_ N_ 0.619589 0.250456 0.140522 -0.272
N_ N_ 0.878615 0.252342 0.14509 -0.272
N_ N_ 0.609761 0.247409 0.0100065 -0.12501
N_ N_ 0.873327 0.261663 0.0110957 -0.12501
O_ O_ 0.58672 0.294168 0.209494 -0.60745
O_ O_ 0.84745 0.294118 0.221451 -0.60745
O_ O_ 0.589281 0.29553 0.275819 -0.60745
O_ O_ 0.847529 0.295006 0.291081 -0.60745
O_ O_ 0.649522 0.30635 0.279416 -0.60745
O_ O_ 0.90855 0.292913 0.290793 -0.60745
O_ O_ 0.65214 0.300338 0.20912 -0.60745
O_ O_ 0.909936 0.291408 0.22153 -0.60745
O_ O_ 0.659975 0.220867 0.281976 -0.60745
O_ O_ 0.906289 0.20494 0.284608 -0.60745
O_ O_ 0.654462 0.208672 0.214023 -0.60745
O_ O_ 0.901973 0.202375 0.217368 -0.60745
O_ O_ 0.592402 0.207741 0.21028 -0.60745
O_ O_ 0.84281 0.202782 0.214274 -0.60745
O_ O_ 0.595444 0.205988 0.280868 -0.60745
O_ O_ 0.842122 0.205937 0.284357 -0.60745
Zn Zn 0.626341 0.249087 0.784213 0.9476
Zn Zn 0.874481 0.252585 0.782583 0.9476
Zn Zn 0.621899 0.249324 0.71434 0.9476
Zn Zn 0.872584 0.252598 0.711144 0.9476
H_ H_ 0.536526 0.418539 0.684966 0.10932
H_ H_ 0.787837 0.418748 0.678365 0.10932
H_ H_ 0.569211 0.355017 0.820288 0.10932
H_ H_ 0.803701 0.347144 0.812054 0.10932
H_ H_ 0.563748 0.355226 0.683983 0.10932
H_ H_ 0.811443 0.347949 0.679116 0.10932
H_ H_ 0.550684 0.425527 0.816713 0.10932
H_ H_ 0.772304 0.411328 0.809071 0.10932
H_ H_ 0.708554 0.423886 0.813899 0.10932
H_ H_ 0.975649 0.404555 0.813413 0.10932
H_ H_ 0.682953 0.351248 0.678826 0.10932
H_ H_ 0.920247 0.36862 0.680687 0.10932
H_ H_ 0.678338 0.354518 0.811306 0.10932
H_ H_ 0.950695 0.335521 0.806864 0.10932
H_ H_ 0.712089 0.419957 0.680943 0.10932
H_ H_ 0.946293 0.434209 0.684966 0.10932
H_ H_ 0.717564 0.0844676 0.823381 0.10932
H_ H_ 0.958463 0.076921 0.809797 0.10932
H_ H_ 0.685255 0.145895 0.681156 0.10932
H_ H_ 0.942515 0.158789 0.678182 0.10932
H_ H_ 0.690936 0.15272 0.817622 0.10932
H_ H_ 0.930772 0.141644 0.811407 0.10932
H_ H_ 0.711989 0.0777488 0.688113 0.10932
H_ H_ 0.970683 0.0875255 0.679953 0.10932
H_ H_ 0.531238 0.075129 0.692355 0.10932
H_ H_ 0.77178 0.0907693 0.690397 0.10932
H_ H_ 0.570366 0.145536 0.817047 0.10932
H_ H_ 0.827861 0.140487 0.816485 0.10932
H_ H_ 0.553119 0.146945 0.689609 0.10932
H_ H_ 0.802069 0.15572 0.686801 0.10932
H_ H_ 0.532887 0.087664 0.825348 0.10932
H_ H_ 0.80019 0.0760858 0.816042 0.10932
H_ H_ 0.633796 0.316623 0.851581 0.10932
H_ H_ 0.928547 0.249901 0.849743 0.10932
H_ H_ 0.607847 0.1912 0.869476 0.10932
H_ H_ 0.833098 0.257601 0.866221 0.10932
H_ H_ 0.601779 0.204281 0.943965 0.10932
H_ H_ 0.840653 0.261593 0.942885 0.10932
H_ H_ 0.634088 0.330207 0.92879 0.10932
H_ H_ 0.937048 0.248596 0.925553 0.10932
H_ H_ 0.629251 0.183743 0.642104 0.10932
H_ H_ 0.861341 0.190961 0.637025 0.10932
H_ H_ 0.616529 0.313254 0.633686 0.10932
H_ H_ 0.890607 0.31407 0.640841 0.10932
H_ H_ 0.627352 0.311109 0.555537 0.10932
H_ H_ 0.885388 0.324509 0.563826 0.10932
H_ H_ 0.6309 0.178189 0.565571 0.10932
H_ H_ 0.859472 0.197619 0.555681 0.10932
C_ C_ 0.566219 0.347076 0.751243 -0.02249
C_ C_ 0.813904 0.347535 0.747049 -0.02249
C_ C_ 0.520802 0.461974 0.750218 -0.02249
C_ C_ 0.766718 0.461276 0.741908 -0.02249
C_ C_ 0.541358 0.402504 0.713767 -0.11473
C_ C_ 0.792718 0.402684 0.707008 -0.11473
C_ C_ 0.559191 0.36681 0.790445 -0.11473
C_ C_ 0.802767 0.366322 0.784132 -0.11473
C_ C_ 0.555884 0.365105 0.714324 -0.11473
C_ C_ 0.808627 0.365381 0.708855 -0.11473
C_ C_ 0.536757 0.421943 0.752667 -0.02249
C_ C_ 0.781658 0.421822 0.744214 -0.02249
C_ C_ 0.582993 0.305771 0.749722 0.6875
C_ C_ 0.834993 0.312122 0.748799 0.6875
C_ C_ 0.544108 0.404277 0.791741 -0.11473
C_ C_ 0.783166 0.399259 0.781753 -0.11473
C_ C_ 0.679408 0.346762 0.744873 -0.02249
C_ C_ 0.932235 0.347921 0.746297 -0.02249
C_ C_ 0.735084 0.461082 0.745848 -0.02249
C_ C_ 0.981928 0.461886 0.751954 -0.02249
C_ C_ 0.704936 0.405763 0.784072 -0.11473
C_ C_ 0.963713 0.395541 0.784123 -0.11473
C_ C_ 0.687868 0.366135 0.707537 -0.11473
C_ C_ 0.934283 0.373228 0.709394 -0.11473
C_ C_ 0.688773 0.36644 0.783899 -0.11473
C_ C_ 0.951446 0.356923 0.780563 -0.11473
C_ C_ 0.717015 0.421227 0.746506 -0.02249
C_ C_ 0.964396 0.422871 0.749554 -0.02249
C_ C_ 0.663067 0.30907 0.748038 0.6875
C_ C_ 0.913473 0.310604 0.745983 0.6875
C_ C_ 0.705345 0.404584 0.708951 -0.11473
C_ C_ 0.949131 0.411585 0.711398 -0.11473
C_ C_ 0.684198 0.15265 0.751687 -0.02249
C_ C_ 0.931782 0.152279 0.745323 -0.02249
C_ C_ 0.737081 0.0373313 0.756261 -0.02249
C_ C_ 0.982098 0.0386365 0.7441 -0.02249
C_ C_ 0.712138 0.0987067 0.792005 -0.11473
C_ C_ 0.951765 0.0915997 0.780511 -0.11473
C_ C_ 0.693002 0.133414 0.714267 -0.11473
C_ C_ 0.944228 0.136795 0.706021 -0.11473
C_ C_ 0.695133 0.134802 0.789995 -0.11473
C_ C_ 0.935003 0.128404 0.781404 -0.11473
C_ C_ 0.718002 0.0768253 0.754362 -0.02249
C_ C_ 0.964306 0.0780537 0.743604 -0.02249
C_ C_ 0.663751 0.189501 0.750999 0.6875
C_ C_ 0.914675 0.191449 0.74681 0.6875
C_ C_ 0.706476 0.093162 0.715212 -0.11473
C_ C_ 0.961972 0.100964 0.706651 -0.11473
C_ C_ 0.565373 0.14991 0.753049 -0.02249
C_ C_ 0.816561 0.153656 0.751472 -0.02249
C_ C_ 0.512561 0.0387479 0.760036 -0.02249
C_ C_ 0.769064 0.0373386 0.753895 -0.02249
C_ C_ 0.536805 0.0931197 0.720607 -0.11473
C_ C_ 0.784915 0.100695 0.717654 -0.11473
C_ C_ 0.556646 0.135157 0.792205 -0.11473
C_ C_ 0.817476 0.128573 0.787716 -0.11473
C_ C_ 0.552369 0.131078 0.717666 -0.11473
C_ C_ 0.800403 0.138819 0.716253 -0.11473
C_ C_ 0.531484 0.0763755 0.759062 -0.02249
C_ C_ 0.785025 0.0779719 0.753013 -0.02249
C_ C_ 0.584762 0.188683 0.751792 0.6875
C_ C_ 0.836584 0.188456 0.74984 0.6875
C_ C_ 0.538962 0.0988061 0.794694 -0.11473
C_ C_ 0.800414 0.0923655 0.788303 -0.11473
C_ C_ 0.630686 0.291458 0.872877 0.17695
C_ C_ 0.909171 0.257155 0.868744 0.17695
C_ C_ 0.615709 0.221296 0.880847 0.17695
C_ C_ 0.855476 0.260032 0.878562 0.17695
C_ C_ 0.612453 0.228298 0.923909 -0.11473
C_ C_ 0.860193 0.260328 0.921712 -0.11473
C_ C_ 0.620045 0.267539 0.942309 0.23465
C_ C_ 0.889511 0.255717 0.94043 0.23465
C_ C_ 0.628245 0.299546 0.916869 -0.11473
C_ C_ 0.914535 0.254239 0.91356 -0.11473
C_ C_ 0.626493 0.21231 0.622964 0.17695
C_ C_ 0.866837 0.22019 0.620546 0.17695
C_ C_ 0.620053 0.284366 0.616611 0.17695
C_ C_ 0.882334 0.288253 0.622574 0.17695
C_ C_ 0.626822 0.282265 0.57342 -0.11473
C_ C_ 0.88059 0.293672 0.57936 -0.11473
C_ C_ 0.627692 0.243841 0.553064 0.23465
C_ C_ 0.872153 0.260019 0.554742 0.23465
C_ C_ 0.629879 0.20853 0.578811 -0.11473
C_ C_ 0.865735 0.2237 0.574511 -0.11473
C_ C_ 0.536508 0.500026 0.75184 0.05793
C_ C_ 0.781494 0.500347 0.743708 0.05793
C_ C_ 0.722079 -0.0007129999999999637 0.761275 0.05793
C_ C_ 0.966912 5.0000000000105516e-05 0.742855 0.05793
Br Br 0.578387 0.498039 0.739852 -0.17191
Br Br 0.825909 0.497927 0.741833 -0.17191
Br Br 0.680069 -0.003638999999999948 0.77278 -0.17191
Br Br 0.923172 -0.0014450000000000296 0.74061 -0.17191
N_ N_ 0.625956 0.252601 0.855599 -0.272
N_ N_ 0.879881 0.255159 0.852962 -0.272
N_ N_ 0.624737 0.26993 0.986314 -0.12501
N_ N_ 0.893308 0.250874 0.98582 -0.12501
N_ N_ 0.621324 0.249375 0.64186 -0.272
N_ N_ 0.874524 0.253326 0.642663 -0.272
N_ N_ 0.629334 0.238965 0.507445 -0.12501
N_ N_ 0.871621 0.265415 0.512025 -0.12501
O_ O_ 0.591657 0.290026 0.714068 -0.60745
O_ O_ 0.842516 0.292857 0.714296 -0.60745
O_ O_ 0.59564 0.293563 0.783534 -0.60745
O_ O_ 0.841984 0.295858 0.784211 -0.60745
O_ O_ 0.65488 0.297255 0.78268 -0.60745
O_ O_ 0.906889 0.294959 0.78092 -0.60745
O_ O_ 0.654981 0.291415 0.714738 -0.60745
O_ O_ 0.898006 0.30274 0.714075 -0.60745
O_ O_ 0.657302 0.206403 0.785128 -0.60745
O_ O_ 0.907379 0.209276 0.781477 -0.60745
O_ O_ 0.652792 0.204454 0.716272 -0.60745
O_ O_ 0.905259 0.206662 0.712122 -0.60745
O_ O_ 0.590515 0.204732 0.716606 -0.60745
O_ O_ 0.843058 0.206102 0.714601 -0.60745
O_ O_ 0.598361 0.202305 0.784262 -0.60745
O_ O_ 0.843537 0.206554 0.783767 -0.60745
Zn Zn 0.622754 0.746069 0.281536 0.9476
Zn Zn 0.873732 0.752886 0.2886 0.9476
Zn Zn 0.623552 0.746015 0.214069 0.9476
Zn Zn 0.871666 0.753633 0.219891 0.9476
H_ H_ 0.54295 0.922651 0.176878 0.10932
H_ H_ 0.780614 0.920744 0.190094 0.10932
H_ H_ 0.565724 0.852548 0.313741 0.10932
H_ H_ 0.81463 0.860984 0.324977 0.10932
H_ H_ 0.568664 0.855171 0.176286 0.10932
H_ H_ 0.808582 0.856335 0.1902 0.10932
H_ H_ 0.525072 0.908007 0.304529 0.10932
H_ H_ 0.774051 0.909011 0.326038 0.10932
H_ H_ 0.706211 0.919827 0.31848 0.10932
H_ H_ 0.974033 0.911432 0.327533 0.10932
H_ H_ 0.680722 0.855272 0.182708 0.10932
H_ H_ 0.928094 0.860246 0.194069 0.10932
H_ H_ 0.68444 0.848562 0.316058 0.10932
H_ H_ 0.95053 0.841103 0.324657 0.10932
H_ H_ 0.710552 0.919124 0.185549 0.10932
H_ H_ 0.954527 0.928469 0.196465 0.10932
H_ H_ 0.726123 0.588001 0.319021 0.10932
H_ H_ 0.949698 0.575466 0.312318 0.10932
H_ H_ 0.677449 0.63653 0.188847 0.10932
H_ H_ 0.950447 0.665211 0.186932 0.10932
H_ H_ 0.694396 0.653579 0.321863 0.10932
H_ H_ 0.926113 0.643307 0.314407 0.10932
H_ H_ 0.709089 0.572218 0.190591 0.10932
H_ H_ 0.974532 0.597959 0.186558 0.10932
H_ H_ 0.521152 0.588706 0.171198 0.10932
H_ H_ 0.78881 0.580771 0.184492 0.10932
H_ H_ 0.572463 0.634334 0.303747 0.10932
H_ H_ 0.815842 0.646726 0.320361 0.10932
H_ H_ 0.556712 0.651671 0.170636 0.10932
H_ H_ 0.822471 0.635401 0.181307 0.10932
H_ H_ 0.533218 0.579537 0.302896 0.10932
H_ H_ 0.786666 0.583191 0.316926 0.10932
H_ H_ 0.629965 0.685078 0.352278 0.10932
H_ H_ 0.903865 0.69876 0.356447 0.10932
H_ H_ 0.615029 0.815476 0.358576 0.10932
H_ H_ 0.842043 0.797754 0.365911 0.10932
H_ H_ 0.612171 0.811099 0.435598 0.10932
H_ H_ 0.846398 0.796176 0.444835 0.10932
H_ H_ 0.627099 0.67857 0.433166 0.10932
H_ H_ 0.909811 0.696974 0.434986 0.10932
H_ H_ 0.579723 0.753541 0.141607 0.10932
H_ H_ 0.859553 0.689633 0.141426 0.10932
H_ H_ 0.670509 0.722304 0.130928 0.10932
H_ H_ 0.875901 0.820769 0.15013 0.10932
H_ H_ 0.668883 0.738142 0.0553905 0.10932
H_ H_ 0.866982 0.829882 0.0735024 0.10932
H_ H_ 0.574422 0.757754 0.0670158 0.10932
H_ H_ 0.858271 0.695033 0.0652228 0.10932
C_ C_ 0.569032 0.847948 0.24499 -0.02249
C_ C_ 0.811378 0.84676 0.25843 -0.02249
C_ C_ 0.516606 0.960267 0.239696 -0.02249
C_ C_ 0.761381 0.963648 0.254902 -0.02249
C_ C_ 0.545113 0.903017 0.204728 -0.11473
C_ C_ 0.785991 0.903987 0.221076 -0.11473
C_ C_ 0.559034 0.867057 0.282835 -0.11473
C_ C_ 0.803895 0.868126 0.296182 -0.11473
C_ C_ 0.560567 0.866014 0.205785 -0.11473
C_ C_ 0.801946 0.866343 0.221317 -0.11473
C_ C_ 0.531962 0.918628 0.240614 -0.02249
C_ C_ 0.776832 0.921762 0.25863 -0.02249
C_ C_ 0.588949 0.811035 0.24598 0.6875
C_ C_ 0.832564 0.811921 0.257015 0.6875
C_ C_ 0.53858 0.900364 0.279 -0.11473
C_ C_ 0.784359 0.902991 0.297476 -0.11473
C_ C_ 0.680597 0.84853 0.25072 -0.02249
C_ C_ 0.934781 0.848974 0.26013 -0.02249
C_ C_ 0.729582 0.965372 0.253344 -0.02249
C_ C_ 0.986476 0.960804 0.261845 -0.02249
C_ C_ 0.705349 0.90426 0.289902 -0.11473
C_ C_ 0.966341 0.898053 0.297566 -0.11473
C_ C_ 0.685637 0.869803 0.213313 -0.11473
C_ C_ 0.936579 0.872901 0.224131 -0.11473
C_ C_ 0.689867 0.866285 0.288744 -0.11473
C_ C_ 0.950471 0.859996 0.298016 -0.11473
C_ C_ 0.711429 0.925195 0.25364 -0.02249
C_ C_ 0.969036 0.922541 0.261349 -0.02249
C_ C_ 0.662812 0.809113 0.250716 0.6875
C_ C_ 0.913635 0.81346 0.259752 0.6875
C_ C_ 0.700063 0.910153 0.215498 -0.11473
C_ C_ 0.953334 0.909549 0.224911 -0.11473
C_ C_ 0.686406 0.649941 0.252844 -0.02249
C_ C_ 0.932019 0.656293 0.248592 -0.02249
C_ C_ 0.737321 0.537795 0.254238 -0.02249
C_ C_ 0.982036 0.539129 0.251041 -0.02249
C_ C_ 0.71645 0.600045 0.291137 -0.11473
C_ C_ 0.950136 0.593508 0.28531 -0.11473
C_ C_ 0.690023 0.627427 0.215577 -0.11473
C_ C_ 0.948478 0.644541 0.213638 -0.11473
C_ C_ 0.699742 0.636993 0.292054 -0.11473
C_ C_ 0.934895 0.63187 0.284922 -0.11473
C_ C_ 0.720582 0.57838 0.253145 -0.02249
C_ C_ 0.966294 0.580706 0.250401 -0.02249
C_ C_ 0.665145 0.687463 0.250925 0.6875
C_ C_ 0.913487 0.69606 0.248856 0.6875
C_ C_ 0.708223 0.592247 0.217381 -0.11473
C_ C_ 0.965308 0.607308 0.214787 -0.11473
C_ C_ 0.566237 0.649456 0.238558 -0.02249
C_ C_ 0.819454 0.650142 0.250844 -0.02249
C_ C_ 0.511079 0.537689 0.236822 -0.02249
C_ C_ 0.768395 0.537916 0.249919 -0.02249
C_ C_ 0.533286 0.600121 0.199369 -0.11473
C_ C_ 0.798748 0.592027 0.212605 -0.11473
C_ C_ 0.560325 0.628203 0.274851 -0.11473
C_ C_ 0.809094 0.633645 0.290285 -0.11473
C_ C_ 0.552437 0.636474 0.200797 -0.11473
C_ C_ 0.816234 0.626879 0.21266 -0.11473
C_ C_ 0.529244 0.577469 0.235606 -0.02249
C_ C_ 0.785726 0.577409 0.2502 -0.02249
C_ C_ 0.584568 0.686584 0.239049 0.6875
C_ C_ 0.837577 0.68893 0.249382 0.6875
C_ C_ 0.541438 0.593583 0.273618 -0.11473
C_ C_ 0.792273 0.59768 0.288663 -0.11473
C_ C_ 0.625769 0.712356 0.372515 0.17695
C_ C_ 0.89153 0.719526 0.376862 0.17695
C_ C_ 0.615089 0.784129 0.374288 0.17695
C_ C_ 0.857064 0.775057 0.382422 0.17695
C_ C_ 0.613836 0.782648 0.418792 -0.11473
C_ C_ 0.857285 0.771568 0.426915 -0.11473
C_ C_ 0.617473 0.746254 0.441486 0.23465
C_ C_ 0.878496 0.745129 0.447825 0.23465
C_ C_ 0.622459 0.709717 0.418204 -0.11473
C_ C_ 0.893362 0.717189 0.420908 -0.11473
C_ C_ 0.600379 0.756383 0.122825 0.17695
C_ C_ 0.86325 0.72015 0.126053 0.17695
C_ C_ 0.651017 0.739116 0.117528 0.17695
C_ C_ 0.871026 0.793345 0.129101 0.17695
C_ C_ 0.648813 0.741985 0.0744019 -0.11473
C_ C_ 0.868498 0.798067 0.0866162 -0.11473
C_ C_ 0.621605 0.753465 0.0551937 0.23465
C_ C_ 0.867472 0.759861 0.0604504 0.23465
C_ C_ 0.596902 0.757193 0.079111 -0.11473
C_ C_ 0.860855 0.722844 0.0823522 -0.11473
C_ C_ 0.53393 0.996509 0.24001 0.05793
C_ C_ 0.778533 1.000569313 0.254036 0.05793
C_ C_ 0.722145 0.501229 0.246152 0.05793
C_ C_ 0.966228 0.501441 0.244342 0.05793
Br Br 0.57843 0.994339 0.243813 -0.17191
Br Br 0.821005 0.996795 0.240871 -0.17191
Br Br 0.677886 0.499955 0.25166 -0.17191
Br Br 0.931945 0.505412 0.203118 -0.17191
N_ N_ 0.619276 0.748708 0.352651 -0.272
N_ N_ 0.872662 0.748583 0.358214 -0.272
N_ N_ 0.618405 0.74389 0.486187 -0.12501
N_ N_ 0.882251 0.743088 0.492981 -0.12501
N_ N_ 0.626498 0.747887 0.142237 -0.272
N_ N_ 0.872998 0.754904 0.147315 -0.272
N_ N_ 0.616884 0.757441 0.0111562 -0.12501
N_ N_ 0.865781 0.762771 0.0164057 -0.12501
O_ O_ 0.595183 0.793102 0.212848 -0.60745
O_ O_ 0.846688 0.802385 0.223451 -0.60745
O_ O_ 0.591238 0.788409 0.278312 -0.60745
O_ O_ 0.835759 0.788296 0.28939 -0.60745
O_ O_ 0.653102 0.792291 0.284352 -0.60745
O_ O_ 0.902053 0.803059 0.294296 -0.60745
O_ O_ 0.654066 0.791323 0.21732 -0.60745
O_ O_ 0.907251 0.794253 0.225879 -0.60745
O_ O_ 0.656916 0.70246 0.28557 -0.60745
O_ O_ 0.905975 0.713687 0.28472 -0.60745
O_ O_ 0.654989 0.699774 0.215155 -0.60745
O_ O_ 0.900893 0.709655 0.214956 -0.60745
O_ O_ 0.593033 0.704594 0.206112 -0.60745
O_ O_ 0.839108 0.711176 0.215569 -0.60745
O_ O_ 0.593668 0.702697 0.27438 -0.60745
O_ O_ 0.849188 0.70269 0.281577 -0.60745
Zn Zn 0.625561 0.753038 0.784368 0.9476
Zn Zn 0.87973 0.751382 0.78958 0.9476
Zn Zn 0.627349 0.753812 0.714451 0.9476
Zn Zn 0.876646 0.750198 0.721303 0.9476
H_ H_ 0.535379 0.922639 0.686004 0.10932
H_ H_ 0.799925 0.928661 0.691296 0.10932
H_ H_ 0.556856 0.846509 0.819017 0.10932
H_ H_ 0.817784 0.850532 0.82396 0.10932
H_ H_ 0.569463 0.865166 0.684825 0.10932
H_ H_ 0.83264 0.866095 0.689018 0.10932
H_ H_ 0.527246 0.909082 0.822446 0.10932
H_ H_ 0.778144 0.906238 0.819251 0.10932
H_ H_ 0.719982 0.915848 0.819876 0.10932
H_ H_ 0.97103 0.923716 0.813894 0.10932
H_ H_ 0.691748 0.85348 0.683052 0.10932
H_ H_ 0.942387 0.839722 0.688527 0.10932
H_ H_ 0.679715 0.858778 0.817094 0.10932
H_ H_ 0.947737 0.856021 0.822042 0.10932
H_ H_ 0.714789 0.924205 0.686748 0.10932
H_ H_ 0.965682 0.908942 0.681383 0.10932
H_ H_ 0.724025 0.588809 0.81591 0.10932
H_ H_ 0.981945 0.597023 0.816137 0.10932
H_ H_ 0.680961 0.641055 0.682644 0.10932
H_ H_ 0.922618 0.634585 0.690294 0.10932
H_ H_ 0.692257 0.648196 0.818321 0.10932
H_ H_ 0.949579 0.658847 0.817088 0.10932
H_ H_ 0.717453 0.58309 0.680709 0.10932
H_ H_ 0.947093 0.567359 0.695894 0.10932
H_ H_ 0.534744 0.589095 0.67975 0.10932
H_ H_ 0.788053 0.581074 0.680302 0.10932
H_ H_ 0.576319 0.642271 0.816187 0.10932
H_ H_ 0.809296 0.652558 0.817244 0.10932
H_ H_ 0.5591 0.656984 0.685259 0.10932
H_ H_ 0.823597 0.638497 0.681977 0.10932
H_ H_ 0.548464 0.574502 0.81401 0.10932
H_ H_ 0.782264 0.585667 0.814318 0.10932
H_ H_ 0.675807 0.755991 0.854284 0.10932
H_ H_ 0.888984 0.675512 0.861601 0.10932
H_ H_ 0.580255 0.754996 0.863209 0.10932
H_ H_ 0.863659 0.804517 0.867341 0.10932
H_ H_ 0.584108 0.760167 0.938706 0.10932
H_ H_ 0.861858 0.80196 0.946145 0.10932
H_ H_ 0.680722 0.738509 0.926544 0.10932
H_ H_ 0.882975 0.671111 0.939152 0.10932
H_ H_ 0.610199 0.702198 0.635704 0.10932
H_ H_ 0.889611 0.816717 0.64737 0.10932
H_ H_ 0.643111 0.823737 0.645861 0.10932
H_ H_ 0.871233 0.691073 0.640337 0.10932
H_ H_ 0.63974 0.833944 0.567516 0.10932
H_ H_ 0.863457 0.693897 0.564551 0.10932
H_ H_ 0.60392 0.70886 0.557558 0.10932
H_ H_ 0.881069 0.823104 0.573239 0.10932
C_ C_ 0.566375 0.849551 0.752409 -0.02249
C_ C_ 0.823383 0.849585 0.755014 -0.02249
C_ C_ 0.511088 0.960339 0.758149 -0.02249
C_ C_ 0.768498 0.960768 0.754508 -0.02249
C_ C_ 0.537532 0.904345 0.713866 -0.11473
C_ C_ 0.800741 0.907499 0.717845 -0.11473
C_ C_ 0.554443 0.862553 0.78922 -0.11473
C_ C_ 0.810293 0.863942 0.793255 -0.11473
C_ C_ 0.556856 0.870183 0.7137 -0.11473
C_ C_ 0.819635 0.873226 0.716685 -0.11473
C_ C_ 0.52769 0.92 0.754068 -0.02249
C_ C_ 0.786772 0.921238 0.754029 -0.02249
C_ C_ 0.586061 0.812546 0.752181 0.6875
C_ C_ 0.841521 0.811685 0.755092 0.6875
C_ C_ 0.536279 0.898874 0.791259 -0.11473
C_ C_ 0.791637 0.899408 0.791491 -0.11473
C_ C_ 0.684628 0.850201 0.751085 -0.02249
C_ C_ 0.937046 0.845438 0.756373 -0.02249
C_ C_ 0.736739 0.96137 0.756704 -0.02249
C_ C_ 0.983871 0.962242 0.741613 -0.02249
C_ C_ 0.709439 0.904595 0.790682 -0.11473
C_ C_ 0.962502 0.906147 0.787922 -0.11473
C_ C_ 0.697517 0.866042 0.713743 -0.11473
C_ C_ 0.945813 0.859814 0.715849 -0.11473
C_ C_ 0.689755 0.871407 0.789341 -0.11473
C_ C_ 0.948248 0.868918 0.791834 -0.11473
C_ C_ 0.719342 0.921925 0.753252 -0.02249
C_ C_ 0.968415 0.921958 0.748665 -0.02249
C_ C_ 0.663068 0.815617 0.747433 0.6875
C_ C_ 0.918556 0.807038 0.75985 0.6875
C_ C_ 0.71286 0.90403 0.714773 -0.11473
C_ C_ 0.960159 0.89832 0.713242 -0.11473
C_ C_ 0.68394 0.652837 0.74944 -0.02249
C_ C_ 0.93833 0.656335 0.750539 -0.02249
C_ C_ 0.733573 0.53699 0.750945 -0.02249
C_ C_ 0.985478 0.537821 0.755051 -0.02249
C_ C_ 0.712645 0.597065 0.786638 -0.11473
C_ C_ 0.967992 0.604579 0.790222 -0.11473
C_ C_ 0.690082 0.630133 0.711869 -0.11473
C_ C_ 0.936335 0.628155 0.716894 -0.11473
C_ C_ 0.695707 0.633293 0.787939 -0.11473
C_ C_ 0.953343 0.642646 0.786622 -0.11473
C_ C_ 0.716377 0.575495 0.750133 -0.02249
C_ C_ 0.968308 0.578105 0.754107 -0.02249
C_ C_ 0.666164 0.693114 0.749944 0.6875
C_ C_ 0.917429 0.693402 0.752708 0.6875
C_ C_ 0.708553 0.593338 0.712045 -0.11473
C_ C_ 0.951021 0.590004 0.719809 -0.11473
C_ C_ 0.570247 0.654461 0.750217 -0.02249
C_ C_ 0.818679 0.652991 0.750585 -0.02249
C_ C_ 0.52146 0.538972 0.749609 -0.02249
C_ C_ 0.765871 0.537099 0.748925 -0.02249
C_ C_ 0.543378 0.600524 0.710664 -0.11473
C_ C_ 0.794932 0.595188 0.709716 -0.11473
C_ C_ 0.566424 0.632001 0.786913 -0.11473
C_ C_ 0.806036 0.63521 0.787583 -0.11473
C_ C_ 0.559247 0.637363 0.712535 -0.11473
C_ C_ 0.813246 0.631293 0.712291 -0.11473
C_ C_ 0.536969 0.578598 0.74896 -0.02249
C_ C_ 0.783229 0.578622 0.74829 -0.02249
C_ C_ 0.586133 0.695437 0.750306 0.6875
C_ C_ 0.836558 0.693511 0.7505 0.6875
C_ C_ 0.548516 0.595026 0.786348 -0.11473
C_ C_ 0.790019 0.597997 0.785867 -0.11473
C_ C_ 0.654748 0.754443 0.872213 0.17695
C_ C_ 0.882567 0.70349 0.878938 0.17695
C_ C_ 0.602327 0.758733 0.877473 0.17695
C_ C_ 0.869204 0.775926 0.881418 0.17695
C_ C_ 0.604272 0.757842 0.920313 -0.11473
C_ C_ 0.868974 0.77465 0.926238 -0.11473
C_ C_ 0.632946 0.750584 0.941069 0.23465
C_ C_ 0.874061 0.737697 0.946939 0.23465
C_ C_ 0.657674 0.745465 0.915621 -0.11473
C_ C_ 0.881846 0.701302 0.923008 -0.11473
C_ C_ 0.616282 0.730791 0.619045 0.17695
C_ C_ 0.881663 0.789729 0.631181 0.17695
C_ C_ 0.633217 0.799695 0.625596 0.17695
C_ C_ 0.874537 0.719424 0.62484 0.17695
C_ C_ 0.631595 0.804313 0.580803 -0.11473
C_ C_ 0.868373 0.721763 0.582055 -0.11473
C_ C_ 0.621316 0.771072 0.556611 0.23465
C_ C_ 0.870974 0.759866 0.562232 0.23465
C_ C_ 0.6123 0.734927 0.575558 -0.11473
C_ C_ 0.878828 0.793384 0.587697 -0.11473
C_ C_ 0.527143 -0.002175000000000038 0.758911 0.05793
C_ C_ 0.784627 -0.001690999999999998 0.757297 0.05793
C_ C_ 0.718028 0.499402 0.749812 0.05793
C_ C_ 0.968651 0.499433 0.761205 0.05793
Br Br 0.569533 -0.00328700000000004 0.767822 -0.17191
Br Br 0.828012 0.996634 0.759123 -0.17191
Br Br 0.674332 0.498579 0.749981 -0.17191
Br Br 0.932486 0.501352 0.793371 -0.17191
N_ N_ 0.627645 0.760155 0.853074 -0.272
N_ N_ 0.877837 0.740359 0.858944 -0.272
N_ N_ 0.637009 0.750015 0.985577 -0.12501
N_ N_ 0.875803 0.734995 0.992151 -0.12501
N_ N_ 0.626071 0.761999 0.64347 -0.272
N_ N_ 0.878565 0.753375 0.649477 -0.272
N_ N_ 0.62127 0.774802 0.510611 -0.12501
N_ N_ 0.866892 0.764057 0.518143 -0.12501
O_ O_ 0.593861 0.797896 0.716845 -0.60745
O_ O_ 0.850603 0.797509 0.720825 -0.60745
O_ O_ 0.591979 0.792989 0.786622 -0.60745
O_ O_ 0.849242 0.794358 0.788718 -0.60745
O_ O_ 0.651232 0.8019 0.780986 -0.60745
O_ O_ 0.907125 0.797382 0.795326 -0.60745
O_ O_ 0.658189 0.797768 0.712677 -0.60745
O_ O_ 0.911877 0.786282 0.727888 -0.60745
O_ O_ 0.657951 0.707654 0.783682 -0.60745
O_ O_ 0.913666 0.711307 0.787909 -0.60745
O_ O_ 0.659349 0.711068 0.715527 -0.60745
O_ O_ 0.903279 0.704717 0.720662 -0.60745
O_ O_ 0.593907 0.711377 0.715189 -0.60745
O_ O_ 0.843796 0.708608 0.715227 -0.60745
O_ O_ 0.595669 0.710552 0.78458 -0.60745
O_ O_ 0.850303 0.705996 0.783174 -0.60745
