_cell_length_a 44.444
_cell_length_b 32.3360000049186
_cell_length_c 31.843999878906452
_cell_angle_alpha 89.99799923859553
_cell_angle_beta 91.13600050494348
_cell_angle_gamma 89.9990006550086
_symmetry_space_group_name_H-M         'P 1'
_symmetry_Int_Tables_number            1
loop_
_symmetry_equiv_pos_as_xyz
   'x, y, z'
                         
loop_
_atom_site_label
_atom_site_type_symbol
_atom_site_fract_x 
_atom_site_fract_y
_atom_site_fract_z
_atom_site_charge
Zn Zn 0.12324 0.248028 0.286313 0.9476
Zn Zn 0.379131 0.246405 0.289239 0.9476
Zn Zn 0.125557 0.2486 0.218331 0.9476
Zn Zn 0.377887 0.247489 0.224154 0.9476
H_ H_ 0.0226086 0.402109 0.186039 0.10932
H_ H_ 0.290821 0.41539 0.181306 0.10932
H_ H_ 0.0730277 0.358435 0.318931 0.10932
H_ H_ 0.316107 0.348251 0.316857 0.10932
H_ H_ 0.0544866 0.342382 0.185769 0.10932
H_ H_ 0.321794 0.353701 0.182969 0.10932
H_ H_ 0.0470397 0.427086 0.313024 0.10932
H_ H_ 0.284853 0.410947 0.318135 0.10932
H_ H_ 0.209146 0.427831 0.324028 0.10932
H_ H_ 0.459354 0.42833 0.312974 0.10932
H_ H_ 0.197937 0.336232 0.198637 0.10932
H_ H_ 0.448248 0.337062 0.191679 0.10932
H_ H_ 0.178111 0.361699 0.323418 0.10932
H_ H_ 0.438525 0.355742 0.320733 0.10932
H_ H_ 0.225691 0.403278 0.191147 0.10932
H_ H_ 0.468696 0.406655 0.181422 0.10932
H_ H_ 0.207962 0.0735166 0.318732 0.10932
H_ H_ 0.463317 0.0700825 0.324832 0.10932
H_ H_ 0.186465 0.14621 0.186415 0.10932
H_ H_ 0.455476 0.163187 0.202941 0.10932
H_ H_ 0.185918 0.144761 0.318644 0.10932
H_ H_ 0.432499 0.138909 0.331493 0.10932
H_ H_ 0.22375 0.088281 0.189662 0.10932
H_ H_ 0.474539 0.0952102 0.19408 0.10932
H_ H_ 0.0335085 0.0842542 0.17068 0.10932
H_ H_ 0.29119 0.0688166 0.19055 0.10932
H_ H_ 0.0715437 0.131557 0.310427 0.10932
H_ H_ 0.307106 0.154931 0.314651 0.10932
H_ H_ 0.0587541 0.15589 0.17889 0.10932
H_ H_ 0.326736 0.128899 0.189185 0.10932
H_ H_ 0.0428745 0.0684455 0.303703 0.10932
H_ H_ 0.280174 0.0882831 0.322785 0.10932
H_ H_ 0.131938 0.310742 0.363031 0.10932
H_ H_ 0.376381 0.313118 0.374253 0.10932
H_ H_ 0.113482 0.178648 0.364075 0.10932
H_ H_ 0.37201 0.180346 0.358009 0.10932
H_ H_ 0.11473 0.181415 0.441775 0.10932
H_ H_ 0.37602 0.176089 0.439123 0.10932
H_ H_ 0.134676 0.309503 0.435091 0.10932
H_ H_ 0.372241 0.306696 0.446856 0.10932
H_ H_ 0.122518 0.314772 0.13804 0.10932
H_ H_ 0.427643 0.233792 0.151013 0.10932
H_ H_ 0.132246 0.187587 0.147838 0.10932
H_ H_ 0.333874 0.256903 0.148166 0.10932
H_ H_ 0.127224 0.179326 0.0666708 0.10932
H_ H_ 0.334414 0.256886 0.069101 0.10932
H_ H_ 0.119552 0.312563 0.0604969 0.10932
H_ H_ 0.428755 0.220562 0.0761743 0.10932
C_ C_ 0.0681309 0.348044 0.252993 -0.02249
C_ C_ 0.321462 0.346915 0.251315 -0.02249
C_ C_ 0.0149919 0.458063 0.248903 -0.02249
C_ C_ 0.268364 0.458028 0.252518 -0.02249
C_ C_ 0.0382894 0.398315 0.211484 -0.11473
C_ C_ 0.295256 0.400128 0.21104 -0.11473
C_ C_ 0.06311 0.369375 0.289453 -0.11473
C_ C_ 0.310636 0.364601 0.288044 -0.11473
C_ C_ 0.0539538 0.360075 0.213783 -0.11473
C_ C_ 0.313493 0.365753 0.21158 -0.11473
C_ C_ 0.0328314 0.419013 0.248821 -0.02249
C_ C_ 0.282974 0.416487 0.250477 -0.02249
C_ C_ 0.0852865 0.310724 0.253507 0.6875
C_ C_ 0.340485 0.309751 0.25103 0.6875
C_ C_ 0.0479209 0.407087 0.286816 -0.11473
C_ C_ 0.289319 0.397325 0.28793 -0.11473
C_ C_ 0.182641 0.349565 0.258829 -0.02249
C_ C_ 0.437704 0.346705 0.254639 -0.02249
C_ C_ 0.23658 0.457824 0.251768 -0.02249
C_ C_ 0.486467 0.461053 0.24596 -0.02249
C_ C_ 0.204026 0.409465 0.294852 -0.11473
C_ C_ 0.458788 0.407868 0.287556 -0.11473
C_ C_ 0.198845 0.358032 0.22249 -0.11473
C_ C_ 0.448274 0.360025 0.215541 -0.11473
C_ C_ 0.189927 0.370252 0.295854 -0.11473
C_ C_ 0.443688 0.369814 0.290349 -0.11473
C_ C_ 0.219002 0.420098 0.256258 -0.02249
C_ C_ 0.466579 0.422921 0.24812 -0.02249
C_ C_ 0.160574 0.314243 0.257409 0.6875
C_ C_ 0.420702 0.305779 0.255427 0.6875
C_ C_ 0.216301 0.394041 0.220786 -0.11473
C_ C_ 0.460415 0.39877 0.213041 -0.11473
C_ C_ 0.183304 0.151422 0.252416 -0.02249
C_ C_ 0.440882 0.153513 0.264822 -0.02249
C_ C_ 0.233294 0.0350801 0.253755 -0.02249
C_ C_ 0.482453 0.0359561 0.251894 -0.02249
C_ C_ 0.205287 0.0918694 0.290483 -0.11473
C_ C_ 0.459214 0.090886 0.298088 -0.11473
C_ C_ 0.193533 0.132518 0.215418 -0.11473
C_ C_ 0.454831 0.141524 0.227122 -0.11473
C_ C_ 0.189041 0.12944 0.289918 -0.11473
C_ C_ 0.443984 0.128865 0.301235 -0.11473
C_ C_ 0.216552 0.0759809 0.253615 -0.02249
C_ C_ 0.466687 0.0768066 0.257652 -0.02249
C_ C_ 0.165597 0.191109 0.25168 0.6875
C_ C_ 0.417641 0.187388 0.265725 0.6875
C_ C_ 0.211242 0.0966682 0.216682 -0.11473
C_ C_ 0.46478 0.102333 0.223311 -0.11473
C_ C_ 0.0689301 0.146493 0.245407 -0.02249
C_ C_ 0.31752 0.148513 0.250554 -0.02249
C_ C_ 0.0154776 0.0351607 0.232989 -0.02249
C_ C_ 0.264956 0.0352212 0.256725 -0.02249
C_ C_ 0.0385922 0.0979791 0.202165 -0.11473
C_ C_ 0.296218 0.0872203 0.217162 -0.11473
C_ C_ 0.0626686 0.122148 0.279767 -0.11473
C_ C_ 0.303151 0.136186 0.287936 -0.11473
C_ C_ 0.0559787 0.13563 0.20622 -0.11473
C_ C_ 0.314427 0.121972 0.216663 -0.11473
C_ C_ 0.0328895 0.0735316 0.237968 -0.02249
C_ C_ 0.282549 0.0756903 0.25535 -0.02249
C_ C_ 0.0860994 0.186808 0.247373 0.6875
C_ C_ 0.339755 0.184765 0.251012 0.6875
C_ C_ 0.0453772 0.0855194 0.276441 -0.11473
C_ C_ 0.2883 0.0972828 0.292695 -0.11473
C_ C_ 0.125606 0.28179 0.378388 0.17695
C_ C_ 0.376353 0.28177 0.384521 0.17695
C_ C_ 0.118295 0.208316 0.379267 0.17695
C_ C_ 0.373454 0.209912 0.378241 0.17695
C_ C_ 0.122418 0.208133 0.423992 -0.11473
C_ C_ 0.372939 0.206172 0.423635 -0.11473
C_ C_ 0.124528 0.245619 0.446205 0.23465
C_ C_ 0.368175 0.240685 0.448866 0.23465
C_ C_ 0.126758 0.28137 0.421825 -0.11473
C_ C_ 0.370697 0.27935 0.428761 -0.11473
C_ C_ 0.121609 0.285564 0.122695 0.17695
C_ C_ 0.406763 0.232992 0.133801 0.17695
C_ C_ 0.127922 0.213096 0.127147 0.17695
C_ C_ 0.35494 0.249928 0.131183 0.17695
C_ C_ 0.12552 0.208718 0.0829532 -0.11473
C_ C_ 0.35503 0.252508 0.0874049 -0.11473
C_ C_ 0.123006 0.244337 0.0587394 0.23465
C_ C_ 0.381508 0.242569 0.0649633 0.23465
C_ C_ 0.122625 0.282921 0.0784887 -0.11473
C_ C_ 0.408637 0.234771 0.0899846 -0.11473
C_ C_ 0.0300715 0.49776 0.241142 0.05793
C_ C_ 0.284168 0.494998 0.247536 0.05793
C_ C_ 0.217946 -0.0029959999999999987 0.249536 0.05793
C_ C_ 0.465575 0.998811 0.250117 0.05793
Br Br 0.0709312 0.500098 0.222899 -0.17191
Br Br 0.328084 0.497945 0.244329 -0.17191
Br Br 0.175847 -0.0048559999999999715 0.265683 -0.17191
Br Br 0.421164 1.00135 0.247266 -0.17191
N_ N_ 0.12349 0.244825 0.357793 -0.272
N_ N_ 0.375822 0.247739 0.359632 -0.272
N_ N_ 0.11735 0.251602 0.489222 -0.12501
N_ N_ 0.366171 0.235372 0.494397 -0.12501
N_ N_ 0.123382 0.250224 0.145436 -0.272
N_ N_ 0.380709 0.242388 0.153107 -0.272
N_ N_ 0.119095 0.236452 0.0136016 -0.12501
N_ N_ 0.380851 0.232517 0.0195331 -0.12501
O_ O_ 0.0972857 0.296536 0.220052 -0.60745
O_ O_ 0.34568 0.291529 0.216248 -0.60745
O_ O_ 0.0897605 0.29202 0.288106 -0.60745
O_ O_ 0.350448 0.295191 0.285668 -0.60745
O_ O_ 0.149332 0.301324 0.2915 -0.60745
O_ O_ 0.413884 0.288827 0.290381 -0.60745
O_ O_ 0.154335 0.294293 0.223304 -0.60745
O_ O_ 0.40993 0.290729 0.222977 -0.60745
O_ O_ 0.157493 0.207768 0.28615 -0.60745
O_ O_ 0.408226 0.202541 0.298469 -0.60745
O_ O_ 0.156273 0.207579 0.217993 -0.60745
O_ O_ 0.409711 0.204839 0.231001 -0.60745
O_ O_ 0.0946668 0.204112 0.21289 -0.60745
O_ O_ 0.349399 0.198464 0.216297 -0.60745
O_ O_ 0.0961771 0.197691 0.282588 -0.60745
O_ O_ 0.344439 0.204836 0.284924 -0.60745
Zn Zn 0.125233 0.251559 0.783 0.9476
Zn Zn 0.373928 0.248269 0.792164 0.9476
Zn Zn 0.126605 0.251658 0.714819 0.9476
Zn Zn 0.375093 0.252451 0.721443 0.9476
H_ H_ 0.0511366 0.433221 0.686659 0.10932
H_ H_ 0.267677 0.400009 0.695087 0.10932
H_ H_ 0.0449034 0.337329 0.807037 0.10932
H_ H_ 0.328602 0.373842 0.821571 0.10932
H_ H_ 0.0685291 0.361776 0.678757 0.10932
H_ H_ 0.295298 0.335531 0.697945 0.10932
H_ H_ 0.021319 0.405379 0.815177 0.10932
H_ H_ 0.303774 0.439425 0.810468 0.10932
H_ H_ 0.230877 0.410989 0.813817 0.10932
H_ H_ 0.455818 0.427073 0.822026 0.10932
H_ H_ 0.183924 0.355028 0.683176 0.10932
H_ H_ 0.448015 0.342647 0.690463 0.10932
H_ H_ 0.202085 0.346237 0.812787 0.10932
H_ H_ 0.430565 0.357618 0.82237 0.10932
H_ H_ 0.211446 0.422353 0.682867 0.10932
H_ H_ 0.470986 0.41195 0.69317 0.10932
H_ H_ 0.224908 0.0887778 0.818325 0.10932
H_ H_ 0.453149 0.0676149 0.811649 0.10932
H_ H_ 0.184713 0.148178 0.679793 0.10932
H_ H_ 0.43973 0.157234 0.689739 0.10932
H_ H_ 0.181845 0.145838 0.818079 0.10932
H_ H_ 0.426296 0.132696 0.820435 0.10932
H_ H_ 0.211282 0.0845907 0.681793 0.10932
H_ H_ 0.472911 0.0964489 0.687417 0.10932
H_ H_ 0.027084 0.0897203 0.686096 0.10932
H_ H_ 0.295426 0.0728796 0.685252 0.10932
H_ H_ 0.0727929 0.149473 0.818378 0.10932
H_ H_ 0.303573 0.150161 0.817889 0.10932
H_ H_ 0.062019 0.147739 0.684733 0.10932
H_ H_ 0.322461 0.141078 0.685138 0.10932
H_ H_ 0.0324041 0.0919243 0.819232 0.10932
H_ H_ 0.275917 0.0881761 0.815348 0.10932
H_ H_ 0.124406 0.320103 0.854584 0.10932
H_ H_ 0.36782 0.315928 0.864302 0.10932
H_ H_ 0.123922 0.189739 0.860726 0.10932
H_ H_ 0.391177 0.190967 0.869617 0.10932
H_ H_ 0.124468 0.188928 0.937717 0.10932
H_ H_ 0.379803 0.189898 0.949288 0.10932
H_ H_ 0.126111 0.32359 0.934851 0.10932
H_ H_ 0.360899 0.317647 0.941206 0.10932
H_ H_ 0.127657 0.314196 0.637179 0.10932
H_ H_ 0.376882 0.189226 0.645739 0.10932
H_ H_ 0.117883 0.182617 0.652775 0.10932
H_ H_ 0.362886 0.317224 0.650669 0.10932
H_ H_ 0.125531 0.173945 0.573561 0.10932
H_ H_ 0.360091 0.32535 0.57595 0.10932
H_ H_ 0.124696 0.304992 0.559869 0.10932
H_ H_ 0.376721 0.191834 0.56965 0.10932
C_ C_ 0.0679622 0.35021 0.747639 -0.02249
C_ C_ 0.313846 0.34825 0.761137 -0.02249
C_ C_ 0.0147381 0.46099 0.751208 -0.02249
C_ C_ 0.265504 0.462989 0.74764 -0.02249
C_ C_ 0.049797 0.412596 0.71235 -0.11473
C_ C_ 0.280419 0.394765 0.721419 -0.11473
C_ C_ 0.0496812 0.360418 0.783108 -0.11473
C_ C_ 0.312813 0.376638 0.795196 -0.11473
C_ C_ 0.0665727 0.375307 0.710919 -0.11473
C_ C_ 0.297121 0.357653 0.725555 -0.11473
C_ C_ 0.0315485 0.421025 0.748235 -0.02249
C_ C_ 0.281862 0.423473 0.753779 -0.02249
C_ C_ 0.0861235 0.311614 0.746923 0.6875
C_ C_ 0.334315 0.312054 0.760208 0.6875
C_ C_ 0.0341565 0.397776 0.78496 -0.11473
C_ C_ 0.298708 0.414321 0.790678 -0.11473
C_ C_ 0.187793 0.347686 0.749467 -0.02249
C_ C_ 0.433985 0.34619 0.756861 -0.02249
C_ C_ 0.233463 0.466028 0.751894 -0.02249
C_ C_ 0.483134 0.462356 0.757259 -0.02249
C_ C_ 0.216962 0.401611 0.787932 -0.11473
C_ C_ 0.453905 0.407446 0.792755 -0.11473
C_ C_ 0.190094 0.369991 0.712226 -0.11473
C_ C_ 0.448528 0.360766 0.720766 -0.11473
C_ C_ 0.200643 0.364796 0.787096 -0.11473
C_ C_ 0.439921 0.367685 0.794606 -0.11473
C_ C_ 0.215991 0.425768 0.750712 -0.02249
C_ C_ 0.466916 0.422651 0.756945 -0.02249
C_ C_ 0.168727 0.309615 0.749684 0.6875
C_ C_ 0.415187 0.308426 0.756588 0.6875
C_ C_ 0.206681 0.407404 0.711064 -0.11473
C_ C_ 0.461773 0.40104 0.720331 -0.11473
C_ C_ 0.181944 0.153651 0.749628 -0.02249
C_ C_ 0.432568 0.151668 0.755607 -0.02249
C_ C_ 0.232745 0.0383888 0.75138 -0.02249
C_ C_ 0.486285 0.040191 0.744903 -0.02249
C_ C_ 0.21512 0.103233 0.788467 -0.11473
C_ C_ 0.454912 0.0904505 0.788236 -0.11473
C_ C_ 0.190732 0.134543 0.710912 -0.11473
C_ C_ 0.44455 0.1398 0.7169 -0.11473
C_ C_ 0.193868 0.136038 0.788721 -0.11473
C_ C_ 0.437627 0.127217 0.790576 -0.11473
C_ C_ 0.217375 0.0791881 0.751923 -0.02249
C_ C_ 0.468143 0.0800072 0.749031 -0.02249
C_ C_ 0.164282 0.191842 0.749312 0.6875
C_ C_ 0.412135 0.189456 0.758357 0.6875
C_ C_ 0.209995 0.100337 0.712564 -0.11473
C_ C_ 0.462304 0.103394 0.714654 -0.11473
C_ C_ 0.067487 0.156385 0.75126 -0.02249
C_ C_ 0.318863 0.146846 0.753529 -0.02249
C_ C_ 0.0155225 0.0445422 0.754741 -0.02249
C_ C_ 0.264491 0.0378461 0.75164 -0.02249
C_ C_ 0.0390286 0.101511 0.714516 -0.11473
C_ C_ 0.295559 0.0920477 0.712639 -0.11473
C_ C_ 0.0608367 0.137711 0.789315 -0.11473
C_ C_ 0.302125 0.134011 0.787875 -0.11473
C_ C_ 0.0550405 0.138628 0.714595 -0.11473
C_ C_ 0.313926 0.127602 0.715413 -0.11473
C_ C_ 0.0319051 0.0852985 0.752811 -0.02249
C_ C_ 0.282039 0.0756044 0.750479 -0.02249
C_ C_ 0.0855046 0.195839 0.749944 0.6875
C_ C_ 0.335316 0.187632 0.754661 0.6875
C_ C_ 0.0441402 0.101596 0.790433 -0.11473
C_ C_ 0.283879 0.0988894 0.786653 -0.11473
C_ C_ 0.122573 0.291516 0.874232 0.17695
C_ C_ 0.369175 0.287511 0.882007 0.17695
C_ C_ 0.12594 0.218164 0.877144 0.17695
C_ C_ 0.383778 0.217942 0.885288 0.17695
C_ C_ 0.126209 0.218204 0.921816 -0.11473
C_ C_ 0.381498 0.218324 0.929518 -0.11473
C_ C_ 0.123517 0.25798 0.942606 0.23465
C_ C_ 0.373771 0.254825 0.950463 0.23465
C_ C_ 0.122139 0.294184 0.918191 -0.11473
C_ C_ 0.3664 0.28924 0.926343 -0.11473
C_ C_ 0.123447 0.282772 0.622872 0.17695
C_ C_ 0.372939 0.218376 0.629989 0.17695
C_ C_ 0.12284 0.208713 0.631498 0.17695
C_ C_ 0.369155 0.29276 0.631899 0.17695
C_ C_ 0.1243 0.205411 0.58798 -0.11473
C_ C_ 0.361733 0.294355 0.589137 -0.11473
C_ C_ 0.124651 0.239161 0.560043 0.23465
C_ C_ 0.364041 0.258307 0.563934 0.23465
C_ C_ 0.123776 0.278473 0.579256 -0.11473
C_ C_ 0.372023 0.219453 0.585675 -0.11473
C_ C_ 0.0308806 0.498901 0.754065 0.05793
C_ C_ 0.280442 0.500774 0.73922 0.05793
C_ C_ 0.216236 0.000763557 0.747339 0.05793
C_ C_ 0.469563 1.00264835 0.742107 0.05793
Br Br 0.0736419 0.498763 0.772604 -0.17191
Br Br 0.324672 0.497396 0.731754 -0.17191
Br Br 0.173117 0.00279469 0.735164 -0.17191
Br Br 0.426947 1.00292806 0.746458 -0.17191
N_ N_ 0.124788 0.254825 0.854008 -0.272
N_ N_ 0.376507 0.252018 0.862366 -0.272
N_ N_ 0.130266 0.26057 0.986889 -0.12501
N_ N_ 0.370049 0.258437 0.994237 -0.12501
N_ N_ 0.123965 0.24845 0.647997 -0.272
N_ N_ 0.37281 0.254893 0.650515 -0.272
N_ N_ 0.130505 0.232183 0.518021 -0.12501
N_ N_ 0.368928 0.26461 0.51994 -0.12501
O_ O_ 0.0988131 0.299866 0.713379 -0.60745
O_ O_ 0.342759 0.297324 0.725801 -0.60745
O_ O_ 0.0921409 0.294354 0.779119 -0.60745
O_ O_ 0.341953 0.294024 0.794624 -0.60745
O_ O_ 0.155664 0.296756 0.78186 -0.60745
O_ O_ 0.406199 0.291758 0.790077 -0.60745
O_ O_ 0.161362 0.294245 0.714801 -0.60745
O_ O_ 0.407039 0.292416 0.721406 -0.60745
O_ O_ 0.15846 0.210155 0.783016 -0.60745
O_ O_ 0.405013 0.205263 0.793097 -0.60745
O_ O_ 0.153738 0.205336 0.714669 -0.60745
O_ O_ 0.405586 0.208033 0.723932 -0.60745
O_ O_ 0.089455 0.215665 0.715816 -0.60745
O_ O_ 0.34159 0.208811 0.72272 -0.60745
O_ O_ 0.097235 0.208181 0.784318 -0.60745
O_ O_ 0.341897 0.204066 0.79082 -0.60745
Zn Zn 0.122955 0.746088 0.282886 0.9476
Zn Zn 0.376865 0.743454 0.283203 0.9476
Zn Zn 0.1249 0.741669 0.211693 0.9476
Zn Zn 0.376196 0.748656 0.213485 0.9476
H_ H_ 0.0265257 0.901891 0.176647 0.10932
H_ H_ 0.286458 0.919986 0.179632 0.10932
H_ H_ 0.0861122 0.873158 0.307838 0.10932
H_ H_ 0.312232 0.845611 0.313853 0.10932
H_ H_ 0.0573074 0.837659 0.186227 0.10932
H_ H_ 0.317868 0.85827 0.179394 0.10932
H_ H_ 0.0507482 0.934393 0.299078 0.10932
H_ H_ 0.277138 0.906147 0.314406 0.10932
H_ H_ 0.218078 0.911809 0.314857 0.10932
H_ H_ 0.460991 0.913309 0.321908 0.10932
H_ H_ 0.186135 0.844833 0.183059 0.10932
H_ H_ 0.428599 0.856542 0.183958 0.10932
H_ H_ 0.188709 0.846213 0.316968 0.10932
H_ H_ 0.440079 0.842395 0.318527 0.10932
H_ H_ 0.212781 0.913474 0.182023 0.10932
H_ H_ 0.461762 0.918293 0.187166 0.10932
H_ H_ 0.211305 0.573423 0.318906 0.10932
H_ H_ 0.471845 0.57643 0.312644 0.10932
H_ H_ 0.197889 0.649419 0.184418 0.10932
H_ H_ 0.434169 0.643709 0.179141 0.10932
H_ H_ 0.178131 0.638386 0.315273 0.10932
H_ H_ 0.437073 0.639919 0.318322 0.10932
H_ H_ 0.219426 0.582632 0.183876 0.10932
H_ H_ 0.471096 0.586635 0.178199 0.10932
H_ H_ 0.0120318 0.595429 0.183522 0.10932
H_ H_ 0.280431 0.585072 0.182768 0.10932
H_ H_ 0.0837129 0.626355 0.300011 0.10932
H_ H_ 0.325531 0.634525 0.315337 0.10932
H_ H_ 0.036455 0.664482 0.186468 0.10932
H_ H_ 0.307385 0.649081 0.181262 0.10932
H_ H_ 0.0549543 0.565033 0.301154 0.10932
H_ H_ 0.293824 0.571741 0.315146 0.10932
H_ H_ 0.126081 0.810916 0.365489 0.10932
H_ H_ 0.387777 0.68449 0.366291 0.10932
H_ H_ 0.129446 0.680462 0.354773 0.10932
H_ H_ 0.367487 0.812021 0.355953 0.10932
H_ H_ 0.124592 0.671849 0.429098 0.10932
H_ H_ 0.370023 0.821759 0.429155 0.10932
H_ H_ 0.125585 0.806443 0.443139 0.10932
H_ H_ 0.386007 0.692628 0.445934 0.10932
H_ H_ 0.167533 0.754339 0.136864 0.10932
H_ H_ 0.372142 0.692661 0.133759 0.10932
H_ H_ 0.0713255 0.757088 0.14023 0.10932
H_ H_ 0.375844 0.820622 0.146291 0.10932
H_ H_ 0.0703173 0.777979 0.0648032 0.10932
H_ H_ 0.379103 0.832315 0.0712169 0.10932
H_ H_ 0.163797 0.764725 0.0578692 0.10932
H_ H_ 0.369425 0.697926 0.0551258 0.10932
C_ C_ 0.0740867 0.851553 0.246469 -0.02249
C_ C_ 0.318555 0.848476 0.246938 -0.02249
C_ C_ 0.0181873 0.960765 0.237876 -0.02249
C_ C_ 0.265419 0.958046 0.248861 -0.02249
C_ C_ 0.0389409 0.894437 0.206286 -0.11473
C_ C_ 0.294035 0.906302 0.210102 -0.11473
C_ C_ 0.0720379 0.878937 0.280309 -0.11473
C_ C_ 0.306089 0.862539 0.285464 -0.11473
C_ C_ 0.0602885 0.861416 0.208706 -0.11473
C_ C_ 0.311583 0.871133 0.209326 -0.11473
C_ C_ 0.0374073 0.921376 0.23974 -0.02249
C_ C_ 0.281709 0.918448 0.247861 -0.02249
C_ C_ 0.0929023 0.813678 0.249942 0.6875
C_ C_ 0.340203 0.812141 0.244638 0.6875
C_ C_ 0.0541095 0.913645 0.275458 -0.11473
C_ C_ 0.288567 0.897691 0.285334 -0.11473
C_ C_ 0.186783 0.839217 0.248348 -0.02249
C_ C_ 0.431733 0.845844 0.252164 -0.02249
C_ C_ 0.233581 0.957985 0.249981 -0.02249
C_ C_ 0.47994 0.960599 0.254578 -0.02249
C_ C_ 0.212502 0.895837 0.285841 -0.11473
C_ C_ 0.457365 0.898282 0.292235 -0.11473
C_ C_ 0.195824 0.857844 0.211047 -0.11473
C_ C_ 0.438715 0.866644 0.213903 -0.11473
C_ C_ 0.195427 0.858187 0.286367 -0.11473
C_ C_ 0.441471 0.861431 0.291376 -0.11473
C_ C_ 0.217548 0.916888 0.247952 -0.02249
C_ C_ 0.462454 0.920594 0.254385 -0.02249
C_ C_ 0.165535 0.802511 0.247605 0.6875
C_ C_ 0.416528 0.80539 0.248769 0.6875
C_ C_ 0.207762 0.89801 0.210063 -0.11473
C_ C_ 0.456791 0.901175 0.215496 -0.11473
C_ C_ 0.184927 0.648057 0.251844 -0.02249
C_ C_ 0.433782 0.646083 0.249358 -0.02249
C_ C_ 0.237023 0.533587 0.251833 -0.02249
C_ C_ 0.488134 0.536436 0.245209 -0.02249
C_ C_ 0.206281 0.588489 0.288401 -0.11473
C_ C_ 0.465918 0.593101 0.284322 -0.11473
C_ C_ 0.197968 0.632968 0.21541 -0.11473
C_ C_ 0.443348 0.630892 0.209208 -0.11473
C_ C_ 0.189132 0.625235 0.288797 -0.11473
C_ C_ 0.445608 0.628085 0.286728 -0.11473
C_ C_ 0.220234 0.574557 0.251194 -0.02249
C_ C_ 0.474314 0.577838 0.246253 -0.02249
C_ C_ 0.162147 0.68344 0.246095 0.6875
C_ C_ 0.415278 0.684078 0.249599 0.6875
C_ C_ 0.209644 0.593516 0.213575 -0.11473
C_ C_ 0.464223 0.597522 0.208285 -0.11473
C_ C_ 0.0632279 0.651974 0.245919 -0.02249
C_ C_ 0.318161 0.647985 0.249304 -0.02249
C_ C_ 0.0142974 0.535044 0.24253 -0.02249
C_ C_ 0.268594 0.534169 0.24797 -0.02249
C_ C_ 0.0265657 0.603535 0.210307 -0.11473
C_ C_ 0.292027 0.595477 0.211258 -0.11473
C_ C_ 0.0667232 0.622261 0.276474 -0.11473
C_ C_ 0.314239 0.625732 0.287163 -0.11473
C_ C_ 0.0418203 0.643708 0.214262 -0.11473
C_ C_ 0.307833 0.632286 0.20897 -0.11473
C_ C_ 0.0311093 0.573962 0.242978 -0.02249
C_ C_ 0.284134 0.574341 0.249318 -0.02249
C_ C_ 0.0842599 0.687674 0.245452 0.6875
C_ C_ 0.337702 0.686723 0.249293 0.6875
C_ C_ 0.0515567 0.583255 0.274046 -0.11473
C_ C_ 0.296412 0.59023 0.284836 -0.11473
C_ C_ 0.124372 0.78106 0.378849 0.17695
C_ C_ 0.38544 0.713726 0.380951 0.17695
C_ C_ 0.126817 0.708323 0.372938 0.17695
C_ C_ 0.375533 0.785838 0.374032 0.17695
C_ C_ 0.125428 0.703765 0.416895 -0.11473
C_ C_ 0.376215 0.79002 0.417365 -0.11473
C_ C_ 0.123316 0.739036 0.442969 0.23465
C_ C_ 0.3808 0.755833 0.443663 0.23465
C_ C_ 0.12375 0.778122 0.423809 -0.11473
C_ C_ 0.383743 0.717538 0.425759 -0.11473
C_ C_ 0.145883 0.750568 0.120295 0.17695
C_ C_ 0.370897 0.722073 0.118553 0.17695
C_ C_ 0.0925103 0.758893 0.12319 0.17695
C_ C_ 0.37731 0.794925 0.126929 0.17695
C_ C_ 0.09127 0.768305 0.0801505 -0.11473
C_ C_ 0.376404 0.801838 0.0837301 -0.11473
C_ C_ 0.115889 0.759702 0.0554086 0.23465
C_ C_ 0.378225 0.765318 0.0565893 0.23465
C_ C_ 0.144598 0.754542 0.0751671 -0.11473
C_ C_ 0.372512 0.724889 0.0742056 -0.11473
C_ C_ 0.0321234 0.998049 0.228843 0.05793
C_ C_ 0.28076 0.997142 0.254835 0.05793
C_ C_ 0.220425 0.495544 0.249861 0.05793
C_ C_ 0.472714 0.499561 0.23669 0.05793
Br Br 0.0735089 -1.999999999946489e-06 0.213912 -0.17191
Br Br 0.32419 0.996035 0.25736 -0.17191
Br Br 0.176337 0.49441 0.245693 -0.17191
Br Br 0.432098 0.500548 0.211174 -0.17191
N_ N_ 0.127383 0.746607 0.354644 -0.272
N_ N_ 0.378666 0.748263 0.355951 -0.272
N_ N_ 0.122997 0.733491 0.488312 -0.12501
N_ N_ 0.379208 0.762002 0.488657 -0.12501
N_ N_ 0.119959 0.746894 0.141219 -0.272
N_ N_ 0.374589 0.756706 0.142745 -0.272
N_ N_ 0.112941 0.764159 0.010562 -0.12501
N_ N_ 0.378276 0.771104 0.0119649 -0.12501
O_ O_ 0.0993138 0.79424 0.217865 -0.60745
O_ O_ 0.343298 0.791804 0.21121 -0.60745
O_ O_ 0.097252 0.796756 0.286986 -0.60745
O_ O_ 0.350996 0.796017 0.278603 -0.60745
O_ O_ 0.153071 0.79112 0.281698 -0.60745
O_ O_ 0.408501 0.785544 0.280512 -0.60745
O_ O_ 0.159492 0.78248 0.212908 -0.60745
O_ O_ 0.406155 0.792763 0.214295 -0.60745
O_ O_ 0.15133 0.699745 0.278279 -0.60745
O_ O_ 0.40551 0.696271 0.284402 -0.60745
O_ O_ 0.151504 0.692925 0.209407 -0.60745
O_ O_ 0.410994 0.7076 0.216955 -0.60745
O_ O_ 0.0909626 0.703659 0.210278 -0.60745
O_ O_ 0.347175 0.702357 0.214751 -0.60745
O_ O_ 0.0905868 0.705878 0.279258 -0.60745
O_ O_ 0.343516 0.703617 0.285431 -0.60745
Zn Zn 0.122113 0.751261 0.785009 0.9476
Zn Zn 0.373826 0.750913 0.7842 0.9476
Zn Zn 0.122175 0.74939 0.716017 0.9476
Zn Zn 0.374716 0.754693 0.715949 0.9476
H_ H_ 0.0259926 0.918219 0.690283 0.10932
H_ H_ 0.294649 0.927958 0.679037 0.10932
H_ H_ 0.0742231 0.86075 0.819473 0.10932
H_ H_ 0.307233 0.851442 0.813668 0.10932
H_ H_ 0.0539539 0.852447 0.687749 0.10932
H_ H_ 0.322326 0.862972 0.677038 0.10932
H_ H_ 0.0482341 0.926513 0.822406 0.10932
H_ H_ 0.277522 0.914883 0.810725 0.10932
H_ H_ 0.192265 0.934845 0.806422 0.10932
H_ H_ 0.479251 0.909414 0.810067 0.10932
H_ H_ 0.205431 0.829639 0.698896 0.10932
H_ H_ 0.409258 0.876093 0.689937 0.10932
H_ H_ 0.163413 0.871878 0.812376 0.10932
H_ H_ 0.448166 0.850264 0.816886 0.10932
H_ H_ 0.226108 0.900754 0.686906 0.10932
H_ H_ 0.4456 0.930315 0.686188 0.10932
H_ H_ 0.231393 0.601095 0.803929 0.10932
H_ H_ 0.474723 0.590622 0.816206 0.10932
H_ H_ 0.172213 0.638009 0.676854 0.10932
H_ H_ 0.430181 0.644103 0.683324 0.10932
H_ H_ 0.201743 0.663545 0.803435 0.10932
H_ H_ 0.445822 0.652192 0.818737 0.10932
H_ H_ 0.202533 0.573113 0.680734 0.10932
H_ H_ 0.451584 0.572791 0.682861 0.10932
H_ H_ 0.0458388 0.571587 0.682349 0.10932
H_ H_ 0.287196 0.581405 0.678315 0.10932
H_ H_ 0.0623513 0.645241 0.81279 0.10932
H_ H_ 0.31748 0.645038 0.813544 0.10932
H_ H_ 0.0785542 0.633573 0.684029 0.10932
H_ H_ 0.318375 0.649681 0.681041 0.10932
H_ H_ 0.0329277 0.584093 0.814005 0.10932
H_ H_ 0.29157 0.5753 0.809401 0.10932
H_ H_ 0.115554 0.816962 0.860283 0.10932
H_ H_ 0.378229 0.821476 0.866111 0.10932
H_ H_ 0.129504 0.684172 0.854394 0.10932
H_ H_ 0.375699 0.68918 0.8529 0.10932
H_ H_ 0.132213 0.681378 0.930961 0.10932
H_ H_ 0.378055 0.683015 0.927801 0.10932
H_ H_ 0.117275 0.810756 0.939185 0.10932
H_ H_ 0.383047 0.816375 0.9411 0.10932
H_ H_ 0.098965 0.69802 0.636058 0.10932
H_ H_ 0.338945 0.712895 0.636514 0.10932
H_ H_ 0.151502 0.805858 0.646494 0.10932
H_ H_ 0.419118 0.779199 0.646777 0.10932
H_ H_ 0.15735 0.812755 0.568085 0.10932
H_ H_ 0.421175 0.785642 0.56999 0.10932
H_ H_ 0.0927815 0.714386 0.555806 0.10932
H_ H_ 0.345599 0.704876 0.559883 0.10932
C_ C_ 0.0689761 0.854572 0.753106 -0.02249
C_ C_ 0.314298 0.846113 0.745899 -0.02249
C_ C_ 0.0179508 0.967677 0.762187 -0.02249
C_ C_ 0.263136 0.960921 0.74525 -0.02249
C_ C_ 0.0368023 0.90447 0.718365 -0.11473
C_ C_ 0.295017 0.908261 0.707092 -0.11473
C_ C_ 0.0667236 0.87596 0.78926 -0.11473
C_ C_ 0.30288 0.864581 0.782469 -0.11473
C_ C_ 0.0541381 0.868226 0.715957 -0.11473
C_ C_ 0.312498 0.872954 0.707523 -0.11473
C_ C_ 0.035352 0.927561 0.758855 -0.02249
C_ C_ 0.279676 0.921743 0.742542 -0.02249
C_ C_ 0.082238 0.812058 0.755538 0.6875
C_ C_ 0.334709 0.811658 0.747646 0.6875
C_ C_ 0.0506271 0.912009 0.793211 -0.11473
C_ C_ 0.285057 0.901328 0.779972 -0.11473
C_ C_ 0.180929 0.848494 0.753211 -0.02249
C_ C_ 0.42927 0.852119 0.750601 -0.02249
C_ C_ 0.231428 0.961207 0.74811 -0.02249
C_ C_ 0.484779 0.962438 0.742979 -0.02249
C_ C_ 0.19465 0.914073 0.781225 -0.11473
C_ C_ 0.465126 0.901592 0.782136 -0.11473
C_ C_ 0.20045 0.855265 0.71897 -0.11473
C_ C_ 0.428584 0.877401 0.713769 -0.11473
C_ C_ 0.176815 0.878583 0.783053 -0.11473
C_ C_ 0.447201 0.866822 0.785555 -0.11473
C_ C_ 0.213415 0.922732 0.747448 -0.02249
C_ C_ 0.467477 0.921833 0.744394 -0.02249
C_ C_ 0.16274 0.810193 0.751729 0.6875
C_ C_ 0.410627 0.813961 0.75078 0.6875
C_ C_ 0.217273 0.892249 0.716987 -0.11473
C_ C_ 0.448716 0.91012 0.712005 -0.11473
C_ C_ 0.182835 0.653252 0.741372 -0.02249
C_ C_ 0.433352 0.651273 0.750846 -0.02249
C_ C_ 0.235626 0.54159 0.746058 -0.02249
C_ C_ 0.481825 0.537525 0.749294 -0.02249
C_ C_ 0.216604 0.607549 0.776729 -0.11473
C_ C_ 0.461638 0.599437 0.787439 -0.11473
C_ C_ 0.184938 0.629139 0.70464 -0.11473
C_ C_ 0.438326 0.629922 0.712057 -0.11473
C_ C_ 0.198569 0.642073 0.777182 -0.11473
C_ C_ 0.449457 0.639074 0.787198 -0.11473
C_ C_ 0.217202 0.580602 0.743261 -0.02249
C_ C_ 0.46526 0.577361 0.750051 -0.02249
C_ C_ 0.161362 0.691028 0.74202 0.6875
C_ C_ 0.414784 0.692326 0.753053 0.6875
C_ C_ 0.204955 0.595357 0.70466 -0.11473
C_ C_ 0.452179 0.591427 0.711723 -0.11473
C_ C_ 0.0692531 0.647984 0.749076 -0.02249
C_ C_ 0.316884 0.653105 0.746941 -0.02249
C_ C_ 0.01568 0.536657 0.747153 -0.02249
C_ C_ 0.26654 0.539835 0.741329 -0.02249
C_ C_ 0.0483687 0.588534 0.711093 -0.11473
C_ C_ 0.290557 0.59885 0.706636 -0.11473
C_ C_ 0.0565893 0.632651 0.783667 -0.11473
C_ C_ 0.310796 0.6309 0.784198 -0.11473
C_ C_ 0.0674194 0.624595 0.712167 -0.11473
C_ C_ 0.308322 0.635486 0.708201 -0.11473
C_ C_ 0.0339287 0.575331 0.748009 -0.02249
C_ C_ 0.286572 0.576143 0.743481 -0.02249
C_ C_ 0.0848433 0.689137 0.749785 0.6875
C_ C_ 0.336256 0.69103 0.74782 0.6875
C_ C_ 0.0404825 0.594618 0.784713 -0.11473
C_ C_ 0.295255 0.592657 0.782064 -0.11473
C_ C_ 0.120848 0.785908 0.87592 0.17695
C_ C_ 0.376746 0.790136 0.879721 0.17695
C_ C_ 0.129318 0.712433 0.87319 0.17695
C_ C_ 0.379036 0.717875 0.871135 0.17695
C_ C_ 0.129676 0.711354 0.917463 -0.11473
C_ C_ 0.380362 0.713059 0.914457 -0.11473
C_ C_ 0.125059 0.745906 0.941261 0.23465
C_ C_ 0.382169 0.747425 0.941745 0.23465
C_ C_ 0.122165 0.784776 0.921115 -0.11473
C_ C_ 0.377515 0.785559 0.923505 -0.11473
C_ C_ 0.109942 0.72379 0.619894 0.17695
C_ C_ 0.357925 0.724422 0.621761 0.17695
C_ C_ 0.138596 0.786507 0.626301 0.17695
C_ C_ 0.401326 0.767035 0.627595 0.17695
C_ C_ 0.143165 0.788388 0.583237 -0.11473
C_ C_ 0.404644 0.767216 0.58409 -0.11473
C_ C_ 0.12728 0.760385 0.557132 0.23465
C_ C_ 0.385226 0.743195 0.559026 0.23465
C_ C_ 0.111092 0.728835 0.575274 -0.11473
C_ C_ 0.361726 0.722661 0.577904 -0.11473
C_ C_ 0.033122 0.00641174 0.759565 0.05793
C_ C_ 0.280089 -0.00114421 0.750519 0.05793
C_ C_ 0.218485 0.504713 0.751983 0.05793
C_ C_ 0.465893 0.499545 0.749683 0.05793
Br Br 0.0765589 0.00892372 0.760675 -0.17191
Br Br 0.321589 0.0017400000000000748 0.757452 -0.17191
Br Br 0.176673 0.506106 0.764448 -0.17191
Br Br 0.422705 0.501665 0.747624 -0.17191
N_ N_ 0.123378 0.750489 0.854016 -0.272
N_ N_ 0.377073 0.756054 0.854088 -0.272
N_ N_ 0.126542 0.741123 0.985912 -0.12501
N_ N_ 0.382199 0.740529 0.986512 -0.12501
N_ N_ 0.123702 0.754067 0.645055 -0.272
N_ N_ 0.377779 0.747718 0.645886 -0.272
N_ N_ 0.131151 0.762114 0.513155 -0.12501
N_ N_ 0.390455 0.738346 0.516085 -0.12501
O_ O_ 0.0889085 0.792712 0.721991 -0.60745
O_ O_ 0.338398 0.790836 0.713815 -0.60745
O_ O_ 0.0927042 0.798741 0.789752 -0.60745
O_ O_ 0.346522 0.798938 0.783714 -0.60745
O_ O_ 0.156251 0.790684 0.78535 -0.60745
O_ O_ 0.405447 0.793023 0.783502 -0.60745
O_ O_ 0.151393 0.797419 0.718191 -0.60745
O_ O_ 0.399701 0.80171 0.715933 -0.60745
O_ O_ 0.152397 0.707138 0.776618 -0.60745
O_ O_ 0.401815 0.703116 0.787269 -0.60745
O_ O_ 0.154689 0.71117 0.709691 -0.60745
O_ O_ 0.409948 0.71326 0.719893 -0.60745
O_ O_ 0.0921139 0.703638 0.714397 -0.60745
O_ O_ 0.347468 0.706991 0.714958 -0.60745
O_ O_ 0.0931059 0.706951 0.784794 -0.60745
O_ O_ 0.338058 0.711766 0.78161 -0.60745
Zn Zn 0.62571 0.244397 0.29039 0.9476
Zn Zn 0.875687 0.249255 0.287342 0.9476
Zn Zn 0.622273 0.246566 0.217584 0.9476
Zn Zn 0.87402 0.2479 0.217873 0.9476
H_ H_ 0.525242 0.413041 0.190385 0.10932
H_ H_ 0.770148 0.409551 0.193047 0.10932
H_ H_ 0.567976 0.348951 0.32315 0.10932
H_ H_ 0.828286 0.366953 0.319982 0.10932
H_ H_ 0.555784 0.344636 0.188273 0.10932
H_ H_ 0.805346 0.346103 0.18936 0.10932
H_ H_ 0.543342 0.417071 0.324249 0.10932
H_ H_ 0.791473 0.42518 0.323537 0.10932
H_ H_ 0.710764 0.421508 0.317684 0.10932
H_ H_ 0.976176 0.404329 0.318489 0.10932
H_ H_ 0.679849 0.355768 0.1815 0.10932
H_ H_ 0.914714 0.36351 0.195277 0.10932
H_ H_ 0.68959 0.34947 0.317618 0.10932
H_ H_ 0.946411 0.342961 0.321208 0.10932
H_ H_ 0.70029 0.426299 0.182269 0.10932
H_ H_ 0.948043 0.425745 0.192254 0.10932
H_ H_ 0.740434 0.101684 0.303478 0.10932
H_ H_ 0.976707 0.0893475 0.309078 0.10932
H_ H_ 0.661378 0.127513 0.195396 0.10932
H_ H_ 0.927909 0.141498 0.179375 0.10932
H_ H_ 0.712738 0.168333 0.300374 0.10932
H_ H_ 0.937625 0.14602 0.31214 0.10932
H_ H_ 0.687615 0.0599398 0.197648 0.10932
H_ H_ 0.954227 0.0773427 0.17575 0.10932
H_ H_ 0.544699 0.0652551 0.193826 0.10932
H_ H_ 0.777776 0.0908581 0.17907 0.10932
H_ H_ 0.553771 0.150915 0.321288 0.10932
H_ H_ 0.824857 0.135941 0.308826 0.10932
H_ H_ 0.57983 0.123304 0.195435 0.10932
H_ H_ 0.800131 0.157864 0.184287 0.10932
H_ H_ 0.519542 0.0934664 0.317603 0.10932
H_ H_ 0.796189 0.0683183 0.307855 0.10932
H_ H_ 0.63142 0.18386 0.367928 0.10932
H_ H_ 0.884875 0.183762 0.360819 0.10932
H_ H_ 0.629833 0.312434 0.35813 0.10932
H_ H_ 0.871785 0.311776 0.367868 0.10932
H_ H_ 0.623733 0.316642 0.437115 0.10932
H_ H_ 0.87251 0.30758 0.443195 0.10932
H_ H_ 0.613652 0.18697 0.439865 0.10932
H_ H_ 0.864301 0.179132 0.432961 0.10932
H_ H_ 0.603074 0.189401 0.141305 0.10932
H_ H_ 0.894275 0.314306 0.147458 0.10932
H_ H_ 0.639014 0.31008 0.136512 0.10932
H_ H_ 0.85596 0.19502 0.138728 0.10932
H_ H_ 0.647527 0.305219 0.0627968 0.10932
H_ H_ 0.85179 0.202186 0.0608175 0.10932
H_ H_ 0.608265 0.185077 0.0632665 0.10932
H_ H_ 0.888005 0.323613 0.0691389 0.10932
C_ C_ 0.562674 0.340908 0.256197 -0.02249
C_ C_ 0.816011 0.349802 0.256207 -0.02249
C_ C_ 0.51751 0.460405 0.258612 -0.02249
C_ C_ 0.76109 0.460664 0.254908 -0.02249
C_ C_ 0.535773 0.39775 0.219174 -0.11473
C_ C_ 0.781052 0.395836 0.221168 -0.11473
C_ C_ 0.557694 0.360792 0.295169 -0.11473
C_ C_ 0.811725 0.370839 0.294755 -0.11473
C_ C_ 0.551829 0.360344 0.21796 -0.11473
C_ C_ 0.799686 0.360732 0.219431 -0.11473
C_ C_ 0.533591 0.420221 0.257576 -0.02249
C_ C_ 0.777061 0.419406 0.258005 -0.02249
C_ C_ 0.581284 0.302031 0.255362 0.6875
C_ C_ 0.837574 0.313585 0.255809 0.6875
C_ C_ 0.542797 0.399146 0.295148 -0.11473
C_ C_ 0.792574 0.405955 0.29634 -0.11473
C_ C_ 0.681296 0.347318 0.249615 -0.02249
C_ C_ 0.92969 0.347129 0.256344 -0.02249
C_ C_ 0.729313 0.46298 0.24965 -0.02249
C_ C_ 0.984393 0.456818 0.252723 -0.02249
C_ C_ 0.70604 0.405704 0.287963 -0.11473
C_ C_ 0.964291 0.395224 0.290294 -0.11473
C_ C_ 0.686019 0.369497 0.210334 -0.11473
C_ C_ 0.929793 0.372045 0.220541 -0.11473
C_ C_ 0.692153 0.365597 0.287534 -0.11473
C_ C_ 0.946566 0.360388 0.292442 -0.11473
C_ C_ 0.709992 0.426616 0.249955 -0.02249
C_ C_ 0.96804 0.415567 0.253266 -0.02249
C_ C_ 0.662357 0.309263 0.250099 0.6875
C_ C_ 0.912453 0.308227 0.255651 0.6875
C_ C_ 0.698359 0.408413 0.210693 -0.11473
C_ C_ 0.949322 0.404524 0.218149 -0.11473
C_ C_ 0.684971 0.153808 0.246728 -0.02249
C_ C_ 0.930038 0.148336 0.246325 -0.02249
C_ C_ 0.735285 0.0370918 0.247373 -0.02249
C_ C_ 0.984416 0.0358734 0.240909 -0.02249
C_ C_ 0.723413 0.10856 0.277993 -0.11473
C_ C_ 0.963315 0.0991899 0.28088 -0.11473
C_ C_ 0.679643 0.123297 0.216179 -0.11473
C_ C_ 0.934231 0.127277 0.208199 -0.11473
C_ C_ 0.706372 0.14498 0.278722 -0.11473
C_ C_ 0.941874 0.130706 0.283629 -0.11473
C_ C_ 0.719262 0.078679 0.246704 -0.02249
C_ C_ 0.966204 0.0755628 0.242414 -0.02249
C_ C_ 0.665443 0.191091 0.249529 0.6875
C_ C_ 0.910774 0.185203 0.247844 0.6875
C_ C_ 0.695694 0.0855595 0.216614 -0.11473
C_ C_ 0.95004 0.0905803 0.20683 -0.11473
C_ C_ 0.570721 0.141142 0.25806 -0.02249
C_ C_ 0.815371 0.1505 0.247571 -0.02249
C_ C_ 0.514156 0.0328827 0.257236 -0.02249
C_ C_ 0.766334 0.0360643 0.23851 -0.02249
C_ C_ 0.546793 0.085281 0.221744 -0.11473
C_ C_ 0.786081 0.101298 0.208254 -0.11473
C_ C_ 0.555412 0.130019 0.294702 -0.11473
C_ C_ 0.814651 0.124776 0.280837 -0.11473
C_ C_ 0.568369 0.115964 0.223822 -0.11473
C_ C_ 0.799341 0.139687 0.210679 -0.11473
C_ C_ 0.532347 0.0726792 0.258035 -0.02249
C_ C_ 0.783567 0.0755623 0.241763 -0.02249
C_ C_ 0.589951 0.177218 0.258634 0.6875
C_ C_ 0.834606 0.189787 0.247965 0.6875
C_ C_ 0.53405 0.0983435 0.293157 -0.11473
C_ C_ 0.79773 0.0860341 0.278188 -0.11473
C_ C_ 0.624162 0.212669 0.382274 0.17695
C_ C_ 0.879235 0.210641 0.37877 0.17695
C_ C_ 0.623842 0.284527 0.376547 0.17695
C_ C_ 0.873577 0.282738 0.382263 0.17695
C_ C_ 0.621757 0.288123 0.419839 -0.11473
C_ C_ 0.871344 0.279827 0.424801 -0.11473
C_ C_ 0.619247 0.253322 0.444647 0.23465
C_ C_ 0.868234 0.242896 0.4459 0.23465
C_ C_ 0.621028 0.214258 0.425815 -0.11473
C_ C_ 0.873688 0.207323 0.421723 -0.11473
C_ C_ 0.61377 0.213991 0.124519 0.17695
C_ C_ 0.888151 0.288389 0.1273 0.17695
C_ C_ 0.630984 0.283152 0.12227 0.17695
C_ C_ 0.864378 0.224255 0.124515 0.17695
C_ C_ 0.637151 0.279758 0.0801283 -0.11473
C_ C_ 0.863192 0.226357 0.0788697 -0.11473
C_ C_ 0.627823 0.245339 0.0571233 0.23465
C_ C_ 0.871827 0.262474 0.0586142 0.23465
C_ C_ 0.616969 0.211065 0.0804857 -0.11473
C_ C_ 0.88367 0.29309 0.0830845 -0.11473
C_ C_ 0.533996 0.497309 0.266353 0.05793
C_ C_ 0.778915 0.496782 0.256513 0.05793
C_ C_ 0.719648 1.00104185 0.255376 0.05793
C_ C_ 0.970122 0.997236 0.248522 0.05793
Br Br 0.573436 0.495312 0.290575 -0.17191
Br Br 0.822226 0.493182 0.254687 -0.17191
Br Br 0.681161 -0.000253409 0.280074 -0.17191
Br Br 0.926677 -0.002939000000000025 0.25314 -0.17191
N_ N_ 0.626121 0.246859 0.358006 -0.272
N_ N_ 0.878825 0.248906 0.359992 -0.272
N_ N_ 0.614397 0.256277 0.489127 -0.12501
N_ N_ 0.866563 0.238897 0.48977 -0.12501
N_ N_ 0.622155 0.248467 0.145548 -0.272
N_ N_ 0.875137 0.25556 0.148024 -0.272
N_ N_ 0.628967 0.241694 0.0121043 -0.12501
N_ N_ 0.869351 0.268446 0.0151781 -0.12501
O_ O_ 0.589767 0.287117 0.219681 -0.60745
O_ O_ 0.847607 0.301464 0.220791 -0.60745
O_ O_ 0.593033 0.289499 0.289058 -0.60745
O_ O_ 0.845668 0.294938 0.28948 -0.60745
O_ O_ 0.656859 0.289625 0.283271 -0.60745
O_ O_ 0.908363 0.290511 0.291049 -0.60745
O_ O_ 0.648237 0.297915 0.218295 -0.60745
O_ O_ 0.908542 0.286467 0.223094 -0.60745
O_ O_ 0.658678 0.203906 0.286243 -0.60745
O_ O_ 0.903756 0.20097 0.283413 -0.60745
O_ O_ 0.656464 0.208148 0.215414 -0.60745
O_ O_ 0.899925 0.201134 0.214576 -0.60745
O_ O_ 0.594657 0.194177 0.22409 -0.60745
O_ O_ 0.837448 0.210828 0.214479 -0.60745
O_ O_ 0.598994 0.194927 0.291427 -0.60745
O_ O_ 0.844297 0.204162 0.282622 -0.60745
Zn Zn 0.630011 0.252299 0.784161 0.9476
Zn Zn 0.869331 0.251866 0.785747 0.9476
Zn Zn 0.627512 0.254422 0.716444 0.9476
Zn Zn 0.872952 0.247778 0.719913 0.9476
H_ H_ 0.5262 0.411382 0.686913 0.10932
H_ H_ 0.788023 0.424432 0.68335 0.10932
H_ H_ 0.571604 0.365718 0.820128 0.10932
H_ H_ 0.803607 0.347132 0.817212 0.10932
H_ H_ 0.561172 0.353741 0.687435 0.10932
H_ H_ 0.815907 0.359006 0.684831 0.10932
H_ H_ 0.544849 0.430602 0.819989 0.10932
H_ H_ 0.77909 0.418227 0.813958 0.10932
H_ H_ 0.709803 0.431062 0.81097 0.10932
H_ H_ 0.951229 0.425469 0.815728 0.10932
H_ H_ 0.70303 0.340272 0.688341 0.10932
H_ H_ 0.947753 0.336269 0.691154 0.10932
H_ H_ 0.685301 0.364211 0.814225 0.10932
H_ H_ 0.915942 0.369764 0.814221 0.10932
H_ H_ 0.723892 0.412738 0.679903 0.10932
H_ H_ 0.981197 0.396475 0.695073 0.10932
H_ H_ 0.696919 0.0625301 0.803243 0.10932
H_ H_ 0.967064 0.0891491 0.824327 0.10932
H_ H_ 0.700571 0.1649 0.693156 0.10932
H_ H_ 0.932416 0.146499 0.686991 0.10932
H_ H_ 0.663061 0.123584 0.805946 0.10932
H_ H_ 0.93667 0.156774 0.821468 0.10932
H_ H_ 0.722071 0.0974967 0.678636 0.10932
H_ H_ 0.960972 0.0810925 0.688817 0.10932
H_ H_ 0.534795 0.0875556 0.675618 0.10932
H_ H_ 0.781084 0.0880019 0.681625 0.10932
H_ H_ 0.566614 0.139049 0.814938 0.10932
H_ H_ 0.816087 0.145472 0.815919 0.10932
H_ H_ 0.564701 0.150338 0.678612 0.10932
H_ H_ 0.806118 0.154664 0.683327 0.10932
H_ H_ 0.537933 0.0785453 0.808715 0.10932
H_ H_ 0.78121 0.0858838 0.819741 0.10932
H_ H_ 0.627318 0.318446 0.85518 0.10932
H_ H_ 0.908621 0.205982 0.859852 0.10932
H_ H_ 0.632147 0.191708 0.868169 0.10932
H_ H_ 0.829644 0.278404 0.861768 0.10932
H_ H_ 0.640834 0.195508 0.942207 0.10932
H_ H_ 0.83008 0.276695 0.937484 0.10932
H_ H_ 0.636692 0.326401 0.93032 0.10932
H_ H_ 0.913014 0.209408 0.937653 0.10932
H_ H_ 0.636233 0.183536 0.649761 0.10932
H_ H_ 0.869629 0.324016 0.650917 0.10932
H_ H_ 0.614527 0.314053 0.629849 0.10932
H_ H_ 0.873366 0.195665 0.637728 0.10932
H_ H_ 0.62696 0.309812 0.560576 0.10932
H_ H_ 0.865577 0.199381 0.559301 0.10932
H_ H_ 0.646819 0.180902 0.570882 0.10932
H_ H_ 0.862947 0.330125 0.570895 0.10932
C_ C_ 0.570873 0.353434 0.75324 -0.02249
C_ C_ 0.815519 0.348312 0.750336 -0.02249
C_ C_ 0.514544 0.463757 0.754511 -0.02249
C_ C_ 0.766942 0.467923 0.74867 -0.02249
C_ C_ 0.535919 0.402507 0.718093 -0.11473
C_ C_ 0.792825 0.407455 0.712983 -0.11473
C_ C_ 0.5636 0.37451 0.790855 -0.11473
C_ C_ 0.801733 0.364811 0.787229 -0.11473
C_ C_ 0.555885 0.369219 0.716996 -0.11473
C_ C_ 0.809534 0.371505 0.712814 -0.11473
C_ C_ 0.532268 0.425999 0.754452 -0.02249
C_ C_ 0.782409 0.426432 0.74952 -0.02249
C_ C_ 0.591237 0.316141 0.75051 0.6875
C_ C_ 0.830503 0.307395 0.751607 0.6875
C_ C_ 0.546774 0.412354 0.79092 -0.11473
C_ C_ 0.78791 0.404768 0.786636 -0.11473
C_ C_ 0.689846 0.350458 0.751495 -0.02249
C_ C_ 0.93 0.347174 0.753785 -0.02249
C_ C_ 0.734517 0.469423 0.742697 -0.02249
C_ C_ 0.982257 0.460437 0.749264 -0.02249
C_ C_ 0.706231 0.414311 0.783175 -0.11473
C_ C_ 0.946126 0.412961 0.785169 -0.11473
C_ C_ 0.703165 0.363049 0.713947 -0.11473
C_ C_ 0.946105 0.358178 0.716899 -0.11473
C_ C_ 0.690475 0.378116 0.784028 -0.11473
C_ C_ 0.928559 0.375948 0.78684 -0.11473
C_ C_ 0.717237 0.429006 0.745533 -0.02249
C_ C_ 0.964664 0.421357 0.749547 -0.02249
C_ C_ 0.669525 0.311795 0.751651 0.6875
C_ C_ 0.911508 0.309242 0.75601 0.6875
C_ C_ 0.714653 0.403099 0.709745 -0.11473
C_ C_ 0.963556 0.394651 0.715979 -0.11473
C_ C_ 0.681228 0.152921 0.751159 -0.02249
C_ C_ 0.932979 0.158072 0.753309 -0.02249
C_ C_ 0.73091 0.0360384 0.739626 -0.02249
C_ C_ 0.98386 0.0428929 0.759913 -0.02249
C_ C_ 0.698242 0.0856803 0.779905 -0.11473
C_ C_ 0.960812 0.103989 0.79477 -0.11473
C_ C_ 0.694982 0.142152 0.713458 -0.11473
C_ C_ 0.937994 0.134716 0.717073 -0.11473
C_ C_ 0.679127 0.121589 0.781618 -0.11473
C_ C_ 0.945342 0.142261 0.792181 -0.11473
C_ C_ 0.712577 0.075797 0.742517 -0.02249
C_ C_ 0.965972 0.080651 0.757509 -0.02249
C_ C_ 0.662201 0.190639 0.753828 0.6875
C_ C_ 0.911345 0.191793 0.753862 0.6875
C_ C_ 0.709044 0.103099 0.707728 -0.11473
C_ C_ 0.955515 0.0976621 0.719264 -0.11473
C_ C_ 0.569387 0.151834 0.746792 -0.02249
C_ C_ 0.814938 0.152344 0.749449 -0.02249
C_ C_ 0.517129 0.0378081 0.740468 -0.02249
C_ C_ 0.762262 0.0377917 0.74524 -0.02249
C_ C_ 0.542338 0.0984008 0.705125 -0.11473
C_ C_ 0.790281 0.098211 0.712017 -0.11473
C_ C_ 0.558914 0.130019 0.78277 -0.11473
C_ C_ 0.806581 0.133005 0.786823 -0.11473
C_ C_ 0.558128 0.135749 0.708476 -0.11473
C_ C_ 0.804795 0.13591 0.711563 -0.11473
C_ C_ 0.535319 0.0771876 0.741405 -0.02249
C_ C_ 0.778689 0.0797681 0.748683 -0.02249
C_ C_ 0.5892 0.190242 0.747962 0.6875
C_ C_ 0.834056 0.189144 0.749107 0.6875
C_ C_ 0.542914 0.0944132 0.780085 -0.11473
C_ C_ 0.788546 0.0969775 0.7884 -0.11473
C_ C_ 0.636508 0.292348 0.872839 0.17695
C_ C_ 0.893293 0.225846 0.877749 0.17695
C_ C_ 0.63864 0.219826 0.881316 0.17695
C_ C_ 0.848998 0.264205 0.877892 0.17695
C_ C_ 0.64161 0.223796 0.924944 -0.11473
C_ C_ 0.848277 0.262498 0.921833 -0.11473
C_ C_ 0.640998 0.262813 0.942847 0.23465
C_ C_ 0.872126 0.245449 0.944553 0.23465
C_ C_ 0.641632 0.297706 0.915804 -0.11473
C_ C_ 0.895344 0.226327 0.92131 -0.11473
C_ C_ 0.630789 0.21083 0.628726 0.17695
C_ C_ 0.866991 0.296614 0.629475 0.17695
C_ C_ 0.622963 0.283907 0.6215 0.17695
C_ C_ 0.872827 0.225025 0.621874 0.17695
C_ C_ 0.628405 0.281279 0.578254 -0.11473
C_ C_ 0.868977 0.226675 0.577808 -0.11473
C_ C_ 0.629361 0.242643 0.559132 0.23465
C_ C_ 0.86566 0.26586 0.559825 0.23465
C_ C_ 0.635485 0.207868 0.584392 -0.11473
C_ C_ 0.864289 0.300211 0.585236 -0.11473
C_ C_ 0.529288 0.501954 0.747557 0.05793
C_ C_ 0.784071 0.503588 0.750049 0.05793
C_ C_ 0.716934 -0.0026199999999999557 0.734937 0.05793
C_ C_ 0.969348 0.0031076 0.762471 0.05793
Br Br 0.572103 0.503257 0.745573 -0.17191
Br Br 0.827213 0.502206 0.751684 -0.17191
Br Br 0.678754 -0.0011900000000000244 0.709089 -0.17191
Br Br 0.925098 0.00212563 0.760749 -0.17191
N_ N_ 0.636112 0.253473 0.855035 -0.272
N_ N_ 0.872887 0.249249 0.856984 -0.272
N_ N_ 0.641849 0.267017 0.988241 -0.12501
N_ N_ 0.869025 0.239549 0.989571 -0.12501
N_ N_ 0.627845 0.250142 0.645715 -0.272
N_ N_ 0.869955 0.257243 0.646188 -0.272
N_ N_ 0.631447 0.237884 0.513781 -0.12501
N_ N_ 0.865233 0.269481 0.515097 -0.12501
O_ O_ 0.597188 0.300331 0.715947 -0.60745
O_ O_ 0.844941 0.294177 0.72056 -0.60745
O_ O_ 0.597416 0.295915 0.783141 -0.60745
O_ O_ 0.834624 0.287691 0.786277 -0.60745
O_ O_ 0.6609 0.295482 0.785942 -0.60745
O_ O_ 0.896668 0.301075 0.788738 -0.60745
O_ O_ 0.659602 0.297707 0.717024 -0.60745
O_ O_ 0.904181 0.290758 0.721989 -0.60745
O_ O_ 0.6562 0.205739 0.787742 -0.60745
O_ O_ 0.905828 0.214401 0.785984 -0.60745
O_ O_ 0.656089 0.211072 0.720708 -0.60745
O_ O_ 0.898587 0.202349 0.719399 -0.60745
O_ O_ 0.59615 0.209682 0.715094 -0.60745
O_ O_ 0.838908 0.210209 0.714968 -0.60745
O_ O_ 0.596131 0.205596 0.783115 -0.60745
O_ O_ 0.844864 0.20278 0.785167 -0.60745
Zn Zn 0.622916 0.750173 0.286459 0.9476
Zn Zn 0.876702 0.751914 0.281803 0.9476
Zn Zn 0.623101 0.754331 0.217272 0.9476
Zn Zn 0.876597 0.747381 0.210554 0.9476
H_ H_ 0.519283 0.90847 0.190238 0.10932
H_ H_ 0.772673 0.903811 0.179852 0.10932
H_ H_ 0.572246 0.864564 0.317341 0.10932
H_ H_ 0.822035 0.857789 0.312587 0.10932
H_ H_ 0.54911 0.845982 0.185403 0.10932
H_ H_ 0.793979 0.834064 0.185736 0.10932
H_ H_ 0.538275 0.920668 0.321015 0.10932
H_ H_ 0.793367 0.926699 0.309695 0.10932
H_ H_ 0.732118 0.903609 0.310298 0.10932
H_ H_ 0.975446 0.912597 0.311311 0.10932
H_ H_ 0.662295 0.877179 0.189576 0.10932
H_ H_ 0.929505 0.85738 0.180334 0.10932
H_ H_ 0.702043 0.841975 0.308341 0.10932
H_ H_ 0.956914 0.841021 0.31263 0.10932
H_ H_ 0.691359 0.937256 0.189302 0.10932
H_ H_ 0.95442 0.923223 0.180101 0.10932
H_ H_ 0.698653 0.568107 0.311332 0.10932
H_ H_ 0.980994 0.59705 0.312201 0.10932
H_ H_ 0.686395 0.644984 0.180565 0.10932
H_ H_ 0.911474 0.623544 0.191667 0.10932
H_ H_ 0.667335 0.630925 0.310701 0.10932
H_ H_ 0.957384 0.66464 0.303625 0.10932
H_ H_ 0.726884 0.59214 0.188002 0.10932
H_ H_ 0.941398 0.558664 0.191993 0.10932
H_ H_ 0.537947 0.574626 0.186515 0.10932
H_ H_ 0.795197 0.565022 0.183922 0.10932
H_ H_ 0.576712 0.636575 0.317973 0.10932
H_ H_ 0.802107 0.660071 0.30834 0.10932
H_ H_ 0.557949 0.64713 0.183238 0.10932
H_ H_ 0.827836 0.630099 0.184973 0.10932
H_ H_ 0.543607 0.575212 0.31971 0.10932
H_ H_ 0.774631 0.589205 0.313554 0.10932
H_ H_ 0.640003 0.686756 0.360005 0.10932
H_ H_ 0.924157 0.71876 0.352828 0.10932
H_ H_ 0.60805 0.810497 0.363923 0.10932
H_ H_ 0.839532 0.779523 0.358316 0.10932
H_ H_ 0.602963 0.804775 0.442359 0.10932
H_ H_ 0.840766 0.779464 0.436651 0.10932
H_ H_ 0.628983 0.677275 0.434436 0.10932
H_ H_ 0.928172 0.718636 0.432438 0.10932
H_ H_ 0.571587 0.783064 0.142623 0.10932
H_ H_ 0.877065 0.689059 0.132536 0.10932
H_ H_ 0.662508 0.738069 0.13676 0.10932
H_ H_ 0.871415 0.819889 0.144534 0.10932
H_ H_ 0.663309 0.750441 0.0596189 0.10932
H_ H_ 0.866858 0.824289 0.0660068 0.10932
H_ H_ 0.569425 0.783916 0.064317 0.10932
H_ H_ 0.876209 0.691512 0.0548518 0.10932
C_ C_ 0.561898 0.845894 0.253154 -0.02249
C_ C_ 0.816824 0.84544 0.246262 -0.02249
C_ C_ 0.511535 0.95908 0.256773 -0.02249
C_ C_ 0.766233 0.960472 0.240861 -0.02249
C_ C_ 0.531367 0.898489 0.217466 -0.11473
C_ C_ 0.783217 0.894921 0.208002 -0.11473
C_ C_ 0.558333 0.869245 0.289338 -0.11473
C_ C_ 0.81297 0.870264 0.282377 -0.11473
C_ C_ 0.545992 0.860444 0.216163 -0.11473
C_ C_ 0.798199 0.856313 0.211032 -0.11473
C_ C_ 0.52732 0.918891 0.255297 -0.02249
C_ C_ 0.782534 0.920009 0.242875 -0.02249
C_ C_ 0.581683 0.809283 0.253816 0.6875
C_ C_ 0.835184 0.805958 0.250125 0.6875
C_ C_ 0.536988 0.899478 0.292641 -0.11473
C_ C_ 0.797025 0.908664 0.28078 -0.11473
C_ C_ 0.677976 0.856385 0.250893 -0.02249
C_ C_ 0.9407 0.841578 0.245638 -0.02249
C_ C_ 0.734936 0.962784 0.248055 -0.02249
C_ C_ 0.985773 0.959516 0.243644 -0.02249
C_ C_ 0.718402 0.89838 0.281197 -0.11473
C_ C_ 0.966497 0.898978 0.282321 -0.11473
C_ C_ 0.678583 0.882071 0.214964 -0.11473
C_ C_ 0.942051 0.866113 0.208484 -0.11473
C_ C_ 0.697838 0.86618 0.285473 -0.11473
C_ C_ 0.955825 0.858602 0.281829 -0.11473
C_ C_ 0.716596 0.925288 0.246876 -0.02249
C_ C_ 0.968994 0.920348 0.244399 -0.02249
C_ C_ 0.66221 0.814791 0.250825 0.6875
C_ C_ 0.921269 0.80423 0.246227 0.6875
C_ C_ 0.695515 0.91724 0.214924 -0.11473
C_ C_ 0.956295 0.90413 0.207163 -0.11473
C_ C_ 0.67729 0.649586 0.247952 -0.02249
C_ C_ 0.934063 0.651078 0.24558 -0.02249
C_ C_ 0.732942 0.53899 0.249261 -0.02249
C_ C_ 0.983204 0.533441 0.24829 -0.02249
C_ C_ 0.701447 0.592504 0.286953 -0.11473
C_ C_ 0.969267 0.604023 0.282578 -0.11473
C_ C_ 0.694108 0.635027 0.211838 -0.11473
C_ C_ 0.929547 0.620355 0.214334 -0.11473
C_ C_ 0.682594 0.628525 0.286852 -0.11473
C_ C_ 0.954323 0.641833 0.279949 -0.11473
C_ C_ 0.717932 0.580595 0.251942 -0.02249
C_ C_ 0.965045 0.572843 0.252548 -0.02249
C_ C_ 0.660698 0.690204 0.248438 0.6875
C_ C_ 0.917006 0.690497 0.245198 0.6875
C_ C_ 0.714791 0.601561 0.215665 -0.11473
C_ C_ 0.944184 0.582177 0.218538 -0.11473
C_ C_ 0.570832 0.648095 0.248782 -0.02249
C_ C_ 0.816321 0.649135 0.245913 -0.02249
C_ C_ 0.520069 0.534669 0.257544 -0.02249
C_ C_ 0.764621 0.537204 0.251956 -0.02249
C_ C_ 0.545228 0.59067 0.214105 -0.11473
C_ C_ 0.794516 0.589145 0.20969 -0.11473
C_ C_ 0.567079 0.626589 0.287876 -0.11473
C_ C_ 0.80076 0.639801 0.282071 -0.11473
C_ C_ 0.559563 0.628913 0.211802 -0.11473
C_ C_ 0.812383 0.625525 0.210475 -0.11473
C_ C_ 0.538793 0.571776 0.253525 -0.02249
C_ C_ 0.782452 0.576584 0.249295 -0.02249
C_ C_ 0.58685 0.689592 0.248933 0.6875
C_ C_ 0.836216 0.687837 0.245124 0.6875
C_ C_ 0.548643 0.589985 0.290199 -0.11473
C_ C_ 0.784591 0.602246 0.284427 -0.11473
C_ C_ 0.627037 0.709683 0.376511 0.17695
C_ C_ 0.906058 0.732243 0.372939 0.17695
C_ C_ 0.612301 0.781141 0.381277 0.17695
C_ C_ 0.859254 0.766641 0.374661 0.17695
C_ C_ 0.605922 0.77595 0.423792 -0.11473
C_ C_ 0.860091 0.768699 0.420132 -0.11473
C_ C_ 0.609749 0.737195 0.443665 0.23465
C_ C_ 0.885341 0.751935 0.441279 0.23465
C_ C_ 0.62055 0.704099 0.420039 -0.11473
C_ C_ 0.908052 0.732057 0.41641 -0.11473
C_ C_ 0.59183 0.772833 0.12407 0.17695
C_ C_ 0.875821 0.71772 0.117572 0.17695
C_ C_ 0.642945 0.753129 0.121249 0.17695
C_ C_ 0.874108 0.792439 0.124508 0.17695
C_ C_ 0.643403 0.75829 0.0781315 -0.11473
C_ C_ 0.869905 0.795051 0.0801399 -0.11473
C_ C_ 0.615229 0.762678 0.0561784 0.23465
C_ C_ 0.87185 0.760344 0.0541104 0.23465
C_ C_ 0.590363 0.773875 0.0793031 -0.11473
C_ C_ 0.875264 0.720651 0.0732428 -0.11473
C_ C_ 0.528713 0.995611 0.258133 0.05793
C_ C_ 0.781915 0.997842 0.239544 0.05793
C_ C_ 0.717076 0.501933 0.243684 0.05793
C_ C_ 0.967902 0.494352 0.253851 0.05793
Br Br 0.571024 0.996128 0.250809 -0.17191
Br Br 0.824645 0.996785 0.227264 -0.17191
Br Br 0.674509 0.503425 0.230196 -0.17191
Br Br 0.926985 0.490231 0.277778 -0.17191
N_ N_ 0.621497 0.747894 0.359525 -0.272
N_ N_ 0.881565 0.749018 0.351703 -0.272
N_ N_ 0.6082 0.733052 0.487698 -0.12501
N_ N_ 0.885582 0.746334 0.485559 -0.12501
N_ N_ 0.617794 0.760845 0.144757 -0.272
N_ N_ 0.874789 0.754011 0.142051 -0.272
N_ N_ 0.614728 0.765316 0.0109392 -0.12501
N_ N_ 0.871673 0.764658 0.0109633 -0.12501
O_ O_ 0.59013 0.795795 0.21975 -0.60745
O_ O_ 0.844179 0.79179 0.217133 -0.60745
O_ O_ 0.590813 0.792478 0.287334 -0.60745
O_ O_ 0.846579 0.795321 0.285292 -0.60745
O_ O_ 0.652272 0.802209 0.284903 -0.60745
O_ O_ 0.912051 0.790593 0.281553 -0.60745
O_ O_ 0.653684 0.798485 0.217063 -0.60745
O_ O_ 0.907757 0.792597 0.211303 -0.60745
O_ O_ 0.657229 0.708732 0.283628 -0.60745
O_ O_ 0.906926 0.704371 0.279806 -0.60745
O_ O_ 0.651992 0.709032 0.213537 -0.60745
O_ O_ 0.910063 0.706699 0.209958 -0.60745
O_ O_ 0.59076 0.709219 0.215609 -0.60745
O_ O_ 0.84733 0.700356 0.209907 -0.60745
O_ O_ 0.596105 0.702997 0.283932 -0.60745
O_ O_ 0.842976 0.707537 0.27896 -0.60745
Zn Zn 0.619668 0.748736 0.784463 0.9476
Zn Zn 0.879323 0.754551 0.785435 0.9476
Zn Zn 0.623247 0.749853 0.713506 0.9476
Zn Zn 0.880096 0.75518 0.714576 0.9476
H_ H_ 0.528285 0.908465 0.676994 0.10932
H_ H_ 0.8013 0.933595 0.68522 0.10932
H_ H_ 0.563407 0.859007 0.819172 0.10932
H_ H_ 0.806468 0.84773 0.810903 0.10932
H_ H_ 0.551221 0.838057 0.683699 0.10932
H_ H_ 0.836611 0.8703 0.688482 0.10932
H_ H_ 0.54037 0.92754 0.810626 0.10932
H_ H_ 0.775065 0.90915 0.811074 0.10932
H_ H_ 0.699612 0.932028 0.802749 0.10932
H_ H_ 0.976672 0.91292 0.827781 0.10932
H_ H_ 0.701708 0.83515 0.682402 0.10932
H_ H_ 0.928689 0.865386 0.692838 0.10932
H_ H_ 0.665589 0.873847 0.803209 0.10932
H_ H_ 0.948114 0.849 0.827287 0.10932
H_ H_ 0.736276 0.893409 0.688203 0.10932
H_ H_ 0.962694 0.927186 0.693391 0.10932
H_ H_ 0.714384 0.583872 0.811965 0.10932
H_ H_ 0.972988 0.58748 0.812245 0.10932
H_ H_ 0.684626 0.649726 0.678464 0.10932
H_ H_ 0.92375 0.64102 0.682164 0.10932
H_ H_ 0.683726 0.648969 0.812172 0.10932
H_ H_ 0.948632 0.654697 0.812596 0.10932
H_ H_ 0.718728 0.594343 0.679858 0.10932
H_ H_ 0.962478 0.583819 0.677351 0.10932
H_ H_ 0.518934 0.594754 0.682818 0.10932
H_ H_ 0.800389 0.575475 0.685507 0.10932
H_ H_ 0.569892 0.637191 0.817036 0.10932
H_ H_ 0.805544 0.666653 0.809563 0.10932
H_ H_ 0.54938 0.659716 0.685001 0.10932
H_ H_ 0.835479 0.634603 0.685057 0.10932
H_ H_ 0.535919 0.578223 0.814227 0.10932
H_ H_ 0.77132 0.60487 0.808659 0.10932
H_ H_ 0.670923 0.734326 0.858201 0.10932
H_ H_ 0.883903 0.682155 0.855246 0.10932
H_ H_ 0.577446 0.760514 0.86228 0.10932
H_ H_ 0.878905 0.815269 0.867069 0.10932
H_ H_ 0.577616 0.756295 0.937683 0.10932
H_ H_ 0.878131 0.806978 0.944024 0.10932
H_ H_ 0.672868 0.730829 0.934895 0.10932
H_ H_ 0.894461 0.678653 0.930662 0.10932
H_ H_ 0.613637 0.689618 0.638645 0.10932
H_ H_ 0.878681 0.823496 0.646406 0.10932
H_ H_ 0.619012 0.818374 0.644737 0.10932
H_ H_ 0.872928 0.694588 0.62873 0.10932
H_ H_ 0.608753 0.824088 0.566812 0.10932
H_ H_ 0.884674 0.70247 0.55374 0.10932
H_ H_ 0.614796 0.692153 0.559115 0.10932
H_ H_ 0.878201 0.835605 0.570601 0.10932
C_ C_ 0.561223 0.844738 0.751247 -0.02249
C_ C_ 0.819438 0.850754 0.747794 -0.02249
C_ C_ 0.516907 0.962046 0.741209 -0.02249
C_ C_ 0.764285 0.961694 0.744758 -0.02249
C_ C_ 0.536397 0.897172 0.708295 -0.11473
C_ C_ 0.801945 0.913644 0.712661 -0.11473
C_ C_ 0.553168 0.867898 0.788521 -0.11473
C_ C_ 0.80416 0.864894 0.782857 -0.11473
C_ C_ 0.551645 0.857991 0.711537 -0.11473
C_ C_ 0.819268 0.876759 0.712522 -0.11473
C_ C_ 0.532111 0.923137 0.744211 -0.02249
C_ C_ 0.782913 0.923647 0.745866 -0.02249
C_ C_ 0.582195 0.806812 0.75231 0.6875
C_ C_ 0.83905 0.812852 0.749177 0.6875
C_ C_ 0.540875 0.908305 0.78373 -0.11473
C_ C_ 0.786446 0.90016 0.78319 -0.11473
C_ C_ 0.680039 0.848075 0.743608 -0.02249
C_ C_ 0.937317 0.852143 0.758515 -0.02249
C_ C_ 0.732376 0.959712 0.736539 -0.02249
C_ C_ 0.986482 0.966039 0.764123 -0.02249
C_ C_ 0.699041 0.912439 0.775047 -0.11473
C_ C_ 0.967206 0.902422 0.798349 -0.11473
C_ C_ 0.701555 0.853668 0.711122 -0.11473
C_ C_ 0.939997 0.876304 0.721839 -0.11473
C_ C_ 0.678219 0.879957 0.774346 -0.11473
C_ C_ 0.952179 0.864295 0.797478 -0.11473
C_ C_ 0.71615 0.920118 0.740422 -0.02249
C_ C_ 0.971067 0.925074 0.760657 -0.02249
C_ C_ 0.6603 0.813097 0.742725 0.6875
C_ C_ 0.91919 0.813982 0.758108 0.6875
C_ C_ 0.719095 0.889298 0.709742 -0.11473
C_ C_ 0.959418 0.909645 0.721806 -0.11473
C_ C_ 0.678264 0.650251 0.745921 -0.02249
C_ C_ 0.935835 0.655776 0.747002 -0.02249
C_ C_ 0.737153 0.544554 0.744712 -0.02249
C_ C_ 0.984273 0.537933 0.742539 -0.02249
C_ C_ 0.708392 0.598281 0.782333 -0.11473
C_ C_ 0.965606 0.603438 0.781736 -0.11473
C_ C_ 0.691015 0.636575 0.708368 -0.11473
C_ C_ 0.939278 0.63345 0.708414 -0.11473
C_ C_ 0.690586 0.635228 0.782906 -0.11473
C_ C_ 0.950015 0.64038 0.783438 -0.11473
C_ C_ 0.720193 0.584774 0.744687 -0.02249
C_ C_ 0.967664 0.579624 0.743524 -0.02249
C_ C_ 0.659169 0.686865 0.744371 0.6875
C_ C_ 0.91608 0.692284 0.748549 0.6875
C_ C_ 0.709129 0.601063 0.70832 -0.11473
C_ C_ 0.957398 0.599112 0.706833 -0.11473
C_ C_ 0.562338 0.654242 0.750235 -0.02249
C_ C_ 0.82294 0.655692 0.747697 -0.02249
C_ C_ 0.512897 0.539684 0.744544 -0.02249
C_ C_ 0.769956 0.542875 0.74504 -0.02249
C_ C_ 0.528865 0.605769 0.71112 -0.11473
C_ C_ 0.802554 0.595966 0.712941 -0.11473
C_ C_ 0.558474 0.629515 0.787274 -0.11473
C_ C_ 0.804739 0.645639 0.783123 -0.11473
C_ C_ 0.545881 0.643908 0.71485 -0.11473
C_ C_ 0.8228 0.630032 0.713381 -0.11473
C_ C_ 0.529211 0.580062 0.747323 -0.02249
C_ C_ 0.787634 0.581665 0.748656 -0.02249
C_ C_ 0.583632 0.690082 0.751213 0.6875
C_ C_ 0.841979 0.694886 0.747529 0.6875
C_ C_ 0.541304 0.594657 0.786036 -0.11473
C_ C_ 0.787423 0.609342 0.783397 -0.11473
C_ C_ 0.651019 0.742048 0.875633 0.17695
C_ C_ 0.881724 0.710991 0.874104 0.17695
C_ C_ 0.598838 0.756794 0.877956 0.17695
C_ C_ 0.877776 0.783804 0.881389 0.17695
C_ C_ 0.599475 0.752814 0.921682 -0.11473
C_ C_ 0.877856 0.780283 0.924618 -0.11473
C_ C_ 0.6265 0.745968 0.945032 0.23465
C_ C_ 0.8808 0.740716 0.943365 0.23465
C_ C_ 0.652699 0.740244 0.920556 -0.11473
C_ C_ 0.887112 0.707236 0.917727 -0.11473
C_ C_ 0.612053 0.718832 0.621417 0.17695
C_ C_ 0.880536 0.796666 0.625761 0.17695
C_ C_ 0.615925 0.791368 0.625019 0.17695
C_ C_ 0.878552 0.725667 0.61524 0.17695
C_ C_ 0.610497 0.793873 0.581156 -0.11473
C_ C_ 0.88133 0.729279 0.572985 -0.11473
C_ C_ 0.609092 0.757875 0.557007 0.23465
C_ C_ 0.881449 0.770215 0.555914 0.23465
C_ C_ 0.609362 0.719358 0.577305 -0.11473
C_ C_ 0.881777 0.803973 0.581948 -0.11473
C_ C_ 0.533308 -0.00088692 0.738219 0.05793
C_ C_ 0.777831 0.000869554 0.754829 0.05793
C_ C_ 0.720102 0.508536 0.742251 0.05793
C_ C_ 0.968187 0.500105 0.740327 0.05793
Br Br 0.576499 -0.002905999999999964 0.743719 -0.17191
Br Br 0.822059 1.00685291 0.754359 -0.17191
Br Br 0.677185 0.508798 0.744571 -0.17191
Br Br 0.926714 0.499609 0.716691 -0.17191
N_ N_ 0.623858 0.746201 0.854975 -0.272
N_ N_ 0.878815 0.749068 0.856113 -0.272
N_ N_ 0.626815 0.738597 0.988785 -0.12501
N_ N_ 0.885187 0.739146 0.987429 -0.12501
N_ N_ 0.614899 0.753745 0.644067 -0.272
N_ N_ 0.881157 0.758183 0.641662 -0.272
N_ N_ 0.605985 0.763821 0.512145 -0.12501
N_ N_ 0.882498 0.776105 0.511484 -0.12501
O_ O_ 0.595478 0.794913 0.720259 -0.60745
O_ O_ 0.848325 0.796758 0.714775 -0.60745
O_ O_ 0.58612 0.787007 0.786843 -0.60745
O_ O_ 0.851589 0.802066 0.784688 -0.60745
O_ O_ 0.650331 0.797422 0.777529 -0.60745
O_ O_ 0.913573 0.793238 0.789969 -0.60745
O_ O_ 0.655039 0.793267 0.709352 -0.60745
O_ O_ 0.908099 0.801951 0.723699 -0.60745
O_ O_ 0.653391 0.706702 0.777626 -0.60745
O_ O_ 0.904158 0.704074 0.782307 -0.60745
O_ O_ 0.648307 0.700042 0.709369 -0.60745
O_ O_ 0.911786 0.714105 0.715611 -0.60745
O_ O_ 0.588442 0.710489 0.718704 -0.60745
O_ O_ 0.850603 0.709 0.712348 -0.60745
O_ O_ 0.592164 0.703083 0.786779 -0.60745
O_ O_ 0.844337 0.716884 0.778649 -0.60745
_cell_length_a 44.444
_cell_length_b 32.3360000049186
_cell_length_c 31.843999878906452
_cell_angle_alpha 89.99799923859553
_cell_angle_beta 91.13600050494348
_cell_angle_gamma 89.9990006550086
_symmetry_space_group_name_H-M         'P 1'
_symmetry_Int_Tables_number            1
loop_
_symmetry_equiv_pos_as_xyz
   'x, y, z'
                         
loop_
_atom_site_label
_atom_site_type_symbol
_atom_site_fract_x 
_atom_site_fract_y
_atom_site_fract_z
_atom_site_charge
Zn Zn 0.12324 0.248028 0.286313 0.9476
Zn Zn 0.379131 0.246405 0.289239 0.9476
Zn Zn 0.125557 0.2486 0.218331 0.9476
Zn Zn 0.377887 0.247489 0.224154 0.9476
H_ H_ 0.0226086 0.402109 0.186039 0.10932
H_ H_ 0.290821 0.41539 0.181306 0.10932
H_ H_ 0.0730277 0.358435 0.318931 0.10932
H_ H_ 0.316107 0.348251 0.316857 0.10932
H_ H_ 0.0544866 0.342382 0.185769 0.10932
H_ H_ 0.321794 0.353701 0.182969 0.10932
H_ H_ 0.0470397 0.427086 0.313024 0.10932
H_ H_ 0.284853 0.410947 0.318135 0.10932
H_ H_ 0.209146 0.427831 0.324028 0.10932
H_ H_ 0.459354 0.42833 0.312974 0.10932
H_ H_ 0.197937 0.336232 0.198637 0.10932
H_ H_ 0.448248 0.337062 0.191679 0.10932
H_ H_ 0.178111 0.361699 0.323418 0.10932
H_ H_ 0.438525 0.355742 0.320733 0.10932
H_ H_ 0.225691 0.403278 0.191147 0.10932
H_ H_ 0.468696 0.406655 0.181422 0.10932
H_ H_ 0.207962 0.0735166 0.318732 0.10932
H_ H_ 0.463317 0.0700825 0.324832 0.10932
H_ H_ 0.186465 0.14621 0.186415 0.10932
H_ H_ 0.455476 0.163187 0.202941 0.10932
H_ H_ 0.185918 0.144761 0.318644 0.10932
H_ H_ 0.432499 0.138909 0.331493 0.10932
H_ H_ 0.22375 0.088281 0.189662 0.10932
H_ H_ 0.474539 0.0952102 0.19408 0.10932
H_ H_ 0.0335085 0.0842542 0.17068 0.10932
H_ H_ 0.29119 0.0688166 0.19055 0.10932
H_ H_ 0.0715437 0.131557 0.310427 0.10932
H_ H_ 0.307106 0.154931 0.314651 0.10932
H_ H_ 0.0587541 0.15589 0.17889 0.10932
H_ H_ 0.326736 0.128899 0.189185 0.10932
H_ H_ 0.0428745 0.0684455 0.303703 0.10932
H_ H_ 0.280174 0.0882831 0.322785 0.10932
H_ H_ 0.131938 0.310742 0.363031 0.10932
H_ H_ 0.376381 0.313118 0.374253 0.10932
H_ H_ 0.113482 0.178648 0.364075 0.10932
H_ H_ 0.37201 0.180346 0.358009 0.10932
H_ H_ 0.11473 0.181415 0.441775 0.10932
H_ H_ 0.37602 0.176089 0.439123 0.10932
H_ H_ 0.134676 0.309503 0.435091 0.10932
H_ H_ 0.372241 0.306696 0.446856 0.10932
H_ H_ 0.122518 0.314772 0.13804 0.10932
H_ H_ 0.427643 0.233792 0.151013 0.10932
H_ H_ 0.132246 0.187587 0.147838 0.10932
H_ H_ 0.333874 0.256903 0.148166 0.10932
H_ H_ 0.127224 0.179326 0.0666708 0.10932
H_ H_ 0.334414 0.256886 0.069101 0.10932
H_ H_ 0.119552 0.312563 0.0604969 0.10932
H_ H_ 0.428755 0.220562 0.0761743 0.10932
C_ C_ 0.0681309 0.348044 0.252993 -0.02249
C_ C_ 0.321462 0.346915 0.251315 -0.02249
C_ C_ 0.0149919 0.458063 0.248903 -0.02249
C_ C_ 0.268364 0.458028 0.252518 -0.02249
C_ C_ 0.0382894 0.398315 0.211484 -0.11473
C_ C_ 0.295256 0.400128 0.21104 -0.11473
C_ C_ 0.06311 0.369375 0.289453 -0.11473
C_ C_ 0.310636 0.364601 0.288044 -0.11473
C_ C_ 0.0539538 0.360075 0.213783 -0.11473
C_ C_ 0.313493 0.365753 0.21158 -0.11473
C_ C_ 0.0328314 0.419013 0.248821 -0.02249
C_ C_ 0.282974 0.416487 0.250477 -0.02249
C_ C_ 0.0852865 0.310724 0.253507 0.6875
C_ C_ 0.340485 0.309751 0.25103 0.6875
C_ C_ 0.0479209 0.407087 0.286816 -0.11473
C_ C_ 0.289319 0.397325 0.28793 -0.11473
C_ C_ 0.182641 0.349565 0.258829 -0.02249
C_ C_ 0.437704 0.346705 0.254639 -0.02249
C_ C_ 0.23658 0.457824 0.251768 -0.02249
C_ C_ 0.486467 0.461053 0.24596 -0.02249
C_ C_ 0.204026 0.409465 0.294852 -0.11473
C_ C_ 0.458788 0.407868 0.287556 -0.11473
C_ C_ 0.198845 0.358032 0.22249 -0.11473
C_ C_ 0.448274 0.360025 0.215541 -0.11473
C_ C_ 0.189927 0.370252 0.295854 -0.11473
C_ C_ 0.443688 0.369814 0.290349 -0.11473
C_ C_ 0.219002 0.420098 0.256258 -0.02249
C_ C_ 0.466579 0.422921 0.24812 -0.02249
C_ C_ 0.160574 0.314243 0.257409 0.6875
C_ C_ 0.420702 0.305779 0.255427 0.6875
C_ C_ 0.216301 0.394041 0.220786 -0.11473
C_ C_ 0.460415 0.39877 0.213041 -0.11473
C_ C_ 0.183304 0.151422 0.252416 -0.02249
C_ C_ 0.440882 0.153513 0.264822 -0.02249
C_ C_ 0.233294 0.0350801 0.253755 -0.02249
C_ C_ 0.482453 0.0359561 0.251894 -0.02249
C_ C_ 0.205287 0.0918694 0.290483 -0.11473
C_ C_ 0.459214 0.090886 0.298088 -0.11473
C_ C_ 0.193533 0.132518 0.215418 -0.11473
C_ C_ 0.454831 0.141524 0.227122 -0.11473
C_ C_ 0.189041 0.12944 0.289918 -0.11473
C_ C_ 0.443984 0.128865 0.301235 -0.11473
C_ C_ 0.216552 0.0759809 0.253615 -0.02249
C_ C_ 0.466687 0.0768066 0.257652 -0.02249
C_ C_ 0.165597 0.191109 0.25168 0.6875
C_ C_ 0.417641 0.187388 0.265725 0.6875
C_ C_ 0.211242 0.0966682 0.216682 -0.11473
C_ C_ 0.46478 0.102333 0.223311 -0.11473
C_ C_ 0.0689301 0.146493 0.245407 -0.02249
C_ C_ 0.31752 0.148513 0.250554 -0.02249
C_ C_ 0.0154776 0.0351607 0.232989 -0.02249
C_ C_ 0.264956 0.0352212 0.256725 -0.02249
C_ C_ 0.0385922 0.0979791 0.202165 -0.11473
C_ C_ 0.296218 0.0872203 0.217162 -0.11473
C_ C_ 0.0626686 0.122148 0.279767 -0.11473
C_ C_ 0.303151 0.136186 0.287936 -0.11473
C_ C_ 0.0559787 0.13563 0.20622 -0.11473
C_ C_ 0.314427 0.121972 0.216663 -0.11473
C_ C_ 0.0328895 0.0735316 0.237968 -0.02249
C_ C_ 0.282549 0.0756903 0.25535 -0.02249
C_ C_ 0.0860994 0.186808 0.247373 0.6875
C_ C_ 0.339755 0.184765 0.251012 0.6875
C_ C_ 0.0453772 0.0855194 0.276441 -0.11473
C_ C_ 0.2883 0.0972828 0.292695 -0.11473
C_ C_ 0.125606 0.28179 0.378388 0.17695
C_ C_ 0.376353 0.28177 0.384521 0.17695
C_ C_ 0.118295 0.208316 0.379267 0.17695
C_ C_ 0.373454 0.209912 0.378241 0.17695
C_ C_ 0.122418 0.208133 0.423992 -0.11473
C_ C_ 0.372939 0.206172 0.423635 -0.11473
C_ C_ 0.124528 0.245619 0.446205 0.23465
C_ C_ 0.368175 0.240685 0.448866 0.23465
C_ C_ 0.126758 0.28137 0.421825 -0.11473
C_ C_ 0.370697 0.27935 0.428761 -0.11473
C_ C_ 0.121609 0.285564 0.122695 0.17695
C_ C_ 0.406763 0.232992 0.133801 0.17695
C_ C_ 0.127922 0.213096 0.127147 0.17695
C_ C_ 0.35494 0.249928 0.131183 0.17695
C_ C_ 0.12552 0.208718 0.0829532 -0.11473
C_ C_ 0.35503 0.252508 0.0874049 -0.11473
C_ C_ 0.123006 0.244337 0.0587394 0.23465
C_ C_ 0.381508 0.242569 0.0649633 0.23465
C_ C_ 0.122625 0.282921 0.0784887 -0.11473
C_ C_ 0.408637 0.234771 0.0899846 -0.11473
C_ C_ 0.0300715 0.49776 0.241142 0.05793
C_ C_ 0.284168 0.494998 0.247536 0.05793
C_ C_ 0.217946 -0.0029959999999999987 0.249536 0.05793
C_ C_ 0.465575 0.998811 0.250117 0.05793
Br Br 0.0709312 0.500098 0.222899 -0.17191
Br Br 0.328084 0.497945 0.244329 -0.17191
Br Br 0.175847 -0.0048559999999999715 0.265683 -0.17191
Br Br 0.421164 1.00135 0.247266 -0.17191
N_ N_ 0.12349 0.244825 0.357793 -0.272
N_ N_ 0.375822 0.247739 0.359632 -0.272
N_ N_ 0.11735 0.251602 0.489222 -0.12501
N_ N_ 0.366171 0.235372 0.494397 -0.12501
N_ N_ 0.123382 0.250224 0.145436 -0.272
N_ N_ 0.380709 0.242388 0.153107 -0.272
N_ N_ 0.119095 0.236452 0.0136016 -0.12501
N_ N_ 0.380851 0.232517 0.0195331 -0.12501
O_ O_ 0.0972857 0.296536 0.220052 -0.60745
O_ O_ 0.34568 0.291529 0.216248 -0.60745
O_ O_ 0.0897605 0.29202 0.288106 -0.60745
O_ O_ 0.350448 0.295191 0.285668 -0.60745
O_ O_ 0.149332 0.301324 0.2915 -0.60745
O_ O_ 0.413884 0.288827 0.290381 -0.60745
O_ O_ 0.154335 0.294293 0.223304 -0.60745
O_ O_ 0.40993 0.290729 0.222977 -0.60745
O_ O_ 0.157493 0.207768 0.28615 -0.60745
O_ O_ 0.408226 0.202541 0.298469 -0.60745
O_ O_ 0.156273 0.207579 0.217993 -0.60745
O_ O_ 0.409711 0.204839 0.231001 -0.60745
O_ O_ 0.0946668 0.204112 0.21289 -0.60745
O_ O_ 0.349399 0.198464 0.216297 -0.60745
O_ O_ 0.0961771 0.197691 0.282588 -0.60745
O_ O_ 0.344439 0.204836 0.284924 -0.60745
Zn Zn 0.125233 0.251559 0.783 0.9476
Zn Zn 0.373928 0.248269 0.792164 0.9476
Zn Zn 0.126605 0.251658 0.714819 0.9476
Zn Zn 0.375093 0.252451 0.721443 0.9476
H_ H_ 0.0511366 0.433221 0.686659 0.10932
H_ H_ 0.267677 0.400009 0.695087 0.10932
H_ H_ 0.0449034 0.337329 0.807037 0.10932
H_ H_ 0.328602 0.373842 0.821571 0.10932
H_ H_ 0.0685291 0.361776 0.678757 0.10932
H_ H_ 0.295298 0.335531 0.697945 0.10932
H_ H_ 0.021319 0.405379 0.815177 0.10932
H_ H_ 0.303774 0.439425 0.810468 0.10932
H_ H_ 0.230877 0.410989 0.813817 0.10932
H_ H_ 0.455818 0.427073 0.822026 0.10932
H_ H_ 0.183924 0.355028 0.683176 0.10932
H_ H_ 0.448015 0.342647 0.690463 0.10932
H_ H_ 0.202085 0.346237 0.812787 0.10932
H_ H_ 0.430565 0.357618 0.82237 0.10932
H_ H_ 0.211446 0.422353 0.682867 0.10932
H_ H_ 0.470986 0.41195 0.69317 0.10932
H_ H_ 0.224908 0.0887778 0.818325 0.10932
H_ H_ 0.453149 0.0676149 0.811649 0.10932
H_ H_ 0.184713 0.148178 0.679793 0.10932
H_ H_ 0.43973 0.157234 0.689739 0.10932
H_ H_ 0.181845 0.145838 0.818079 0.10932
H_ H_ 0.426296 0.132696 0.820435 0.10932
H_ H_ 0.211282 0.0845907 0.681793 0.10932
H_ H_ 0.472911 0.0964489 0.687417 0.10932
H_ H_ 0.027084 0.0897203 0.686096 0.10932
H_ H_ 0.295426 0.0728796 0.685252 0.10932
H_ H_ 0.0727929 0.149473 0.818378 0.10932
H_ H_ 0.303573 0.150161 0.817889 0.10932
H_ H_ 0.062019 0.147739 0.684733 0.10932
H_ H_ 0.322461 0.141078 0.685138 0.10932
H_ H_ 0.0324041 0.0919243 0.819232 0.10932
H_ H_ 0.275917 0.0881761 0.815348 0.10932
H_ H_ 0.124406 0.320103 0.854584 0.10932
H_ H_ 0.36782 0.315928 0.864302 0.10932
H_ H_ 0.123922 0.189739 0.860726 0.10932
H_ H_ 0.391177 0.190967 0.869617 0.10932
H_ H_ 0.124468 0.188928 0.937717 0.10932
H_ H_ 0.379803 0.189898 0.949288 0.10932
H_ H_ 0.126111 0.32359 0.934851 0.10932
H_ H_ 0.360899 0.317647 0.941206 0.10932
H_ H_ 0.127657 0.314196 0.637179 0.10932
H_ H_ 0.376882 0.189226 0.645739 0.10932
H_ H_ 0.117883 0.182617 0.652775 0.10932
H_ H_ 0.362886 0.317224 0.650669 0.10932
H_ H_ 0.125531 0.173945 0.573561 0.10932
H_ H_ 0.360091 0.32535 0.57595 0.10932
H_ H_ 0.124696 0.304992 0.559869 0.10932
H_ H_ 0.376721 0.191834 0.56965 0.10932
C_ C_ 0.0679622 0.35021 0.747639 -0.02249
C_ C_ 0.313846 0.34825 0.761137 -0.02249
C_ C_ 0.0147381 0.46099 0.751208 -0.02249
C_ C_ 0.265504 0.462989 0.74764 -0.02249
C_ C_ 0.049797 0.412596 0.71235 -0.11473
C_ C_ 0.280419 0.394765 0.721419 -0.11473
C_ C_ 0.0496812 0.360418 0.783108 -0.11473
C_ C_ 0.312813 0.376638 0.795196 -0.11473
C_ C_ 0.0665727 0.375307 0.710919 -0.11473
C_ C_ 0.297121 0.357653 0.725555 -0.11473
C_ C_ 0.0315485 0.421025 0.748235 -0.02249
C_ C_ 0.281862 0.423473 0.753779 -0.02249
C_ C_ 0.0861235 0.311614 0.746923 0.6875
C_ C_ 0.334315 0.312054 0.760208 0.6875
C_ C_ 0.0341565 0.397776 0.78496 -0.11473
C_ C_ 0.298708 0.414321 0.790678 -0.11473
C_ C_ 0.187793 0.347686 0.749467 -0.02249
C_ C_ 0.433985 0.34619 0.756861 -0.02249
C_ C_ 0.233463 0.466028 0.751894 -0.02249
C_ C_ 0.483134 0.462356 0.757259 -0.02249
C_ C_ 0.216962 0.401611 0.787932 -0.11473
C_ C_ 0.453905 0.407446 0.792755 -0.11473
C_ C_ 0.190094 0.369991 0.712226 -0.11473
C_ C_ 0.448528 0.360766 0.720766 -0.11473
C_ C_ 0.200643 0.364796 0.787096 -0.11473
C_ C_ 0.439921 0.367685 0.794606 -0.11473
C_ C_ 0.215991 0.425768 0.750712 -0.02249
C_ C_ 0.466916 0.422651 0.756945 -0.02249
C_ C_ 0.168727 0.309615 0.749684 0.6875
C_ C_ 0.415187 0.308426 0.756588 0.6875
C_ C_ 0.206681 0.407404 0.711064 -0.11473
C_ C_ 0.461773 0.40104 0.720331 -0.11473
C_ C_ 0.181944 0.153651 0.749628 -0.02249
C_ C_ 0.432568 0.151668 0.755607 -0.02249
C_ C_ 0.232745 0.0383888 0.75138 -0.02249
C_ C_ 0.486285 0.040191 0.744903 -0.02249
C_ C_ 0.21512 0.103233 0.788467 -0.11473
C_ C_ 0.454912 0.0904505 0.788236 -0.11473
C_ C_ 0.190732 0.134543 0.710912 -0.11473
C_ C_ 0.44455 0.1398 0.7169 -0.11473
C_ C_ 0.193868 0.136038 0.788721 -0.11473
C_ C_ 0.437627 0.127217 0.790576 -0.11473
C_ C_ 0.217375 0.0791881 0.751923 -0.02249
C_ C_ 0.468143 0.0800072 0.749031 -0.02249
C_ C_ 0.164282 0.191842 0.749312 0.6875
C_ C_ 0.412135 0.189456 0.758357 0.6875
C_ C_ 0.209995 0.100337 0.712564 -0.11473
C_ C_ 0.462304 0.103394 0.714654 -0.11473
C_ C_ 0.067487 0.156385 0.75126 -0.02249
C_ C_ 0.318863 0.146846 0.753529 -0.02249
C_ C_ 0.0155225 0.0445422 0.754741 -0.02249
C_ C_ 0.264491 0.0378461 0.75164 -0.02249
C_ C_ 0.0390286 0.101511 0.714516 -0.11473
C_ C_ 0.295559 0.0920477 0.712639 -0.11473
C_ C_ 0.0608367 0.137711 0.789315 -0.11473
C_ C_ 0.302125 0.134011 0.787875 -0.11473
C_ C_ 0.0550405 0.138628 0.714595 -0.11473
C_ C_ 0.313926 0.127602 0.715413 -0.11473
C_ C_ 0.0319051 0.0852985 0.752811 -0.02249
C_ C_ 0.282039 0.0756044 0.750479 -0.02249
C_ C_ 0.0855046 0.195839 0.749944 0.6875
C_ C_ 0.335316 0.187632 0.754661 0.6875
C_ C_ 0.0441402 0.101596 0.790433 -0.11473
C_ C_ 0.283879 0.0988894 0.786653 -0.11473
C_ C_ 0.122573 0.291516 0.874232 0.17695
C_ C_ 0.369175 0.287511 0.882007 0.17695
C_ C_ 0.12594 0.218164 0.877144 0.17695
C_ C_ 0.383778 0.217942 0.885288 0.17695
C_ C_ 0.126209 0.218204 0.921816 -0.11473
C_ C_ 0.381498 0.218324 0.929518 -0.11473
C_ C_ 0.123517 0.25798 0.942606 0.23465
C_ C_ 0.373771 0.254825 0.950463 0.23465
C_ C_ 0.122139 0.294184 0.918191 -0.11473
C_ C_ 0.3664 0.28924 0.926343 -0.11473
C_ C_ 0.123447 0.282772 0.622872 0.17695
C_ C_ 0.372939 0.218376 0.629989 0.17695
C_ C_ 0.12284 0.208713 0.631498 0.17695
C_ C_ 0.369155 0.29276 0.631899 0.17695
C_ C_ 0.1243 0.205411 0.58798 -0.11473
C_ C_ 0.361733 0.294355 0.589137 -0.11473
C_ C_ 0.124651 0.239161 0.560043 0.23465
C_ C_ 0.364041 0.258307 0.563934 0.23465
C_ C_ 0.123776 0.278473 0.579256 -0.11473
C_ C_ 0.372023 0.219453 0.585675 -0.11473
C_ C_ 0.0308806 0.498901 0.754065 0.05793
C_ C_ 0.280442 0.500774 0.73922 0.05793
C_ C_ 0.216236 0.000763557 0.747339 0.05793
C_ C_ 0.469563 1.00264835 0.742107 0.05793
Br Br 0.0736419 0.498763 0.772604 -0.17191
Br Br 0.324672 0.497396 0.731754 -0.17191
Br Br 0.173117 0.00279469 0.735164 -0.17191
Br Br 0.426947 1.00292806 0.746458 -0.17191
N_ N_ 0.124788 0.254825 0.854008 -0.272
N_ N_ 0.376507 0.252018 0.862366 -0.272
N_ N_ 0.130266 0.26057 0.986889 -0.12501
N_ N_ 0.370049 0.258437 0.994237 -0.12501
N_ N_ 0.123965 0.24845 0.647997 -0.272
N_ N_ 0.37281 0.254893 0.650515 -0.272
N_ N_ 0.130505 0.232183 0.518021 -0.12501
N_ N_ 0.368928 0.26461 0.51994 -0.12501
O_ O_ 0.0988131 0.299866 0.713379 -0.60745
O_ O_ 0.342759 0.297324 0.725801 -0.60745
O_ O_ 0.0921409 0.294354 0.779119 -0.60745
O_ O_ 0.341953 0.294024 0.794624 -0.60745
O_ O_ 0.155664 0.296756 0.78186 -0.60745
O_ O_ 0.406199 0.291758 0.790077 -0.60745
O_ O_ 0.161362 0.294245 0.714801 -0.60745
O_ O_ 0.407039 0.292416 0.721406 -0.60745
O_ O_ 0.15846 0.210155 0.783016 -0.60745
O_ O_ 0.405013 0.205263 0.793097 -0.60745
O_ O_ 0.153738 0.205336 0.714669 -0.60745
O_ O_ 0.405586 0.208033 0.723932 -0.60745
O_ O_ 0.089455 0.215665 0.715816 -0.60745
O_ O_ 0.34159 0.208811 0.72272 -0.60745
O_ O_ 0.097235 0.208181 0.784318 -0.60745
O_ O_ 0.341897 0.204066 0.79082 -0.60745
Zn Zn 0.122955 0.746088 0.282886 0.9476
Zn Zn 0.376865 0.743454 0.283203 0.9476
Zn Zn 0.1249 0.741669 0.211693 0.9476
Zn Zn 0.376196 0.748656 0.213485 0.9476
H_ H_ 0.0265257 0.901891 0.176647 0.10932
H_ H_ 0.286458 0.919986 0.179632 0.10932
H_ H_ 0.0861122 0.873158 0.307838 0.10932
H_ H_ 0.312232 0.845611 0.313853 0.10932
H_ H_ 0.0573074 0.837659 0.186227 0.10932
H_ H_ 0.317868 0.85827 0.179394 0.10932
H_ H_ 0.0507482 0.934393 0.299078 0.10932
H_ H_ 0.277138 0.906147 0.314406 0.10932
H_ H_ 0.218078 0.911809 0.314857 0.10932
H_ H_ 0.460991 0.913309 0.321908 0.10932
H_ H_ 0.186135 0.844833 0.183059 0.10932
H_ H_ 0.428599 0.856542 0.183958 0.10932
H_ H_ 0.188709 0.846213 0.316968 0.10932
H_ H_ 0.440079 0.842395 0.318527 0.10932
H_ H_ 0.212781 0.913474 0.182023 0.10932
H_ H_ 0.461762 0.918293 0.187166 0.10932
H_ H_ 0.211305 0.573423 0.318906 0.10932
H_ H_ 0.471845 0.57643 0.312644 0.10932
H_ H_ 0.197889 0.649419 0.184418 0.10932
H_ H_ 0.434169 0.643709 0.179141 0.10932
H_ H_ 0.178131 0.638386 0.315273 0.10932
H_ H_ 0.437073 0.639919 0.318322 0.10932
H_ H_ 0.219426 0.582632 0.183876 0.10932
H_ H_ 0.471096 0.586635 0.178199 0.10932
H_ H_ 0.0120318 0.595429 0.183522 0.10932
H_ H_ 0.280431 0.585072 0.182768 0.10932
H_ H_ 0.0837129 0.626355 0.300011 0.10932
H_ H_ 0.325531 0.634525 0.315337 0.10932
H_ H_ 0.036455 0.664482 0.186468 0.10932
H_ H_ 0.307385 0.649081 0.181262 0.10932
H_ H_ 0.0549543 0.565033 0.301154 0.10932
H_ H_ 0.293824 0.571741 0.315146 0.10932
H_ H_ 0.126081 0.810916 0.365489 0.10932
H_ H_ 0.387777 0.68449 0.366291 0.10932
H_ H_ 0.129446 0.680462 0.354773 0.10932
H_ H_ 0.367487 0.812021 0.355953 0.10932
H_ H_ 0.124592 0.671849 0.429098 0.10932
H_ H_ 0.370023 0.821759 0.429155 0.10932
H_ H_ 0.125585 0.806443 0.443139 0.10932
H_ H_ 0.386007 0.692628 0.445934 0.10932
H_ H_ 0.167533 0.754339 0.136864 0.10932
H_ H_ 0.372142 0.692661 0.133759 0.10932
H_ H_ 0.0713255 0.757088 0.14023 0.10932
H_ H_ 0.375844 0.820622 0.146291 0.10932
H_ H_ 0.0703173 0.777979 0.0648032 0.10932
H_ H_ 0.379103 0.832315 0.0712169 0.10932
H_ H_ 0.163797 0.764725 0.0578692 0.10932
H_ H_ 0.369425 0.697926 0.0551258 0.10932
C_ C_ 0.0740867 0.851553 0.246469 -0.02249
C_ C_ 0.318555 0.848476 0.246938 -0.02249
C_ C_ 0.0181873 0.960765 0.237876 -0.02249
C_ C_ 0.265419 0.958046 0.248861 -0.02249
C_ C_ 0.0389409 0.894437 0.206286 -0.11473
C_ C_ 0.294035 0.906302 0.210102 -0.11473
C_ C_ 0.0720379 0.878937 0.280309 -0.11473
C_ C_ 0.306089 0.862539 0.285464 -0.11473
C_ C_ 0.0602885 0.861416 0.208706 -0.11473
C_ C_ 0.311583 0.871133 0.209326 -0.11473
C_ C_ 0.0374073 0.921376 0.23974 -0.02249
C_ C_ 0.281709 0.918448 0.247861 -0.02249
C_ C_ 0.0929023 0.813678 0.249942 0.6875
C_ C_ 0.340203 0.812141 0.244638 0.6875
C_ C_ 0.0541095 0.913645 0.275458 -0.11473
C_ C_ 0.288567 0.897691 0.285334 -0.11473
C_ C_ 0.186783 0.839217 0.248348 -0.02249
C_ C_ 0.431733 0.845844 0.252164 -0.02249
C_ C_ 0.233581 0.957985 0.249981 -0.02249
C_ C_ 0.47994 0.960599 0.254578 -0.02249
C_ C_ 0.212502 0.895837 0.285841 -0.11473
C_ C_ 0.457365 0.898282 0.292235 -0.11473
C_ C_ 0.195824 0.857844 0.211047 -0.11473
C_ C_ 0.438715 0.866644 0.213903 -0.11473
C_ C_ 0.195427 0.858187 0.286367 -0.11473
C_ C_ 0.441471 0.861431 0.291376 -0.11473
C_ C_ 0.217548 0.916888 0.247952 -0.02249
C_ C_ 0.462454 0.920594 0.254385 -0.02249
C_ C_ 0.165535 0.802511 0.247605 0.6875
C_ C_ 0.416528 0.80539 0.248769 0.6875
C_ C_ 0.207762 0.89801 0.210063 -0.11473
C_ C_ 0.456791 0.901175 0.215496 -0.11473
C_ C_ 0.184927 0.648057 0.251844 -0.02249
C_ C_ 0.433782 0.646083 0.249358 -0.02249
C_ C_ 0.237023 0.533587 0.251833 -0.02249
C_ C_ 0.488134 0.536436 0.245209 -0.02249
C_ C_ 0.206281 0.588489 0.288401 -0.11473
C_ C_ 0.465918 0.593101 0.284322 -0.11473
C_ C_ 0.197968 0.632968 0.21541 -0.11473
C_ C_ 0.443348 0.630892 0.209208 -0.11473
C_ C_ 0.189132 0.625235 0.288797 -0.11473
C_ C_ 0.445608 0.628085 0.286728 -0.11473
C_ C_ 0.220234 0.574557 0.251194 -0.02249
C_ C_ 0.474314 0.577838 0.246253 -0.02249
C_ C_ 0.162147 0.68344 0.246095 0.6875
C_ C_ 0.415278 0.684078 0.249599 0.6875
C_ C_ 0.209644 0.593516 0.213575 -0.11473
C_ C_ 0.464223 0.597522 0.208285 -0.11473
C_ C_ 0.0632279 0.651974 0.245919 -0.02249
C_ C_ 0.318161 0.647985 0.249304 -0.02249
C_ C_ 0.0142974 0.535044 0.24253 -0.02249
C_ C_ 0.268594 0.534169 0.24797 -0.02249
C_ C_ 0.0265657 0.603535 0.210307 -0.11473
C_ C_ 0.292027 0.595477 0.211258 -0.11473
C_ C_ 0.0667232 0.622261 0.276474 -0.11473
C_ C_ 0.314239 0.625732 0.287163 -0.11473
C_ C_ 0.0418203 0.643708 0.214262 -0.11473
C_ C_ 0.307833 0.632286 0.20897 -0.11473
C_ C_ 0.0311093 0.573962 0.242978 -0.02249
C_ C_ 0.284134 0.574341 0.249318 -0.02249
C_ C_ 0.0842599 0.687674 0.245452 0.6875
C_ C_ 0.337702 0.686723 0.249293 0.6875
C_ C_ 0.0515567 0.583255 0.274046 -0.11473
C_ C_ 0.296412 0.59023 0.284836 -0.11473
C_ C_ 0.124372 0.78106 0.378849 0.17695
C_ C_ 0.38544 0.713726 0.380951 0.17695
C_ C_ 0.126817 0.708323 0.372938 0.17695
C_ C_ 0.375533 0.785838 0.374032 0.17695
C_ C_ 0.125428 0.703765 0.416895 -0.11473
C_ C_ 0.376215 0.79002 0.417365 -0.11473
C_ C_ 0.123316 0.739036 0.442969 0.23465
C_ C_ 0.3808 0.755833 0.443663 0.23465
C_ C_ 0.12375 0.778122 0.423809 -0.11473
C_ C_ 0.383743 0.717538 0.425759 -0.11473
C_ C_ 0.145883 0.750568 0.120295 0.17695
C_ C_ 0.370897 0.722073 0.118553 0.17695
C_ C_ 0.0925103 0.758893 0.12319 0.17695
C_ C_ 0.37731 0.794925 0.126929 0.17695
C_ C_ 0.09127 0.768305 0.0801505 -0.11473
C_ C_ 0.376404 0.801838 0.0837301 -0.11473
C_ C_ 0.115889 0.759702 0.0554086 0.23465
C_ C_ 0.378225 0.765318 0.0565893 0.23465
C_ C_ 0.144598 0.754542 0.0751671 -0.11473
C_ C_ 0.372512 0.724889 0.0742056 -0.11473
C_ C_ 0.0321234 0.998049 0.228843 0.05793
C_ C_ 0.28076 0.997142 0.254835 0.05793
C_ C_ 0.220425 0.495544 0.249861 0.05793
C_ C_ 0.472714 0.499561 0.23669 0.05793
Br Br 0.0735089 -1.999999999946489e-06 0.213912 -0.17191
Br Br 0.32419 0.996035 0.25736 -0.17191
Br Br 0.176337 0.49441 0.245693 -0.17191
Br Br 0.432098 0.500548 0.211174 -0.17191
N_ N_ 0.127383 0.746607 0.354644 -0.272
N_ N_ 0.378666 0.748263 0.355951 -0.272
N_ N_ 0.122997 0.733491 0.488312 -0.12501
N_ N_ 0.379208 0.762002 0.488657 -0.12501
N_ N_ 0.119959 0.746894 0.141219 -0.272
N_ N_ 0.374589 0.756706 0.142745 -0.272
N_ N_ 0.112941 0.764159 0.010562 -0.12501
N_ N_ 0.378276 0.771104 0.0119649 -0.12501
O_ O_ 0.0993138 0.79424 0.217865 -0.60745
O_ O_ 0.343298 0.791804 0.21121 -0.60745
O_ O_ 0.097252 0.796756 0.286986 -0.60745
O_ O_ 0.350996 0.796017 0.278603 -0.60745
O_ O_ 0.153071 0.79112 0.281698 -0.60745
O_ O_ 0.408501 0.785544 0.280512 -0.60745
O_ O_ 0.159492 0.78248 0.212908 -0.60745
O_ O_ 0.406155 0.792763 0.214295 -0.60745
O_ O_ 0.15133 0.699745 0.278279 -0.60745
O_ O_ 0.40551 0.696271 0.284402 -0.60745
O_ O_ 0.151504 0.692925 0.209407 -0.60745
O_ O_ 0.410994 0.7076 0.216955 -0.60745
O_ O_ 0.0909626 0.703659 0.210278 -0.60745
O_ O_ 0.347175 0.702357 0.214751 -0.60745
O_ O_ 0.0905868 0.705878 0.279258 -0.60745
O_ O_ 0.343516 0.703617 0.285431 -0.60745
Zn Zn 0.122113 0.751261 0.785009 0.9476
Zn Zn 0.373826 0.750913 0.7842 0.9476
Zn Zn 0.122175 0.74939 0.716017 0.9476
Zn Zn 0.374716 0.754693 0.715949 0.9476
H_ H_ 0.0259926 0.918219 0.690283 0.10932
H_ H_ 0.294649 0.927958 0.679037 0.10932
H_ H_ 0.0742231 0.86075 0.819473 0.10932
H_ H_ 0.307233 0.851442 0.813668 0.10932
H_ H_ 0.0539539 0.852447 0.687749 0.10932
H_ H_ 0.322326 0.862972 0.677038 0.10932
H_ H_ 0.0482341 0.926513 0.822406 0.10932
H_ H_ 0.277522 0.914883 0.810725 0.10932
H_ H_ 0.192265 0.934845 0.806422 0.10932
H_ H_ 0.479251 0.909414 0.810067 0.10932
H_ H_ 0.205431 0.829639 0.698896 0.10932
H_ H_ 0.409258 0.876093 0.689937 0.10932
H_ H_ 0.163413 0.871878 0.812376 0.10932
H_ H_ 0.448166 0.850264 0.816886 0.10932
H_ H_ 0.226108 0.900754 0.686906 0.10932
H_ H_ 0.4456 0.930315 0.686188 0.10932
H_ H_ 0.231393 0.601095 0.803929 0.10932
H_ H_ 0.474723 0.590622 0.816206 0.10932
H_ H_ 0.172213 0.638009 0.676854 0.10932
H_ H_ 0.430181 0.644103 0.683324 0.10932
H_ H_ 0.201743 0.663545 0.803435 0.10932
H_ H_ 0.445822 0.652192 0.818737 0.10932
H_ H_ 0.202533 0.573113 0.680734 0.10932
H_ H_ 0.451584 0.572791 0.682861 0.10932
H_ H_ 0.0458388 0.571587 0.682349 0.10932
H_ H_ 0.287196 0.581405 0.678315 0.10932
H_ H_ 0.0623513 0.645241 0.81279 0.10932
H_ H_ 0.31748 0.645038 0.813544 0.10932
H_ H_ 0.0785542 0.633573 0.684029 0.10932
H_ H_ 0.318375 0.649681 0.681041 0.10932
H_ H_ 0.0329277 0.584093 0.814005 0.10932
H_ H_ 0.29157 0.5753 0.809401 0.10932
H_ H_ 0.115554 0.816962 0.860283 0.10932
H_ H_ 0.378229 0.821476 0.866111 0.10932
H_ H_ 0.129504 0.684172 0.854394 0.10932
H_ H_ 0.375699 0.68918 0.8529 0.10932
H_ H_ 0.132213 0.681378 0.930961 0.10932
H_ H_ 0.378055 0.683015 0.927801 0.10932
H_ H_ 0.117275 0.810756 0.939185 0.10932
H_ H_ 0.383047 0.816375 0.9411 0.10932
H_ H_ 0.098965 0.69802 0.636058 0.10932
H_ H_ 0.338945 0.712895 0.636514 0.10932
H_ H_ 0.151502 0.805858 0.646494 0.10932
H_ H_ 0.419118 0.779199 0.646777 0.10932
H_ H_ 0.15735 0.812755 0.568085 0.10932
H_ H_ 0.421175 0.785642 0.56999 0.10932
H_ H_ 0.0927815 0.714386 0.555806 0.10932
H_ H_ 0.345599 0.704876 0.559883 0.10932
C_ C_ 0.0689761 0.854572 0.753106 -0.02249
C_ C_ 0.314298 0.846113 0.745899 -0.02249
C_ C_ 0.0179508 0.967677 0.762187 -0.02249
C_ C_ 0.263136 0.960921 0.74525 -0.02249
C_ C_ 0.0368023 0.90447 0.718365 -0.11473
C_ C_ 0.295017 0.908261 0.707092 -0.11473
C_ C_ 0.0667236 0.87596 0.78926 -0.11473
C_ C_ 0.30288 0.864581 0.782469 -0.11473
C_ C_ 0.0541381 0.868226 0.715957 -0.11473
C_ C_ 0.312498 0.872954 0.707523 -0.11473
C_ C_ 0.035352 0.927561 0.758855 -0.02249
C_ C_ 0.279676 0.921743 0.742542 -0.02249
C_ C_ 0.082238 0.812058 0.755538 0.6875
C_ C_ 0.334709 0.811658 0.747646 0.6875
C_ C_ 0.0506271 0.912009 0.793211 -0.11473
C_ C_ 0.285057 0.901328 0.779972 -0.11473
C_ C_ 0.180929 0.848494 0.753211 -0.02249
C_ C_ 0.42927 0.852119 0.750601 -0.02249
C_ C_ 0.231428 0.961207 0.74811 -0.02249
C_ C_ 0.484779 0.962438 0.742979 -0.02249
C_ C_ 0.19465 0.914073 0.781225 -0.11473
C_ C_ 0.465126 0.901592 0.782136 -0.11473
C_ C_ 0.20045 0.855265 0.71897 -0.11473
C_ C_ 0.428584 0.877401 0.713769 -0.11473
C_ C_ 0.176815 0.878583 0.783053 -0.11473
C_ C_ 0.447201 0.866822 0.785555 -0.11473
C_ C_ 0.213415 0.922732 0.747448 -0.02249
C_ C_ 0.467477 0.921833 0.744394 -0.02249
C_ C_ 0.16274 0.810193 0.751729 0.6875
C_ C_ 0.410627 0.813961 0.75078 0.6875
C_ C_ 0.217273 0.892249 0.716987 -0.11473
C_ C_ 0.448716 0.91012 0.712005 -0.11473
C_ C_ 0.182835 0.653252 0.741372 -0.02249
C_ C_ 0.433352 0.651273 0.750846 -0.02249
C_ C_ 0.235626 0.54159 0.746058 -0.02249
C_ C_ 0.481825 0.537525 0.749294 -0.02249
C_ C_ 0.216604 0.607549 0.776729 -0.11473
C_ C_ 0.461638 0.599437 0.787439 -0.11473
C_ C_ 0.184938 0.629139 0.70464 -0.11473
C_ C_ 0.438326 0.629922 0.712057 -0.11473
C_ C_ 0.198569 0.642073 0.777182 -0.11473
C_ C_ 0.449457 0.639074 0.787198 -0.11473
C_ C_ 0.217202 0.580602 0.743261 -0.02249
C_ C_ 0.46526 0.577361 0.750051 -0.02249
C_ C_ 0.161362 0.691028 0.74202 0.6875
C_ C_ 0.414784 0.692326 0.753053 0.6875
C_ C_ 0.204955 0.595357 0.70466 -0.11473
C_ C_ 0.452179 0.591427 0.711723 -0.11473
C_ C_ 0.0692531 0.647984 0.749076 -0.02249
C_ C_ 0.316884 0.653105 0.746941 -0.02249
C_ C_ 0.01568 0.536657 0.747153 -0.02249
C_ C_ 0.26654 0.539835 0.741329 -0.02249
C_ C_ 0.0483687 0.588534 0.711093 -0.11473
C_ C_ 0.290557 0.59885 0.706636 -0.11473
C_ C_ 0.0565893 0.632651 0.783667 -0.11473
C_ C_ 0.310796 0.6309 0.784198 -0.11473
C_ C_ 0.0674194 0.624595 0.712167 -0.11473
C_ C_ 0.308322 0.635486 0.708201 -0.11473
C_ C_ 0.0339287 0.575331 0.748009 -0.02249
C_ C_ 0.286572 0.576143 0.743481 -0.02249
C_ C_ 0.0848433 0.689137 0.749785 0.6875
C_ C_ 0.336256 0.69103 0.74782 0.6875
C_ C_ 0.0404825 0.594618 0.784713 -0.11473
C_ C_ 0.295255 0.592657 0.782064 -0.11473
C_ C_ 0.120848 0.785908 0.87592 0.17695
C_ C_ 0.376746 0.790136 0.879721 0.17695
C_ C_ 0.129318 0.712433 0.87319 0.17695
C_ C_ 0.379036 0.717875 0.871135 0.17695
C_ C_ 0.129676 0.711354 0.917463 -0.11473
C_ C_ 0.380362 0.713059 0.914457 -0.11473
C_ C_ 0.125059 0.745906 0.941261 0.23465
C_ C_ 0.382169 0.747425 0.941745 0.23465
C_ C_ 0.122165 0.784776 0.921115 -0.11473
C_ C_ 0.377515 0.785559 0.923505 -0.11473
C_ C_ 0.109942 0.72379 0.619894 0.17695
C_ C_ 0.357925 0.724422 0.621761 0.17695
C_ C_ 0.138596 0.786507 0.626301 0.17695
C_ C_ 0.401326 0.767035 0.627595 0.17695
C_ C_ 0.143165 0.788388 0.583237 -0.11473
C_ C_ 0.404644 0.767216 0.58409 -0.11473
C_ C_ 0.12728 0.760385 0.557132 0.23465
C_ C_ 0.385226 0.743195 0.559026 0.23465
C_ C_ 0.111092 0.728835 0.575274 -0.11473
C_ C_ 0.361726 0.722661 0.577904 -0.11473
C_ C_ 0.033122 0.00641174 0.759565 0.05793
C_ C_ 0.280089 -0.00114421 0.750519 0.05793
C_ C_ 0.218485 0.504713 0.751983 0.05793
C_ C_ 0.465893 0.499545 0.749683 0.05793
Br Br 0.0765589 0.00892372 0.760675 -0.17191
Br Br 0.321589 0.0017400000000000748 0.757452 -0.17191
Br Br 0.176673 0.506106 0.764448 -0.17191
Br Br 0.422705 0.501665 0.747624 -0.17191
N_ N_ 0.123378 0.750489 0.854016 -0.272
N_ N_ 0.377073 0.756054 0.854088 -0.272
N_ N_ 0.126542 0.741123 0.985912 -0.12501
N_ N_ 0.382199 0.740529 0.986512 -0.12501
N_ N_ 0.123702 0.754067 0.645055 -0.272
N_ N_ 0.377779 0.747718 0.645886 -0.272
N_ N_ 0.131151 0.762114 0.513155 -0.12501
N_ N_ 0.390455 0.738346 0.516085 -0.12501
O_ O_ 0.0889085 0.792712 0.721991 -0.60745
O_ O_ 0.338398 0.790836 0.713815 -0.60745
O_ O_ 0.0927042 0.798741 0.789752 -0.60745
O_ O_ 0.346522 0.798938 0.783714 -0.60745
O_ O_ 0.156251 0.790684 0.78535 -0.60745
O_ O_ 0.405447 0.793023 0.783502 -0.60745
O_ O_ 0.151393 0.797419 0.718191 -0.60745
O_ O_ 0.399701 0.80171 0.715933 -0.60745
O_ O_ 0.152397 0.707138 0.776618 -0.60745
O_ O_ 0.401815 0.703116 0.787269 -0.60745
O_ O_ 0.154689 0.71117 0.709691 -0.60745
O_ O_ 0.409948 0.71326 0.719893 -0.60745
O_ O_ 0.0921139 0.703638 0.714397 -0.60745
O_ O_ 0.347468 0.706991 0.714958 -0.60745
O_ O_ 0.0931059 0.706951 0.784794 -0.60745
O_ O_ 0.338058 0.711766 0.78161 -0.60745
Zn Zn 0.62571 0.244397 0.29039 0.9476
Zn Zn 0.875687 0.249255 0.287342 0.9476
Zn Zn 0.622273 0.246566 0.217584 0.9476
Zn Zn 0.87402 0.2479 0.217873 0.9476
H_ H_ 0.525242 0.413041 0.190385 0.10932
H_ H_ 0.770148 0.409551 0.193047 0.10932
H_ H_ 0.567976 0.348951 0.32315 0.10932
H_ H_ 0.828286 0.366953 0.319982 0.10932
H_ H_ 0.555784 0.344636 0.188273 0.10932
H_ H_ 0.805346 0.346103 0.18936 0.10932
H_ H_ 0.543342 0.417071 0.324249 0.10932
H_ H_ 0.791473 0.42518 0.323537 0.10932
H_ H_ 0.710764 0.421508 0.317684 0.10932
H_ H_ 0.976176 0.404329 0.318489 0.10932
H_ H_ 0.679849 0.355768 0.1815 0.10932
H_ H_ 0.914714 0.36351 0.195277 0.10932
H_ H_ 0.68959 0.34947 0.317618 0.10932
H_ H_ 0.946411 0.342961 0.321208 0.10932
H_ H_ 0.70029 0.426299 0.182269 0.10932
H_ H_ 0.948043 0.425745 0.192254 0.10932
H_ H_ 0.740434 0.101684 0.303478 0.10932
H_ H_ 0.976707 0.0893475 0.309078 0.10932
H_ H_ 0.661378 0.127513 0.195396 0.10932
H_ H_ 0.927909 0.141498 0.179375 0.10932
H_ H_ 0.712738 0.168333 0.300374 0.10932
H_ H_ 0.937625 0.14602 0.31214 0.10932
H_ H_ 0.687615 0.0599398 0.197648 0.10932
H_ H_ 0.954227 0.0773427 0.17575 0.10932
H_ H_ 0.544699 0.0652551 0.193826 0.10932
H_ H_ 0.777776 0.0908581 0.17907 0.10932
H_ H_ 0.553771 0.150915 0.321288 0.10932
H_ H_ 0.824857 0.135941 0.308826 0.10932
H_ H_ 0.57983 0.123304 0.195435 0.10932
H_ H_ 0.800131 0.157864 0.184287 0.10932
H_ H_ 0.519542 0.0934664 0.317603 0.10932
H_ H_ 0.796189 0.0683183 0.307855 0.10932
H_ H_ 0.63142 0.18386 0.367928 0.10932
H_ H_ 0.884875 0.183762 0.360819 0.10932
H_ H_ 0.629833 0.312434 0.35813 0.10932
H_ H_ 0.871785 0.311776 0.367868 0.10932
H_ H_ 0.623733 0.316642 0.437115 0.10932
H_ H_ 0.87251 0.30758 0.443195 0.10932
H_ H_ 0.613652 0.18697 0.439865 0.10932
H_ H_ 0.864301 0.179132 0.432961 0.10932
H_ H_ 0.603074 0.189401 0.141305 0.10932
H_ H_ 0.894275 0.314306 0.147458 0.10932
H_ H_ 0.639014 0.31008 0.136512 0.10932
H_ H_ 0.85596 0.19502 0.138728 0.10932
H_ H_ 0.647527 0.305219 0.0627968 0.10932
H_ H_ 0.85179 0.202186 0.0608175 0.10932
H_ H_ 0.608265 0.185077 0.0632665 0.10932
H_ H_ 0.888005 0.323613 0.0691389 0.10932
C_ C_ 0.562674 0.340908 0.256197 -0.02249
C_ C_ 0.816011 0.349802 0.256207 -0.02249
C_ C_ 0.51751 0.460405 0.258612 -0.02249
C_ C_ 0.76109 0.460664 0.254908 -0.02249
C_ C_ 0.535773 0.39775 0.219174 -0.11473
C_ C_ 0.781052 0.395836 0.221168 -0.11473
C_ C_ 0.557694 0.360792 0.295169 -0.11473
C_ C_ 0.811725 0.370839 0.294755 -0.11473
C_ C_ 0.551829 0.360344 0.21796 -0.11473
C_ C_ 0.799686 0.360732 0.219431 -0.11473
C_ C_ 0.533591 0.420221 0.257576 -0.02249
C_ C_ 0.777061 0.419406 0.258005 -0.02249
C_ C_ 0.581284 0.302031 0.255362 0.6875
C_ C_ 0.837574 0.313585 0.255809 0.6875
C_ C_ 0.542797 0.399146 0.295148 -0.11473
C_ C_ 0.792574 0.405955 0.29634 -0.11473
C_ C_ 0.681296 0.347318 0.249615 -0.02249
C_ C_ 0.92969 0.347129 0.256344 -0.02249
C_ C_ 0.729313 0.46298 0.24965 -0.02249
C_ C_ 0.984393 0.456818 0.252723 -0.02249
C_ C_ 0.70604 0.405704 0.287963 -0.11473
C_ C_ 0.964291 0.395224 0.290294 -0.11473
C_ C_ 0.686019 0.369497 0.210334 -0.11473
C_ C_ 0.929793 0.372045 0.220541 -0.11473
C_ C_ 0.692153 0.365597 0.287534 -0.11473
C_ C_ 0.946566 0.360388 0.292442 -0.11473
C_ C_ 0.709992 0.426616 0.249955 -0.02249
C_ C_ 0.96804 0.415567 0.253266 -0.02249
C_ C_ 0.662357 0.309263 0.250099 0.6875
C_ C_ 0.912453 0.308227 0.255651 0.6875
C_ C_ 0.698359 0.408413 0.210693 -0.11473
C_ C_ 0.949322 0.404524 0.218149 -0.11473
C_ C_ 0.684971 0.153808 0.246728 -0.02249
C_ C_ 0.930038 0.148336 0.246325 -0.02249
C_ C_ 0.735285 0.0370918 0.247373 -0.02249
C_ C_ 0.984416 0.0358734 0.240909 -0.02249
C_ C_ 0.723413 0.10856 0.277993 -0.11473
C_ C_ 0.963315 0.0991899 0.28088 -0.11473
C_ C_ 0.679643 0.123297 0.216179 -0.11473
C_ C_ 0.934231 0.127277 0.208199 -0.11473
C_ C_ 0.706372 0.14498 0.278722 -0.11473
C_ C_ 0.941874 0.130706 0.283629 -0.11473
C_ C_ 0.719262 0.078679 0.246704 -0.02249
C_ C_ 0.966204 0.0755628 0.242414 -0.02249
C_ C_ 0.665443 0.191091 0.249529 0.6875
C_ C_ 0.910774 0.185203 0.247844 0.6875
C_ C_ 0.695694 0.0855595 0.216614 -0.11473
C_ C_ 0.95004 0.0905803 0.20683 -0.11473
C_ C_ 0.570721 0.141142 0.25806 -0.02249
C_ C_ 0.815371 0.1505 0.247571 -0.02249
C_ C_ 0.514156 0.0328827 0.257236 -0.02249
C_ C_ 0.766334 0.0360643 0.23851 -0.02249
C_ C_ 0.546793 0.085281 0.221744 -0.11473
C_ C_ 0.786081 0.101298 0.208254 -0.11473
C_ C_ 0.555412 0.130019 0.294702 -0.11473
C_ C_ 0.814651 0.124776 0.280837 -0.11473
C_ C_ 0.568369 0.115964 0.223822 -0.11473
C_ C_ 0.799341 0.139687 0.210679 -0.11473
C_ C_ 0.532347 0.0726792 0.258035 -0.02249
C_ C_ 0.783567 0.0755623 0.241763 -0.02249
C_ C_ 0.589951 0.177218 0.258634 0.6875
C_ C_ 0.834606 0.189787 0.247965 0.6875
C_ C_ 0.53405 0.0983435 0.293157 -0.11473
C_ C_ 0.79773 0.0860341 0.278188 -0.11473
C_ C_ 0.624162 0.212669 0.382274 0.17695
C_ C_ 0.879235 0.210641 0.37877 0.17695
C_ C_ 0.623842 0.284527 0.376547 0.17695
C_ C_ 0.873577 0.282738 0.382263 0.17695
C_ C_ 0.621757 0.288123 0.419839 -0.11473
C_ C_ 0.871344 0.279827 0.424801 -0.11473
C_ C_ 0.619247 0.253322 0.444647 0.23465
C_ C_ 0.868234 0.242896 0.4459 0.23465
C_ C_ 0.621028 0.214258 0.425815 -0.11473
C_ C_ 0.873688 0.207323 0.421723 -0.11473
C_ C_ 0.61377 0.213991 0.124519 0.17695
C_ C_ 0.888151 0.288389 0.1273 0.17695
C_ C_ 0.630984 0.283152 0.12227 0.17695
C_ C_ 0.864378 0.224255 0.124515 0.17695
C_ C_ 0.637151 0.279758 0.0801283 -0.11473
C_ C_ 0.863192 0.226357 0.0788697 -0.11473
C_ C_ 0.627823 0.245339 0.0571233 0.23465
C_ C_ 0.871827 0.262474 0.0586142 0.23465
C_ C_ 0.616969 0.211065 0.0804857 -0.11473
C_ C_ 0.88367 0.29309 0.0830845 -0.11473
C_ C_ 0.533996 0.497309 0.266353 0.05793
C_ C_ 0.778915 0.496782 0.256513 0.05793
C_ C_ 0.719648 1.00104185 0.255376 0.05793
C_ C_ 0.970122 0.997236 0.248522 0.05793
Br Br 0.573436 0.495312 0.290575 -0.17191
Br Br 0.822226 0.493182 0.254687 -0.17191
Br Br 0.681161 -0.000253409 0.280074 -0.17191
Br Br 0.926677 -0.002939000000000025 0.25314 -0.17191
N_ N_ 0.626121 0.246859 0.358006 -0.272
N_ N_ 0.878825 0.248906 0.359992 -0.272
N_ N_ 0.614397 0.256277 0.489127 -0.12501
N_ N_ 0.866563 0.238897 0.48977 -0.12501
N_ N_ 0.622155 0.248467 0.145548 -0.272
N_ N_ 0.875137 0.25556 0.148024 -0.272
N_ N_ 0.628967 0.241694 0.0121043 -0.12501
N_ N_ 0.869351 0.268446 0.0151781 -0.12501
O_ O_ 0.589767 0.287117 0.219681 -0.60745
O_ O_ 0.847607 0.301464 0.220791 -0.60745
O_ O_ 0.593033 0.289499 0.289058 -0.60745
O_ O_ 0.845668 0.294938 0.28948 -0.60745
O_ O_ 0.656859 0.289625 0.283271 -0.60745
O_ O_ 0.908363 0.290511 0.291049 -0.60745
O_ O_ 0.648237 0.297915 0.218295 -0.60745
O_ O_ 0.908542 0.286467 0.223094 -0.60745
O_ O_ 0.658678 0.203906 0.286243 -0.60745
O_ O_ 0.903756 0.20097 0.283413 -0.60745
O_ O_ 0.656464 0.208148 0.215414 -0.60745
O_ O_ 0.899925 0.201134 0.214576 -0.60745
O_ O_ 0.594657 0.194177 0.22409 -0.60745
O_ O_ 0.837448 0.210828 0.214479 -0.60745
O_ O_ 0.598994 0.194927 0.291427 -0.60745
O_ O_ 0.844297 0.204162 0.282622 -0.60745
Zn Zn 0.630011 0.252299 0.784161 0.9476
Zn Zn 0.869331 0.251866 0.785747 0.9476
Zn Zn 0.627512 0.254422 0.716444 0.9476
Zn Zn 0.872952 0.247778 0.719913 0.9476
H_ H_ 0.5262 0.411382 0.686913 0.10932
H_ H_ 0.788023 0.424432 0.68335 0.10932
H_ H_ 0.571604 0.365718 0.820128 0.10932
H_ H_ 0.803607 0.347132 0.817212 0.10932
H_ H_ 0.561172 0.353741 0.687435 0.10932
H_ H_ 0.815907 0.359006 0.684831 0.10932
H_ H_ 0.544849 0.430602 0.819989 0.10932
H_ H_ 0.77909 0.418227 0.813958 0.10932
H_ H_ 0.709803 0.431062 0.81097 0.10932
H_ H_ 0.951229 0.425469 0.815728 0.10932
H_ H_ 0.70303 0.340272 0.688341 0.10932
H_ H_ 0.947753 0.336269 0.691154 0.10932
H_ H_ 0.685301 0.364211 0.814225 0.10932
H_ H_ 0.915942 0.369764 0.814221 0.10932
H_ H_ 0.723892 0.412738 0.679903 0.10932
H_ H_ 0.981197 0.396475 0.695073 0.10932
H_ H_ 0.696919 0.0625301 0.803243 0.10932
H_ H_ 0.967064 0.0891491 0.824327 0.10932
H_ H_ 0.700571 0.1649 0.693156 0.10932
H_ H_ 0.932416 0.146499 0.686991 0.10932
H_ H_ 0.663061 0.123584 0.805946 0.10932
H_ H_ 0.93667 0.156774 0.821468 0.10932
H_ H_ 0.722071 0.0974967 0.678636 0.10932
H_ H_ 0.960972 0.0810925 0.688817 0.10932
H_ H_ 0.534795 0.0875556 0.675618 0.10932
H_ H_ 0.781084 0.0880019 0.681625 0.10932
H_ H_ 0.566614 0.139049 0.814938 0.10932
H_ H_ 0.816087 0.145472 0.815919 0.10932
H_ H_ 0.564701 0.150338 0.678612 0.10932
H_ H_ 0.806118 0.154664 0.683327 0.10932
H_ H_ 0.537933 0.0785453 0.808715 0.10932
H_ H_ 0.78121 0.0858838 0.819741 0.10932
H_ H_ 0.627318 0.318446 0.85518 0.10932
H_ H_ 0.908621 0.205982 0.859852 0.10932
H_ H_ 0.632147 0.191708 0.868169 0.10932
H_ H_ 0.829644 0.278404 0.861768 0.10932
H_ H_ 0.640834 0.195508 0.942207 0.10932
H_ H_ 0.83008 0.276695 0.937484 0.10932
H_ H_ 0.636692 0.326401 0.93032 0.10932
H_ H_ 0.913014 0.209408 0.937653 0.10932
H_ H_ 0.636233 0.183536 0.649761 0.10932
H_ H_ 0.869629 0.324016 0.650917 0.10932
H_ H_ 0.614527 0.314053 0.629849 0.10932
H_ H_ 0.873366 0.195665 0.637728 0.10932
H_ H_ 0.62696 0.309812 0.560576 0.10932
H_ H_ 0.865577 0.199381 0.559301 0.10932
H_ H_ 0.646819 0.180902 0.570882 0.10932
H_ H_ 0.862947 0.330125 0.570895 0.10932
C_ C_ 0.570873 0.353434 0.75324 -0.02249
C_ C_ 0.815519 0.348312 0.750336 -0.02249
C_ C_ 0.514544 0.463757 0.754511 -0.02249
C_ C_ 0.766942 0.467923 0.74867 -0.02249
C_ C_ 0.535919 0.402507 0.718093 -0.11473
C_ C_ 0.792825 0.407455 0.712983 -0.11473
C_ C_ 0.5636 0.37451 0.790855 -0.11473
C_ C_ 0.801733 0.364811 0.787229 -0.11473
C_ C_ 0.555885 0.369219 0.716996 -0.11473
C_ C_ 0.809534 0.371505 0.712814 -0.11473
C_ C_ 0.532268 0.425999 0.754452 -0.02249
C_ C_ 0.782409 0.426432 0.74952 -0.02249
C_ C_ 0.591237 0.316141 0.75051 0.6875
C_ C_ 0.830503 0.307395 0.751607 0.6875
C_ C_ 0.546774 0.412354 0.79092 -0.11473
C_ C_ 0.78791 0.404768 0.786636 -0.11473
C_ C_ 0.689846 0.350458 0.751495 -0.02249
C_ C_ 0.93 0.347174 0.753785 -0.02249
C_ C_ 0.734517 0.469423 0.742697 -0.02249
C_ C_ 0.982257 0.460437 0.749264 -0.02249
C_ C_ 0.706231 0.414311 0.783175 -0.11473
C_ C_ 0.946126 0.412961 0.785169 -0.11473
C_ C_ 0.703165 0.363049 0.713947 -0.11473
C_ C_ 0.946105 0.358178 0.716899 -0.11473
C_ C_ 0.690475 0.378116 0.784028 -0.11473
C_ C_ 0.928559 0.375948 0.78684 -0.11473
C_ C_ 0.717237 0.429006 0.745533 -0.02249
C_ C_ 0.964664 0.421357 0.749547 -0.02249
C_ C_ 0.669525 0.311795 0.751651 0.6875
C_ C_ 0.911508 0.309242 0.75601 0.6875
C_ C_ 0.714653 0.403099 0.709745 -0.11473
C_ C_ 0.963556 0.394651 0.715979 -0.11473
C_ C_ 0.681228 0.152921 0.751159 -0.02249
C_ C_ 0.932979 0.158072 0.753309 -0.02249
C_ C_ 0.73091 0.0360384 0.739626 -0.02249
C_ C_ 0.98386 0.0428929 0.759913 -0.02249
C_ C_ 0.698242 0.0856803 0.779905 -0.11473
C_ C_ 0.960812 0.103989 0.79477 -0.11473
C_ C_ 0.694982 0.142152 0.713458 -0.11473
C_ C_ 0.937994 0.134716 0.717073 -0.11473
C_ C_ 0.679127 0.121589 0.781618 -0.11473
C_ C_ 0.945342 0.142261 0.792181 -0.11473
C_ C_ 0.712577 0.075797 0.742517 -0.02249
C_ C_ 0.965972 0.080651 0.757509 -0.02249
C_ C_ 0.662201 0.190639 0.753828 0.6875
C_ C_ 0.911345 0.191793 0.753862 0.6875
C_ C_ 0.709044 0.103099 0.707728 -0.11473
C_ C_ 0.955515 0.0976621 0.719264 -0.11473
C_ C_ 0.569387 0.151834 0.746792 -0.02249
C_ C_ 0.814938 0.152344 0.749449 -0.02249
C_ C_ 0.517129 0.0378081 0.740468 -0.02249
C_ C_ 0.762262 0.0377917 0.74524 -0.02249
C_ C_ 0.542338 0.0984008 0.705125 -0.11473
C_ C_ 0.790281 0.098211 0.712017 -0.11473
C_ C_ 0.558914 0.130019 0.78277 -0.11473
C_ C_ 0.806581 0.133005 0.786823 -0.11473
C_ C_ 0.558128 0.135749 0.708476 -0.11473
C_ C_ 0.804795 0.13591 0.711563 -0.11473
C_ C_ 0.535319 0.0771876 0.741405 -0.02249
C_ C_ 0.778689 0.0797681 0.748683 -0.02249
C_ C_ 0.5892 0.190242 0.747962 0.6875
C_ C_ 0.834056 0.189144 0.749107 0.6875
C_ C_ 0.542914 0.0944132 0.780085 -0.11473
C_ C_ 0.788546 0.0969775 0.7884 -0.11473
C_ C_ 0.636508 0.292348 0.872839 0.17695
C_ C_ 0.893293 0.225846 0.877749 0.17695
C_ C_ 0.63864 0.219826 0.881316 0.17695
C_ C_ 0.848998 0.264205 0.877892 0.17695
C_ C_ 0.64161 0.223796 0.924944 -0.11473
C_ C_ 0.848277 0.262498 0.921833 -0.11473
C_ C_ 0.640998 0.262813 0.942847 0.23465
C_ C_ 0.872126 0.245449 0.944553 0.23465
C_ C_ 0.641632 0.297706 0.915804 -0.11473
C_ C_ 0.895344 0.226327 0.92131 -0.11473
C_ C_ 0.630789 0.21083 0.628726 0.17695
C_ C_ 0.866991 0.296614 0.629475 0.17695
C_ C_ 0.622963 0.283907 0.6215 0.17695
C_ C_ 0.872827 0.225025 0.621874 0.17695
C_ C_ 0.628405 0.281279 0.578254 -0.11473
C_ C_ 0.868977 0.226675 0.577808 -0.11473
C_ C_ 0.629361 0.242643 0.559132 0.23465
C_ C_ 0.86566 0.26586 0.559825 0.23465
C_ C_ 0.635485 0.207868 0.584392 -0.11473
C_ C_ 0.864289 0.300211 0.585236 -0.11473
C_ C_ 0.529288 0.501954 0.747557 0.05793
C_ C_ 0.784071 0.503588 0.750049 0.05793
C_ C_ 0.716934 -0.0026199999999999557 0.734937 0.05793
C_ C_ 0.969348 0.0031076 0.762471 0.05793
Br Br 0.572103 0.503257 0.745573 -0.17191
Br Br 0.827213 0.502206 0.751684 -0.17191
Br Br 0.678754 -0.0011900000000000244 0.709089 -0.17191
Br Br 0.925098 0.00212563 0.760749 -0.17191
N_ N_ 0.636112 0.253473 0.855035 -0.272
N_ N_ 0.872887 0.249249 0.856984 -0.272
N_ N_ 0.641849 0.267017 0.988241 -0.12501
N_ N_ 0.869025 0.239549 0.989571 -0.12501
N_ N_ 0.627845 0.250142 0.645715 -0.272
N_ N_ 0.869955 0.257243 0.646188 -0.272
N_ N_ 0.631447 0.237884 0.513781 -0.12501
N_ N_ 0.865233 0.269481 0.515097 -0.12501
O_ O_ 0.597188 0.300331 0.715947 -0.60745
O_ O_ 0.844941 0.294177 0.72056 -0.60745
O_ O_ 0.597416 0.295915 0.783141 -0.60745
O_ O_ 0.834624 0.287691 0.786277 -0.60745
O_ O_ 0.6609 0.295482 0.785942 -0.60745
O_ O_ 0.896668 0.301075 0.788738 -0.60745
O_ O_ 0.659602 0.297707 0.717024 -0.60745
O_ O_ 0.904181 0.290758 0.721989 -0.60745
O_ O_ 0.6562 0.205739 0.787742 -0.60745
O_ O_ 0.905828 0.214401 0.785984 -0.60745
O_ O_ 0.656089 0.211072 0.720708 -0.60745
O_ O_ 0.898587 0.202349 0.719399 -0.60745
O_ O_ 0.59615 0.209682 0.715094 -0.60745
O_ O_ 0.838908 0.210209 0.714968 -0.60745
O_ O_ 0.596131 0.205596 0.783115 -0.60745
O_ O_ 0.844864 0.20278 0.785167 -0.60745
Zn Zn 0.622916 0.750173 0.286459 0.9476
Zn Zn 0.876702 0.751914 0.281803 0.9476
Zn Zn 0.623101 0.754331 0.217272 0.9476
Zn Zn 0.876597 0.747381 0.210554 0.9476
H_ H_ 0.519283 0.90847 0.190238 0.10932
H_ H_ 0.772673 0.903811 0.179852 0.10932
H_ H_ 0.572246 0.864564 0.317341 0.10932
H_ H_ 0.822035 0.857789 0.312587 0.10932
H_ H_ 0.54911 0.845982 0.185403 0.10932
H_ H_ 0.793979 0.834064 0.185736 0.10932
H_ H_ 0.538275 0.920668 0.321015 0.10932
H_ H_ 0.793367 0.926699 0.309695 0.10932
H_ H_ 0.732118 0.903609 0.310298 0.10932
H_ H_ 0.975446 0.912597 0.311311 0.10932
H_ H_ 0.662295 0.877179 0.189576 0.10932
H_ H_ 0.929505 0.85738 0.180334 0.10932
H_ H_ 0.702043 0.841975 0.308341 0.10932
H_ H_ 0.956914 0.841021 0.31263 0.10932
H_ H_ 0.691359 0.937256 0.189302 0.10932
H_ H_ 0.95442 0.923223 0.180101 0.10932
H_ H_ 0.698653 0.568107 0.311332 0.10932
H_ H_ 0.980994 0.59705 0.312201 0.10932
H_ H_ 0.686395 0.644984 0.180565 0.10932
H_ H_ 0.911474 0.623544 0.191667 0.10932
H_ H_ 0.667335 0.630925 0.310701 0.10932
H_ H_ 0.957384 0.66464 0.303625 0.10932
H_ H_ 0.726884 0.59214 0.188002 0.10932
H_ H_ 0.941398 0.558664 0.191993 0.10932
H_ H_ 0.537947 0.574626 0.186515 0.10932
H_ H_ 0.795197 0.565022 0.183922 0.10932
H_ H_ 0.576712 0.636575 0.317973 0.10932
H_ H_ 0.802107 0.660071 0.30834 0.10932
H_ H_ 0.557949 0.64713 0.183238 0.10932
H_ H_ 0.827836 0.630099 0.184973 0.10932
H_ H_ 0.543607 0.575212 0.31971 0.10932
H_ H_ 0.774631 0.589205 0.313554 0.10932
H_ H_ 0.640003 0.686756 0.360005 0.10932
H_ H_ 0.924157 0.71876 0.352828 0.10932
H_ H_ 0.60805 0.810497 0.363923 0.10932
H_ H_ 0.839532 0.779523 0.358316 0.10932
H_ H_ 0.602963 0.804775 0.442359 0.10932
H_ H_ 0.840766 0.779464 0.436651 0.10932
H_ H_ 0.628983 0.677275 0.434436 0.10932
H_ H_ 0.928172 0.718636 0.432438 0.10932
H_ H_ 0.571587 0.783064 0.142623 0.10932
H_ H_ 0.877065 0.689059 0.132536 0.10932
H_ H_ 0.662508 0.738069 0.13676 0.10932
H_ H_ 0.871415 0.819889 0.144534 0.10932
H_ H_ 0.663309 0.750441 0.0596189 0.10932
H_ H_ 0.866858 0.824289 0.0660068 0.10932
H_ H_ 0.569425 0.783916 0.064317 0.10932
H_ H_ 0.876209 0.691512 0.0548518 0.10932
C_ C_ 0.561898 0.845894 0.253154 -0.02249
C_ C_ 0.816824 0.84544 0.246262 -0.02249
C_ C_ 0.511535 0.95908 0.256773 -0.02249
C_ C_ 0.766233 0.960472 0.240861 -0.02249
C_ C_ 0.531367 0.898489 0.217466 -0.11473
C_ C_ 0.783217 0.894921 0.208002 -0.11473
C_ C_ 0.558333 0.869245 0.289338 -0.11473
C_ C_ 0.81297 0.870264 0.282377 -0.11473
C_ C_ 0.545992 0.860444 0.216163 -0.11473
C_ C_ 0.798199 0.856313 0.211032 -0.11473
C_ C_ 0.52732 0.918891 0.255297 -0.02249
C_ C_ 0.782534 0.920009 0.242875 -0.02249
C_ C_ 0.581683 0.809283 0.253816 0.6875
C_ C_ 0.835184 0.805958 0.250125 0.6875
C_ C_ 0.536988 0.899478 0.292641 -0.11473
C_ C_ 0.797025 0.908664 0.28078 -0.11473
C_ C_ 0.677976 0.856385 0.250893 -0.02249
C_ C_ 0.9407 0.841578 0.245638 -0.02249
C_ C_ 0.734936 0.962784 0.248055 -0.02249
C_ C_ 0.985773 0.959516 0.243644 -0.02249
C_ C_ 0.718402 0.89838 0.281197 -0.11473
C_ C_ 0.966497 0.898978 0.282321 -0.11473
C_ C_ 0.678583 0.882071 0.214964 -0.11473
C_ C_ 0.942051 0.866113 0.208484 -0.11473
C_ C_ 0.697838 0.86618 0.285473 -0.11473
C_ C_ 0.955825 0.858602 0.281829 -0.11473
C_ C_ 0.716596 0.925288 0.246876 -0.02249
C_ C_ 0.968994 0.920348 0.244399 -0.02249
C_ C_ 0.66221 0.814791 0.250825 0.6875
C_ C_ 0.921269 0.80423 0.246227 0.6875
C_ C_ 0.695515 0.91724 0.214924 -0.11473
C_ C_ 0.956295 0.90413 0.207163 -0.11473
C_ C_ 0.67729 0.649586 0.247952 -0.02249
C_ C_ 0.934063 0.651078 0.24558 -0.02249
C_ C_ 0.732942 0.53899 0.249261 -0.02249
C_ C_ 0.983204 0.533441 0.24829 -0.02249
C_ C_ 0.701447 0.592504 0.286953 -0.11473
C_ C_ 0.969267 0.604023 0.282578 -0.11473
C_ C_ 0.694108 0.635027 0.211838 -0.11473
C_ C_ 0.929547 0.620355 0.214334 -0.11473
C_ C_ 0.682594 0.628525 0.286852 -0.11473
C_ C_ 0.954323 0.641833 0.279949 -0.11473
C_ C_ 0.717932 0.580595 0.251942 -0.02249
C_ C_ 0.965045 0.572843 0.252548 -0.02249
C_ C_ 0.660698 0.690204 0.248438 0.6875
C_ C_ 0.917006 0.690497 0.245198 0.6875
C_ C_ 0.714791 0.601561 0.215665 -0.11473
C_ C_ 0.944184 0.582177 0.218538 -0.11473
C_ C_ 0.570832 0.648095 0.248782 -0.02249
C_ C_ 0.816321 0.649135 0.245913 -0.02249
C_ C_ 0.520069 0.534669 0.257544 -0.02249
C_ C_ 0.764621 0.537204 0.251956 -0.02249
C_ C_ 0.545228 0.59067 0.214105 -0.11473
C_ C_ 0.794516 0.589145 0.20969 -0.11473
C_ C_ 0.567079 0.626589 0.287876 -0.11473
C_ C_ 0.80076 0.639801 0.282071 -0.11473
C_ C_ 0.559563 0.628913 0.211802 -0.11473
C_ C_ 0.812383 0.625525 0.210475 -0.11473
C_ C_ 0.538793 0.571776 0.253525 -0.02249
C_ C_ 0.782452 0.576584 0.249295 -0.02249
C_ C_ 0.58685 0.689592 0.248933 0.6875
C_ C_ 0.836216 0.687837 0.245124 0.6875
C_ C_ 0.548643 0.589985 0.290199 -0.11473
C_ C_ 0.784591 0.602246 0.284427 -0.11473
C_ C_ 0.627037 0.709683 0.376511 0.17695
C_ C_ 0.906058 0.732243 0.372939 0.17695
C_ C_ 0.612301 0.781141 0.381277 0.17695
C_ C_ 0.859254 0.766641 0.374661 0.17695
C_ C_ 0.605922 0.77595 0.423792 -0.11473
C_ C_ 0.860091 0.768699 0.420132 -0.11473
C_ C_ 0.609749 0.737195 0.443665 0.23465
C_ C_ 0.885341 0.751935 0.441279 0.23465
C_ C_ 0.62055 0.704099 0.420039 -0.11473
C_ C_ 0.908052 0.732057 0.41641 -0.11473
C_ C_ 0.59183 0.772833 0.12407 0.17695
C_ C_ 0.875821 0.71772 0.117572 0.17695
C_ C_ 0.642945 0.753129 0.121249 0.17695
C_ C_ 0.874108 0.792439 0.124508 0.17695
C_ C_ 0.643403 0.75829 0.0781315 -0.11473
C_ C_ 0.869905 0.795051 0.0801399 -0.11473
C_ C_ 0.615229 0.762678 0.0561784 0.23465
C_ C_ 0.87185 0.760344 0.0541104 0.23465
C_ C_ 0.590363 0.773875 0.0793031 -0.11473
C_ C_ 0.875264 0.720651 0.0732428 -0.11473
C_ C_ 0.528713 0.995611 0.258133 0.05793
C_ C_ 0.781915 0.997842 0.239544 0.05793
C_ C_ 0.717076 0.501933 0.243684 0.05793
C_ C_ 0.967902 0.494352 0.253851 0.05793
Br Br 0.571024 0.996128 0.250809 -0.17191
Br Br 0.824645 0.996785 0.227264 -0.17191
Br Br 0.674509 0.503425 0.230196 -0.17191
Br Br 0.926985 0.490231 0.277778 -0.17191
N_ N_ 0.621497 0.747894 0.359525 -0.272
N_ N_ 0.881565 0.749018 0.351703 -0.272
N_ N_ 0.6082 0.733052 0.487698 -0.12501
N_ N_ 0.885582 0.746334 0.485559 -0.12501
N_ N_ 0.617794 0.760845 0.144757 -0.272
N_ N_ 0.874789 0.754011 0.142051 -0.272
N_ N_ 0.614728 0.765316 0.0109392 -0.12501
N_ N_ 0.871673 0.764658 0.0109633 -0.12501
O_ O_ 0.59013 0.795795 0.21975 -0.60745
O_ O_ 0.844179 0.79179 0.217133 -0.60745
O_ O_ 0.590813 0.792478 0.287334 -0.60745
O_ O_ 0.846579 0.795321 0.285292 -0.60745
O_ O_ 0.652272 0.802209 0.284903 -0.60745
O_ O_ 0.912051 0.790593 0.281553 -0.60745
O_ O_ 0.653684 0.798485 0.217063 -0.60745
O_ O_ 0.907757 0.792597 0.211303 -0.60745
O_ O_ 0.657229 0.708732 0.283628 -0.60745
O_ O_ 0.906926 0.704371 0.279806 -0.60745
O_ O_ 0.651992 0.709032 0.213537 -0.60745
O_ O_ 0.910063 0.706699 0.209958 -0.60745
O_ O_ 0.59076 0.709219 0.215609 -0.60745
O_ O_ 0.84733 0.700356 0.209907 -0.60745
O_ O_ 0.596105 0.702997 0.283932 -0.60745
O_ O_ 0.842976 0.707537 0.27896 -0.60745
Zn Zn 0.619668 0.748736 0.784463 0.9476
Zn Zn 0.879323 0.754551 0.785435 0.9476
Zn Zn 0.623247 0.749853 0.713506 0.9476
Zn Zn 0.880096 0.75518 0.714576 0.9476
H_ H_ 0.528285 0.908465 0.676994 0.10932
H_ H_ 0.8013 0.933595 0.68522 0.10932
H_ H_ 0.563407 0.859007 0.819172 0.10932
H_ H_ 0.806468 0.84773 0.810903 0.10932
H_ H_ 0.551221 0.838057 0.683699 0.10932
H_ H_ 0.836611 0.8703 0.688482 0.10932
H_ H_ 0.54037 0.92754 0.810626 0.10932
H_ H_ 0.775065 0.90915 0.811074 0.10932
H_ H_ 0.699612 0.932028 0.802749 0.10932
H_ H_ 0.976672 0.91292 0.827781 0.10932
H_ H_ 0.701708 0.83515 0.682402 0.10932
H_ H_ 0.928689 0.865386 0.692838 0.10932
H_ H_ 0.665589 0.873847 0.803209 0.10932
H_ H_ 0.948114 0.849 0.827287 0.10932
H_ H_ 0.736276 0.893409 0.688203 0.10932
H_ H_ 0.962694 0.927186 0.693391 0.10932
H_ H_ 0.714384 0.583872 0.811965 0.10932
H_ H_ 0.972988 0.58748 0.812245 0.10932
H_ H_ 0.684626 0.649726 0.678464 0.10932
H_ H_ 0.92375 0.64102 0.682164 0.10932
H_ H_ 0.683726 0.648969 0.812172 0.10932
H_ H_ 0.948632 0.654697 0.812596 0.10932
H_ H_ 0.718728 0.594343 0.679858 0.10932
H_ H_ 0.962478 0.583819 0.677351 0.10932
H_ H_ 0.518934 0.594754 0.682818 0.10932
H_ H_ 0.800389 0.575475 0.685507 0.10932
H_ H_ 0.569892 0.637191 0.817036 0.10932
H_ H_ 0.805544 0.666653 0.809563 0.10932
H_ H_ 0.54938 0.659716 0.685001 0.10932
H_ H_ 0.835479 0.634603 0.685057 0.10932
H_ H_ 0.535919 0.578223 0.814227 0.10932
H_ H_ 0.77132 0.60487 0.808659 0.10932
H_ H_ 0.670923 0.734326 0.858201 0.10932
H_ H_ 0.883903 0.682155 0.855246 0.10932
H_ H_ 0.577446 0.760514 0.86228 0.10932
H_ H_ 0.878905 0.815269 0.867069 0.10932
H_ H_ 0.577616 0.756295 0.937683 0.10932
H_ H_ 0.878131 0.806978 0.944024 0.10932
H_ H_ 0.672868 0.730829 0.934895 0.10932
H_ H_ 0.894461 0.678653 0.930662 0.10932
H_ H_ 0.613637 0.689618 0.638645 0.10932
H_ H_ 0.878681 0.823496 0.646406 0.10932
H_ H_ 0.619012 0.818374 0.644737 0.10932
H_ H_ 0.872928 0.694588 0.62873 0.10932
H_ H_ 0.608753 0.824088 0.566812 0.10932
H_ H_ 0.884674 0.70247 0.55374 0.10932
H_ H_ 0.614796 0.692153 0.559115 0.10932
H_ H_ 0.878201 0.835605 0.570601 0.10932
C_ C_ 0.561223 0.844738 0.751247 -0.02249
C_ C_ 0.819438 0.850754 0.747794 -0.02249
C_ C_ 0.516907 0.962046 0.741209 -0.02249
C_ C_ 0.764285 0.961694 0.744758 -0.02249
C_ C_ 0.536397 0.897172 0.708295 -0.11473
C_ C_ 0.801945 0.913644 0.712661 -0.11473
C_ C_ 0.553168 0.867898 0.788521 -0.11473
C_ C_ 0.80416 0.864894 0.782857 -0.11473
C_ C_ 0.551645 0.857991 0.711537 -0.11473
C_ C_ 0.819268 0.876759 0.712522 -0.11473
C_ C_ 0.532111 0.923137 0.744211 -0.02249
C_ C_ 0.782913 0.923647 0.745866 -0.02249
C_ C_ 0.582195 0.806812 0.75231 0.6875
C_ C_ 0.83905 0.812852 0.749177 0.6875
C_ C_ 0.540875 0.908305 0.78373 -0.11473
C_ C_ 0.786446 0.90016 0.78319 -0.11473
C_ C_ 0.680039 0.848075 0.743608 -0.02249
C_ C_ 0.937317 0.852143 0.758515 -0.02249
C_ C_ 0.732376 0.959712 0.736539 -0.02249
C_ C_ 0.986482 0.966039 0.764123 -0.02249
C_ C_ 0.699041 0.912439 0.775047 -0.11473
C_ C_ 0.967206 0.902422 0.798349 -0.11473
C_ C_ 0.701555 0.853668 0.711122 -0.11473
C_ C_ 0.939997 0.876304 0.721839 -0.11473
C_ C_ 0.678219 0.879957 0.774346 -0.11473
C_ C_ 0.952179 0.864295 0.797478 -0.11473
C_ C_ 0.71615 0.920118 0.740422 -0.02249
C_ C_ 0.971067 0.925074 0.760657 -0.02249
C_ C_ 0.6603 0.813097 0.742725 0.6875
C_ C_ 0.91919 0.813982 0.758108 0.6875
C_ C_ 0.719095 0.889298 0.709742 -0.11473
C_ C_ 0.959418 0.909645 0.721806 -0.11473
C_ C_ 0.678264 0.650251 0.745921 -0.02249
C_ C_ 0.935835 0.655776 0.747002 -0.02249
C_ C_ 0.737153 0.544554 0.744712 -0.02249
C_ C_ 0.984273 0.537933 0.742539 -0.02249
C_ C_ 0.708392 0.598281 0.782333 -0.11473
C_ C_ 0.965606 0.603438 0.781736 -0.11473
C_ C_ 0.691015 0.636575 0.708368 -0.11473
C_ C_ 0.939278 0.63345 0.708414 -0.11473
C_ C_ 0.690586 0.635228 0.782906 -0.11473
C_ C_ 0.950015 0.64038 0.783438 -0.11473
C_ C_ 0.720193 0.584774 0.744687 -0.02249
C_ C_ 0.967664 0.579624 0.743524 -0.02249
C_ C_ 0.659169 0.686865 0.744371 0.6875
C_ C_ 0.91608 0.692284 0.748549 0.6875
C_ C_ 0.709129 0.601063 0.70832 -0.11473
C_ C_ 0.957398 0.599112 0.706833 -0.11473
C_ C_ 0.562338 0.654242 0.750235 -0.02249
C_ C_ 0.82294 0.655692 0.747697 -0.02249
C_ C_ 0.512897 0.539684 0.744544 -0.02249
C_ C_ 0.769956 0.542875 0.74504 -0.02249
C_ C_ 0.528865 0.605769 0.71112 -0.11473
C_ C_ 0.802554 0.595966 0.712941 -0.11473
C_ C_ 0.558474 0.629515 0.787274 -0.11473
C_ C_ 0.804739 0.645639 0.783123 -0.11473
C_ C_ 0.545881 0.643908 0.71485 -0.11473
C_ C_ 0.8228 0.630032 0.713381 -0.11473
C_ C_ 0.529211 0.580062 0.747323 -0.02249
C_ C_ 0.787634 0.581665 0.748656 -0.02249
C_ C_ 0.583632 0.690082 0.751213 0.6875
C_ C_ 0.841979 0.694886 0.747529 0.6875
C_ C_ 0.541304 0.594657 0.786036 -0.11473
C_ C_ 0.787423 0.609342 0.783397 -0.11473
C_ C_ 0.651019 0.742048 0.875633 0.17695
C_ C_ 0.881724 0.710991 0.874104 0.17695
C_ C_ 0.598838 0.756794 0.877956 0.17695
C_ C_ 0.877776 0.783804 0.881389 0.17695
C_ C_ 0.599475 0.752814 0.921682 -0.11473
C_ C_ 0.877856 0.780283 0.924618 -0.11473
C_ C_ 0.6265 0.745968 0.945032 0.23465
C_ C_ 0.8808 0.740716 0.943365 0.23465
C_ C_ 0.652699 0.740244 0.920556 -0.11473
C_ C_ 0.887112 0.707236 0.917727 -0.11473
C_ C_ 0.612053 0.718832 0.621417 0.17695
C_ C_ 0.880536 0.796666 0.625761 0.17695
C_ C_ 0.615925 0.791368 0.625019 0.17695
C_ C_ 0.878552 0.725667 0.61524 0.17695
C_ C_ 0.610497 0.793873 0.581156 -0.11473
C_ C_ 0.88133 0.729279 0.572985 -0.11473
C_ C_ 0.609092 0.757875 0.557007 0.23465
C_ C_ 0.881449 0.770215 0.555914 0.23465
C_ C_ 0.609362 0.719358 0.577305 -0.11473
C_ C_ 0.881777 0.803973 0.581948 -0.11473
C_ C_ 0.533308 -0.00088692 0.738219 0.05793
C_ C_ 0.777831 0.000869554 0.754829 0.05793
C_ C_ 0.720102 0.508536 0.742251 0.05793
C_ C_ 0.968187 0.500105 0.740327 0.05793
Br Br 0.576499 -0.002905999999999964 0.743719 -0.17191
Br Br 0.822059 1.00685291 0.754359 -0.17191
Br Br 0.677185 0.508798 0.744571 -0.17191
Br Br 0.926714 0.499609 0.716691 -0.17191
N_ N_ 0.623858 0.746201 0.854975 -0.272
N_ N_ 0.878815 0.749068 0.856113 -0.272
N_ N_ 0.626815 0.738597 0.988785 -0.12501
N_ N_ 0.885187 0.739146 0.987429 -0.12501
N_ N_ 0.614899 0.753745 0.644067 -0.272
N_ N_ 0.881157 0.758183 0.641662 -0.272
N_ N_ 0.605985 0.763821 0.512145 -0.12501
N_ N_ 0.882498 0.776105 0.511484 -0.12501
O_ O_ 0.595478 0.794913 0.720259 -0.60745
O_ O_ 0.848325 0.796758 0.714775 -0.60745
O_ O_ 0.58612 0.787007 0.786843 -0.60745
O_ O_ 0.851589 0.802066 0.784688 -0.60745
O_ O_ 0.650331 0.797422 0.777529 -0.60745
O_ O_ 0.913573 0.793238 0.789969 -0.60745
O_ O_ 0.655039 0.793267 0.709352 -0.60745
O_ O_ 0.908099 0.801951 0.723699 -0.60745
O_ O_ 0.653391 0.706702 0.777626 -0.60745
O_ O_ 0.904158 0.704074 0.782307 -0.60745
O_ O_ 0.648307 0.700042 0.709369 -0.60745
O_ O_ 0.911786 0.714105 0.715611 -0.60745
O_ O_ 0.588442 0.710489 0.718704 -0.60745
O_ O_ 0.850603 0.709 0.712348 -0.60745
O_ O_ 0.592164 0.703083 0.786779 -0.60745
O_ O_ 0.844337 0.716884 0.778649 -0.60745
