_cell_length_a 44.444
_cell_length_b 32.3360000049186
_cell_length_c 31.843999878906452
_cell_angle_alpha 89.99799923859553
_cell_angle_beta 91.13600050494348
_cell_angle_gamma 89.9990006550086
_symmetry_space_group_name_H-M         'P 1'
_symmetry_Int_Tables_number            1
loop_
_symmetry_equiv_pos_as_xyz
   'x, y, z'
                         
loop_
_atom_site_label
_atom_site_type_symbol
_atom_site_fract_x 
_atom_site_fract_y
_atom_site_fract_z
_atom_site_charge
Zn Zn 0.121672 0.247435 0.285698 0.9476
Zn Zn 0.375051 0.2507 0.277708 0.9476
Zn Zn 0.123882 0.247332 0.21436 0.9476
Zn Zn 0.376974 0.248561 0.211739 0.9476
H_ H_ 0.040991 0.420995 0.184478 0.10932
H_ H_ 0.288409 0.420502 0.174301 0.10932
H_ H_ 0.0572361 0.347618 0.314226 0.10932
H_ H_ 0.314347 0.350676 0.307891 0.10932
H_ H_ 0.0681101 0.355712 0.184232 0.10932
H_ H_ 0.306685 0.345968 0.172827 0.10932
H_ H_ 0.0375652 0.414991 0.320263 0.10932
H_ H_ 0.274427 0.402971 0.306229 0.10932
H_ H_ 0.218051 0.404534 0.315328 0.10932
H_ H_ 0.456929 0.421963 0.328552 0.10932
H_ H_ 0.172017 0.36046 0.178502 0.10932
H_ H_ 0.43714 0.354202 0.186607 0.10932
H_ H_ 0.192256 0.338442 0.311437 0.10932
H_ H_ 0.429773 0.35772 0.322678 0.10932
H_ H_ 0.202816 0.426339 0.185526 0.10932
H_ H_ 0.464252 0.42207 0.192952 0.10932
H_ H_ 0.195562 0.0642214 0.304897 0.10932
H_ H_ 0.468783 0.0856105 0.318992 0.10932
H_ H_ 0.203383 0.165134 0.188525 0.10932
H_ H_ 0.434818 0.146076 0.183322 0.10932
H_ H_ 0.168966 0.130847 0.308117 0.10932
H_ H_ 0.43889 0.147119 0.317161 0.10932
H_ H_ 0.231609 0.102728 0.186935 0.10932
H_ H_ 0.464737 0.0810582 0.18386 0.10932
H_ H_ 0.0374145 0.0736067 0.193111 0.10932
H_ H_ 0.289168 0.075342 0.183741 0.10932
H_ H_ 0.0440667 0.163407 0.317378 0.10932
H_ H_ 0.3061 0.164136 0.309705 0.10932
H_ H_ 0.0687507 0.132719 0.192079 0.10932
H_ H_ 0.326235 0.134703 0.18067 0.10932
H_ H_ 0.0165121 0.0949157 0.323708 0.10932
H_ H_ 0.285573 0.0881684 0.317152 0.10932
H_ H_ 0.105618 0.306637 0.354306 0.10932
H_ H_ 0.388065 0.305364 0.362189 0.10932
H_ H_ 0.136686 0.182731 0.363343 0.10932
H_ H_ 0.357384 0.183709 0.347456 0.10932
H_ H_ 0.132204 0.184962 0.438593 0.10932
H_ H_ 0.35192 0.177152 0.420208 0.10932
H_ H_ 0.11024 0.315175 0.429609 0.10932
H_ H_ 0.392038 0.294929 0.440637 0.10932
H_ H_ 0.122359 0.316046 0.141207 0.10932
H_ H_ 0.428579 0.253911 0.142835 0.10932
H_ H_ 0.119187 0.18487 0.138769 0.10932
H_ H_ 0.335454 0.254011 0.130143 0.10932
H_ H_ 0.109111 0.188148 0.0598339 0.10932
H_ H_ 0.338156 0.250355 0.0525971 0.10932
H_ H_ 0.116081 0.319489 0.0618898 0.10932
H_ H_ 0.434697 0.246322 0.0701278 0.10932
C_ C_ 0.0650777 0.345473 0.249394 -0.02249
C_ C_ 0.315523 0.345566 0.241263 -0.02249
C_ C_ 0.0184821 0.462673 0.24936 -0.02249
C_ C_ 0.262184 0.458921 0.239562 -0.02249
C_ C_ 0.0434135 0.403917 0.213561 -0.11473
C_ C_ 0.290755 0.403468 0.20305 -0.11473
C_ C_ 0.0559126 0.364169 0.286796 -0.11473
C_ C_ 0.30617 0.365062 0.279517 -0.11473
C_ C_ 0.0603555 0.368321 0.213983 -0.11473
C_ C_ 0.30424 0.363409 0.20303 -0.11473
C_ C_ 0.0370869 0.424805 0.251254 -0.02249
C_ C_ 0.278622 0.418727 0.238995 -0.02249
C_ C_ 0.0822388 0.306429 0.248643 0.6875
C_ C_ 0.335395 0.306853 0.242679 0.6875
C_ C_ 0.044669 0.404504 0.289013 -0.11473
C_ C_ 0.28759 0.399674 0.277688 -0.11473
C_ C_ 0.180723 0.344985 0.245428 -0.02249
C_ C_ 0.43352 0.349092 0.255817 -0.02249
C_ C_ 0.2323 0.459686 0.25041 -0.02249
C_ C_ 0.484582 0.463247 0.260935 -0.02249
C_ C_ 0.20997 0.394521 0.284584 -0.11473
C_ C_ 0.455251 0.407055 0.296142 -0.11473
C_ C_ 0.183089 0.370033 0.209904 -0.11473
C_ C_ 0.44235 0.369724 0.217156 -0.11473
C_ C_ 0.193764 0.357506 0.283292 -0.11473
C_ C_ 0.43772 0.371596 0.293416 -0.11473
C_ C_ 0.215496 0.41876 0.248818 -0.02249
C_ C_ 0.466019 0.424501 0.259226 -0.02249
C_ C_ 0.162202 0.305916 0.245099 0.6875
C_ C_ 0.411873 0.314289 0.253494 0.6875
C_ C_ 0.20056 0.405619 0.21173 -0.11473
C_ C_ 0.458012 0.406777 0.22002 -0.11473
C_ C_ 0.184812 0.154094 0.250431 -0.02249
C_ C_ 0.435979 0.154336 0.251406 -0.02249
C_ C_ 0.236852 0.0406389 0.245371 -0.02249
C_ C_ 0.484823 0.0361903 0.250972 -0.02249
C_ C_ 0.200155 0.0876752 0.282065 -0.11473
C_ C_ 0.460059 0.0958293 0.289067 -0.11473
C_ C_ 0.202372 0.144612 0.21524 -0.11473
C_ C_ 0.444948 0.135723 0.214173 -0.11473
C_ C_ 0.186178 0.126542 0.284345 -0.11473
C_ C_ 0.445736 0.133633 0.289337 -0.11473
C_ C_ 0.218574 0.0793588 0.248733 -0.02249
C_ C_ 0.46828 0.0766035 0.251913 -0.02249
C_ C_ 0.163785 0.189442 0.24909 0.6875
C_ C_ 0.415661 0.1912 0.249254 0.6875
C_ C_ 0.219994 0.109552 0.215653 -0.11473
C_ C_ 0.459626 0.095952 0.21334 -0.11473
C_ C_ 0.0598527 0.153941 0.252955 -0.02249
C_ C_ 0.318132 0.154424 0.243604 -0.02249
C_ C_ 0.0106078 0.0378271 0.260334 -0.02249
C_ C_ 0.268328 0.0408991 0.252108 -0.02249
C_ C_ 0.0417779 0.089468 0.221548 -0.11473
C_ C_ 0.293072 0.0947833 0.210999 -0.11473
C_ C_ 0.0435788 0.142768 0.290828 -0.11473
C_ C_ 0.304881 0.142241 0.282542 -0.11473
C_ C_ 0.0577606 0.125689 0.220811 -0.11473
C_ C_ 0.314378 0.128138 0.208842 -0.11473
C_ C_ 0.0268753 0.0789935 0.258758 -0.02249
C_ C_ 0.284132 0.0809605 0.24972 -0.02249
C_ C_ 0.0818598 0.188351 0.255457 0.6875
C_ C_ 0.338999 0.189872 0.241157 0.6875
C_ C_ 0.0277909 0.106087 0.293964 -0.11473
C_ C_ 0.291585 0.102962 0.286478 -0.11473
C_ C_ 0.114983 0.280425 0.373344 0.17695
C_ C_ 0.38114 0.276176 0.375058 0.17695
C_ C_ 0.130635 0.211581 0.377528 0.17695
C_ C_ 0.362763 0.210344 0.366172 0.17695
C_ C_ 0.126907 0.213144 0.419813 -0.11473
C_ C_ 0.357768 0.206818 0.409406 -0.11473
C_ C_ 0.119774 0.250278 0.440223 0.23465
C_ C_ 0.367694 0.237448 0.436545 0.23465
C_ C_ 0.115135 0.285145 0.416931 -0.11473
C_ C_ 0.380712 0.271463 0.419713 -0.11473
C_ C_ 0.120348 0.287759 0.122558 0.17695
C_ C_ 0.409187 0.24959 0.124344 0.17695
C_ C_ 0.120061 0.214345 0.120741 0.17695
C_ C_ 0.355828 0.250213 0.116151 0.17695
C_ C_ 0.116374 0.214712 0.076798 -0.11473
C_ C_ 0.358741 0.252658 0.0718937 -0.11473
C_ C_ 0.11581 0.2514 0.0547434 0.23465
C_ C_ 0.38665 0.246868 0.0543011 0.23465
C_ C_ 0.117657 0.290061 0.0773977 -0.11473
C_ C_ 0.412573 0.248624 0.0815658 -0.11473
C_ C_ 0.0341262 0.502467 0.249963 0.05793
C_ C_ 0.277855 0.496453 0.235851 0.05793
C_ C_ 0.221982 0.00205517 0.241091 0.05793
C_ C_ 0.467212 0.9999486425 0.25172 0.05793
Br Br 0.0749683 0.50532 0.236525 -0.17191
Br Br 0.321808 0.492111 0.233814 -0.17191
Br Br 0.177681 0.0022384 0.234306 -0.17191
Br Br 0.425798 1.00474751 0.264717 -0.17191
N_ N_ 0.126955 0.247345 0.354474 -0.272
N_ N_ 0.371073 0.246596 0.348402 -0.272
N_ N_ 0.116118 0.250113 0.485801 -0.12501
N_ N_ 0.365378 0.231071 0.481739 -0.12501
N_ N_ 0.118973 0.250603 0.142498 -0.272
N_ N_ 0.381168 0.248578 0.141562 -0.272
N_ N_ 0.110747 0.249738 0.0105724 -0.12501
N_ N_ 0.388987 0.243295 0.00940525 -0.12501
O_ O_ 0.0928331 0.293137 0.213719 -0.60745
O_ O_ 0.340696 0.284993 0.209847 -0.60745
O_ O_ 0.0858012 0.285898 0.282223 -0.60745
O_ O_ 0.347575 0.297392 0.277436 -0.60745
O_ O_ 0.150888 0.290719 0.278989 -0.60745
O_ O_ 0.407522 0.292619 0.286475 -0.60745
O_ O_ 0.155166 0.28906 0.210693 -0.60745
O_ O_ 0.401935 0.300947 0.219132 -0.60745
O_ O_ 0.155277 0.206338 0.281984 -0.60745
O_ O_ 0.403156 0.202641 0.281463 -0.60745
O_ O_ 0.149764 0.19918 0.215077 -0.60745
O_ O_ 0.413566 0.212697 0.216548 -0.60745
O_ O_ 0.090766 0.202641 0.22036 -0.60745
O_ O_ 0.352584 0.19878 0.207885 -0.60745
O_ O_ 0.0924761 0.202365 0.290144 -0.60745
O_ O_ 0.343466 0.211538 0.27515 -0.60745
Zn Zn 0.122675 0.257176 0.784784 0.9476
Zn Zn 0.375938 0.250104 0.779721 0.9476
Zn Zn 0.125583 0.249357 0.714605 0.9476
Zn Zn 0.375901 0.247368 0.709443 0.9476
H_ H_ 0.0343947 0.419003 0.672459 0.10932
H_ H_ 0.289361 0.423724 0.680691 0.10932
H_ H_ 0.0520393 0.351785 0.808882 0.10932
H_ H_ 0.311224 0.34528 0.812456 0.10932
H_ H_ 0.0557445 0.348455 0.675356 0.10932
H_ H_ 0.313576 0.355571 0.679309 0.10932
H_ H_ 0.0270207 0.416798 0.80607 0.10932
H_ H_ 0.290527 0.419509 0.815255 0.10932
H_ H_ 0.217324 0.423342 0.81007 0.10932
H_ H_ 0.462747 0.411699 0.812834 0.10932
H_ H_ 0.183791 0.355329 0.680187 0.10932
H_ H_ 0.444358 0.350311 0.675797 0.10932
H_ H_ 0.190795 0.351681 0.816022 0.10932
H_ H_ 0.437151 0.346365 0.808301 0.10932
H_ H_ 0.223006 0.409664 0.678119 0.10932
H_ H_ 0.477108 0.410412 0.678835 0.10932
H_ H_ 0.21863 0.0913619 0.825222 0.10932
H_ H_ 0.474604 0.0985415 0.821239 0.10932
H_ H_ 0.179695 0.144105 0.690117 0.10932
H_ H_ 0.444127 0.145535 0.679084 0.10932
H_ H_ 0.188573 0.150372 0.823006 0.10932
H_ H_ 0.449535 0.162919 0.812855 0.10932
H_ H_ 0.208597 0.0759088 0.694425 0.10932
H_ H_ 0.461336 0.0730975 0.687827 0.10932
H_ H_ 0.0256062 0.0910026 0.67889 0.10932
H_ H_ 0.270547 0.0914193 0.686216 0.10932
H_ H_ 0.0708279 0.137421 0.81425 0.10932
H_ H_ 0.327891 0.140442 0.817584 0.10932
H_ H_ 0.0596816 0.155457 0.680832 0.10932
H_ H_ 0.303665 0.155362 0.683048 0.10932
H_ H_ 0.0378429 0.0756559 0.809893 0.10932
H_ H_ 0.288795 0.0788341 0.819005 0.10932
H_ H_ 0.121985 0.325062 0.851609 0.10932
H_ H_ 0.376759 0.320437 0.851057 0.10932
H_ H_ 0.120806 0.198336 0.860037 0.10932
H_ H_ 0.385691 0.191232 0.859823 0.10932
H_ H_ 0.119152 0.196127 0.935927 0.10932
H_ H_ 0.382458 0.19257 0.937904 0.10932
H_ H_ 0.123322 0.331032 0.932469 0.10932
H_ H_ 0.369608 0.32374 0.930161 0.10932
H_ H_ 0.114792 0.181246 0.645628 0.10932
H_ H_ 0.376617 0.184935 0.630435 0.10932
H_ H_ 0.137646 0.308345 0.634055 0.10932
H_ H_ 0.370273 0.315634 0.639209 0.10932
H_ H_ 0.142447 0.299791 0.556364 0.10932
H_ H_ 0.379953 0.319623 0.560444 0.10932
H_ H_ 0.114728 0.173519 0.567228 0.10932
H_ H_ 0.369612 0.185093 0.556858 0.10932
C_ C_ 0.0631117 0.349147 0.742534 -0.02249
C_ C_ 0.317839 0.346423 0.745076 -0.02249
C_ C_ 0.0135013 0.460626 0.737791 -0.02249
C_ C_ 0.27137 0.461755 0.7479 -0.02249
C_ C_ 0.0394409 0.40349 0.703498 -0.11473
C_ C_ 0.292713 0.40294 0.710054 -0.11473
C_ C_ 0.0504142 0.366255 0.777922 -0.11473
C_ C_ 0.309601 0.364174 0.783612 -0.11473
C_ C_ 0.0555272 0.36635 0.704171 -0.11473
C_ C_ 0.308535 0.366748 0.708277 -0.11473
C_ C_ 0.0287739 0.420538 0.739771 -0.02249
C_ C_ 0.28791 0.424148 0.747874 -0.02249
C_ C_ 0.0855104 0.314719 0.745407 0.6875
C_ C_ 0.338236 0.310097 0.745086 0.6875
C_ C_ 0.0341144 0.404071 0.777643 -0.11473
C_ C_ 0.295681 0.403981 0.785042 -0.11473
C_ C_ 0.181378 0.354898 0.747829 -0.02249
C_ C_ 0.434044 0.346399 0.740896 -0.02249
C_ C_ 0.239727 0.459186 0.745121 -0.02249
C_ C_ 0.484695 0.461371 0.75145 -0.02249
C_ C_ 0.214424 0.40261 0.783159 -0.11473
C_ C_ 0.459182 0.39895 0.78249 -0.11473
C_ C_ 0.193422 0.367506 0.709339 -0.11473
C_ C_ 0.448921 0.361942 0.704788 -0.11473
C_ C_ 0.195868 0.368185 0.785025 -0.11473
C_ C_ 0.444192 0.361737 0.779444 -0.11473
C_ C_ 0.223418 0.419531 0.744897 -0.02249
C_ C_ 0.468454 0.420275 0.745959 -0.02249
C_ C_ 0.160224 0.317613 0.750568 0.6875
C_ C_ 0.414769 0.310094 0.738975 0.6875
C_ C_ 0.216632 0.396327 0.708514 -0.11473
C_ C_ 0.466118 0.397768 0.708169 -0.11473
C_ C_ 0.180526 0.152545 0.757268 -0.02249
C_ C_ 0.439054 0.158113 0.746404 -0.02249
C_ C_ 0.230805 0.0392531 0.759255 -0.02249
C_ C_ 0.485283 0.0403881 0.761123 -0.02249
C_ C_ 0.208468 0.0986835 0.796177 -0.11473
C_ C_ 0.463818 0.104238 0.790528 -0.11473
C_ C_ 0.188039 0.131777 0.719533 -0.11473
C_ C_ 0.445597 0.133421 0.711191 -0.11473
C_ C_ 0.191415 0.133725 0.795452 -0.11473
C_ C_ 0.44987 0.143469 0.785593 -0.11473
C_ C_ 0.212919 0.0771233 0.759625 -0.02249
C_ C_ 0.469205 0.0792118 0.755923 -0.02249
C_ C_ 0.162017 0.191858 0.757136 0.6875
C_ C_ 0.418061 0.194337 0.743874 0.6875
C_ C_ 0.203222 0.09363 0.721335 -0.11473
C_ C_ 0.461087 0.0947604 0.715869 -0.11473
C_ C_ 0.0665414 0.153284 0.749688 -0.02249
C_ C_ 0.316063 0.152238 0.751359 -0.02249
C_ C_ 0.0159122 0.0356252 0.739961 -0.02249
C_ C_ 0.262859 0.0397888 0.752951 -0.02249
C_ C_ 0.0369756 0.102162 0.706755 -0.11473
C_ C_ 0.283556 0.101244 0.714925 -0.11473
C_ C_ 0.0614939 0.128825 0.785608 -0.11473
C_ C_ 0.313595 0.131183 0.790151 -0.11473
C_ C_ 0.054151 0.138883 0.710696 -0.11473
C_ C_ 0.301682 0.137541 0.713315 -0.11473
C_ C_ 0.0318921 0.0786175 0.743401 -0.02249
C_ C_ 0.277601 0.0805491 0.753011 -0.02249
C_ C_ 0.0863485 0.192454 0.749318 0.6875
C_ C_ 0.337899 0.188311 0.747424 0.6875
C_ C_ 0.0419082 0.09418 0.782671 -0.11473
C_ C_ 0.293282 0.0958762 0.790202 -0.11473
C_ C_ 0.120001 0.299521 0.871701 0.17695
C_ C_ 0.380223 0.293103 0.871946 0.17695
C_ C_ 0.120905 0.227351 0.876391 0.17695
C_ C_ 0.383947 0.220999 0.874979 0.17695
C_ C_ 0.121946 0.226721 0.920602 -0.11473
C_ C_ 0.378665 0.21986 0.919207 -0.11473
C_ C_ 0.123769 0.265424 0.941367 0.23465
C_ C_ 0.378191 0.258112 0.940322 0.23465
C_ C_ 0.121931 0.302319 0.916489 -0.11473
C_ C_ 0.376592 0.294163 0.916068 -0.11473
C_ C_ 0.120284 0.208173 0.624781 0.17695
C_ C_ 0.375418 0.215353 0.616185 0.17695
C_ C_ 0.136246 0.277332 0.61871 0.17695
C_ C_ 0.37172 0.288251 0.619177 0.17695
C_ C_ 0.13644 0.273995 0.57452 -0.11473
C_ C_ 0.375847 0.289535 0.575886 -0.11473
C_ C_ 0.129535 0.235922 0.555644 0.23465
C_ C_ 0.37619 0.25309 0.551203 0.23465
C_ C_ 0.1215 0.202862 0.581776 -0.11473
C_ C_ 0.373725 0.214905 0.571671 -0.11473
C_ C_ 0.0314522 0.497226 0.740025 0.05793
C_ C_ 0.286546 0.499561 0.750856 0.05793
C_ C_ 0.215831 -6.65044e-06 0.760692 0.05793
C_ C_ 0.468429 1.00438469 0.756856 0.05793
Br Br 0.0759888 0.49457 0.733093 -0.17191
Br Br 0.330443 0.505065 0.753099 -0.17191
Br Br 0.17315 0.000131856 0.762344 -0.17191
Br Br 0.424983 1.00524462 0.764117 -0.17191
N_ N_ 0.121838 0.262878 0.854087 -0.272
N_ N_ 0.382349 0.254801 0.85264 -0.272
N_ N_ 0.127172 0.269998 0.985414 -0.12501
N_ N_ 0.371471 0.25968 0.983702 -0.12501
N_ N_ 0.127813 0.244558 0.643562 -0.272
N_ N_ 0.374175 0.251023 0.638894 -0.272
N_ N_ 0.132674 0.230739 0.511385 -0.12501
N_ N_ 0.374116 0.258793 0.50753 -0.12501
O_ O_ 0.0949806 0.295248 0.712981 -0.60745
O_ O_ 0.34584 0.29318 0.710303 -0.60745
O_ O_ 0.093238 0.301692 0.780951 -0.60745
O_ O_ 0.343596 0.290573 0.779041 -0.60745
O_ O_ 0.151701 0.304711 0.786406 -0.60745
O_ O_ 0.404327 0.299065 0.773372 -0.60745
O_ O_ 0.154704 0.293604 0.718221 -0.60745
O_ O_ 0.410013 0.290934 0.704723 -0.60745
O_ O_ 0.154986 0.211852 0.791416 -0.60745
O_ O_ 0.410281 0.209805 0.779361 -0.60745
O_ O_ 0.152162 0.204736 0.721129 -0.60745
O_ O_ 0.405283 0.205295 0.708179 -0.60745
O_ O_ 0.0936589 0.206631 0.713722 -0.60745
O_ O_ 0.344022 0.204029 0.712183 -0.60745
O_ O_ 0.0927971 0.210899 0.783378 -0.60745
O_ O_ 0.346456 0.205251 0.78074 -0.60745
Zn Zn 0.129429 0.750973 0.285264 0.9476
Zn Zn 0.373571 0.747728 0.294878 0.9476
Zn Zn 0.127794 0.755351 0.214038 0.9476
Zn Zn 0.374567 0.743255 0.224183 0.9476
H_ H_ 0.038492 0.929006 0.190896 0.10932
H_ H_ 0.289748 0.91774 0.185314 0.10932
H_ H_ 0.0601971 0.842105 0.314719 0.10932
H_ H_ 0.314177 0.855431 0.322555 0.10932
H_ H_ 0.0734547 0.869057 0.183923 0.10932
H_ H_ 0.311381 0.846708 0.189401 0.10932
H_ H_ 0.0295046 0.905639 0.32208 0.10932
H_ H_ 0.297018 0.92991 0.3168 0.10932
H_ H_ 0.229393 0.914931 0.307769 0.10932
H_ H_ 0.468563 0.913721 0.316506 0.10932
H_ H_ 0.182414 0.858141 0.176948 0.10932
H_ H_ 0.423509 0.853912 0.184783 0.10932
H_ H_ 0.207499 0.839414 0.306793 0.10932
H_ H_ 0.441309 0.846513 0.316545 0.10932
H_ H_ 0.211532 0.926179 0.177001 0.10932
H_ H_ 0.452238 0.919027 0.183809 0.10932
H_ H_ 0.223357 0.58868 0.317297 0.10932
H_ H_ 0.474434 0.590712 0.324897 0.10932
H_ H_ 0.177262 0.640722 0.184119 0.10932
H_ H_ 0.423062 0.634867 0.193902 0.10932
H_ H_ 0.186924 0.647917 0.318422 0.10932
H_ H_ 0.437823 0.646126 0.325405 0.10932
H_ H_ 0.207338 0.574638 0.185349 0.10932
H_ H_ 0.459114 0.573309 0.191885 0.10932
H_ H_ 0.0298275 0.595119 0.183955 0.10932
H_ H_ 0.273794 0.590055 0.184095 0.10932
H_ H_ 0.0683357 0.644545 0.322127 0.10932
H_ H_ 0.321544 0.632872 0.317688 0.10932
H_ H_ 0.0574987 0.65777 0.189386 0.10932
H_ H_ 0.293601 0.661306 0.191727 0.10932
H_ H_ 0.0370072 0.581461 0.318733 0.10932
H_ H_ 0.290646 0.569695 0.31187 0.10932
H_ H_ 0.13717 0.821846 0.368175 0.10932
H_ H_ 0.398087 0.695569 0.376471 0.10932
H_ H_ 0.132203 0.690451 0.353987 0.10932
H_ H_ 0.352686 0.811332 0.365183 0.10932
H_ H_ 0.12362 0.679938 0.427727 0.10932
H_ H_ 0.342843 0.810029 0.442141 0.10932
H_ H_ 0.131467 0.812205 0.444188 0.10932
H_ H_ 0.393779 0.699592 0.455081 0.10932
H_ H_ 0.178244 0.751009 0.142865 0.10932
H_ H_ 0.367423 0.676769 0.140876 0.10932
H_ H_ 0.0843496 0.745707 0.136624 0.10932
H_ H_ 0.377067 0.805628 0.15745 0.10932
H_ H_ 0.0855039 0.746095 0.056468 0.10932
H_ H_ 0.377184 0.818126 0.0795246 0.10932
H_ H_ 0.182218 0.74046 0.0650418 0.10932
H_ H_ 0.362155 0.684972 0.0633352 0.10932
C_ C_ 0.0690011 0.850774 0.248269 -0.02249
C_ C_ 0.319239 0.848649 0.255605 -0.02249
C_ C_ 0.0123862 0.961379 0.257662 -0.02249
C_ C_ 0.268795 0.963254 0.249684 -0.02249
C_ C_ 0.0430771 0.909047 0.217138 -0.11473
C_ C_ 0.295465 0.904617 0.215459 -0.11473
C_ C_ 0.0580152 0.86262 0.288008 -0.11473
C_ C_ 0.311864 0.870595 0.291987 -0.11473
C_ C_ 0.06237 0.87573 0.21348 -0.11473
C_ C_ 0.309551 0.865724 0.21752 -0.11473
C_ C_ 0.0309204 0.921185 0.255953 -0.02249
C_ C_ 0.28617 0.923027 0.251861 -0.02249
C_ C_ 0.0904796 0.814514 0.247256 0.6875
C_ C_ 0.335518 0.808481 0.259043 0.6875
C_ C_ 0.0379883 0.896703 0.29043 -0.11473
C_ C_ 0.297629 0.909931 0.290399 -0.11473
C_ C_ 0.187914 0.847646 0.24504 -0.02249
C_ C_ 0.4279 0.845369 0.252737 -0.02249
C_ C_ 0.236859 0.96351 0.24131 -0.02249
C_ C_ 0.481316 0.960323 0.24935 -0.02249
C_ C_ 0.217922 0.900653 0.280903 -0.11473
C_ C_ 0.458502 0.900594 0.287279 -0.11473
C_ C_ 0.191465 0.870396 0.206558 -0.11473
C_ C_ 0.429595 0.868523 0.214574 -0.11473
C_ C_ 0.202195 0.863218 0.282426 -0.11473
C_ C_ 0.44595 0.860302 0.286762 -0.11473
C_ C_ 0.220189 0.922676 0.243348 -0.02249
C_ C_ 0.462582 0.921379 0.248886 -0.02249
C_ C_ 0.17079 0.808061 0.244933 0.6875
C_ C_ 0.4125 0.806485 0.255738 0.6875
C_ C_ 0.21095 0.905658 0.205868 -0.11473
C_ C_ 0.448692 0.904302 0.213752 -0.11473
C_ C_ 0.180002 0.648087 0.249365 -0.02249
C_ C_ 0.431529 0.646842 0.257661 -0.02249
C_ C_ 0.230948 0.535188 0.246818 -0.02249
C_ C_ 0.486687 0.538635 0.260324 -0.02249
C_ C_ 0.21228 0.598363 0.288326 -0.11473
C_ C_ 0.461566 0.597458 0.29597 -0.11473
C_ C_ 0.187836 0.630056 0.212106 -0.11473
C_ C_ 0.435203 0.624404 0.221054 -0.11473
C_ C_ 0.19448 0.634384 0.287149 -0.11473
C_ C_ 0.442768 0.631468 0.297393 -0.11473
C_ C_ 0.214444 0.575276 0.249894 -0.02249
C_ C_ 0.469868 0.578972 0.258333 -0.02249
C_ C_ 0.161534 0.686679 0.248508 0.6875
C_ C_ 0.411665 0.685074 0.256757 0.6875
C_ C_ 0.202921 0.591875 0.212333 -0.11473
C_ C_ 0.455135 0.589846 0.221106 -0.11473
C_ C_ 0.0643934 0.657117 0.254771 -0.02249
C_ C_ 0.313243 0.649712 0.25361 -0.02249
C_ C_ 0.0173664 0.541444 0.250067 -0.02249
C_ C_ 0.262563 0.534731 0.240972 -0.02249
C_ C_ 0.0391534 0.60413 0.214749 -0.11473
C_ C_ 0.283752 0.600005 0.212232 -0.11473
C_ C_ 0.0598342 0.633674 0.291127 -0.11473
C_ C_ 0.313055 0.622338 0.28879 -0.11473
C_ C_ 0.0540345 0.642769 0.217083 -0.11473
C_ C_ 0.298402 0.637677 0.216155 -0.11473
C_ C_ 0.0317248 0.581866 0.250123 -0.02249
C_ C_ 0.280763 0.573845 0.246979 -0.02249
C_ C_ 0.0867596 0.693507 0.254594 0.6875
C_ C_ 0.33443 0.68712 0.255068 0.6875
C_ C_ 0.0427317 0.596689 0.289009 -0.11473
C_ C_ 0.293926 0.587638 0.286354 -0.11473
C_ C_ 0.136911 0.789128 0.381582 0.17695
C_ C_ 0.387524 0.722067 0.391544 0.17695
C_ C_ 0.133538 0.716484 0.373551 0.17695
C_ C_ 0.36038 0.784688 0.384287 0.17695
C_ C_ 0.127806 0.711535 0.415513 -0.11473
C_ C_ 0.352914 0.783762 0.427621 -0.11473
C_ C_ 0.130077 0.746454 0.442553 0.23465
C_ C_ 0.368746 0.7558 0.453753 0.23465
C_ C_ 0.132579 0.785492 0.425279 -0.11473
C_ C_ 0.384818 0.724254 0.434534 -0.11473
C_ C_ 0.158572 0.743602 0.12348 0.17695
C_ C_ 0.370085 0.707325 0.12708 0.17695
C_ C_ 0.10562 0.747435 0.119342 0.17695
C_ C_ 0.376158 0.779423 0.136621 0.17695
C_ C_ 0.105383 0.74889 0.0751526 -0.11473
C_ C_ 0.375166 0.786508 0.0928811 -0.11473
C_ C_ 0.133098 0.743941 0.0559915 0.23465
C_ C_ 0.372323 0.751162 0.06655 0.23465
C_ C_ 0.160191 0.743463 0.0793614 -0.11473
C_ C_ 0.369174 0.711463 0.0833468 -0.11473
C_ C_ 0.0275776 1.000828162 0.260539 0.05793
C_ C_ 0.28423 1.00155786 0.253999 0.05793
C_ C_ 0.21605 0.497836 0.256891 0.05793
C_ C_ 0.471435 0.502336 0.269294 0.05793
Br Br 0.0701661 0.00474027 0.272198 -0.17191
Br Br 0.328475 1.0016366 0.253903 -0.17191
Br Br 0.172735 0.497271 0.267458 -0.17191
Br Br 0.432239 0.507329 0.291937 -0.17191
N_ N_ 0.134722 0.754424 0.356335 -0.272
N_ N_ 0.373854 0.751367 0.366443 -0.272
N_ N_ 0.13108 0.740269 0.487574 -0.12501
N_ N_ 0.36511 0.760572 0.49811 -0.12501
N_ N_ 0.131205 0.751025 0.142759 -0.272
N_ N_ 0.375014 0.740677 0.153172 -0.272
N_ N_ 0.135135 0.752079 0.0117164 -0.12501
N_ N_ 0.372631 0.759112 0.0213292 -0.12501
O_ O_ 0.0995599 0.799872 0.213253 -0.60745
O_ O_ 0.345523 0.791914 0.225835 -0.60745
O_ O_ 0.100148 0.799477 0.281447 -0.60745
O_ O_ 0.341135 0.793215 0.29448 -0.60745
O_ O_ 0.162909 0.791571 0.279106 -0.60745
O_ O_ 0.402906 0.793588 0.290467 -0.60745
O_ O_ 0.163965 0.791897 0.209533 -0.60745
O_ O_ 0.407303 0.78625 0.222783 -0.60745
O_ O_ 0.156315 0.704794 0.282159 -0.60745
O_ O_ 0.404072 0.703587 0.290963 -0.60745
O_ O_ 0.154986 0.703292 0.213889 -0.60745
O_ O_ 0.402856 0.69818 0.222025 -0.60745
O_ O_ 0.0917127 0.712865 0.220609 -0.60745
O_ O_ 0.343771 0.701947 0.22123 -0.60745
O_ O_ 0.0971377 0.708285 0.289705 -0.60745
O_ O_ 0.344049 0.700418 0.29152 -0.60745
Zn Zn 0.125713 0.746523 0.784942 0.9476
Zn Zn 0.374646 0.751118 0.793176 0.9476
Zn Zn 0.127891 0.748228 0.713839 0.9476
Zn Zn 0.372311 0.751931 0.723728 0.9476
H_ H_ 0.0444678 0.91808 0.681443 0.10932
H_ H_ 0.278973 0.913478 0.683182 0.10932
H_ H_ 0.0659039 0.853706 0.818571 0.10932
H_ H_ 0.317129 0.8636 0.821493 0.10932
H_ H_ 0.0740754 0.854269 0.684051 0.10932
H_ H_ 0.300234 0.843492 0.688705 0.10932
H_ H_ 0.0406728 0.922907 0.815239 0.10932
H_ H_ 0.294849 0.930785 0.81595 0.10932
H_ H_ 0.199504 0.929061 0.82186 0.10932
H_ H_ 0.458319 0.927215 0.8283 0.10932
H_ H_ 0.199619 0.840374 0.694488 0.10932
H_ H_ 0.430463 0.857246 0.695977 0.10932
H_ H_ 0.178203 0.860949 0.822413 0.10932
H_ H_ 0.439799 0.857568 0.83419 0.10932
H_ H_ 0.216813 0.913277 0.688944 0.10932
H_ H_ 0.460457 0.918086 0.694121 0.10932
H_ H_ 0.212248 0.573802 0.813776 0.10932
H_ H_ 0.463749 0.580724 0.820653 0.10932
H_ H_ 0.192933 0.649839 0.676814 0.10932
H_ H_ 0.433279 0.651307 0.689208 0.10932
H_ H_ 0.178164 0.635982 0.810507 0.10932
H_ H_ 0.432039 0.638574 0.822252 0.10932
H_ H_ 0.228319 0.589352 0.682004 0.10932
H_ H_ 0.460801 0.587216 0.685626 0.10932
H_ H_ 0.0244578 0.593914 0.674538 0.10932
H_ H_ 0.290673 0.580558 0.684834 0.10932
H_ H_ 0.0758966 0.634189 0.810958 0.10932
H_ H_ 0.317625 0.645135 0.821012 0.10932
H_ H_ 0.0567409 0.653426 0.675896 0.10932
H_ H_ 0.314409 0.647452 0.686355 0.10932
H_ H_ 0.0499339 0.565009 0.807404 0.10932
H_ H_ 0.287973 0.577635 0.820087 0.10932
H_ H_ 0.123551 0.80392 0.862731 0.10932
H_ H_ 0.374731 0.811897 0.879113 0.10932
H_ H_ 0.130237 0.677148 0.851473 0.10932
H_ H_ 0.376996 0.679505 0.85948 0.10932
H_ H_ 0.134084 0.666534 0.929212 0.10932
H_ H_ 0.371577 0.671137 0.936208 0.10932
H_ H_ 0.13027 0.798377 0.941026 0.10932
H_ H_ 0.365744 0.797672 0.952664 0.10932
H_ H_ 0.112739 0.695332 0.633431 0.10932
H_ H_ 0.326576 0.749549 0.643337 0.10932
H_ H_ 0.150754 0.814823 0.646787 0.10932
H_ H_ 0.419999 0.759555 0.65478 0.10932
H_ H_ 0.150444 0.821403 0.569281 0.10932
H_ H_ 0.426388 0.745384 0.579066 0.10932
H_ H_ 0.11755 0.69939 0.558108 0.10932
H_ H_ 0.330709 0.726748 0.568305 0.10932
C_ C_ 0.0710501 0.846604 0.751172 -0.02249
C_ C_ 0.313582 0.849353 0.755019 -0.02249
C_ C_ 0.0188383 0.959257 0.747131 -0.02249
C_ C_ 0.263944 0.964452 0.748309 -0.02249
C_ C_ 0.0466277 0.901852 0.710698 -0.11473
C_ C_ 0.28709 0.903469 0.713636 -0.11473
C_ C_ 0.0610134 0.866344 0.789383 -0.11473
C_ C_ 0.312139 0.876395 0.789988 -0.11473
C_ C_ 0.0651568 0.866303 0.713288 -0.11473
C_ C_ 0.299012 0.862687 0.716702 -0.11473
C_ C_ 0.0362793 0.920963 0.748325 -0.02249
C_ C_ 0.284103 0.927411 0.749513 -0.02249
C_ C_ 0.0901044 0.809058 0.752336 0.6875
C_ C_ 0.33027 0.810413 0.755517 0.6875
C_ C_ 0.0424514 0.90234 0.787646 -0.11473
C_ C_ 0.296743 0.913604 0.788321 -0.11473
C_ C_ 0.185279 0.84665 0.757839 -0.02249
C_ C_ 0.431958 0.849549 0.765723 -0.02249
C_ C_ 0.232248 0.96312 0.758224 -0.02249
C_ C_ 0.482738 0.965262 0.759016 -0.02249
C_ C_ 0.202547 0.9091 0.794124 -0.11473
C_ C_ 0.458038 0.908091 0.801131 -0.11473
C_ C_ 0.195615 0.862508 0.719828 -0.11473
C_ C_ 0.438926 0.868691 0.726007 -0.11473
C_ C_ 0.188881 0.870156 0.795202 -0.11473
C_ C_ 0.442365 0.869761 0.80293 -0.11473
C_ C_ 0.216533 0.922944 0.757432 -0.02249
C_ C_ 0.463479 0.926551 0.761855 -0.02249
C_ C_ 0.166067 0.8089 0.755676 0.6875
C_ C_ 0.413469 0.811871 0.764032 0.6875
C_ C_ 0.211567 0.900114 0.720022 -0.11473
C_ C_ 0.454449 0.90604 0.725231 -0.11473
C_ C_ 0.186065 0.650759 0.744949 -0.02249
C_ C_ 0.432465 0.653776 0.756773 -0.02249
C_ C_ 0.236858 0.535703 0.745457 -0.02249
C_ C_ 0.48098 0.537899 0.752147 -0.02249
C_ C_ 0.206987 0.589775 0.784387 -0.11473
C_ C_ 0.458149 0.595889 0.791853 -0.11473
C_ C_ 0.198165 0.635142 0.707767 -0.11473
C_ C_ 0.439516 0.635393 0.718108 -0.11473
C_ C_ 0.190302 0.626435 0.783612 -0.11473
C_ C_ 0.441407 0.633519 0.792356 -0.11473
C_ C_ 0.219039 0.57488 0.747123 -0.02249
C_ C_ 0.463314 0.57649 0.753849 -0.02249
C_ C_ 0.165035 0.687326 0.746132 0.6875
C_ C_ 0.414113 0.691928 0.758343 0.6875
C_ C_ 0.21343 0.596548 0.708466 -0.11473
C_ C_ 0.456322 0.598378 0.71599 -0.11473
C_ C_ 0.0680068 0.649964 0.742587 -0.02249
C_ C_ 0.31619 0.654994 0.754635 -0.02249
C_ C_ 0.0167682 0.536049 0.738021 -0.02249
C_ C_ 0.268919 0.53776 0.753594 -0.02249
C_ C_ 0.037569 0.600281 0.703247 -0.11473
C_ C_ 0.296639 0.59509 0.715783 -0.11473
C_ C_ 0.0649861 0.625291 0.779956 -0.11473
C_ C_ 0.311537 0.631178 0.792216 -0.11473
C_ C_ 0.0533524 0.637684 0.705253 -0.11473
C_ C_ 0.311054 0.632469 0.71589 -0.11473
C_ C_ 0.0342695 0.575426 0.7405 -0.02249
C_ C_ 0.286188 0.577599 0.753208 -0.02249
C_ C_ 0.0855863 0.689532 0.7446 0.6875
C_ C_ 0.335765 0.691388 0.752209 0.6875
C_ C_ 0.0496839 0.587046 0.779253 -0.11473
C_ C_ 0.294111 0.594646 0.791629 -0.11473
C_ C_ 0.127186 0.774696 0.877931 0.17695
C_ C_ 0.375044 0.780303 0.890717 0.17695
C_ C_ 0.12937 0.703013 0.870564 0.17695
C_ C_ 0.373143 0.707775 0.878984 0.17695
C_ C_ 0.131568 0.698381 0.914406 -0.11473
C_ C_ 0.370995 0.702249 0.922801 -0.11473
C_ C_ 0.131174 0.732029 0.940011 0.23465
C_ C_ 0.369937 0.735653 0.949878 0.23465
C_ C_ 0.128907 0.771103 0.922518 -0.11473
C_ C_ 0.369485 0.774109 0.932781 -0.11473
C_ C_ 0.122086 0.722833 0.621345 0.17695
C_ C_ 0.347607 0.751034 0.627758 0.17695
C_ C_ 0.140977 0.791498 0.626754 0.17695
C_ C_ 0.400325 0.756537 0.635465 0.17695
C_ C_ 0.141088 0.794371 0.58246 -0.11473
C_ C_ 0.403539 0.748169 0.592349 -0.11473
C_ C_ 0.131797 0.7621 0.557194 0.23465
C_ C_ 0.37824 0.741509 0.56657 0.23465
C_ C_ 0.122427 0.725489 0.577069 -0.11473
C_ C_ 0.349626 0.742455 0.584552 -0.11473
C_ C_ 0.0331607 -0.00141358 0.745093 0.05793
C_ C_ 0.27928 0.00400854 0.746718 0.05793
C_ C_ 0.222558 0.496611 0.74362 0.05793
C_ C_ 0.467294 0.497998 0.755713 0.05793
Br Br 0.0756973 0.00361137 0.731934 -0.17191
Br Br 0.321967 0.0089293 0.731364 -0.17191
Br Br 0.179294 0.49858 0.734462 -0.17191
Br Br 0.424673 0.489837 0.755806 -0.17191
N_ N_ 0.124457 0.741761 0.853575 -0.272
N_ N_ 0.374495 0.746652 0.863104 -0.272
N_ N_ 0.127983 0.724328 0.984384 -0.12501
N_ N_ 0.37123 0.729187 0.995371 -0.12501
N_ N_ 0.131322 0.755611 0.644068 -0.272
N_ N_ 0.373055 0.755294 0.652692 -0.272
N_ N_ 0.129783 0.768877 0.512905 -0.12501
N_ N_ 0.381001 0.738907 0.523788 -0.12501
O_ O_ 0.0961072 0.793151 0.71632 -0.60745
O_ O_ 0.337233 0.791992 0.721375 -0.60745
O_ O_ 0.0963215 0.78962 0.787138 -0.60745
O_ O_ 0.341945 0.797561 0.789611 -0.60745
O_ O_ 0.157842 0.790322 0.788871 -0.60745
O_ O_ 0.401699 0.797992 0.798074 -0.60745
O_ O_ 0.158302 0.793756 0.720585 -0.60745
O_ O_ 0.401942 0.801403 0.729227 -0.60745
O_ O_ 0.154697 0.699681 0.781506 -0.60745
O_ O_ 0.407375 0.707124 0.793739 -0.60745
O_ O_ 0.160245 0.708484 0.713048 -0.60745
O_ O_ 0.405482 0.709767 0.725875 -0.60745
O_ O_ 0.0968765 0.702527 0.710961 -0.60745
O_ O_ 0.341912 0.705845 0.716376 -0.60745
O_ O_ 0.0935572 0.704814 0.780482 -0.60745
O_ O_ 0.344625 0.707572 0.78662 -0.60745
Zn Zn 0.623399 0.247045 0.290629 0.9476
Zn Zn 0.872725 0.254541 0.285852 0.9476
Zn Zn 0.622532 0.247221 0.218774 0.9476
Zn Zn 0.873052 0.253723 0.213054 0.9476
H_ H_ 0.528698 0.41304 0.184021 0.10932
H_ H_ 0.78158 0.412322 0.177425 0.10932
H_ H_ 0.576065 0.354727 0.312805 0.10932
H_ H_ 0.816992 0.362029 0.315392 0.10932
H_ H_ 0.559569 0.34762 0.18209 0.10932
H_ H_ 0.799243 0.340079 0.184044 0.10932
H_ H_ 0.535643 0.417898 0.318425 0.10932
H_ H_ 0.783489 0.426618 0.311706 0.10932
H_ H_ 0.732113 0.406873 0.314895 0.10932
H_ H_ 0.963077 0.426908 0.31353 0.10932
H_ H_ 0.668902 0.359405 0.193394 0.10932
H_ H_ 0.946514 0.340557 0.186756 0.10932
H_ H_ 0.702384 0.340232 0.316751 0.10932
H_ H_ 0.926979 0.365403 0.318294 0.10932
H_ H_ 0.705111 0.424756 0.187185 0.10932
H_ H_ 0.972598 0.409253 0.182353 0.10932
H_ H_ 0.724021 0.0872813 0.3122 0.10932
H_ H_ 0.945935 0.0762582 0.315994 0.10932
H_ H_ 0.669878 0.138052 0.186268 0.10932
H_ H_ 0.949106 0.157617 0.188365 0.10932
H_ H_ 0.699377 0.153956 0.315981 0.10932
H_ H_ 0.920782 0.143892 0.315782 0.10932
H_ H_ 0.698312 0.0732953 0.183523 0.10932
H_ H_ 0.962743 0.0809997 0.189289 0.10932
H_ H_ 0.54611 0.0672623 0.184641 0.10932
H_ H_ 0.780378 0.0837619 0.18104 0.10932
H_ H_ 0.560498 0.147122 0.315497 0.10932
H_ H_ 0.817494 0.143664 0.316557 0.10932
H_ H_ 0.570381 0.134804 0.182363 0.10932
H_ H_ 0.810706 0.147488 0.177826 0.10932
H_ H_ 0.533587 0.0782901 0.316965 0.10932
H_ H_ 0.782489 0.0861643 0.31719 0.10932
H_ H_ 0.628623 0.190948 0.372588 0.10932
H_ H_ 0.889672 0.188669 0.356319 0.10932
H_ H_ 0.616812 0.316746 0.362457 0.10932
H_ H_ 0.863192 0.315534 0.36303 0.10932
H_ H_ 0.62635 0.326165 0.441268 0.10932
H_ H_ 0.862485 0.311893 0.44217 0.10932
H_ H_ 0.623546 0.19258 0.443639 0.10932
H_ H_ 0.891334 0.183834 0.430632 0.10932
H_ H_ 0.615335 0.183985 0.144307 0.10932
H_ H_ 0.873164 0.318797 0.141146 0.10932
H_ H_ 0.629876 0.312733 0.137027 0.10932
H_ H_ 0.885216 0.188022 0.1359 0.10932
H_ H_ 0.631394 0.309787 0.0584366 0.10932
H_ H_ 0.883671 0.192671 0.0570217 0.10932
H_ H_ 0.611236 0.180087 0.0699605 0.10932
H_ H_ 0.878184 0.323447 0.0626469 0.10932
C_ C_ 0.567208 0.347335 0.247119 -0.02249
C_ C_ 0.814589 0.349524 0.250951 -0.02249
C_ C_ 0.516896 0.460642 0.252635 -0.02249
C_ C_ 0.76311 0.462367 0.240008 -0.02249
C_ C_ 0.539716 0.403468 0.212079 -0.11473
C_ C_ 0.789565 0.40157 0.208025 -0.11473
C_ C_ 0.56194 0.367626 0.286498 -0.11473
C_ C_ 0.807939 0.372896 0.286948 -0.11473
C_ C_ 0.557948 0.366227 0.209972 -0.11473
C_ C_ 0.800229 0.360865 0.211421 -0.11473
C_ C_ 0.531301 0.420139 0.251925 -0.02249
C_ C_ 0.781295 0.424112 0.243519 -0.02249
C_ C_ 0.585579 0.306749 0.249079 0.6875
C_ C_ 0.831869 0.309608 0.254256 0.6875
C_ C_ 0.542964 0.403335 0.289525 -0.11473
C_ C_ 0.79184 0.410768 0.284676 -0.11473
C_ C_ 0.684811 0.345365 0.255588 -0.02249
C_ C_ 0.934009 0.347627 0.25253 -0.02249
C_ C_ 0.732407 0.460807 0.250196 -0.02249
C_ C_ 0.986288 0.462587 0.246679 -0.02249
C_ C_ 0.719123 0.395509 0.288353 -0.11473
C_ C_ 0.958666 0.407064 0.286757 -0.11473
C_ C_ 0.684492 0.369514 0.218368 -0.11473
C_ C_ 0.948583 0.36038 0.21515 -0.11473
C_ C_ 0.702843 0.359212 0.289955 -0.11473
C_ C_ 0.938304 0.373275 0.288263 -0.11473
C_ C_ 0.716891 0.420037 0.25125 -0.02249
C_ C_ 0.968252 0.422403 0.248419 -0.02249
C_ C_ 0.665306 0.304964 0.257002 0.6875
C_ C_ 0.914333 0.313159 0.252617 0.6875
C_ C_ 0.70351 0.405674 0.215272 -0.11473
C_ C_ 0.964596 0.398078 0.213016 -0.11473
C_ C_ 0.681009 0.148418 0.252922 -0.02249
C_ C_ 0.93569 0.158064 0.253224 -0.02249
C_ C_ 0.733488 0.0364416 0.24844 -0.02249
C_ C_ 0.978609 0.0375555 0.255996 -0.02249
C_ C_ 0.713791 0.0982526 0.284472 -0.11473
C_ C_ 0.946675 0.0945077 0.288624 -0.11473
C_ C_ 0.681374 0.125935 0.215003 -0.11473
C_ C_ 0.950398 0.140621 0.217585 -0.11473
C_ C_ 0.69588 0.134191 0.287444 -0.11473
C_ C_ 0.933697 0.133931 0.288562 -0.11473
C_ C_ 0.716635 0.0766709 0.246542 -0.02249
C_ C_ 0.962187 0.0784837 0.254578 -0.02249
C_ C_ 0.662438 0.186938 0.255937 0.6875
C_ C_ 0.916257 0.193874 0.249122 0.6875
C_ C_ 0.698278 0.0899574 0.212777 -0.11473
C_ C_ 0.95668 0.0981814 0.216663 -0.11473
C_ C_ 0.563255 0.149247 0.247637 -0.02249
C_ C_ 0.818071 0.151268 0.246441 -0.02249
C_ C_ 0.51657 0.0333648 0.248469 -0.02249
C_ C_ 0.766419 0.0348456 0.249517 -0.02249
C_ C_ 0.546845 0.0854371 0.212567 -0.11473
C_ C_ 0.789265 0.0948144 0.211114 -0.11473
C_ C_ 0.5552 0.131015 0.286326 -0.11473
C_ C_ 0.809022 0.132154 0.285762 -0.11473
C_ C_ 0.561171 0.124839 0.211034 -0.11473
C_ C_ 0.806842 0.131865 0.208909 -0.11473
C_ C_ 0.535103 0.0710188 0.249501 -0.02249
C_ C_ 0.78476 0.0747214 0.249512 -0.02249
C_ C_ 0.583215 0.187859 0.247304 0.6875
C_ C_ 0.836147 0.190272 0.244452 0.6875
C_ C_ 0.539239 0.0931295 0.287015 -0.11473
C_ C_ 0.791023 0.09661 0.287274 -0.11473
C_ C_ 0.623209 0.220966 0.386335 0.17695
C_ C_ 0.882262 0.215154 0.373939 0.17695
C_ C_ 0.623795 0.29155 0.379402 0.17695
C_ C_ 0.868792 0.286805 0.378956 0.17695
C_ C_ 0.625184 0.297137 0.423986 -0.11473
C_ C_ 0.864558 0.283816 0.42214 -0.11473
C_ C_ 0.625323 0.261307 0.448867 0.23465
C_ C_ 0.873552 0.245942 0.44173 0.23465
C_ C_ 0.621536 0.223299 0.429122 -0.11473
C_ C_ 0.883004 0.213029 0.417373 -0.11473
C_ C_ 0.617858 0.211756 0.126651 0.17695
C_ C_ 0.876564 0.291022 0.123283 0.17695
C_ C_ 0.629018 0.284258 0.121604 0.17695
C_ C_ 0.881863 0.218008 0.120792 0.17695
C_ C_ 0.626368 0.282668 0.0771218 -0.11473
C_ C_ 0.883266 0.220124 0.0757798 -0.11473
C_ C_ 0.617982 0.244536 0.0576079 0.23465
C_ C_ 0.881972 0.258617 0.0560064 0.23465
C_ C_ 0.61049 0.210751 0.0831681 -0.11473
C_ C_ 0.878896 0.294497 0.0793826 -0.11473
C_ C_ 0.531738 0.498058 0.243832 0.05793
C_ C_ 0.777029 0.501204 0.235156 0.05793
C_ C_ 0.717394 0.998528 0.245481 0.05793
C_ C_ 0.963303 1.00004 0.257807 0.05793
Br Br 0.569464 0.497392 0.214937 -0.17191
Br Br 0.81785 0.50308 0.213744 -0.17191
Br Br 0.674476 -0.004910999999999999 0.236228 -0.17191
Br Br 0.919673 -0.00230527 0.248575 -0.17191
N_ N_ 0.620773 0.254757 0.360761 -0.272
N_ N_ 0.87665 0.253679 0.355753 -0.272
N_ N_ 0.619364 0.264553 0.492489 -0.12501
N_ N_ 0.876049 0.242147 0.485593 -0.12501
N_ N_ 0.625843 0.249176 0.145732 -0.272
N_ N_ 0.877888 0.253765 0.143403 -0.272
N_ N_ 0.621948 0.237889 0.0139378 -0.12501
N_ N_ 0.885495 0.262458 0.0129955 -0.12501
O_ O_ 0.592459 0.288021 0.215346 -0.60745
O_ O_ 0.841141 0.293384 0.219509 -0.60745
O_ O_ 0.591838 0.291782 0.283749 -0.60745
O_ O_ 0.841548 0.297354 0.289549 -0.60745
O_ O_ 0.656548 0.289683 0.292027 -0.60745
O_ O_ 0.902296 0.302748 0.287421 -0.60745
O_ O_ 0.655039 0.291346 0.222157 -0.60745
O_ O_ 0.90371 0.299276 0.216381 -0.60745
O_ O_ 0.654221 0.200305 0.291494 -0.60745
O_ O_ 0.904127 0.210548 0.281123 -0.60745
O_ O_ 0.654764 0.207216 0.222446 -0.60745
O_ O_ 0.908611 0.208921 0.213191 -0.60745
O_ O_ 0.591602 0.204004 0.212727 -0.60745
O_ O_ 0.845335 0.204602 0.210711 -0.60745
O_ O_ 0.590358 0.203553 0.282942 -0.60745
O_ O_ 0.845291 0.206849 0.278981 -0.60745
Zn Zn 0.625955 0.252279 0.785345 0.9476
Zn Zn 0.875499 0.248267 0.781934 0.9476
Zn Zn 0.623451 0.248316 0.718186 0.9476
Zn Zn 0.875679 0.248051 0.711144 0.9476
H_ H_ 0.542566 0.423124 0.684078 0.10932
H_ H_ 0.789075 0.421558 0.68002 0.10932
H_ H_ 0.567214 0.354386 0.821609 0.10932
H_ H_ 0.819859 0.358029 0.814204 0.10932
H_ H_ 0.577247 0.364437 0.687487 0.10932
H_ H_ 0.824424 0.35714 0.68333 0.10932
H_ H_ 0.541936 0.4227 0.819697 0.10932
H_ H_ 0.787021 0.422496 0.81379 0.10932
H_ H_ 0.732386 0.410841 0.809534 0.10932
H_ H_ 0.956916 0.426758 0.81328 0.10932
H_ H_ 0.674654 0.363888 0.679337 0.10932
H_ H_ 0.935645 0.346437 0.683404 0.10932
H_ H_ 0.699416 0.349664 0.811699 0.10932
H_ H_ 0.920594 0.366336 0.815045 0.10932
H_ H_ 0.699763 0.431134 0.679918 0.10932
H_ H_ 0.960828 0.415894 0.680258 0.10932
H_ H_ 0.736022 0.100332 0.820288 0.10932
H_ H_ 0.961271 0.0772024 0.804661 0.10932
H_ H_ 0.666071 0.124102 0.696773 0.10932
H_ H_ 0.937065 0.144396 0.666979 0.10932
H_ H_ 0.707948 0.168107 0.816015 0.10932
H_ H_ 0.932574 0.139121 0.804684 0.10932
H_ H_ 0.694268 0.058574 0.707762 0.10932
H_ H_ 0.970931 0.085397 0.671953 0.10932
H_ H_ 0.534704 0.0783774 0.685511 0.10932
H_ H_ 0.772295 0.094796 0.686329 0.10932
H_ H_ 0.565327 0.144568 0.820317 0.10932
H_ H_ 0.82861 0.137736 0.812443 0.10932
H_ H_ 0.558105 0.146597 0.685133 0.10932
H_ H_ 0.799542 0.159675 0.6856 0.10932
H_ H_ 0.536533 0.0809675 0.821475 0.10932
H_ H_ 0.803037 0.0720697 0.814163 0.10932
H_ H_ 0.622516 0.318654 0.854623 0.10932
H_ H_ 0.842596 0.298053 0.856361 0.10932
H_ H_ 0.625921 0.187486 0.86639 0.10932
H_ H_ 0.910003 0.200695 0.861615 0.10932
H_ H_ 0.626461 0.192944 0.943042 0.10932
H_ H_ 0.908799 0.202563 0.941208 0.10932
H_ H_ 0.618143 0.326158 0.931493 0.10932
H_ H_ 0.844333 0.299947 0.933138 0.10932
H_ H_ 0.624329 0.182219 0.647784 0.10932
H_ H_ 0.863654 0.312742 0.649745 0.10932
H_ H_ 0.621973 0.313657 0.642575 0.10932
H_ H_ 0.887447 0.191735 0.632105 0.10932
H_ H_ 0.629717 0.31387 0.567071 0.10932
H_ H_ 0.882702 0.195402 0.552763 0.10932
H_ H_ 0.63309 0.180899 0.570968 0.10932
H_ H_ 0.861215 0.32836 0.569565 0.10932
C_ C_ 0.573549 0.355879 0.753761 -0.02249
C_ C_ 0.819551 0.348566 0.749676 -0.02249
C_ C_ 0.516753 0.463757 0.751319 -0.02249
C_ C_ 0.769121 0.463993 0.74607 -0.02249
C_ C_ 0.549215 0.411654 0.713942 -0.11473
C_ C_ 0.794499 0.406704 0.709091 -0.11473
C_ C_ 0.564206 0.372127 0.791239 -0.11473
C_ C_ 0.811047 0.370816 0.786579 -0.11473
C_ C_ 0.56889 0.3783 0.715557 -0.11473
C_ C_ 0.810999 0.367338 0.710754 -0.11473
C_ C_ 0.53608 0.425296 0.751719 -0.02249
C_ C_ 0.786083 0.425245 0.747168 -0.02249
C_ C_ 0.587503 0.312172 0.751176 0.6875
C_ C_ 0.835039 0.30728 0.749802 0.6875
C_ C_ 0.545351 0.406905 0.790599 -0.11473
C_ C_ 0.796852 0.409574 0.785681 -0.11473
C_ C_ 0.682659 0.352707 0.747016 -0.02249
C_ C_ 0.927664 0.350473 0.749832 -0.02249
C_ C_ 0.737031 0.464294 0.741864 -0.02249
C_ C_ 0.981102 0.463571 0.743321 -0.02249
C_ C_ 0.720683 0.400282 0.779227 -0.11473
C_ C_ 0.951514 0.409076 0.784861 -0.11473
C_ C_ 0.685487 0.375775 0.709024 -0.11473
C_ C_ 0.939689 0.364391 0.71189 -0.11473
C_ C_ 0.699944 0.366365 0.782415 -0.11473
C_ C_ 0.933116 0.373604 0.785595 -0.11473
C_ C_ 0.719844 0.425408 0.743822 -0.02249
C_ C_ 0.962179 0.424961 0.746039 -0.02249
C_ C_ 0.663559 0.313698 0.749294 0.6875
C_ C_ 0.911686 0.309939 0.749852 0.6875
C_ C_ 0.701452 0.412964 0.709469 -0.11473
C_ C_ 0.952563 0.404392 0.710531 -0.11473
C_ C_ 0.683112 0.150822 0.758236 -0.02249
C_ C_ 0.931649 0.146951 0.736621 -0.02249
C_ C_ 0.73555 0.0395969 0.758507 -0.02249
C_ C_ 0.984222 0.0346687 0.735154 -0.02249
C_ C_ 0.721738 0.107782 0.793752 -0.11473
C_ C_ 0.95476 0.0896398 0.774758 -0.11473
C_ C_ 0.681279 0.120844 0.725116 -0.11473
C_ C_ 0.942007 0.13065 0.697847 -0.11473
C_ C_ 0.704233 0.143266 0.792169 -0.11473
C_ C_ 0.93688 0.123904 0.775296 -0.11473
C_ C_ 0.719477 0.078691 0.760449 -0.02249
C_ C_ 0.96631 0.0741611 0.737618 -0.02249
C_ C_ 0.663512 0.190449 0.755493 0.6875
C_ C_ 0.91436 0.186662 0.737543 0.6875
C_ C_ 0.697472 0.0829989 0.730032 -0.11473
C_ C_ 0.961105 0.0970751 0.698575 -0.11473
C_ C_ 0.566689 0.151387 0.752634 -0.02249
C_ C_ 0.817874 0.153817 0.748486 -0.02249
C_ C_ 0.516932 0.0376324 0.757673 -0.02249
C_ C_ 0.766351 0.0390608 0.748122 -0.02249
C_ C_ 0.542326 0.0933483 0.715968 -0.11473
C_ C_ 0.783643 0.103072 0.714286 -0.11473
C_ C_ 0.557802 0.134406 0.79076 -0.11473
C_ C_ 0.819668 0.126023 0.783544 -0.11473
C_ C_ 0.55658 0.131258 0.714581 -0.11473
C_ C_ 0.801829 0.138959 0.712557 -0.11473
C_ C_ 0.535697 0.0749237 0.75541 -0.02249
C_ C_ 0.785062 0.0769212 0.749618 -0.02249
C_ C_ 0.586431 0.189141 0.751893 0.6875
C_ C_ 0.836597 0.191378 0.746642 0.6875
C_ C_ 0.543316 0.0952396 0.79199 -0.11473
C_ C_ 0.800829 0.0902687 0.785966 -0.11473
C_ C_ 0.623016 0.291 0.874167 0.17695
C_ C_ 0.855954 0.273368 0.873106 0.17695
C_ C_ 0.622753 0.217775 0.881827 0.17695
C_ C_ 0.890361 0.216916 0.876784 0.17695
C_ C_ 0.624979 0.220849 0.924729 -0.11473
C_ C_ 0.890876 0.218243 0.922156 -0.11473
C_ C_ 0.622903 0.25943 0.943951 0.23465
C_ C_ 0.873362 0.247432 0.941742 0.23465
C_ C_ 0.621269 0.295192 0.918051 -0.11473
C_ C_ 0.85541 0.274782 0.917043 -0.11473
C_ C_ 0.623517 0.210953 0.630319 0.17695
C_ C_ 0.865776 0.288812 0.628182 0.17695
C_ C_ 0.627052 0.285002 0.62974 0.17695
C_ C_ 0.880341 0.219243 0.616704 0.17695
C_ C_ 0.631883 0.284619 0.586104 -0.11473
C_ C_ 0.876361 0.222869 0.572283 -0.11473
C_ C_ 0.629901 0.246187 0.562752 0.23465
C_ C_ 0.870796 0.262571 0.555813 0.23465
C_ C_ 0.627633 0.208664 0.587346 -0.11473
C_ C_ 0.864429 0.296694 0.583095 -0.11473
C_ C_ 0.530394 0.503881 0.749562 0.05793
C_ C_ 0.783873 0.503408 0.746905 0.05793
C_ C_ 0.720483 0.0010262 0.763111 0.05793
C_ C_ 0.970015 -0.00547299999999995 0.73572 0.05793
Br Br 0.574309 0.509403 0.743911 -0.17191
Br Br 0.826304 0.506215 0.743488 -0.17191
Br Br 0.681504 0.0021100000000000563 0.791616 -0.17191
Br Br 0.927615 -0.009282000000000012 0.726006 -0.17191
N_ N_ 0.623026 0.252975 0.856146 -0.272
N_ N_ 0.873932 0.244939 0.854508 -0.272
N_ N_ 0.618647 0.265276 0.987853 -0.12501
N_ N_ 0.86904 0.243426 0.986946 -0.12501
N_ N_ 0.624042 0.248429 0.649866 -0.272
N_ N_ 0.874251 0.251608 0.642748 -0.272
N_ N_ 0.634943 0.245385 0.518454 -0.12501
N_ N_ 0.86472 0.267569 0.51077 -0.12501
O_ O_ 0.598893 0.299391 0.718745 -0.60745
O_ O_ 0.842431 0.289407 0.715155 -0.60745
O_ O_ 0.592837 0.292698 0.785376 -0.60745
O_ O_ 0.84575 0.293138 0.78457 -0.60745
O_ O_ 0.657001 0.298048 0.784852 -0.60745
O_ O_ 0.903688 0.293169 0.784911 -0.60745
O_ O_ 0.656525 0.29482 0.71597 -0.60745
O_ O_ 0.903607 0.291335 0.715462 -0.60745
O_ O_ 0.660324 0.213765 0.78733 -0.60745
O_ O_ 0.909531 0.20432 0.772196 -0.60745
O_ O_ 0.651562 0.19939 0.720464 -0.60745
O_ O_ 0.909878 0.20886 0.703531 -0.60745
O_ O_ 0.590629 0.206922 0.717251 -0.60745
O_ O_ 0.845863 0.203755 0.711591 -0.60745
O_ O_ 0.598241 0.203835 0.785454 -0.60745
O_ O_ 0.846315 0.207777 0.781406 -0.60745
Zn Zn 0.624005 0.752472 0.285591 0.9476
Zn Zn 0.873877 0.748216 0.285279 0.9476
Zn Zn 0.623578 0.748805 0.216546 0.9476
Zn Zn 0.873009 0.749845 0.212189 0.9476
H_ H_ 0.527996 0.907211 0.18474 0.10932
H_ H_ 0.787592 0.924071 0.187565 0.10932
H_ H_ 0.564969 0.857314 0.321972 0.10932
H_ H_ 0.806367 0.846835 0.317738 0.10932
H_ H_ 0.560455 0.841701 0.19077 0.10932
H_ H_ 0.807757 0.852228 0.187686 0.10932
H_ H_ 0.536055 0.921304 0.316454 0.10932
H_ H_ 0.778207 0.909364 0.322032 0.10932
H_ H_ 0.702326 0.92533 0.313147 0.10932
H_ H_ 0.947965 0.924428 0.321557 0.10932
H_ H_ 0.706165 0.833775 0.190649 0.10932
H_ H_ 0.938926 0.853041 0.184939 0.10932
H_ H_ 0.666985 0.86642 0.30821 0.10932
H_ H_ 0.923616 0.855038 0.317637 0.10932
H_ H_ 0.725044 0.905596 0.183123 0.10932
H_ H_ 0.97038 0.918051 0.192795 0.10932
H_ H_ 0.721717 0.590045 0.313764 0.10932
H_ H_ 0.972004 0.587176 0.311726 0.10932
H_ H_ 0.667481 0.629153 0.183978 0.10932
H_ H_ 0.935763 0.645719 0.176841 0.10932
H_ H_ 0.696099 0.658821 0.312667 0.10932
H_ H_ 0.933793 0.644256 0.312884 0.10932
H_ H_ 0.702165 0.57342 0.182135 0.10932
H_ H_ 0.963205 0.579551 0.179366 0.10932
H_ H_ 0.522676 0.599528 0.18426 0.10932
H_ H_ 0.771094 0.596938 0.182527 0.10932
H_ H_ 0.58423 0.62671 0.309951 0.10932
H_ H_ 0.818167 0.634804 0.318225 0.10932
H_ H_ 0.547252 0.665684 0.191783 0.10932
H_ H_ 0.807172 0.652501 0.1826 0.10932
H_ H_ 0.548909 0.568959 0.311943 0.10932
H_ H_ 0.78603 0.573169 0.310961 0.10932
H_ H_ 0.63083 0.68596 0.355728 0.10932
H_ H_ 0.907988 0.692565 0.357732 0.10932
H_ H_ 0.63261 0.8132 0.363717 0.10932
H_ H_ 0.854768 0.79848 0.368486 0.10932
H_ H_ 0.631064 0.811589 0.441754 0.10932
H_ H_ 0.856654 0.796025 0.443201 0.10932
H_ H_ 0.636254 0.679963 0.433159 0.10932
H_ H_ 0.90337 0.681593 0.434852 0.10932
H_ H_ 0.576717 0.778394 0.145657 0.10932
H_ H_ 0.884798 0.69442 0.135793 0.10932
H_ H_ 0.663025 0.726398 0.137 0.10932
H_ H_ 0.869696 0.821228 0.140787 0.10932
H_ H_ 0.661174 0.740198 0.0605432 0.10932
H_ H_ 0.865171 0.825657 0.0650939 0.10932
H_ H_ 0.568466 0.778782 0.0686964 0.10932
H_ H_ 0.883284 0.697922 0.056025 0.10932
C_ C_ 0.564781 0.844174 0.256409 -0.02249
C_ C_ 0.812592 0.846882 0.252801 -0.02249
C_ C_ 0.513205 0.956991 0.248482 -0.02249
C_ C_ 0.763607 0.960044 0.253972 -0.02249
C_ C_ 0.534422 0.893432 0.215833 -0.11473
C_ C_ 0.790803 0.90614 0.216406 -0.11473
C_ C_ 0.557981 0.866969 0.292103 -0.11473
C_ C_ 0.79905 0.860142 0.28934 -0.11473
C_ C_ 0.550162 0.855808 0.218315 -0.11473
C_ C_ 0.806498 0.86952 0.216006 -0.11473
C_ C_ 0.529208 0.915436 0.251847 -0.02249
C_ C_ 0.777637 0.919286 0.254677 -0.02249
C_ C_ 0.588041 0.811511 0.259022 0.6875
C_ C_ 0.832692 0.807899 0.251929 0.6875
C_ C_ 0.541102 0.903711 0.290717 -0.11473
C_ C_ 0.78224 0.896237 0.291178 -0.11473
C_ C_ 0.681236 0.84825 0.248436 -0.02249
C_ C_ 0.929881 0.848828 0.251373 -0.02249
C_ C_ 0.732584 0.96154 0.24801 -0.02249
C_ C_ 0.980666 0.961766 0.261293 -0.02249
C_ C_ 0.701968 0.906372 0.28542 -0.11473
C_ C_ 0.947629 0.906347 0.293187 -0.11473
C_ C_ 0.698481 0.857645 0.212315 -0.11473
C_ C_ 0.942831 0.866863 0.215338 -0.11473
C_ C_ 0.683345 0.872818 0.283829 -0.11473
C_ C_ 0.934485 0.867434 0.291143 -0.11473
C_ C_ 0.715738 0.919135 0.247314 -0.02249
C_ C_ 0.963224 0.921945 0.259053 -0.02249
C_ C_ 0.665097 0.806881 0.249255 0.6875
C_ C_ 0.909967 0.81235 0.248548 0.6875
C_ C_ 0.712528 0.896308 0.21059 -0.11473
C_ C_ 0.959745 0.90345 0.219869 -0.11473
C_ C_ 0.680375 0.649492 0.246897 -0.02249
C_ C_ 0.930783 0.649378 0.243411 -0.02249
C_ C_ 0.730653 0.538039 0.248781 -0.02249
C_ C_ 0.985763 0.539884 0.247582 -0.02249
C_ C_ 0.710472 0.599202 0.285236 -0.11473
C_ C_ 0.960044 0.596998 0.282646 -0.11473
C_ C_ 0.686129 0.62877 0.208169 -0.11473
C_ C_ 0.93948 0.629181 0.205732 -0.11473
C_ C_ 0.69514 0.637224 0.284265 -0.11473
C_ C_ 0.941214 0.631771 0.28226 -0.11473
C_ C_ 0.712987 0.576132 0.248157 -0.02249
C_ C_ 0.968779 0.579473 0.245797 -0.02249
C_ C_ 0.659911 0.687758 0.245619 0.6875
C_ C_ 0.910113 0.684681 0.244559 0.6875
C_ C_ 0.703366 0.593993 0.208745 -0.11473
C_ C_ 0.95849 0.594311 0.206503 -0.11473
C_ C_ 0.564849 0.653546 0.25415 -0.02249
C_ C_ 0.81269 0.652298 0.249585 -0.02249
C_ C_ 0.516669 0.536397 0.245229 -0.02249
C_ C_ 0.762592 0.53736 0.244545 -0.02249
C_ C_ 0.531211 0.606707 0.215934 -0.11473
C_ C_ 0.782962 0.602665 0.210297 -0.11473
C_ C_ 0.567394 0.623558 0.285056 -0.11473
C_ C_ 0.808023 0.627632 0.286708 -0.11473
C_ C_ 0.545986 0.645645 0.219385 -0.11473
C_ C_ 0.801391 0.637688 0.211731 -0.11473
C_ C_ 0.53602 0.574594 0.245098 -0.02249
C_ C_ 0.778329 0.578128 0.246265 -0.02249
C_ C_ 0.581375 0.695038 0.25592 0.6875
C_ C_ 0.835185 0.68828 0.249916 0.6875
C_ C_ 0.552139 0.586124 0.283236 -0.11473
C_ C_ 0.791558 0.590866 0.284065 -0.11473
C_ C_ 0.632878 0.713255 0.376221 0.17695
C_ C_ 0.896414 0.714077 0.378145 0.17695
C_ C_ 0.633486 0.786409 0.379886 0.17695
C_ C_ 0.866261 0.773257 0.382967 0.17695
C_ C_ 0.63438 0.784756 0.425332 -0.11473
C_ C_ 0.8692 0.772251 0.425982 -0.11473
C_ C_ 0.633742 0.746995 0.445538 0.23465
C_ C_ 0.884912 0.740953 0.448366 0.23465
C_ C_ 0.634294 0.710741 0.420403 -0.11473
C_ C_ 0.897195 0.71061 0.423172 -0.11473
C_ C_ 0.593481 0.765572 0.127132 0.17695
C_ C_ 0.881175 0.722432 0.118437 0.17695
C_ C_ 0.642283 0.735222 0.121888 0.17695
C_ C_ 0.870505 0.792975 0.12284 0.17695
C_ C_ 0.641136 0.739708 0.0784159 -0.11473
C_ C_ 0.867437 0.795811 0.0784862 -0.11473
C_ C_ 0.613921 0.753506 0.0592153 0.23465
C_ C_ 0.871588 0.76148 0.0542456 0.23465
C_ C_ 0.589799 0.770138 0.0842054 -0.11473
C_ C_ 0.880767 0.724623 0.0742517 -0.11473
C_ C_ 0.530113 0.993484 0.243954 0.05793
C_ C_ 0.780918 0.997145 0.251862 0.05793
C_ C_ 0.716446 0.498584 0.253737 0.05793
C_ C_ 0.970309 0.502118 0.24564 0.05793
Br Br 0.57227 0.989478 0.237591 -0.17191
Br Br 0.82287 0.994264 0.259795 -0.17191
Br Br 0.674752 0.495478 0.267914 -0.17191
Br Br 0.928581 0.499786 0.232442 -0.17191
N_ N_ 0.629986 0.750673 0.357427 -0.272
N_ N_ 0.880586 0.745164 0.358054 -0.272
N_ N_ 0.634507 0.742446 0.491164 -0.12501
N_ N_ 0.886041 0.737128 0.493088 -0.12501
N_ N_ 0.618534 0.74753 0.145436 -0.272
N_ N_ 0.873108 0.754431 0.14198 -0.272
N_ N_ 0.611285 0.756129 0.0130712 -0.12501
N_ N_ 0.867509 0.763844 0.0080876 -0.12501
O_ O_ 0.593135 0.790913 0.226643 -0.60745
O_ O_ 0.836567 0.788636 0.217774 -0.60745
O_ O_ 0.594535 0.797539 0.294516 -0.60745
O_ O_ 0.845132 0.794418 0.285216 -0.60745
O_ O_ 0.654344 0.794143 0.283062 -0.60745
O_ O_ 0.904877 0.791837 0.281242 -0.60745
O_ O_ 0.654618 0.791572 0.215149 -0.60745
O_ O_ 0.900575 0.799737 0.213345 -0.60745
O_ O_ 0.654192 0.704933 0.281603 -0.60745
O_ O_ 0.904622 0.702391 0.279026 -0.60745
O_ O_ 0.654942 0.707207 0.21073 -0.60745
O_ O_ 0.902374 0.702108 0.209734 -0.60745
O_ O_ 0.593632 0.705046 0.22213 -0.60745
O_ O_ 0.844112 0.702599 0.216787 -0.60745
O_ O_ 0.591455 0.710165 0.290638 -0.60745
O_ O_ 0.84208 0.704844 0.28376 -0.60745
Zn Zn 0.628342 0.750744 0.789879 0.9476
Zn Zn 0.87838 0.749352 0.78433 0.9476
Zn Zn 0.627508 0.750768 0.718921 0.9476
Zn Zn 0.87306 0.75042 0.717319 0.9476
H_ H_ 0.524127 0.906799 0.695151 0.10932
H_ H_ 0.773769 0.910379 0.685118 0.10932
H_ H_ 0.573571 0.860836 0.825976 0.10932
H_ H_ 0.829973 0.87009 0.814885 0.10932
H_ H_ 0.55234 0.843902 0.692882 0.10932
H_ H_ 0.800448 0.843635 0.689397 0.10932
H_ H_ 0.543989 0.92706 0.822602 0.10932
H_ H_ 0.792238 0.928484 0.814971 0.10932
H_ H_ 0.723431 0.916788 0.821545 0.10932
H_ H_ 0.961859 0.927752 0.810474 0.10932
H_ H_ 0.675605 0.866604 0.688874 0.10932
H_ H_ 0.945176 0.84011 0.685703 0.10932
H_ H_ 0.694259 0.850796 0.824358 0.10932
H_ H_ 0.937908 0.855921 0.818361 0.10932
H_ H_ 0.710141 0.926882 0.688105 0.10932
H_ H_ 0.97607 0.900141 0.679267 0.10932
H_ H_ 0.723509 0.58824 0.816874 0.10932
H_ H_ 0.984206 0.598195 0.804006 0.10932
H_ H_ 0.684102 0.650426 0.684459 0.10932
H_ H_ 0.929168 0.647234 0.678709 0.10932
H_ H_ 0.696294 0.652335 0.816337 0.10932
H_ H_ 0.951018 0.658436 0.811638 0.10932
H_ H_ 0.706858 0.578414 0.681055 0.10932
H_ H_ 0.953793 0.580525 0.677544 0.10932
H_ H_ 0.517738 0.599583 0.684015 0.10932
H_ H_ 0.785954 0.586089 0.679974 0.10932
H_ H_ 0.573799 0.635054 0.817641 0.10932
H_ H_ 0.802721 0.660505 0.812414 0.10932
H_ H_ 0.555364 0.653501 0.682368 0.10932
H_ H_ 0.815758 0.645738 0.67905 0.10932
H_ H_ 0.540302 0.57465 0.813479 0.10932
H_ H_ 0.780742 0.588763 0.813618 0.10932
H_ H_ 0.670568 0.727428 0.863291 0.10932
H_ H_ 0.871039 0.685275 0.848966 0.10932
H_ H_ 0.579308 0.761498 0.865195 0.10932
H_ H_ 0.880391 0.811943 0.867853 0.10932
H_ H_ 0.575168 0.735982 0.938542 0.10932
H_ H_ 0.886196 0.802947 0.943972 0.10932
H_ H_ 0.671245 0.71982 0.940512 0.10932
H_ H_ 0.873637 0.671211 0.925606 0.10932
H_ H_ 0.635999 0.69701 0.643696 0.10932
H_ H_ 0.872686 0.815946 0.649505 0.10932
H_ H_ 0.621286 0.821074 0.650849 0.10932
H_ H_ 0.873531 0.686368 0.641833 0.10932
H_ H_ 0.620976 0.830901 0.572572 0.10932
H_ H_ 0.869989 0.688705 0.563357 0.10932
H_ H_ 0.626728 0.698069 0.565215 0.10932
H_ H_ 0.869934 0.823617 0.571754 0.10932
C_ C_ 0.566705 0.846662 0.758774 -0.02249
C_ C_ 0.819729 0.851978 0.750336 -0.02249
C_ C_ 0.514283 0.963166 0.753619 -0.02249
C_ C_ 0.766324 0.962831 0.747569 -0.02249
C_ C_ 0.533079 0.894838 0.723973 -0.11473
C_ C_ 0.784855 0.9003 0.714127 -0.11473
C_ C_ 0.563257 0.871384 0.796467 -0.11473
C_ C_ 0.816733 0.876146 0.786044 -0.11473
C_ C_ 0.550341 0.858139 0.723463 -0.11473
C_ C_ 0.802356 0.864634 0.715143 -0.11473
C_ C_ 0.530139 0.920505 0.758126 -0.02249
C_ C_ 0.782787 0.923813 0.749003 -0.02249
C_ C_ 0.588297 0.809659 0.759947 0.6875
C_ C_ 0.836832 0.811955 0.750789 0.6875
C_ C_ 0.547713 0.910135 0.793531 -0.11473
C_ C_ 0.796135 0.909656 0.786739 -0.11473
C_ C_ 0.686953 0.848698 0.755083 -0.02249
C_ C_ 0.934937 0.847047 0.75146 -0.02249
C_ C_ 0.735651 0.963268 0.755585 -0.02249
C_ C_ 0.986945 0.956597 0.740032 -0.02249
C_ C_ 0.714629 0.903488 0.792993 -0.11473
C_ C_ 0.961062 0.905262 0.783889 -0.11473
C_ C_ 0.687109 0.875975 0.718303 -0.11473
C_ C_ 0.950013 0.855137 0.714235 -0.11473
C_ C_ 0.698137 0.865732 0.793767 -0.11473
C_ C_ 0.944267 0.868121 0.787345 -0.11473
C_ C_ 0.718905 0.925195 0.755544 -0.02249
C_ C_ 0.971749 0.91618 0.744107 -0.02249
C_ C_ 0.667587 0.809717 0.754987 0.6875
C_ C_ 0.913816 0.810942 0.752951 0.6875
C_ C_ 0.706871 0.910204 0.718917 -0.11473
C_ C_ 0.967824 0.891284 0.709912 -0.11473
C_ C_ 0.690435 0.656785 0.750739 -0.02249
C_ C_ 0.937931 0.656335 0.745613 -0.02249
C_ C_ 0.734683 0.537236 0.746199 -0.02249
C_ C_ 0.983918 0.538968 0.741295 -0.02249
C_ C_ 0.711956 0.597144 0.78715 -0.11473
C_ C_ 0.971778 0.606888 0.778332 -0.11473
C_ C_ 0.695503 0.638012 0.712242 -0.11473
C_ C_ 0.939995 0.634621 0.70658 -0.11473
C_ C_ 0.700395 0.638407 0.786963 -0.11473
C_ C_ 0.955048 0.64418 0.780092 -0.11473
C_ C_ 0.718471 0.578106 0.747742 -0.02249
C_ C_ 0.970641 0.580878 0.740896 -0.02249
C_ C_ 0.668763 0.692794 0.751075 0.6875
C_ C_ 0.916215 0.691033 0.747859 0.6875
C_ C_ 0.707882 0.596412 0.711036 -0.11473
C_ C_ 0.956129 0.597402 0.705873 -0.11473
C_ C_ 0.568835 0.650219 0.749777 -0.02249
C_ C_ 0.81577 0.653076 0.749109 -0.02249
C_ C_ 0.511895 0.540604 0.747665 -0.02249
C_ C_ 0.766314 0.539933 0.7456 -0.02249
C_ C_ 0.533139 0.604882 0.711788 -0.11473
C_ C_ 0.787321 0.601906 0.70856 -0.11473
C_ C_ 0.56319 0.627765 0.787208 -0.11473
C_ C_ 0.802977 0.639269 0.786526 -0.11473
C_ C_ 0.553218 0.637646 0.711549 -0.11473
C_ C_ 0.805941 0.636918 0.709498 -0.11473
C_ C_ 0.528172 0.581552 0.748689 -0.02249
C_ C_ 0.780985 0.582146 0.746641 -0.02249
C_ C_ 0.587744 0.689134 0.752116 0.6875
C_ C_ 0.837265 0.689448 0.748718 0.6875
C_ C_ 0.542969 0.593755 0.785876 -0.11473
C_ C_ 0.784763 0.604033 0.785399 -0.11473
C_ C_ 0.649954 0.73181 0.880699 0.17695
C_ C_ 0.875154 0.709365 0.870737 0.17695
C_ C_ 0.598329 0.749266 0.881512 0.17695
C_ C_ 0.881339 0.781105 0.881208 0.17695
C_ C_ 0.596423 0.740109 0.924081 -0.11473
C_ C_ 0.882026 0.777261 0.923842 -0.11473
C_ C_ 0.622849 0.730556 0.946155 0.23465
C_ C_ 0.875078 0.738684 0.939455 0.23465
C_ C_ 0.65023 0.72817 0.923544 -0.11473
C_ C_ 0.871452 0.703985 0.913226 -0.11473
C_ C_ 0.631426 0.725018 0.627195 0.17695
C_ C_ 0.870034 0.789633 0.628772 0.17695
C_ C_ 0.622453 0.795135 0.630796 0.17695
C_ C_ 0.872758 0.715534 0.625414 0.17695
C_ C_ 0.623705 0.800926 0.587245 -0.11473
C_ C_ 0.872412 0.717197 0.581267 -0.11473
C_ C_ 0.624457 0.765725 0.561137 0.23465
C_ C_ 0.871991 0.75629 0.562126 0.23465
C_ C_ 0.626774 0.727279 0.581944 -0.11473
C_ C_ 0.871781 0.793055 0.585873 -0.11473
C_ C_ 0.531202 -0.000671013 0.751136 0.05793
C_ C_ 0.781759 0.000548188 0.743327 0.05793
C_ C_ 0.720328 0.500158 0.743772 0.05793
C_ C_ 0.966556 0.501783 0.743862 0.05793
Br Br 0.575876 -0.003283000000000036 0.744138 -0.17191
Br Br 0.823928 1.000620689 0.731211 -0.17191
Br Br 0.676783 0.501723 0.748847 -0.17191
Br Br 0.92212 0.505777 0.748864 -0.17191
N_ N_ 0.623885 0.74335 0.859944 -0.272
N_ N_ 0.876924 0.748432 0.85405 -0.272
N_ N_ 0.622875 0.729031 0.990511 -0.12501
N_ N_ 0.87557 0.73485 0.985224 -0.12501
N_ N_ 0.625245 0.758116 0.650053 -0.272
N_ N_ 0.87559 0.751189 0.6472 -0.272
N_ N_ 0.623719 0.76954 0.515169 -0.12501
N_ N_ 0.872142 0.761027 0.516325 -0.12501
O_ O_ 0.595876 0.791888 0.724685 -0.60745
O_ O_ 0.842546 0.795131 0.716471 -0.60745
O_ O_ 0.599286 0.794957 0.794129 -0.60745
O_ O_ 0.848461 0.798162 0.785138 -0.60745
O_ O_ 0.661459 0.791875 0.78753 -0.60745
O_ O_ 0.909756 0.793722 0.788535 -0.60745
O_ O_ 0.655434 0.797527 0.72064 -0.60745
O_ O_ 0.904459 0.793103 0.719284 -0.60745
O_ O_ 0.660328 0.70817 0.786359 -0.60745
O_ O_ 0.909596 0.705859 0.782791 -0.60745
O_ O_ 0.661788 0.710881 0.716855 -0.60745
O_ O_ 0.90431 0.706598 0.715602 -0.60745
O_ O_ 0.598729 0.70386 0.717003 -0.60745
O_ O_ 0.844526 0.706031 0.712993 -0.60745
O_ O_ 0.595763 0.70454 0.788222 -0.60745
O_ O_ 0.846648 0.706549 0.782272 -0.60745
_cell_length_a 44.444
_cell_length_b 32.3360000049186
_cell_length_c 31.843999878906452
_cell_angle_alpha 89.99799923859553
_cell_angle_beta 91.13600050494348
_cell_angle_gamma 89.9990006550086
_symmetry_space_group_name_H-M         'P 1'
_symmetry_Int_Tables_number            1
loop_
_symmetry_equiv_pos_as_xyz
   'x, y, z'
                         
loop_
_atom_site_label
_atom_site_type_symbol
_atom_site_fract_x 
_atom_site_fract_y
_atom_site_fract_z
_atom_site_charge
Zn Zn 0.121672 0.247435 0.285698 0.9476
Zn Zn 0.375051 0.2507 0.277708 0.9476
Zn Zn 0.123882 0.247332 0.21436 0.9476
Zn Zn 0.376974 0.248561 0.211739 0.9476
H_ H_ 0.040991 0.420995 0.184478 0.10932
H_ H_ 0.288409 0.420502 0.174301 0.10932
H_ H_ 0.0572361 0.347618 0.314226 0.10932
H_ H_ 0.314347 0.350676 0.307891 0.10932
H_ H_ 0.0681101 0.355712 0.184232 0.10932
H_ H_ 0.306685 0.345968 0.172827 0.10932
H_ H_ 0.0375652 0.414991 0.320263 0.10932
H_ H_ 0.274427 0.402971 0.306229 0.10932
H_ H_ 0.218051 0.404534 0.315328 0.10932
H_ H_ 0.456929 0.421963 0.328552 0.10932
H_ H_ 0.172017 0.36046 0.178502 0.10932
H_ H_ 0.43714 0.354202 0.186607 0.10932
H_ H_ 0.192256 0.338442 0.311437 0.10932
H_ H_ 0.429773 0.35772 0.322678 0.10932
H_ H_ 0.202816 0.426339 0.185526 0.10932
H_ H_ 0.464252 0.42207 0.192952 0.10932
H_ H_ 0.195562 0.0642214 0.304897 0.10932
H_ H_ 0.468783 0.0856105 0.318992 0.10932
H_ H_ 0.203383 0.165134 0.188525 0.10932
H_ H_ 0.434818 0.146076 0.183322 0.10932
H_ H_ 0.168966 0.130847 0.308117 0.10932
H_ H_ 0.43889 0.147119 0.317161 0.10932
H_ H_ 0.231609 0.102728 0.186935 0.10932
H_ H_ 0.464737 0.0810582 0.18386 0.10932
H_ H_ 0.0374145 0.0736067 0.193111 0.10932
H_ H_ 0.289168 0.075342 0.183741 0.10932
H_ H_ 0.0440667 0.163407 0.317378 0.10932
H_ H_ 0.3061 0.164136 0.309705 0.10932
H_ H_ 0.0687507 0.132719 0.192079 0.10932
H_ H_ 0.326235 0.134703 0.18067 0.10932
H_ H_ 0.0165121 0.0949157 0.323708 0.10932
H_ H_ 0.285573 0.0881684 0.317152 0.10932
H_ H_ 0.105618 0.306637 0.354306 0.10932
H_ H_ 0.388065 0.305364 0.362189 0.10932
H_ H_ 0.136686 0.182731 0.363343 0.10932
H_ H_ 0.357384 0.183709 0.347456 0.10932
H_ H_ 0.132204 0.184962 0.438593 0.10932
H_ H_ 0.35192 0.177152 0.420208 0.10932
H_ H_ 0.11024 0.315175 0.429609 0.10932
H_ H_ 0.392038 0.294929 0.440637 0.10932
H_ H_ 0.122359 0.316046 0.141207 0.10932
H_ H_ 0.428579 0.253911 0.142835 0.10932
H_ H_ 0.119187 0.18487 0.138769 0.10932
H_ H_ 0.335454 0.254011 0.130143 0.10932
H_ H_ 0.109111 0.188148 0.0598339 0.10932
H_ H_ 0.338156 0.250355 0.0525971 0.10932
H_ H_ 0.116081 0.319489 0.0618898 0.10932
H_ H_ 0.434697 0.246322 0.0701278 0.10932
C_ C_ 0.0650777 0.345473 0.249394 -0.02249
C_ C_ 0.315523 0.345566 0.241263 -0.02249
C_ C_ 0.0184821 0.462673 0.24936 -0.02249
C_ C_ 0.262184 0.458921 0.239562 -0.02249
C_ C_ 0.0434135 0.403917 0.213561 -0.11473
C_ C_ 0.290755 0.403468 0.20305 -0.11473
C_ C_ 0.0559126 0.364169 0.286796 -0.11473
C_ C_ 0.30617 0.365062 0.279517 -0.11473
C_ C_ 0.0603555 0.368321 0.213983 -0.11473
C_ C_ 0.30424 0.363409 0.20303 -0.11473
C_ C_ 0.0370869 0.424805 0.251254 -0.02249
C_ C_ 0.278622 0.418727 0.238995 -0.02249
C_ C_ 0.0822388 0.306429 0.248643 0.6875
C_ C_ 0.335395 0.306853 0.242679 0.6875
C_ C_ 0.044669 0.404504 0.289013 -0.11473
C_ C_ 0.28759 0.399674 0.277688 -0.11473
C_ C_ 0.180723 0.344985 0.245428 -0.02249
C_ C_ 0.43352 0.349092 0.255817 -0.02249
C_ C_ 0.2323 0.459686 0.25041 -0.02249
C_ C_ 0.484582 0.463247 0.260935 -0.02249
C_ C_ 0.20997 0.394521 0.284584 -0.11473
C_ C_ 0.455251 0.407055 0.296142 -0.11473
C_ C_ 0.183089 0.370033 0.209904 -0.11473
C_ C_ 0.44235 0.369724 0.217156 -0.11473
C_ C_ 0.193764 0.357506 0.283292 -0.11473
C_ C_ 0.43772 0.371596 0.293416 -0.11473
C_ C_ 0.215496 0.41876 0.248818 -0.02249
C_ C_ 0.466019 0.424501 0.259226 -0.02249
C_ C_ 0.162202 0.305916 0.245099 0.6875
C_ C_ 0.411873 0.314289 0.253494 0.6875
C_ C_ 0.20056 0.405619 0.21173 -0.11473
C_ C_ 0.458012 0.406777 0.22002 -0.11473
C_ C_ 0.184812 0.154094 0.250431 -0.02249
C_ C_ 0.435979 0.154336 0.251406 -0.02249
C_ C_ 0.236852 0.0406389 0.245371 -0.02249
C_ C_ 0.484823 0.0361903 0.250972 -0.02249
C_ C_ 0.200155 0.0876752 0.282065 -0.11473
C_ C_ 0.460059 0.0958293 0.289067 -0.11473
C_ C_ 0.202372 0.144612 0.21524 -0.11473
C_ C_ 0.444948 0.135723 0.214173 -0.11473
C_ C_ 0.186178 0.126542 0.284345 -0.11473
C_ C_ 0.445736 0.133633 0.289337 -0.11473
C_ C_ 0.218574 0.0793588 0.248733 -0.02249
C_ C_ 0.46828 0.0766035 0.251913 -0.02249
C_ C_ 0.163785 0.189442 0.24909 0.6875
C_ C_ 0.415661 0.1912 0.249254 0.6875
C_ C_ 0.219994 0.109552 0.215653 -0.11473
C_ C_ 0.459626 0.095952 0.21334 -0.11473
C_ C_ 0.0598527 0.153941 0.252955 -0.02249
C_ C_ 0.318132 0.154424 0.243604 -0.02249
C_ C_ 0.0106078 0.0378271 0.260334 -0.02249
C_ C_ 0.268328 0.0408991 0.252108 -0.02249
C_ C_ 0.0417779 0.089468 0.221548 -0.11473
C_ C_ 0.293072 0.0947833 0.210999 -0.11473
C_ C_ 0.0435788 0.142768 0.290828 -0.11473
C_ C_ 0.304881 0.142241 0.282542 -0.11473
C_ C_ 0.0577606 0.125689 0.220811 -0.11473
C_ C_ 0.314378 0.128138 0.208842 -0.11473
C_ C_ 0.0268753 0.0789935 0.258758 -0.02249
C_ C_ 0.284132 0.0809605 0.24972 -0.02249
C_ C_ 0.0818598 0.188351 0.255457 0.6875
C_ C_ 0.338999 0.189872 0.241157 0.6875
C_ C_ 0.0277909 0.106087 0.293964 -0.11473
C_ C_ 0.291585 0.102962 0.286478 -0.11473
C_ C_ 0.114983 0.280425 0.373344 0.17695
C_ C_ 0.38114 0.276176 0.375058 0.17695
C_ C_ 0.130635 0.211581 0.377528 0.17695
C_ C_ 0.362763 0.210344 0.366172 0.17695
C_ C_ 0.126907 0.213144 0.419813 -0.11473
C_ C_ 0.357768 0.206818 0.409406 -0.11473
C_ C_ 0.119774 0.250278 0.440223 0.23465
C_ C_ 0.367694 0.237448 0.436545 0.23465
C_ C_ 0.115135 0.285145 0.416931 -0.11473
C_ C_ 0.380712 0.271463 0.419713 -0.11473
C_ C_ 0.120348 0.287759 0.122558 0.17695
C_ C_ 0.409187 0.24959 0.124344 0.17695
C_ C_ 0.120061 0.214345 0.120741 0.17695
C_ C_ 0.355828 0.250213 0.116151 0.17695
C_ C_ 0.116374 0.214712 0.076798 -0.11473
C_ C_ 0.358741 0.252658 0.0718937 -0.11473
C_ C_ 0.11581 0.2514 0.0547434 0.23465
C_ C_ 0.38665 0.246868 0.0543011 0.23465
C_ C_ 0.117657 0.290061 0.0773977 -0.11473
C_ C_ 0.412573 0.248624 0.0815658 -0.11473
C_ C_ 0.0341262 0.502467 0.249963 0.05793
C_ C_ 0.277855 0.496453 0.235851 0.05793
C_ C_ 0.221982 0.00205517 0.241091 0.05793
C_ C_ 0.467212 0.9999486425 0.25172 0.05793
Br Br 0.0749683 0.50532 0.236525 -0.17191
Br Br 0.321808 0.492111 0.233814 -0.17191
Br Br 0.177681 0.0022384 0.234306 -0.17191
Br Br 0.425798 1.00474751 0.264717 -0.17191
N_ N_ 0.126955 0.247345 0.354474 -0.272
N_ N_ 0.371073 0.246596 0.348402 -0.272
N_ N_ 0.116118 0.250113 0.485801 -0.12501
N_ N_ 0.365378 0.231071 0.481739 -0.12501
N_ N_ 0.118973 0.250603 0.142498 -0.272
N_ N_ 0.381168 0.248578 0.141562 -0.272
N_ N_ 0.110747 0.249738 0.0105724 -0.12501
N_ N_ 0.388987 0.243295 0.00940525 -0.12501
O_ O_ 0.0928331 0.293137 0.213719 -0.60745
O_ O_ 0.340696 0.284993 0.209847 -0.60745
O_ O_ 0.0858012 0.285898 0.282223 -0.60745
O_ O_ 0.347575 0.297392 0.277436 -0.60745
O_ O_ 0.150888 0.290719 0.278989 -0.60745
O_ O_ 0.407522 0.292619 0.286475 -0.60745
O_ O_ 0.155166 0.28906 0.210693 -0.60745
O_ O_ 0.401935 0.300947 0.219132 -0.60745
O_ O_ 0.155277 0.206338 0.281984 -0.60745
O_ O_ 0.403156 0.202641 0.281463 -0.60745
O_ O_ 0.149764 0.19918 0.215077 -0.60745
O_ O_ 0.413566 0.212697 0.216548 -0.60745
O_ O_ 0.090766 0.202641 0.22036 -0.60745
O_ O_ 0.352584 0.19878 0.207885 -0.60745
O_ O_ 0.0924761 0.202365 0.290144 -0.60745
O_ O_ 0.343466 0.211538 0.27515 -0.60745
Zn Zn 0.122675 0.257176 0.784784 0.9476
Zn Zn 0.375938 0.250104 0.779721 0.9476
Zn Zn 0.125583 0.249357 0.714605 0.9476
Zn Zn 0.375901 0.247368 0.709443 0.9476
H_ H_ 0.0343947 0.419003 0.672459 0.10932
H_ H_ 0.289361 0.423724 0.680691 0.10932
H_ H_ 0.0520393 0.351785 0.808882 0.10932
H_ H_ 0.311224 0.34528 0.812456 0.10932
H_ H_ 0.0557445 0.348455 0.675356 0.10932
H_ H_ 0.313576 0.355571 0.679309 0.10932
H_ H_ 0.0270207 0.416798 0.80607 0.10932
H_ H_ 0.290527 0.419509 0.815255 0.10932
H_ H_ 0.217324 0.423342 0.81007 0.10932
H_ H_ 0.462747 0.411699 0.812834 0.10932
H_ H_ 0.183791 0.355329 0.680187 0.10932
H_ H_ 0.444358 0.350311 0.675797 0.10932
H_ H_ 0.190795 0.351681 0.816022 0.10932
H_ H_ 0.437151 0.346365 0.808301 0.10932
H_ H_ 0.223006 0.409664 0.678119 0.10932
H_ H_ 0.477108 0.410412 0.678835 0.10932
H_ H_ 0.21863 0.0913619 0.825222 0.10932
H_ H_ 0.474604 0.0985415 0.821239 0.10932
H_ H_ 0.179695 0.144105 0.690117 0.10932
H_ H_ 0.444127 0.145535 0.679084 0.10932
H_ H_ 0.188573 0.150372 0.823006 0.10932
H_ H_ 0.449535 0.162919 0.812855 0.10932
H_ H_ 0.208597 0.0759088 0.694425 0.10932
H_ H_ 0.461336 0.0730975 0.687827 0.10932
H_ H_ 0.0256062 0.0910026 0.67889 0.10932
H_ H_ 0.270547 0.0914193 0.686216 0.10932
H_ H_ 0.0708279 0.137421 0.81425 0.10932
H_ H_ 0.327891 0.140442 0.817584 0.10932
H_ H_ 0.0596816 0.155457 0.680832 0.10932
H_ H_ 0.303665 0.155362 0.683048 0.10932
H_ H_ 0.0378429 0.0756559 0.809893 0.10932
H_ H_ 0.288795 0.0788341 0.819005 0.10932
H_ H_ 0.121985 0.325062 0.851609 0.10932
H_ H_ 0.376759 0.320437 0.851057 0.10932
H_ H_ 0.120806 0.198336 0.860037 0.10932
H_ H_ 0.385691 0.191232 0.859823 0.10932
H_ H_ 0.119152 0.196127 0.935927 0.10932
H_ H_ 0.382458 0.19257 0.937904 0.10932
H_ H_ 0.123322 0.331032 0.932469 0.10932
H_ H_ 0.369608 0.32374 0.930161 0.10932
H_ H_ 0.114792 0.181246 0.645628 0.10932
H_ H_ 0.376617 0.184935 0.630435 0.10932
H_ H_ 0.137646 0.308345 0.634055 0.10932
H_ H_ 0.370273 0.315634 0.639209 0.10932
H_ H_ 0.142447 0.299791 0.556364 0.10932
H_ H_ 0.379953 0.319623 0.560444 0.10932
H_ H_ 0.114728 0.173519 0.567228 0.10932
H_ H_ 0.369612 0.185093 0.556858 0.10932
C_ C_ 0.0631117 0.349147 0.742534 -0.02249
C_ C_ 0.317839 0.346423 0.745076 -0.02249
C_ C_ 0.0135013 0.460626 0.737791 -0.02249
C_ C_ 0.27137 0.461755 0.7479 -0.02249
C_ C_ 0.0394409 0.40349 0.703498 -0.11473
C_ C_ 0.292713 0.40294 0.710054 -0.11473
C_ C_ 0.0504142 0.366255 0.777922 -0.11473
C_ C_ 0.309601 0.364174 0.783612 -0.11473
C_ C_ 0.0555272 0.36635 0.704171 -0.11473
C_ C_ 0.308535 0.366748 0.708277 -0.11473
C_ C_ 0.0287739 0.420538 0.739771 -0.02249
C_ C_ 0.28791 0.424148 0.747874 -0.02249
C_ C_ 0.0855104 0.314719 0.745407 0.6875
C_ C_ 0.338236 0.310097 0.745086 0.6875
C_ C_ 0.0341144 0.404071 0.777643 -0.11473
C_ C_ 0.295681 0.403981 0.785042 -0.11473
C_ C_ 0.181378 0.354898 0.747829 -0.02249
C_ C_ 0.434044 0.346399 0.740896 -0.02249
C_ C_ 0.239727 0.459186 0.745121 -0.02249
C_ C_ 0.484695 0.461371 0.75145 -0.02249
C_ C_ 0.214424 0.40261 0.783159 -0.11473
C_ C_ 0.459182 0.39895 0.78249 -0.11473
C_ C_ 0.193422 0.367506 0.709339 -0.11473
C_ C_ 0.448921 0.361942 0.704788 -0.11473
C_ C_ 0.195868 0.368185 0.785025 -0.11473
C_ C_ 0.444192 0.361737 0.779444 -0.11473
C_ C_ 0.223418 0.419531 0.744897 -0.02249
C_ C_ 0.468454 0.420275 0.745959 -0.02249
C_ C_ 0.160224 0.317613 0.750568 0.6875
C_ C_ 0.414769 0.310094 0.738975 0.6875
C_ C_ 0.216632 0.396327 0.708514 -0.11473
C_ C_ 0.466118 0.397768 0.708169 -0.11473
C_ C_ 0.180526 0.152545 0.757268 -0.02249
C_ C_ 0.439054 0.158113 0.746404 -0.02249
C_ C_ 0.230805 0.0392531 0.759255 -0.02249
C_ C_ 0.485283 0.0403881 0.761123 -0.02249
C_ C_ 0.208468 0.0986835 0.796177 -0.11473
C_ C_ 0.463818 0.104238 0.790528 -0.11473
C_ C_ 0.188039 0.131777 0.719533 -0.11473
C_ C_ 0.445597 0.133421 0.711191 -0.11473
C_ C_ 0.191415 0.133725 0.795452 -0.11473
C_ C_ 0.44987 0.143469 0.785593 -0.11473
C_ C_ 0.212919 0.0771233 0.759625 -0.02249
C_ C_ 0.469205 0.0792118 0.755923 -0.02249
C_ C_ 0.162017 0.191858 0.757136 0.6875
C_ C_ 0.418061 0.194337 0.743874 0.6875
C_ C_ 0.203222 0.09363 0.721335 -0.11473
C_ C_ 0.461087 0.0947604 0.715869 -0.11473
C_ C_ 0.0665414 0.153284 0.749688 -0.02249
C_ C_ 0.316063 0.152238 0.751359 -0.02249
C_ C_ 0.0159122 0.0356252 0.739961 -0.02249
C_ C_ 0.262859 0.0397888 0.752951 -0.02249
C_ C_ 0.0369756 0.102162 0.706755 -0.11473
C_ C_ 0.283556 0.101244 0.714925 -0.11473
C_ C_ 0.0614939 0.128825 0.785608 -0.11473
C_ C_ 0.313595 0.131183 0.790151 -0.11473
C_ C_ 0.054151 0.138883 0.710696 -0.11473
C_ C_ 0.301682 0.137541 0.713315 -0.11473
C_ C_ 0.0318921 0.0786175 0.743401 -0.02249
C_ C_ 0.277601 0.0805491 0.753011 -0.02249
C_ C_ 0.0863485 0.192454 0.749318 0.6875
C_ C_ 0.337899 0.188311 0.747424 0.6875
C_ C_ 0.0419082 0.09418 0.782671 -0.11473
C_ C_ 0.293282 0.0958762 0.790202 -0.11473
C_ C_ 0.120001 0.299521 0.871701 0.17695
C_ C_ 0.380223 0.293103 0.871946 0.17695
C_ C_ 0.120905 0.227351 0.876391 0.17695
C_ C_ 0.383947 0.220999 0.874979 0.17695
C_ C_ 0.121946 0.226721 0.920602 -0.11473
C_ C_ 0.378665 0.21986 0.919207 -0.11473
C_ C_ 0.123769 0.265424 0.941367 0.23465
C_ C_ 0.378191 0.258112 0.940322 0.23465
C_ C_ 0.121931 0.302319 0.916489 -0.11473
C_ C_ 0.376592 0.294163 0.916068 -0.11473
C_ C_ 0.120284 0.208173 0.624781 0.17695
C_ C_ 0.375418 0.215353 0.616185 0.17695
C_ C_ 0.136246 0.277332 0.61871 0.17695
C_ C_ 0.37172 0.288251 0.619177 0.17695
C_ C_ 0.13644 0.273995 0.57452 -0.11473
C_ C_ 0.375847 0.289535 0.575886 -0.11473
C_ C_ 0.129535 0.235922 0.555644 0.23465
C_ C_ 0.37619 0.25309 0.551203 0.23465
C_ C_ 0.1215 0.202862 0.581776 -0.11473
C_ C_ 0.373725 0.214905 0.571671 -0.11473
C_ C_ 0.0314522 0.497226 0.740025 0.05793
C_ C_ 0.286546 0.499561 0.750856 0.05793
C_ C_ 0.215831 -6.65044e-06 0.760692 0.05793
C_ C_ 0.468429 1.00438469 0.756856 0.05793
Br Br 0.0759888 0.49457 0.733093 -0.17191
Br Br 0.330443 0.505065 0.753099 -0.17191
Br Br 0.17315 0.000131856 0.762344 -0.17191
Br Br 0.424983 1.00524462 0.764117 -0.17191
N_ N_ 0.121838 0.262878 0.854087 -0.272
N_ N_ 0.382349 0.254801 0.85264 -0.272
N_ N_ 0.127172 0.269998 0.985414 -0.12501
N_ N_ 0.371471 0.25968 0.983702 -0.12501
N_ N_ 0.127813 0.244558 0.643562 -0.272
N_ N_ 0.374175 0.251023 0.638894 -0.272
N_ N_ 0.132674 0.230739 0.511385 -0.12501
N_ N_ 0.374116 0.258793 0.50753 -0.12501
O_ O_ 0.0949806 0.295248 0.712981 -0.60745
O_ O_ 0.34584 0.29318 0.710303 -0.60745
O_ O_ 0.093238 0.301692 0.780951 -0.60745
O_ O_ 0.343596 0.290573 0.779041 -0.60745
O_ O_ 0.151701 0.304711 0.786406 -0.60745
O_ O_ 0.404327 0.299065 0.773372 -0.60745
O_ O_ 0.154704 0.293604 0.718221 -0.60745
O_ O_ 0.410013 0.290934 0.704723 -0.60745
O_ O_ 0.154986 0.211852 0.791416 -0.60745
O_ O_ 0.410281 0.209805 0.779361 -0.60745
O_ O_ 0.152162 0.204736 0.721129 -0.60745
O_ O_ 0.405283 0.205295 0.708179 -0.60745
O_ O_ 0.0936589 0.206631 0.713722 -0.60745
O_ O_ 0.344022 0.204029 0.712183 -0.60745
O_ O_ 0.0927971 0.210899 0.783378 -0.60745
O_ O_ 0.346456 0.205251 0.78074 -0.60745
Zn Zn 0.129429 0.750973 0.285264 0.9476
Zn Zn 0.373571 0.747728 0.294878 0.9476
Zn Zn 0.127794 0.755351 0.214038 0.9476
Zn Zn 0.374567 0.743255 0.224183 0.9476
H_ H_ 0.038492 0.929006 0.190896 0.10932
H_ H_ 0.289748 0.91774 0.185314 0.10932
H_ H_ 0.0601971 0.842105 0.314719 0.10932
H_ H_ 0.314177 0.855431 0.322555 0.10932
H_ H_ 0.0734547 0.869057 0.183923 0.10932
H_ H_ 0.311381 0.846708 0.189401 0.10932
H_ H_ 0.0295046 0.905639 0.32208 0.10932
H_ H_ 0.297018 0.92991 0.3168 0.10932
H_ H_ 0.229393 0.914931 0.307769 0.10932
H_ H_ 0.468563 0.913721 0.316506 0.10932
H_ H_ 0.182414 0.858141 0.176948 0.10932
H_ H_ 0.423509 0.853912 0.184783 0.10932
H_ H_ 0.207499 0.839414 0.306793 0.10932
H_ H_ 0.441309 0.846513 0.316545 0.10932
H_ H_ 0.211532 0.926179 0.177001 0.10932
H_ H_ 0.452238 0.919027 0.183809 0.10932
H_ H_ 0.223357 0.58868 0.317297 0.10932
H_ H_ 0.474434 0.590712 0.324897 0.10932
H_ H_ 0.177262 0.640722 0.184119 0.10932
H_ H_ 0.423062 0.634867 0.193902 0.10932
H_ H_ 0.186924 0.647917 0.318422 0.10932
H_ H_ 0.437823 0.646126 0.325405 0.10932
H_ H_ 0.207338 0.574638 0.185349 0.10932
H_ H_ 0.459114 0.573309 0.191885 0.10932
H_ H_ 0.0298275 0.595119 0.183955 0.10932
H_ H_ 0.273794 0.590055 0.184095 0.10932
H_ H_ 0.0683357 0.644545 0.322127 0.10932
H_ H_ 0.321544 0.632872 0.317688 0.10932
H_ H_ 0.0574987 0.65777 0.189386 0.10932
H_ H_ 0.293601 0.661306 0.191727 0.10932
H_ H_ 0.0370072 0.581461 0.318733 0.10932
H_ H_ 0.290646 0.569695 0.31187 0.10932
H_ H_ 0.13717 0.821846 0.368175 0.10932
H_ H_ 0.398087 0.695569 0.376471 0.10932
H_ H_ 0.132203 0.690451 0.353987 0.10932
H_ H_ 0.352686 0.811332 0.365183 0.10932
H_ H_ 0.12362 0.679938 0.427727 0.10932
H_ H_ 0.342843 0.810029 0.442141 0.10932
H_ H_ 0.131467 0.812205 0.444188 0.10932
H_ H_ 0.393779 0.699592 0.455081 0.10932
H_ H_ 0.178244 0.751009 0.142865 0.10932
H_ H_ 0.367423 0.676769 0.140876 0.10932
H_ H_ 0.0843496 0.745707 0.136624 0.10932
H_ H_ 0.377067 0.805628 0.15745 0.10932
H_ H_ 0.0855039 0.746095 0.056468 0.10932
H_ H_ 0.377184 0.818126 0.0795246 0.10932
H_ H_ 0.182218 0.74046 0.0650418 0.10932
H_ H_ 0.362155 0.684972 0.0633352 0.10932
C_ C_ 0.0690011 0.850774 0.248269 -0.02249
C_ C_ 0.319239 0.848649 0.255605 -0.02249
C_ C_ 0.0123862 0.961379 0.257662 -0.02249
C_ C_ 0.268795 0.963254 0.249684 -0.02249
C_ C_ 0.0430771 0.909047 0.217138 -0.11473
C_ C_ 0.295465 0.904617 0.215459 -0.11473
C_ C_ 0.0580152 0.86262 0.288008 -0.11473
C_ C_ 0.311864 0.870595 0.291987 -0.11473
C_ C_ 0.06237 0.87573 0.21348 -0.11473
C_ C_ 0.309551 0.865724 0.21752 -0.11473
C_ C_ 0.0309204 0.921185 0.255953 -0.02249
C_ C_ 0.28617 0.923027 0.251861 -0.02249
C_ C_ 0.0904796 0.814514 0.247256 0.6875
C_ C_ 0.335518 0.808481 0.259043 0.6875
C_ C_ 0.0379883 0.896703 0.29043 -0.11473
C_ C_ 0.297629 0.909931 0.290399 -0.11473
C_ C_ 0.187914 0.847646 0.24504 -0.02249
C_ C_ 0.4279 0.845369 0.252737 -0.02249
C_ C_ 0.236859 0.96351 0.24131 -0.02249
C_ C_ 0.481316 0.960323 0.24935 -0.02249
C_ C_ 0.217922 0.900653 0.280903 -0.11473
C_ C_ 0.458502 0.900594 0.287279 -0.11473
C_ C_ 0.191465 0.870396 0.206558 -0.11473
C_ C_ 0.429595 0.868523 0.214574 -0.11473
C_ C_ 0.202195 0.863218 0.282426 -0.11473
C_ C_ 0.44595 0.860302 0.286762 -0.11473
C_ C_ 0.220189 0.922676 0.243348 -0.02249
C_ C_ 0.462582 0.921379 0.248886 -0.02249
C_ C_ 0.17079 0.808061 0.244933 0.6875
C_ C_ 0.4125 0.806485 0.255738 0.6875
C_ C_ 0.21095 0.905658 0.205868 -0.11473
C_ C_ 0.448692 0.904302 0.213752 -0.11473
C_ C_ 0.180002 0.648087 0.249365 -0.02249
C_ C_ 0.431529 0.646842 0.257661 -0.02249
C_ C_ 0.230948 0.535188 0.246818 -0.02249
C_ C_ 0.486687 0.538635 0.260324 -0.02249
C_ C_ 0.21228 0.598363 0.288326 -0.11473
C_ C_ 0.461566 0.597458 0.29597 -0.11473
C_ C_ 0.187836 0.630056 0.212106 -0.11473
C_ C_ 0.435203 0.624404 0.221054 -0.11473
C_ C_ 0.19448 0.634384 0.287149 -0.11473
C_ C_ 0.442768 0.631468 0.297393 -0.11473
C_ C_ 0.214444 0.575276 0.249894 -0.02249
C_ C_ 0.469868 0.578972 0.258333 -0.02249
C_ C_ 0.161534 0.686679 0.248508 0.6875
C_ C_ 0.411665 0.685074 0.256757 0.6875
C_ C_ 0.202921 0.591875 0.212333 -0.11473
C_ C_ 0.455135 0.589846 0.221106 -0.11473
C_ C_ 0.0643934 0.657117 0.254771 -0.02249
C_ C_ 0.313243 0.649712 0.25361 -0.02249
C_ C_ 0.0173664 0.541444 0.250067 -0.02249
C_ C_ 0.262563 0.534731 0.240972 -0.02249
C_ C_ 0.0391534 0.60413 0.214749 -0.11473
C_ C_ 0.283752 0.600005 0.212232 -0.11473
C_ C_ 0.0598342 0.633674 0.291127 -0.11473
C_ C_ 0.313055 0.622338 0.28879 -0.11473
C_ C_ 0.0540345 0.642769 0.217083 -0.11473
C_ C_ 0.298402 0.637677 0.216155 -0.11473
C_ C_ 0.0317248 0.581866 0.250123 -0.02249
C_ C_ 0.280763 0.573845 0.246979 -0.02249
C_ C_ 0.0867596 0.693507 0.254594 0.6875
C_ C_ 0.33443 0.68712 0.255068 0.6875
C_ C_ 0.0427317 0.596689 0.289009 -0.11473
C_ C_ 0.293926 0.587638 0.286354 -0.11473
C_ C_ 0.136911 0.789128 0.381582 0.17695
C_ C_ 0.387524 0.722067 0.391544 0.17695
C_ C_ 0.133538 0.716484 0.373551 0.17695
C_ C_ 0.36038 0.784688 0.384287 0.17695
C_ C_ 0.127806 0.711535 0.415513 -0.11473
C_ C_ 0.352914 0.783762 0.427621 -0.11473
C_ C_ 0.130077 0.746454 0.442553 0.23465
C_ C_ 0.368746 0.7558 0.453753 0.23465
C_ C_ 0.132579 0.785492 0.425279 -0.11473
C_ C_ 0.384818 0.724254 0.434534 -0.11473
C_ C_ 0.158572 0.743602 0.12348 0.17695
C_ C_ 0.370085 0.707325 0.12708 0.17695
C_ C_ 0.10562 0.747435 0.119342 0.17695
C_ C_ 0.376158 0.779423 0.136621 0.17695
C_ C_ 0.105383 0.74889 0.0751526 -0.11473
C_ C_ 0.375166 0.786508 0.0928811 -0.11473
C_ C_ 0.133098 0.743941 0.0559915 0.23465
C_ C_ 0.372323 0.751162 0.06655 0.23465
C_ C_ 0.160191 0.743463 0.0793614 -0.11473
C_ C_ 0.369174 0.711463 0.0833468 -0.11473
C_ C_ 0.0275776 1.000828162 0.260539 0.05793
C_ C_ 0.28423 1.00155786 0.253999 0.05793
C_ C_ 0.21605 0.497836 0.256891 0.05793
C_ C_ 0.471435 0.502336 0.269294 0.05793
Br Br 0.0701661 0.00474027 0.272198 -0.17191
Br Br 0.328475 1.0016366 0.253903 -0.17191
Br Br 0.172735 0.497271 0.267458 -0.17191
Br Br 0.432239 0.507329 0.291937 -0.17191
N_ N_ 0.134722 0.754424 0.356335 -0.272
N_ N_ 0.373854 0.751367 0.366443 -0.272
N_ N_ 0.13108 0.740269 0.487574 -0.12501
N_ N_ 0.36511 0.760572 0.49811 -0.12501
N_ N_ 0.131205 0.751025 0.142759 -0.272
N_ N_ 0.375014 0.740677 0.153172 -0.272
N_ N_ 0.135135 0.752079 0.0117164 -0.12501
N_ N_ 0.372631 0.759112 0.0213292 -0.12501
O_ O_ 0.0995599 0.799872 0.213253 -0.60745
O_ O_ 0.345523 0.791914 0.225835 -0.60745
O_ O_ 0.100148 0.799477 0.281447 -0.60745
O_ O_ 0.341135 0.793215 0.29448 -0.60745
O_ O_ 0.162909 0.791571 0.279106 -0.60745
O_ O_ 0.402906 0.793588 0.290467 -0.60745
O_ O_ 0.163965 0.791897 0.209533 -0.60745
O_ O_ 0.407303 0.78625 0.222783 -0.60745
O_ O_ 0.156315 0.704794 0.282159 -0.60745
O_ O_ 0.404072 0.703587 0.290963 -0.60745
O_ O_ 0.154986 0.703292 0.213889 -0.60745
O_ O_ 0.402856 0.69818 0.222025 -0.60745
O_ O_ 0.0917127 0.712865 0.220609 -0.60745
O_ O_ 0.343771 0.701947 0.22123 -0.60745
O_ O_ 0.0971377 0.708285 0.289705 -0.60745
O_ O_ 0.344049 0.700418 0.29152 -0.60745
Zn Zn 0.125713 0.746523 0.784942 0.9476
Zn Zn 0.374646 0.751118 0.793176 0.9476
Zn Zn 0.127891 0.748228 0.713839 0.9476
Zn Zn 0.372311 0.751931 0.723728 0.9476
H_ H_ 0.0444678 0.91808 0.681443 0.10932
H_ H_ 0.278973 0.913478 0.683182 0.10932
H_ H_ 0.0659039 0.853706 0.818571 0.10932
H_ H_ 0.317129 0.8636 0.821493 0.10932
H_ H_ 0.0740754 0.854269 0.684051 0.10932
H_ H_ 0.300234 0.843492 0.688705 0.10932
H_ H_ 0.0406728 0.922907 0.815239 0.10932
H_ H_ 0.294849 0.930785 0.81595 0.10932
H_ H_ 0.199504 0.929061 0.82186 0.10932
H_ H_ 0.458319 0.927215 0.8283 0.10932
H_ H_ 0.199619 0.840374 0.694488 0.10932
H_ H_ 0.430463 0.857246 0.695977 0.10932
H_ H_ 0.178203 0.860949 0.822413 0.10932
H_ H_ 0.439799 0.857568 0.83419 0.10932
H_ H_ 0.216813 0.913277 0.688944 0.10932
H_ H_ 0.460457 0.918086 0.694121 0.10932
H_ H_ 0.212248 0.573802 0.813776 0.10932
H_ H_ 0.463749 0.580724 0.820653 0.10932
H_ H_ 0.192933 0.649839 0.676814 0.10932
H_ H_ 0.433279 0.651307 0.689208 0.10932
H_ H_ 0.178164 0.635982 0.810507 0.10932
H_ H_ 0.432039 0.638574 0.822252 0.10932
H_ H_ 0.228319 0.589352 0.682004 0.10932
H_ H_ 0.460801 0.587216 0.685626 0.10932
H_ H_ 0.0244578 0.593914 0.674538 0.10932
H_ H_ 0.290673 0.580558 0.684834 0.10932
H_ H_ 0.0758966 0.634189 0.810958 0.10932
H_ H_ 0.317625 0.645135 0.821012 0.10932
H_ H_ 0.0567409 0.653426 0.675896 0.10932
H_ H_ 0.314409 0.647452 0.686355 0.10932
H_ H_ 0.0499339 0.565009 0.807404 0.10932
H_ H_ 0.287973 0.577635 0.820087 0.10932
H_ H_ 0.123551 0.80392 0.862731 0.10932
H_ H_ 0.374731 0.811897 0.879113 0.10932
H_ H_ 0.130237 0.677148 0.851473 0.10932
H_ H_ 0.376996 0.679505 0.85948 0.10932
H_ H_ 0.134084 0.666534 0.929212 0.10932
H_ H_ 0.371577 0.671137 0.936208 0.10932
H_ H_ 0.13027 0.798377 0.941026 0.10932
H_ H_ 0.365744 0.797672 0.952664 0.10932
H_ H_ 0.112739 0.695332 0.633431 0.10932
H_ H_ 0.326576 0.749549 0.643337 0.10932
H_ H_ 0.150754 0.814823 0.646787 0.10932
H_ H_ 0.419999 0.759555 0.65478 0.10932
H_ H_ 0.150444 0.821403 0.569281 0.10932
H_ H_ 0.426388 0.745384 0.579066 0.10932
H_ H_ 0.11755 0.69939 0.558108 0.10932
H_ H_ 0.330709 0.726748 0.568305 0.10932
C_ C_ 0.0710501 0.846604 0.751172 -0.02249
C_ C_ 0.313582 0.849353 0.755019 -0.02249
C_ C_ 0.0188383 0.959257 0.747131 -0.02249
C_ C_ 0.263944 0.964452 0.748309 -0.02249
C_ C_ 0.0466277 0.901852 0.710698 -0.11473
C_ C_ 0.28709 0.903469 0.713636 -0.11473
C_ C_ 0.0610134 0.866344 0.789383 -0.11473
C_ C_ 0.312139 0.876395 0.789988 -0.11473
C_ C_ 0.0651568 0.866303 0.713288 -0.11473
C_ C_ 0.299012 0.862687 0.716702 -0.11473
C_ C_ 0.0362793 0.920963 0.748325 -0.02249
C_ C_ 0.284103 0.927411 0.749513 -0.02249
C_ C_ 0.0901044 0.809058 0.752336 0.6875
C_ C_ 0.33027 0.810413 0.755517 0.6875
C_ C_ 0.0424514 0.90234 0.787646 -0.11473
C_ C_ 0.296743 0.913604 0.788321 -0.11473
C_ C_ 0.185279 0.84665 0.757839 -0.02249
C_ C_ 0.431958 0.849549 0.765723 -0.02249
C_ C_ 0.232248 0.96312 0.758224 -0.02249
C_ C_ 0.482738 0.965262 0.759016 -0.02249
C_ C_ 0.202547 0.9091 0.794124 -0.11473
C_ C_ 0.458038 0.908091 0.801131 -0.11473
C_ C_ 0.195615 0.862508 0.719828 -0.11473
C_ C_ 0.438926 0.868691 0.726007 -0.11473
C_ C_ 0.188881 0.870156 0.795202 -0.11473
C_ C_ 0.442365 0.869761 0.80293 -0.11473
C_ C_ 0.216533 0.922944 0.757432 -0.02249
C_ C_ 0.463479 0.926551 0.761855 -0.02249
C_ C_ 0.166067 0.8089 0.755676 0.6875
C_ C_ 0.413469 0.811871 0.764032 0.6875
C_ C_ 0.211567 0.900114 0.720022 -0.11473
C_ C_ 0.454449 0.90604 0.725231 -0.11473
C_ C_ 0.186065 0.650759 0.744949 -0.02249
C_ C_ 0.432465 0.653776 0.756773 -0.02249
C_ C_ 0.236858 0.535703 0.745457 -0.02249
C_ C_ 0.48098 0.537899 0.752147 -0.02249
C_ C_ 0.206987 0.589775 0.784387 -0.11473
C_ C_ 0.458149 0.595889 0.791853 -0.11473
C_ C_ 0.198165 0.635142 0.707767 -0.11473
C_ C_ 0.439516 0.635393 0.718108 -0.11473
C_ C_ 0.190302 0.626435 0.783612 -0.11473
C_ C_ 0.441407 0.633519 0.792356 -0.11473
C_ C_ 0.219039 0.57488 0.747123 -0.02249
C_ C_ 0.463314 0.57649 0.753849 -0.02249
C_ C_ 0.165035 0.687326 0.746132 0.6875
C_ C_ 0.414113 0.691928 0.758343 0.6875
C_ C_ 0.21343 0.596548 0.708466 -0.11473
C_ C_ 0.456322 0.598378 0.71599 -0.11473
C_ C_ 0.0680068 0.649964 0.742587 -0.02249
C_ C_ 0.31619 0.654994 0.754635 -0.02249
C_ C_ 0.0167682 0.536049 0.738021 -0.02249
C_ C_ 0.268919 0.53776 0.753594 -0.02249
C_ C_ 0.037569 0.600281 0.703247 -0.11473
C_ C_ 0.296639 0.59509 0.715783 -0.11473
C_ C_ 0.0649861 0.625291 0.779956 -0.11473
C_ C_ 0.311537 0.631178 0.792216 -0.11473
C_ C_ 0.0533524 0.637684 0.705253 -0.11473
C_ C_ 0.311054 0.632469 0.71589 -0.11473
C_ C_ 0.0342695 0.575426 0.7405 -0.02249
C_ C_ 0.286188 0.577599 0.753208 -0.02249
C_ C_ 0.0855863 0.689532 0.7446 0.6875
C_ C_ 0.335765 0.691388 0.752209 0.6875
C_ C_ 0.0496839 0.587046 0.779253 -0.11473
C_ C_ 0.294111 0.594646 0.791629 -0.11473
C_ C_ 0.127186 0.774696 0.877931 0.17695
C_ C_ 0.375044 0.780303 0.890717 0.17695
C_ C_ 0.12937 0.703013 0.870564 0.17695
C_ C_ 0.373143 0.707775 0.878984 0.17695
C_ C_ 0.131568 0.698381 0.914406 -0.11473
C_ C_ 0.370995 0.702249 0.922801 -0.11473
C_ C_ 0.131174 0.732029 0.940011 0.23465
C_ C_ 0.369937 0.735653 0.949878 0.23465
C_ C_ 0.128907 0.771103 0.922518 -0.11473
C_ C_ 0.369485 0.774109 0.932781 -0.11473
C_ C_ 0.122086 0.722833 0.621345 0.17695
C_ C_ 0.347607 0.751034 0.627758 0.17695
C_ C_ 0.140977 0.791498 0.626754 0.17695
C_ C_ 0.400325 0.756537 0.635465 0.17695
C_ C_ 0.141088 0.794371 0.58246 -0.11473
C_ C_ 0.403539 0.748169 0.592349 -0.11473
C_ C_ 0.131797 0.7621 0.557194 0.23465
C_ C_ 0.37824 0.741509 0.56657 0.23465
C_ C_ 0.122427 0.725489 0.577069 -0.11473
C_ C_ 0.349626 0.742455 0.584552 -0.11473
C_ C_ 0.0331607 -0.00141358 0.745093 0.05793
C_ C_ 0.27928 0.00400854 0.746718 0.05793
C_ C_ 0.222558 0.496611 0.74362 0.05793
C_ C_ 0.467294 0.497998 0.755713 0.05793
Br Br 0.0756973 0.00361137 0.731934 -0.17191
Br Br 0.321967 0.0089293 0.731364 -0.17191
Br Br 0.179294 0.49858 0.734462 -0.17191
Br Br 0.424673 0.489837 0.755806 -0.17191
N_ N_ 0.124457 0.741761 0.853575 -0.272
N_ N_ 0.374495 0.746652 0.863104 -0.272
N_ N_ 0.127983 0.724328 0.984384 -0.12501
N_ N_ 0.37123 0.729187 0.995371 -0.12501
N_ N_ 0.131322 0.755611 0.644068 -0.272
N_ N_ 0.373055 0.755294 0.652692 -0.272
N_ N_ 0.129783 0.768877 0.512905 -0.12501
N_ N_ 0.381001 0.738907 0.523788 -0.12501
O_ O_ 0.0961072 0.793151 0.71632 -0.60745
O_ O_ 0.337233 0.791992 0.721375 -0.60745
O_ O_ 0.0963215 0.78962 0.787138 -0.60745
O_ O_ 0.341945 0.797561 0.789611 -0.60745
O_ O_ 0.157842 0.790322 0.788871 -0.60745
O_ O_ 0.401699 0.797992 0.798074 -0.60745
O_ O_ 0.158302 0.793756 0.720585 -0.60745
O_ O_ 0.401942 0.801403 0.729227 -0.60745
O_ O_ 0.154697 0.699681 0.781506 -0.60745
O_ O_ 0.407375 0.707124 0.793739 -0.60745
O_ O_ 0.160245 0.708484 0.713048 -0.60745
O_ O_ 0.405482 0.709767 0.725875 -0.60745
O_ O_ 0.0968765 0.702527 0.710961 -0.60745
O_ O_ 0.341912 0.705845 0.716376 -0.60745
O_ O_ 0.0935572 0.704814 0.780482 -0.60745
O_ O_ 0.344625 0.707572 0.78662 -0.60745
Zn Zn 0.623399 0.247045 0.290629 0.9476
Zn Zn 0.872725 0.254541 0.285852 0.9476
Zn Zn 0.622532 0.247221 0.218774 0.9476
Zn Zn 0.873052 0.253723 0.213054 0.9476
H_ H_ 0.528698 0.41304 0.184021 0.10932
H_ H_ 0.78158 0.412322 0.177425 0.10932
H_ H_ 0.576065 0.354727 0.312805 0.10932
H_ H_ 0.816992 0.362029 0.315392 0.10932
H_ H_ 0.559569 0.34762 0.18209 0.10932
H_ H_ 0.799243 0.340079 0.184044 0.10932
H_ H_ 0.535643 0.417898 0.318425 0.10932
H_ H_ 0.783489 0.426618 0.311706 0.10932
H_ H_ 0.732113 0.406873 0.314895 0.10932
H_ H_ 0.963077 0.426908 0.31353 0.10932
H_ H_ 0.668902 0.359405 0.193394 0.10932
H_ H_ 0.946514 0.340557 0.186756 0.10932
H_ H_ 0.702384 0.340232 0.316751 0.10932
H_ H_ 0.926979 0.365403 0.318294 0.10932
H_ H_ 0.705111 0.424756 0.187185 0.10932
H_ H_ 0.972598 0.409253 0.182353 0.10932
H_ H_ 0.724021 0.0872813 0.3122 0.10932
H_ H_ 0.945935 0.0762582 0.315994 0.10932
H_ H_ 0.669878 0.138052 0.186268 0.10932
H_ H_ 0.949106 0.157617 0.188365 0.10932
H_ H_ 0.699377 0.153956 0.315981 0.10932
H_ H_ 0.920782 0.143892 0.315782 0.10932
H_ H_ 0.698312 0.0732953 0.183523 0.10932
H_ H_ 0.962743 0.0809997 0.189289 0.10932
H_ H_ 0.54611 0.0672623 0.184641 0.10932
H_ H_ 0.780378 0.0837619 0.18104 0.10932
H_ H_ 0.560498 0.147122 0.315497 0.10932
H_ H_ 0.817494 0.143664 0.316557 0.10932
H_ H_ 0.570381 0.134804 0.182363 0.10932
H_ H_ 0.810706 0.147488 0.177826 0.10932
H_ H_ 0.533587 0.0782901 0.316965 0.10932
H_ H_ 0.782489 0.0861643 0.31719 0.10932
H_ H_ 0.628623 0.190948 0.372588 0.10932
H_ H_ 0.889672 0.188669 0.356319 0.10932
H_ H_ 0.616812 0.316746 0.362457 0.10932
H_ H_ 0.863192 0.315534 0.36303 0.10932
H_ H_ 0.62635 0.326165 0.441268 0.10932
H_ H_ 0.862485 0.311893 0.44217 0.10932
H_ H_ 0.623546 0.19258 0.443639 0.10932
H_ H_ 0.891334 0.183834 0.430632 0.10932
H_ H_ 0.615335 0.183985 0.144307 0.10932
H_ H_ 0.873164 0.318797 0.141146 0.10932
H_ H_ 0.629876 0.312733 0.137027 0.10932
H_ H_ 0.885216 0.188022 0.1359 0.10932
H_ H_ 0.631394 0.309787 0.0584366 0.10932
H_ H_ 0.883671 0.192671 0.0570217 0.10932
H_ H_ 0.611236 0.180087 0.0699605 0.10932
H_ H_ 0.878184 0.323447 0.0626469 0.10932
C_ C_ 0.567208 0.347335 0.247119 -0.02249
C_ C_ 0.814589 0.349524 0.250951 -0.02249
C_ C_ 0.516896 0.460642 0.252635 -0.02249
C_ C_ 0.76311 0.462367 0.240008 -0.02249
C_ C_ 0.539716 0.403468 0.212079 -0.11473
C_ C_ 0.789565 0.40157 0.208025 -0.11473
C_ C_ 0.56194 0.367626 0.286498 -0.11473
C_ C_ 0.807939 0.372896 0.286948 -0.11473
C_ C_ 0.557948 0.366227 0.209972 -0.11473
C_ C_ 0.800229 0.360865 0.211421 -0.11473
C_ C_ 0.531301 0.420139 0.251925 -0.02249
C_ C_ 0.781295 0.424112 0.243519 -0.02249
C_ C_ 0.585579 0.306749 0.249079 0.6875
C_ C_ 0.831869 0.309608 0.254256 0.6875
C_ C_ 0.542964 0.403335 0.289525 -0.11473
C_ C_ 0.79184 0.410768 0.284676 -0.11473
C_ C_ 0.684811 0.345365 0.255588 -0.02249
C_ C_ 0.934009 0.347627 0.25253 -0.02249
C_ C_ 0.732407 0.460807 0.250196 -0.02249
C_ C_ 0.986288 0.462587 0.246679 -0.02249
C_ C_ 0.719123 0.395509 0.288353 -0.11473
C_ C_ 0.958666 0.407064 0.286757 -0.11473
C_ C_ 0.684492 0.369514 0.218368 -0.11473
C_ C_ 0.948583 0.36038 0.21515 -0.11473
C_ C_ 0.702843 0.359212 0.289955 -0.11473
C_ C_ 0.938304 0.373275 0.288263 -0.11473
C_ C_ 0.716891 0.420037 0.25125 -0.02249
C_ C_ 0.968252 0.422403 0.248419 -0.02249
C_ C_ 0.665306 0.304964 0.257002 0.6875
C_ C_ 0.914333 0.313159 0.252617 0.6875
C_ C_ 0.70351 0.405674 0.215272 -0.11473
C_ C_ 0.964596 0.398078 0.213016 -0.11473
C_ C_ 0.681009 0.148418 0.252922 -0.02249
C_ C_ 0.93569 0.158064 0.253224 -0.02249
C_ C_ 0.733488 0.0364416 0.24844 -0.02249
C_ C_ 0.978609 0.0375555 0.255996 -0.02249
C_ C_ 0.713791 0.0982526 0.284472 -0.11473
C_ C_ 0.946675 0.0945077 0.288624 -0.11473
C_ C_ 0.681374 0.125935 0.215003 -0.11473
C_ C_ 0.950398 0.140621 0.217585 -0.11473
C_ C_ 0.69588 0.134191 0.287444 -0.11473
C_ C_ 0.933697 0.133931 0.288562 -0.11473
C_ C_ 0.716635 0.0766709 0.246542 -0.02249
C_ C_ 0.962187 0.0784837 0.254578 -0.02249
C_ C_ 0.662438 0.186938 0.255937 0.6875
C_ C_ 0.916257 0.193874 0.249122 0.6875
C_ C_ 0.698278 0.0899574 0.212777 -0.11473
C_ C_ 0.95668 0.0981814 0.216663 -0.11473
C_ C_ 0.563255 0.149247 0.247637 -0.02249
C_ C_ 0.818071 0.151268 0.246441 -0.02249
C_ C_ 0.51657 0.0333648 0.248469 -0.02249
C_ C_ 0.766419 0.0348456 0.249517 -0.02249
C_ C_ 0.546845 0.0854371 0.212567 -0.11473
C_ C_ 0.789265 0.0948144 0.211114 -0.11473
C_ C_ 0.5552 0.131015 0.286326 -0.11473
C_ C_ 0.809022 0.132154 0.285762 -0.11473
C_ C_ 0.561171 0.124839 0.211034 -0.11473
C_ C_ 0.806842 0.131865 0.208909 -0.11473
C_ C_ 0.535103 0.0710188 0.249501 -0.02249
C_ C_ 0.78476 0.0747214 0.249512 -0.02249
C_ C_ 0.583215 0.187859 0.247304 0.6875
C_ C_ 0.836147 0.190272 0.244452 0.6875
C_ C_ 0.539239 0.0931295 0.287015 -0.11473
C_ C_ 0.791023 0.09661 0.287274 -0.11473
C_ C_ 0.623209 0.220966 0.386335 0.17695
C_ C_ 0.882262 0.215154 0.373939 0.17695
C_ C_ 0.623795 0.29155 0.379402 0.17695
C_ C_ 0.868792 0.286805 0.378956 0.17695
C_ C_ 0.625184 0.297137 0.423986 -0.11473
C_ C_ 0.864558 0.283816 0.42214 -0.11473
C_ C_ 0.625323 0.261307 0.448867 0.23465
C_ C_ 0.873552 0.245942 0.44173 0.23465
C_ C_ 0.621536 0.223299 0.429122 -0.11473
C_ C_ 0.883004 0.213029 0.417373 -0.11473
C_ C_ 0.617858 0.211756 0.126651 0.17695
C_ C_ 0.876564 0.291022 0.123283 0.17695
C_ C_ 0.629018 0.284258 0.121604 0.17695
C_ C_ 0.881863 0.218008 0.120792 0.17695
C_ C_ 0.626368 0.282668 0.0771218 -0.11473
C_ C_ 0.883266 0.220124 0.0757798 -0.11473
C_ C_ 0.617982 0.244536 0.0576079 0.23465
C_ C_ 0.881972 0.258617 0.0560064 0.23465
C_ C_ 0.61049 0.210751 0.0831681 -0.11473
C_ C_ 0.878896 0.294497 0.0793826 -0.11473
C_ C_ 0.531738 0.498058 0.243832 0.05793
C_ C_ 0.777029 0.501204 0.235156 0.05793
C_ C_ 0.717394 0.998528 0.245481 0.05793
C_ C_ 0.963303 1.00004 0.257807 0.05793
Br Br 0.569464 0.497392 0.214937 -0.17191
Br Br 0.81785 0.50308 0.213744 -0.17191
Br Br 0.674476 -0.004910999999999999 0.236228 -0.17191
Br Br 0.919673 -0.00230527 0.248575 -0.17191
N_ N_ 0.620773 0.254757 0.360761 -0.272
N_ N_ 0.87665 0.253679 0.355753 -0.272
N_ N_ 0.619364 0.264553 0.492489 -0.12501
N_ N_ 0.876049 0.242147 0.485593 -0.12501
N_ N_ 0.625843 0.249176 0.145732 -0.272
N_ N_ 0.877888 0.253765 0.143403 -0.272
N_ N_ 0.621948 0.237889 0.0139378 -0.12501
N_ N_ 0.885495 0.262458 0.0129955 -0.12501
O_ O_ 0.592459 0.288021 0.215346 -0.60745
O_ O_ 0.841141 0.293384 0.219509 -0.60745
O_ O_ 0.591838 0.291782 0.283749 -0.60745
O_ O_ 0.841548 0.297354 0.289549 -0.60745
O_ O_ 0.656548 0.289683 0.292027 -0.60745
O_ O_ 0.902296 0.302748 0.287421 -0.60745
O_ O_ 0.655039 0.291346 0.222157 -0.60745
O_ O_ 0.90371 0.299276 0.216381 -0.60745
O_ O_ 0.654221 0.200305 0.291494 -0.60745
O_ O_ 0.904127 0.210548 0.281123 -0.60745
O_ O_ 0.654764 0.207216 0.222446 -0.60745
O_ O_ 0.908611 0.208921 0.213191 -0.60745
O_ O_ 0.591602 0.204004 0.212727 -0.60745
O_ O_ 0.845335 0.204602 0.210711 -0.60745
O_ O_ 0.590358 0.203553 0.282942 -0.60745
O_ O_ 0.845291 0.206849 0.278981 -0.60745
Zn Zn 0.625955 0.252279 0.785345 0.9476
Zn Zn 0.875499 0.248267 0.781934 0.9476
Zn Zn 0.623451 0.248316 0.718186 0.9476
Zn Zn 0.875679 0.248051 0.711144 0.9476
H_ H_ 0.542566 0.423124 0.684078 0.10932
H_ H_ 0.789075 0.421558 0.68002 0.10932
H_ H_ 0.567214 0.354386 0.821609 0.10932
H_ H_ 0.819859 0.358029 0.814204 0.10932
H_ H_ 0.577247 0.364437 0.687487 0.10932
H_ H_ 0.824424 0.35714 0.68333 0.10932
H_ H_ 0.541936 0.4227 0.819697 0.10932
H_ H_ 0.787021 0.422496 0.81379 0.10932
H_ H_ 0.732386 0.410841 0.809534 0.10932
H_ H_ 0.956916 0.426758 0.81328 0.10932
H_ H_ 0.674654 0.363888 0.679337 0.10932
H_ H_ 0.935645 0.346437 0.683404 0.10932
H_ H_ 0.699416 0.349664 0.811699 0.10932
H_ H_ 0.920594 0.366336 0.815045 0.10932
H_ H_ 0.699763 0.431134 0.679918 0.10932
H_ H_ 0.960828 0.415894 0.680258 0.10932
H_ H_ 0.736022 0.100332 0.820288 0.10932
H_ H_ 0.961271 0.0772024 0.804661 0.10932
H_ H_ 0.666071 0.124102 0.696773 0.10932
H_ H_ 0.937065 0.144396 0.666979 0.10932
H_ H_ 0.707948 0.168107 0.816015 0.10932
H_ H_ 0.932574 0.139121 0.804684 0.10932
H_ H_ 0.694268 0.058574 0.707762 0.10932
H_ H_ 0.970931 0.085397 0.671953 0.10932
H_ H_ 0.534704 0.0783774 0.685511 0.10932
H_ H_ 0.772295 0.094796 0.686329 0.10932
H_ H_ 0.565327 0.144568 0.820317 0.10932
H_ H_ 0.82861 0.137736 0.812443 0.10932
H_ H_ 0.558105 0.146597 0.685133 0.10932
H_ H_ 0.799542 0.159675 0.6856 0.10932
H_ H_ 0.536533 0.0809675 0.821475 0.10932
H_ H_ 0.803037 0.0720697 0.814163 0.10932
H_ H_ 0.622516 0.318654 0.854623 0.10932
H_ H_ 0.842596 0.298053 0.856361 0.10932
H_ H_ 0.625921 0.187486 0.86639 0.10932
H_ H_ 0.910003 0.200695 0.861615 0.10932
H_ H_ 0.626461 0.192944 0.943042 0.10932
H_ H_ 0.908799 0.202563 0.941208 0.10932
H_ H_ 0.618143 0.326158 0.931493 0.10932
H_ H_ 0.844333 0.299947 0.933138 0.10932
H_ H_ 0.624329 0.182219 0.647784 0.10932
H_ H_ 0.863654 0.312742 0.649745 0.10932
H_ H_ 0.621973 0.313657 0.642575 0.10932
H_ H_ 0.887447 0.191735 0.632105 0.10932
H_ H_ 0.629717 0.31387 0.567071 0.10932
H_ H_ 0.882702 0.195402 0.552763 0.10932
H_ H_ 0.63309 0.180899 0.570968 0.10932
H_ H_ 0.861215 0.32836 0.569565 0.10932
C_ C_ 0.573549 0.355879 0.753761 -0.02249
C_ C_ 0.819551 0.348566 0.749676 -0.02249
C_ C_ 0.516753 0.463757 0.751319 -0.02249
C_ C_ 0.769121 0.463993 0.74607 -0.02249
C_ C_ 0.549215 0.411654 0.713942 -0.11473
C_ C_ 0.794499 0.406704 0.709091 -0.11473
C_ C_ 0.564206 0.372127 0.791239 -0.11473
C_ C_ 0.811047 0.370816 0.786579 -0.11473
C_ C_ 0.56889 0.3783 0.715557 -0.11473
C_ C_ 0.810999 0.367338 0.710754 -0.11473
C_ C_ 0.53608 0.425296 0.751719 -0.02249
C_ C_ 0.786083 0.425245 0.747168 -0.02249
C_ C_ 0.587503 0.312172 0.751176 0.6875
C_ C_ 0.835039 0.30728 0.749802 0.6875
C_ C_ 0.545351 0.406905 0.790599 -0.11473
C_ C_ 0.796852 0.409574 0.785681 -0.11473
C_ C_ 0.682659 0.352707 0.747016 -0.02249
C_ C_ 0.927664 0.350473 0.749832 -0.02249
C_ C_ 0.737031 0.464294 0.741864 -0.02249
C_ C_ 0.981102 0.463571 0.743321 -0.02249
C_ C_ 0.720683 0.400282 0.779227 -0.11473
C_ C_ 0.951514 0.409076 0.784861 -0.11473
C_ C_ 0.685487 0.375775 0.709024 -0.11473
C_ C_ 0.939689 0.364391 0.71189 -0.11473
C_ C_ 0.699944 0.366365 0.782415 -0.11473
C_ C_ 0.933116 0.373604 0.785595 -0.11473
C_ C_ 0.719844 0.425408 0.743822 -0.02249
C_ C_ 0.962179 0.424961 0.746039 -0.02249
C_ C_ 0.663559 0.313698 0.749294 0.6875
C_ C_ 0.911686 0.309939 0.749852 0.6875
C_ C_ 0.701452 0.412964 0.709469 -0.11473
C_ C_ 0.952563 0.404392 0.710531 -0.11473
C_ C_ 0.683112 0.150822 0.758236 -0.02249
C_ C_ 0.931649 0.146951 0.736621 -0.02249
C_ C_ 0.73555 0.0395969 0.758507 -0.02249
C_ C_ 0.984222 0.0346687 0.735154 -0.02249
C_ C_ 0.721738 0.107782 0.793752 -0.11473
C_ C_ 0.95476 0.0896398 0.774758 -0.11473
C_ C_ 0.681279 0.120844 0.725116 -0.11473
C_ C_ 0.942007 0.13065 0.697847 -0.11473
C_ C_ 0.704233 0.143266 0.792169 -0.11473
C_ C_ 0.93688 0.123904 0.775296 -0.11473
C_ C_ 0.719477 0.078691 0.760449 -0.02249
C_ C_ 0.96631 0.0741611 0.737618 -0.02249
C_ C_ 0.663512 0.190449 0.755493 0.6875
C_ C_ 0.91436 0.186662 0.737543 0.6875
C_ C_ 0.697472 0.0829989 0.730032 -0.11473
C_ C_ 0.961105 0.0970751 0.698575 -0.11473
C_ C_ 0.566689 0.151387 0.752634 -0.02249
C_ C_ 0.817874 0.153817 0.748486 -0.02249
C_ C_ 0.516932 0.0376324 0.757673 -0.02249
C_ C_ 0.766351 0.0390608 0.748122 -0.02249
C_ C_ 0.542326 0.0933483 0.715968 -0.11473
C_ C_ 0.783643 0.103072 0.714286 -0.11473
C_ C_ 0.557802 0.134406 0.79076 -0.11473
C_ C_ 0.819668 0.126023 0.783544 -0.11473
C_ C_ 0.55658 0.131258 0.714581 -0.11473
C_ C_ 0.801829 0.138959 0.712557 -0.11473
C_ C_ 0.535697 0.0749237 0.75541 -0.02249
C_ C_ 0.785062 0.0769212 0.749618 -0.02249
C_ C_ 0.586431 0.189141 0.751893 0.6875
C_ C_ 0.836597 0.191378 0.746642 0.6875
C_ C_ 0.543316 0.0952396 0.79199 -0.11473
C_ C_ 0.800829 0.0902687 0.785966 -0.11473
C_ C_ 0.623016 0.291 0.874167 0.17695
C_ C_ 0.855954 0.273368 0.873106 0.17695
C_ C_ 0.622753 0.217775 0.881827 0.17695
C_ C_ 0.890361 0.216916 0.876784 0.17695
C_ C_ 0.624979 0.220849 0.924729 -0.11473
C_ C_ 0.890876 0.218243 0.922156 -0.11473
C_ C_ 0.622903 0.25943 0.943951 0.23465
C_ C_ 0.873362 0.247432 0.941742 0.23465
C_ C_ 0.621269 0.295192 0.918051 -0.11473
C_ C_ 0.85541 0.274782 0.917043 -0.11473
C_ C_ 0.623517 0.210953 0.630319 0.17695
C_ C_ 0.865776 0.288812 0.628182 0.17695
C_ C_ 0.627052 0.285002 0.62974 0.17695
C_ C_ 0.880341 0.219243 0.616704 0.17695
C_ C_ 0.631883 0.284619 0.586104 -0.11473
C_ C_ 0.876361 0.222869 0.572283 -0.11473
C_ C_ 0.629901 0.246187 0.562752 0.23465
C_ C_ 0.870796 0.262571 0.555813 0.23465
C_ C_ 0.627633 0.208664 0.587346 -0.11473
C_ C_ 0.864429 0.296694 0.583095 -0.11473
C_ C_ 0.530394 0.503881 0.749562 0.05793
C_ C_ 0.783873 0.503408 0.746905 0.05793
C_ C_ 0.720483 0.0010262 0.763111 0.05793
C_ C_ 0.970015 -0.00547299999999995 0.73572 0.05793
Br Br 0.574309 0.509403 0.743911 -0.17191
Br Br 0.826304 0.506215 0.743488 -0.17191
Br Br 0.681504 0.0021100000000000563 0.791616 -0.17191
Br Br 0.927615 -0.009282000000000012 0.726006 -0.17191
N_ N_ 0.623026 0.252975 0.856146 -0.272
N_ N_ 0.873932 0.244939 0.854508 -0.272
N_ N_ 0.618647 0.265276 0.987853 -0.12501
N_ N_ 0.86904 0.243426 0.986946 -0.12501
N_ N_ 0.624042 0.248429 0.649866 -0.272
N_ N_ 0.874251 0.251608 0.642748 -0.272
N_ N_ 0.634943 0.245385 0.518454 -0.12501
N_ N_ 0.86472 0.267569 0.51077 -0.12501
O_ O_ 0.598893 0.299391 0.718745 -0.60745
O_ O_ 0.842431 0.289407 0.715155 -0.60745
O_ O_ 0.592837 0.292698 0.785376 -0.60745
O_ O_ 0.84575 0.293138 0.78457 -0.60745
O_ O_ 0.657001 0.298048 0.784852 -0.60745
O_ O_ 0.903688 0.293169 0.784911 -0.60745
O_ O_ 0.656525 0.29482 0.71597 -0.60745
O_ O_ 0.903607 0.291335 0.715462 -0.60745
O_ O_ 0.660324 0.213765 0.78733 -0.60745
O_ O_ 0.909531 0.20432 0.772196 -0.60745
O_ O_ 0.651562 0.19939 0.720464 -0.60745
O_ O_ 0.909878 0.20886 0.703531 -0.60745
O_ O_ 0.590629 0.206922 0.717251 -0.60745
O_ O_ 0.845863 0.203755 0.711591 -0.60745
O_ O_ 0.598241 0.203835 0.785454 -0.60745
O_ O_ 0.846315 0.207777 0.781406 -0.60745
Zn Zn 0.624005 0.752472 0.285591 0.9476
Zn Zn 0.873877 0.748216 0.285279 0.9476
Zn Zn 0.623578 0.748805 0.216546 0.9476
Zn Zn 0.873009 0.749845 0.212189 0.9476
H_ H_ 0.527996 0.907211 0.18474 0.10932
H_ H_ 0.787592 0.924071 0.187565 0.10932
H_ H_ 0.564969 0.857314 0.321972 0.10932
H_ H_ 0.806367 0.846835 0.317738 0.10932
H_ H_ 0.560455 0.841701 0.19077 0.10932
H_ H_ 0.807757 0.852228 0.187686 0.10932
H_ H_ 0.536055 0.921304 0.316454 0.10932
H_ H_ 0.778207 0.909364 0.322032 0.10932
H_ H_ 0.702326 0.92533 0.313147 0.10932
H_ H_ 0.947965 0.924428 0.321557 0.10932
H_ H_ 0.706165 0.833775 0.190649 0.10932
H_ H_ 0.938926 0.853041 0.184939 0.10932
H_ H_ 0.666985 0.86642 0.30821 0.10932
H_ H_ 0.923616 0.855038 0.317637 0.10932
H_ H_ 0.725044 0.905596 0.183123 0.10932
H_ H_ 0.97038 0.918051 0.192795 0.10932
H_ H_ 0.721717 0.590045 0.313764 0.10932
H_ H_ 0.972004 0.587176 0.311726 0.10932
H_ H_ 0.667481 0.629153 0.183978 0.10932
H_ H_ 0.935763 0.645719 0.176841 0.10932
H_ H_ 0.696099 0.658821 0.312667 0.10932
H_ H_ 0.933793 0.644256 0.312884 0.10932
H_ H_ 0.702165 0.57342 0.182135 0.10932
H_ H_ 0.963205 0.579551 0.179366 0.10932
H_ H_ 0.522676 0.599528 0.18426 0.10932
H_ H_ 0.771094 0.596938 0.182527 0.10932
H_ H_ 0.58423 0.62671 0.309951 0.10932
H_ H_ 0.818167 0.634804 0.318225 0.10932
H_ H_ 0.547252 0.665684 0.191783 0.10932
H_ H_ 0.807172 0.652501 0.1826 0.10932
H_ H_ 0.548909 0.568959 0.311943 0.10932
H_ H_ 0.78603 0.573169 0.310961 0.10932
H_ H_ 0.63083 0.68596 0.355728 0.10932
H_ H_ 0.907988 0.692565 0.357732 0.10932
H_ H_ 0.63261 0.8132 0.363717 0.10932
H_ H_ 0.854768 0.79848 0.368486 0.10932
H_ H_ 0.631064 0.811589 0.441754 0.10932
H_ H_ 0.856654 0.796025 0.443201 0.10932
H_ H_ 0.636254 0.679963 0.433159 0.10932
H_ H_ 0.90337 0.681593 0.434852 0.10932
H_ H_ 0.576717 0.778394 0.145657 0.10932
H_ H_ 0.884798 0.69442 0.135793 0.10932
H_ H_ 0.663025 0.726398 0.137 0.10932
H_ H_ 0.869696 0.821228 0.140787 0.10932
H_ H_ 0.661174 0.740198 0.0605432 0.10932
H_ H_ 0.865171 0.825657 0.0650939 0.10932
H_ H_ 0.568466 0.778782 0.0686964 0.10932
H_ H_ 0.883284 0.697922 0.056025 0.10932
C_ C_ 0.564781 0.844174 0.256409 -0.02249
C_ C_ 0.812592 0.846882 0.252801 -0.02249
C_ C_ 0.513205 0.956991 0.248482 -0.02249
C_ C_ 0.763607 0.960044 0.253972 -0.02249
C_ C_ 0.534422 0.893432 0.215833 -0.11473
C_ C_ 0.790803 0.90614 0.216406 -0.11473
C_ C_ 0.557981 0.866969 0.292103 -0.11473
C_ C_ 0.79905 0.860142 0.28934 -0.11473
C_ C_ 0.550162 0.855808 0.218315 -0.11473
C_ C_ 0.806498 0.86952 0.216006 -0.11473
C_ C_ 0.529208 0.915436 0.251847 -0.02249
C_ C_ 0.777637 0.919286 0.254677 -0.02249
C_ C_ 0.588041 0.811511 0.259022 0.6875
C_ C_ 0.832692 0.807899 0.251929 0.6875
C_ C_ 0.541102 0.903711 0.290717 -0.11473
C_ C_ 0.78224 0.896237 0.291178 -0.11473
C_ C_ 0.681236 0.84825 0.248436 -0.02249
C_ C_ 0.929881 0.848828 0.251373 -0.02249
C_ C_ 0.732584 0.96154 0.24801 -0.02249
C_ C_ 0.980666 0.961766 0.261293 -0.02249
C_ C_ 0.701968 0.906372 0.28542 -0.11473
C_ C_ 0.947629 0.906347 0.293187 -0.11473
C_ C_ 0.698481 0.857645 0.212315 -0.11473
C_ C_ 0.942831 0.866863 0.215338 -0.11473
C_ C_ 0.683345 0.872818 0.283829 -0.11473
C_ C_ 0.934485 0.867434 0.291143 -0.11473
C_ C_ 0.715738 0.919135 0.247314 -0.02249
C_ C_ 0.963224 0.921945 0.259053 -0.02249
C_ C_ 0.665097 0.806881 0.249255 0.6875
C_ C_ 0.909967 0.81235 0.248548 0.6875
C_ C_ 0.712528 0.896308 0.21059 -0.11473
C_ C_ 0.959745 0.90345 0.219869 -0.11473
C_ C_ 0.680375 0.649492 0.246897 -0.02249
C_ C_ 0.930783 0.649378 0.243411 -0.02249
C_ C_ 0.730653 0.538039 0.248781 -0.02249
C_ C_ 0.985763 0.539884 0.247582 -0.02249
C_ C_ 0.710472 0.599202 0.285236 -0.11473
C_ C_ 0.960044 0.596998 0.282646 -0.11473
C_ C_ 0.686129 0.62877 0.208169 -0.11473
C_ C_ 0.93948 0.629181 0.205732 -0.11473
C_ C_ 0.69514 0.637224 0.284265 -0.11473
C_ C_ 0.941214 0.631771 0.28226 -0.11473
C_ C_ 0.712987 0.576132 0.248157 -0.02249
C_ C_ 0.968779 0.579473 0.245797 -0.02249
C_ C_ 0.659911 0.687758 0.245619 0.6875
C_ C_ 0.910113 0.684681 0.244559 0.6875
C_ C_ 0.703366 0.593993 0.208745 -0.11473
C_ C_ 0.95849 0.594311 0.206503 -0.11473
C_ C_ 0.564849 0.653546 0.25415 -0.02249
C_ C_ 0.81269 0.652298 0.249585 -0.02249
C_ C_ 0.516669 0.536397 0.245229 -0.02249
C_ C_ 0.762592 0.53736 0.244545 -0.02249
C_ C_ 0.531211 0.606707 0.215934 -0.11473
C_ C_ 0.782962 0.602665 0.210297 -0.11473
C_ C_ 0.567394 0.623558 0.285056 -0.11473
C_ C_ 0.808023 0.627632 0.286708 -0.11473
C_ C_ 0.545986 0.645645 0.219385 -0.11473
C_ C_ 0.801391 0.637688 0.211731 -0.11473
C_ C_ 0.53602 0.574594 0.245098 -0.02249
C_ C_ 0.778329 0.578128 0.246265 -0.02249
C_ C_ 0.581375 0.695038 0.25592 0.6875
C_ C_ 0.835185 0.68828 0.249916 0.6875
C_ C_ 0.552139 0.586124 0.283236 -0.11473
C_ C_ 0.791558 0.590866 0.284065 -0.11473
C_ C_ 0.632878 0.713255 0.376221 0.17695
C_ C_ 0.896414 0.714077 0.378145 0.17695
C_ C_ 0.633486 0.786409 0.379886 0.17695
C_ C_ 0.866261 0.773257 0.382967 0.17695
C_ C_ 0.63438 0.784756 0.425332 -0.11473
C_ C_ 0.8692 0.772251 0.425982 -0.11473
C_ C_ 0.633742 0.746995 0.445538 0.23465
C_ C_ 0.884912 0.740953 0.448366 0.23465
C_ C_ 0.634294 0.710741 0.420403 -0.11473
C_ C_ 0.897195 0.71061 0.423172 -0.11473
C_ C_ 0.593481 0.765572 0.127132 0.17695
C_ C_ 0.881175 0.722432 0.118437 0.17695
C_ C_ 0.642283 0.735222 0.121888 0.17695
C_ C_ 0.870505 0.792975 0.12284 0.17695
C_ C_ 0.641136 0.739708 0.0784159 -0.11473
C_ C_ 0.867437 0.795811 0.0784862 -0.11473
C_ C_ 0.613921 0.753506 0.0592153 0.23465
C_ C_ 0.871588 0.76148 0.0542456 0.23465
C_ C_ 0.589799 0.770138 0.0842054 -0.11473
C_ C_ 0.880767 0.724623 0.0742517 -0.11473
C_ C_ 0.530113 0.993484 0.243954 0.05793
C_ C_ 0.780918 0.997145 0.251862 0.05793
C_ C_ 0.716446 0.498584 0.253737 0.05793
C_ C_ 0.970309 0.502118 0.24564 0.05793
Br Br 0.57227 0.989478 0.237591 -0.17191
Br Br 0.82287 0.994264 0.259795 -0.17191
Br Br 0.674752 0.495478 0.267914 -0.17191
Br Br 0.928581 0.499786 0.232442 -0.17191
N_ N_ 0.629986 0.750673 0.357427 -0.272
N_ N_ 0.880586 0.745164 0.358054 -0.272
N_ N_ 0.634507 0.742446 0.491164 -0.12501
N_ N_ 0.886041 0.737128 0.493088 -0.12501
N_ N_ 0.618534 0.74753 0.145436 -0.272
N_ N_ 0.873108 0.754431 0.14198 -0.272
N_ N_ 0.611285 0.756129 0.0130712 -0.12501
N_ N_ 0.867509 0.763844 0.0080876 -0.12501
O_ O_ 0.593135 0.790913 0.226643 -0.60745
O_ O_ 0.836567 0.788636 0.217774 -0.60745
O_ O_ 0.594535 0.797539 0.294516 -0.60745
O_ O_ 0.845132 0.794418 0.285216 -0.60745
O_ O_ 0.654344 0.794143 0.283062 -0.60745
O_ O_ 0.904877 0.791837 0.281242 -0.60745
O_ O_ 0.654618 0.791572 0.215149 -0.60745
O_ O_ 0.900575 0.799737 0.213345 -0.60745
O_ O_ 0.654192 0.704933 0.281603 -0.60745
O_ O_ 0.904622 0.702391 0.279026 -0.60745
O_ O_ 0.654942 0.707207 0.21073 -0.60745
O_ O_ 0.902374 0.702108 0.209734 -0.60745
O_ O_ 0.593632 0.705046 0.22213 -0.60745
O_ O_ 0.844112 0.702599 0.216787 -0.60745
O_ O_ 0.591455 0.710165 0.290638 -0.60745
O_ O_ 0.84208 0.704844 0.28376 -0.60745
Zn Zn 0.628342 0.750744 0.789879 0.9476
Zn Zn 0.87838 0.749352 0.78433 0.9476
Zn Zn 0.627508 0.750768 0.718921 0.9476
Zn Zn 0.87306 0.75042 0.717319 0.9476
H_ H_ 0.524127 0.906799 0.695151 0.10932
H_ H_ 0.773769 0.910379 0.685118 0.10932
H_ H_ 0.573571 0.860836 0.825976 0.10932
H_ H_ 0.829973 0.87009 0.814885 0.10932
H_ H_ 0.55234 0.843902 0.692882 0.10932
H_ H_ 0.800448 0.843635 0.689397 0.10932
H_ H_ 0.543989 0.92706 0.822602 0.10932
H_ H_ 0.792238 0.928484 0.814971 0.10932
H_ H_ 0.723431 0.916788 0.821545 0.10932
H_ H_ 0.961859 0.927752 0.810474 0.10932
H_ H_ 0.675605 0.866604 0.688874 0.10932
H_ H_ 0.945176 0.84011 0.685703 0.10932
H_ H_ 0.694259 0.850796 0.824358 0.10932
H_ H_ 0.937908 0.855921 0.818361 0.10932
H_ H_ 0.710141 0.926882 0.688105 0.10932
H_ H_ 0.97607 0.900141 0.679267 0.10932
H_ H_ 0.723509 0.58824 0.816874 0.10932
H_ H_ 0.984206 0.598195 0.804006 0.10932
H_ H_ 0.684102 0.650426 0.684459 0.10932
H_ H_ 0.929168 0.647234 0.678709 0.10932
H_ H_ 0.696294 0.652335 0.816337 0.10932
H_ H_ 0.951018 0.658436 0.811638 0.10932
H_ H_ 0.706858 0.578414 0.681055 0.10932
H_ H_ 0.953793 0.580525 0.677544 0.10932
H_ H_ 0.517738 0.599583 0.684015 0.10932
H_ H_ 0.785954 0.586089 0.679974 0.10932
H_ H_ 0.573799 0.635054 0.817641 0.10932
H_ H_ 0.802721 0.660505 0.812414 0.10932
H_ H_ 0.555364 0.653501 0.682368 0.10932
H_ H_ 0.815758 0.645738 0.67905 0.10932
H_ H_ 0.540302 0.57465 0.813479 0.10932
H_ H_ 0.780742 0.588763 0.813618 0.10932
H_ H_ 0.670568 0.727428 0.863291 0.10932
H_ H_ 0.871039 0.685275 0.848966 0.10932
H_ H_ 0.579308 0.761498 0.865195 0.10932
H_ H_ 0.880391 0.811943 0.867853 0.10932
H_ H_ 0.575168 0.735982 0.938542 0.10932
H_ H_ 0.886196 0.802947 0.943972 0.10932
H_ H_ 0.671245 0.71982 0.940512 0.10932
H_ H_ 0.873637 0.671211 0.925606 0.10932
H_ H_ 0.635999 0.69701 0.643696 0.10932
H_ H_ 0.872686 0.815946 0.649505 0.10932
H_ H_ 0.621286 0.821074 0.650849 0.10932
H_ H_ 0.873531 0.686368 0.641833 0.10932
H_ H_ 0.620976 0.830901 0.572572 0.10932
H_ H_ 0.869989 0.688705 0.563357 0.10932
H_ H_ 0.626728 0.698069 0.565215 0.10932
H_ H_ 0.869934 0.823617 0.571754 0.10932
C_ C_ 0.566705 0.846662 0.758774 -0.02249
C_ C_ 0.819729 0.851978 0.750336 -0.02249
C_ C_ 0.514283 0.963166 0.753619 -0.02249
C_ C_ 0.766324 0.962831 0.747569 -0.02249
C_ C_ 0.533079 0.894838 0.723973 -0.11473
C_ C_ 0.784855 0.9003 0.714127 -0.11473
C_ C_ 0.563257 0.871384 0.796467 -0.11473
C_ C_ 0.816733 0.876146 0.786044 -0.11473
C_ C_ 0.550341 0.858139 0.723463 -0.11473
C_ C_ 0.802356 0.864634 0.715143 -0.11473
C_ C_ 0.530139 0.920505 0.758126 -0.02249
C_ C_ 0.782787 0.923813 0.749003 -0.02249
C_ C_ 0.588297 0.809659 0.759947 0.6875
C_ C_ 0.836832 0.811955 0.750789 0.6875
C_ C_ 0.547713 0.910135 0.793531 -0.11473
C_ C_ 0.796135 0.909656 0.786739 -0.11473
C_ C_ 0.686953 0.848698 0.755083 -0.02249
C_ C_ 0.934937 0.847047 0.75146 -0.02249
C_ C_ 0.735651 0.963268 0.755585 -0.02249
C_ C_ 0.986945 0.956597 0.740032 -0.02249
C_ C_ 0.714629 0.903488 0.792993 -0.11473
C_ C_ 0.961062 0.905262 0.783889 -0.11473
C_ C_ 0.687109 0.875975 0.718303 -0.11473
C_ C_ 0.950013 0.855137 0.714235 -0.11473
C_ C_ 0.698137 0.865732 0.793767 -0.11473
C_ C_ 0.944267 0.868121 0.787345 -0.11473
C_ C_ 0.718905 0.925195 0.755544 -0.02249
C_ C_ 0.971749 0.91618 0.744107 -0.02249
C_ C_ 0.667587 0.809717 0.754987 0.6875
C_ C_ 0.913816 0.810942 0.752951 0.6875
C_ C_ 0.706871 0.910204 0.718917 -0.11473
C_ C_ 0.967824 0.891284 0.709912 -0.11473
C_ C_ 0.690435 0.656785 0.750739 -0.02249
C_ C_ 0.937931 0.656335 0.745613 -0.02249
C_ C_ 0.734683 0.537236 0.746199 -0.02249
C_ C_ 0.983918 0.538968 0.741295 -0.02249
C_ C_ 0.711956 0.597144 0.78715 -0.11473
C_ C_ 0.971778 0.606888 0.778332 -0.11473
C_ C_ 0.695503 0.638012 0.712242 -0.11473
C_ C_ 0.939995 0.634621 0.70658 -0.11473
C_ C_ 0.700395 0.638407 0.786963 -0.11473
C_ C_ 0.955048 0.64418 0.780092 -0.11473
C_ C_ 0.718471 0.578106 0.747742 -0.02249
C_ C_ 0.970641 0.580878 0.740896 -0.02249
C_ C_ 0.668763 0.692794 0.751075 0.6875
C_ C_ 0.916215 0.691033 0.747859 0.6875
C_ C_ 0.707882 0.596412 0.711036 -0.11473
C_ C_ 0.956129 0.597402 0.705873 -0.11473
C_ C_ 0.568835 0.650219 0.749777 -0.02249
C_ C_ 0.81577 0.653076 0.749109 -0.02249
C_ C_ 0.511895 0.540604 0.747665 -0.02249
C_ C_ 0.766314 0.539933 0.7456 -0.02249
C_ C_ 0.533139 0.604882 0.711788 -0.11473
C_ C_ 0.787321 0.601906 0.70856 -0.11473
C_ C_ 0.56319 0.627765 0.787208 -0.11473
C_ C_ 0.802977 0.639269 0.786526 -0.11473
C_ C_ 0.553218 0.637646 0.711549 -0.11473
C_ C_ 0.805941 0.636918 0.709498 -0.11473
C_ C_ 0.528172 0.581552 0.748689 -0.02249
C_ C_ 0.780985 0.582146 0.746641 -0.02249
C_ C_ 0.587744 0.689134 0.752116 0.6875
C_ C_ 0.837265 0.689448 0.748718 0.6875
C_ C_ 0.542969 0.593755 0.785876 -0.11473
C_ C_ 0.784763 0.604033 0.785399 -0.11473
C_ C_ 0.649954 0.73181 0.880699 0.17695
C_ C_ 0.875154 0.709365 0.870737 0.17695
C_ C_ 0.598329 0.749266 0.881512 0.17695
C_ C_ 0.881339 0.781105 0.881208 0.17695
C_ C_ 0.596423 0.740109 0.924081 -0.11473
C_ C_ 0.882026 0.777261 0.923842 -0.11473
C_ C_ 0.622849 0.730556 0.946155 0.23465
C_ C_ 0.875078 0.738684 0.939455 0.23465
C_ C_ 0.65023 0.72817 0.923544 -0.11473
C_ C_ 0.871452 0.703985 0.913226 -0.11473
C_ C_ 0.631426 0.725018 0.627195 0.17695
C_ C_ 0.870034 0.789633 0.628772 0.17695
C_ C_ 0.622453 0.795135 0.630796 0.17695
C_ C_ 0.872758 0.715534 0.625414 0.17695
C_ C_ 0.623705 0.800926 0.587245 -0.11473
C_ C_ 0.872412 0.717197 0.581267 -0.11473
C_ C_ 0.624457 0.765725 0.561137 0.23465
C_ C_ 0.871991 0.75629 0.562126 0.23465
C_ C_ 0.626774 0.727279 0.581944 -0.11473
C_ C_ 0.871781 0.793055 0.585873 -0.11473
C_ C_ 0.531202 -0.000671013 0.751136 0.05793
C_ C_ 0.781759 0.000548188 0.743327 0.05793
C_ C_ 0.720328 0.500158 0.743772 0.05793
C_ C_ 0.966556 0.501783 0.743862 0.05793
Br Br 0.575876 -0.003283000000000036 0.744138 -0.17191
Br Br 0.823928 1.000620689 0.731211 -0.17191
Br Br 0.676783 0.501723 0.748847 -0.17191
Br Br 0.92212 0.505777 0.748864 -0.17191
N_ N_ 0.623885 0.74335 0.859944 -0.272
N_ N_ 0.876924 0.748432 0.85405 -0.272
N_ N_ 0.622875 0.729031 0.990511 -0.12501
N_ N_ 0.87557 0.73485 0.985224 -0.12501
N_ N_ 0.625245 0.758116 0.650053 -0.272
N_ N_ 0.87559 0.751189 0.6472 -0.272
N_ N_ 0.623719 0.76954 0.515169 -0.12501
N_ N_ 0.872142 0.761027 0.516325 -0.12501
O_ O_ 0.595876 0.791888 0.724685 -0.60745
O_ O_ 0.842546 0.795131 0.716471 -0.60745
O_ O_ 0.599286 0.794957 0.794129 -0.60745
O_ O_ 0.848461 0.798162 0.785138 -0.60745
O_ O_ 0.661459 0.791875 0.78753 -0.60745
O_ O_ 0.909756 0.793722 0.788535 -0.60745
O_ O_ 0.655434 0.797527 0.72064 -0.60745
O_ O_ 0.904459 0.793103 0.719284 -0.60745
O_ O_ 0.660328 0.70817 0.786359 -0.60745
O_ O_ 0.909596 0.705859 0.782791 -0.60745
O_ O_ 0.661788 0.710881 0.716855 -0.60745
O_ O_ 0.90431 0.706598 0.715602 -0.60745
O_ O_ 0.598729 0.70386 0.717003 -0.60745
O_ O_ 0.844526 0.706031 0.712993 -0.60745
O_ O_ 0.595763 0.70454 0.788222 -0.60745
O_ O_ 0.846648 0.706549 0.782272 -0.60745
