_cell_length_a 44.444
_cell_length_b 32.3360000049186
_cell_length_c 31.843999878906452
_cell_angle_alpha 89.99799923859553
_cell_angle_beta 91.13600050494348
_cell_angle_gamma 89.9990006550086
_symmetry_space_group_name_H-M         'P 1'
_symmetry_Int_Tables_number            1
loop_
_symmetry_equiv_pos_as_xyz
   'x, y, z'
                         
loop_
_atom_site_label
_atom_site_type_symbol
_atom_site_fract_x 
_atom_site_fract_y
_atom_site_fract_z
_atom_site_charge
Zn Zn 0.123774 0.2506 0.287637 0.9476
Zn Zn 0.371739 0.247075 0.290351 0.9476
Zn Zn 0.128761 0.251546 0.217709 0.9476
Zn Zn 0.37336 0.248361 0.220192 0.9476
H_ H_ 0.0451351 0.422004 0.179158 0.10932
H_ H_ 0.308012 0.427695 0.197784 0.10932
H_ H_ 0.0553282 0.344197 0.315098 0.10932
H_ H_ 0.288342 0.329291 0.316763 0.10932
H_ H_ 0.0680116 0.353361 0.180098 0.10932
H_ H_ 0.329803 0.358153 0.2021 0.10932
H_ H_ 0.0251931 0.410693 0.309104 0.10932
H_ H_ 0.273265 0.405565 0.320608 0.10932
H_ H_ 0.203131 0.431165 0.318306 0.10932
H_ H_ 0.446836 0.433566 0.311858 0.10932
H_ H_ 0.202678 0.343042 0.194094 0.10932
H_ H_ 0.445462 0.330241 0.199563 0.10932
H_ H_ 0.179221 0.363565 0.324143 0.10932
H_ H_ 0.411484 0.372581 0.314788 0.10932
H_ H_ 0.231702 0.404342 0.192952 0.10932
H_ H_ 0.47964 0.391435 0.193897 0.10932
H_ H_ 0.210874 0.078249 0.318538 0.10932
H_ H_ 0.44828 0.0702509 0.320887 0.10932
H_ H_ 0.185122 0.145114 0.182069 0.10932
H_ H_ 0.450005 0.159345 0.196755 0.10932
H_ H_ 0.179536 0.143545 0.316727 0.10932
H_ H_ 0.419396 0.139113 0.320988 0.10932
H_ H_ 0.209746 0.0745514 0.184857 0.10932
H_ H_ 0.479431 0.0988203 0.19694 0.10932
H_ H_ 0.0400822 0.0807521 0.176246 0.10932
H_ H_ 0.271817 0.0959637 0.184354 0.10932
H_ H_ 0.0565521 0.152448 0.314182 0.10932
H_ H_ 0.313598 0.136285 0.321559 0.10932
H_ H_ 0.0693816 0.147765 0.180776 0.10932
H_ H_ 0.312732 0.147427 0.185886 0.10932
H_ H_ 0.0294569 0.0856282 0.307928 0.10932
H_ H_ 0.283536 0.072784 0.315702 0.10932
H_ H_ 0.128252 0.319415 0.364206 0.10932
H_ H_ 0.381474 0.310214 0.374276 0.10932
H_ H_ 0.120787 0.187799 0.369226 0.10932
H_ H_ 0.361423 0.182437 0.359851 0.10932
H_ H_ 0.13275 0.190558 0.444657 0.10932
H_ H_ 0.361316 0.17224 0.440122 0.10932
H_ H_ 0.129735 0.322066 0.439276 0.10932
H_ H_ 0.378312 0.302018 0.450578 0.10932
H_ H_ 0.138346 0.316455 0.146199 0.10932
H_ H_ 0.41713 0.220454 0.150138 0.10932
H_ H_ 0.118064 0.186655 0.141348 0.10932
H_ H_ 0.332663 0.2863 0.146577 0.10932
H_ H_ 0.110427 0.192532 0.0594685 0.10932
H_ H_ 0.333772 0.289434 0.0666158 0.10932
H_ H_ 0.134961 0.321444 0.0694151 0.10932
H_ H_ 0.420833 0.227906 0.0711886 0.10932
C_ C_ 0.0667797 0.346242 0.247132 -0.02249
C_ C_ 0.308568 0.338352 0.256148 -0.02249
C_ C_ 0.0143509 0.461735 0.241339 -0.02249
C_ C_ 0.268706 0.461831 0.25644 -0.02249
C_ C_ 0.0488208 0.40844 0.209895 -0.11473
C_ C_ 0.298804 0.405787 0.221607 -0.11473
C_ C_ 0.0505655 0.36001 0.282966 -0.11473
C_ C_ 0.289782 0.350831 0.289099 -0.11473
C_ C_ 0.063144 0.368652 0.209384 -0.11473
C_ C_ 0.311819 0.36592 0.222456 -0.11473
C_ C_ 0.0314765 0.421235 0.244443 -0.02249
C_ C_ 0.284987 0.420804 0.256798 -0.02249
C_ C_ 0.0900948 0.313217 0.251399 0.6875
C_ C_ 0.325713 0.298836 0.259275 0.6875
C_ C_ 0.0364517 0.398997 0.282519 -0.11473
C_ C_ 0.279342 0.392876 0.29111 -0.11473
C_ C_ 0.188224 0.344966 0.259683 -0.02249
C_ C_ 0.427239 0.346857 0.257329 -0.02249
C_ C_ 0.236688 0.463708 0.252161 -0.02249
C_ C_ 0.480858 0.458031 0.250943 -0.02249
C_ C_ 0.201576 0.412173 0.291531 -0.11473
C_ C_ 0.44685 0.410213 0.289648 -0.11473
C_ C_ 0.202642 0.359072 0.222376 -0.11473
C_ C_ 0.448658 0.351499 0.224825 -0.11473
C_ C_ 0.186359 0.3736 0.293472 -0.11473
C_ C_ 0.427598 0.375807 0.290316 -0.11473
C_ C_ 0.218127 0.423293 0.25583 -0.02249
C_ C_ 0.465226 0.417078 0.254137 -0.02249
C_ C_ 0.168632 0.307947 0.256919 0.6875
C_ C_ 0.406607 0.312056 0.256666 0.6875
C_ C_ 0.218938 0.396824 0.221833 -0.11473
C_ C_ 0.464758 0.388474 0.221326 -0.11473
C_ C_ 0.180041 0.148923 0.249559 -0.02249
C_ C_ 0.432914 0.155091 0.258503 -0.02249
C_ C_ 0.229076 0.0349287 0.25021 -0.02249
C_ C_ 0.4845 0.0389198 0.256422 -0.02249
C_ C_ 0.203051 0.0925631 0.28915 -0.11473
C_ C_ 0.450517 0.0908085 0.295331 -0.11473
C_ C_ 0.1876 0.129316 0.212586 -0.11473
C_ C_ 0.450012 0.142766 0.225223 -0.11473
C_ C_ 0.187281 0.130026 0.28862 -0.11473
C_ C_ 0.434463 0.129734 0.295567 -0.11473
C_ C_ 0.212678 0.0761719 0.251201 -0.02249
C_ C_ 0.465968 0.0790426 0.258213 -0.02249
C_ C_ 0.162854 0.188668 0.249563 0.6875
C_ C_ 0.413588 0.191813 0.25502 0.6875
C_ C_ 0.204783 0.0928556 0.213527 -0.11473
C_ C_ 0.4681 0.108473 0.226469 -0.11473
C_ C_ 0.0686532 0.153593 0.247922 -0.02249
C_ C_ 0.314451 0.14847 0.253003 -0.02249
C_ C_ 0.0184506 0.0370095 0.240368 -0.02249
C_ C_ 0.260486 0.0359507 0.24803 -0.02249
C_ C_ 0.0446865 0.0970226 0.2062 -0.11473
C_ C_ 0.283863 0.100733 0.214083 -0.11473
C_ C_ 0.0556251 0.135464 0.284349 -0.11473
C_ C_ 0.307216 0.126173 0.291136 -0.11473
C_ C_ 0.0597783 0.135543 0.208528 -0.11473
C_ C_ 0.305197 0.131847 0.214939 -0.11473
C_ C_ 0.0354011 0.0775631 0.244405 -0.02249
C_ C_ 0.275713 0.0784691 0.251064 -0.02249
C_ C_ 0.0846286 0.193228 0.248552 0.6875
C_ C_ 0.333293 0.185867 0.25441 0.6875
C_ C_ 0.0404082 0.097663 0.282176 -0.11473
C_ C_ 0.287846 0.091411 0.288821 -0.11473
C_ C_ 0.12546 0.29088 0.380543 0.17695
C_ C_ 0.376055 0.280971 0.389636 0.17695
C_ C_ 0.123081 0.217687 0.384319 0.17695
C_ C_ 0.364486 0.20781 0.380381 0.17695
C_ C_ 0.129503 0.218757 0.428582 -0.11473
C_ C_ 0.366358 0.201735 0.42473 -0.11473
C_ C_ 0.130779 0.257456 0.448968 0.23465
C_ C_ 0.373704 0.236151 0.450095 0.23465
C_ C_ 0.126025 0.292734 0.424041 -0.11473
C_ C_ 0.376115 0.275324 0.432351 -0.11473
C_ C_ 0.132352 0.288553 0.127526 0.17695
C_ C_ 0.399185 0.238616 0.131511 0.17695
C_ C_ 0.118033 0.216951 0.124218 0.17695
C_ C_ 0.351382 0.273451 0.129234 0.17695
C_ C_ 0.114318 0.220602 0.0793268 -0.11473
C_ C_ 0.352699 0.275949 0.0850388 -0.11473
C_ C_ 0.123006 0.256883 0.0591524 0.23465
C_ C_ 0.377738 0.257965 0.0637875 0.23465
C_ C_ 0.130576 0.29153 0.0841108 -0.11473
C_ C_ 0.401698 0.241025 0.0877448 -0.11473
C_ C_ 0.0308241 0.497967 0.248192 0.05793
C_ C_ 0.284287 0.500165 0.2604 0.05793
C_ C_ 0.215604 -0.003669999999999951 0.255906 0.05793
C_ C_ 0.469753 1.000724507 0.249433 0.05793
Br Br 0.0734504 0.497968 0.26381 -0.17191
Br Br 0.327384 0.497936 0.262568 -0.17191
Br Br 0.173002 -0.006167999999999951 0.269599 -0.17191
Br Br 0.42713 1.00357819 0.234393 -0.17191
N_ N_ 0.122671 0.253818 0.360134 -0.272
N_ N_ 0.370148 0.246706 0.363398 -0.272
N_ N_ 0.136658 0.260711 0.493725 -0.12501
N_ N_ 0.376867 0.231151 0.494647 -0.12501
N_ N_ 0.124945 0.252794 0.146273 -0.272
N_ N_ 0.373347 0.250822 0.150315 -0.272
N_ N_ 0.117547 0.260242 0.0147458 -0.12501
N_ N_ 0.372189 0.249119 0.02068 -0.12501
O_ O_ 0.0991118 0.296065 0.218131 -0.60745
O_ O_ 0.334599 0.280779 0.224619 -0.60745
O_ O_ 0.0969523 0.297403 0.288297 -0.60745
O_ O_ 0.337507 0.287138 0.294037 -0.60745
O_ O_ 0.157285 0.290756 0.28812 -0.60745
O_ O_ 0.400845 0.291691 0.28953 -0.60745
O_ O_ 0.161491 0.29492 0.220335 -0.60745
O_ O_ 0.396559 0.299709 0.222804 -0.60745
O_ O_ 0.152538 0.204102 0.283602 -0.60745
O_ O_ 0.404686 0.207918 0.289069 -0.60745
O_ O_ 0.158084 0.206414 0.214772 -0.60745
O_ O_ 0.408339 0.209594 0.220576 -0.60745
O_ O_ 0.098085 0.20467 0.215631 -0.60745
O_ O_ 0.342156 0.202932 0.219804 -0.60745
O_ O_ 0.0896123 0.212938 0.284596 -0.60745
O_ O_ 0.345181 0.197745 0.287894 -0.60745
Zn Zn 0.121923 0.251015 0.786954 0.9476
Zn Zn 0.377211 0.249403 0.790556 0.9476
Zn Zn 0.121401 0.24773 0.718927 0.9476
Zn Zn 0.377679 0.251757 0.720588 0.9476
H_ H_ 0.0395475 0.424187 0.681699 0.10932
H_ H_ 0.290533 0.424021 0.686756 0.10932
H_ H_ 0.0476414 0.339579 0.809681 0.10932
H_ H_ 0.317684 0.359244 0.817883 0.10932
H_ H_ 0.0732961 0.364612 0.684009 0.10932
H_ H_ 0.324447 0.360806 0.683721 0.10932
H_ H_ 0.0230983 0.408047 0.815086 0.10932
H_ H_ 0.28398 0.422778 0.816207 0.10932
H_ H_ 0.203401 0.425794 0.810568 0.10932
H_ H_ 0.471367 0.410937 0.816543 0.10932
H_ H_ 0.190613 0.339021 0.684421 0.10932
H_ H_ 0.428648 0.357554 0.682228 0.10932
H_ H_ 0.178007 0.362371 0.815987 0.10932
H_ H_ 0.451849 0.342533 0.812515 0.10932
H_ H_ 0.229784 0.392732 0.685132 0.10932
H_ H_ 0.452334 0.42689 0.685268 0.10932
H_ H_ 0.211243 0.0783677 0.824693 0.10932
H_ H_ 0.46532 0.0859189 0.821421 0.10932
H_ H_ 0.200933 0.163621 0.694088 0.10932
H_ H_ 0.433559 0.147047 0.687232 0.10932
H_ H_ 0.178366 0.14296 0.822586 0.10932
H_ H_ 0.43908 0.153281 0.823417 0.10932
H_ H_ 0.225428 0.0978227 0.689965 0.10932
H_ H_ 0.453445 0.0776234 0.688247 0.10932
H_ H_ 0.0327104 0.0860119 0.685079 0.10932
H_ H_ 0.285892 0.0941172 0.687031 0.10932
H_ H_ 0.0538073 0.15276 0.822392 0.10932
H_ H_ 0.312465 0.149101 0.824349 0.10932
H_ H_ 0.0543192 0.153641 0.68567 0.10932
H_ H_ 0.308188 0.160621 0.693191 0.10932
H_ H_ 0.0242024 0.0895137 0.820026 0.10932
H_ H_ 0.287275 0.0841767 0.81945 0.10932
H_ H_ 0.108119 0.307571 0.863132 0.10932
H_ H_ 0.390603 0.316439 0.8628 0.10932
H_ H_ 0.131076 0.181866 0.858461 0.10932
H_ H_ 0.36683 0.192627 0.864862 0.10932
H_ H_ 0.129315 0.175589 0.932832 0.10932
H_ H_ 0.368691 0.191281 0.944997 0.10932
H_ H_ 0.101244 0.302445 0.942081 0.10932
H_ H_ 0.392157 0.319226 0.942768 0.10932
H_ H_ 0.114321 0.183853 0.649492 0.10932
H_ H_ 0.356075 0.194511 0.645509 0.10932
H_ H_ 0.13689 0.305441 0.645381 0.10932
H_ H_ 0.396736 0.311559 0.646735 0.10932
H_ H_ 0.140125 0.303939 0.566765 0.10932
H_ H_ 0.397881 0.31506 0.574376 0.10932
H_ H_ 0.125801 0.174228 0.57528 0.10932
H_ H_ 0.366446 0.191525 0.565914 0.10932
C_ C_ 0.0652942 0.349078 0.748342 -0.02249
C_ C_ 0.321825 0.354203 0.753233 -0.02249
C_ C_ 0.0146627 0.46415 0.747039 -0.02249
C_ C_ 0.264809 0.462155 0.748718 -0.02249
C_ C_ 0.0460428 0.411108 0.712118 -0.11473
C_ C_ 0.29365 0.406531 0.712996 -0.11473
C_ C_ 0.0501414 0.361767 0.78462 -0.11473
C_ C_ 0.31086 0.37275 0.789562 -0.11473
C_ C_ 0.0625442 0.372829 0.712299 -0.11473
C_ C_ 0.314118 0.372142 0.714576 -0.11473
C_ C_ 0.0318861 0.423972 0.748546 -0.02249
C_ C_ 0.280959 0.422268 0.751098 -0.02249
C_ C_ 0.0839489 0.309964 0.748094 0.6875
C_ C_ 0.342537 0.316255 0.756682 0.6875
C_ C_ 0.0342987 0.400311 0.785452 -0.11473
C_ C_ 0.291862 0.406642 0.788997 -0.11473
C_ C_ 0.1806 0.346248 0.74923 -0.02249
C_ C_ 0.434889 0.346217 0.747894 -0.02249
C_ C_ 0.231857 0.461204 0.741099 -0.02249
C_ C_ 0.48274 0.462893 0.748043 -0.02249
C_ C_ 0.200328 0.407659 0.783066 -0.11473
C_ C_ 0.462822 0.399843 0.786045 -0.11473
C_ C_ 0.191242 0.36052 0.709672 -0.11473
C_ C_ 0.436323 0.371114 0.7125 -0.11473
C_ C_ 0.185859 0.37099 0.786386 -0.11473
C_ C_ 0.451114 0.360465 0.784113 -0.11473
C_ C_ 0.214666 0.420793 0.74501 -0.02249
C_ C_ 0.463975 0.424268 0.748997 -0.02249
C_ C_ 0.162301 0.307899 0.751418 0.6875
C_ C_ 0.417101 0.307141 0.750045 0.6875
C_ C_ 0.212441 0.392398 0.708892 -0.11473
C_ C_ 0.449802 0.410538 0.713214 -0.11473
C_ C_ 0.179838 0.151504 0.755117 -0.02249
C_ C_ 0.432233 0.1533 0.754213 -0.02249
C_ C_ 0.236977 0.0422275 0.754742 -0.02249
C_ C_ 0.480961 0.0379048 0.752486 -0.02249
C_ C_ 0.207314 0.0962147 0.795029 -0.11473
C_ C_ 0.46065 0.100972 0.791857 -0.11473
C_ C_ 0.198699 0.142317 0.720203 -0.11473
C_ C_ 0.437867 0.132559 0.716748 -0.11473
C_ C_ 0.187397 0.130476 0.79333 -0.11473
C_ C_ 0.442767 0.136576 0.794007 -0.11473
C_ C_ 0.219599 0.0821644 0.755775 -0.02249
C_ C_ 0.465443 0.0791732 0.754278 -0.02249
C_ C_ 0.160195 0.18814 0.754623 0.6875
C_ C_ 0.412264 0.190704 0.754766 0.6875
C_ C_ 0.214391 0.105624 0.719058 -0.11473
C_ C_ 0.452956 0.0943848 0.716306 -0.11473
C_ C_ 0.0555536 0.161104 0.751484 -0.02249
C_ C_ 0.312357 0.160902 0.758131 -0.02249
C_ C_ 0.0148522 0.0398387 0.753685 -0.02249
C_ C_ 0.269515 0.0427089 0.751314 -0.02249
C_ C_ 0.03593 0.100597 0.714776 -0.11473
C_ C_ 0.289311 0.106335 0.715858 -0.11473
C_ C_ 0.0478916 0.140877 0.79028 -0.11473
C_ C_ 0.308782 0.136443 0.793539 -0.11473
C_ C_ 0.0504718 0.140084 0.714154 -0.11473
C_ C_ 0.301323 0.146307 0.719891 -0.11473
C_ C_ 0.0294174 0.0803783 0.753616 -0.02249
C_ C_ 0.284364 0.0838121 0.75139 -0.02249
C_ C_ 0.0786243 0.193722 0.750524 0.6875
C_ C_ 0.333416 0.197143 0.761328 0.6875
C_ C_ 0.0328285 0.103082 0.790677 -0.11473
C_ C_ 0.293768 0.100544 0.791224 -0.11473
C_ C_ 0.113208 0.279824 0.879684 0.17695
C_ C_ 0.385959 0.289309 0.879834 0.17695
C_ C_ 0.125419 0.209326 0.876187 0.17695
C_ C_ 0.376289 0.21772 0.883901 0.17695
C_ C_ 0.123826 0.205079 0.920054 -0.11473
C_ C_ 0.377425 0.217394 0.927827 -0.11473
C_ C_ 0.116472 0.239559 0.945659 0.23465
C_ C_ 0.383686 0.255127 0.949469 0.23465
C_ C_ 0.109065 0.275347 0.924792 -0.11473
C_ C_ 0.386865 0.290956 0.925894 -0.11473
C_ C_ 0.118779 0.20881 0.630989 0.17695
C_ C_ 0.36541 0.219824 0.626686 0.17695
C_ C_ 0.132154 0.278306 0.627976 0.17695
C_ C_ 0.390727 0.283868 0.63085 0.17695
C_ C_ 0.132056 0.277483 0.58369 -0.11473
C_ C_ 0.391498 0.286916 0.58767 -0.11473
C_ C_ 0.128466 0.238875 0.563281 0.23465
C_ C_ 0.379693 0.255303 0.562225 0.23465
C_ C_ 0.124466 0.205279 0.588055 -0.11473
C_ C_ 0.369649 0.220136 0.583472 -0.11473
C_ C_ 0.0310778 0.499634 0.740324 0.05793
C_ C_ 0.279795 0.500483 0.754299 0.05793
C_ C_ 0.222047 0.004778 0.750823 0.05793
C_ C_ 0.465553 0.999116423 0.756186 0.05793
Br Br 0.0752828 0.496305 0.743882 -0.17191
Br Br 0.321552 0.504372 0.772811 -0.17191
Br Br 0.178201 0.00687315 0.750496 -0.17191
Br Br 0.424838 0.99968 0.76511 -0.17191
N_ N_ 0.120589 0.245987 0.857274 -0.272
N_ N_ 0.381838 0.253298 0.860941 -0.272
N_ N_ 0.114447 0.231861 0.989592 -0.12501
N_ N_ 0.391316 0.257297 0.993388 -0.12501
N_ N_ 0.122497 0.244974 0.649956 -0.272
N_ N_ 0.375445 0.25246 0.648989 -0.272
N_ N_ 0.128195 0.232993 0.517639 -0.12501
N_ N_ 0.375391 0.262014 0.518862 -0.12501
O_ O_ 0.0940756 0.296211 0.714383 -0.60745
O_ O_ 0.355161 0.303869 0.724898 -0.60745
O_ O_ 0.0936566 0.295043 0.78255 -0.60745
O_ O_ 0.344924 0.29713 0.788851 -0.60745
O_ O_ 0.154393 0.293586 0.786178 -0.60745
O_ O_ 0.407348 0.294842 0.783252 -0.60745
O_ O_ 0.155669 0.287839 0.718401 -0.60745
O_ O_ 0.41358 0.284421 0.718793 -0.60745
O_ O_ 0.15247 0.205377 0.789415 -0.60745
O_ O_ 0.40546 0.205417 0.790587 -0.60745
O_ O_ 0.149424 0.200423 0.719275 -0.60745
O_ O_ 0.404186 0.207521 0.720259 -0.60745
O_ O_ 0.0865301 0.211074 0.717175 -0.60745
O_ O_ 0.344603 0.210246 0.726796 -0.60745
O_ O_ 0.0907767 0.207461 0.783682 -0.60745
O_ O_ 0.345906 0.208622 0.79518 -0.60745
Zn Zn 0.127862 0.747593 0.283699 0.9476
Zn Zn 0.375453 0.748666 0.281437 0.9476
Zn Zn 0.126437 0.747829 0.216536 0.9476
Zn Zn 0.375387 0.751102 0.210395 0.9476
H_ H_ 0.0387062 0.917061 0.173568 0.10932
H_ H_ 0.284387 0.922684 0.177895 0.10932
H_ H_ 0.0714435 0.861132 0.310339 0.10932
H_ H_ 0.315745 0.855059 0.310942 0.10932
H_ H_ 0.0714728 0.857314 0.177573 0.10932
H_ H_ 0.309461 0.852327 0.175959 0.10932
H_ H_ 0.0378502 0.922745 0.307059 0.10932
H_ H_ 0.295426 0.925616 0.309882 0.10932
H_ H_ 0.224639 0.904382 0.317364 0.10932
H_ H_ 0.453167 0.924943 0.319536 0.10932
H_ H_ 0.179504 0.852444 0.183701 0.10932
H_ H_ 0.449509 0.844337 0.189731 0.10932
H_ H_ 0.207111 0.832943 0.310603 0.10932
H_ H_ 0.426817 0.858621 0.316642 0.10932
H_ H_ 0.199775 0.923184 0.188301 0.10932
H_ H_ 0.475556 0.911296 0.190944 0.10932
H_ H_ 0.208713 0.569288 0.314628 0.10932
H_ H_ 0.449998 0.571233 0.316837 0.10932
H_ H_ 0.198014 0.66252 0.187236 0.10932
H_ H_ 0.437281 0.650104 0.182756 0.10932
H_ H_ 0.17824 0.631996 0.315351 0.10932
H_ H_ 0.420496 0.638477 0.316631 0.10932
H_ H_ 0.229334 0.595808 0.183175 0.10932
H_ H_ 0.465331 0.583111 0.183773 0.10932
H_ H_ 0.0435818 0.576458 0.180412 0.10932
H_ H_ 0.294937 0.569269 0.182912 0.10932
H_ H_ 0.0611837 0.643047 0.315297 0.10932
H_ H_ 0.30341 0.66357 0.30994 0.10932
H_ H_ 0.0801098 0.635985 0.18266 0.10932
H_ H_ 0.320098 0.639496 0.179976 0.10932
H_ H_ 0.0291786 0.585535 0.309591 0.10932
H_ H_ 0.274507 0.595212 0.313907 0.10932
H_ H_ 0.128156 0.814641 0.360253 0.10932
H_ H_ 0.378928 0.684963 0.349811 0.10932
H_ H_ 0.120111 0.684732 0.357924 0.10932
H_ H_ 0.367106 0.816332 0.357708 0.10932
H_ H_ 0.117215 0.681952 0.435674 0.10932
H_ H_ 0.375693 0.811957 0.434957 0.10932
H_ H_ 0.127357 0.816293 0.436468 0.10932
H_ H_ 0.388096 0.681561 0.427082 0.10932
H_ H_ 0.17077 0.737438 0.140195 0.10932
H_ H_ 0.364443 0.688828 0.129172 0.10932
H_ H_ 0.076567 0.739698 0.147548 0.10932
H_ H_ 0.377476 0.817913 0.141644 0.10932
H_ H_ 0.0732312 0.73075 0.0688711 0.10932
H_ H_ 0.369751 0.827244 0.0680992 0.10932
H_ H_ 0.168519 0.749138 0.0638174 0.10932
H_ H_ 0.365074 0.694467 0.0498514 0.10932
C_ C_ 0.0692005 0.849505 0.244516 -0.02249
C_ C_ 0.316888 0.849839 0.243966 -0.02249
C_ C_ 0.0175983 0.961158 0.237538 -0.02249
C_ C_ 0.262823 0.960732 0.248195 -0.02249
C_ C_ 0.0424604 0.90279 0.204149 -0.11473
C_ C_ 0.291079 0.906992 0.206969 -0.11473
C_ C_ 0.0604014 0.869271 0.28085 -0.11473
C_ C_ 0.310492 0.869021 0.28096 -0.11473
C_ C_ 0.0624344 0.869133 0.205565 -0.11473
C_ C_ 0.306501 0.868492 0.205855 -0.11473
C_ C_ 0.0335993 0.921673 0.2405 -0.02249
C_ C_ 0.282507 0.922412 0.246178 -0.02249
C_ C_ 0.0878554 0.810334 0.245366 0.6875
C_ C_ 0.33628 0.810797 0.24487 0.6875
C_ C_ 0.0412284 0.903515 0.28036 -0.11473
C_ C_ 0.29316 0.904913 0.281658 -0.11473
C_ C_ 0.188509 0.841365 0.248556 -0.02249
C_ C_ 0.437471 0.847188 0.254154 -0.02249
C_ C_ 0.231138 0.959087 0.25313 -0.02249
C_ C_ 0.484811 0.962641 0.254541 -0.02249
C_ C_ 0.214939 0.893983 0.287611 -0.11473
C_ C_ 0.454234 0.907518 0.291181 -0.11473
C_ C_ 0.186945 0.865854 0.213615 -0.11473
C_ C_ 0.451064 0.861636 0.216913 -0.11473
C_ C_ 0.206248 0.853119 0.284679 -0.11473
C_ C_ 0.440328 0.86975 0.291148 -0.11473
C_ C_ 0.215116 0.919162 0.251743 -0.02249
C_ C_ 0.467858 0.922911 0.254574 -0.02249
C_ C_ 0.171107 0.801228 0.250252 0.6875
C_ C_ 0.416837 0.808957 0.251147 0.6875
C_ C_ 0.199903 0.904927 0.215138 -0.11473
C_ C_ 0.465868 0.899149 0.218195 -0.11473
C_ C_ 0.184849 0.650299 0.251117 -0.02249
C_ C_ 0.430166 0.650324 0.250228 -0.02249
C_ C_ 0.237621 0.538831 0.251625 -0.02249
C_ C_ 0.478688 0.534038 0.252015 -0.02249
C_ C_ 0.204588 0.588784 0.287003 -0.11473
C_ C_ 0.447366 0.588632 0.288062 -0.11473
C_ C_ 0.201361 0.640125 0.214082 -0.11473
C_ C_ 0.439198 0.632112 0.212593 -0.11473
C_ C_ 0.188173 0.625755 0.287442 -0.11473
C_ C_ 0.42995 0.625605 0.286685 -0.11473
C_ C_ 0.220822 0.578099 0.250332 -0.02249
C_ C_ 0.4615 0.573782 0.25235 -0.02249
C_ C_ 0.1633 0.685143 0.25117 0.6875
C_ C_ 0.412279 0.68947 0.250427 0.6875
C_ C_ 0.217301 0.602825 0.213174 -0.11473
C_ C_ 0.456716 0.595701 0.213372 -0.11473
C_ C_ 0.0696772 0.647986 0.24904 -0.02249
C_ C_ 0.316258 0.654184 0.245448 -0.02249
C_ C_ 0.0165919 0.535656 0.242732 -0.02249
C_ C_ 0.268839 0.538558 0.255374 -0.02249
C_ C_ 0.0448101 0.593563 0.20776 -0.11473
C_ C_ 0.296797 0.591415 0.211467 -0.11473
C_ C_ 0.0571238 0.631046 0.284224 -0.11473
C_ C_ 0.302697 0.642641 0.281453 -0.11473
C_ C_ 0.0652195 0.627999 0.209811 -0.11473
C_ C_ 0.313058 0.62866 0.210139 -0.11473
C_ C_ 0.0351228 0.573876 0.244286 -0.02249
C_ C_ 0.284744 0.578284 0.250138 -0.02249
C_ C_ 0.0868255 0.689358 0.250546 0.6875
C_ C_ 0.333641 0.693339 0.244059 0.6875
C_ C_ 0.0416781 0.594661 0.282005 -0.11473
C_ C_ 0.285561 0.606365 0.284256 -0.11473
C_ C_ 0.131532 0.784954 0.375915 0.17695
C_ C_ 0.378612 0.711534 0.369765 0.17695
C_ C_ 0.125154 0.712666 0.375915 0.17695
C_ C_ 0.370464 0.785506 0.373016 0.17695
C_ C_ 0.121603 0.7115 0.420232 -0.11473
C_ C_ 0.37639 0.784442 0.416408 -0.11473
C_ C_ 0.126824 0.747682 0.44313 0.23465
C_ C_ 0.380668 0.745587 0.437412 0.23465
C_ C_ 0.127405 0.786626 0.419841 -0.11473
C_ C_ 0.383005 0.711093 0.412905 -0.11473
C_ C_ 0.149809 0.74437 0.124954 0.17695
C_ C_ 0.37121 0.718003 0.113549 0.17695
C_ C_ 0.0965978 0.742645 0.128541 0.17695
C_ C_ 0.375138 0.790163 0.121271 0.17695
C_ C_ 0.0942784 0.738463 0.0842866 -0.11473
C_ C_ 0.371747 0.795819 0.0783976 -0.11473
C_ C_ 0.121684 0.73703 0.0587875 0.23465
C_ C_ 0.370055 0.761022 0.0522191 0.23465
C_ C_ 0.147587 0.743129 0.0809929 -0.11473
C_ C_ 0.367565 0.721105 0.0700871 -0.11473
C_ C_ 0.033727 0.998205 0.236938 0.05793
C_ C_ 0.277404 0.99876296 0.248439 0.05793
C_ C_ 0.221337 0.50163 0.250818 0.05793
C_ C_ 0.463462 0.495742 0.249347 0.05793
Br Br 0.0765196 -0.0029649999999999954 0.244862 -0.17191
Br Br 0.31949 1.000806878 0.25871 -0.17191
Br Br 0.178927 0.500207 0.239352 -0.17191
Br Br 0.422174 0.495337 0.227922 -0.17191
N_ N_ 0.128986 0.74917 0.355485 -0.272
N_ N_ 0.371516 0.748547 0.350512 -0.272
N_ N_ 0.123348 0.746156 0.487432 -0.12501
N_ N_ 0.377664 0.740642 0.483051 -0.12501
N_ N_ 0.124828 0.741503 0.147475 -0.272
N_ N_ 0.374566 0.751837 0.138579 -0.272
N_ N_ 0.118315 0.745037 0.0140982 -0.12501
N_ N_ 0.372191 0.76617 0.00827565 -0.12501
O_ O_ 0.0949618 0.792711 0.210697 -0.60745
O_ O_ 0.346236 0.797465 0.210925 -0.60745
O_ O_ 0.0981715 0.795014 0.279323 -0.60745
O_ O_ 0.343397 0.793308 0.279068 -0.60745
O_ O_ 0.16042 0.789765 0.285214 -0.60745
O_ O_ 0.408136 0.791315 0.282532 -0.60745
O_ O_ 0.160226 0.787256 0.215923 -0.60745
O_ O_ 0.405168 0.799397 0.216779 -0.60745
O_ O_ 0.156194 0.701664 0.286225 -0.60745
O_ O_ 0.404958 0.704806 0.285615 -0.60745
O_ O_ 0.158856 0.704083 0.217429 -0.60745
O_ O_ 0.405169 0.705317 0.214699 -0.60745
O_ O_ 0.0947375 0.703272 0.214969 -0.60745
O_ O_ 0.344745 0.705422 0.208451 -0.60745
O_ O_ 0.0982067 0.702921 0.283695 -0.60745
O_ O_ 0.342804 0.709481 0.276711 -0.60745
Zn Zn 0.127319 0.752505 0.784542 0.9476
Zn Zn 0.369926 0.749278 0.78166 0.9476
Zn Zn 0.130367 0.754487 0.716212 0.9476
Zn Zn 0.372537 0.749918 0.712616 0.9476
H_ H_ 0.0353744 0.919822 0.693482 0.10932
H_ H_ 0.287604 0.923023 0.682853 0.10932
H_ H_ 0.0711873 0.859342 0.829389 0.10932
H_ H_ 0.323289 0.859864 0.813056 0.10932
H_ H_ 0.0650076 0.852825 0.69226 0.10932
H_ H_ 0.307577 0.853552 0.68233 0.10932
H_ H_ 0.0376651 0.919676 0.827643 0.10932
H_ H_ 0.290904 0.924589 0.817808 0.10932
H_ H_ 0.210634 0.930878 0.812784 0.10932
H_ H_ 0.469696 0.907495 0.821954 0.10932
H_ H_ 0.20319 0.843368 0.683769 0.10932
H_ H_ 0.424069 0.863489 0.689444 0.10932
H_ H_ 0.180986 0.864999 0.813058 0.10932
H_ H_ 0.442721 0.842644 0.818174 0.10932
H_ H_ 0.224592 0.914603 0.680759 0.10932
H_ H_ 0.454292 0.927953 0.690664 0.10932
H_ H_ 0.217879 0.582494 0.808584 0.10932
H_ H_ 0.464786 0.585526 0.81538 0.10932
H_ H_ 0.179374 0.642196 0.675849 0.10932
H_ H_ 0.431007 0.645402 0.680933 0.10932
H_ H_ 0.187458 0.647217 0.808922 0.10932
H_ H_ 0.438743 0.650159 0.816232 0.10932
H_ H_ 0.211889 0.581079 0.675781 0.10932
H_ H_ 0.463705 0.583062 0.681397 0.10932
H_ H_ 0.0460268 0.574075 0.680654 0.10932
H_ H_ 0.278601 0.581185 0.680161 0.10932
H_ H_ 0.063047 0.652591 0.810329 0.10932
H_ H_ 0.312828 0.64858 0.814217 0.10932
H_ H_ 0.0745673 0.645168 0.677292 0.10932
H_ H_ 0.311096 0.645262 0.676681 0.10932
H_ H_ 0.0327139 0.586866 0.806752 0.10932
H_ H_ 0.284798 0.582544 0.81418 0.10932
H_ H_ 0.122873 0.809691 0.863484 0.10932
H_ H_ 0.360196 0.80531 0.855691 0.10932
H_ H_ 0.140406 0.681228 0.85044 0.10932
H_ H_ 0.377379 0.677211 0.855885 0.10932
H_ H_ 0.141027 0.673671 0.927233 0.10932
H_ H_ 0.369046 0.67392 0.930259 0.10932
H_ H_ 0.121534 0.801211 0.944031 0.10932
H_ H_ 0.359351 0.804691 0.933463 0.10932
H_ H_ 0.128912 0.695476 0.637367 0.10932
H_ H_ 0.322574 0.758346 0.638448 0.10932
H_ H_ 0.129533 0.825886 0.645087 0.10932
H_ H_ 0.419385 0.754149 0.63933 0.10932
H_ H_ 0.13293 0.83499 0.569178 0.10932
H_ H_ 0.417261 0.746005 0.561534 0.10932
H_ H_ 0.140279 0.701839 0.559024 0.10932
H_ H_ 0.322323 0.758106 0.560695 0.10932
C_ C_ 0.0714682 0.851882 0.76057 -0.02249
C_ C_ 0.316298 0.851473 0.7485 -0.02249
C_ C_ 0.0177462 0.963213 0.757535 -0.02249
C_ C_ 0.268731 0.96824 0.746749 -0.02249
C_ C_ 0.0451224 0.905651 0.72278 -0.11473
C_ C_ 0.296086 0.910255 0.71112 -0.11473
C_ C_ 0.0640122 0.871601 0.798482 -0.11473
C_ C_ 0.312082 0.872274 0.786505 -0.11473
C_ C_ 0.0594466 0.867909 0.722896 -0.11473
C_ C_ 0.307937 0.870113 0.711442 -0.11473
C_ C_ 0.0374985 0.925271 0.759557 -0.02249
C_ C_ 0.285402 0.92734 0.74791 -0.02249
C_ C_ 0.0909394 0.814359 0.758213 0.6875
C_ C_ 0.331213 0.8087 0.750263 0.6875
C_ C_ 0.044367 0.904793 0.798357 -0.11473
C_ C_ 0.295304 0.908962 0.786584 -0.11473
C_ C_ 0.191654 0.849581 0.748559 -0.02249
C_ C_ 0.433045 0.846476 0.752355 -0.02249
C_ C_ 0.236762 0.967969 0.744165 -0.02249
C_ C_ 0.481165 0.960898 0.760148 -0.02249
C_ C_ 0.206776 0.914029 0.783812 -0.11473
C_ C_ 0.460223 0.897962 0.791663 -0.11473
C_ C_ 0.205148 0.863113 0.711115 -0.11473
C_ C_ 0.436222 0.872414 0.717048 -0.11473
C_ C_ 0.191961 0.875435 0.783875 -0.11473
C_ C_ 0.446699 0.859303 0.789882 -0.11473
C_ C_ 0.219329 0.928454 0.746651 -0.02249
C_ C_ 0.465429 0.920731 0.756256 -0.02249
C_ C_ 0.173319 0.809333 0.748868 0.6875
C_ C_ 0.412392 0.810264 0.750691 0.6875
C_ C_ 0.218307 0.903091 0.709927 -0.11473
C_ C_ 0.454036 0.907537 0.71752 -0.11473
C_ C_ 0.18197 0.651383 0.742116 -0.02249
C_ C_ 0.429771 0.650802 0.747816 -0.02249
C_ C_ 0.233821 0.538757 0.740443 -0.02249
C_ C_ 0.483157 0.539617 0.751925 -0.02249
C_ C_ 0.210602 0.59472 0.77946 -0.11473
C_ C_ 0.460678 0.600697 0.785681 -0.11473
C_ C_ 0.189727 0.63245 0.703634 -0.11473
C_ C_ 0.440862 0.634767 0.710359 -0.11473
C_ C_ 0.194263 0.63255 0.779639 -0.11473
C_ C_ 0.442777 0.636164 0.785411 -0.11473
C_ C_ 0.217756 0.577193 0.742439 -0.02249
C_ C_ 0.466271 0.580223 0.748188 -0.02249
C_ C_ 0.164357 0.690777 0.74494 0.6875
C_ C_ 0.409501 0.68722 0.74739 0.6875
C_ C_ 0.207853 0.596283 0.704767 -0.11473
C_ C_ 0.455106 0.595898 0.711673 -0.11473
C_ C_ 0.0706441 0.653296 0.744411 -0.02249
C_ C_ 0.311144 0.652824 0.744429 -0.02249
C_ C_ 0.0176791 0.540021 0.744136 -0.02249
C_ C_ 0.264889 0.536806 0.74402 -0.02249
C_ C_ 0.0507237 0.593109 0.706922 -0.11473
C_ C_ 0.283844 0.598002 0.707623 -0.11473
C_ C_ 0.0608782 0.635349 0.782124 -0.11473
C_ C_ 0.304638 0.634062 0.783252 -0.11473
C_ C_ 0.0684055 0.630494 0.706553 -0.11473
C_ C_ 0.302048 0.634308 0.706651 -0.11473
C_ C_ 0.0368546 0.579476 0.743776 -0.02249
C_ C_ 0.279588 0.578061 0.745312 -0.02249
C_ C_ 0.0878118 0.694266 0.746319 0.6875
C_ C_ 0.330779 0.690661 0.74436 0.6875
C_ C_ 0.0427999 0.599792 0.780567 -0.11473
C_ C_ 0.289959 0.596468 0.783789 -0.11473
C_ C_ 0.12661 0.780496 0.879529 0.17695
C_ C_ 0.365572 0.777231 0.872882 0.17695
C_ C_ 0.136029 0.707635 0.869812 0.17695
C_ C_ 0.377493 0.705116 0.872153 0.17695
C_ C_ 0.138169 0.702778 0.914647 -0.11473
C_ C_ 0.370207 0.704143 0.915022 -0.11473
C_ C_ 0.131959 0.736469 0.942279 0.23465
C_ C_ 0.367654 0.739233 0.93881 0.23465
C_ C_ 0.128286 0.775312 0.923769 -0.11473
C_ C_ 0.365804 0.777265 0.915258 -0.11473
C_ C_ 0.130759 0.723946 0.620741 0.17695
C_ C_ 0.344624 0.756941 0.62091 0.17695
C_ C_ 0.129915 0.79839 0.62631 0.17695
C_ C_ 0.398093 0.756407 0.621598 0.17695
C_ C_ 0.131838 0.803547 0.582193 -0.11473
C_ C_ 0.396923 0.753719 0.576655 -0.11473
C_ C_ 0.131864 0.767034 0.5566 0.23465
C_ C_ 0.370137 0.762569 0.554148 0.23465
C_ C_ 0.133694 0.727997 0.577687 -0.11473
C_ C_ 0.343099 0.760055 0.576478 -0.11473
C_ C_ 0.0321106 0.00288756 0.759222 0.05793
C_ C_ 0.284694 0.00562765 0.754065 0.05793
C_ C_ 0.216764 0.500928 0.737956 0.05793
C_ C_ 0.467924 0.501433 0.751065 0.05793
Br Br 0.0760314 0.00622263 0.763758 -0.17191
Br Br 0.328602 0.00590562 0.754775 -0.17191
Br Br 0.17282 0.501589 0.74084 -0.17191
Br Br 0.426855 0.501295 0.770471 -0.17191
N_ N_ 0.129302 0.74708 0.85363 -0.272
N_ N_ 0.374481 0.742327 0.851889 -0.272
N_ N_ 0.136244 0.731314 0.987115 -0.12501
N_ N_ 0.364128 0.738225 0.983939 -0.12501
N_ N_ 0.127835 0.759953 0.643772 -0.272
N_ N_ 0.371674 0.761622 0.642709 -0.272
N_ N_ 0.135806 0.770943 0.512791 -0.12501
N_ N_ 0.37067 0.768767 0.508847 -0.12501
O_ O_ 0.0991069 0.799671 0.722424 -0.60745
O_ O_ 0.33916 0.791116 0.715295 -0.60745
O_ O_ 0.0982346 0.795868 0.791672 -0.60745
O_ O_ 0.340296 0.793937 0.784696 -0.60745
O_ O_ 0.16074 0.797285 0.782788 -0.60745
O_ O_ 0.401822 0.796327 0.784213 -0.60745
O_ O_ 0.162599 0.795771 0.713278 -0.60745
O_ O_ 0.404238 0.796181 0.715844 -0.60745
O_ O_ 0.157344 0.70713 0.778788 -0.60745
O_ O_ 0.400202 0.70212 0.78202 -0.60745
O_ O_ 0.156776 0.708533 0.710672 -0.60745
O_ O_ 0.40543 0.707807 0.713843 -0.60745
O_ O_ 0.0982554 0.710179 0.712498 -0.60745
O_ O_ 0.341574 0.705151 0.709723 -0.60745
O_ O_ 0.0963595 0.707077 0.781998 -0.60745
O_ O_ 0.343417 0.703458 0.779016 -0.60745
Zn Zn 0.62604 0.249508 0.285107 0.9476
Zn Zn 0.872892 0.24991 0.281342 0.9476
Zn Zn 0.627226 0.250888 0.215122 0.9476
Zn Zn 0.875229 0.249208 0.209466 0.9476
H_ H_ 0.540603 0.421313 0.18686 0.10932
H_ H_ 0.793893 0.427035 0.18017 0.10932
H_ H_ 0.557757 0.345968 0.320033 0.10932
H_ H_ 0.800617 0.343576 0.3115 0.10932
H_ H_ 0.573017 0.360029 0.188105 0.10932
H_ H_ 0.825079 0.360806 0.182312 0.10932
H_ H_ 0.523678 0.401569 0.318645 0.10932
H_ H_ 0.775695 0.411229 0.311469 0.10932
H_ H_ 0.719087 0.419131 0.314487 0.10932
H_ H_ 0.957856 0.422035 0.305653 0.10932
H_ H_ 0.683357 0.356915 0.180253 0.10932
H_ H_ 0.943942 0.343141 0.175708 0.10932
H_ H_ 0.685995 0.355421 0.315427 0.10932
H_ H_ 0.924067 0.365386 0.301757 0.10932
H_ H_ 0.718072 0.413294 0.180498 0.10932
H_ H_ 0.974228 0.407216 0.17408 0.10932
H_ H_ 0.71875 0.0849643 0.318198 0.10932
H_ H_ 0.958282 0.0692595 0.304541 0.10932
H_ H_ 0.692748 0.152064 0.180581 0.10932
H_ H_ 0.948295 0.160363 0.178571 0.10932
H_ H_ 0.69238 0.151712 0.317915 0.10932
H_ H_ 0.921076 0.128557 0.302448 0.10932
H_ H_ 0.716016 0.0812439 0.182554 0.10932
H_ H_ 0.977366 0.0956241 0.175929 0.10932
H_ H_ 0.537011 0.0776229 0.191046 0.10932
H_ H_ 0.786425 0.0788329 0.180631 0.10932
H_ H_ 0.559374 0.156932 0.32185 0.10932
H_ H_ 0.807189 0.151654 0.311279 0.10932
H_ H_ 0.566315 0.144015 0.187921 0.10932
H_ H_ 0.813957 0.141229 0.179615 0.10932
H_ H_ 0.537865 0.088141 0.32802 0.10932
H_ H_ 0.778816 0.0872724 0.313141 0.10932
H_ H_ 0.623281 0.190705 0.361308 0.10932
H_ H_ 0.874466 0.180376 0.349194 0.10932
H_ H_ 0.624283 0.318047 0.358187 0.10932
H_ H_ 0.864876 0.311751 0.360753 0.10932
H_ H_ 0.622261 0.324996 0.434509 0.10932
H_ H_ 0.869552 0.304921 0.435838 0.10932
H_ H_ 0.633094 0.192114 0.4357 0.10932
H_ H_ 0.882125 0.173848 0.426081 0.10932
H_ H_ 0.621299 0.179493 0.147659 0.10932
H_ H_ 0.860251 0.312396 0.137643 0.10932
H_ H_ 0.637442 0.307678 0.133003 0.10932
H_ H_ 0.875753 0.18444 0.134403 0.10932
H_ H_ 0.635619 0.299861 0.0570777 0.10932
H_ H_ 0.883087 0.187538 0.0579185 0.10932
H_ H_ 0.622085 0.167974 0.0685741 0.10932
H_ H_ 0.858907 0.317684 0.0614983 0.10932
C_ C_ 0.566656 0.346454 0.253803 -0.02249
C_ C_ 0.811625 0.344098 0.243964 -0.02249
C_ C_ 0.512402 0.459985 0.252045 -0.02249
C_ C_ 0.767929 0.464733 0.246559 -0.02249
C_ C_ 0.543345 0.402719 0.21675 -0.11473
C_ C_ 0.79588 0.406908 0.206455 -0.11473
C_ C_ 0.553631 0.36177 0.290965 -0.11473
C_ C_ 0.798623 0.360672 0.280274 -0.11473
C_ C_ 0.558803 0.365951 0.215658 -0.11473
C_ C_ 0.811971 0.368987 0.20807 -0.11473
C_ C_ 0.530236 0.420406 0.253218 -0.02249
C_ C_ 0.782654 0.423278 0.243221 -0.02249
C_ C_ 0.587522 0.310756 0.255016 0.6875
C_ C_ 0.833439 0.309054 0.245693 0.6875
C_ C_ 0.537224 0.398175 0.290648 -0.11473
C_ C_ 0.784375 0.399365 0.280796 -0.11473
C_ C_ 0.685605 0.348731 0.248645 -0.02249
C_ C_ 0.928187 0.351865 0.237964 -0.02249
C_ C_ 0.735415 0.465188 0.244988 -0.02249
C_ C_ 0.983374 0.462102 0.239829 -0.02249
C_ C_ 0.711073 0.406785 0.284567 -0.11473
C_ C_ 0.952773 0.407804 0.275545 -0.11473
C_ C_ 0.691009 0.370253 0.210408 -0.11473
C_ C_ 0.943995 0.362646 0.20191 -0.11473
C_ C_ 0.694148 0.369561 0.285474 -0.11473
C_ C_ 0.933603 0.374724 0.274355 -0.11473
C_ C_ 0.717457 0.425298 0.24511 -0.02249
C_ C_ 0.965878 0.42283 0.238583 -0.02249
C_ C_ 0.66425 0.31193 0.24919 0.6875
C_ C_ 0.909971 0.312785 0.2396 0.6875
C_ C_ 0.706837 0.40598 0.209461 -0.11473
C_ C_ 0.961723 0.399516 0.20137 -0.11473
C_ C_ 0.687034 0.153954 0.24856 -0.02249
C_ C_ 0.934758 0.152318 0.243667 -0.02249
C_ C_ 0.733642 0.037264 0.251281 -0.02249
C_ C_ 0.986025 0.0366108 0.237721 -0.02249
C_ C_ 0.712643 0.0993081 0.287403 -0.11473
C_ C_ 0.956415 0.091497 0.277862 -0.11473
C_ C_ 0.693304 0.133922 0.209954 -0.11473
C_ C_ 0.94995 0.141887 0.207012 -0.11473
C_ C_ 0.698346 0.138213 0.287858 -0.11473
C_ C_ 0.93395 0.12212 0.275677 -0.11473
C_ C_ 0.716828 0.0773255 0.249623 -0.02249
C_ C_ 0.970312 0.0786291 0.240875 -0.02249
C_ C_ 0.665121 0.190172 0.247885 0.6875
C_ C_ 0.91491 0.189679 0.243036 0.6875
C_ C_ 0.70709 0.0947476 0.21193 -0.11473
C_ C_ 0.966217 0.104264 0.205159 -0.11473
C_ C_ 0.56676 0.153882 0.256122 -0.02249
C_ C_ 0.817656 0.147721 0.245461 -0.02249
C_ C_ 0.515963 0.0395111 0.26157 -0.02249
C_ C_ 0.765238 0.0367127 0.24749 -0.02249
C_ C_ 0.542352 0.0944039 0.219721 -0.11473
C_ C_ 0.795263 0.0889823 0.210899 -0.11473
C_ C_ 0.558165 0.137863 0.294129 -0.11473
C_ C_ 0.805799 0.133582 0.28339 -0.11473
C_ C_ 0.559108 0.131068 0.217926 -0.11473
C_ C_ 0.809293 0.126124 0.208488 -0.11473
C_ C_ 0.533163 0.0796887 0.258674 -0.02249
C_ C_ 0.784878 0.0738701 0.247767 -0.02249
C_ C_ 0.58685 0.192463 0.254271 0.6875
C_ C_ 0.83428 0.186332 0.244208 0.6875
C_ C_ 0.542536 0.100131 0.296344 -0.11473
C_ C_ 0.78895 0.0965198 0.285357 -0.11473
C_ C_ 0.621603 0.219012 0.376765 0.17695
C_ C_ 0.877094 0.208004 0.368055 0.17695
C_ C_ 0.623983 0.29125 0.376271 0.17695
C_ C_ 0.874804 0.282685 0.374908 0.17695
C_ C_ 0.624293 0.293893 0.419174 -0.11473
C_ C_ 0.875798 0.279393 0.417814 -0.11473
C_ C_ 0.627063 0.255606 0.442003 0.23465
C_ C_ 0.877971 0.240493 0.437199 0.23465
C_ C_ 0.624675 0.218426 0.420805 -0.11473
C_ C_ 0.880513 0.205588 0.41231 -0.11473
C_ C_ 0.623279 0.204941 0.125984 0.17695
C_ C_ 0.866878 0.285344 0.121339 0.17695
C_ C_ 0.630237 0.277334 0.117833 0.17695
C_ C_ 0.873912 0.21266 0.117362 0.17695
C_ C_ 0.630629 0.273161 0.0752367 -0.11473
C_ C_ 0.874278 0.214342 0.0743251 -0.11473
C_ C_ 0.628748 0.234631 0.0562704 0.23465
C_ C_ 0.869767 0.252727 0.0531666 0.23465
C_ C_ 0.625937 0.198914 0.081736 -0.11473
C_ C_ 0.866645 0.288541 0.0769476 -0.11473
C_ C_ 0.526977 0.498431 0.253875 0.05793
C_ C_ 0.783673 0.503105 0.251911 0.05793
C_ C_ 0.7184 1.00019 0.258562 0.05793
C_ C_ 0.96932 0.99831594 0.240487 0.05793
Br Br 0.568614 0.501199 0.257963 -0.17191
Br Br 0.827785 0.50201 0.24647 -0.17191
Br Br 0.675395 0.00247627 0.262216 -0.17191
Br Br 0.927143 -0.00461900000000004 0.240883 -0.17191
N_ N_ 0.623599 0.254514 0.355264 -0.272
N_ N_ 0.875717 0.246428 0.351317 -0.272
N_ N_ 0.629602 0.257537 0.487868 -0.12501
N_ N_ 0.880155 0.23522 0.482038 -0.12501
N_ N_ 0.624458 0.243928 0.142158 -0.272
N_ N_ 0.871909 0.24882 0.139977 -0.272
N_ N_ 0.630656 0.230334 0.0119816 -0.12501
N_ N_ 0.862941 0.252403 0.00895897 -0.12501
O_ O_ 0.593994 0.292875 0.21971 -0.60745
O_ O_ 0.84113 0.290267 0.211157 -0.60745
O_ O_ 0.599837 0.298849 0.287617 -0.60745
O_ O_ 0.841468 0.29198 0.282118 -0.60745
O_ O_ 0.659419 0.293185 0.283298 -0.60745
O_ O_ 0.903211 0.295852 0.274654 -0.60745
O_ O_ 0.656361 0.295837 0.212724 -0.60745
O_ O_ 0.899885 0.298611 0.204598 -0.60745
O_ O_ 0.653429 0.199818 0.281863 -0.60745
O_ O_ 0.90471 0.204239 0.276888 -0.60745
O_ O_ 0.660206 0.208551 0.214615 -0.60745
O_ O_ 0.908877 0.209184 0.209012 -0.60745
O_ O_ 0.597734 0.203277 0.220663 -0.60745
O_ O_ 0.845677 0.200228 0.210536 -0.60745
O_ O_ 0.590722 0.213856 0.28744 -0.60745
O_ O_ 0.842239 0.204937 0.278477 -0.60745
Zn Zn 0.62825 0.246835 0.785355 0.9476
Zn Zn 0.873166 0.250777 0.782025 0.9476
Zn Zn 0.624837 0.247474 0.713682 0.9476
Zn Zn 0.874142 0.252297 0.711561 0.9476
H_ H_ 0.543567 0.427117 0.681395 0.10932
H_ H_ 0.77434 0.413069 0.68156 0.10932
H_ H_ 0.556955 0.345717 0.813651 0.10932
H_ H_ 0.816368 0.350952 0.810508 0.10932
H_ H_ 0.569703 0.363068 0.681242 0.10932
H_ H_ 0.808052 0.353624 0.677163 0.10932
H_ H_ 0.52924 0.41227 0.814115 0.10932
H_ H_ 0.795841 0.426231 0.812039 0.10932
H_ H_ 0.731009 0.405898 0.813854 0.10932
H_ H_ 0.949851 0.427732 0.815376 0.10932
H_ H_ 0.670871 0.361086 0.693729 0.10932
H_ H_ 0.955535 0.339327 0.689636 0.10932
H_ H_ 0.706884 0.337998 0.814727 0.10932
H_ H_ 0.921674 0.366429 0.81074 0.10932
H_ H_ 0.698867 0.427358 0.689959 0.10932
H_ H_ 0.979297 0.406113 0.688959 0.10932
H_ H_ 0.726764 0.0841738 0.808377 0.10932
H_ H_ 0.968239 0.0832605 0.813781 0.10932
H_ H_ 0.683131 0.145556 0.678668 0.10932
H_ H_ 0.916707 0.128005 0.681737 0.10932
H_ H_ 0.69165 0.142247 0.81196 0.10932
H_ H_ 0.937958 0.148108 0.812739 0.10932
H_ H_ 0.705176 0.0799752 0.673936 0.10932
H_ H_ 0.952237 0.0665498 0.682187 0.10932
H_ H_ 0.519095 0.0917117 0.688543 0.10932
H_ H_ 0.788821 0.0831514 0.677213 0.10932
H_ H_ 0.574361 0.13757 0.816446 0.10932
H_ H_ 0.803578 0.151916 0.818079 0.10932
H_ H_ 0.556532 0.150563 0.682955 0.10932
H_ H_ 0.816359 0.150203 0.684264 0.10932
H_ H_ 0.542576 0.0726508 0.814411 0.10932
H_ H_ 0.781624 0.0814168 0.812526 0.10932
H_ H_ 0.626667 0.31527 0.857517 0.10932
H_ H_ 0.918554 0.233288 0.850704 0.10932
H_ H_ 0.623658 0.185074 0.859833 0.10932
H_ H_ 0.824491 0.256941 0.862525 0.10932
H_ H_ 0.62054 0.188651 0.939265 0.10932
H_ H_ 0.834486 0.270034 0.939926 0.10932
H_ H_ 0.631613 0.320142 0.931568 0.10932
H_ H_ 0.924041 0.231431 0.927524 0.10932
H_ H_ 0.620914 0.183643 0.647973 0.10932
H_ H_ 0.882373 0.310574 0.645652 0.10932
H_ H_ 0.634424 0.310411 0.632291 0.10932
H_ H_ 0.856476 0.188192 0.633987 0.10932
H_ H_ 0.630568 0.304679 0.556768 0.10932
H_ H_ 0.860086 0.191361 0.556459 0.10932
H_ H_ 0.624503 0.172861 0.569913 0.10932
H_ H_ 0.891828 0.316736 0.569244 0.10932
C_ C_ 0.568505 0.351306 0.748088 -0.02249
C_ C_ 0.814338 0.347874 0.742901 -0.02249
C_ C_ 0.514502 0.463175 0.750806 -0.02249
C_ C_ 0.76828 0.465341 0.746954 -0.02249
C_ C_ 0.544047 0.40873 0.710591 -0.11473
C_ C_ 0.78856 0.405012 0.707933 -0.11473
C_ C_ 0.554032 0.364037 0.78521 -0.11473
C_ C_ 0.810455 0.368723 0.781476 -0.11473
C_ C_ 0.561973 0.372696 0.711317 -0.11473
C_ C_ 0.806139 0.370047 0.705637 -0.11473
C_ C_ 0.530571 0.423346 0.747437 -0.02249
C_ C_ 0.784973 0.426881 0.745435 -0.02249
C_ C_ 0.588719 0.313418 0.748369 0.6875
C_ C_ 0.832971 0.310353 0.743567 0.6875
C_ C_ 0.537363 0.401199 0.784044 -0.11473
C_ C_ 0.796103 0.40891 0.782484 -0.11473
C_ C_ 0.688118 0.344251 0.751525 -0.02249
C_ C_ 0.932781 0.348959 0.747541 -0.02249
C_ C_ 0.736287 0.463964 0.750093 -0.02249
C_ C_ 0.983679 0.466019 0.752973 -0.02249
C_ C_ 0.720406 0.396369 0.786332 -0.11473
C_ C_ 0.951903 0.409678 0.786941 -0.11473
C_ C_ 0.688191 0.367077 0.714983 -0.11473
C_ C_ 0.953727 0.35944 0.716084 -0.11473
C_ C_ 0.706807 0.357236 0.785473 -0.11473
C_ C_ 0.932831 0.374548 0.783878 -0.11473
C_ C_ 0.720503 0.420198 0.749364 -0.02249
C_ C_ 0.966068 0.42663 0.750783 -0.02249
C_ C_ 0.66923 0.30367 0.751705 0.6875
C_ C_ 0.916008 0.307592 0.745197 0.6875
C_ C_ 0.703364 0.407435 0.715317 -0.11473
C_ C_ 0.967062 0.398663 0.715604 -0.11473
C_ C_ 0.682324 0.145775 0.746261 -0.02249
C_ C_ 0.928401 0.147197 0.745225 -0.02249
C_ C_ 0.736303 0.0371821 0.736929 -0.02249
C_ C_ 0.98211 0.0361578 0.754429 -0.02249
C_ C_ 0.714482 0.0936764 0.778839 -0.11473
C_ C_ 0.956453 0.0947495 0.785029 -0.11473
C_ C_ 0.688529 0.12961 0.708202 -0.11473
C_ C_ 0.93013 0.120734 0.709961 -0.11473
C_ C_ 0.69524 0.128606 0.7821 -0.11473
C_ C_ 0.940641 0.131902 0.783854 -0.11473
C_ C_ 0.718437 0.0747898 0.740463 -0.02249
C_ C_ 0.962782 0.0720707 0.749231 -0.02249
C_ C_ 0.662704 0.182836 0.749438 0.6875
C_ C_ 0.910799 0.188006 0.746143 0.6875
C_ C_ 0.702012 0.0925299 0.705077 -0.11473
C_ C_ 0.946819 0.0833707 0.711989 -0.11473
C_ C_ 0.565751 0.150647 0.749309 -0.02249
C_ C_ 0.816988 0.153049 0.750986 -0.02249
C_ C_ 0.513543 0.0365787 0.752305 -0.02249
C_ C_ 0.767469 0.0380893 0.745386 -0.02249
C_ C_ 0.531355 0.102563 0.714657 -0.11473
C_ C_ 0.792606 0.0982994 0.708829 -0.11473
C_ C_ 0.560675 0.12888 0.787413 -0.11473
C_ C_ 0.804046 0.13506 0.787753 -0.11473
C_ C_ 0.550244 0.13808 0.713321 -0.11473
C_ C_ 0.812158 0.133383 0.712273 -0.11473
C_ C_ 0.531208 0.0768318 0.750359 -0.02249
C_ C_ 0.783682 0.0790328 0.746194 -0.02249
C_ C_ 0.584986 0.190112 0.747918 0.6875
C_ C_ 0.832873 0.194101 0.753573 0.6875
C_ C_ 0.547668 0.0891109 0.786007 -0.11473
C_ C_ 0.790074 0.0969364 0.784916 -0.11473
C_ C_ 0.626 0.287213 0.874852 0.17695
C_ C_ 0.897564 0.235753 0.869163 0.17695
C_ C_ 0.626035 0.214325 0.877379 0.17695
C_ C_ 0.847623 0.25915 0.876272 0.17695
C_ C_ 0.625826 0.215231 0.920517 -0.11473
C_ C_ 0.851241 0.257632 0.920416 -0.11473
C_ C_ 0.626136 0.254278 0.942372 0.23465
C_ C_ 0.87827 0.244383 0.938698 0.23465
C_ C_ 0.630836 0.289556 0.918197 -0.11473
C_ C_ 0.901479 0.235029 0.913978 -0.11473
C_ C_ 0.624593 0.209783 0.629006 0.17695
C_ C_ 0.881028 0.284339 0.626336 0.17695
C_ C_ 0.628944 0.282656 0.618042 0.17695
C_ C_ 0.861418 0.217688 0.617467 0.17695
C_ C_ 0.627118 0.278624 0.575494 -0.11473
C_ C_ 0.864336 0.219208 0.573818 -0.11473
C_ C_ 0.628037 0.235991 0.556875 0.23465
C_ C_ 0.874818 0.255957 0.55466 0.23465
C_ C_ 0.627868 0.202096 0.585311 -0.11473
C_ C_ 0.883074 0.288963 0.581187 -0.11473
C_ C_ 0.531037 0.500208 0.751377 0.05793
C_ C_ 0.783331 0.504441 0.740597 0.05793
C_ C_ 0.720673 0.00011999999999989797 0.733345 0.05793
C_ C_ 0.970001 -0.004005999999999954 0.755981 0.05793
Br Br 0.574064 0.501468 0.759425 -0.17191
Br Br 0.826223 0.507016 0.74331 -0.17191
Br Br 0.677362 -0.0045439999999999925 0.715021 -0.17191
Br Br 0.926304 -0.008844999999999992 0.765076 -0.17191
N_ N_ 0.626462 0.24922 0.854706 -0.272
N_ N_ 0.871745 0.250908 0.851669 -0.272
N_ N_ 0.622314 0.257171 0.986837 -0.12501
N_ N_ 0.881103 0.23741 0.983561 -0.12501
N_ N_ 0.625661 0.249226 0.643718 -0.272
N_ N_ 0.871643 0.249068 0.641998 -0.272
N_ N_ 0.627192 0.2285 0.511863 -0.12501
N_ N_ 0.873958 0.263512 0.508547 -0.12501
O_ O_ 0.594722 0.296084 0.712578 -0.60745
O_ O_ 0.843772 0.298047 0.708516 -0.60745
O_ O_ 0.599799 0.300606 0.782615 -0.60745
O_ O_ 0.843235 0.294982 0.779257 -0.60745
O_ O_ 0.659182 0.289326 0.785412 -0.60745
O_ O_ 0.906036 0.291078 0.77815 -0.60745
O_ O_ 0.656695 0.290004 0.717445 -0.60745
O_ O_ 0.907709 0.292196 0.711319 -0.60745
O_ O_ 0.656251 0.199102 0.786172 -0.60745
O_ O_ 0.905729 0.206315 0.781065 -0.60745
O_ O_ 0.656983 0.203901 0.715846 -0.60745
O_ O_ 0.902704 0.204802 0.712743 -0.60745
O_ O_ 0.593955 0.201107 0.712614 -0.60745
O_ O_ 0.840581 0.212391 0.720291 -0.60745
O_ O_ 0.59191 0.209793 0.781123 -0.60745
O_ O_ 0.843226 0.207821 0.786969 -0.60745
Zn Zn 0.621753 0.748729 0.281017 0.9476
Zn Zn 0.877852 0.747974 0.284039 0.9476
Zn Zn 0.623501 0.749302 0.211028 0.9476
Zn Zn 0.872359 0.753024 0.212951 0.9476
H_ H_ 0.546797 0.932252 0.193467 0.10932
H_ H_ 0.775244 0.911752 0.188317 0.10932
H_ H_ 0.551626 0.837619 0.31459 0.10932
H_ H_ 0.820839 0.856576 0.317598 0.10932
H_ H_ 0.569924 0.862912 0.184376 0.10932
H_ H_ 0.807932 0.850556 0.183856 0.10932
H_ H_ 0.523295 0.902688 0.319119 0.10932
H_ H_ 0.787557 0.918981 0.318557 0.10932
H_ H_ 0.707251 0.919692 0.321793 0.10932
H_ H_ 0.958287 0.925313 0.303697 0.10932
H_ H_ 0.694356 0.849663 0.183677 0.10932
H_ H_ 0.940125 0.846965 0.17386 0.10932
H_ H_ 0.668467 0.863061 0.313186 0.10932
H_ H_ 0.933354 0.858197 0.306483 0.10932
H_ H_ 0.717784 0.918282 0.185743 0.10932
H_ H_ 0.967634 0.91065 0.172636 0.10932
H_ H_ 0.722748 0.592515 0.31754 0.10932
H_ H_ 0.958614 0.570117 0.303152 0.10932
H_ H_ 0.67679 0.635845 0.184564 0.10932
H_ H_ 0.941029 0.658282 0.179035 0.10932
H_ H_ 0.695613 0.659536 0.312382 0.10932
H_ H_ 0.938309 0.641662 0.31229 0.10932
H_ H_ 0.709575 0.57301 0.185849 0.10932
H_ H_ 0.96763 0.591757 0.169436 0.10932
H_ H_ 0.536099 0.573803 0.182914 0.10932
H_ H_ 0.780792 0.589023 0.181861 0.10932
H_ H_ 0.5578 0.64714 0.317843 0.10932
H_ H_ 0.816929 0.646456 0.317603 0.10932
H_ H_ 0.571681 0.633463 0.183305 0.10932
H_ H_ 0.812462 0.650403 0.181472 0.10932
H_ H_ 0.521854 0.586439 0.314519 0.10932
H_ H_ 0.794442 0.580706 0.318039 0.10932
H_ H_ 0.620638 0.682243 0.350025 0.10932
H_ H_ 0.834212 0.771185 0.355033 0.10932
H_ H_ 0.633371 0.811287 0.356656 0.10932
H_ H_ 0.92109 0.720564 0.363226 0.10932
H_ H_ 0.628431 0.806473 0.437218 0.10932
H_ H_ 0.921737 0.722484 0.440534 0.10932
H_ H_ 0.633018 0.673433 0.425947 0.10932
H_ H_ 0.833644 0.77953 0.434157 0.10932
H_ H_ 0.573839 0.755393 0.134485 0.10932
H_ H_ 0.870853 0.683406 0.138132 0.10932
H_ H_ 0.666323 0.735919 0.134144 0.10932
H_ H_ 0.868726 0.814871 0.135797 0.10932
H_ H_ 0.663819 0.723147 0.0569288 0.10932
H_ H_ 0.86467 0.816633 0.0597923 0.10932
H_ H_ 0.569402 0.739969 0.0619291 0.10932
H_ H_ 0.867938 0.682864 0.0574524 0.10932
C_ C_ 0.564246 0.845568 0.24883 -0.02249
C_ C_ 0.818854 0.850603 0.249579 -0.02249
C_ C_ 0.516602 0.963629 0.259097 -0.02249
C_ C_ 0.765733 0.96069 0.253637 -0.02249
C_ C_ 0.548802 0.912419 0.219179 -0.11473
C_ C_ 0.787611 0.902105 0.215917 -0.11473
C_ C_ 0.550296 0.858236 0.285917 -0.11473
C_ C_ 0.809936 0.866205 0.288395 -0.11473
C_ C_ 0.563504 0.873883 0.21423 -0.11473
C_ C_ 0.8066 0.867434 0.212588 -0.11473
C_ C_ 0.535032 0.92407 0.256862 -0.02249
C_ C_ 0.782718 0.9231 0.252782 -0.02249
C_ C_ 0.583086 0.808715 0.249402 0.6875
C_ C_ 0.838495 0.814585 0.245714 0.6875
C_ C_ 0.531523 0.893524 0.286906 -0.11473
C_ C_ 0.791713 0.902598 0.289855 -0.11473
C_ C_ 0.676406 0.852049 0.247333 -0.02249
C_ C_ 0.938181 0.843438 0.241557 -0.02249
C_ C_ 0.733621 0.961728 0.258034 -0.02249
C_ C_ 0.98589 0.961054 0.238974 -0.02249
C_ C_ 0.700365 0.908104 0.29106 -0.11473
C_ C_ 0.959771 0.904193 0.277829 -0.11473
C_ C_ 0.693874 0.866755 0.213029 -0.11473
C_ C_ 0.94938 0.859173 0.203576 -0.11473
C_ C_ 0.678731 0.875113 0.285827 -0.11473
C_ C_ 0.944258 0.866737 0.278356 -0.11473
C_ C_ 0.71392 0.924411 0.254269 -0.02249
C_ C_ 0.969833 0.918654 0.239844 -0.02249
C_ C_ 0.658261 0.813951 0.246516 0.6875
C_ C_ 0.917351 0.805215 0.243346 0.6875
C_ C_ 0.708301 0.905512 0.214848 -0.11473
C_ C_ 0.965717 0.895279 0.202476 -0.11473
C_ C_ 0.685843 0.654293 0.247314 -0.02249
C_ C_ 0.937342 0.655014 0.246617 -0.02249
C_ C_ 0.735674 0.539831 0.254744 -0.02249
C_ C_ 0.984303 0.537404 0.234178 -0.02249
C_ C_ 0.717058 0.60679 0.286781 -0.11473
C_ C_ 0.958212 0.590466 0.277836 -0.11473
C_ C_ 0.687017 0.627711 0.212619 -0.11473
C_ C_ 0.945478 0.639176 0.206974 -0.11473
C_ C_ 0.70173 0.643821 0.285349 -0.11473
C_ C_ 0.944769 0.630917 0.282457 -0.11473
C_ C_ 0.719094 0.580961 0.251898 -0.02249
C_ C_ 0.968483 0.577476 0.238394 -0.02249
C_ C_ 0.664226 0.691622 0.245879 0.6875
C_ C_ 0.915963 0.691428 0.248987 0.6875
C_ C_ 0.704932 0.591503 0.213829 -0.11473
C_ C_ 0.961296 0.601117 0.202759 -0.11473
C_ C_ 0.564618 0.649403 0.250277 -0.02249
C_ C_ 0.813038 0.656848 0.251007 -0.02249
C_ C_ 0.510938 0.53626 0.250997 -0.02249
C_ C_ 0.767384 0.540543 0.249009 -0.02249
C_ C_ 0.541105 0.59108 0.21188 -0.11473
C_ C_ 0.787672 0.602392 0.213028 -0.11473
C_ C_ 0.550179 0.636284 0.287068 -0.11473
C_ C_ 0.807739 0.637509 0.287071 -0.11473
C_ C_ 0.557823 0.628066 0.211421 -0.11473
C_ C_ 0.803875 0.638868 0.2118 -0.11473
C_ C_ 0.526855 0.578297 0.248198 -0.02249
C_ C_ 0.783482 0.580994 0.250879 -0.02249
C_ C_ 0.584233 0.687264 0.250011 0.6875
C_ C_ 0.832542 0.692866 0.251643 0.6875
C_ C_ 0.531039 0.599419 0.285058 -0.11473
C_ C_ 0.795447 0.59692 0.287019 -0.11473
C_ C_ 0.62688 0.708222 0.36889 0.17695
C_ C_ 0.854645 0.765639 0.375077 0.17695
C_ C_ 0.626166 0.781787 0.373969 0.17695
C_ C_ 0.903287 0.734939 0.378222 0.17695
C_ C_ 0.628528 0.776105 0.418436 -0.11473
C_ C_ 0.902323 0.734387 0.423562 -0.11473
C_ C_ 0.627972 0.737042 0.438067 0.23465
C_ C_ 0.877568 0.747994 0.444913 0.23465
C_ C_ 0.629858 0.703263 0.411644 -0.11473
C_ C_ 0.853752 0.767576 0.419356 -0.11473
C_ C_ 0.593146 0.748548 0.119997 0.17695
C_ C_ 0.868377 0.712842 0.118821 0.17695
C_ C_ 0.644779 0.73589 0.118562 0.17695
C_ C_ 0.868087 0.78581 0.120066 0.17695
C_ C_ 0.643691 0.730052 0.0747456 -0.11473
C_ C_ 0.864907 0.786329 0.0772027 -0.11473
C_ C_ 0.616639 0.735673 0.0538584 0.23465
C_ C_ 0.862796 0.749731 0.0524137 0.23465
C_ C_ 0.590646 0.739829 0.0784185 -0.11473
C_ C_ 0.863036 0.711353 0.0745324 -0.11473
C_ C_ 0.532026 1.0018502 0.262136 0.05793
C_ C_ 0.781635 0.99843 0.253505 0.05793
C_ C_ 0.720373 0.502267 0.25151 0.05793
C_ C_ 0.968111 0.499793 0.235676 0.05793
Br Br 0.575168 1.00275796 0.271758 -0.17191
Br Br 0.825671 1.0018299 0.251817 -0.17191
Br Br 0.679068 0.506877 0.26084 -0.17191
Br Br 0.924266 0.505184 0.233257 -0.17191
N_ N_ 0.623051 0.746376 0.350637 -0.272
N_ N_ 0.878923 0.749061 0.354904 -0.272
N_ N_ 0.630186 0.731083 0.483328 -0.12501
N_ N_ 0.874671 0.7406 0.488877 -0.12501
N_ N_ 0.619829 0.743192 0.140597 -0.272
N_ N_ 0.868575 0.749189 0.141344 -0.272
N_ N_ 0.61232 0.731466 0.00846658 -0.12501
N_ N_ 0.857426 0.751819 0.0065222 -0.12501
O_ O_ 0.591925 0.791527 0.217434 -0.60745
O_ O_ 0.847827 0.803078 0.209623 -0.60745
O_ O_ 0.591315 0.792796 0.285058 -0.60745
O_ O_ 0.845721 0.79367 0.279608 -0.60745
O_ O_ 0.652144 0.795302 0.279072 -0.60745
O_ O_ 0.908076 0.793038 0.279549 -0.60745
O_ O_ 0.654409 0.79517 0.212633 -0.60745
O_ O_ 0.909669 0.786453 0.210534 -0.60745
O_ O_ 0.655571 0.706513 0.280793 -0.60745
O_ O_ 0.909642 0.7051 0.285277 -0.60745
O_ O_ 0.65674 0.708438 0.212926 -0.60745
O_ O_ 0.900912 0.702574 0.216225 -0.60745
O_ O_ 0.597466 0.698749 0.216352 -0.60745
O_ O_ 0.835905 0.713927 0.218541 -0.60745
O_ O_ 0.590692 0.706713 0.2843 -0.60745
O_ O_ 0.847532 0.702692 0.285036 -0.60745
Zn Zn 0.621812 0.753479 0.780968 0.9476
Zn Zn 0.877274 0.750254 0.78351 0.9476
Zn Zn 0.623585 0.753298 0.710164 0.9476
Zn Zn 0.876391 0.749686 0.715673 0.9476
H_ H_ 0.529703 0.922296 0.683252 0.10932
H_ H_ 0.782502 0.912814 0.68516 0.10932
H_ H_ 0.571158 0.860293 0.812867 0.10932
H_ H_ 0.814564 0.853316 0.821181 0.10932
H_ H_ 0.559822 0.861324 0.675328 0.10932
H_ H_ 0.814262 0.853929 0.68297 0.10932
H_ H_ 0.54422 0.922787 0.815746 0.10932
H_ H_ 0.782976 0.913849 0.818777 0.10932
H_ H_ 0.717583 0.918988 0.810571 0.10932
H_ H_ 0.971859 0.906972 0.824368 0.10932
H_ H_ 0.690061 0.850096 0.679652 0.10932
H_ H_ 0.93385 0.852091 0.685092 0.10932
H_ H_ 0.685423 0.858964 0.812872 0.10932
H_ H_ 0.944703 0.845404 0.821655 0.10932
H_ H_ 0.723661 0.907907 0.681127 0.10932
H_ H_ 0.968376 0.914458 0.686513 0.10932
H_ H_ 0.707312 0.574314 0.816064 0.10932
H_ H_ 0.969687 0.585562 0.822831 0.10932
H_ H_ 0.686928 0.652221 0.682602 0.10932
H_ H_ 0.941499 0.65498 0.684568 0.10932
H_ H_ 0.672697 0.634 0.816219 0.10932
H_ H_ 0.936365 0.647273 0.817744 0.10932
H_ H_ 0.721016 0.595692 0.681039 0.10932
H_ H_ 0.973116 0.587028 0.686447 0.10932
H_ H_ 0.535139 0.581003 0.679336 0.10932
H_ H_ 0.786546 0.582544 0.672967 0.10932
H_ H_ 0.562558 0.645778 0.813149 0.10932
H_ H_ 0.811591 0.654158 0.810107 0.10932
H_ H_ 0.559676 0.649729 0.677281 0.10932
H_ H_ 0.813506 0.646922 0.672996 0.10932
H_ H_ 0.536051 0.584014 0.813541 0.10932
H_ H_ 0.776573 0.594617 0.809814 0.10932
H_ H_ 0.66881 0.746993 0.848084 0.10932
H_ H_ 0.88422 0.682785 0.852155 0.10932
H_ H_ 0.574423 0.745555 0.858875 0.10932
H_ H_ 0.871051 0.812478 0.861059 0.10932
H_ H_ 0.58087 0.747309 0.938399 0.10932
H_ H_ 0.868001 0.805654 0.938233 0.10932
H_ H_ 0.675139 0.740537 0.926981 0.10932
H_ H_ 0.879917 0.673377 0.924043 0.10932
H_ H_ 0.623892 0.687331 0.632909 0.10932
H_ H_ 0.871781 0.820279 0.646849 0.10932
H_ H_ 0.631107 0.81782 0.643631 0.10932
H_ H_ 0.884861 0.692153 0.641096 0.10932
H_ H_ 0.628481 0.82406 0.563262 0.10932
H_ H_ 0.889038 0.694268 0.563406 0.10932
H_ H_ 0.63402 0.691108 0.554877 0.10932
H_ H_ 0.875526 0.823579 0.565408 0.10932
C_ C_ 0.567009 0.851874 0.74558 -0.02249
C_ C_ 0.820943 0.849425 0.752618 -0.02249
C_ C_ 0.513385 0.961695 0.756671 -0.02249
C_ C_ 0.767289 0.962046 0.748893 -0.02249
C_ C_ 0.536881 0.906802 0.711497 -0.11473
C_ C_ 0.793408 0.903301 0.713701 -0.11473
C_ C_ 0.558725 0.870124 0.784741 -0.11473
C_ C_ 0.811041 0.867439 0.791109 -0.11473
C_ C_ 0.553515 0.870102 0.707509 -0.11473
C_ C_ 0.809183 0.866173 0.713552 -0.11473
C_ C_ 0.530157 0.922009 0.751885 -0.02249
C_ C_ 0.785124 0.921448 0.752361 -0.02249
C_ C_ 0.58452 0.812895 0.744888 0.6875
C_ C_ 0.83901 0.811088 0.751531 0.6875
C_ C_ 0.54068 0.903489 0.787949 -0.11473
C_ C_ 0.794131 0.903988 0.790304 -0.11473
C_ C_ 0.684346 0.848748 0.745831 -0.02249
C_ C_ 0.935665 0.844762 0.754244 -0.02249
C_ C_ 0.735992 0.962718 0.743555 -0.02249
C_ C_ 0.986329 0.960159 0.758931 -0.02249
C_ C_ 0.709674 0.904364 0.781322 -0.11473
C_ C_ 0.965072 0.896679 0.79336 -0.11473
C_ C_ 0.695786 0.864483 0.708379 -0.11473
C_ C_ 0.940703 0.866778 0.716192 -0.11473
C_ C_ 0.69067 0.869869 0.783166 -0.11473
C_ C_ 0.946384 0.86128 0.792419 -0.11473
C_ C_ 0.719409 0.921412 0.743258 -0.02249
C_ C_ 0.972544 0.918311 0.755211 -0.02249
C_ C_ 0.665457 0.809989 0.746066 0.6875
C_ C_ 0.917781 0.806321 0.753034 0.6875
C_ C_ 0.716399 0.896705 0.708962 -0.11473
C_ C_ 0.962093 0.900287 0.715993 -0.11473
C_ C_ 0.678804 0.649062 0.749637 -0.02249
C_ C_ 0.938613 0.656549 0.750889 -0.02249
C_ C_ 0.733948 0.539135 0.746158 -0.02249
C_ C_ 0.987587 0.541919 0.751525 -0.02249
C_ C_ 0.703989 0.59015 0.786738 -0.11473
C_ C_ 0.964865 0.601276 0.791055 -0.11473
C_ C_ 0.690991 0.63506 0.711775 -0.11473
C_ C_ 0.948356 0.639297 0.713638 -0.11473
C_ C_ 0.683346 0.625114 0.786034 -0.11473
C_ C_ 0.947027 0.637229 0.789884 -0.11473
C_ C_ 0.715851 0.577579 0.74761 -0.02249
C_ C_ 0.972977 0.582422 0.752999 -0.02249
C_ C_ 0.65744 0.687362 0.74843 0.6875
C_ C_ 0.914505 0.689575 0.749873 0.6875
C_ C_ 0.709967 0.601279 0.710483 -0.11473
C_ C_ 0.965092 0.601821 0.715248 -0.11473
C_ C_ 0.561376 0.656188 0.744975 -0.02249
C_ C_ 0.817533 0.654615 0.740974 -0.02249
C_ C_ 0.515159 0.53789 0.749175 -0.02249
C_ C_ 0.765917 0.541393 0.74217 -0.02249
C_ C_ 0.540644 0.594092 0.708927 -0.11473
C_ C_ 0.793009 0.59694 0.704427 -0.11473
C_ C_ 0.554865 0.635142 0.783419 -0.11473
C_ C_ 0.807521 0.637907 0.779413 -0.11473
C_ C_ 0.555198 0.633955 0.707723 -0.11473
C_ C_ 0.806933 0.636059 0.703315 -0.11473
C_ C_ 0.532597 0.575865 0.747533 -0.02249
C_ C_ 0.782487 0.581416 0.742232 -0.02249
C_ C_ 0.578847 0.696484 0.74236 0.6875
C_ C_ 0.837195 0.691034 0.74358 0.6875
C_ C_ 0.542171 0.595968 0.783365 -0.11473
C_ C_ 0.789247 0.602783 0.780126 -0.11473
C_ C_ 0.649812 0.745834 0.86825 0.17695
C_ C_ 0.882935 0.710917 0.868399 0.17695
C_ C_ 0.597325 0.746508 0.874332 0.17695
C_ C_ 0.873427 0.782806 0.875799 0.17695
C_ C_ 0.600113 0.74533 0.918782 -0.11473
C_ C_ 0.871415 0.777697 0.919994 -0.11473
C_ C_ 0.628044 0.742766 0.93882 0.23465
C_ C_ 0.871351 0.737324 0.938579 0.23465
C_ C_ 0.653289 0.741416 0.9117 -0.11473
C_ C_ 0.87731 0.703317 0.912149 -0.11473
C_ C_ 0.622179 0.717043 0.615931 0.17695
C_ C_ 0.873751 0.793726 0.626956 0.17695
C_ C_ 0.629095 0.790266 0.621934 0.17695
C_ C_ 0.880302 0.720144 0.624671 0.17695
C_ C_ 0.628056 0.793521 0.577177 -0.11473
C_ C_ 0.882537 0.722057 0.580349 -0.11473
C_ C_ 0.629406 0.757451 0.551959 0.23465
C_ C_ 0.878492 0.76019 0.559546 0.23465
C_ C_ 0.629048 0.718718 0.572597 -0.11473
C_ C_ 0.87433 0.795128 0.582532 -0.11473
C_ C_ 0.529487 -0.00112356 0.755722 0.05793
C_ C_ 0.783691 0.0006800000000000139 0.747435 0.05793
C_ C_ 0.718922 0.500853 0.749847 0.05793
C_ C_ 0.969852 0.505543 0.756513 0.05793
Br Br 0.571944 -0.0014859999999999873 0.751859 -0.17191
Br Br 0.827101 0.998602 0.758451 -0.17191
Br Br 0.674979 0.50061 0.746861 -0.17191
Br Br 0.92856 0.508056 0.776288 -0.17191
N_ N_ 0.621783 0.744764 0.849824 -0.272
N_ N_ 0.87913 0.74923 0.850962 -0.272
N_ N_ 0.632588 0.740558 0.98386 -0.12501
N_ N_ 0.875341 0.733506 0.982466 -0.12501
N_ N_ 0.624998 0.753057 0.639476 -0.272
N_ N_ 0.875054 0.756113 0.646237 -0.272
N_ N_ 0.627543 0.760698 0.507706 -0.12501
N_ N_ 0.882906 0.766688 0.515193 -0.12501
O_ O_ 0.595305 0.801541 0.709174 -0.60745
O_ O_ 0.849658 0.798743 0.716586 -0.60745
O_ O_ 0.594643 0.798987 0.778037 -0.60745
O_ O_ 0.846202 0.794016 0.785656 -0.60745
O_ O_ 0.654333 0.797259 0.779786 -0.60745
O_ O_ 0.907771 0.793367 0.787044 -0.60745
O_ O_ 0.658217 0.792639 0.712172 -0.60745
O_ O_ 0.909919 0.789597 0.718157 -0.60745
O_ O_ 0.649218 0.704294 0.781802 -0.60745
O_ O_ 0.91143 0.711668 0.782241 -0.60745
O_ O_ 0.651876 0.705434 0.714556 -0.60745
O_ O_ 0.903032 0.702052 0.715439 -0.60745
O_ O_ 0.588737 0.709806 0.707446 -0.60745
O_ O_ 0.843967 0.709679 0.710315 -0.60745
O_ O_ 0.587924 0.713834 0.778086 -0.60745
O_ O_ 0.847745 0.703131 0.777717 -0.60745
_cell_length_a 44.444
_cell_length_b 32.3360000049186
_cell_length_c 31.843999878906452
_cell_angle_alpha 89.99799923859553
_cell_angle_beta 91.13600050494348
_cell_angle_gamma 89.9990006550086
_symmetry_space_group_name_H-M         'P 1'
_symmetry_Int_Tables_number            1
loop_
_symmetry_equiv_pos_as_xyz
   'x, y, z'
                         
loop_
_atom_site_label
_atom_site_type_symbol
_atom_site_fract_x 
_atom_site_fract_y
_atom_site_fract_z
_atom_site_charge
Zn Zn 0.123774 0.2506 0.287637 0.9476
Zn Zn 0.371739 0.247075 0.290351 0.9476
Zn Zn 0.128761 0.251546 0.217709 0.9476
Zn Zn 0.37336 0.248361 0.220192 0.9476
H_ H_ 0.0451351 0.422004 0.179158 0.10932
H_ H_ 0.308012 0.427695 0.197784 0.10932
H_ H_ 0.0553282 0.344197 0.315098 0.10932
H_ H_ 0.288342 0.329291 0.316763 0.10932
H_ H_ 0.0680116 0.353361 0.180098 0.10932
H_ H_ 0.329803 0.358153 0.2021 0.10932
H_ H_ 0.0251931 0.410693 0.309104 0.10932
H_ H_ 0.273265 0.405565 0.320608 0.10932
H_ H_ 0.203131 0.431165 0.318306 0.10932
H_ H_ 0.446836 0.433566 0.311858 0.10932
H_ H_ 0.202678 0.343042 0.194094 0.10932
H_ H_ 0.445462 0.330241 0.199563 0.10932
H_ H_ 0.179221 0.363565 0.324143 0.10932
H_ H_ 0.411484 0.372581 0.314788 0.10932
H_ H_ 0.231702 0.404342 0.192952 0.10932
H_ H_ 0.47964 0.391435 0.193897 0.10932
H_ H_ 0.210874 0.078249 0.318538 0.10932
H_ H_ 0.44828 0.0702509 0.320887 0.10932
H_ H_ 0.185122 0.145114 0.182069 0.10932
H_ H_ 0.450005 0.159345 0.196755 0.10932
H_ H_ 0.179536 0.143545 0.316727 0.10932
H_ H_ 0.419396 0.139113 0.320988 0.10932
H_ H_ 0.209746 0.0745514 0.184857 0.10932
H_ H_ 0.479431 0.0988203 0.19694 0.10932
H_ H_ 0.0400822 0.0807521 0.176246 0.10932
H_ H_ 0.271817 0.0959637 0.184354 0.10932
H_ H_ 0.0565521 0.152448 0.314182 0.10932
H_ H_ 0.313598 0.136285 0.321559 0.10932
H_ H_ 0.0693816 0.147765 0.180776 0.10932
H_ H_ 0.312732 0.147427 0.185886 0.10932
H_ H_ 0.0294569 0.0856282 0.307928 0.10932
H_ H_ 0.283536 0.072784 0.315702 0.10932
H_ H_ 0.128252 0.319415 0.364206 0.10932
H_ H_ 0.381474 0.310214 0.374276 0.10932
H_ H_ 0.120787 0.187799 0.369226 0.10932
H_ H_ 0.361423 0.182437 0.359851 0.10932
H_ H_ 0.13275 0.190558 0.444657 0.10932
H_ H_ 0.361316 0.17224 0.440122 0.10932
H_ H_ 0.129735 0.322066 0.439276 0.10932
H_ H_ 0.378312 0.302018 0.450578 0.10932
H_ H_ 0.138346 0.316455 0.146199 0.10932
H_ H_ 0.41713 0.220454 0.150138 0.10932
H_ H_ 0.118064 0.186655 0.141348 0.10932
H_ H_ 0.332663 0.2863 0.146577 0.10932
H_ H_ 0.110427 0.192532 0.0594685 0.10932
H_ H_ 0.333772 0.289434 0.0666158 0.10932
H_ H_ 0.134961 0.321444 0.0694151 0.10932
H_ H_ 0.420833 0.227906 0.0711886 0.10932
C_ C_ 0.0667797 0.346242 0.247132 -0.02249
C_ C_ 0.308568 0.338352 0.256148 -0.02249
C_ C_ 0.0143509 0.461735 0.241339 -0.02249
C_ C_ 0.268706 0.461831 0.25644 -0.02249
C_ C_ 0.0488208 0.40844 0.209895 -0.11473
C_ C_ 0.298804 0.405787 0.221607 -0.11473
C_ C_ 0.0505655 0.36001 0.282966 -0.11473
C_ C_ 0.289782 0.350831 0.289099 -0.11473
C_ C_ 0.063144 0.368652 0.209384 -0.11473
C_ C_ 0.311819 0.36592 0.222456 -0.11473
C_ C_ 0.0314765 0.421235 0.244443 -0.02249
C_ C_ 0.284987 0.420804 0.256798 -0.02249
C_ C_ 0.0900948 0.313217 0.251399 0.6875
C_ C_ 0.325713 0.298836 0.259275 0.6875
C_ C_ 0.0364517 0.398997 0.282519 -0.11473
C_ C_ 0.279342 0.392876 0.29111 -0.11473
C_ C_ 0.188224 0.344966 0.259683 -0.02249
C_ C_ 0.427239 0.346857 0.257329 -0.02249
C_ C_ 0.236688 0.463708 0.252161 -0.02249
C_ C_ 0.480858 0.458031 0.250943 -0.02249
C_ C_ 0.201576 0.412173 0.291531 -0.11473
C_ C_ 0.44685 0.410213 0.289648 -0.11473
C_ C_ 0.202642 0.359072 0.222376 -0.11473
C_ C_ 0.448658 0.351499 0.224825 -0.11473
C_ C_ 0.186359 0.3736 0.293472 -0.11473
C_ C_ 0.427598 0.375807 0.290316 -0.11473
C_ C_ 0.218127 0.423293 0.25583 -0.02249
C_ C_ 0.465226 0.417078 0.254137 -0.02249
C_ C_ 0.168632 0.307947 0.256919 0.6875
C_ C_ 0.406607 0.312056 0.256666 0.6875
C_ C_ 0.218938 0.396824 0.221833 -0.11473
C_ C_ 0.464758 0.388474 0.221326 -0.11473
C_ C_ 0.180041 0.148923 0.249559 -0.02249
C_ C_ 0.432914 0.155091 0.258503 -0.02249
C_ C_ 0.229076 0.0349287 0.25021 -0.02249
C_ C_ 0.4845 0.0389198 0.256422 -0.02249
C_ C_ 0.203051 0.0925631 0.28915 -0.11473
C_ C_ 0.450517 0.0908085 0.295331 -0.11473
C_ C_ 0.1876 0.129316 0.212586 -0.11473
C_ C_ 0.450012 0.142766 0.225223 -0.11473
C_ C_ 0.187281 0.130026 0.28862 -0.11473
C_ C_ 0.434463 0.129734 0.295567 -0.11473
C_ C_ 0.212678 0.0761719 0.251201 -0.02249
C_ C_ 0.465968 0.0790426 0.258213 -0.02249
C_ C_ 0.162854 0.188668 0.249563 0.6875
C_ C_ 0.413588 0.191813 0.25502 0.6875
C_ C_ 0.204783 0.0928556 0.213527 -0.11473
C_ C_ 0.4681 0.108473 0.226469 -0.11473
C_ C_ 0.0686532 0.153593 0.247922 -0.02249
C_ C_ 0.314451 0.14847 0.253003 -0.02249
C_ C_ 0.0184506 0.0370095 0.240368 -0.02249
C_ C_ 0.260486 0.0359507 0.24803 -0.02249
C_ C_ 0.0446865 0.0970226 0.2062 -0.11473
C_ C_ 0.283863 0.100733 0.214083 -0.11473
C_ C_ 0.0556251 0.135464 0.284349 -0.11473
C_ C_ 0.307216 0.126173 0.291136 -0.11473
C_ C_ 0.0597783 0.135543 0.208528 -0.11473
C_ C_ 0.305197 0.131847 0.214939 -0.11473
C_ C_ 0.0354011 0.0775631 0.244405 -0.02249
C_ C_ 0.275713 0.0784691 0.251064 -0.02249
C_ C_ 0.0846286 0.193228 0.248552 0.6875
C_ C_ 0.333293 0.185867 0.25441 0.6875
C_ C_ 0.0404082 0.097663 0.282176 -0.11473
C_ C_ 0.287846 0.091411 0.288821 -0.11473
C_ C_ 0.12546 0.29088 0.380543 0.17695
C_ C_ 0.376055 0.280971 0.389636 0.17695
C_ C_ 0.123081 0.217687 0.384319 0.17695
C_ C_ 0.364486 0.20781 0.380381 0.17695
C_ C_ 0.129503 0.218757 0.428582 -0.11473
C_ C_ 0.366358 0.201735 0.42473 -0.11473
C_ C_ 0.130779 0.257456 0.448968 0.23465
C_ C_ 0.373704 0.236151 0.450095 0.23465
C_ C_ 0.126025 0.292734 0.424041 -0.11473
C_ C_ 0.376115 0.275324 0.432351 -0.11473
C_ C_ 0.132352 0.288553 0.127526 0.17695
C_ C_ 0.399185 0.238616 0.131511 0.17695
C_ C_ 0.118033 0.216951 0.124218 0.17695
C_ C_ 0.351382 0.273451 0.129234 0.17695
C_ C_ 0.114318 0.220602 0.0793268 -0.11473
C_ C_ 0.352699 0.275949 0.0850388 -0.11473
C_ C_ 0.123006 0.256883 0.0591524 0.23465
C_ C_ 0.377738 0.257965 0.0637875 0.23465
C_ C_ 0.130576 0.29153 0.0841108 -0.11473
C_ C_ 0.401698 0.241025 0.0877448 -0.11473
C_ C_ 0.0308241 0.497967 0.248192 0.05793
C_ C_ 0.284287 0.500165 0.2604 0.05793
C_ C_ 0.215604 -0.003669999999999951 0.255906 0.05793
C_ C_ 0.469753 1.000724507 0.249433 0.05793
Br Br 0.0734504 0.497968 0.26381 -0.17191
Br Br 0.327384 0.497936 0.262568 -0.17191
Br Br 0.173002 -0.006167999999999951 0.269599 -0.17191
Br Br 0.42713 1.00357819 0.234393 -0.17191
N_ N_ 0.122671 0.253818 0.360134 -0.272
N_ N_ 0.370148 0.246706 0.363398 -0.272
N_ N_ 0.136658 0.260711 0.493725 -0.12501
N_ N_ 0.376867 0.231151 0.494647 -0.12501
N_ N_ 0.124945 0.252794 0.146273 -0.272
N_ N_ 0.373347 0.250822 0.150315 -0.272
N_ N_ 0.117547 0.260242 0.0147458 -0.12501
N_ N_ 0.372189 0.249119 0.02068 -0.12501
O_ O_ 0.0991118 0.296065 0.218131 -0.60745
O_ O_ 0.334599 0.280779 0.224619 -0.60745
O_ O_ 0.0969523 0.297403 0.288297 -0.60745
O_ O_ 0.337507 0.287138 0.294037 -0.60745
O_ O_ 0.157285 0.290756 0.28812 -0.60745
O_ O_ 0.400845 0.291691 0.28953 -0.60745
O_ O_ 0.161491 0.29492 0.220335 -0.60745
O_ O_ 0.396559 0.299709 0.222804 -0.60745
O_ O_ 0.152538 0.204102 0.283602 -0.60745
O_ O_ 0.404686 0.207918 0.289069 -0.60745
O_ O_ 0.158084 0.206414 0.214772 -0.60745
O_ O_ 0.408339 0.209594 0.220576 -0.60745
O_ O_ 0.098085 0.20467 0.215631 -0.60745
O_ O_ 0.342156 0.202932 0.219804 -0.60745
O_ O_ 0.0896123 0.212938 0.284596 -0.60745
O_ O_ 0.345181 0.197745 0.287894 -0.60745
Zn Zn 0.121923 0.251015 0.786954 0.9476
Zn Zn 0.377211 0.249403 0.790556 0.9476
Zn Zn 0.121401 0.24773 0.718927 0.9476
Zn Zn 0.377679 0.251757 0.720588 0.9476
H_ H_ 0.0395475 0.424187 0.681699 0.10932
H_ H_ 0.290533 0.424021 0.686756 0.10932
H_ H_ 0.0476414 0.339579 0.809681 0.10932
H_ H_ 0.317684 0.359244 0.817883 0.10932
H_ H_ 0.0732961 0.364612 0.684009 0.10932
H_ H_ 0.324447 0.360806 0.683721 0.10932
H_ H_ 0.0230983 0.408047 0.815086 0.10932
H_ H_ 0.28398 0.422778 0.816207 0.10932
H_ H_ 0.203401 0.425794 0.810568 0.10932
H_ H_ 0.471367 0.410937 0.816543 0.10932
H_ H_ 0.190613 0.339021 0.684421 0.10932
H_ H_ 0.428648 0.357554 0.682228 0.10932
H_ H_ 0.178007 0.362371 0.815987 0.10932
H_ H_ 0.451849 0.342533 0.812515 0.10932
H_ H_ 0.229784 0.392732 0.685132 0.10932
H_ H_ 0.452334 0.42689 0.685268 0.10932
H_ H_ 0.211243 0.0783677 0.824693 0.10932
H_ H_ 0.46532 0.0859189 0.821421 0.10932
H_ H_ 0.200933 0.163621 0.694088 0.10932
H_ H_ 0.433559 0.147047 0.687232 0.10932
H_ H_ 0.178366 0.14296 0.822586 0.10932
H_ H_ 0.43908 0.153281 0.823417 0.10932
H_ H_ 0.225428 0.0978227 0.689965 0.10932
H_ H_ 0.453445 0.0776234 0.688247 0.10932
H_ H_ 0.0327104 0.0860119 0.685079 0.10932
H_ H_ 0.285892 0.0941172 0.687031 0.10932
H_ H_ 0.0538073 0.15276 0.822392 0.10932
H_ H_ 0.312465 0.149101 0.824349 0.10932
H_ H_ 0.0543192 0.153641 0.68567 0.10932
H_ H_ 0.308188 0.160621 0.693191 0.10932
H_ H_ 0.0242024 0.0895137 0.820026 0.10932
H_ H_ 0.287275 0.0841767 0.81945 0.10932
H_ H_ 0.108119 0.307571 0.863132 0.10932
H_ H_ 0.390603 0.316439 0.8628 0.10932
H_ H_ 0.131076 0.181866 0.858461 0.10932
H_ H_ 0.36683 0.192627 0.864862 0.10932
H_ H_ 0.129315 0.175589 0.932832 0.10932
H_ H_ 0.368691 0.191281 0.944997 0.10932
H_ H_ 0.101244 0.302445 0.942081 0.10932
H_ H_ 0.392157 0.319226 0.942768 0.10932
H_ H_ 0.114321 0.183853 0.649492 0.10932
H_ H_ 0.356075 0.194511 0.645509 0.10932
H_ H_ 0.13689 0.305441 0.645381 0.10932
H_ H_ 0.396736 0.311559 0.646735 0.10932
H_ H_ 0.140125 0.303939 0.566765 0.10932
H_ H_ 0.397881 0.31506 0.574376 0.10932
H_ H_ 0.125801 0.174228 0.57528 0.10932
H_ H_ 0.366446 0.191525 0.565914 0.10932
C_ C_ 0.0652942 0.349078 0.748342 -0.02249
C_ C_ 0.321825 0.354203 0.753233 -0.02249
C_ C_ 0.0146627 0.46415 0.747039 -0.02249
C_ C_ 0.264809 0.462155 0.748718 -0.02249
C_ C_ 0.0460428 0.411108 0.712118 -0.11473
C_ C_ 0.29365 0.406531 0.712996 -0.11473
C_ C_ 0.0501414 0.361767 0.78462 -0.11473
C_ C_ 0.31086 0.37275 0.789562 -0.11473
C_ C_ 0.0625442 0.372829 0.712299 -0.11473
C_ C_ 0.314118 0.372142 0.714576 -0.11473
C_ C_ 0.0318861 0.423972 0.748546 -0.02249
C_ C_ 0.280959 0.422268 0.751098 -0.02249
C_ C_ 0.0839489 0.309964 0.748094 0.6875
C_ C_ 0.342537 0.316255 0.756682 0.6875
C_ C_ 0.0342987 0.400311 0.785452 -0.11473
C_ C_ 0.291862 0.406642 0.788997 -0.11473
C_ C_ 0.1806 0.346248 0.74923 -0.02249
C_ C_ 0.434889 0.346217 0.747894 -0.02249
C_ C_ 0.231857 0.461204 0.741099 -0.02249
C_ C_ 0.48274 0.462893 0.748043 -0.02249
C_ C_ 0.200328 0.407659 0.783066 -0.11473
C_ C_ 0.462822 0.399843 0.786045 -0.11473
C_ C_ 0.191242 0.36052 0.709672 -0.11473
C_ C_ 0.436323 0.371114 0.7125 -0.11473
C_ C_ 0.185859 0.37099 0.786386 -0.11473
C_ C_ 0.451114 0.360465 0.784113 -0.11473
C_ C_ 0.214666 0.420793 0.74501 -0.02249
C_ C_ 0.463975 0.424268 0.748997 -0.02249
C_ C_ 0.162301 0.307899 0.751418 0.6875
C_ C_ 0.417101 0.307141 0.750045 0.6875
C_ C_ 0.212441 0.392398 0.708892 -0.11473
C_ C_ 0.449802 0.410538 0.713214 -0.11473
C_ C_ 0.179838 0.151504 0.755117 -0.02249
C_ C_ 0.432233 0.1533 0.754213 -0.02249
C_ C_ 0.236977 0.0422275 0.754742 -0.02249
C_ C_ 0.480961 0.0379048 0.752486 -0.02249
C_ C_ 0.207314 0.0962147 0.795029 -0.11473
C_ C_ 0.46065 0.100972 0.791857 -0.11473
C_ C_ 0.198699 0.142317 0.720203 -0.11473
C_ C_ 0.437867 0.132559 0.716748 -0.11473
C_ C_ 0.187397 0.130476 0.79333 -0.11473
C_ C_ 0.442767 0.136576 0.794007 -0.11473
C_ C_ 0.219599 0.0821644 0.755775 -0.02249
C_ C_ 0.465443 0.0791732 0.754278 -0.02249
C_ C_ 0.160195 0.18814 0.754623 0.6875
C_ C_ 0.412264 0.190704 0.754766 0.6875
C_ C_ 0.214391 0.105624 0.719058 -0.11473
C_ C_ 0.452956 0.0943848 0.716306 -0.11473
C_ C_ 0.0555536 0.161104 0.751484 -0.02249
C_ C_ 0.312357 0.160902 0.758131 -0.02249
C_ C_ 0.0148522 0.0398387 0.753685 -0.02249
C_ C_ 0.269515 0.0427089 0.751314 -0.02249
C_ C_ 0.03593 0.100597 0.714776 -0.11473
C_ C_ 0.289311 0.106335 0.715858 -0.11473
C_ C_ 0.0478916 0.140877 0.79028 -0.11473
C_ C_ 0.308782 0.136443 0.793539 -0.11473
C_ C_ 0.0504718 0.140084 0.714154 -0.11473
C_ C_ 0.301323 0.146307 0.719891 -0.11473
C_ C_ 0.0294174 0.0803783 0.753616 -0.02249
C_ C_ 0.284364 0.0838121 0.75139 -0.02249
C_ C_ 0.0786243 0.193722 0.750524 0.6875
C_ C_ 0.333416 0.197143 0.761328 0.6875
C_ C_ 0.0328285 0.103082 0.790677 -0.11473
C_ C_ 0.293768 0.100544 0.791224 -0.11473
C_ C_ 0.113208 0.279824 0.879684 0.17695
C_ C_ 0.385959 0.289309 0.879834 0.17695
C_ C_ 0.125419 0.209326 0.876187 0.17695
C_ C_ 0.376289 0.21772 0.883901 0.17695
C_ C_ 0.123826 0.205079 0.920054 -0.11473
C_ C_ 0.377425 0.217394 0.927827 -0.11473
C_ C_ 0.116472 0.239559 0.945659 0.23465
C_ C_ 0.383686 0.255127 0.949469 0.23465
C_ C_ 0.109065 0.275347 0.924792 -0.11473
C_ C_ 0.386865 0.290956 0.925894 -0.11473
C_ C_ 0.118779 0.20881 0.630989 0.17695
C_ C_ 0.36541 0.219824 0.626686 0.17695
C_ C_ 0.132154 0.278306 0.627976 0.17695
C_ C_ 0.390727 0.283868 0.63085 0.17695
C_ C_ 0.132056 0.277483 0.58369 -0.11473
C_ C_ 0.391498 0.286916 0.58767 -0.11473
C_ C_ 0.128466 0.238875 0.563281 0.23465
C_ C_ 0.379693 0.255303 0.562225 0.23465
C_ C_ 0.124466 0.205279 0.588055 -0.11473
C_ C_ 0.369649 0.220136 0.583472 -0.11473
C_ C_ 0.0310778 0.499634 0.740324 0.05793
C_ C_ 0.279795 0.500483 0.754299 0.05793
C_ C_ 0.222047 0.004778 0.750823 0.05793
C_ C_ 0.465553 0.999116423 0.756186 0.05793
Br Br 0.0752828 0.496305 0.743882 -0.17191
Br Br 0.321552 0.504372 0.772811 -0.17191
Br Br 0.178201 0.00687315 0.750496 -0.17191
Br Br 0.424838 0.99968 0.76511 -0.17191
N_ N_ 0.120589 0.245987 0.857274 -0.272
N_ N_ 0.381838 0.253298 0.860941 -0.272
N_ N_ 0.114447 0.231861 0.989592 -0.12501
N_ N_ 0.391316 0.257297 0.993388 -0.12501
N_ N_ 0.122497 0.244974 0.649956 -0.272
N_ N_ 0.375445 0.25246 0.648989 -0.272
N_ N_ 0.128195 0.232993 0.517639 -0.12501
N_ N_ 0.375391 0.262014 0.518862 -0.12501
O_ O_ 0.0940756 0.296211 0.714383 -0.60745
O_ O_ 0.355161 0.303869 0.724898 -0.60745
O_ O_ 0.0936566 0.295043 0.78255 -0.60745
O_ O_ 0.344924 0.29713 0.788851 -0.60745
O_ O_ 0.154393 0.293586 0.786178 -0.60745
O_ O_ 0.407348 0.294842 0.783252 -0.60745
O_ O_ 0.155669 0.287839 0.718401 -0.60745
O_ O_ 0.41358 0.284421 0.718793 -0.60745
O_ O_ 0.15247 0.205377 0.789415 -0.60745
O_ O_ 0.40546 0.205417 0.790587 -0.60745
O_ O_ 0.149424 0.200423 0.719275 -0.60745
O_ O_ 0.404186 0.207521 0.720259 -0.60745
O_ O_ 0.0865301 0.211074 0.717175 -0.60745
O_ O_ 0.344603 0.210246 0.726796 -0.60745
O_ O_ 0.0907767 0.207461 0.783682 -0.60745
O_ O_ 0.345906 0.208622 0.79518 -0.60745
Zn Zn 0.127862 0.747593 0.283699 0.9476
Zn Zn 0.375453 0.748666 0.281437 0.9476
Zn Zn 0.126437 0.747829 0.216536 0.9476
Zn Zn 0.375387 0.751102 0.210395 0.9476
H_ H_ 0.0387062 0.917061 0.173568 0.10932
H_ H_ 0.284387 0.922684 0.177895 0.10932
H_ H_ 0.0714435 0.861132 0.310339 0.10932
H_ H_ 0.315745 0.855059 0.310942 0.10932
H_ H_ 0.0714728 0.857314 0.177573 0.10932
H_ H_ 0.309461 0.852327 0.175959 0.10932
H_ H_ 0.0378502 0.922745 0.307059 0.10932
H_ H_ 0.295426 0.925616 0.309882 0.10932
H_ H_ 0.224639 0.904382 0.317364 0.10932
H_ H_ 0.453167 0.924943 0.319536 0.10932
H_ H_ 0.179504 0.852444 0.183701 0.10932
H_ H_ 0.449509 0.844337 0.189731 0.10932
H_ H_ 0.207111 0.832943 0.310603 0.10932
H_ H_ 0.426817 0.858621 0.316642 0.10932
H_ H_ 0.199775 0.923184 0.188301 0.10932
H_ H_ 0.475556 0.911296 0.190944 0.10932
H_ H_ 0.208713 0.569288 0.314628 0.10932
H_ H_ 0.449998 0.571233 0.316837 0.10932
H_ H_ 0.198014 0.66252 0.187236 0.10932
H_ H_ 0.437281 0.650104 0.182756 0.10932
H_ H_ 0.17824 0.631996 0.315351 0.10932
H_ H_ 0.420496 0.638477 0.316631 0.10932
H_ H_ 0.229334 0.595808 0.183175 0.10932
H_ H_ 0.465331 0.583111 0.183773 0.10932
H_ H_ 0.0435818 0.576458 0.180412 0.10932
H_ H_ 0.294937 0.569269 0.182912 0.10932
H_ H_ 0.0611837 0.643047 0.315297 0.10932
H_ H_ 0.30341 0.66357 0.30994 0.10932
H_ H_ 0.0801098 0.635985 0.18266 0.10932
H_ H_ 0.320098 0.639496 0.179976 0.10932
H_ H_ 0.0291786 0.585535 0.309591 0.10932
H_ H_ 0.274507 0.595212 0.313907 0.10932
H_ H_ 0.128156 0.814641 0.360253 0.10932
H_ H_ 0.378928 0.684963 0.349811 0.10932
H_ H_ 0.120111 0.684732 0.357924 0.10932
H_ H_ 0.367106 0.816332 0.357708 0.10932
H_ H_ 0.117215 0.681952 0.435674 0.10932
H_ H_ 0.375693 0.811957 0.434957 0.10932
H_ H_ 0.127357 0.816293 0.436468 0.10932
H_ H_ 0.388096 0.681561 0.427082 0.10932
H_ H_ 0.17077 0.737438 0.140195 0.10932
H_ H_ 0.364443 0.688828 0.129172 0.10932
H_ H_ 0.076567 0.739698 0.147548 0.10932
H_ H_ 0.377476 0.817913 0.141644 0.10932
H_ H_ 0.0732312 0.73075 0.0688711 0.10932
H_ H_ 0.369751 0.827244 0.0680992 0.10932
H_ H_ 0.168519 0.749138 0.0638174 0.10932
H_ H_ 0.365074 0.694467 0.0498514 0.10932
C_ C_ 0.0692005 0.849505 0.244516 -0.02249
C_ C_ 0.316888 0.849839 0.243966 -0.02249
C_ C_ 0.0175983 0.961158 0.237538 -0.02249
C_ C_ 0.262823 0.960732 0.248195 -0.02249
C_ C_ 0.0424604 0.90279 0.204149 -0.11473
C_ C_ 0.291079 0.906992 0.206969 -0.11473
C_ C_ 0.0604014 0.869271 0.28085 -0.11473
C_ C_ 0.310492 0.869021 0.28096 -0.11473
C_ C_ 0.0624344 0.869133 0.205565 -0.11473
C_ C_ 0.306501 0.868492 0.205855 -0.11473
C_ C_ 0.0335993 0.921673 0.2405 -0.02249
C_ C_ 0.282507 0.922412 0.246178 -0.02249
C_ C_ 0.0878554 0.810334 0.245366 0.6875
C_ C_ 0.33628 0.810797 0.24487 0.6875
C_ C_ 0.0412284 0.903515 0.28036 -0.11473
C_ C_ 0.29316 0.904913 0.281658 -0.11473
C_ C_ 0.188509 0.841365 0.248556 -0.02249
C_ C_ 0.437471 0.847188 0.254154 -0.02249
C_ C_ 0.231138 0.959087 0.25313 -0.02249
C_ C_ 0.484811 0.962641 0.254541 -0.02249
C_ C_ 0.214939 0.893983 0.287611 -0.11473
C_ C_ 0.454234 0.907518 0.291181 -0.11473
C_ C_ 0.186945 0.865854 0.213615 -0.11473
C_ C_ 0.451064 0.861636 0.216913 -0.11473
C_ C_ 0.206248 0.853119 0.284679 -0.11473
C_ C_ 0.440328 0.86975 0.291148 -0.11473
C_ C_ 0.215116 0.919162 0.251743 -0.02249
C_ C_ 0.467858 0.922911 0.254574 -0.02249
C_ C_ 0.171107 0.801228 0.250252 0.6875
C_ C_ 0.416837 0.808957 0.251147 0.6875
C_ C_ 0.199903 0.904927 0.215138 -0.11473
C_ C_ 0.465868 0.899149 0.218195 -0.11473
C_ C_ 0.184849 0.650299 0.251117 -0.02249
C_ C_ 0.430166 0.650324 0.250228 -0.02249
C_ C_ 0.237621 0.538831 0.251625 -0.02249
C_ C_ 0.478688 0.534038 0.252015 -0.02249
C_ C_ 0.204588 0.588784 0.287003 -0.11473
C_ C_ 0.447366 0.588632 0.288062 -0.11473
C_ C_ 0.201361 0.640125 0.214082 -0.11473
C_ C_ 0.439198 0.632112 0.212593 -0.11473
C_ C_ 0.188173 0.625755 0.287442 -0.11473
C_ C_ 0.42995 0.625605 0.286685 -0.11473
C_ C_ 0.220822 0.578099 0.250332 -0.02249
C_ C_ 0.4615 0.573782 0.25235 -0.02249
C_ C_ 0.1633 0.685143 0.25117 0.6875
C_ C_ 0.412279 0.68947 0.250427 0.6875
C_ C_ 0.217301 0.602825 0.213174 -0.11473
C_ C_ 0.456716 0.595701 0.213372 -0.11473
C_ C_ 0.0696772 0.647986 0.24904 -0.02249
C_ C_ 0.316258 0.654184 0.245448 -0.02249
C_ C_ 0.0165919 0.535656 0.242732 -0.02249
C_ C_ 0.268839 0.538558 0.255374 -0.02249
C_ C_ 0.0448101 0.593563 0.20776 -0.11473
C_ C_ 0.296797 0.591415 0.211467 -0.11473
C_ C_ 0.0571238 0.631046 0.284224 -0.11473
C_ C_ 0.302697 0.642641 0.281453 -0.11473
C_ C_ 0.0652195 0.627999 0.209811 -0.11473
C_ C_ 0.313058 0.62866 0.210139 -0.11473
C_ C_ 0.0351228 0.573876 0.244286 -0.02249
C_ C_ 0.284744 0.578284 0.250138 -0.02249
C_ C_ 0.0868255 0.689358 0.250546 0.6875
C_ C_ 0.333641 0.693339 0.244059 0.6875
C_ C_ 0.0416781 0.594661 0.282005 -0.11473
C_ C_ 0.285561 0.606365 0.284256 -0.11473
C_ C_ 0.131532 0.784954 0.375915 0.17695
C_ C_ 0.378612 0.711534 0.369765 0.17695
C_ C_ 0.125154 0.712666 0.375915 0.17695
C_ C_ 0.370464 0.785506 0.373016 0.17695
C_ C_ 0.121603 0.7115 0.420232 -0.11473
C_ C_ 0.37639 0.784442 0.416408 -0.11473
C_ C_ 0.126824 0.747682 0.44313 0.23465
C_ C_ 0.380668 0.745587 0.437412 0.23465
C_ C_ 0.127405 0.786626 0.419841 -0.11473
C_ C_ 0.383005 0.711093 0.412905 -0.11473
C_ C_ 0.149809 0.74437 0.124954 0.17695
C_ C_ 0.37121 0.718003 0.113549 0.17695
C_ C_ 0.0965978 0.742645 0.128541 0.17695
C_ C_ 0.375138 0.790163 0.121271 0.17695
C_ C_ 0.0942784 0.738463 0.0842866 -0.11473
C_ C_ 0.371747 0.795819 0.0783976 -0.11473
C_ C_ 0.121684 0.73703 0.0587875 0.23465
C_ C_ 0.370055 0.761022 0.0522191 0.23465
C_ C_ 0.147587 0.743129 0.0809929 -0.11473
C_ C_ 0.367565 0.721105 0.0700871 -0.11473
C_ C_ 0.033727 0.998205 0.236938 0.05793
C_ C_ 0.277404 0.99876296 0.248439 0.05793
C_ C_ 0.221337 0.50163 0.250818 0.05793
C_ C_ 0.463462 0.495742 0.249347 0.05793
Br Br 0.0765196 -0.0029649999999999954 0.244862 -0.17191
Br Br 0.31949 1.000806878 0.25871 -0.17191
Br Br 0.178927 0.500207 0.239352 -0.17191
Br Br 0.422174 0.495337 0.227922 -0.17191
N_ N_ 0.128986 0.74917 0.355485 -0.272
N_ N_ 0.371516 0.748547 0.350512 -0.272
N_ N_ 0.123348 0.746156 0.487432 -0.12501
N_ N_ 0.377664 0.740642 0.483051 -0.12501
N_ N_ 0.124828 0.741503 0.147475 -0.272
N_ N_ 0.374566 0.751837 0.138579 -0.272
N_ N_ 0.118315 0.745037 0.0140982 -0.12501
N_ N_ 0.372191 0.76617 0.00827565 -0.12501
O_ O_ 0.0949618 0.792711 0.210697 -0.60745
O_ O_ 0.346236 0.797465 0.210925 -0.60745
O_ O_ 0.0981715 0.795014 0.279323 -0.60745
O_ O_ 0.343397 0.793308 0.279068 -0.60745
O_ O_ 0.16042 0.789765 0.285214 -0.60745
O_ O_ 0.408136 0.791315 0.282532 -0.60745
O_ O_ 0.160226 0.787256 0.215923 -0.60745
O_ O_ 0.405168 0.799397 0.216779 -0.60745
O_ O_ 0.156194 0.701664 0.286225 -0.60745
O_ O_ 0.404958 0.704806 0.285615 -0.60745
O_ O_ 0.158856 0.704083 0.217429 -0.60745
O_ O_ 0.405169 0.705317 0.214699 -0.60745
O_ O_ 0.0947375 0.703272 0.214969 -0.60745
O_ O_ 0.344745 0.705422 0.208451 -0.60745
O_ O_ 0.0982067 0.702921 0.283695 -0.60745
O_ O_ 0.342804 0.709481 0.276711 -0.60745
Zn Zn 0.127319 0.752505 0.784542 0.9476
Zn Zn 0.369926 0.749278 0.78166 0.9476
Zn Zn 0.130367 0.754487 0.716212 0.9476
Zn Zn 0.372537 0.749918 0.712616 0.9476
H_ H_ 0.0353744 0.919822 0.693482 0.10932
H_ H_ 0.287604 0.923023 0.682853 0.10932
H_ H_ 0.0711873 0.859342 0.829389 0.10932
H_ H_ 0.323289 0.859864 0.813056 0.10932
H_ H_ 0.0650076 0.852825 0.69226 0.10932
H_ H_ 0.307577 0.853552 0.68233 0.10932
H_ H_ 0.0376651 0.919676 0.827643 0.10932
H_ H_ 0.290904 0.924589 0.817808 0.10932
H_ H_ 0.210634 0.930878 0.812784 0.10932
H_ H_ 0.469696 0.907495 0.821954 0.10932
H_ H_ 0.20319 0.843368 0.683769 0.10932
H_ H_ 0.424069 0.863489 0.689444 0.10932
H_ H_ 0.180986 0.864999 0.813058 0.10932
H_ H_ 0.442721 0.842644 0.818174 0.10932
H_ H_ 0.224592 0.914603 0.680759 0.10932
H_ H_ 0.454292 0.927953 0.690664 0.10932
H_ H_ 0.217879 0.582494 0.808584 0.10932
H_ H_ 0.464786 0.585526 0.81538 0.10932
H_ H_ 0.179374 0.642196 0.675849 0.10932
H_ H_ 0.431007 0.645402 0.680933 0.10932
H_ H_ 0.187458 0.647217 0.808922 0.10932
H_ H_ 0.438743 0.650159 0.816232 0.10932
H_ H_ 0.211889 0.581079 0.675781 0.10932
H_ H_ 0.463705 0.583062 0.681397 0.10932
H_ H_ 0.0460268 0.574075 0.680654 0.10932
H_ H_ 0.278601 0.581185 0.680161 0.10932
H_ H_ 0.063047 0.652591 0.810329 0.10932
H_ H_ 0.312828 0.64858 0.814217 0.10932
H_ H_ 0.0745673 0.645168 0.677292 0.10932
H_ H_ 0.311096 0.645262 0.676681 0.10932
H_ H_ 0.0327139 0.586866 0.806752 0.10932
H_ H_ 0.284798 0.582544 0.81418 0.10932
H_ H_ 0.122873 0.809691 0.863484 0.10932
H_ H_ 0.360196 0.80531 0.855691 0.10932
H_ H_ 0.140406 0.681228 0.85044 0.10932
H_ H_ 0.377379 0.677211 0.855885 0.10932
H_ H_ 0.141027 0.673671 0.927233 0.10932
H_ H_ 0.369046 0.67392 0.930259 0.10932
H_ H_ 0.121534 0.801211 0.944031 0.10932
H_ H_ 0.359351 0.804691 0.933463 0.10932
H_ H_ 0.128912 0.695476 0.637367 0.10932
H_ H_ 0.322574 0.758346 0.638448 0.10932
H_ H_ 0.129533 0.825886 0.645087 0.10932
H_ H_ 0.419385 0.754149 0.63933 0.10932
H_ H_ 0.13293 0.83499 0.569178 0.10932
H_ H_ 0.417261 0.746005 0.561534 0.10932
H_ H_ 0.140279 0.701839 0.559024 0.10932
H_ H_ 0.322323 0.758106 0.560695 0.10932
C_ C_ 0.0714682 0.851882 0.76057 -0.02249
C_ C_ 0.316298 0.851473 0.7485 -0.02249
C_ C_ 0.0177462 0.963213 0.757535 -0.02249
C_ C_ 0.268731 0.96824 0.746749 -0.02249
C_ C_ 0.0451224 0.905651 0.72278 -0.11473
C_ C_ 0.296086 0.910255 0.71112 -0.11473
C_ C_ 0.0640122 0.871601 0.798482 -0.11473
C_ C_ 0.312082 0.872274 0.786505 -0.11473
C_ C_ 0.0594466 0.867909 0.722896 -0.11473
C_ C_ 0.307937 0.870113 0.711442 -0.11473
C_ C_ 0.0374985 0.925271 0.759557 -0.02249
C_ C_ 0.285402 0.92734 0.74791 -0.02249
C_ C_ 0.0909394 0.814359 0.758213 0.6875
C_ C_ 0.331213 0.8087 0.750263 0.6875
C_ C_ 0.044367 0.904793 0.798357 -0.11473
C_ C_ 0.295304 0.908962 0.786584 -0.11473
C_ C_ 0.191654 0.849581 0.748559 -0.02249
C_ C_ 0.433045 0.846476 0.752355 -0.02249
C_ C_ 0.236762 0.967969 0.744165 -0.02249
C_ C_ 0.481165 0.960898 0.760148 -0.02249
C_ C_ 0.206776 0.914029 0.783812 -0.11473
C_ C_ 0.460223 0.897962 0.791663 -0.11473
C_ C_ 0.205148 0.863113 0.711115 -0.11473
C_ C_ 0.436222 0.872414 0.717048 -0.11473
C_ C_ 0.191961 0.875435 0.783875 -0.11473
C_ C_ 0.446699 0.859303 0.789882 -0.11473
C_ C_ 0.219329 0.928454 0.746651 -0.02249
C_ C_ 0.465429 0.920731 0.756256 -0.02249
C_ C_ 0.173319 0.809333 0.748868 0.6875
C_ C_ 0.412392 0.810264 0.750691 0.6875
C_ C_ 0.218307 0.903091 0.709927 -0.11473
C_ C_ 0.454036 0.907537 0.71752 -0.11473
C_ C_ 0.18197 0.651383 0.742116 -0.02249
C_ C_ 0.429771 0.650802 0.747816 -0.02249
C_ C_ 0.233821 0.538757 0.740443 -0.02249
C_ C_ 0.483157 0.539617 0.751925 -0.02249
C_ C_ 0.210602 0.59472 0.77946 -0.11473
C_ C_ 0.460678 0.600697 0.785681 -0.11473
C_ C_ 0.189727 0.63245 0.703634 -0.11473
C_ C_ 0.440862 0.634767 0.710359 -0.11473
C_ C_ 0.194263 0.63255 0.779639 -0.11473
C_ C_ 0.442777 0.636164 0.785411 -0.11473
C_ C_ 0.217756 0.577193 0.742439 -0.02249
C_ C_ 0.466271 0.580223 0.748188 -0.02249
C_ C_ 0.164357 0.690777 0.74494 0.6875
C_ C_ 0.409501 0.68722 0.74739 0.6875
C_ C_ 0.207853 0.596283 0.704767 -0.11473
C_ C_ 0.455106 0.595898 0.711673 -0.11473
C_ C_ 0.0706441 0.653296 0.744411 -0.02249
C_ C_ 0.311144 0.652824 0.744429 -0.02249
C_ C_ 0.0176791 0.540021 0.744136 -0.02249
C_ C_ 0.264889 0.536806 0.74402 -0.02249
C_ C_ 0.0507237 0.593109 0.706922 -0.11473
C_ C_ 0.283844 0.598002 0.707623 -0.11473
C_ C_ 0.0608782 0.635349 0.782124 -0.11473
C_ C_ 0.304638 0.634062 0.783252 -0.11473
C_ C_ 0.0684055 0.630494 0.706553 -0.11473
C_ C_ 0.302048 0.634308 0.706651 -0.11473
C_ C_ 0.0368546 0.579476 0.743776 -0.02249
C_ C_ 0.279588 0.578061 0.745312 -0.02249
C_ C_ 0.0878118 0.694266 0.746319 0.6875
C_ C_ 0.330779 0.690661 0.74436 0.6875
C_ C_ 0.0427999 0.599792 0.780567 -0.11473
C_ C_ 0.289959 0.596468 0.783789 -0.11473
C_ C_ 0.12661 0.780496 0.879529 0.17695
C_ C_ 0.365572 0.777231 0.872882 0.17695
C_ C_ 0.136029 0.707635 0.869812 0.17695
C_ C_ 0.377493 0.705116 0.872153 0.17695
C_ C_ 0.138169 0.702778 0.914647 -0.11473
C_ C_ 0.370207 0.704143 0.915022 -0.11473
C_ C_ 0.131959 0.736469 0.942279 0.23465
C_ C_ 0.367654 0.739233 0.93881 0.23465
C_ C_ 0.128286 0.775312 0.923769 -0.11473
C_ C_ 0.365804 0.777265 0.915258 -0.11473
C_ C_ 0.130759 0.723946 0.620741 0.17695
C_ C_ 0.344624 0.756941 0.62091 0.17695
C_ C_ 0.129915 0.79839 0.62631 0.17695
C_ C_ 0.398093 0.756407 0.621598 0.17695
C_ C_ 0.131838 0.803547 0.582193 -0.11473
C_ C_ 0.396923 0.753719 0.576655 -0.11473
C_ C_ 0.131864 0.767034 0.5566 0.23465
C_ C_ 0.370137 0.762569 0.554148 0.23465
C_ C_ 0.133694 0.727997 0.577687 -0.11473
C_ C_ 0.343099 0.760055 0.576478 -0.11473
C_ C_ 0.0321106 0.00288756 0.759222 0.05793
C_ C_ 0.284694 0.00562765 0.754065 0.05793
C_ C_ 0.216764 0.500928 0.737956 0.05793
C_ C_ 0.467924 0.501433 0.751065 0.05793
Br Br 0.0760314 0.00622263 0.763758 -0.17191
Br Br 0.328602 0.00590562 0.754775 -0.17191
Br Br 0.17282 0.501589 0.74084 -0.17191
Br Br 0.426855 0.501295 0.770471 -0.17191
N_ N_ 0.129302 0.74708 0.85363 -0.272
N_ N_ 0.374481 0.742327 0.851889 -0.272
N_ N_ 0.136244 0.731314 0.987115 -0.12501
N_ N_ 0.364128 0.738225 0.983939 -0.12501
N_ N_ 0.127835 0.759953 0.643772 -0.272
N_ N_ 0.371674 0.761622 0.642709 -0.272
N_ N_ 0.135806 0.770943 0.512791 -0.12501
N_ N_ 0.37067 0.768767 0.508847 -0.12501
O_ O_ 0.0991069 0.799671 0.722424 -0.60745
O_ O_ 0.33916 0.791116 0.715295 -0.60745
O_ O_ 0.0982346 0.795868 0.791672 -0.60745
O_ O_ 0.340296 0.793937 0.784696 -0.60745
O_ O_ 0.16074 0.797285 0.782788 -0.60745
O_ O_ 0.401822 0.796327 0.784213 -0.60745
O_ O_ 0.162599 0.795771 0.713278 -0.60745
O_ O_ 0.404238 0.796181 0.715844 -0.60745
O_ O_ 0.157344 0.70713 0.778788 -0.60745
O_ O_ 0.400202 0.70212 0.78202 -0.60745
O_ O_ 0.156776 0.708533 0.710672 -0.60745
O_ O_ 0.40543 0.707807 0.713843 -0.60745
O_ O_ 0.0982554 0.710179 0.712498 -0.60745
O_ O_ 0.341574 0.705151 0.709723 -0.60745
O_ O_ 0.0963595 0.707077 0.781998 -0.60745
O_ O_ 0.343417 0.703458 0.779016 -0.60745
Zn Zn 0.62604 0.249508 0.285107 0.9476
Zn Zn 0.872892 0.24991 0.281342 0.9476
Zn Zn 0.627226 0.250888 0.215122 0.9476
Zn Zn 0.875229 0.249208 0.209466 0.9476
H_ H_ 0.540603 0.421313 0.18686 0.10932
H_ H_ 0.793893 0.427035 0.18017 0.10932
H_ H_ 0.557757 0.345968 0.320033 0.10932
H_ H_ 0.800617 0.343576 0.3115 0.10932
H_ H_ 0.573017 0.360029 0.188105 0.10932
H_ H_ 0.825079 0.360806 0.182312 0.10932
H_ H_ 0.523678 0.401569 0.318645 0.10932
H_ H_ 0.775695 0.411229 0.311469 0.10932
H_ H_ 0.719087 0.419131 0.314487 0.10932
H_ H_ 0.957856 0.422035 0.305653 0.10932
H_ H_ 0.683357 0.356915 0.180253 0.10932
H_ H_ 0.943942 0.343141 0.175708 0.10932
H_ H_ 0.685995 0.355421 0.315427 0.10932
H_ H_ 0.924067 0.365386 0.301757 0.10932
H_ H_ 0.718072 0.413294 0.180498 0.10932
H_ H_ 0.974228 0.407216 0.17408 0.10932
H_ H_ 0.71875 0.0849643 0.318198 0.10932
H_ H_ 0.958282 0.0692595 0.304541 0.10932
H_ H_ 0.692748 0.152064 0.180581 0.10932
H_ H_ 0.948295 0.160363 0.178571 0.10932
H_ H_ 0.69238 0.151712 0.317915 0.10932
H_ H_ 0.921076 0.128557 0.302448 0.10932
H_ H_ 0.716016 0.0812439 0.182554 0.10932
H_ H_ 0.977366 0.0956241 0.175929 0.10932
H_ H_ 0.537011 0.0776229 0.191046 0.10932
H_ H_ 0.786425 0.0788329 0.180631 0.10932
H_ H_ 0.559374 0.156932 0.32185 0.10932
H_ H_ 0.807189 0.151654 0.311279 0.10932
H_ H_ 0.566315 0.144015 0.187921 0.10932
H_ H_ 0.813957 0.141229 0.179615 0.10932
H_ H_ 0.537865 0.088141 0.32802 0.10932
H_ H_ 0.778816 0.0872724 0.313141 0.10932
H_ H_ 0.623281 0.190705 0.361308 0.10932
H_ H_ 0.874466 0.180376 0.349194 0.10932
H_ H_ 0.624283 0.318047 0.358187 0.10932
H_ H_ 0.864876 0.311751 0.360753 0.10932
H_ H_ 0.622261 0.324996 0.434509 0.10932
H_ H_ 0.869552 0.304921 0.435838 0.10932
H_ H_ 0.633094 0.192114 0.4357 0.10932
H_ H_ 0.882125 0.173848 0.426081 0.10932
H_ H_ 0.621299 0.179493 0.147659 0.10932
H_ H_ 0.860251 0.312396 0.137643 0.10932
H_ H_ 0.637442 0.307678 0.133003 0.10932
H_ H_ 0.875753 0.18444 0.134403 0.10932
H_ H_ 0.635619 0.299861 0.0570777 0.10932
H_ H_ 0.883087 0.187538 0.0579185 0.10932
H_ H_ 0.622085 0.167974 0.0685741 0.10932
H_ H_ 0.858907 0.317684 0.0614983 0.10932
C_ C_ 0.566656 0.346454 0.253803 -0.02249
C_ C_ 0.811625 0.344098 0.243964 -0.02249
C_ C_ 0.512402 0.459985 0.252045 -0.02249
C_ C_ 0.767929 0.464733 0.246559 -0.02249
C_ C_ 0.543345 0.402719 0.21675 -0.11473
C_ C_ 0.79588 0.406908 0.206455 -0.11473
C_ C_ 0.553631 0.36177 0.290965 -0.11473
C_ C_ 0.798623 0.360672 0.280274 -0.11473
C_ C_ 0.558803 0.365951 0.215658 -0.11473
C_ C_ 0.811971 0.368987 0.20807 -0.11473
C_ C_ 0.530236 0.420406 0.253218 -0.02249
C_ C_ 0.782654 0.423278 0.243221 -0.02249
C_ C_ 0.587522 0.310756 0.255016 0.6875
C_ C_ 0.833439 0.309054 0.245693 0.6875
C_ C_ 0.537224 0.398175 0.290648 -0.11473
C_ C_ 0.784375 0.399365 0.280796 -0.11473
C_ C_ 0.685605 0.348731 0.248645 -0.02249
C_ C_ 0.928187 0.351865 0.237964 -0.02249
C_ C_ 0.735415 0.465188 0.244988 -0.02249
C_ C_ 0.983374 0.462102 0.239829 -0.02249
C_ C_ 0.711073 0.406785 0.284567 -0.11473
C_ C_ 0.952773 0.407804 0.275545 -0.11473
C_ C_ 0.691009 0.370253 0.210408 -0.11473
C_ C_ 0.943995 0.362646 0.20191 -0.11473
C_ C_ 0.694148 0.369561 0.285474 -0.11473
C_ C_ 0.933603 0.374724 0.274355 -0.11473
C_ C_ 0.717457 0.425298 0.24511 -0.02249
C_ C_ 0.965878 0.42283 0.238583 -0.02249
C_ C_ 0.66425 0.31193 0.24919 0.6875
C_ C_ 0.909971 0.312785 0.2396 0.6875
C_ C_ 0.706837 0.40598 0.209461 -0.11473
C_ C_ 0.961723 0.399516 0.20137 -0.11473
C_ C_ 0.687034 0.153954 0.24856 -0.02249
C_ C_ 0.934758 0.152318 0.243667 -0.02249
C_ C_ 0.733642 0.037264 0.251281 -0.02249
C_ C_ 0.986025 0.0366108 0.237721 -0.02249
C_ C_ 0.712643 0.0993081 0.287403 -0.11473
C_ C_ 0.956415 0.091497 0.277862 -0.11473
C_ C_ 0.693304 0.133922 0.209954 -0.11473
C_ C_ 0.94995 0.141887 0.207012 -0.11473
C_ C_ 0.698346 0.138213 0.287858 -0.11473
C_ C_ 0.93395 0.12212 0.275677 -0.11473
C_ C_ 0.716828 0.0773255 0.249623 -0.02249
C_ C_ 0.970312 0.0786291 0.240875 -0.02249
C_ C_ 0.665121 0.190172 0.247885 0.6875
C_ C_ 0.91491 0.189679 0.243036 0.6875
C_ C_ 0.70709 0.0947476 0.21193 -0.11473
C_ C_ 0.966217 0.104264 0.205159 -0.11473
C_ C_ 0.56676 0.153882 0.256122 -0.02249
C_ C_ 0.817656 0.147721 0.245461 -0.02249
C_ C_ 0.515963 0.0395111 0.26157 -0.02249
C_ C_ 0.765238 0.0367127 0.24749 -0.02249
C_ C_ 0.542352 0.0944039 0.219721 -0.11473
C_ C_ 0.795263 0.0889823 0.210899 -0.11473
C_ C_ 0.558165 0.137863 0.294129 -0.11473
C_ C_ 0.805799 0.133582 0.28339 -0.11473
C_ C_ 0.559108 0.131068 0.217926 -0.11473
C_ C_ 0.809293 0.126124 0.208488 -0.11473
C_ C_ 0.533163 0.0796887 0.258674 -0.02249
C_ C_ 0.784878 0.0738701 0.247767 -0.02249
C_ C_ 0.58685 0.192463 0.254271 0.6875
C_ C_ 0.83428 0.186332 0.244208 0.6875
C_ C_ 0.542536 0.100131 0.296344 -0.11473
C_ C_ 0.78895 0.0965198 0.285357 -0.11473
C_ C_ 0.621603 0.219012 0.376765 0.17695
C_ C_ 0.877094 0.208004 0.368055 0.17695
C_ C_ 0.623983 0.29125 0.376271 0.17695
C_ C_ 0.874804 0.282685 0.374908 0.17695
C_ C_ 0.624293 0.293893 0.419174 -0.11473
C_ C_ 0.875798 0.279393 0.417814 -0.11473
C_ C_ 0.627063 0.255606 0.442003 0.23465
C_ C_ 0.877971 0.240493 0.437199 0.23465
C_ C_ 0.624675 0.218426 0.420805 -0.11473
C_ C_ 0.880513 0.205588 0.41231 -0.11473
C_ C_ 0.623279 0.204941 0.125984 0.17695
C_ C_ 0.866878 0.285344 0.121339 0.17695
C_ C_ 0.630237 0.277334 0.117833 0.17695
C_ C_ 0.873912 0.21266 0.117362 0.17695
C_ C_ 0.630629 0.273161 0.0752367 -0.11473
C_ C_ 0.874278 0.214342 0.0743251 -0.11473
C_ C_ 0.628748 0.234631 0.0562704 0.23465
C_ C_ 0.869767 0.252727 0.0531666 0.23465
C_ C_ 0.625937 0.198914 0.081736 -0.11473
C_ C_ 0.866645 0.288541 0.0769476 -0.11473
C_ C_ 0.526977 0.498431 0.253875 0.05793
C_ C_ 0.783673 0.503105 0.251911 0.05793
C_ C_ 0.7184 1.00019 0.258562 0.05793
C_ C_ 0.96932 0.99831594 0.240487 0.05793
Br Br 0.568614 0.501199 0.257963 -0.17191
Br Br 0.827785 0.50201 0.24647 -0.17191
Br Br 0.675395 0.00247627 0.262216 -0.17191
Br Br 0.927143 -0.00461900000000004 0.240883 -0.17191
N_ N_ 0.623599 0.254514 0.355264 -0.272
N_ N_ 0.875717 0.246428 0.351317 -0.272
N_ N_ 0.629602 0.257537 0.487868 -0.12501
N_ N_ 0.880155 0.23522 0.482038 -0.12501
N_ N_ 0.624458 0.243928 0.142158 -0.272
N_ N_ 0.871909 0.24882 0.139977 -0.272
N_ N_ 0.630656 0.230334 0.0119816 -0.12501
N_ N_ 0.862941 0.252403 0.00895897 -0.12501
O_ O_ 0.593994 0.292875 0.21971 -0.60745
O_ O_ 0.84113 0.290267 0.211157 -0.60745
O_ O_ 0.599837 0.298849 0.287617 -0.60745
O_ O_ 0.841468 0.29198 0.282118 -0.60745
O_ O_ 0.659419 0.293185 0.283298 -0.60745
O_ O_ 0.903211 0.295852 0.274654 -0.60745
O_ O_ 0.656361 0.295837 0.212724 -0.60745
O_ O_ 0.899885 0.298611 0.204598 -0.60745
O_ O_ 0.653429 0.199818 0.281863 -0.60745
O_ O_ 0.90471 0.204239 0.276888 -0.60745
O_ O_ 0.660206 0.208551 0.214615 -0.60745
O_ O_ 0.908877 0.209184 0.209012 -0.60745
O_ O_ 0.597734 0.203277 0.220663 -0.60745
O_ O_ 0.845677 0.200228 0.210536 -0.60745
O_ O_ 0.590722 0.213856 0.28744 -0.60745
O_ O_ 0.842239 0.204937 0.278477 -0.60745
Zn Zn 0.62825 0.246835 0.785355 0.9476
Zn Zn 0.873166 0.250777 0.782025 0.9476
Zn Zn 0.624837 0.247474 0.713682 0.9476
Zn Zn 0.874142 0.252297 0.711561 0.9476
H_ H_ 0.543567 0.427117 0.681395 0.10932
H_ H_ 0.77434 0.413069 0.68156 0.10932
H_ H_ 0.556955 0.345717 0.813651 0.10932
H_ H_ 0.816368 0.350952 0.810508 0.10932
H_ H_ 0.569703 0.363068 0.681242 0.10932
H_ H_ 0.808052 0.353624 0.677163 0.10932
H_ H_ 0.52924 0.41227 0.814115 0.10932
H_ H_ 0.795841 0.426231 0.812039 0.10932
H_ H_ 0.731009 0.405898 0.813854 0.10932
H_ H_ 0.949851 0.427732 0.815376 0.10932
H_ H_ 0.670871 0.361086 0.693729 0.10932
H_ H_ 0.955535 0.339327 0.689636 0.10932
H_ H_ 0.706884 0.337998 0.814727 0.10932
H_ H_ 0.921674 0.366429 0.81074 0.10932
H_ H_ 0.698867 0.427358 0.689959 0.10932
H_ H_ 0.979297 0.406113 0.688959 0.10932
H_ H_ 0.726764 0.0841738 0.808377 0.10932
H_ H_ 0.968239 0.0832605 0.813781 0.10932
H_ H_ 0.683131 0.145556 0.678668 0.10932
H_ H_ 0.916707 0.128005 0.681737 0.10932
H_ H_ 0.69165 0.142247 0.81196 0.10932
H_ H_ 0.937958 0.148108 0.812739 0.10932
H_ H_ 0.705176 0.0799752 0.673936 0.10932
H_ H_ 0.952237 0.0665498 0.682187 0.10932
H_ H_ 0.519095 0.0917117 0.688543 0.10932
H_ H_ 0.788821 0.0831514 0.677213 0.10932
H_ H_ 0.574361 0.13757 0.816446 0.10932
H_ H_ 0.803578 0.151916 0.818079 0.10932
H_ H_ 0.556532 0.150563 0.682955 0.10932
H_ H_ 0.816359 0.150203 0.684264 0.10932
H_ H_ 0.542576 0.0726508 0.814411 0.10932
H_ H_ 0.781624 0.0814168 0.812526 0.10932
H_ H_ 0.626667 0.31527 0.857517 0.10932
H_ H_ 0.918554 0.233288 0.850704 0.10932
H_ H_ 0.623658 0.185074 0.859833 0.10932
H_ H_ 0.824491 0.256941 0.862525 0.10932
H_ H_ 0.62054 0.188651 0.939265 0.10932
H_ H_ 0.834486 0.270034 0.939926 0.10932
H_ H_ 0.631613 0.320142 0.931568 0.10932
H_ H_ 0.924041 0.231431 0.927524 0.10932
H_ H_ 0.620914 0.183643 0.647973 0.10932
H_ H_ 0.882373 0.310574 0.645652 0.10932
H_ H_ 0.634424 0.310411 0.632291 0.10932
H_ H_ 0.856476 0.188192 0.633987 0.10932
H_ H_ 0.630568 0.304679 0.556768 0.10932
H_ H_ 0.860086 0.191361 0.556459 0.10932
H_ H_ 0.624503 0.172861 0.569913 0.10932
H_ H_ 0.891828 0.316736 0.569244 0.10932
C_ C_ 0.568505 0.351306 0.748088 -0.02249
C_ C_ 0.814338 0.347874 0.742901 -0.02249
C_ C_ 0.514502 0.463175 0.750806 -0.02249
C_ C_ 0.76828 0.465341 0.746954 -0.02249
C_ C_ 0.544047 0.40873 0.710591 -0.11473
C_ C_ 0.78856 0.405012 0.707933 -0.11473
C_ C_ 0.554032 0.364037 0.78521 -0.11473
C_ C_ 0.810455 0.368723 0.781476 -0.11473
C_ C_ 0.561973 0.372696 0.711317 -0.11473
C_ C_ 0.806139 0.370047 0.705637 -0.11473
C_ C_ 0.530571 0.423346 0.747437 -0.02249
C_ C_ 0.784973 0.426881 0.745435 -0.02249
C_ C_ 0.588719 0.313418 0.748369 0.6875
C_ C_ 0.832971 0.310353 0.743567 0.6875
C_ C_ 0.537363 0.401199 0.784044 -0.11473
C_ C_ 0.796103 0.40891 0.782484 -0.11473
C_ C_ 0.688118 0.344251 0.751525 -0.02249
C_ C_ 0.932781 0.348959 0.747541 -0.02249
C_ C_ 0.736287 0.463964 0.750093 -0.02249
C_ C_ 0.983679 0.466019 0.752973 -0.02249
C_ C_ 0.720406 0.396369 0.786332 -0.11473
C_ C_ 0.951903 0.409678 0.786941 -0.11473
C_ C_ 0.688191 0.367077 0.714983 -0.11473
C_ C_ 0.953727 0.35944 0.716084 -0.11473
C_ C_ 0.706807 0.357236 0.785473 -0.11473
C_ C_ 0.932831 0.374548 0.783878 -0.11473
C_ C_ 0.720503 0.420198 0.749364 -0.02249
C_ C_ 0.966068 0.42663 0.750783 -0.02249
C_ C_ 0.66923 0.30367 0.751705 0.6875
C_ C_ 0.916008 0.307592 0.745197 0.6875
C_ C_ 0.703364 0.407435 0.715317 -0.11473
C_ C_ 0.967062 0.398663 0.715604 -0.11473
C_ C_ 0.682324 0.145775 0.746261 -0.02249
C_ C_ 0.928401 0.147197 0.745225 -0.02249
C_ C_ 0.736303 0.0371821 0.736929 -0.02249
C_ C_ 0.98211 0.0361578 0.754429 -0.02249
C_ C_ 0.714482 0.0936764 0.778839 -0.11473
C_ C_ 0.956453 0.0947495 0.785029 -0.11473
C_ C_ 0.688529 0.12961 0.708202 -0.11473
C_ C_ 0.93013 0.120734 0.709961 -0.11473
C_ C_ 0.69524 0.128606 0.7821 -0.11473
C_ C_ 0.940641 0.131902 0.783854 -0.11473
C_ C_ 0.718437 0.0747898 0.740463 -0.02249
C_ C_ 0.962782 0.0720707 0.749231 -0.02249
C_ C_ 0.662704 0.182836 0.749438 0.6875
C_ C_ 0.910799 0.188006 0.746143 0.6875
C_ C_ 0.702012 0.0925299 0.705077 -0.11473
C_ C_ 0.946819 0.0833707 0.711989 -0.11473
C_ C_ 0.565751 0.150647 0.749309 -0.02249
C_ C_ 0.816988 0.153049 0.750986 -0.02249
C_ C_ 0.513543 0.0365787 0.752305 -0.02249
C_ C_ 0.767469 0.0380893 0.745386 -0.02249
C_ C_ 0.531355 0.102563 0.714657 -0.11473
C_ C_ 0.792606 0.0982994 0.708829 -0.11473
C_ C_ 0.560675 0.12888 0.787413 -0.11473
C_ C_ 0.804046 0.13506 0.787753 -0.11473
C_ C_ 0.550244 0.13808 0.713321 -0.11473
C_ C_ 0.812158 0.133383 0.712273 -0.11473
C_ C_ 0.531208 0.0768318 0.750359 -0.02249
C_ C_ 0.783682 0.0790328 0.746194 -0.02249
C_ C_ 0.584986 0.190112 0.747918 0.6875
C_ C_ 0.832873 0.194101 0.753573 0.6875
C_ C_ 0.547668 0.0891109 0.786007 -0.11473
C_ C_ 0.790074 0.0969364 0.784916 -0.11473
C_ C_ 0.626 0.287213 0.874852 0.17695
C_ C_ 0.897564 0.235753 0.869163 0.17695
C_ C_ 0.626035 0.214325 0.877379 0.17695
C_ C_ 0.847623 0.25915 0.876272 0.17695
C_ C_ 0.625826 0.215231 0.920517 -0.11473
C_ C_ 0.851241 0.257632 0.920416 -0.11473
C_ C_ 0.626136 0.254278 0.942372 0.23465
C_ C_ 0.87827 0.244383 0.938698 0.23465
C_ C_ 0.630836 0.289556 0.918197 -0.11473
C_ C_ 0.901479 0.235029 0.913978 -0.11473
C_ C_ 0.624593 0.209783 0.629006 0.17695
C_ C_ 0.881028 0.284339 0.626336 0.17695
C_ C_ 0.628944 0.282656 0.618042 0.17695
C_ C_ 0.861418 0.217688 0.617467 0.17695
C_ C_ 0.627118 0.278624 0.575494 -0.11473
C_ C_ 0.864336 0.219208 0.573818 -0.11473
C_ C_ 0.628037 0.235991 0.556875 0.23465
C_ C_ 0.874818 0.255957 0.55466 0.23465
C_ C_ 0.627868 0.202096 0.585311 -0.11473
C_ C_ 0.883074 0.288963 0.581187 -0.11473
C_ C_ 0.531037 0.500208 0.751377 0.05793
C_ C_ 0.783331 0.504441 0.740597 0.05793
C_ C_ 0.720673 0.00011999999999989797 0.733345 0.05793
C_ C_ 0.970001 -0.004005999999999954 0.755981 0.05793
Br Br 0.574064 0.501468 0.759425 -0.17191
Br Br 0.826223 0.507016 0.74331 -0.17191
Br Br 0.677362 -0.0045439999999999925 0.715021 -0.17191
Br Br 0.926304 -0.008844999999999992 0.765076 -0.17191
N_ N_ 0.626462 0.24922 0.854706 -0.272
N_ N_ 0.871745 0.250908 0.851669 -0.272
N_ N_ 0.622314 0.257171 0.986837 -0.12501
N_ N_ 0.881103 0.23741 0.983561 -0.12501
N_ N_ 0.625661 0.249226 0.643718 -0.272
N_ N_ 0.871643 0.249068 0.641998 -0.272
N_ N_ 0.627192 0.2285 0.511863 -0.12501
N_ N_ 0.873958 0.263512 0.508547 -0.12501
O_ O_ 0.594722 0.296084 0.712578 -0.60745
O_ O_ 0.843772 0.298047 0.708516 -0.60745
O_ O_ 0.599799 0.300606 0.782615 -0.60745
O_ O_ 0.843235 0.294982 0.779257 -0.60745
O_ O_ 0.659182 0.289326 0.785412 -0.60745
O_ O_ 0.906036 0.291078 0.77815 -0.60745
O_ O_ 0.656695 0.290004 0.717445 -0.60745
O_ O_ 0.907709 0.292196 0.711319 -0.60745
O_ O_ 0.656251 0.199102 0.786172 -0.60745
O_ O_ 0.905729 0.206315 0.781065 -0.60745
O_ O_ 0.656983 0.203901 0.715846 -0.60745
O_ O_ 0.902704 0.204802 0.712743 -0.60745
O_ O_ 0.593955 0.201107 0.712614 -0.60745
O_ O_ 0.840581 0.212391 0.720291 -0.60745
O_ O_ 0.59191 0.209793 0.781123 -0.60745
O_ O_ 0.843226 0.207821 0.786969 -0.60745
Zn Zn 0.621753 0.748729 0.281017 0.9476
Zn Zn 0.877852 0.747974 0.284039 0.9476
Zn Zn 0.623501 0.749302 0.211028 0.9476
Zn Zn 0.872359 0.753024 0.212951 0.9476
H_ H_ 0.546797 0.932252 0.193467 0.10932
H_ H_ 0.775244 0.911752 0.188317 0.10932
H_ H_ 0.551626 0.837619 0.31459 0.10932
H_ H_ 0.820839 0.856576 0.317598 0.10932
H_ H_ 0.569924 0.862912 0.184376 0.10932
H_ H_ 0.807932 0.850556 0.183856 0.10932
H_ H_ 0.523295 0.902688 0.319119 0.10932
H_ H_ 0.787557 0.918981 0.318557 0.10932
H_ H_ 0.707251 0.919692 0.321793 0.10932
H_ H_ 0.958287 0.925313 0.303697 0.10932
H_ H_ 0.694356 0.849663 0.183677 0.10932
H_ H_ 0.940125 0.846965 0.17386 0.10932
H_ H_ 0.668467 0.863061 0.313186 0.10932
H_ H_ 0.933354 0.858197 0.306483 0.10932
H_ H_ 0.717784 0.918282 0.185743 0.10932
H_ H_ 0.967634 0.91065 0.172636 0.10932
H_ H_ 0.722748 0.592515 0.31754 0.10932
H_ H_ 0.958614 0.570117 0.303152 0.10932
H_ H_ 0.67679 0.635845 0.184564 0.10932
H_ H_ 0.941029 0.658282 0.179035 0.10932
H_ H_ 0.695613 0.659536 0.312382 0.10932
H_ H_ 0.938309 0.641662 0.31229 0.10932
H_ H_ 0.709575 0.57301 0.185849 0.10932
H_ H_ 0.96763 0.591757 0.169436 0.10932
H_ H_ 0.536099 0.573803 0.182914 0.10932
H_ H_ 0.780792 0.589023 0.181861 0.10932
H_ H_ 0.5578 0.64714 0.317843 0.10932
H_ H_ 0.816929 0.646456 0.317603 0.10932
H_ H_ 0.571681 0.633463 0.183305 0.10932
H_ H_ 0.812462 0.650403 0.181472 0.10932
H_ H_ 0.521854 0.586439 0.314519 0.10932
H_ H_ 0.794442 0.580706 0.318039 0.10932
H_ H_ 0.620638 0.682243 0.350025 0.10932
H_ H_ 0.834212 0.771185 0.355033 0.10932
H_ H_ 0.633371 0.811287 0.356656 0.10932
H_ H_ 0.92109 0.720564 0.363226 0.10932
H_ H_ 0.628431 0.806473 0.437218 0.10932
H_ H_ 0.921737 0.722484 0.440534 0.10932
H_ H_ 0.633018 0.673433 0.425947 0.10932
H_ H_ 0.833644 0.77953 0.434157 0.10932
H_ H_ 0.573839 0.755393 0.134485 0.10932
H_ H_ 0.870853 0.683406 0.138132 0.10932
H_ H_ 0.666323 0.735919 0.134144 0.10932
H_ H_ 0.868726 0.814871 0.135797 0.10932
H_ H_ 0.663819 0.723147 0.0569288 0.10932
H_ H_ 0.86467 0.816633 0.0597923 0.10932
H_ H_ 0.569402 0.739969 0.0619291 0.10932
H_ H_ 0.867938 0.682864 0.0574524 0.10932
C_ C_ 0.564246 0.845568 0.24883 -0.02249
C_ C_ 0.818854 0.850603 0.249579 -0.02249
C_ C_ 0.516602 0.963629 0.259097 -0.02249
C_ C_ 0.765733 0.96069 0.253637 -0.02249
C_ C_ 0.548802 0.912419 0.219179 -0.11473
C_ C_ 0.787611 0.902105 0.215917 -0.11473
C_ C_ 0.550296 0.858236 0.285917 -0.11473
C_ C_ 0.809936 0.866205 0.288395 -0.11473
C_ C_ 0.563504 0.873883 0.21423 -0.11473
C_ C_ 0.8066 0.867434 0.212588 -0.11473
C_ C_ 0.535032 0.92407 0.256862 -0.02249
C_ C_ 0.782718 0.9231 0.252782 -0.02249
C_ C_ 0.583086 0.808715 0.249402 0.6875
C_ C_ 0.838495 0.814585 0.245714 0.6875
C_ C_ 0.531523 0.893524 0.286906 -0.11473
C_ C_ 0.791713 0.902598 0.289855 -0.11473
C_ C_ 0.676406 0.852049 0.247333 -0.02249
C_ C_ 0.938181 0.843438 0.241557 -0.02249
C_ C_ 0.733621 0.961728 0.258034 -0.02249
C_ C_ 0.98589 0.961054 0.238974 -0.02249
C_ C_ 0.700365 0.908104 0.29106 -0.11473
C_ C_ 0.959771 0.904193 0.277829 -0.11473
C_ C_ 0.693874 0.866755 0.213029 -0.11473
C_ C_ 0.94938 0.859173 0.203576 -0.11473
C_ C_ 0.678731 0.875113 0.285827 -0.11473
C_ C_ 0.944258 0.866737 0.278356 -0.11473
C_ C_ 0.71392 0.924411 0.254269 -0.02249
C_ C_ 0.969833 0.918654 0.239844 -0.02249
C_ C_ 0.658261 0.813951 0.246516 0.6875
C_ C_ 0.917351 0.805215 0.243346 0.6875
C_ C_ 0.708301 0.905512 0.214848 -0.11473
C_ C_ 0.965717 0.895279 0.202476 -0.11473
C_ C_ 0.685843 0.654293 0.247314 -0.02249
C_ C_ 0.937342 0.655014 0.246617 -0.02249
C_ C_ 0.735674 0.539831 0.254744 -0.02249
C_ C_ 0.984303 0.537404 0.234178 -0.02249
C_ C_ 0.717058 0.60679 0.286781 -0.11473
C_ C_ 0.958212 0.590466 0.277836 -0.11473
C_ C_ 0.687017 0.627711 0.212619 -0.11473
C_ C_ 0.945478 0.639176 0.206974 -0.11473
C_ C_ 0.70173 0.643821 0.285349 -0.11473
C_ C_ 0.944769 0.630917 0.282457 -0.11473
C_ C_ 0.719094 0.580961 0.251898 -0.02249
C_ C_ 0.968483 0.577476 0.238394 -0.02249
C_ C_ 0.664226 0.691622 0.245879 0.6875
C_ C_ 0.915963 0.691428 0.248987 0.6875
C_ C_ 0.704932 0.591503 0.213829 -0.11473
C_ C_ 0.961296 0.601117 0.202759 -0.11473
C_ C_ 0.564618 0.649403 0.250277 -0.02249
C_ C_ 0.813038 0.656848 0.251007 -0.02249
C_ C_ 0.510938 0.53626 0.250997 -0.02249
C_ C_ 0.767384 0.540543 0.249009 -0.02249
C_ C_ 0.541105 0.59108 0.21188 -0.11473
C_ C_ 0.787672 0.602392 0.213028 -0.11473
C_ C_ 0.550179 0.636284 0.287068 -0.11473
C_ C_ 0.807739 0.637509 0.287071 -0.11473
C_ C_ 0.557823 0.628066 0.211421 -0.11473
C_ C_ 0.803875 0.638868 0.2118 -0.11473
C_ C_ 0.526855 0.578297 0.248198 -0.02249
C_ C_ 0.783482 0.580994 0.250879 -0.02249
C_ C_ 0.584233 0.687264 0.250011 0.6875
C_ C_ 0.832542 0.692866 0.251643 0.6875
C_ C_ 0.531039 0.599419 0.285058 -0.11473
C_ C_ 0.795447 0.59692 0.287019 -0.11473
C_ C_ 0.62688 0.708222 0.36889 0.17695
C_ C_ 0.854645 0.765639 0.375077 0.17695
C_ C_ 0.626166 0.781787 0.373969 0.17695
C_ C_ 0.903287 0.734939 0.378222 0.17695
C_ C_ 0.628528 0.776105 0.418436 -0.11473
C_ C_ 0.902323 0.734387 0.423562 -0.11473
C_ C_ 0.627972 0.737042 0.438067 0.23465
C_ C_ 0.877568 0.747994 0.444913 0.23465
C_ C_ 0.629858 0.703263 0.411644 -0.11473
C_ C_ 0.853752 0.767576 0.419356 -0.11473
C_ C_ 0.593146 0.748548 0.119997 0.17695
C_ C_ 0.868377 0.712842 0.118821 0.17695
C_ C_ 0.644779 0.73589 0.118562 0.17695
C_ C_ 0.868087 0.78581 0.120066 0.17695
C_ C_ 0.643691 0.730052 0.0747456 -0.11473
C_ C_ 0.864907 0.786329 0.0772027 -0.11473
C_ C_ 0.616639 0.735673 0.0538584 0.23465
C_ C_ 0.862796 0.749731 0.0524137 0.23465
C_ C_ 0.590646 0.739829 0.0784185 -0.11473
C_ C_ 0.863036 0.711353 0.0745324 -0.11473
C_ C_ 0.532026 1.0018502 0.262136 0.05793
C_ C_ 0.781635 0.99843 0.253505 0.05793
C_ C_ 0.720373 0.502267 0.25151 0.05793
C_ C_ 0.968111 0.499793 0.235676 0.05793
Br Br 0.575168 1.00275796 0.271758 -0.17191
Br Br 0.825671 1.0018299 0.251817 -0.17191
Br Br 0.679068 0.506877 0.26084 -0.17191
Br Br 0.924266 0.505184 0.233257 -0.17191
N_ N_ 0.623051 0.746376 0.350637 -0.272
N_ N_ 0.878923 0.749061 0.354904 -0.272
N_ N_ 0.630186 0.731083 0.483328 -0.12501
N_ N_ 0.874671 0.7406 0.488877 -0.12501
N_ N_ 0.619829 0.743192 0.140597 -0.272
N_ N_ 0.868575 0.749189 0.141344 -0.272
N_ N_ 0.61232 0.731466 0.00846658 -0.12501
N_ N_ 0.857426 0.751819 0.0065222 -0.12501
O_ O_ 0.591925 0.791527 0.217434 -0.60745
O_ O_ 0.847827 0.803078 0.209623 -0.60745
O_ O_ 0.591315 0.792796 0.285058 -0.60745
O_ O_ 0.845721 0.79367 0.279608 -0.60745
O_ O_ 0.652144 0.795302 0.279072 -0.60745
O_ O_ 0.908076 0.793038 0.279549 -0.60745
O_ O_ 0.654409 0.79517 0.212633 -0.60745
O_ O_ 0.909669 0.786453 0.210534 -0.60745
O_ O_ 0.655571 0.706513 0.280793 -0.60745
O_ O_ 0.909642 0.7051 0.285277 -0.60745
O_ O_ 0.65674 0.708438 0.212926 -0.60745
O_ O_ 0.900912 0.702574 0.216225 -0.60745
O_ O_ 0.597466 0.698749 0.216352 -0.60745
O_ O_ 0.835905 0.713927 0.218541 -0.60745
O_ O_ 0.590692 0.706713 0.2843 -0.60745
O_ O_ 0.847532 0.702692 0.285036 -0.60745
Zn Zn 0.621812 0.753479 0.780968 0.9476
Zn Zn 0.877274 0.750254 0.78351 0.9476
Zn Zn 0.623585 0.753298 0.710164 0.9476
Zn Zn 0.876391 0.749686 0.715673 0.9476
H_ H_ 0.529703 0.922296 0.683252 0.10932
H_ H_ 0.782502 0.912814 0.68516 0.10932
H_ H_ 0.571158 0.860293 0.812867 0.10932
H_ H_ 0.814564 0.853316 0.821181 0.10932
H_ H_ 0.559822 0.861324 0.675328 0.10932
H_ H_ 0.814262 0.853929 0.68297 0.10932
H_ H_ 0.54422 0.922787 0.815746 0.10932
H_ H_ 0.782976 0.913849 0.818777 0.10932
H_ H_ 0.717583 0.918988 0.810571 0.10932
H_ H_ 0.971859 0.906972 0.824368 0.10932
H_ H_ 0.690061 0.850096 0.679652 0.10932
H_ H_ 0.93385 0.852091 0.685092 0.10932
H_ H_ 0.685423 0.858964 0.812872 0.10932
H_ H_ 0.944703 0.845404 0.821655 0.10932
H_ H_ 0.723661 0.907907 0.681127 0.10932
H_ H_ 0.968376 0.914458 0.686513 0.10932
H_ H_ 0.707312 0.574314 0.816064 0.10932
H_ H_ 0.969687 0.585562 0.822831 0.10932
H_ H_ 0.686928 0.652221 0.682602 0.10932
H_ H_ 0.941499 0.65498 0.684568 0.10932
H_ H_ 0.672697 0.634 0.816219 0.10932
H_ H_ 0.936365 0.647273 0.817744 0.10932
H_ H_ 0.721016 0.595692 0.681039 0.10932
H_ H_ 0.973116 0.587028 0.686447 0.10932
H_ H_ 0.535139 0.581003 0.679336 0.10932
H_ H_ 0.786546 0.582544 0.672967 0.10932
H_ H_ 0.562558 0.645778 0.813149 0.10932
H_ H_ 0.811591 0.654158 0.810107 0.10932
H_ H_ 0.559676 0.649729 0.677281 0.10932
H_ H_ 0.813506 0.646922 0.672996 0.10932
H_ H_ 0.536051 0.584014 0.813541 0.10932
H_ H_ 0.776573 0.594617 0.809814 0.10932
H_ H_ 0.66881 0.746993 0.848084 0.10932
H_ H_ 0.88422 0.682785 0.852155 0.10932
H_ H_ 0.574423 0.745555 0.858875 0.10932
H_ H_ 0.871051 0.812478 0.861059 0.10932
H_ H_ 0.58087 0.747309 0.938399 0.10932
H_ H_ 0.868001 0.805654 0.938233 0.10932
H_ H_ 0.675139 0.740537 0.926981 0.10932
H_ H_ 0.879917 0.673377 0.924043 0.10932
H_ H_ 0.623892 0.687331 0.632909 0.10932
H_ H_ 0.871781 0.820279 0.646849 0.10932
H_ H_ 0.631107 0.81782 0.643631 0.10932
H_ H_ 0.884861 0.692153 0.641096 0.10932
H_ H_ 0.628481 0.82406 0.563262 0.10932
H_ H_ 0.889038 0.694268 0.563406 0.10932
H_ H_ 0.63402 0.691108 0.554877 0.10932
H_ H_ 0.875526 0.823579 0.565408 0.10932
C_ C_ 0.567009 0.851874 0.74558 -0.02249
C_ C_ 0.820943 0.849425 0.752618 -0.02249
C_ C_ 0.513385 0.961695 0.756671 -0.02249
C_ C_ 0.767289 0.962046 0.748893 -0.02249
C_ C_ 0.536881 0.906802 0.711497 -0.11473
C_ C_ 0.793408 0.903301 0.713701 -0.11473
C_ C_ 0.558725 0.870124 0.784741 -0.11473
C_ C_ 0.811041 0.867439 0.791109 -0.11473
C_ C_ 0.553515 0.870102 0.707509 -0.11473
C_ C_ 0.809183 0.866173 0.713552 -0.11473
C_ C_ 0.530157 0.922009 0.751885 -0.02249
C_ C_ 0.785124 0.921448 0.752361 -0.02249
C_ C_ 0.58452 0.812895 0.744888 0.6875
C_ C_ 0.83901 0.811088 0.751531 0.6875
C_ C_ 0.54068 0.903489 0.787949 -0.11473
C_ C_ 0.794131 0.903988 0.790304 -0.11473
C_ C_ 0.684346 0.848748 0.745831 -0.02249
C_ C_ 0.935665 0.844762 0.754244 -0.02249
C_ C_ 0.735992 0.962718 0.743555 -0.02249
C_ C_ 0.986329 0.960159 0.758931 -0.02249
C_ C_ 0.709674 0.904364 0.781322 -0.11473
C_ C_ 0.965072 0.896679 0.79336 -0.11473
C_ C_ 0.695786 0.864483 0.708379 -0.11473
C_ C_ 0.940703 0.866778 0.716192 -0.11473
C_ C_ 0.69067 0.869869 0.783166 -0.11473
C_ C_ 0.946384 0.86128 0.792419 -0.11473
C_ C_ 0.719409 0.921412 0.743258 -0.02249
C_ C_ 0.972544 0.918311 0.755211 -0.02249
C_ C_ 0.665457 0.809989 0.746066 0.6875
C_ C_ 0.917781 0.806321 0.753034 0.6875
C_ C_ 0.716399 0.896705 0.708962 -0.11473
C_ C_ 0.962093 0.900287 0.715993 -0.11473
C_ C_ 0.678804 0.649062 0.749637 -0.02249
C_ C_ 0.938613 0.656549 0.750889 -0.02249
C_ C_ 0.733948 0.539135 0.746158 -0.02249
C_ C_ 0.987587 0.541919 0.751525 -0.02249
C_ C_ 0.703989 0.59015 0.786738 -0.11473
C_ C_ 0.964865 0.601276 0.791055 -0.11473
C_ C_ 0.690991 0.63506 0.711775 -0.11473
C_ C_ 0.948356 0.639297 0.713638 -0.11473
C_ C_ 0.683346 0.625114 0.786034 -0.11473
C_ C_ 0.947027 0.637229 0.789884 -0.11473
C_ C_ 0.715851 0.577579 0.74761 -0.02249
C_ C_ 0.972977 0.582422 0.752999 -0.02249
C_ C_ 0.65744 0.687362 0.74843 0.6875
C_ C_ 0.914505 0.689575 0.749873 0.6875
C_ C_ 0.709967 0.601279 0.710483 -0.11473
C_ C_ 0.965092 0.601821 0.715248 -0.11473
C_ C_ 0.561376 0.656188 0.744975 -0.02249
C_ C_ 0.817533 0.654615 0.740974 -0.02249
C_ C_ 0.515159 0.53789 0.749175 -0.02249
C_ C_ 0.765917 0.541393 0.74217 -0.02249
C_ C_ 0.540644 0.594092 0.708927 -0.11473
C_ C_ 0.793009 0.59694 0.704427 -0.11473
C_ C_ 0.554865 0.635142 0.783419 -0.11473
C_ C_ 0.807521 0.637907 0.779413 -0.11473
C_ C_ 0.555198 0.633955 0.707723 -0.11473
C_ C_ 0.806933 0.636059 0.703315 -0.11473
C_ C_ 0.532597 0.575865 0.747533 -0.02249
C_ C_ 0.782487 0.581416 0.742232 -0.02249
C_ C_ 0.578847 0.696484 0.74236 0.6875
C_ C_ 0.837195 0.691034 0.74358 0.6875
C_ C_ 0.542171 0.595968 0.783365 -0.11473
C_ C_ 0.789247 0.602783 0.780126 -0.11473
C_ C_ 0.649812 0.745834 0.86825 0.17695
C_ C_ 0.882935 0.710917 0.868399 0.17695
C_ C_ 0.597325 0.746508 0.874332 0.17695
C_ C_ 0.873427 0.782806 0.875799 0.17695
C_ C_ 0.600113 0.74533 0.918782 -0.11473
C_ C_ 0.871415 0.777697 0.919994 -0.11473
C_ C_ 0.628044 0.742766 0.93882 0.23465
C_ C_ 0.871351 0.737324 0.938579 0.23465
C_ C_ 0.653289 0.741416 0.9117 -0.11473
C_ C_ 0.87731 0.703317 0.912149 -0.11473
C_ C_ 0.622179 0.717043 0.615931 0.17695
C_ C_ 0.873751 0.793726 0.626956 0.17695
C_ C_ 0.629095 0.790266 0.621934 0.17695
C_ C_ 0.880302 0.720144 0.624671 0.17695
C_ C_ 0.628056 0.793521 0.577177 -0.11473
C_ C_ 0.882537 0.722057 0.580349 -0.11473
C_ C_ 0.629406 0.757451 0.551959 0.23465
C_ C_ 0.878492 0.76019 0.559546 0.23465
C_ C_ 0.629048 0.718718 0.572597 -0.11473
C_ C_ 0.87433 0.795128 0.582532 -0.11473
C_ C_ 0.529487 -0.00112356 0.755722 0.05793
C_ C_ 0.783691 0.0006800000000000139 0.747435 0.05793
C_ C_ 0.718922 0.500853 0.749847 0.05793
C_ C_ 0.969852 0.505543 0.756513 0.05793
Br Br 0.571944 -0.0014859999999999873 0.751859 -0.17191
Br Br 0.827101 0.998602 0.758451 -0.17191
Br Br 0.674979 0.50061 0.746861 -0.17191
Br Br 0.92856 0.508056 0.776288 -0.17191
N_ N_ 0.621783 0.744764 0.849824 -0.272
N_ N_ 0.87913 0.74923 0.850962 -0.272
N_ N_ 0.632588 0.740558 0.98386 -0.12501
N_ N_ 0.875341 0.733506 0.982466 -0.12501
N_ N_ 0.624998 0.753057 0.639476 -0.272
N_ N_ 0.875054 0.756113 0.646237 -0.272
N_ N_ 0.627543 0.760698 0.507706 -0.12501
N_ N_ 0.882906 0.766688 0.515193 -0.12501
O_ O_ 0.595305 0.801541 0.709174 -0.60745
O_ O_ 0.849658 0.798743 0.716586 -0.60745
O_ O_ 0.594643 0.798987 0.778037 -0.60745
O_ O_ 0.846202 0.794016 0.785656 -0.60745
O_ O_ 0.654333 0.797259 0.779786 -0.60745
O_ O_ 0.907771 0.793367 0.787044 -0.60745
O_ O_ 0.658217 0.792639 0.712172 -0.60745
O_ O_ 0.909919 0.789597 0.718157 -0.60745
O_ O_ 0.649218 0.704294 0.781802 -0.60745
O_ O_ 0.91143 0.711668 0.782241 -0.60745
O_ O_ 0.651876 0.705434 0.714556 -0.60745
O_ O_ 0.903032 0.702052 0.715439 -0.60745
O_ O_ 0.588737 0.709806 0.707446 -0.60745
O_ O_ 0.843967 0.709679 0.710315 -0.60745
O_ O_ 0.587924 0.713834 0.778086 -0.60745
O_ O_ 0.847745 0.703131 0.777717 -0.60745
