_cell_length_a 44.444
_cell_length_b 32.3360000049186
_cell_length_c 31.843999878906452
_cell_angle_alpha 89.99799923859553
_cell_angle_beta 91.13600050494348
_cell_angle_gamma 89.9990006550086
_symmetry_space_group_name_H-M         'P 1'
_symmetry_Int_Tables_number            1
loop_
_symmetry_equiv_pos_as_xyz
   'x, y, z'
                         
loop_
_atom_site_label
_atom_site_type_symbol
_atom_site_fract_x 
_atom_site_fract_y
_atom_site_fract_z
_atom_site_charge
Zn Zn 0.123499 0.249964 0.283413 0.9476
Zn Zn 0.374306 0.248521 0.281782 0.9476
Zn Zn 0.1256 0.251052 0.214388 0.9476
Zn Zn 0.37353 0.241841 0.210129 0.9476
H_ H_ 0.0164683 0.410255 0.194676 0.10932
H_ H_ 0.294769 0.423074 0.184258 0.10932
H_ H_ 0.0744448 0.363802 0.31991 0.10932
H_ H_ 0.288802 0.328126 0.300415 0.10932
H_ H_ 0.0497638 0.34504 0.187963 0.10932
H_ H_ 0.321885 0.355731 0.180502 0.10932
H_ H_ 0.0432978 0.429627 0.319831 0.10932
H_ H_ 0.269154 0.396442 0.311231 0.10932
H_ H_ 0.208101 0.422831 0.312463 0.10932
H_ H_ 0.463558 0.414198 0.3195 0.10932
H_ H_ 0.193817 0.342236 0.178769 0.10932
H_ H_ 0.444997 0.335446 0.18764 0.10932
H_ H_ 0.173837 0.361029 0.308137 0.10932
H_ H_ 0.432859 0.351656 0.317594 0.10932
H_ H_ 0.225881 0.405007 0.180318 0.10932
H_ H_ 0.46502 0.410561 0.183032 0.10932
H_ H_ 0.222568 0.0857754 0.306316 0.10932
H_ H_ 0.473055 0.0876125 0.319908 0.10932
H_ H_ 0.176283 0.138395 0.176995 0.10932
H_ H_ 0.436969 0.144511 0.182146 0.10932
H_ H_ 0.193414 0.150153 0.310702 0.10932
H_ H_ 0.44555 0.153286 0.31754 0.10932
H_ H_ 0.20422 0.0745448 0.176855 0.10932
H_ H_ 0.467893 0.0797119 0.185815 0.10932
H_ H_ 0.0453749 0.0767665 0.178549 0.10932
H_ H_ 0.290415 0.0715512 0.177073 0.10932
H_ H_ 0.0655727 0.138791 0.319747 0.10932
H_ H_ 0.313194 0.14775 0.306801 0.10932
H_ H_ 0.0695067 0.146073 0.183357 0.10932
H_ H_ 0.31467 0.14039 0.173334 0.10932
H_ H_ 0.0315494 0.0809452 0.313406 0.10932
H_ H_ 0.283362 0.0834045 0.309814 0.10932
H_ H_ 0.124118 0.318841 0.359148 0.10932
H_ H_ 0.366809 0.312283 0.356176 0.10932
H_ H_ 0.131211 0.188253 0.357704 0.10932
H_ H_ 0.369013 0.181485 0.349767 0.10932
H_ H_ 0.121073 0.189864 0.433595 0.10932
H_ H_ 0.372383 0.17682 0.428312 0.10932
H_ H_ 0.128929 0.319858 0.433747 0.10932
H_ H_ 0.367575 0.308371 0.43585 0.10932
H_ H_ 0.124157 0.314378 0.130447 0.10932
H_ H_ 0.345539 0.297067 0.135632 0.10932
H_ H_ 0.112879 0.1886 0.147849 0.10932
H_ H_ 0.393459 0.185762 0.142486 0.10932
H_ H_ 0.116879 0.176359 0.0695433 0.10932
H_ H_ 0.395253 0.184922 0.0610916 0.10932
H_ H_ 0.125056 0.305528 0.0522318 0.10932
H_ H_ 0.349944 0.300451 0.0589682 0.10932
C_ C_ 0.0657819 0.3498 0.254062 -0.02249
C_ C_ 0.312802 0.340042 0.244354 -0.02249
C_ C_ 0.012078 0.462068 0.259446 -0.02249
C_ C_ 0.26687 0.458932 0.248779 -0.02249
C_ C_ 0.0319763 0.40087 0.219557 -0.11473
C_ C_ 0.297169 0.405311 0.211318 -0.11473
C_ C_ 0.0639213 0.374172 0.292072 -0.11473
C_ C_ 0.294156 0.35019 0.278228 -0.11473
C_ C_ 0.0493243 0.364526 0.21674 -0.11473
C_ C_ 0.311642 0.366599 0.208778 -0.11473
C_ C_ 0.0288296 0.421256 0.257378 -0.02249
C_ C_ 0.283254 0.417473 0.248908 -0.02249
C_ C_ 0.086222 0.312955 0.252777 0.6875
C_ C_ 0.330461 0.301298 0.243355 0.6875
C_ C_ 0.0440961 0.409024 0.292553 -0.11473
C_ C_ 0.281384 0.389307 0.282068 -0.11473
C_ C_ 0.182744 0.346272 0.243885 -0.02249
C_ C_ 0.429572 0.345148 0.249947 -0.02249
C_ C_ 0.235103 0.458464 0.247143 -0.02249
C_ C_ 0.482054 0.457015 0.246901 -0.02249
C_ C_ 0.203762 0.40569 0.281604 -0.11473
C_ C_ 0.455329 0.401156 0.288614 -0.11473
C_ C_ 0.196651 0.360912 0.207995 -0.11473
C_ C_ 0.44416 0.357536 0.214045 -0.11473
C_ C_ 0.186747 0.368184 0.280815 -0.11473
C_ C_ 0.437047 0.365614 0.288203 -0.11473
C_ C_ 0.216632 0.419614 0.244565 -0.02249
C_ C_ 0.465153 0.418056 0.249518 -0.02249
C_ C_ 0.16336 0.309887 0.244252 0.6875
C_ C_ 0.410629 0.308509 0.24994 0.6875
C_ C_ 0.214624 0.396298 0.20751 -0.11473
C_ C_ 0.458819 0.396332 0.212411 -0.11473
C_ C_ 0.179957 0.148214 0.243793 -0.02249
C_ C_ 0.434221 0.148698 0.250987 -0.02249
C_ C_ 0.233311 0.0344715 0.241575 -0.02249
C_ C_ 0.487795 0.0376645 0.251167 -0.02249
C_ C_ 0.212238 0.0981786 0.278415 -0.11473
C_ C_ 0.464212 0.0996773 0.28894 -0.11473
C_ C_ 0.184648 0.126549 0.205909 -0.11473
C_ C_ 0.44226 0.128113 0.212263 -0.11473
C_ C_ 0.193233 0.132563 0.280694 -0.11473
C_ C_ 0.447723 0.135998 0.288024 -0.11473
C_ C_ 0.215093 0.0747901 0.24239 -0.02249
C_ C_ 0.46969 0.0761392 0.252127 -0.02249
C_ C_ 0.164486 0.188701 0.243681 0.6875
C_ C_ 0.413164 0.18534 0.250389 0.6875
C_ C_ 0.20178 0.090522 0.20492 -0.11473
C_ C_ 0.460183 0.0908402 0.213845 -0.11473
C_ C_ 0.0690223 0.149525 0.25242 -0.02249
C_ C_ 0.316559 0.147714 0.239919 -0.02249
C_ C_ 0.0212798 0.0337892 0.248933 -0.02249
C_ C_ 0.265707 0.0343754 0.243575 -0.02249
C_ C_ 0.0488473 0.0913207 0.209655 -0.11473
C_ C_ 0.292016 0.0904324 0.204944 -0.11473
C_ C_ 0.0585503 0.129981 0.288935 -0.11473
C_ C_ 0.304143 0.134066 0.277468 -0.11473
C_ C_ 0.0634834 0.129055 0.212097 -0.11473
C_ C_ 0.307637 0.128888 0.203057 -0.11473
C_ C_ 0.0399869 0.0706291 0.24745 -0.02249
C_ C_ 0.281318 0.0752527 0.24323 -0.02249
C_ C_ 0.08777 0.18776 0.254906 0.6875
C_ C_ 0.335476 0.186901 0.240497 0.6875
C_ C_ 0.0426005 0.0929281 0.285682 -0.11473
C_ C_ 0.288574 0.0964901 0.279414 -0.11473
C_ C_ 0.126976 0.290354 0.37397 0.17695
C_ C_ 0.365213 0.281871 0.37296 0.17695
C_ C_ 0.128695 0.218049 0.373983 0.17695
C_ C_ 0.365619 0.208133 0.37039 0.17695
C_ C_ 0.126943 0.217991 0.417417 -0.11473
C_ C_ 0.367955 0.207264 0.413279 -0.11473
C_ C_ 0.128387 0.256038 0.441378 0.23465
C_ C_ 0.364733 0.242814 0.438163 0.23465
C_ C_ 0.130744 0.291139 0.416947 -0.11473
C_ C_ 0.364837 0.280546 0.417359 -0.11473
C_ C_ 0.122363 0.28498 0.116327 0.17695
C_ C_ 0.356717 0.272332 0.119041 0.17695
C_ C_ 0.119476 0.212379 0.127673 0.17695
C_ C_ 0.38345 0.210842 0.122042 0.17695
C_ C_ 0.119634 0.206238 0.0829754 -0.11473
C_ C_ 0.386836 0.211036 0.0782147 -0.11473
C_ C_ 0.12081 0.241487 0.0560114 0.23465
C_ C_ 0.373053 0.241642 0.0536256 0.23465
C_ C_ 0.122233 0.280893 0.0732294 -0.11473
C_ C_ 0.359179 0.274561 0.0753265 -0.11473
C_ C_ 0.0279714 0.499896 0.257389 0.05793
C_ C_ 0.282869 0.496633 0.249066 0.05793
C_ C_ 0.218894 -0.002350999999999992 0.250621 0.05793
C_ C_ 0.473214 0.999056 0.255432 0.05793
Br Br 0.0702394 0.501058 0.246433 -0.17191
Br Br 0.326188 0.500492 0.253188 -0.17191
Br Br 0.1752 0.000619651 0.25287 -0.17191
Br Br 0.431465 0.998862 0.269401 -0.17191
N_ N_ 0.126492 0.253713 0.351603 -0.272
N_ N_ 0.367157 0.246507 0.349813 -0.272
N_ N_ 0.13346 0.257702 0.486542 -0.12501
N_ N_ 0.371036 0.240986 0.482942 -0.12501
N_ N_ 0.121844 0.251386 0.14198 -0.272
N_ N_ 0.372819 0.244525 0.141491 -0.272
N_ N_ 0.117133 0.234852 0.0115239 -0.12501
N_ N_ 0.372904 0.235505 0.00844988 -0.12501
O_ O_ 0.0927482 0.296799 0.21755 -0.60745
O_ O_ 0.347819 0.292964 0.213315 -0.60745
O_ O_ 0.0937582 0.294153 0.286845 -0.60745
O_ O_ 0.335601 0.281369 0.277289 -0.60745
O_ O_ 0.153779 0.29575 0.278286 -0.60745
O_ O_ 0.398379 0.296989 0.2835 -0.60745
O_ O_ 0.156751 0.293001 0.210579 -0.60745
O_ O_ 0.407654 0.285041 0.217062 -0.60745
O_ O_ 0.156163 0.205589 0.27754 -0.60745
O_ O_ 0.408822 0.209499 0.281579 -0.60745
O_ O_ 0.15538 0.203658 0.209385 -0.60745
O_ O_ 0.399074 0.192737 0.21609 -0.60745
O_ O_ 0.0933829 0.207755 0.222049 -0.60745
O_ O_ 0.339507 0.205203 0.207111 -0.60745
O_ O_ 0.0971948 0.201384 0.291204 -0.60745
O_ O_ 0.34953 0.200375 0.273779 -0.60745
Zn Zn 0.123919 0.247685 0.781254 0.9476
Zn Zn 0.373212 0.255889 0.778406 0.9476
Zn Zn 0.122419 0.250785 0.713348 0.9476
Zn Zn 0.372612 0.254808 0.709203 0.9476
H_ H_ 0.0192421 0.405117 0.688645 0.10932
H_ H_ 0.281598 0.420138 0.674585 0.10932
H_ H_ 0.0872225 0.367029 0.804276 0.10932
H_ H_ 0.314539 0.361402 0.815114 0.10932
H_ H_ 0.0390791 0.336616 0.688505 0.10932
H_ H_ 0.306857 0.355979 0.679491 0.10932
H_ H_ 0.0618782 0.430053 0.809517 0.10932
H_ H_ 0.282324 0.424663 0.80933 0.10932
H_ H_ 0.212283 0.420032 0.812876 0.10932
H_ H_ 0.478694 0.411756 0.804214 0.10932
H_ H_ 0.178215 0.360431 0.678611 0.10932
H_ H_ 0.425927 0.360286 0.674303 0.10932
H_ H_ 0.194081 0.345769 0.810506 0.10932
H_ H_ 0.454525 0.337189 0.799808 0.10932
H_ H_ 0.207138 0.426346 0.684135 0.10932
H_ H_ 0.460027 0.419674 0.668656 0.10932
H_ H_ 0.210804 0.0737336 0.819064 0.10932
H_ H_ 0.465416 0.0885969 0.808294 0.10932
H_ H_ 0.195999 0.159294 0.690427 0.10932
H_ H_ 0.431426 0.146855 0.673487 0.10932
H_ H_ 0.17406 0.133817 0.820015 0.10932
H_ H_ 0.438388 0.155845 0.80762 0.10932
H_ H_ 0.223045 0.0896586 0.689358 0.10932
H_ H_ 0.461182 0.0828677 0.672714 0.10932
H_ H_ 0.0325071 0.0847002 0.679425 0.10932
H_ H_ 0.288828 0.074425 0.689358 0.10932
H_ H_ 0.0536979 0.158183 0.813013 0.10932
H_ H_ 0.323117 0.15034 0.81738 0.10932
H_ H_ 0.0621117 0.150506 0.678717 0.10932
H_ H_ 0.305102 0.150555 0.683068 0.10932
H_ H_ 0.0213151 0.0976128 0.813109 0.10932
H_ H_ 0.297298 0.0814848 0.822209 0.10932
H_ H_ 0.168866 0.234621 0.85246 0.10932
H_ H_ 0.379859 0.319737 0.848182 0.10932
H_ H_ 0.0818668 0.283023 0.858723 0.10932
H_ H_ 0.373325 0.192171 0.856849 0.10932
H_ H_ 0.0826884 0.273314 0.936858 0.10932
H_ H_ 0.374129 0.193654 0.934105 0.10932
H_ H_ 0.175005 0.240522 0.931917 0.10932
H_ H_ 0.380984 0.326676 0.929234 0.10932
H_ H_ 0.125151 0.184264 0.646256 0.10932
H_ H_ 0.41106 0.271679 0.627957 0.10932
H_ H_ 0.122968 0.311438 0.637385 0.10932
H_ H_ 0.323479 0.221599 0.639716 0.10932
H_ H_ 0.122573 0.308315 0.558285 0.10932
H_ H_ 0.320133 0.213962 0.561901 0.10932
H_ H_ 0.121134 0.176045 0.567726 0.10932
H_ H_ 0.402747 0.282714 0.555275 0.10932
C_ C_ 0.0673901 0.347286 0.745593 -0.02249
C_ C_ 0.312816 0.350532 0.745916 -0.02249
C_ C_ 0.0201683 0.462942 0.751466 -0.02249
C_ C_ 0.263242 0.464818 0.742665 -0.02249
C_ C_ 0.0347538 0.398196 0.713409 -0.11473
C_ C_ 0.286336 0.404356 0.705623 -0.11473
C_ C_ 0.0701644 0.371873 0.78126 -0.11473
C_ C_ 0.306042 0.372409 0.783333 -0.11473
C_ C_ 0.0480042 0.358249 0.712673 -0.11473
C_ C_ 0.30207 0.368434 0.708443 -0.11473
C_ C_ 0.0368809 0.422604 0.750113 -0.02249
C_ C_ 0.279799 0.425914 0.743151 -0.02249
C_ C_ 0.0845715 0.30743 0.743178 0.6875
C_ C_ 0.3329 0.313075 0.746948 0.6875
C_ C_ 0.0546337 0.409913 0.783505 -0.11473
C_ C_ 0.286511 0.405147 0.782012 -0.11473
C_ C_ 0.18158 0.348547 0.746 -0.02249
C_ C_ 0.437435 0.345056 0.738591 -0.02249
C_ C_ 0.231166 0.462603 0.748028 -0.02249
C_ C_ 0.485288 0.463396 0.739333 -0.02249
C_ C_ 0.207278 0.404242 0.783828 -0.11473
C_ C_ 0.468504 0.398761 0.774479 -0.11473
C_ C_ 0.187716 0.370583 0.709139 -0.11473
C_ C_ 0.439591 0.36877 0.70156 -0.11473
C_ C_ 0.192502 0.365623 0.783438 -0.11473
C_ C_ 0.452783 0.35955 0.774551 -0.11473
C_ C_ 0.215522 0.423551 0.746816 -0.02249
C_ C_ 0.471034 0.421058 0.737568 -0.02249
C_ C_ 0.163033 0.309901 0.746004 0.6875
C_ C_ 0.415798 0.309177 0.739852 0.6875
C_ C_ 0.205433 0.406362 0.709486 -0.11473
C_ C_ 0.458759 0.403525 0.699413 -0.11473
C_ C_ 0.182839 0.15173 0.755728 -0.02249
C_ C_ 0.427877 0.153579 0.739977 -0.02249
C_ C_ 0.236535 0.0390004 0.755048 -0.02249
C_ C_ 0.483806 0.0406277 0.745759 -0.02249
C_ C_ 0.203388 0.0895161 0.790516 -0.11473
C_ C_ 0.455681 0.0997217 0.779622 -0.11473
C_ C_ 0.198278 0.139731 0.718372 -0.11473
C_ C_ 0.43666 0.133543 0.703213 -0.11473
C_ C_ 0.1876 0.127947 0.791903 -0.11473
C_ C_ 0.441162 0.139459 0.778369 -0.11473
C_ C_ 0.219111 0.0783302 0.754938 -0.02249
C_ C_ 0.465287 0.0798686 0.743939 -0.02249
C_ C_ 0.161215 0.187343 0.75222 0.6875
C_ C_ 0.40912 0.191632 0.739006 0.6875
C_ C_ 0.2146 0.101322 0.71862 -0.11473
C_ C_ 0.454865 0.0966529 0.703775 -0.11473
C_ C_ 0.0599109 0.15917 0.745536 -0.02249
C_ C_ 0.31541 0.156579 0.751255 -0.02249
C_ C_ 0.0130765 0.0403385 0.749838 -0.02249
C_ C_ 0.268857 0.0401688 0.761276 -0.02249
C_ C_ 0.0379264 0.100299 0.710044 -0.11473
C_ C_ 0.293885 0.0940689 0.719018 -0.11473
C_ C_ 0.0470125 0.145426 0.782447 -0.11473
C_ C_ 0.311111 0.137421 0.790117 -0.11473
C_ C_ 0.0539008 0.137889 0.708596 -0.11473
C_ C_ 0.305179 0.134949 0.715165 -0.11473
C_ C_ 0.0286188 0.0807507 0.748748 -0.02249
C_ C_ 0.285857 0.0793016 0.757583 -0.02249
C_ C_ 0.0786606 0.197446 0.746147 0.6875
C_ C_ 0.332936 0.196182 0.747693 0.6875
C_ C_ 0.0341773 0.104473 0.785841 -0.11473
C_ C_ 0.296534 0.098801 0.793016 -0.11473
C_ C_ 0.150841 0.244171 0.872149 0.17695
C_ C_ 0.379711 0.293085 0.867929 0.17695
C_ C_ 0.100048 0.263484 0.873445 0.17695
C_ C_ 0.372753 0.221572 0.871475 0.17695
C_ C_ 0.0995478 0.259205 0.917748 -0.11473
C_ C_ 0.373837 0.222858 0.91712 -0.11473
C_ C_ 0.127823 0.248199 0.940883 0.23465
C_ C_ 0.377186 0.261141 0.937518 0.23465
C_ C_ 0.152605 0.240473 0.916846 -0.11473
C_ C_ 0.38125 0.297125 0.912026 -0.11473
C_ C_ 0.122348 0.210153 0.62701 0.17695
C_ C_ 0.390212 0.260711 0.614602 0.17695
C_ C_ 0.121624 0.282291 0.62138 0.17695
C_ C_ 0.342571 0.231095 0.622399 0.17695
C_ C_ 0.124051 0.28051 0.577234 -0.11473
C_ C_ 0.33733 0.234219 0.577427 -0.11473
C_ C_ 0.122272 0.241603 0.557473 0.23465
C_ C_ 0.359339 0.252542 0.553196 0.23465
C_ C_ 0.121562 0.206318 0.58311 -0.11473
C_ C_ 0.385487 0.267426 0.571698 -0.11473
C_ C_ 0.0350956 0.500846 0.75644 0.05793
C_ C_ 0.27963 0.50232 0.744421 0.05793
C_ C_ 0.222389 0.00248848 0.757254 0.05793
C_ C_ 0.468609 1.00374465 0.74455 0.05793
Br Br 0.076615 0.502876 0.766979 -0.17191
Br Br 0.322139 0.501856 0.736936 -0.17191
Br Br 0.179747 -0.0011320000000000219 0.745293 -0.17191
Br Br 0.425071 1.00329063 0.748862 -0.17191
N_ N_ 0.125156 0.254867 0.852525 -0.272
N_ N_ 0.373452 0.255591 0.848735 -0.272
N_ N_ 0.131714 0.254723 0.985285 -0.12501
N_ N_ 0.379529 0.264174 0.983303 -0.12501
N_ N_ 0.126323 0.247481 0.644346 -0.272
N_ N_ 0.366525 0.250329 0.640677 -0.272
N_ N_ 0.116673 0.239098 0.511806 -0.12501
N_ N_ 0.353972 0.257513 0.509824 -0.12501
O_ O_ 0.0886867 0.288182 0.709351 -0.60745
O_ O_ 0.338738 0.292571 0.715042 -0.60745
O_ O_ 0.0965378 0.293049 0.775532 -0.60745
O_ O_ 0.345711 0.301632 0.781924 -0.60745
O_ O_ 0.156362 0.292115 0.781435 -0.60745
O_ O_ 0.407871 0.295745 0.776104 -0.60745
O_ O_ 0.150681 0.298706 0.711474 -0.60745
O_ O_ 0.400584 0.300318 0.707447 -0.60745
O_ O_ 0.153006 0.203278 0.785511 -0.60745
O_ O_ 0.401268 0.206463 0.772645 -0.60745
O_ O_ 0.155443 0.208355 0.717978 -0.60745
O_ O_ 0.40419 0.209019 0.704585 -0.60745
O_ O_ 0.0945219 0.20092 0.71457 -0.60745
O_ O_ 0.340834 0.210245 0.712555 -0.60745
O_ O_ 0.0881818 0.212198 0.780371 -0.60745
O_ O_ 0.33929 0.214848 0.782001 -0.60745
Zn Zn 0.128904 0.744182 0.289754 0.9476
Zn Zn 0.378366 0.751703 0.288338 0.9476
Zn Zn 0.125898 0.746014 0.217185 0.9476
Zn Zn 0.37802 0.750926 0.217615 0.9476
H_ H_ 0.0434406 0.921127 0.190148 0.10932
H_ H_ 0.292095 0.921275 0.183674 0.10932
H_ H_ 0.0599282 0.839747 0.320169 0.10932
H_ H_ 0.310597 0.845642 0.31615 0.10932
H_ H_ 0.0694821 0.851959 0.186093 0.10932
H_ H_ 0.320001 0.856209 0.183792 0.10932
H_ H_ 0.0279513 0.901234 0.321665 0.10932
H_ H_ 0.281505 0.912369 0.314781 0.10932
H_ H_ 0.211197 0.921329 0.314803 0.10932
H_ H_ 0.475652 0.911567 0.318043 0.10932
H_ H_ 0.191732 0.846254 0.182477 0.10932
H_ H_ 0.427576 0.864089 0.186698 0.10932
H_ H_ 0.181593 0.857622 0.317795 0.10932
H_ H_ 0.440486 0.853887 0.317733 0.10932
H_ H_ 0.226164 0.907075 0.18208 0.10932
H_ H_ 0.460326 0.927022 0.185756 0.10932
H_ H_ 0.214362 0.575478 0.317733 0.10932
H_ H_ 0.463714 0.574096 0.319386 0.10932
H_ H_ 0.189647 0.650747 0.187236 0.10932
H_ H_ 0.436498 0.643095 0.182638 0.10932
H_ H_ 0.187907 0.643366 0.320371 0.10932
H_ H_ 0.435852 0.638188 0.318576 0.10932
H_ H_ 0.217329 0.582028 0.186489 0.10932
H_ H_ 0.459251 0.574871 0.182998 0.10932
H_ H_ 0.0328279 0.58255 0.188801 0.10932
H_ H_ 0.290878 0.578192 0.186047 0.10932
H_ H_ 0.0693086 0.641075 0.323087 0.10932
H_ H_ 0.30151 0.655829 0.315369 0.10932
H_ H_ 0.0645751 0.639373 0.188856 0.10932
H_ H_ 0.31599 0.64395 0.181112 0.10932
H_ H_ 0.0372919 0.575612 0.321862 0.10932
H_ H_ 0.279293 0.587289 0.317261 0.10932
H_ H_ 0.118399 0.80821 0.361855 0.10932
H_ H_ 0.370792 0.692543 0.354961 0.10932
H_ H_ 0.136767 0.682403 0.363041 0.10932
H_ H_ 0.383055 0.821419 0.36492 0.10932
H_ H_ 0.130673 0.681979 0.438894 0.10932
H_ H_ 0.378481 0.81804 0.442917 0.10932
H_ H_ 0.117305 0.811202 0.439037 0.10932
H_ H_ 0.366346 0.688103 0.43333 0.10932
H_ H_ 0.162304 0.778818 0.132264 0.10932
H_ H_ 0.385147 0.692162 0.137862 0.10932
H_ H_ 0.0871716 0.701151 0.148148 0.10932
H_ H_ 0.35754 0.814992 0.14534 0.10932
H_ H_ 0.0789758 0.698211 0.0683944 0.10932
H_ H_ 0.365113 0.827669 0.0715549 0.10932
H_ H_ 0.161451 0.763077 0.0587284 0.10932
H_ H_ 0.393762 0.699362 0.0625041 0.10932
C_ C_ 0.0659954 0.840013 0.252868 -0.02249
C_ C_ 0.320642 0.848925 0.250007 -0.02249
C_ C_ 0.0199606 0.957476 0.258188 -0.02249
C_ C_ 0.267535 0.959645 0.24901 -0.02249
C_ C_ 0.0476587 0.902465 0.217804 -0.11473
C_ C_ 0.296359 0.904462 0.212693 -0.11473
C_ C_ 0.0562609 0.857423 0.291358 -0.11473
C_ C_ 0.308335 0.864644 0.287359 -0.11473
C_ C_ 0.0614885 0.863616 0.216594 -0.11473
C_ C_ 0.313267 0.86806 0.213255 -0.11473
C_ C_ 0.035667 0.918024 0.255302 -0.02249
C_ C_ 0.283337 0.919054 0.249326 -0.02249
C_ C_ 0.0834291 0.799991 0.251106 0.6875
C_ C_ 0.343621 0.814994 0.250779 0.6875
C_ C_ 0.0396087 0.894719 0.292366 -0.11473
C_ C_ 0.29196 0.902018 0.28748 -0.11473
C_ C_ 0.183841 0.846675 0.249509 -0.02249
C_ C_ 0.440377 0.845115 0.250954 -0.02249
C_ C_ 0.235874 0.959398 0.250709 -0.02249
C_ C_ 0.489028 0.961751 0.252043 -0.02249
C_ C_ 0.208065 0.904482 0.285485 -0.11473
C_ C_ 0.467274 0.899615 0.288687 -0.11473
C_ C_ 0.197658 0.85947 0.212343 -0.11473
C_ C_ 0.444484 0.868971 0.213459 -0.11473
C_ C_ 0.188871 0.870018 0.286624 -0.11473
C_ C_ 0.450297 0.863426 0.289363 -0.11473
C_ C_ 0.220085 0.918123 0.249772 -0.02249
C_ C_ 0.471245 0.922691 0.252236 -0.02249
C_ C_ 0.165712 0.808493 0.250632 0.6875
C_ C_ 0.421642 0.807636 0.251875 0.6875
C_ C_ 0.215515 0.896008 0.211843 -0.11473
C_ C_ 0.458089 0.908349 0.215135 -0.11473
C_ C_ 0.190534 0.653641 0.254725 -0.02249
C_ C_ 0.432327 0.646195 0.251821 -0.02249
C_ C_ 0.235112 0.5353 0.248914 -0.02249
C_ C_ 0.483954 0.532154 0.248716 -0.02249
C_ C_ 0.212297 0.592992 0.290135 -0.11473
C_ C_ 0.461 0.591786 0.290159 -0.11473
C_ C_ 0.1986 0.636435 0.215512 -0.11473
C_ C_ 0.441555 0.629177 0.212392 -0.11473
C_ C_ 0.197315 0.631956 0.29106 -0.11473
C_ C_ 0.444167 0.627817 0.289292 -0.11473
C_ C_ 0.219654 0.575972 0.252293 -0.02249
C_ C_ 0.467414 0.573009 0.24999 -0.02249
C_ C_ 0.169182 0.689296 0.253091 0.6875
C_ C_ 0.415385 0.685699 0.255096 0.6875
C_ C_ 0.212513 0.597511 0.215157 -0.11473
C_ C_ 0.457059 0.591456 0.211981 -0.11473
C_ C_ 0.0673231 0.650577 0.256215 -0.02249
C_ C_ 0.313831 0.656099 0.249737 -0.02249
C_ C_ 0.0134161 0.537131 0.260418 -0.02249
C_ C_ 0.267623 0.535266 0.247484 -0.02249
C_ C_ 0.0399987 0.596425 0.219671 -0.11473
C_ C_ 0.294804 0.593729 0.21183 -0.11473
C_ C_ 0.0591452 0.631582 0.294346 -0.11473
C_ C_ 0.301582 0.638435 0.287491 -0.11473
C_ C_ 0.0572118 0.630933 0.217991 -0.11473
C_ C_ 0.309067 0.632977 0.211537 -0.11473
C_ C_ 0.029946 0.578382 0.257706 -0.02249
C_ C_ 0.284756 0.575329 0.250597 -0.02249
C_ C_ 0.0877257 0.686547 0.254625 0.6875
C_ C_ 0.335143 0.694204 0.249434 0.6875
C_ C_ 0.0409093 0.594765 0.295012 -0.11473
C_ C_ 0.287252 0.599614 0.288382 -0.11473
C_ C_ 0.12095 0.781193 0.378119 0.17695
C_ C_ 0.374187 0.718625 0.375033 0.17695
C_ C_ 0.129503 0.711546 0.378834 0.17695
C_ C_ 0.383041 0.791781 0.380718 0.17695
C_ C_ 0.130703 0.71082 0.422953 -0.11473
C_ C_ 0.379472 0.789811 0.42332 -0.11473
C_ C_ 0.127328 0.747375 0.44612 0.23465
C_ C_ 0.377196 0.752209 0.443238 0.23465
C_ C_ 0.121799 0.782151 0.423009 -0.11473
C_ C_ 0.372674 0.716346 0.418242 -0.11473
C_ C_ 0.145054 0.759065 0.12014 0.17695
C_ C_ 0.381148 0.721748 0.122173 0.17695
C_ C_ 0.1013 0.718198 0.127481 0.17695
C_ C_ 0.369635 0.792208 0.127611 0.17695
C_ C_ 0.0981462 0.714311 0.0822098 -0.11473
C_ C_ 0.369579 0.796004 0.0832131 -0.11473
C_ C_ 0.119521 0.73254 0.0580607 0.23465
C_ C_ 0.376562 0.76238 0.0587528 0.23465
C_ C_ 0.143338 0.755038 0.0772469 -0.11473
C_ C_ 0.384346 0.724842 0.0782784 -0.11473
C_ C_ 0.0361846 0.99473 0.255592 0.05793
C_ C_ 0.282908 0.997998 0.252052 0.05793
C_ C_ 0.21965 0.497505 0.247309 0.05793
C_ C_ 0.466679 0.494327 0.249085 0.05793
Br Br 0.0804921 -0.008409 0.264518 -0.17191
Br Br 0.325224 1.0000907735 0.266548 -0.17191
Br Br 0.17631 0.500079 0.250481 -0.17191
Br Br 0.423378 0.495297 0.239051 -0.17191
N_ N_ 0.129065 0.746762 0.357638 -0.272
N_ N_ 0.378109 0.755694 0.356708 -0.272
N_ N_ 0.126786 0.74358 0.490861 -0.12501
N_ N_ 0.386328 0.749665 0.486182 -0.12501
N_ N_ 0.12418 0.74076 0.144321 -0.272
N_ N_ 0.376616 0.755457 0.146973 -0.272
N_ N_ 0.11781 0.729256 0.0134857 -0.12501
N_ N_ 0.379246 0.769319 0.0144833 -0.12501
O_ O_ 0.0906213 0.785435 0.216712 -0.60745
O_ O_ 0.347205 0.795252 0.218216 -0.60745
O_ O_ 0.0935144 0.784841 0.284188 -0.60745
O_ O_ 0.352122 0.799371 0.2855 -0.60745
O_ O_ 0.158776 0.792736 0.285524 -0.60745
O_ O_ 0.414449 0.791342 0.287749 -0.60745
O_ O_ 0.156423 0.79229 0.21692 -0.60745
O_ O_ 0.407822 0.79501 0.219639 -0.60745
O_ O_ 0.161652 0.704215 0.289244 -0.60745
O_ O_ 0.408386 0.701842 0.290913 -0.60745
O_ O_ 0.161842 0.708912 0.220695 -0.60745
O_ O_ 0.407413 0.703348 0.2201 -0.60745
O_ O_ 0.100603 0.697142 0.221272 -0.60745
O_ O_ 0.346621 0.70654 0.216269 -0.60745
O_ O_ 0.096996 0.701981 0.289656 -0.60745
O_ O_ 0.342418 0.710117 0.28384 -0.60745
Zn Zn 0.125688 0.753421 0.788476 0.9476
Zn Zn 0.377699 0.751215 0.783945 0.9476
Zn Zn 0.126797 0.753524 0.718258 0.9476
Zn Zn 0.375688 0.751975 0.715792 0.9476
H_ H_ 0.0302774 0.914043 0.687296 0.10932
H_ H_ 0.288183 0.923823 0.689281 0.10932
H_ H_ 0.0750752 0.867846 0.82215 0.10932
H_ H_ 0.317374 0.852226 0.823434 0.10932
H_ H_ 0.0546872 0.848001 0.691017 0.10932
H_ H_ 0.310056 0.854874 0.685616 0.10932
H_ H_ 0.0387268 0.924119 0.819774 0.10932
H_ H_ 0.294604 0.920534 0.823284 0.10932
H_ H_ 0.20683 0.931297 0.816149 0.10932
H_ H_ 0.466075 0.923522 0.811553 0.10932
H_ H_ 0.20058 0.845941 0.689107 0.10932
H_ H_ 0.438161 0.853572 0.676583 0.10932
H_ H_ 0.180955 0.862327 0.818818 0.10932
H_ H_ 0.439178 0.854012 0.811192 0.10932
H_ H_ 0.235192 0.909113 0.692772 0.10932
H_ H_ 0.45998 0.921364 0.674912 0.10932
H_ H_ 0.218359 0.585657 0.824586 0.10932
H_ H_ 0.45993 0.579253 0.811443 0.10932
H_ H_ 0.175294 0.64548 0.691106 0.10932
H_ H_ 0.427836 0.643337 0.67952 0.10932
H_ H_ 0.193349 0.654549 0.82405 0.10932
H_ H_ 0.4301 0.644259 0.812612 0.10932
H_ H_ 0.208118 0.582861 0.687812 0.10932
H_ H_ 0.456354 0.580944 0.6784 0.10932
H_ H_ 0.0578212 0.566019 0.687437 0.10932
H_ H_ 0.268689 0.600535 0.682451 0.10932
H_ H_ 0.0488311 0.667023 0.809492 0.10932
H_ H_ 0.328218 0.632393 0.812355 0.10932
H_ H_ 0.0881601 0.628341 0.690238 0.10932
H_ H_ 0.306897 0.651905 0.68209 0.10932
H_ H_ 0.0171392 0.602553 0.806776 0.10932
H_ H_ 0.294648 0.57281 0.813822 0.10932
H_ H_ 0.123837 0.817356 0.860524 0.10932
H_ H_ 0.402051 0.809116 0.864524 0.10932
H_ H_ 0.130174 0.685076 0.863153 0.10932
H_ H_ 0.359155 0.692071 0.856572 0.10932
H_ H_ 0.139672 0.690144 0.940371 0.10932
H_ H_ 0.363762 0.685402 0.929414 0.10932
H_ H_ 0.127136 0.819426 0.940515 0.10932
H_ H_ 0.395276 0.806713 0.941375 0.10932
H_ H_ 0.126027 0.693555 0.632069 0.10932
H_ H_ 0.325625 0.743943 0.641653 0.10932
H_ H_ 0.109789 0.822877 0.64877 0.10932
H_ H_ 0.420181 0.762949 0.642 0.10932
H_ H_ 0.112542 0.830823 0.570673 0.10932
H_ H_ 0.419193 0.760547 0.561077 0.10932
H_ H_ 0.129281 0.701062 0.560772 0.10932
H_ H_ 0.322739 0.741524 0.564639 0.10932
C_ C_ 0.0672878 0.850835 0.756298 -0.02249
C_ C_ 0.317531 0.846875 0.755057 -0.02249
C_ C_ 0.014452 0.964155 0.753937 -0.02249
C_ C_ 0.270036 0.96554 0.759316 -0.02249
C_ C_ 0.0390148 0.903464 0.715827 -0.11473
C_ C_ 0.292228 0.905135 0.719263 -0.11473
C_ C_ 0.0622328 0.873413 0.793165 -0.11473
C_ C_ 0.311192 0.867027 0.793311 -0.11473
C_ C_ 0.055622 0.866353 0.717123 -0.11473
C_ C_ 0.307285 0.866795 0.717955 -0.11473
C_ C_ 0.032255 0.924837 0.753151 -0.02249
C_ C_ 0.287588 0.925487 0.758319 -0.02249
C_ C_ 0.0859321 0.811996 0.755373 0.6875
C_ C_ 0.339401 0.813169 0.751625 0.6875
C_ C_ 0.0432058 0.907815 0.791619 -0.11473
C_ C_ 0.296247 0.905964 0.794826 -0.11473
C_ C_ 0.188462 0.847305 0.754632 -0.02249
C_ C_ 0.43679 0.848823 0.743554 -0.02249
C_ C_ 0.238698 0.963834 0.757744 -0.02249
C_ C_ 0.483486 0.966752 0.744229 -0.02249
C_ C_ 0.207861 0.910059 0.789956 -0.11473
C_ C_ 0.462245 0.906732 0.781977 -0.11473
C_ C_ 0.202992 0.86206 0.718863 -0.11473
C_ C_ 0.442362 0.869347 0.706718 -0.11473
C_ C_ 0.192959 0.871336 0.791329 -0.11473
C_ C_ 0.447195 0.868817 0.782177 -0.11473
C_ C_ 0.221157 0.923656 0.754951 -0.02249
C_ C_ 0.467456 0.927283 0.743753 -0.02249
C_ C_ 0.164517 0.813922 0.75277 0.6875
C_ C_ 0.416717 0.811495 0.744257 0.6875
C_ C_ 0.220046 0.899126 0.718905 -0.11473
C_ C_ 0.456608 0.908126 0.706003 -0.11473
C_ C_ 0.181915 0.654274 0.758554 -0.02249
C_ C_ 0.431032 0.653144 0.746105 -0.02249
C_ C_ 0.232042 0.540727 0.755208 -0.02249
C_ C_ 0.480438 0.539352 0.743143 -0.02249
C_ C_ 0.21178 0.600492 0.79453 -0.11473
C_ C_ 0.452051 0.593164 0.781781 -0.11473
C_ C_ 0.185537 0.632232 0.720819 -0.11473
C_ C_ 0.437146 0.632929 0.707929 -0.11473
C_ C_ 0.196697 0.637816 0.79514 -0.11473
C_ C_ 0.437123 0.630046 0.783789 -0.11473
C_ C_ 0.216614 0.581017 0.755069 -0.02249
C_ C_ 0.461697 0.576652 0.744496 -0.02249
C_ C_ 0.165273 0.693772 0.758433 0.6875
C_ C_ 0.415501 0.693063 0.747369 0.6875
C_ C_ 0.205752 0.598724 0.717918 -0.11473
C_ C_ 0.452837 0.595904 0.706486 -0.11473
C_ C_ 0.071051 0.652177 0.750357 -0.02249
C_ C_ 0.316932 0.650799 0.749893 -0.02249
C_ C_ 0.0185745 0.539579 0.751063 -0.02249
C_ C_ 0.263698 0.540202 0.748066 -0.02249
C_ C_ 0.0556498 0.588339 0.714719 -0.11473
C_ C_ 0.282153 0.605122 0.711887 -0.11473
C_ C_ 0.0512391 0.644367 0.784538 -0.11473
C_ C_ 0.31662 0.625099 0.785632 -0.11473
C_ C_ 0.0721926 0.623727 0.71595 -0.11473
C_ C_ 0.302864 0.63765 0.711307 -0.11473
C_ C_ 0.0356589 0.579803 0.748055 -0.02249
C_ C_ 0.279562 0.580696 0.748902 -0.02249
C_ C_ 0.0915869 0.689043 0.751602 0.6875
C_ C_ 0.336189 0.689456 0.749367 0.6875
C_ C_ 0.032894 0.609358 0.781466 -0.11473
C_ C_ 0.295957 0.591984 0.785935 -0.11473
C_ C_ 0.122038 0.788779 0.877809 0.17695
C_ C_ 0.392042 0.781975 0.878944 0.17695
C_ C_ 0.126912 0.715456 0.881215 0.17695
C_ C_ 0.369132 0.716897 0.87375 0.17695
C_ C_ 0.128909 0.715579 0.923905 -0.11473
C_ C_ 0.368808 0.714172 0.916051 -0.11473
C_ C_ 0.12913 0.754145 0.944964 0.23465
C_ C_ 0.37546 0.747141 0.943195 0.23465
C_ C_ 0.126444 0.790808 0.923092 -0.11473
C_ C_ 0.389448 0.78047 0.923259 -0.11473
C_ C_ 0.123058 0.725968 0.621764 0.17695
C_ C_ 0.346975 0.749148 0.624775 0.17695
C_ C_ 0.116775 0.797775 0.629072 0.17695
C_ C_ 0.39983 0.757018 0.624419 0.17695
C_ C_ 0.116548 0.801886 0.584932 -0.11473
C_ C_ 0.398436 0.756867 0.580157 -0.11473
C_ C_ 0.120787 0.767652 0.559525 0.23465
C_ C_ 0.371195 0.748137 0.557407 0.23465
C_ C_ 0.124398 0.729799 0.578572 -0.11473
C_ C_ 0.34549 0.743089 0.581074 -0.11473
C_ C_ 0.0300316 0.00290447 0.753751 0.05793
C_ C_ 0.284975 0.0030317 0.765775 0.05793
C_ C_ 0.217128 0.501307 0.753828 0.05793
C_ C_ 0.467678 0.500228 0.737571 0.05793
Br Br 0.0724164 0.00383321 0.766139 -0.17191
Br Br 0.32711 0.00468144 0.771712 -0.17191
Br Br 0.177001 0.496988 0.774437 -0.17191
Br Br 0.423025 0.493568 0.734147 -0.17191
N_ N_ 0.122913 0.752522 0.859027 -0.272
N_ N_ 0.379574 0.75153 0.854774 -0.272
N_ N_ 0.130046 0.754764 0.990437 -0.12501
N_ N_ 0.374231 0.741088 0.988653 -0.12501
N_ N_ 0.123105 0.758913 0.647282 -0.272
N_ N_ 0.373559 0.750167 0.645923 -0.272
N_ N_ 0.118216 0.771811 0.514243 -0.12501
N_ N_ 0.367214 0.754097 0.513487 -0.12501
O_ O_ 0.0936342 0.796362 0.721537 -0.60745
O_ O_ 0.344583 0.795485 0.716628 -0.60745
O_ O_ 0.0898262 0.793732 0.789697 -0.60745
O_ O_ 0.349264 0.7979 0.784809 -0.60745
O_ O_ 0.154005 0.798962 0.786463 -0.60745
O_ O_ 0.410594 0.791657 0.777507 -0.60745
O_ O_ 0.15472 0.801873 0.71834 -0.60745
O_ O_ 0.40323 0.800211 0.711093 -0.60745
O_ O_ 0.159129 0.714099 0.792084 -0.60745
O_ O_ 0.403479 0.703546 0.779936 -0.60745
O_ O_ 0.158927 0.709189 0.723438 -0.60745
O_ O_ 0.409327 0.712365 0.714319 -0.60745
O_ O_ 0.0981396 0.707082 0.718131 -0.60745
O_ O_ 0.347252 0.703394 0.715693 -0.60745
O_ O_ 0.0977537 0.706982 0.786314 -0.60745
O_ O_ 0.341963 0.707032 0.78345 -0.60745
Zn Zn 0.627688 0.250288 0.279301 0.9476
Zn Zn 0.876405 0.244928 0.286198 0.9476
Zn Zn 0.628143 0.246877 0.210135 0.9476
Zn Zn 0.877434 0.246738 0.216023 0.9476
H_ H_ 0.526969 0.40405 0.18194 0.10932
H_ H_ 0.807294 0.423551 0.186153 0.10932
H_ H_ 0.566058 0.347503 0.315361 0.10932
H_ H_ 0.796277 0.334608 0.311606 0.10932
H_ H_ 0.554975 0.341467 0.181463 0.10932
H_ H_ 0.838473 0.365267 0.194525 0.10932
H_ H_ 0.529275 0.410378 0.313399 0.10932
H_ H_ 0.780437 0.408101 0.312761 0.10932
H_ H_ 0.708423 0.421858 0.310121 0.10932
H_ H_ 0.973946 0.402538 0.326498 0.10932
H_ H_ 0.69396 0.349719 0.1744 0.10932
H_ H_ 0.918072 0.373183 0.192638 0.10932
H_ H_ 0.678021 0.359577 0.306502 0.10932
H_ H_ 0.940138 0.341748 0.324111 0.10932
H_ H_ 0.722131 0.413516 0.176067 0.10932
H_ H_ 0.949972 0.433578 0.198215 0.10932
H_ H_ 0.719855 0.0872095 0.309802 0.10932
H_ H_ 0.96821 0.0770714 0.322061 0.10932
H_ H_ 0.6691 0.127691 0.178714 0.10932
H_ H_ 0.94276 0.148863 0.188445 0.10932
H_ H_ 0.681201 0.143464 0.310505 0.10932
H_ H_ 0.940629 0.142515 0.324653 0.10932
H_ H_ 0.702952 0.0696316 0.179756 0.10932
H_ H_ 0.969739 0.0817957 0.188632 0.10932
H_ H_ 0.529503 0.0910965 0.177849 0.10932
H_ H_ 0.799153 0.0622897 0.178333 0.10932
H_ H_ 0.575475 0.140307 0.31148 0.10932
H_ H_ 0.804415 0.150905 0.302224 0.10932
H_ H_ 0.554807 0.160192 0.180501 0.10932
H_ H_ 0.833369 0.12304 0.183298 0.10932
H_ H_ 0.543754 0.0773701 0.310674 0.10932
H_ H_ 0.771694 0.0879988 0.305101 0.10932
H_ H_ 0.625123 0.191569 0.356185 0.10932
H_ H_ 0.862173 0.17846 0.358029 0.10932
H_ H_ 0.634744 0.317326 0.353421 0.10932
H_ H_ 0.891553 0.303417 0.365147 0.10932
H_ H_ 0.631404 0.320541 0.432715 0.10932
H_ H_ 0.889817 0.30176 0.441435 0.10932
H_ H_ 0.620559 0.190479 0.431889 0.10932
H_ H_ 0.862134 0.172857 0.434866 0.10932
H_ H_ 0.630284 0.185316 0.13773 0.10932
H_ H_ 0.858632 0.303478 0.134633 0.10932
H_ H_ 0.61612 0.314256 0.137595 0.10932
H_ H_ 0.891339 0.182235 0.149386 0.10932
H_ H_ 0.605861 0.309786 0.0575497 0.10932
H_ H_ 0.895557 0.175997 0.0717612 0.10932
H_ H_ 0.6317 0.181703 0.059257 0.10932
H_ H_ 0.853311 0.294403 0.0594954 0.10932
C_ C_ 0.566379 0.343934 0.247988 -0.02249
C_ C_ 0.818164 0.341115 0.251515 -0.02249
C_ C_ 0.513331 0.45557 0.249657 -0.02249
C_ C_ 0.771662 0.459512 0.246697 -0.02249
C_ C_ 0.535615 0.39386 0.21038 -0.11473
C_ C_ 0.80428 0.404695 0.214246 -0.11473
C_ C_ 0.558788 0.363914 0.286312 -0.11473
C_ C_ 0.798851 0.353133 0.284934 -0.11473
C_ C_ 0.55525 0.360079 0.209704 -0.11473
C_ C_ 0.820767 0.368241 0.217724 -0.11473
C_ C_ 0.529625 0.414102 0.24858 -0.02249
C_ C_ 0.787315 0.418269 0.248627 -0.02249
C_ C_ 0.58602 0.30606 0.247139 0.6875
C_ C_ 0.836536 0.302899 0.252271 0.6875
C_ C_ 0.538791 0.39642 0.285663 -0.11473
C_ C_ 0.786422 0.393615 0.285155 -0.11473
C_ C_ 0.684665 0.347482 0.243193 -0.02249
C_ C_ 0.928032 0.351093 0.257366 -0.02249
C_ C_ 0.739342 0.461389 0.242547 -0.02249
C_ C_ 0.980782 0.461701 0.264651 -0.02249
C_ C_ 0.705517 0.406692 0.279628 -0.11473
C_ C_ 0.964708 0.39425 0.296159 -0.11473
C_ C_ 0.698081 0.363801 0.205276 -0.11473
C_ C_ 0.929275 0.378955 0.223479 -0.11473
C_ C_ 0.689021 0.370398 0.279735 -0.11473
C_ C_ 0.945034 0.359117 0.293861 -0.11473
C_ C_ 0.719808 0.422521 0.243113 -0.02249
C_ C_ 0.964132 0.422971 0.261899 -0.02249
C_ C_ 0.667441 0.308206 0.241759 0.6875
C_ C_ 0.911935 0.311171 0.254677 0.6875
C_ C_ 0.715099 0.400803 0.205821 -0.11473
C_ C_ 0.949163 0.412173 0.224475 -0.11473
C_ C_ 0.677516 0.144929 0.243144 -0.02249
C_ C_ 0.941907 0.153182 0.255305 -0.02249
C_ C_ 0.730546 0.0330241 0.243612 -0.02249
C_ C_ 0.989071 0.0349141 0.254785 -0.02249
C_ C_ 0.708989 0.0960711 0.281275 -0.11473
C_ C_ 0.963423 0.0930934 0.293689 -0.11473
C_ C_ 0.682889 0.123606 0.205863 -0.11473
C_ C_ 0.948116 0.133764 0.21781 -0.11473
C_ C_ 0.686913 0.128841 0.281053 -0.11473
C_ C_ 0.947815 0.130827 0.294016 -0.11473
C_ C_ 0.714224 0.0732334 0.244318 -0.02249
C_ C_ 0.971445 0.0759111 0.255374 -0.02249
C_ C_ 0.663416 0.186004 0.242204 0.6875
C_ C_ 0.919236 0.188147 0.25566 0.6875
C_ C_ 0.701809 0.087637 0.206208 -0.11473
C_ C_ 0.965716 0.097933 0.21743 -0.11473
C_ C_ 0.567559 0.153653 0.24583 -0.02249
C_ C_ 0.815689 0.145559 0.240902 -0.02249
C_ C_ 0.518526 0.0379627 0.2447 -0.02249
C_ C_ 0.762113 0.0341122 0.240935 -0.02249
C_ C_ 0.537107 0.102876 0.208644 -0.11473
C_ C_ 0.797372 0.0825751 0.203857 -0.11473
C_ C_ 0.564107 0.130258 0.283017 -0.11473
C_ C_ 0.799688 0.133673 0.27491 -0.11473
C_ C_ 0.552947 0.140845 0.208952 -0.11473
C_ C_ 0.815993 0.117671 0.205683 -0.11473
C_ C_ 0.534112 0.0787648 0.244286 -0.02249
C_ C_ 0.779263 0.0734062 0.238353 -0.02249
C_ C_ 0.586193 0.192031 0.246386 0.6875
C_ C_ 0.83791 0.181504 0.244417 0.6875
C_ C_ 0.547257 0.0938987 0.282539 -0.11473
C_ C_ 0.782339 0.0981027 0.274363 -0.11473
C_ C_ 0.628368 0.219662 0.373443 0.17695
C_ C_ 0.868957 0.204251 0.376816 0.17695
C_ C_ 0.627832 0.290811 0.368791 0.17695
C_ C_ 0.882229 0.275066 0.380858 0.17695
C_ C_ 0.628355 0.293658 0.414378 -0.11473
C_ C_ 0.884479 0.272419 0.424778 -0.11473
C_ C_ 0.623931 0.257766 0.438922 0.23465
C_ C_ 0.875017 0.236435 0.445178 0.23465
C_ C_ 0.626271 0.219854 0.41636 -0.11473
C_ C_ 0.866024 0.202494 0.420795 -0.11473
C_ C_ 0.629651 0.213491 0.119837 0.17695
C_ C_ 0.866704 0.275888 0.122111 0.17695
C_ C_ 0.617761 0.284312 0.118778 0.17695
C_ C_ 0.885034 0.206935 0.128593 0.17695
C_ C_ 0.613988 0.283443 0.074448 -0.11473
C_ C_ 0.889045 0.204415 0.0861797 -0.11473
C_ C_ 0.619625 0.246106 0.0520643 0.23465
C_ C_ 0.877244 0.23672 0.0596011 0.23465
C_ C_ 0.626405 0.211102 0.0757483 -0.11473
C_ C_ 0.866204 0.27275 0.0773693 -0.11473
C_ C_ 0.530654 0.49227 0.257243 0.05793
C_ C_ 0.787179 0.498334 0.247403 0.05793
C_ C_ 0.716081 0.995312 0.252953 0.05793
C_ C_ 0.974618 0.998686 0.266475 0.05793
Br Br 0.574298 0.486643 0.25902 -0.17191
Br Br 0.830128 0.497061 0.258032 -0.17191
Br Br 0.675146 -0.003932999999999964 0.270251 -0.17191
Br Br 0.931127 -0.0019379999999999953 0.280917 -0.17191
N_ N_ 0.627797 0.253821 0.348485 -0.272
N_ N_ 0.874974 0.239795 0.357766 -0.272
N_ N_ 0.620908 0.259017 0.483476 -0.12501
N_ N_ 0.873669 0.231481 0.489449 -0.12501
N_ N_ 0.62703 0.250464 0.139738 -0.272
N_ N_ 0.87851 0.245363 0.14598 -0.272
N_ N_ 0.615499 0.24271 0.00720793 -0.12501
N_ N_ 0.880527 0.23292 0.0156012 -0.12501
O_ O_ 0.593901 0.291436 0.213276 -0.60745
O_ O_ 0.843671 0.283243 0.219826 -0.60745
O_ O_ 0.599424 0.294545 0.281035 -0.60745
O_ O_ 0.844681 0.289475 0.288232 -0.60745
O_ O_ 0.660876 0.291178 0.275373 -0.60745
O_ O_ 0.905233 0.291605 0.28788 -0.60745
O_ O_ 0.658144 0.291886 0.207066 -0.60745
O_ O_ 0.904683 0.295283 0.22019 -0.60745
O_ O_ 0.652491 0.203007 0.275474 -0.60745
O_ O_ 0.906891 0.198384 0.288827 -0.60745
O_ O_ 0.656473 0.201127 0.2069 -0.60745
O_ O_ 0.913815 0.209935 0.223134 -0.60745
O_ O_ 0.600143 0.202761 0.213716 -0.60745
O_ O_ 0.851021 0.19441 0.211513 -0.60745
O_ O_ 0.593746 0.208296 0.279955 -0.60745
O_ O_ 0.844491 0.196189 0.280597 -0.60745
Zn Zn 0.625286 0.251277 0.782072 0.9476
Zn Zn 0.876483 0.254754 0.786636 0.9476
Zn Zn 0.624846 0.252688 0.70945 0.9476
Zn Zn 0.87346 0.251662 0.718677 0.9476
H_ H_ 0.533583 0.421866 0.676975 0.10932
H_ H_ 0.782903 0.423318 0.687607 0.10932
H_ H_ 0.567708 0.356551 0.80695 0.10932
H_ H_ 0.811333 0.355719 0.822738 0.10932
H_ H_ 0.56591 0.361964 0.673031 0.10932
H_ H_ 0.821801 0.364218 0.687765 0.10932
H_ H_ 0.546532 0.42608 0.807064 0.10932
H_ H_ 0.780792 0.415857 0.822375 0.10932
H_ H_ 0.71898 0.410517 0.824529 0.10932
H_ H_ 0.979546 0.413007 0.81499 0.10932
H_ H_ 0.679441 0.361483 0.6824 0.10932
H_ H_ 0.92367 0.363948 0.687396 0.10932
H_ H_ 0.689404 0.345207 0.816959 0.10932
H_ H_ 0.944661 0.349712 0.819015 0.10932
H_ H_ 0.708321 0.422928 0.687275 0.10932
H_ H_ 0.956679 0.427847 0.685579 0.10932
H_ H_ 0.723971 0.0922152 0.818193 0.10932
H_ H_ 0.959472 0.0764283 0.810008 0.10932
H_ H_ 0.681246 0.147245 0.687855 0.10932
H_ H_ 0.933299 0.149716 0.682709 0.10932
H_ H_ 0.689342 0.150866 0.824009 0.10932
H_ H_ 0.923891 0.133347 0.813591 0.10932
H_ H_ 0.705208 0.0772943 0.686556 0.10932
H_ H_ 0.961605 0.0851364 0.680055 0.10932
H_ H_ 0.530284 0.0900226 0.675595 0.10932
H_ H_ 0.775976 0.0938085 0.689128 0.10932
H_ H_ 0.558885 0.155923 0.812237 0.10932
H_ H_ 0.809599 0.155639 0.819972 0.10932
H_ H_ 0.561018 0.154984 0.675902 0.10932
H_ H_ 0.810988 0.147619 0.682836 0.10932
H_ H_ 0.530723 0.0903657 0.814194 0.10932
H_ H_ 0.781839 0.091477 0.823263 0.10932
H_ H_ 0.617274 0.319865 0.848986 0.10932
H_ H_ 0.919276 0.241376 0.868599 0.10932
H_ H_ 0.627945 0.193778 0.860798 0.10932
H_ H_ 0.82688 0.271586 0.858583 0.10932
H_ H_ 0.639319 0.200673 0.934747 0.10932
H_ H_ 0.822175 0.26283 0.934101 0.10932
H_ H_ 0.621866 0.328462 0.928585 0.10932
H_ H_ 0.91457 0.236739 0.945796 0.10932
H_ H_ 0.612826 0.184182 0.643128 0.10932
H_ H_ 0.860672 0.314356 0.649926 0.10932
H_ H_ 0.641951 0.305876 0.630604 0.10932
H_ H_ 0.876311 0.186607 0.642194 0.10932
H_ H_ 0.650397 0.296869 0.555145 0.10932
H_ H_ 0.873673 0.18934 0.561192 0.10932
H_ H_ 0.615594 0.168833 0.5691 0.10932
H_ H_ 0.862776 0.322348 0.571607 0.10932
C_ C_ 0.564702 0.348835 0.740139 -0.02249
C_ C_ 0.817778 0.35285 0.755753 -0.02249
C_ C_ 0.516735 0.46569 0.743337 -0.02249
C_ C_ 0.762936 0.463849 0.754995 -0.02249
C_ C_ 0.538165 0.404795 0.705535 -0.11473
C_ C_ 0.790909 0.407911 0.71717 -0.11473
C_ C_ 0.558521 0.36915 0.778811 -0.11473
C_ C_ 0.806958 0.37203 0.793898 -0.11473
C_ C_ 0.557022 0.370236 0.703748 -0.11473
C_ C_ 0.810811 0.374309 0.716159 -0.11473
C_ C_ 0.536232 0.427272 0.741673 -0.02249
C_ C_ 0.779679 0.424866 0.755571 -0.02249
C_ C_ 0.581497 0.309713 0.738095 0.6875
C_ C_ 0.837404 0.314299 0.755578 0.6875
C_ C_ 0.547116 0.409304 0.778439 -0.11473
C_ C_ 0.787485 0.404485 0.793175 -0.11473
C_ C_ 0.68083 0.348901 0.751314 -0.02249
C_ C_ 0.933147 0.351308 0.75341 -0.02249
C_ C_ 0.731839 0.464008 0.754548 -0.02249
C_ C_ 0.988365 0.461901 0.747685 -0.02249
C_ C_ 0.71023 0.400938 0.792408 -0.11473
C_ C_ 0.969347 0.399349 0.78665 -0.11473
C_ C_ 0.68567 0.374123 0.714898 -0.11473
C_ C_ 0.939074 0.370757 0.713502 -0.11473
C_ C_ 0.694629 0.361662 0.790103 -0.11473
C_ C_ 0.949045 0.364843 0.788142 -0.11473
C_ C_ 0.714808 0.424315 0.755395 -0.02249
C_ C_ 0.969821 0.422745 0.749658 -0.02249
C_ C_ 0.660121 0.314661 0.747472 0.6875
C_ C_ 0.913311 0.312525 0.756139 0.6875
C_ C_ 0.702313 0.40875 0.717755 -0.11473
C_ C_ 0.955456 0.408093 0.713845 -0.11473
C_ C_ 0.680258 0.153053 0.754786 -0.02249
C_ C_ 0.931571 0.15227 0.748892 -0.02249
C_ C_ 0.734333 0.0397505 0.754908 -0.02249
C_ C_ 0.980857 0.0386167 0.746467 -0.02249
C_ C_ 0.711097 0.100323 0.79224 -0.11473
C_ C_ 0.951948 0.0930804 0.78341 -0.11473
C_ C_ 0.687416 0.133067 0.716877 -0.11473
C_ C_ 0.939197 0.133858 0.710673 -0.11473
C_ C_ 0.694248 0.1367 0.792887 -0.11473
C_ C_ 0.93739 0.130054 0.785137 -0.11473
C_ C_ 0.717415 0.0798515 0.75427 -0.02249
C_ C_ 0.962133 0.0767548 0.746022 -0.02249
C_ C_ 0.66057 0.189471 0.754957 0.6875
C_ C_ 0.912275 0.191497 0.750571 0.6875
C_ C_ 0.704261 0.0938511 0.716161 -0.11473
C_ C_ 0.953021 0.0962446 0.709018 -0.11473
C_ C_ 0.562499 0.159337 0.744642 -0.02249
C_ C_ 0.814274 0.157172 0.751798 -0.02249
C_ C_ 0.515698 0.0423511 0.746601 -0.02249
C_ C_ 0.766315 0.040808 0.754009 -0.02249
C_ C_ 0.537766 0.104229 0.706258 -0.11473
C_ C_ 0.786973 0.103178 0.716077 -0.11473
C_ C_ 0.555952 0.139193 0.783902 -0.11473
C_ C_ 0.806034 0.140037 0.790825 -0.11473
C_ C_ 0.554399 0.14157 0.705961 -0.11473
C_ C_ 0.805842 0.13664 0.714591 -0.11473
C_ C_ 0.530536 0.0838317 0.744567 -0.02249
C_ C_ 0.783644 0.0813228 0.755076 -0.02249
C_ C_ 0.582193 0.196439 0.74435 0.6875
C_ C_ 0.835005 0.193877 0.749308 0.6875
C_ C_ 0.537039 0.104267 0.784069 -0.11473
C_ C_ 0.791467 0.10078 0.793122 -0.11473
C_ C_ 0.616471 0.293382 0.869596 0.17695
C_ C_ 0.897966 0.243428 0.88187 0.17695
C_ C_ 0.62334 0.222243 0.875109 0.17695
C_ C_ 0.846559 0.260939 0.875617 0.17695
C_ C_ 0.629331 0.225789 0.917777 -0.11473
C_ C_ 0.843984 0.259277 0.919203 -0.11473
C_ C_ 0.625289 0.262807 0.938783 0.23465
C_ C_ 0.868517 0.248927 0.944738 0.23465
C_ C_ 0.620676 0.29806 0.913361 -0.11473
C_ C_ 0.895628 0.244405 0.925644 -0.11473
C_ C_ 0.621932 0.206304 0.623784 0.17695
C_ C_ 0.86459 0.286123 0.631139 0.17695
C_ C_ 0.634067 0.276625 0.616597 0.17695
C_ C_ 0.874998 0.216224 0.626477 0.17695
C_ C_ 0.637849 0.272471 0.573036 -0.11473
C_ C_ 0.873176 0.216524 0.58004 -0.11473
C_ C_ 0.630366 0.234284 0.552598 0.23465
C_ C_ 0.871303 0.255569 0.559036 0.23465
C_ C_ 0.622108 0.199709 0.580233 -0.11473
C_ C_ 0.865908 0.289249 0.585063 -0.11473
C_ C_ 0.530333 0.506455 0.746631 0.05793
C_ C_ 0.78007 0.501093 0.754858 0.05793
C_ C_ 0.719012 0.00158516 0.759085 0.05793
C_ C_ 0.967049 0.00035999999999991594 0.745067 0.05793
Br Br 0.572199 0.514728 0.733643 -0.17191
Br Br 0.823888 0.503176 0.757764 -0.17191
Br Br 0.675163 -0.0026450000000000085 0.761951 -0.17191
Br Br 0.924334 -0.0005030000000000312 0.73586 -0.17191
N_ N_ 0.619213 0.256119 0.850866 -0.272
N_ N_ 0.873443 0.253234 0.85842 -0.272
N_ N_ 0.627546 0.267734 0.982805 -0.12501
N_ N_ 0.866241 0.254221 0.988967 -0.12501
N_ N_ 0.62495 0.245295 0.640453 -0.272
N_ N_ 0.871371 0.251059 0.65043 -0.272
N_ N_ 0.631757 0.230713 0.507161 -0.12501
N_ N_ 0.867247 0.259993 0.514398 -0.12501
O_ O_ 0.591278 0.297968 0.702088 -0.60745
O_ O_ 0.843457 0.29685 0.720969 -0.60745
O_ O_ 0.592338 0.293453 0.771332 -0.60745
O_ O_ 0.843174 0.295375 0.788856 -0.60745
O_ O_ 0.65348 0.2977 0.78089 -0.60745
O_ O_ 0.90892 0.29363 0.790667 -0.60745
O_ O_ 0.656542 0.29548 0.713158 -0.60745
O_ O_ 0.903364 0.297756 0.723098 -0.60745
O_ O_ 0.656171 0.207688 0.788982 -0.60745
O_ O_ 0.90616 0.208635 0.78493 -0.60745
O_ O_ 0.656664 0.206916 0.720643 -0.60745
O_ O_ 0.904663 0.209344 0.718332 -0.60745
O_ O_ 0.592846 0.208319 0.710553 -0.60745
O_ O_ 0.841475 0.208878 0.713102 -0.60745
O_ O_ 0.593688 0.208894 0.779008 -0.60745
O_ O_ 0.845225 0.209967 0.783523 -0.60745
Zn Zn 0.623098 0.746845 0.285877 0.9476
Zn Zn 0.875201 0.751567 0.283149 0.9476
Zn Zn 0.623704 0.74282 0.213919 0.9476
Zn Zn 0.874906 0.750188 0.211707 0.9476
H_ H_ 0.531144 0.912349 0.1798 0.10932
H_ H_ 0.775902 0.908723 0.178466 0.10932
H_ H_ 0.57647 0.858385 0.310603 0.10932
H_ H_ 0.817603 0.857127 0.312358 0.10932
H_ H_ 0.54637 0.839701 0.180495 0.10932
H_ H_ 0.803408 0.840963 0.178693 0.10932
H_ H_ 0.55083 0.922334 0.312074 0.10932
H_ H_ 0.77966 0.913532 0.309573 0.10932
H_ H_ 0.720939 0.908967 0.31691 0.10932
H_ H_ 0.968432 0.910433 0.322965 0.10932
H_ H_ 0.677634 0.854252 0.184329 0.10932
H_ H_ 0.949757 0.844526 0.187011 0.10932
H_ H_ 0.691604 0.845195 0.317332 0.10932
H_ H_ 0.931946 0.855693 0.319857 0.10932
H_ H_ 0.709868 0.918598 0.183125 0.10932
H_ H_ 0.975941 0.913772 0.18784 0.10932
H_ H_ 0.717641 0.578626 0.314959 0.10932
H_ H_ 0.976723 0.597912 0.326682 0.10932
H_ H_ 0.689092 0.643489 0.181616 0.10932
H_ H_ 0.914437 0.625909 0.198477 0.10932
H_ H_ 0.693648 0.646773 0.319712 0.10932
H_ H_ 0.958185 0.665849 0.315142 0.10932
H_ H_ 0.722071 0.583303 0.185069 0.10932
H_ H_ 0.947202 0.564065 0.201924 0.10932
H_ H_ 0.538873 0.569191 0.189238 0.10932
H_ H_ 0.788988 0.579034 0.178175 0.10932
H_ H_ 0.545291 0.655366 0.317368 0.10932
H_ H_ 0.8155 0.647239 0.31063 0.10932
H_ H_ 0.56333 0.634993 0.186934 0.10932
H_ H_ 0.817775 0.641433 0.174599 0.10932
H_ H_ 0.526795 0.586283 0.321656 0.10932
H_ H_ 0.785346 0.586788 0.310337 0.10932
H_ H_ 0.632093 0.68154 0.356987 0.10932
H_ H_ 0.824933 0.749158 0.354531 0.10932
H_ H_ 0.621858 0.813609 0.363169 0.10932
H_ H_ 0.919365 0.743013 0.364617 0.10932
H_ H_ 0.630493 0.805896 0.439521 0.10932
H_ H_ 0.917809 0.740453 0.440818 0.10932
H_ H_ 0.627077 0.676889 0.435727 0.10932
H_ H_ 0.820848 0.740271 0.433416 0.10932
H_ H_ 0.571787 0.745355 0.138799 0.10932
H_ H_ 0.89637 0.688328 0.13396 0.10932
H_ H_ 0.668518 0.738235 0.139557 0.10932
H_ H_ 0.868924 0.815747 0.137217 0.10932
H_ H_ 0.668348 0.738612 0.0635088 0.10932
H_ H_ 0.870285 0.821743 0.0622222 0.10932
H_ H_ 0.573008 0.760144 0.0659141 0.10932
H_ H_ 0.901239 0.696289 0.0593898 0.10932
C_ C_ 0.564534 0.842315 0.246823 -0.02249
C_ C_ 0.814104 0.844551 0.245672 -0.02249
C_ C_ 0.52079 0.96191 0.248279 -0.02249
C_ C_ 0.763708 0.958749 0.243641 -0.02249
C_ C_ 0.539033 0.899826 0.210117 -0.11473
C_ C_ 0.785302 0.897116 0.20683 -0.11473
C_ C_ 0.563614 0.866078 0.284108 -0.11473
C_ C_ 0.807014 0.865502 0.28308 -0.11473
C_ C_ 0.546807 0.857872 0.210454 -0.11473
C_ C_ 0.800601 0.85923 0.206777 -0.11473
C_ C_ 0.536889 0.921906 0.246887 -0.02249
C_ C_ 0.781347 0.919825 0.243356 -0.02249
C_ C_ 0.580244 0.800413 0.247023 0.6875
C_ C_ 0.83276 0.805641 0.244499 0.6875
C_ C_ 0.550539 0.905184 0.282826 -0.11473
C_ C_ 0.791235 0.902815 0.281281 -0.11473
C_ C_ 0.680417 0.84611 0.249975 -0.02249
C_ C_ 0.935731 0.845551 0.251493 -0.02249
C_ C_ 0.732652 0.957035 0.251259 -0.02249
C_ C_ 0.98855 0.960231 0.259244 -0.02249
C_ C_ 0.712041 0.896321 0.287408 -0.11473
C_ C_ 0.96078 0.900921 0.291315 -0.11473
C_ C_ 0.688238 0.866195 0.211973 -0.11473
C_ C_ 0.948648 0.862693 0.214602 -0.11473
C_ C_ 0.693525 0.862209 0.28737 -0.11473
C_ C_ 0.940142 0.867964 0.28926 -0.11473
C_ C_ 0.717537 0.917391 0.250451 -0.02249
C_ C_ 0.970996 0.920642 0.254208 -0.02249
C_ C_ 0.659713 0.808172 0.250204 0.6875
C_ C_ 0.91631 0.809179 0.251565 0.6875
C_ C_ 0.705242 0.902922 0.211836 -0.11473
C_ C_ 0.96487 0.901689 0.215538 -0.11473
C_ C_ 0.685996 0.651221 0.249669 -0.02249
C_ C_ 0.932832 0.650385 0.257839 -0.02249
C_ C_ 0.739307 0.537791 0.250413 -0.02249
C_ C_ 0.981051 0.536792 0.267157 -0.02249
C_ C_ 0.711082 0.594714 0.287218 -0.11473
C_ C_ 0.963558 0.602948 0.297219 -0.11473
C_ C_ 0.698341 0.634489 0.213613 -0.11473
C_ C_ 0.929697 0.62125 0.22558 -0.11473
C_ C_ 0.694511 0.632515 0.287969 -0.11473
C_ C_ 0.949724 0.64125 0.294098 -0.11473
C_ C_ 0.722164 0.579058 0.249277 -0.02249
C_ C_ 0.964238 0.575529 0.26351 -0.02249
C_ C_ 0.664651 0.684865 0.247371 0.6875
C_ C_ 0.915663 0.690159 0.255741 0.6875
C_ C_ 0.717902 0.601096 0.212902 -0.11473
C_ C_ 0.94801 0.58603 0.226342 -0.11473
C_ C_ 0.562231 0.648425 0.253283 -0.02249
C_ C_ 0.818662 0.651177 0.241131 -0.02249
C_ C_ 0.515196 0.530407 0.257499 -0.02249
C_ C_ 0.771066 0.537063 0.248289 -0.02249
C_ C_ 0.541337 0.585568 0.21824 -0.11473
C_ C_ 0.794523 0.592979 0.207307 -0.11473
C_ C_ 0.548171 0.635054 0.290465 -0.11473
C_ C_ 0.810798 0.633431 0.280389 -0.11473
C_ C_ 0.558773 0.622949 0.21673 -0.11473
C_ C_ 0.810136 0.630861 0.204728 -0.11473
C_ C_ 0.534095 0.56821 0.25705 -0.02249
C_ C_ 0.788097 0.576308 0.245397 -0.02249
C_ C_ 0.580454 0.687774 0.251015 0.6875
C_ C_ 0.835298 0.691089 0.24136 0.6875
C_ C_ 0.534812 0.59508 0.29184 -0.11473
C_ C_ 0.793983 0.597919 0.28192 -0.11473
C_ C_ 0.629148 0.709527 0.375502 0.17695
C_ C_ 0.844808 0.745917 0.374056 0.17695
C_ C_ 0.623805 0.782902 0.378968 0.17695
C_ C_ 0.897269 0.744052 0.379689 0.17695
C_ C_ 0.624715 0.780975 0.423261 -0.11473
C_ C_ 0.896605 0.745673 0.424326 -0.11473
C_ C_ 0.627283 0.742524 0.442772 0.23465
C_ C_ 0.868402 0.745457 0.444586 0.23465
C_ C_ 0.626367 0.706336 0.418844 -0.11473
C_ C_ 0.842139 0.745471 0.41891 -0.11473
C_ C_ 0.594575 0.747406 0.122878 0.17695
C_ C_ 0.889238 0.717647 0.118466 0.17695
C_ C_ 0.646818 0.737081 0.121996 0.17695
C_ C_ 0.877133 0.789353 0.121339 0.17695
C_ C_ 0.647452 0.739299 0.0788194 -0.11473
C_ C_ 0.878621 0.79405 0.0781203 -0.11473
C_ C_ 0.621659 0.745822 0.0563289 0.23465
C_ C_ 0.884556 0.759991 0.0541321 0.23465
C_ C_ 0.594863 0.751434 0.0796647 -0.11473
C_ C_ 0.890946 0.720975 0.0751044 -0.11473
C_ C_ 0.53485 1.000608057 0.243956 0.05793
C_ C_ 0.778826 0.99623 0.239404 0.05793
C_ C_ 0.723639 0.5003 0.238959 0.05793
C_ C_ 0.965495 0.499829 0.27097 0.05793
Br Br 0.57556 1.00193956 0.228697 -0.17191
Br Br 0.821056 0.996017 0.244101 -0.17191
Br Br 0.682244 0.500812 0.221776 -0.17191
Br Br 0.922976 0.497413 0.278317 -0.17191
N_ N_ 0.626897 0.746449 0.355803 -0.272
N_ N_ 0.87195 0.747585 0.355359 -0.272
N_ N_ 0.626354 0.738805 0.488011 -0.12501
N_ N_ 0.865806 0.740719 0.488657 -0.12501
N_ N_ 0.620605 0.738166 0.14318 -0.272
N_ N_ 0.879139 0.75194 0.140469 -0.272
N_ N_ 0.621796 0.74102 0.0118354 -0.12501
N_ N_ 0.882652 0.765193 0.00827334 -0.12501
O_ O_ 0.593136 0.787326 0.214779 -0.60745
O_ O_ 0.845149 0.795894 0.210701 -0.60745
O_ O_ 0.592273 0.789327 0.283101 -0.60745
O_ O_ 0.843668 0.791953 0.278892 -0.60745
O_ O_ 0.654314 0.792031 0.286321 -0.60745
O_ O_ 0.908153 0.792808 0.286336 -0.60745
O_ O_ 0.654978 0.787181 0.216847 -0.60745
O_ O_ 0.908743 0.791403 0.215805 -0.60745
O_ O_ 0.653536 0.698235 0.281681 -0.60745
O_ O_ 0.908108 0.70783 0.288641 -0.60745
O_ O_ 0.654283 0.70016 0.211446 -0.60745
O_ O_ 0.906349 0.703806 0.220703 -0.60745
O_ O_ 0.592764 0.696024 0.216109 -0.60745
O_ O_ 0.840593 0.710351 0.209445 -0.60745
O_ O_ 0.589107 0.704062 0.285419 -0.60745
O_ O_ 0.842134 0.70784 0.276991 -0.60745
Zn Zn 0.623106 0.753703 0.784197 0.9476
Zn Zn 0.878513 0.751432 0.781719 0.9476
Zn Zn 0.622028 0.75379 0.714218 0.9476
Zn Zn 0.875939 0.751036 0.713864 0.9476
H_ H_ 0.536642 0.932379 0.678793 0.10932
H_ H_ 0.780143 0.920016 0.692751 0.10932
H_ H_ 0.562218 0.85451 0.811996 0.10932
H_ H_ 0.818395 0.853983 0.825312 0.10932
H_ H_ 0.569635 0.86704 0.677595 0.10932
H_ H_ 0.816228 0.862998 0.688042 0.10932
H_ H_ 0.530749 0.917772 0.81281 0.10932
H_ H_ 0.788954 0.920602 0.825837 0.10932
H_ H_ 0.720036 0.91403 0.823258 0.10932
H_ H_ 0.973697 0.914045 0.81885 0.10932
H_ H_ 0.67826 0.865146 0.688288 0.10932
H_ H_ 0.932081 0.856763 0.685295 0.10932
H_ H_ 0.696803 0.845178 0.820548 0.10932
H_ H_ 0.939457 0.852338 0.820595 0.10932
H_ H_ 0.706683 0.930035 0.689983 0.10932
H_ H_ 0.9614 0.918237 0.684718 0.10932
H_ H_ 0.698783 0.572779 0.815696 0.10932
H_ H_ 0.95247 0.566629 0.804248 0.10932
H_ H_ 0.694433 0.660038 0.685882 0.10932
H_ H_ 0.949682 0.659313 0.679448 0.10932
H_ H_ 0.676049 0.643799 0.819562 0.10932
H_ H_ 0.919511 0.631436 0.80571 0.10932
H_ H_ 0.722596 0.595275 0.687203 0.10932
H_ H_ 0.980098 0.597332 0.679534 0.10932
H_ H_ 0.520549 0.597206 0.677655 0.10932
H_ H_ 0.78616 0.575642 0.683908 0.10932
H_ H_ 0.55355 0.658295 0.814406 0.10932
H_ H_ 0.807648 0.659124 0.808718 0.10932
H_ H_ 0.546446 0.66313 0.682115 0.10932
H_ H_ 0.813904 0.644155 0.677342 0.10932
H_ H_ 0.534263 0.583956 0.813316 0.10932
H_ H_ 0.773947 0.601622 0.812306 0.10932
H_ H_ 0.595142 0.703117 0.863631 0.10932
H_ H_ 0.891202 0.684663 0.847104 0.10932
H_ H_ 0.63208 0.824958 0.851557 0.10932
H_ H_ 0.870085 0.812621 0.865986 0.10932
H_ H_ 0.634497 0.829924 0.93054 0.10932
H_ H_ 0.871123 0.806628 0.938525 0.10932
H_ H_ 0.592423 0.707776 0.938018 0.10932
H_ H_ 0.895539 0.678016 0.923933 0.10932
H_ H_ 0.62263 0.689754 0.637895 0.10932
H_ H_ 0.891186 0.816155 0.642732 0.10932
H_ H_ 0.630025 0.818021 0.647777 0.10932
H_ H_ 0.871371 0.688297 0.642588 0.10932
H_ H_ 0.639343 0.82571 0.57012 0.10932
H_ H_ 0.87209 0.687323 0.564298 0.10932
H_ H_ 0.614598 0.698999 0.557727 0.10932
H_ H_ 0.899632 0.813666 0.564886 0.10932
C_ C_ 0.564546 0.852914 0.743724 -0.02249
C_ C_ 0.819963 0.85349 0.754835 -0.02249
C_ C_ 0.515762 0.967241 0.746417 -0.02249
C_ C_ 0.767954 0.965795 0.7595 -0.02249
C_ C_ 0.543944 0.915565 0.707923 -0.11473
C_ C_ 0.793753 0.910942 0.721322 -0.11473
C_ C_ 0.552678 0.866326 0.782576 -0.11473
C_ C_ 0.811543 0.869667 0.795969 -0.11473
C_ C_ 0.558933 0.8775 0.70608 -0.11473
C_ C_ 0.811331 0.874948 0.719384 -0.11473
C_ C_ 0.532253 0.927276 0.745168 -0.02249
C_ C_ 0.786306 0.927055 0.759423 -0.02249
C_ C_ 0.583838 0.814152 0.743312 0.6875
C_ C_ 0.83817 0.814595 0.751342 0.6875
C_ C_ 0.537879 0.90547 0.783252 -0.11473
C_ C_ 0.796373 0.908355 0.796583 -0.11473
C_ C_ 0.680306 0.85378 0.756596 -0.02249
C_ C_ 0.934744 0.848635 0.751116 -0.02249
C_ C_ 0.735882 0.964747 0.75769 -0.02249
C_ C_ 0.982579 0.962603 0.749493 -0.02249
C_ C_ 0.711677 0.903206 0.792982 -0.11473
C_ C_ 0.962221 0.902764 0.790557 -0.11473
C_ C_ 0.683537 0.877133 0.719627 -0.11473
C_ C_ 0.937341 0.871579 0.71423 -0.11473
C_ C_ 0.696269 0.865341 0.791694 -0.11473
C_ C_ 0.945032 0.866962 0.790499 -0.11473
C_ C_ 0.719129 0.923915 0.756449 -0.02249
C_ C_ 0.96801 0.922059 0.750217 -0.02249
C_ C_ 0.662732 0.814936 0.753277 0.6875
C_ C_ 0.915023 0.810958 0.7501 0.6875
C_ C_ 0.703635 0.910676 0.719262 -0.11473
C_ C_ 0.95655 0.903974 0.714278 -0.11473
C_ C_ 0.680993 0.656075 0.752488 -0.02249
C_ C_ 0.934881 0.65214 0.744999 -0.02249
C_ C_ 0.73278 0.538887 0.75162 -0.02249
C_ C_ 0.987338 0.539703 0.743251 -0.02249
C_ C_ 0.699832 0.594595 0.78811 -0.11473
C_ C_ 0.951043 0.586103 0.77856 -0.11473
C_ C_ 0.695897 0.642226 0.715402 -0.11473
C_ C_ 0.95154 0.641999 0.708766 -0.11473
C_ C_ 0.684657 0.633207 0.790519 -0.11473
C_ C_ 0.934811 0.624591 0.780533 -0.11473
C_ C_ 0.715689 0.58019 0.75307 -0.02249
C_ C_ 0.968987 0.57922 0.743789 -0.02249
C_ C_ 0.661159 0.694341 0.753097 0.6875
C_ C_ 0.91608 0.68991 0.74573 0.6875
C_ C_ 0.711231 0.6033 0.715697 -0.11473
C_ C_ 0.967457 0.604014 0.706806 -0.11473
C_ C_ 0.556932 0.661988 0.747985 -0.02249
C_ C_ 0.811907 0.657244 0.742644 -0.02249
C_ C_ 0.512728 0.542643 0.7441 -0.02249
C_ C_ 0.764157 0.540109 0.754918 -0.02249
C_ C_ 0.530586 0.607855 0.707931 -0.11473
C_ C_ 0.790704 0.594388 0.71013 -0.11473
C_ C_ 0.551449 0.640807 0.785298 -0.11473
C_ C_ 0.800215 0.644594 0.780818 -0.11473
C_ C_ 0.542955 0.646758 0.709643 -0.11473
C_ C_ 0.804087 0.634185 0.706642 -0.11473
C_ C_ 0.526598 0.585298 0.745057 -0.02249
C_ C_ 0.781455 0.579357 0.75063 -0.02249
C_ C_ 0.581355 0.695596 0.747262 0.6875
C_ C_ 0.831586 0.696334 0.741407 0.6875
C_ C_ 0.535165 0.6022 0.784448 -0.11473
C_ C_ 0.783437 0.607598 0.783559 -0.11473
C_ C_ 0.6034 0.730856 0.878299 0.17695
C_ C_ 0.885012 0.710452 0.868779 0.17695
C_ C_ 0.623038 0.799429 0.871726 0.17695
C_ C_ 0.873538 0.782001 0.877279 0.17695
C_ C_ 0.625719 0.801709 0.916781 -0.11473
C_ C_ 0.876555 0.778723 0.92128 -0.11473
C_ C_ 0.615162 0.769385 0.942607 0.23465
C_ C_ 0.886363 0.740996 0.939179 0.23465
C_ C_ 0.602794 0.733947 0.921618 -0.11473
C_ C_ 0.889124 0.708127 0.911243 -0.11473
C_ C_ 0.625038 0.719405 0.622203 0.17695
C_ C_ 0.887835 0.787835 0.623959 0.17695
C_ C_ 0.628991 0.791781 0.627437 0.17695
C_ C_ 0.869984 0.716997 0.624274 0.17695
C_ C_ 0.632969 0.795963 0.583126 -0.11473
C_ C_ 0.870257 0.715969 0.580914 -0.11473
C_ C_ 0.631049 0.761772 0.557545 0.23465
C_ C_ 0.880554 0.751246 0.559281 0.23465
C_ C_ 0.62325 0.724367 0.57673 -0.11473
C_ C_ 0.891985 0.786519 0.581509 -0.11473
C_ C_ 0.531329 0.00572431 0.742352 0.05793
C_ C_ 0.782982 0.00344349 0.756722 0.05793
C_ C_ 0.716915 0.501676 0.753065 0.05793
C_ C_ 0.971563 0.501966 0.743929 0.05793
Br Br 0.575194 0.00803157 0.750485 -0.17191
Br Br 0.82593 1.00647592 0.764854 -0.17191
Br Br 0.673969 0.504195 0.747981 -0.17191
Br Br 0.92907 0.501586 0.728248 -0.17191
N_ N_ 0.615339 0.7621 0.854814 -0.272
N_ N_ 0.879079 0.747702 0.852579 -0.272
N_ N_ 0.616998 0.771168 0.988318 -0.12501
N_ N_ 0.889939 0.737026 0.982016 -0.12501
N_ N_ 0.62698 0.754109 0.646186 -0.272
N_ N_ 0.876475 0.753898 0.643254 -0.272
N_ N_ 0.629804 0.766952 0.512987 -0.12501
N_ N_ 0.886204 0.75089 0.515738 -0.12501
O_ O_ 0.590591 0.79719 0.710082 -0.60745
O_ O_ 0.84683 0.801701 0.715852 -0.60745
O_ O_ 0.595019 0.800885 0.778261 -0.60745
O_ O_ 0.847477 0.797556 0.78496 -0.60745
O_ O_ 0.654117 0.800368 0.787282 -0.60745
O_ O_ 0.905993 0.796973 0.784202 -0.60745
O_ O_ 0.651585 0.801464 0.720118 -0.60745
O_ O_ 0.908194 0.791816 0.715928 -0.60745
O_ O_ 0.651072 0.708899 0.787018 -0.60745
O_ O_ 0.909535 0.707937 0.780411 -0.60745
O_ O_ 0.655094 0.711941 0.718132 -0.60745
O_ O_ 0.90584 0.704096 0.710727 -0.60745
O_ O_ 0.590957 0.70869 0.712722 -0.60745
O_ O_ 0.840217 0.709854 0.70584 -0.60745
O_ O_ 0.590048 0.713413 0.780856 -0.60745
O_ O_ 0.846405 0.705923 0.774343 -0.60745
_cell_length_a 44.444
_cell_length_b 32.3360000049186
_cell_length_c 31.843999878906452
_cell_angle_alpha 89.99799923859553
_cell_angle_beta 91.13600050494348
_cell_angle_gamma 89.9990006550086
_symmetry_space_group_name_H-M         'P 1'
_symmetry_Int_Tables_number            1
loop_
_symmetry_equiv_pos_as_xyz
   'x, y, z'
                         
loop_
_atom_site_label
_atom_site_type_symbol
_atom_site_fract_x 
_atom_site_fract_y
_atom_site_fract_z
_atom_site_charge
Zn Zn 0.123499 0.249964 0.283413 0.9476
Zn Zn 0.374306 0.248521 0.281782 0.9476
Zn Zn 0.1256 0.251052 0.214388 0.9476
Zn Zn 0.37353 0.241841 0.210129 0.9476
H_ H_ 0.0164683 0.410255 0.194676 0.10932
H_ H_ 0.294769 0.423074 0.184258 0.10932
H_ H_ 0.0744448 0.363802 0.31991 0.10932
H_ H_ 0.288802 0.328126 0.300415 0.10932
H_ H_ 0.0497638 0.34504 0.187963 0.10932
H_ H_ 0.321885 0.355731 0.180502 0.10932
H_ H_ 0.0432978 0.429627 0.319831 0.10932
H_ H_ 0.269154 0.396442 0.311231 0.10932
H_ H_ 0.208101 0.422831 0.312463 0.10932
H_ H_ 0.463558 0.414198 0.3195 0.10932
H_ H_ 0.193817 0.342236 0.178769 0.10932
H_ H_ 0.444997 0.335446 0.18764 0.10932
H_ H_ 0.173837 0.361029 0.308137 0.10932
H_ H_ 0.432859 0.351656 0.317594 0.10932
H_ H_ 0.225881 0.405007 0.180318 0.10932
H_ H_ 0.46502 0.410561 0.183032 0.10932
H_ H_ 0.222568 0.0857754 0.306316 0.10932
H_ H_ 0.473055 0.0876125 0.319908 0.10932
H_ H_ 0.176283 0.138395 0.176995 0.10932
H_ H_ 0.436969 0.144511 0.182146 0.10932
H_ H_ 0.193414 0.150153 0.310702 0.10932
H_ H_ 0.44555 0.153286 0.31754 0.10932
H_ H_ 0.20422 0.0745448 0.176855 0.10932
H_ H_ 0.467893 0.0797119 0.185815 0.10932
H_ H_ 0.0453749 0.0767665 0.178549 0.10932
H_ H_ 0.290415 0.0715512 0.177073 0.10932
H_ H_ 0.0655727 0.138791 0.319747 0.10932
H_ H_ 0.313194 0.14775 0.306801 0.10932
H_ H_ 0.0695067 0.146073 0.183357 0.10932
H_ H_ 0.31467 0.14039 0.173334 0.10932
H_ H_ 0.0315494 0.0809452 0.313406 0.10932
H_ H_ 0.283362 0.0834045 0.309814 0.10932
H_ H_ 0.124118 0.318841 0.359148 0.10932
H_ H_ 0.366809 0.312283 0.356176 0.10932
H_ H_ 0.131211 0.188253 0.357704 0.10932
H_ H_ 0.369013 0.181485 0.349767 0.10932
H_ H_ 0.121073 0.189864 0.433595 0.10932
H_ H_ 0.372383 0.17682 0.428312 0.10932
H_ H_ 0.128929 0.319858 0.433747 0.10932
H_ H_ 0.367575 0.308371 0.43585 0.10932
H_ H_ 0.124157 0.314378 0.130447 0.10932
H_ H_ 0.345539 0.297067 0.135632 0.10932
H_ H_ 0.112879 0.1886 0.147849 0.10932
H_ H_ 0.393459 0.185762 0.142486 0.10932
H_ H_ 0.116879 0.176359 0.0695433 0.10932
H_ H_ 0.395253 0.184922 0.0610916 0.10932
H_ H_ 0.125056 0.305528 0.0522318 0.10932
H_ H_ 0.349944 0.300451 0.0589682 0.10932
C_ C_ 0.0657819 0.3498 0.254062 -0.02249
C_ C_ 0.312802 0.340042 0.244354 -0.02249
C_ C_ 0.012078 0.462068 0.259446 -0.02249
C_ C_ 0.26687 0.458932 0.248779 -0.02249
C_ C_ 0.0319763 0.40087 0.219557 -0.11473
C_ C_ 0.297169 0.405311 0.211318 -0.11473
C_ C_ 0.0639213 0.374172 0.292072 -0.11473
C_ C_ 0.294156 0.35019 0.278228 -0.11473
C_ C_ 0.0493243 0.364526 0.21674 -0.11473
C_ C_ 0.311642 0.366599 0.208778 -0.11473
C_ C_ 0.0288296 0.421256 0.257378 -0.02249
C_ C_ 0.283254 0.417473 0.248908 -0.02249
C_ C_ 0.086222 0.312955 0.252777 0.6875
C_ C_ 0.330461 0.301298 0.243355 0.6875
C_ C_ 0.0440961 0.409024 0.292553 -0.11473
C_ C_ 0.281384 0.389307 0.282068 -0.11473
C_ C_ 0.182744 0.346272 0.243885 -0.02249
C_ C_ 0.429572 0.345148 0.249947 -0.02249
C_ C_ 0.235103 0.458464 0.247143 -0.02249
C_ C_ 0.482054 0.457015 0.246901 -0.02249
C_ C_ 0.203762 0.40569 0.281604 -0.11473
C_ C_ 0.455329 0.401156 0.288614 -0.11473
C_ C_ 0.196651 0.360912 0.207995 -0.11473
C_ C_ 0.44416 0.357536 0.214045 -0.11473
C_ C_ 0.186747 0.368184 0.280815 -0.11473
C_ C_ 0.437047 0.365614 0.288203 -0.11473
C_ C_ 0.216632 0.419614 0.244565 -0.02249
C_ C_ 0.465153 0.418056 0.249518 -0.02249
C_ C_ 0.16336 0.309887 0.244252 0.6875
C_ C_ 0.410629 0.308509 0.24994 0.6875
C_ C_ 0.214624 0.396298 0.20751 -0.11473
C_ C_ 0.458819 0.396332 0.212411 -0.11473
C_ C_ 0.179957 0.148214 0.243793 -0.02249
C_ C_ 0.434221 0.148698 0.250987 -0.02249
C_ C_ 0.233311 0.0344715 0.241575 -0.02249
C_ C_ 0.487795 0.0376645 0.251167 -0.02249
C_ C_ 0.212238 0.0981786 0.278415 -0.11473
C_ C_ 0.464212 0.0996773 0.28894 -0.11473
C_ C_ 0.184648 0.126549 0.205909 -0.11473
C_ C_ 0.44226 0.128113 0.212263 -0.11473
C_ C_ 0.193233 0.132563 0.280694 -0.11473
C_ C_ 0.447723 0.135998 0.288024 -0.11473
C_ C_ 0.215093 0.0747901 0.24239 -0.02249
C_ C_ 0.46969 0.0761392 0.252127 -0.02249
C_ C_ 0.164486 0.188701 0.243681 0.6875
C_ C_ 0.413164 0.18534 0.250389 0.6875
C_ C_ 0.20178 0.090522 0.20492 -0.11473
C_ C_ 0.460183 0.0908402 0.213845 -0.11473
C_ C_ 0.0690223 0.149525 0.25242 -0.02249
C_ C_ 0.316559 0.147714 0.239919 -0.02249
C_ C_ 0.0212798 0.0337892 0.248933 -0.02249
C_ C_ 0.265707 0.0343754 0.243575 -0.02249
C_ C_ 0.0488473 0.0913207 0.209655 -0.11473
C_ C_ 0.292016 0.0904324 0.204944 -0.11473
C_ C_ 0.0585503 0.129981 0.288935 -0.11473
C_ C_ 0.304143 0.134066 0.277468 -0.11473
C_ C_ 0.0634834 0.129055 0.212097 -0.11473
C_ C_ 0.307637 0.128888 0.203057 -0.11473
C_ C_ 0.0399869 0.0706291 0.24745 -0.02249
C_ C_ 0.281318 0.0752527 0.24323 -0.02249
C_ C_ 0.08777 0.18776 0.254906 0.6875
C_ C_ 0.335476 0.186901 0.240497 0.6875
C_ C_ 0.0426005 0.0929281 0.285682 -0.11473
C_ C_ 0.288574 0.0964901 0.279414 -0.11473
C_ C_ 0.126976 0.290354 0.37397 0.17695
C_ C_ 0.365213 0.281871 0.37296 0.17695
C_ C_ 0.128695 0.218049 0.373983 0.17695
C_ C_ 0.365619 0.208133 0.37039 0.17695
C_ C_ 0.126943 0.217991 0.417417 -0.11473
C_ C_ 0.367955 0.207264 0.413279 -0.11473
C_ C_ 0.128387 0.256038 0.441378 0.23465
C_ C_ 0.364733 0.242814 0.438163 0.23465
C_ C_ 0.130744 0.291139 0.416947 -0.11473
C_ C_ 0.364837 0.280546 0.417359 -0.11473
C_ C_ 0.122363 0.28498 0.116327 0.17695
C_ C_ 0.356717 0.272332 0.119041 0.17695
C_ C_ 0.119476 0.212379 0.127673 0.17695
C_ C_ 0.38345 0.210842 0.122042 0.17695
C_ C_ 0.119634 0.206238 0.0829754 -0.11473
C_ C_ 0.386836 0.211036 0.0782147 -0.11473
C_ C_ 0.12081 0.241487 0.0560114 0.23465
C_ C_ 0.373053 0.241642 0.0536256 0.23465
C_ C_ 0.122233 0.280893 0.0732294 -0.11473
C_ C_ 0.359179 0.274561 0.0753265 -0.11473
C_ C_ 0.0279714 0.499896 0.257389 0.05793
C_ C_ 0.282869 0.496633 0.249066 0.05793
C_ C_ 0.218894 -0.002350999999999992 0.250621 0.05793
C_ C_ 0.473214 0.999056 0.255432 0.05793
Br Br 0.0702394 0.501058 0.246433 -0.17191
Br Br 0.326188 0.500492 0.253188 -0.17191
Br Br 0.1752 0.000619651 0.25287 -0.17191
Br Br 0.431465 0.998862 0.269401 -0.17191
N_ N_ 0.126492 0.253713 0.351603 -0.272
N_ N_ 0.367157 0.246507 0.349813 -0.272
N_ N_ 0.13346 0.257702 0.486542 -0.12501
N_ N_ 0.371036 0.240986 0.482942 -0.12501
N_ N_ 0.121844 0.251386 0.14198 -0.272
N_ N_ 0.372819 0.244525 0.141491 -0.272
N_ N_ 0.117133 0.234852 0.0115239 -0.12501
N_ N_ 0.372904 0.235505 0.00844988 -0.12501
O_ O_ 0.0927482 0.296799 0.21755 -0.60745
O_ O_ 0.347819 0.292964 0.213315 -0.60745
O_ O_ 0.0937582 0.294153 0.286845 -0.60745
O_ O_ 0.335601 0.281369 0.277289 -0.60745
O_ O_ 0.153779 0.29575 0.278286 -0.60745
O_ O_ 0.398379 0.296989 0.2835 -0.60745
O_ O_ 0.156751 0.293001 0.210579 -0.60745
O_ O_ 0.407654 0.285041 0.217062 -0.60745
O_ O_ 0.156163 0.205589 0.27754 -0.60745
O_ O_ 0.408822 0.209499 0.281579 -0.60745
O_ O_ 0.15538 0.203658 0.209385 -0.60745
O_ O_ 0.399074 0.192737 0.21609 -0.60745
O_ O_ 0.0933829 0.207755 0.222049 -0.60745
O_ O_ 0.339507 0.205203 0.207111 -0.60745
O_ O_ 0.0971948 0.201384 0.291204 -0.60745
O_ O_ 0.34953 0.200375 0.273779 -0.60745
Zn Zn 0.123919 0.247685 0.781254 0.9476
Zn Zn 0.373212 0.255889 0.778406 0.9476
Zn Zn 0.122419 0.250785 0.713348 0.9476
Zn Zn 0.372612 0.254808 0.709203 0.9476
H_ H_ 0.0192421 0.405117 0.688645 0.10932
H_ H_ 0.281598 0.420138 0.674585 0.10932
H_ H_ 0.0872225 0.367029 0.804276 0.10932
H_ H_ 0.314539 0.361402 0.815114 0.10932
H_ H_ 0.0390791 0.336616 0.688505 0.10932
H_ H_ 0.306857 0.355979 0.679491 0.10932
H_ H_ 0.0618782 0.430053 0.809517 0.10932
H_ H_ 0.282324 0.424663 0.80933 0.10932
H_ H_ 0.212283 0.420032 0.812876 0.10932
H_ H_ 0.478694 0.411756 0.804214 0.10932
H_ H_ 0.178215 0.360431 0.678611 0.10932
H_ H_ 0.425927 0.360286 0.674303 0.10932
H_ H_ 0.194081 0.345769 0.810506 0.10932
H_ H_ 0.454525 0.337189 0.799808 0.10932
H_ H_ 0.207138 0.426346 0.684135 0.10932
H_ H_ 0.460027 0.419674 0.668656 0.10932
H_ H_ 0.210804 0.0737336 0.819064 0.10932
H_ H_ 0.465416 0.0885969 0.808294 0.10932
H_ H_ 0.195999 0.159294 0.690427 0.10932
H_ H_ 0.431426 0.146855 0.673487 0.10932
H_ H_ 0.17406 0.133817 0.820015 0.10932
H_ H_ 0.438388 0.155845 0.80762 0.10932
H_ H_ 0.223045 0.0896586 0.689358 0.10932
H_ H_ 0.461182 0.0828677 0.672714 0.10932
H_ H_ 0.0325071 0.0847002 0.679425 0.10932
H_ H_ 0.288828 0.074425 0.689358 0.10932
H_ H_ 0.0536979 0.158183 0.813013 0.10932
H_ H_ 0.323117 0.15034 0.81738 0.10932
H_ H_ 0.0621117 0.150506 0.678717 0.10932
H_ H_ 0.305102 0.150555 0.683068 0.10932
H_ H_ 0.0213151 0.0976128 0.813109 0.10932
H_ H_ 0.297298 0.0814848 0.822209 0.10932
H_ H_ 0.168866 0.234621 0.85246 0.10932
H_ H_ 0.379859 0.319737 0.848182 0.10932
H_ H_ 0.0818668 0.283023 0.858723 0.10932
H_ H_ 0.373325 0.192171 0.856849 0.10932
H_ H_ 0.0826884 0.273314 0.936858 0.10932
H_ H_ 0.374129 0.193654 0.934105 0.10932
H_ H_ 0.175005 0.240522 0.931917 0.10932
H_ H_ 0.380984 0.326676 0.929234 0.10932
H_ H_ 0.125151 0.184264 0.646256 0.10932
H_ H_ 0.41106 0.271679 0.627957 0.10932
H_ H_ 0.122968 0.311438 0.637385 0.10932
H_ H_ 0.323479 0.221599 0.639716 0.10932
H_ H_ 0.122573 0.308315 0.558285 0.10932
H_ H_ 0.320133 0.213962 0.561901 0.10932
H_ H_ 0.121134 0.176045 0.567726 0.10932
H_ H_ 0.402747 0.282714 0.555275 0.10932
C_ C_ 0.0673901 0.347286 0.745593 -0.02249
C_ C_ 0.312816 0.350532 0.745916 -0.02249
C_ C_ 0.0201683 0.462942 0.751466 -0.02249
C_ C_ 0.263242 0.464818 0.742665 -0.02249
C_ C_ 0.0347538 0.398196 0.713409 -0.11473
C_ C_ 0.286336 0.404356 0.705623 -0.11473
C_ C_ 0.0701644 0.371873 0.78126 -0.11473
C_ C_ 0.306042 0.372409 0.783333 -0.11473
C_ C_ 0.0480042 0.358249 0.712673 -0.11473
C_ C_ 0.30207 0.368434 0.708443 -0.11473
C_ C_ 0.0368809 0.422604 0.750113 -0.02249
C_ C_ 0.279799 0.425914 0.743151 -0.02249
C_ C_ 0.0845715 0.30743 0.743178 0.6875
C_ C_ 0.3329 0.313075 0.746948 0.6875
C_ C_ 0.0546337 0.409913 0.783505 -0.11473
C_ C_ 0.286511 0.405147 0.782012 -0.11473
C_ C_ 0.18158 0.348547 0.746 -0.02249
C_ C_ 0.437435 0.345056 0.738591 -0.02249
C_ C_ 0.231166 0.462603 0.748028 -0.02249
C_ C_ 0.485288 0.463396 0.739333 -0.02249
C_ C_ 0.207278 0.404242 0.783828 -0.11473
C_ C_ 0.468504 0.398761 0.774479 -0.11473
C_ C_ 0.187716 0.370583 0.709139 -0.11473
C_ C_ 0.439591 0.36877 0.70156 -0.11473
C_ C_ 0.192502 0.365623 0.783438 -0.11473
C_ C_ 0.452783 0.35955 0.774551 -0.11473
C_ C_ 0.215522 0.423551 0.746816 -0.02249
C_ C_ 0.471034 0.421058 0.737568 -0.02249
C_ C_ 0.163033 0.309901 0.746004 0.6875
C_ C_ 0.415798 0.309177 0.739852 0.6875
C_ C_ 0.205433 0.406362 0.709486 -0.11473
C_ C_ 0.458759 0.403525 0.699413 -0.11473
C_ C_ 0.182839 0.15173 0.755728 -0.02249
C_ C_ 0.427877 0.153579 0.739977 -0.02249
C_ C_ 0.236535 0.0390004 0.755048 -0.02249
C_ C_ 0.483806 0.0406277 0.745759 -0.02249
C_ C_ 0.203388 0.0895161 0.790516 -0.11473
C_ C_ 0.455681 0.0997217 0.779622 -0.11473
C_ C_ 0.198278 0.139731 0.718372 -0.11473
C_ C_ 0.43666 0.133543 0.703213 -0.11473
C_ C_ 0.1876 0.127947 0.791903 -0.11473
C_ C_ 0.441162 0.139459 0.778369 -0.11473
C_ C_ 0.219111 0.0783302 0.754938 -0.02249
C_ C_ 0.465287 0.0798686 0.743939 -0.02249
C_ C_ 0.161215 0.187343 0.75222 0.6875
C_ C_ 0.40912 0.191632 0.739006 0.6875
C_ C_ 0.2146 0.101322 0.71862 -0.11473
C_ C_ 0.454865 0.0966529 0.703775 -0.11473
C_ C_ 0.0599109 0.15917 0.745536 -0.02249
C_ C_ 0.31541 0.156579 0.751255 -0.02249
C_ C_ 0.0130765 0.0403385 0.749838 -0.02249
C_ C_ 0.268857 0.0401688 0.761276 -0.02249
C_ C_ 0.0379264 0.100299 0.710044 -0.11473
C_ C_ 0.293885 0.0940689 0.719018 -0.11473
C_ C_ 0.0470125 0.145426 0.782447 -0.11473
C_ C_ 0.311111 0.137421 0.790117 -0.11473
C_ C_ 0.0539008 0.137889 0.708596 -0.11473
C_ C_ 0.305179 0.134949 0.715165 -0.11473
C_ C_ 0.0286188 0.0807507 0.748748 -0.02249
C_ C_ 0.285857 0.0793016 0.757583 -0.02249
C_ C_ 0.0786606 0.197446 0.746147 0.6875
C_ C_ 0.332936 0.196182 0.747693 0.6875
C_ C_ 0.0341773 0.104473 0.785841 -0.11473
C_ C_ 0.296534 0.098801 0.793016 -0.11473
C_ C_ 0.150841 0.244171 0.872149 0.17695
C_ C_ 0.379711 0.293085 0.867929 0.17695
C_ C_ 0.100048 0.263484 0.873445 0.17695
C_ C_ 0.372753 0.221572 0.871475 0.17695
C_ C_ 0.0995478 0.259205 0.917748 -0.11473
C_ C_ 0.373837 0.222858 0.91712 -0.11473
C_ C_ 0.127823 0.248199 0.940883 0.23465
C_ C_ 0.377186 0.261141 0.937518 0.23465
C_ C_ 0.152605 0.240473 0.916846 -0.11473
C_ C_ 0.38125 0.297125 0.912026 -0.11473
C_ C_ 0.122348 0.210153 0.62701 0.17695
C_ C_ 0.390212 0.260711 0.614602 0.17695
C_ C_ 0.121624 0.282291 0.62138 0.17695
C_ C_ 0.342571 0.231095 0.622399 0.17695
C_ C_ 0.124051 0.28051 0.577234 -0.11473
C_ C_ 0.33733 0.234219 0.577427 -0.11473
C_ C_ 0.122272 0.241603 0.557473 0.23465
C_ C_ 0.359339 0.252542 0.553196 0.23465
C_ C_ 0.121562 0.206318 0.58311 -0.11473
C_ C_ 0.385487 0.267426 0.571698 -0.11473
C_ C_ 0.0350956 0.500846 0.75644 0.05793
C_ C_ 0.27963 0.50232 0.744421 0.05793
C_ C_ 0.222389 0.00248848 0.757254 0.05793
C_ C_ 0.468609 1.00374465 0.74455 0.05793
Br Br 0.076615 0.502876 0.766979 -0.17191
Br Br 0.322139 0.501856 0.736936 -0.17191
Br Br 0.179747 -0.0011320000000000219 0.745293 -0.17191
Br Br 0.425071 1.00329063 0.748862 -0.17191
N_ N_ 0.125156 0.254867 0.852525 -0.272
N_ N_ 0.373452 0.255591 0.848735 -0.272
N_ N_ 0.131714 0.254723 0.985285 -0.12501
N_ N_ 0.379529 0.264174 0.983303 -0.12501
N_ N_ 0.126323 0.247481 0.644346 -0.272
N_ N_ 0.366525 0.250329 0.640677 -0.272
N_ N_ 0.116673 0.239098 0.511806 -0.12501
N_ N_ 0.353972 0.257513 0.509824 -0.12501
O_ O_ 0.0886867 0.288182 0.709351 -0.60745
O_ O_ 0.338738 0.292571 0.715042 -0.60745
O_ O_ 0.0965378 0.293049 0.775532 -0.60745
O_ O_ 0.345711 0.301632 0.781924 -0.60745
O_ O_ 0.156362 0.292115 0.781435 -0.60745
O_ O_ 0.407871 0.295745 0.776104 -0.60745
O_ O_ 0.150681 0.298706 0.711474 -0.60745
O_ O_ 0.400584 0.300318 0.707447 -0.60745
O_ O_ 0.153006 0.203278 0.785511 -0.60745
O_ O_ 0.401268 0.206463 0.772645 -0.60745
O_ O_ 0.155443 0.208355 0.717978 -0.60745
O_ O_ 0.40419 0.209019 0.704585 -0.60745
O_ O_ 0.0945219 0.20092 0.71457 -0.60745
O_ O_ 0.340834 0.210245 0.712555 -0.60745
O_ O_ 0.0881818 0.212198 0.780371 -0.60745
O_ O_ 0.33929 0.214848 0.782001 -0.60745
Zn Zn 0.128904 0.744182 0.289754 0.9476
Zn Zn 0.378366 0.751703 0.288338 0.9476
Zn Zn 0.125898 0.746014 0.217185 0.9476
Zn Zn 0.37802 0.750926 0.217615 0.9476
H_ H_ 0.0434406 0.921127 0.190148 0.10932
H_ H_ 0.292095 0.921275 0.183674 0.10932
H_ H_ 0.0599282 0.839747 0.320169 0.10932
H_ H_ 0.310597 0.845642 0.31615 0.10932
H_ H_ 0.0694821 0.851959 0.186093 0.10932
H_ H_ 0.320001 0.856209 0.183792 0.10932
H_ H_ 0.0279513 0.901234 0.321665 0.10932
H_ H_ 0.281505 0.912369 0.314781 0.10932
H_ H_ 0.211197 0.921329 0.314803 0.10932
H_ H_ 0.475652 0.911567 0.318043 0.10932
H_ H_ 0.191732 0.846254 0.182477 0.10932
H_ H_ 0.427576 0.864089 0.186698 0.10932
H_ H_ 0.181593 0.857622 0.317795 0.10932
H_ H_ 0.440486 0.853887 0.317733 0.10932
H_ H_ 0.226164 0.907075 0.18208 0.10932
H_ H_ 0.460326 0.927022 0.185756 0.10932
H_ H_ 0.214362 0.575478 0.317733 0.10932
H_ H_ 0.463714 0.574096 0.319386 0.10932
H_ H_ 0.189647 0.650747 0.187236 0.10932
H_ H_ 0.436498 0.643095 0.182638 0.10932
H_ H_ 0.187907 0.643366 0.320371 0.10932
H_ H_ 0.435852 0.638188 0.318576 0.10932
H_ H_ 0.217329 0.582028 0.186489 0.10932
H_ H_ 0.459251 0.574871 0.182998 0.10932
H_ H_ 0.0328279 0.58255 0.188801 0.10932
H_ H_ 0.290878 0.578192 0.186047 0.10932
H_ H_ 0.0693086 0.641075 0.323087 0.10932
H_ H_ 0.30151 0.655829 0.315369 0.10932
H_ H_ 0.0645751 0.639373 0.188856 0.10932
H_ H_ 0.31599 0.64395 0.181112 0.10932
H_ H_ 0.0372919 0.575612 0.321862 0.10932
H_ H_ 0.279293 0.587289 0.317261 0.10932
H_ H_ 0.118399 0.80821 0.361855 0.10932
H_ H_ 0.370792 0.692543 0.354961 0.10932
H_ H_ 0.136767 0.682403 0.363041 0.10932
H_ H_ 0.383055 0.821419 0.36492 0.10932
H_ H_ 0.130673 0.681979 0.438894 0.10932
H_ H_ 0.378481 0.81804 0.442917 0.10932
H_ H_ 0.117305 0.811202 0.439037 0.10932
H_ H_ 0.366346 0.688103 0.43333 0.10932
H_ H_ 0.162304 0.778818 0.132264 0.10932
H_ H_ 0.385147 0.692162 0.137862 0.10932
H_ H_ 0.0871716 0.701151 0.148148 0.10932
H_ H_ 0.35754 0.814992 0.14534 0.10932
H_ H_ 0.0789758 0.698211 0.0683944 0.10932
H_ H_ 0.365113 0.827669 0.0715549 0.10932
H_ H_ 0.161451 0.763077 0.0587284 0.10932
H_ H_ 0.393762 0.699362 0.0625041 0.10932
C_ C_ 0.0659954 0.840013 0.252868 -0.02249
C_ C_ 0.320642 0.848925 0.250007 -0.02249
C_ C_ 0.0199606 0.957476 0.258188 -0.02249
C_ C_ 0.267535 0.959645 0.24901 -0.02249
C_ C_ 0.0476587 0.902465 0.217804 -0.11473
C_ C_ 0.296359 0.904462 0.212693 -0.11473
C_ C_ 0.0562609 0.857423 0.291358 -0.11473
C_ C_ 0.308335 0.864644 0.287359 -0.11473
C_ C_ 0.0614885 0.863616 0.216594 -0.11473
C_ C_ 0.313267 0.86806 0.213255 -0.11473
C_ C_ 0.035667 0.918024 0.255302 -0.02249
C_ C_ 0.283337 0.919054 0.249326 -0.02249
C_ C_ 0.0834291 0.799991 0.251106 0.6875
C_ C_ 0.343621 0.814994 0.250779 0.6875
C_ C_ 0.0396087 0.894719 0.292366 -0.11473
C_ C_ 0.29196 0.902018 0.28748 -0.11473
C_ C_ 0.183841 0.846675 0.249509 -0.02249
C_ C_ 0.440377 0.845115 0.250954 -0.02249
C_ C_ 0.235874 0.959398 0.250709 -0.02249
C_ C_ 0.489028 0.961751 0.252043 -0.02249
C_ C_ 0.208065 0.904482 0.285485 -0.11473
C_ C_ 0.467274 0.899615 0.288687 -0.11473
C_ C_ 0.197658 0.85947 0.212343 -0.11473
C_ C_ 0.444484 0.868971 0.213459 -0.11473
C_ C_ 0.188871 0.870018 0.286624 -0.11473
C_ C_ 0.450297 0.863426 0.289363 -0.11473
C_ C_ 0.220085 0.918123 0.249772 -0.02249
C_ C_ 0.471245 0.922691 0.252236 -0.02249
C_ C_ 0.165712 0.808493 0.250632 0.6875
C_ C_ 0.421642 0.807636 0.251875 0.6875
C_ C_ 0.215515 0.896008 0.211843 -0.11473
C_ C_ 0.458089 0.908349 0.215135 -0.11473
C_ C_ 0.190534 0.653641 0.254725 -0.02249
C_ C_ 0.432327 0.646195 0.251821 -0.02249
C_ C_ 0.235112 0.5353 0.248914 -0.02249
C_ C_ 0.483954 0.532154 0.248716 -0.02249
C_ C_ 0.212297 0.592992 0.290135 -0.11473
C_ C_ 0.461 0.591786 0.290159 -0.11473
C_ C_ 0.1986 0.636435 0.215512 -0.11473
C_ C_ 0.441555 0.629177 0.212392 -0.11473
C_ C_ 0.197315 0.631956 0.29106 -0.11473
C_ C_ 0.444167 0.627817 0.289292 -0.11473
C_ C_ 0.219654 0.575972 0.252293 -0.02249
C_ C_ 0.467414 0.573009 0.24999 -0.02249
C_ C_ 0.169182 0.689296 0.253091 0.6875
C_ C_ 0.415385 0.685699 0.255096 0.6875
C_ C_ 0.212513 0.597511 0.215157 -0.11473
C_ C_ 0.457059 0.591456 0.211981 -0.11473
C_ C_ 0.0673231 0.650577 0.256215 -0.02249
C_ C_ 0.313831 0.656099 0.249737 -0.02249
C_ C_ 0.0134161 0.537131 0.260418 -0.02249
C_ C_ 0.267623 0.535266 0.247484 -0.02249
C_ C_ 0.0399987 0.596425 0.219671 -0.11473
C_ C_ 0.294804 0.593729 0.21183 -0.11473
C_ C_ 0.0591452 0.631582 0.294346 -0.11473
C_ C_ 0.301582 0.638435 0.287491 -0.11473
C_ C_ 0.0572118 0.630933 0.217991 -0.11473
C_ C_ 0.309067 0.632977 0.211537 -0.11473
C_ C_ 0.029946 0.578382 0.257706 -0.02249
C_ C_ 0.284756 0.575329 0.250597 -0.02249
C_ C_ 0.0877257 0.686547 0.254625 0.6875
C_ C_ 0.335143 0.694204 0.249434 0.6875
C_ C_ 0.0409093 0.594765 0.295012 -0.11473
C_ C_ 0.287252 0.599614 0.288382 -0.11473
C_ C_ 0.12095 0.781193 0.378119 0.17695
C_ C_ 0.374187 0.718625 0.375033 0.17695
C_ C_ 0.129503 0.711546 0.378834 0.17695
C_ C_ 0.383041 0.791781 0.380718 0.17695
C_ C_ 0.130703 0.71082 0.422953 -0.11473
C_ C_ 0.379472 0.789811 0.42332 -0.11473
C_ C_ 0.127328 0.747375 0.44612 0.23465
C_ C_ 0.377196 0.752209 0.443238 0.23465
C_ C_ 0.121799 0.782151 0.423009 -0.11473
C_ C_ 0.372674 0.716346 0.418242 -0.11473
C_ C_ 0.145054 0.759065 0.12014 0.17695
C_ C_ 0.381148 0.721748 0.122173 0.17695
C_ C_ 0.1013 0.718198 0.127481 0.17695
C_ C_ 0.369635 0.792208 0.127611 0.17695
C_ C_ 0.0981462 0.714311 0.0822098 -0.11473
C_ C_ 0.369579 0.796004 0.0832131 -0.11473
C_ C_ 0.119521 0.73254 0.0580607 0.23465
C_ C_ 0.376562 0.76238 0.0587528 0.23465
C_ C_ 0.143338 0.755038 0.0772469 -0.11473
C_ C_ 0.384346 0.724842 0.0782784 -0.11473
C_ C_ 0.0361846 0.99473 0.255592 0.05793
C_ C_ 0.282908 0.997998 0.252052 0.05793
C_ C_ 0.21965 0.497505 0.247309 0.05793
C_ C_ 0.466679 0.494327 0.249085 0.05793
Br Br 0.0804921 -0.008409 0.264518 -0.17191
Br Br 0.325224 1.0000907735 0.266548 -0.17191
Br Br 0.17631 0.500079 0.250481 -0.17191
Br Br 0.423378 0.495297 0.239051 -0.17191
N_ N_ 0.129065 0.746762 0.357638 -0.272
N_ N_ 0.378109 0.755694 0.356708 -0.272
N_ N_ 0.126786 0.74358 0.490861 -0.12501
N_ N_ 0.386328 0.749665 0.486182 -0.12501
N_ N_ 0.12418 0.74076 0.144321 -0.272
N_ N_ 0.376616 0.755457 0.146973 -0.272
N_ N_ 0.11781 0.729256 0.0134857 -0.12501
N_ N_ 0.379246 0.769319 0.0144833 -0.12501
O_ O_ 0.0906213 0.785435 0.216712 -0.60745
O_ O_ 0.347205 0.795252 0.218216 -0.60745
O_ O_ 0.0935144 0.784841 0.284188 -0.60745
O_ O_ 0.352122 0.799371 0.2855 -0.60745
O_ O_ 0.158776 0.792736 0.285524 -0.60745
O_ O_ 0.414449 0.791342 0.287749 -0.60745
O_ O_ 0.156423 0.79229 0.21692 -0.60745
O_ O_ 0.407822 0.79501 0.219639 -0.60745
O_ O_ 0.161652 0.704215 0.289244 -0.60745
O_ O_ 0.408386 0.701842 0.290913 -0.60745
O_ O_ 0.161842 0.708912 0.220695 -0.60745
O_ O_ 0.407413 0.703348 0.2201 -0.60745
O_ O_ 0.100603 0.697142 0.221272 -0.60745
O_ O_ 0.346621 0.70654 0.216269 -0.60745
O_ O_ 0.096996 0.701981 0.289656 -0.60745
O_ O_ 0.342418 0.710117 0.28384 -0.60745
Zn Zn 0.125688 0.753421 0.788476 0.9476
Zn Zn 0.377699 0.751215 0.783945 0.9476
Zn Zn 0.126797 0.753524 0.718258 0.9476
Zn Zn 0.375688 0.751975 0.715792 0.9476
H_ H_ 0.0302774 0.914043 0.687296 0.10932
H_ H_ 0.288183 0.923823 0.689281 0.10932
H_ H_ 0.0750752 0.867846 0.82215 0.10932
H_ H_ 0.317374 0.852226 0.823434 0.10932
H_ H_ 0.0546872 0.848001 0.691017 0.10932
H_ H_ 0.310056 0.854874 0.685616 0.10932
H_ H_ 0.0387268 0.924119 0.819774 0.10932
H_ H_ 0.294604 0.920534 0.823284 0.10932
H_ H_ 0.20683 0.931297 0.816149 0.10932
H_ H_ 0.466075 0.923522 0.811553 0.10932
H_ H_ 0.20058 0.845941 0.689107 0.10932
H_ H_ 0.438161 0.853572 0.676583 0.10932
H_ H_ 0.180955 0.862327 0.818818 0.10932
H_ H_ 0.439178 0.854012 0.811192 0.10932
H_ H_ 0.235192 0.909113 0.692772 0.10932
H_ H_ 0.45998 0.921364 0.674912 0.10932
H_ H_ 0.218359 0.585657 0.824586 0.10932
H_ H_ 0.45993 0.579253 0.811443 0.10932
H_ H_ 0.175294 0.64548 0.691106 0.10932
H_ H_ 0.427836 0.643337 0.67952 0.10932
H_ H_ 0.193349 0.654549 0.82405 0.10932
H_ H_ 0.4301 0.644259 0.812612 0.10932
H_ H_ 0.208118 0.582861 0.687812 0.10932
H_ H_ 0.456354 0.580944 0.6784 0.10932
H_ H_ 0.0578212 0.566019 0.687437 0.10932
H_ H_ 0.268689 0.600535 0.682451 0.10932
H_ H_ 0.0488311 0.667023 0.809492 0.10932
H_ H_ 0.328218 0.632393 0.812355 0.10932
H_ H_ 0.0881601 0.628341 0.690238 0.10932
H_ H_ 0.306897 0.651905 0.68209 0.10932
H_ H_ 0.0171392 0.602553 0.806776 0.10932
H_ H_ 0.294648 0.57281 0.813822 0.10932
H_ H_ 0.123837 0.817356 0.860524 0.10932
H_ H_ 0.402051 0.809116 0.864524 0.10932
H_ H_ 0.130174 0.685076 0.863153 0.10932
H_ H_ 0.359155 0.692071 0.856572 0.10932
H_ H_ 0.139672 0.690144 0.940371 0.10932
H_ H_ 0.363762 0.685402 0.929414 0.10932
H_ H_ 0.127136 0.819426 0.940515 0.10932
H_ H_ 0.395276 0.806713 0.941375 0.10932
H_ H_ 0.126027 0.693555 0.632069 0.10932
H_ H_ 0.325625 0.743943 0.641653 0.10932
H_ H_ 0.109789 0.822877 0.64877 0.10932
H_ H_ 0.420181 0.762949 0.642 0.10932
H_ H_ 0.112542 0.830823 0.570673 0.10932
H_ H_ 0.419193 0.760547 0.561077 0.10932
H_ H_ 0.129281 0.701062 0.560772 0.10932
H_ H_ 0.322739 0.741524 0.564639 0.10932
C_ C_ 0.0672878 0.850835 0.756298 -0.02249
C_ C_ 0.317531 0.846875 0.755057 -0.02249
C_ C_ 0.014452 0.964155 0.753937 -0.02249
C_ C_ 0.270036 0.96554 0.759316 -0.02249
C_ C_ 0.0390148 0.903464 0.715827 -0.11473
C_ C_ 0.292228 0.905135 0.719263 -0.11473
C_ C_ 0.0622328 0.873413 0.793165 -0.11473
C_ C_ 0.311192 0.867027 0.793311 -0.11473
C_ C_ 0.055622 0.866353 0.717123 -0.11473
C_ C_ 0.307285 0.866795 0.717955 -0.11473
C_ C_ 0.032255 0.924837 0.753151 -0.02249
C_ C_ 0.287588 0.925487 0.758319 -0.02249
C_ C_ 0.0859321 0.811996 0.755373 0.6875
C_ C_ 0.339401 0.813169 0.751625 0.6875
C_ C_ 0.0432058 0.907815 0.791619 -0.11473
C_ C_ 0.296247 0.905964 0.794826 -0.11473
C_ C_ 0.188462 0.847305 0.754632 -0.02249
C_ C_ 0.43679 0.848823 0.743554 -0.02249
C_ C_ 0.238698 0.963834 0.757744 -0.02249
C_ C_ 0.483486 0.966752 0.744229 -0.02249
C_ C_ 0.207861 0.910059 0.789956 -0.11473
C_ C_ 0.462245 0.906732 0.781977 -0.11473
C_ C_ 0.202992 0.86206 0.718863 -0.11473
C_ C_ 0.442362 0.869347 0.706718 -0.11473
C_ C_ 0.192959 0.871336 0.791329 -0.11473
C_ C_ 0.447195 0.868817 0.782177 -0.11473
C_ C_ 0.221157 0.923656 0.754951 -0.02249
C_ C_ 0.467456 0.927283 0.743753 -0.02249
C_ C_ 0.164517 0.813922 0.75277 0.6875
C_ C_ 0.416717 0.811495 0.744257 0.6875
C_ C_ 0.220046 0.899126 0.718905 -0.11473
C_ C_ 0.456608 0.908126 0.706003 -0.11473
C_ C_ 0.181915 0.654274 0.758554 -0.02249
C_ C_ 0.431032 0.653144 0.746105 -0.02249
C_ C_ 0.232042 0.540727 0.755208 -0.02249
C_ C_ 0.480438 0.539352 0.743143 -0.02249
C_ C_ 0.21178 0.600492 0.79453 -0.11473
C_ C_ 0.452051 0.593164 0.781781 -0.11473
C_ C_ 0.185537 0.632232 0.720819 -0.11473
C_ C_ 0.437146 0.632929 0.707929 -0.11473
C_ C_ 0.196697 0.637816 0.79514 -0.11473
C_ C_ 0.437123 0.630046 0.783789 -0.11473
C_ C_ 0.216614 0.581017 0.755069 -0.02249
C_ C_ 0.461697 0.576652 0.744496 -0.02249
C_ C_ 0.165273 0.693772 0.758433 0.6875
C_ C_ 0.415501 0.693063 0.747369 0.6875
C_ C_ 0.205752 0.598724 0.717918 -0.11473
C_ C_ 0.452837 0.595904 0.706486 -0.11473
C_ C_ 0.071051 0.652177 0.750357 -0.02249
C_ C_ 0.316932 0.650799 0.749893 -0.02249
C_ C_ 0.0185745 0.539579 0.751063 -0.02249
C_ C_ 0.263698 0.540202 0.748066 -0.02249
C_ C_ 0.0556498 0.588339 0.714719 -0.11473
C_ C_ 0.282153 0.605122 0.711887 -0.11473
C_ C_ 0.0512391 0.644367 0.784538 -0.11473
C_ C_ 0.31662 0.625099 0.785632 -0.11473
C_ C_ 0.0721926 0.623727 0.71595 -0.11473
C_ C_ 0.302864 0.63765 0.711307 -0.11473
C_ C_ 0.0356589 0.579803 0.748055 -0.02249
C_ C_ 0.279562 0.580696 0.748902 -0.02249
C_ C_ 0.0915869 0.689043 0.751602 0.6875
C_ C_ 0.336189 0.689456 0.749367 0.6875
C_ C_ 0.032894 0.609358 0.781466 -0.11473
C_ C_ 0.295957 0.591984 0.785935 -0.11473
C_ C_ 0.122038 0.788779 0.877809 0.17695
C_ C_ 0.392042 0.781975 0.878944 0.17695
C_ C_ 0.126912 0.715456 0.881215 0.17695
C_ C_ 0.369132 0.716897 0.87375 0.17695
C_ C_ 0.128909 0.715579 0.923905 -0.11473
C_ C_ 0.368808 0.714172 0.916051 -0.11473
C_ C_ 0.12913 0.754145 0.944964 0.23465
C_ C_ 0.37546 0.747141 0.943195 0.23465
C_ C_ 0.126444 0.790808 0.923092 -0.11473
C_ C_ 0.389448 0.78047 0.923259 -0.11473
C_ C_ 0.123058 0.725968 0.621764 0.17695
C_ C_ 0.346975 0.749148 0.624775 0.17695
C_ C_ 0.116775 0.797775 0.629072 0.17695
C_ C_ 0.39983 0.757018 0.624419 0.17695
C_ C_ 0.116548 0.801886 0.584932 -0.11473
C_ C_ 0.398436 0.756867 0.580157 -0.11473
C_ C_ 0.120787 0.767652 0.559525 0.23465
C_ C_ 0.371195 0.748137 0.557407 0.23465
C_ C_ 0.124398 0.729799 0.578572 -0.11473
C_ C_ 0.34549 0.743089 0.581074 -0.11473
C_ C_ 0.0300316 0.00290447 0.753751 0.05793
C_ C_ 0.284975 0.0030317 0.765775 0.05793
C_ C_ 0.217128 0.501307 0.753828 0.05793
C_ C_ 0.467678 0.500228 0.737571 0.05793
Br Br 0.0724164 0.00383321 0.766139 -0.17191
Br Br 0.32711 0.00468144 0.771712 -0.17191
Br Br 0.177001 0.496988 0.774437 -0.17191
Br Br 0.423025 0.493568 0.734147 -0.17191
N_ N_ 0.122913 0.752522 0.859027 -0.272
N_ N_ 0.379574 0.75153 0.854774 -0.272
N_ N_ 0.130046 0.754764 0.990437 -0.12501
N_ N_ 0.374231 0.741088 0.988653 -0.12501
N_ N_ 0.123105 0.758913 0.647282 -0.272
N_ N_ 0.373559 0.750167 0.645923 -0.272
N_ N_ 0.118216 0.771811 0.514243 -0.12501
N_ N_ 0.367214 0.754097 0.513487 -0.12501
O_ O_ 0.0936342 0.796362 0.721537 -0.60745
O_ O_ 0.344583 0.795485 0.716628 -0.60745
O_ O_ 0.0898262 0.793732 0.789697 -0.60745
O_ O_ 0.349264 0.7979 0.784809 -0.60745
O_ O_ 0.154005 0.798962 0.786463 -0.60745
O_ O_ 0.410594 0.791657 0.777507 -0.60745
O_ O_ 0.15472 0.801873 0.71834 -0.60745
O_ O_ 0.40323 0.800211 0.711093 -0.60745
O_ O_ 0.159129 0.714099 0.792084 -0.60745
O_ O_ 0.403479 0.703546 0.779936 -0.60745
O_ O_ 0.158927 0.709189 0.723438 -0.60745
O_ O_ 0.409327 0.712365 0.714319 -0.60745
O_ O_ 0.0981396 0.707082 0.718131 -0.60745
O_ O_ 0.347252 0.703394 0.715693 -0.60745
O_ O_ 0.0977537 0.706982 0.786314 -0.60745
O_ O_ 0.341963 0.707032 0.78345 -0.60745
Zn Zn 0.627688 0.250288 0.279301 0.9476
Zn Zn 0.876405 0.244928 0.286198 0.9476
Zn Zn 0.628143 0.246877 0.210135 0.9476
Zn Zn 0.877434 0.246738 0.216023 0.9476
H_ H_ 0.526969 0.40405 0.18194 0.10932
H_ H_ 0.807294 0.423551 0.186153 0.10932
H_ H_ 0.566058 0.347503 0.315361 0.10932
H_ H_ 0.796277 0.334608 0.311606 0.10932
H_ H_ 0.554975 0.341467 0.181463 0.10932
H_ H_ 0.838473 0.365267 0.194525 0.10932
H_ H_ 0.529275 0.410378 0.313399 0.10932
H_ H_ 0.780437 0.408101 0.312761 0.10932
H_ H_ 0.708423 0.421858 0.310121 0.10932
H_ H_ 0.973946 0.402538 0.326498 0.10932
H_ H_ 0.69396 0.349719 0.1744 0.10932
H_ H_ 0.918072 0.373183 0.192638 0.10932
H_ H_ 0.678021 0.359577 0.306502 0.10932
H_ H_ 0.940138 0.341748 0.324111 0.10932
H_ H_ 0.722131 0.413516 0.176067 0.10932
H_ H_ 0.949972 0.433578 0.198215 0.10932
H_ H_ 0.719855 0.0872095 0.309802 0.10932
H_ H_ 0.96821 0.0770714 0.322061 0.10932
H_ H_ 0.6691 0.127691 0.178714 0.10932
H_ H_ 0.94276 0.148863 0.188445 0.10932
H_ H_ 0.681201 0.143464 0.310505 0.10932
H_ H_ 0.940629 0.142515 0.324653 0.10932
H_ H_ 0.702952 0.0696316 0.179756 0.10932
H_ H_ 0.969739 0.0817957 0.188632 0.10932
H_ H_ 0.529503 0.0910965 0.177849 0.10932
H_ H_ 0.799153 0.0622897 0.178333 0.10932
H_ H_ 0.575475 0.140307 0.31148 0.10932
H_ H_ 0.804415 0.150905 0.302224 0.10932
H_ H_ 0.554807 0.160192 0.180501 0.10932
H_ H_ 0.833369 0.12304 0.183298 0.10932
H_ H_ 0.543754 0.0773701 0.310674 0.10932
H_ H_ 0.771694 0.0879988 0.305101 0.10932
H_ H_ 0.625123 0.191569 0.356185 0.10932
H_ H_ 0.862173 0.17846 0.358029 0.10932
H_ H_ 0.634744 0.317326 0.353421 0.10932
H_ H_ 0.891553 0.303417 0.365147 0.10932
H_ H_ 0.631404 0.320541 0.432715 0.10932
H_ H_ 0.889817 0.30176 0.441435 0.10932
H_ H_ 0.620559 0.190479 0.431889 0.10932
H_ H_ 0.862134 0.172857 0.434866 0.10932
H_ H_ 0.630284 0.185316 0.13773 0.10932
H_ H_ 0.858632 0.303478 0.134633 0.10932
H_ H_ 0.61612 0.314256 0.137595 0.10932
H_ H_ 0.891339 0.182235 0.149386 0.10932
H_ H_ 0.605861 0.309786 0.0575497 0.10932
H_ H_ 0.895557 0.175997 0.0717612 0.10932
H_ H_ 0.6317 0.181703 0.059257 0.10932
H_ H_ 0.853311 0.294403 0.0594954 0.10932
C_ C_ 0.566379 0.343934 0.247988 -0.02249
C_ C_ 0.818164 0.341115 0.251515 -0.02249
C_ C_ 0.513331 0.45557 0.249657 -0.02249
C_ C_ 0.771662 0.459512 0.246697 -0.02249
C_ C_ 0.535615 0.39386 0.21038 -0.11473
C_ C_ 0.80428 0.404695 0.214246 -0.11473
C_ C_ 0.558788 0.363914 0.286312 -0.11473
C_ C_ 0.798851 0.353133 0.284934 -0.11473
C_ C_ 0.55525 0.360079 0.209704 -0.11473
C_ C_ 0.820767 0.368241 0.217724 -0.11473
C_ C_ 0.529625 0.414102 0.24858 -0.02249
C_ C_ 0.787315 0.418269 0.248627 -0.02249
C_ C_ 0.58602 0.30606 0.247139 0.6875
C_ C_ 0.836536 0.302899 0.252271 0.6875
C_ C_ 0.538791 0.39642 0.285663 -0.11473
C_ C_ 0.786422 0.393615 0.285155 -0.11473
C_ C_ 0.684665 0.347482 0.243193 -0.02249
C_ C_ 0.928032 0.351093 0.257366 -0.02249
C_ C_ 0.739342 0.461389 0.242547 -0.02249
C_ C_ 0.980782 0.461701 0.264651 -0.02249
C_ C_ 0.705517 0.406692 0.279628 -0.11473
C_ C_ 0.964708 0.39425 0.296159 -0.11473
C_ C_ 0.698081 0.363801 0.205276 -0.11473
C_ C_ 0.929275 0.378955 0.223479 -0.11473
C_ C_ 0.689021 0.370398 0.279735 -0.11473
C_ C_ 0.945034 0.359117 0.293861 -0.11473
C_ C_ 0.719808 0.422521 0.243113 -0.02249
C_ C_ 0.964132 0.422971 0.261899 -0.02249
C_ C_ 0.667441 0.308206 0.241759 0.6875
C_ C_ 0.911935 0.311171 0.254677 0.6875
C_ C_ 0.715099 0.400803 0.205821 -0.11473
C_ C_ 0.949163 0.412173 0.224475 -0.11473
C_ C_ 0.677516 0.144929 0.243144 -0.02249
C_ C_ 0.941907 0.153182 0.255305 -0.02249
C_ C_ 0.730546 0.0330241 0.243612 -0.02249
C_ C_ 0.989071 0.0349141 0.254785 -0.02249
C_ C_ 0.708989 0.0960711 0.281275 -0.11473
C_ C_ 0.963423 0.0930934 0.293689 -0.11473
C_ C_ 0.682889 0.123606 0.205863 -0.11473
C_ C_ 0.948116 0.133764 0.21781 -0.11473
C_ C_ 0.686913 0.128841 0.281053 -0.11473
C_ C_ 0.947815 0.130827 0.294016 -0.11473
C_ C_ 0.714224 0.0732334 0.244318 -0.02249
C_ C_ 0.971445 0.0759111 0.255374 -0.02249
C_ C_ 0.663416 0.186004 0.242204 0.6875
C_ C_ 0.919236 0.188147 0.25566 0.6875
C_ C_ 0.701809 0.087637 0.206208 -0.11473
C_ C_ 0.965716 0.097933 0.21743 -0.11473
C_ C_ 0.567559 0.153653 0.24583 -0.02249
C_ C_ 0.815689 0.145559 0.240902 -0.02249
C_ C_ 0.518526 0.0379627 0.2447 -0.02249
C_ C_ 0.762113 0.0341122 0.240935 -0.02249
C_ C_ 0.537107 0.102876 0.208644 -0.11473
C_ C_ 0.797372 0.0825751 0.203857 -0.11473
C_ C_ 0.564107 0.130258 0.283017 -0.11473
C_ C_ 0.799688 0.133673 0.27491 -0.11473
C_ C_ 0.552947 0.140845 0.208952 -0.11473
C_ C_ 0.815993 0.117671 0.205683 -0.11473
C_ C_ 0.534112 0.0787648 0.244286 -0.02249
C_ C_ 0.779263 0.0734062 0.238353 -0.02249
C_ C_ 0.586193 0.192031 0.246386 0.6875
C_ C_ 0.83791 0.181504 0.244417 0.6875
C_ C_ 0.547257 0.0938987 0.282539 -0.11473
C_ C_ 0.782339 0.0981027 0.274363 -0.11473
C_ C_ 0.628368 0.219662 0.373443 0.17695
C_ C_ 0.868957 0.204251 0.376816 0.17695
C_ C_ 0.627832 0.290811 0.368791 0.17695
C_ C_ 0.882229 0.275066 0.380858 0.17695
C_ C_ 0.628355 0.293658 0.414378 -0.11473
C_ C_ 0.884479 0.272419 0.424778 -0.11473
C_ C_ 0.623931 0.257766 0.438922 0.23465
C_ C_ 0.875017 0.236435 0.445178 0.23465
C_ C_ 0.626271 0.219854 0.41636 -0.11473
C_ C_ 0.866024 0.202494 0.420795 -0.11473
C_ C_ 0.629651 0.213491 0.119837 0.17695
C_ C_ 0.866704 0.275888 0.122111 0.17695
C_ C_ 0.617761 0.284312 0.118778 0.17695
C_ C_ 0.885034 0.206935 0.128593 0.17695
C_ C_ 0.613988 0.283443 0.074448 -0.11473
C_ C_ 0.889045 0.204415 0.0861797 -0.11473
C_ C_ 0.619625 0.246106 0.0520643 0.23465
C_ C_ 0.877244 0.23672 0.0596011 0.23465
C_ C_ 0.626405 0.211102 0.0757483 -0.11473
C_ C_ 0.866204 0.27275 0.0773693 -0.11473
C_ C_ 0.530654 0.49227 0.257243 0.05793
C_ C_ 0.787179 0.498334 0.247403 0.05793
C_ C_ 0.716081 0.995312 0.252953 0.05793
C_ C_ 0.974618 0.998686 0.266475 0.05793
Br Br 0.574298 0.486643 0.25902 -0.17191
Br Br 0.830128 0.497061 0.258032 -0.17191
Br Br 0.675146 -0.003932999999999964 0.270251 -0.17191
Br Br 0.931127 -0.0019379999999999953 0.280917 -0.17191
N_ N_ 0.627797 0.253821 0.348485 -0.272
N_ N_ 0.874974 0.239795 0.357766 -0.272
N_ N_ 0.620908 0.259017 0.483476 -0.12501
N_ N_ 0.873669 0.231481 0.489449 -0.12501
N_ N_ 0.62703 0.250464 0.139738 -0.272
N_ N_ 0.87851 0.245363 0.14598 -0.272
N_ N_ 0.615499 0.24271 0.00720793 -0.12501
N_ N_ 0.880527 0.23292 0.0156012 -0.12501
O_ O_ 0.593901 0.291436 0.213276 -0.60745
O_ O_ 0.843671 0.283243 0.219826 -0.60745
O_ O_ 0.599424 0.294545 0.281035 -0.60745
O_ O_ 0.844681 0.289475 0.288232 -0.60745
O_ O_ 0.660876 0.291178 0.275373 -0.60745
O_ O_ 0.905233 0.291605 0.28788 -0.60745
O_ O_ 0.658144 0.291886 0.207066 -0.60745
O_ O_ 0.904683 0.295283 0.22019 -0.60745
O_ O_ 0.652491 0.203007 0.275474 -0.60745
O_ O_ 0.906891 0.198384 0.288827 -0.60745
O_ O_ 0.656473 0.201127 0.2069 -0.60745
O_ O_ 0.913815 0.209935 0.223134 -0.60745
O_ O_ 0.600143 0.202761 0.213716 -0.60745
O_ O_ 0.851021 0.19441 0.211513 -0.60745
O_ O_ 0.593746 0.208296 0.279955 -0.60745
O_ O_ 0.844491 0.196189 0.280597 -0.60745
Zn Zn 0.625286 0.251277 0.782072 0.9476
Zn Zn 0.876483 0.254754 0.786636 0.9476
Zn Zn 0.624846 0.252688 0.70945 0.9476
Zn Zn 0.87346 0.251662 0.718677 0.9476
H_ H_ 0.533583 0.421866 0.676975 0.10932
H_ H_ 0.782903 0.423318 0.687607 0.10932
H_ H_ 0.567708 0.356551 0.80695 0.10932
H_ H_ 0.811333 0.355719 0.822738 0.10932
H_ H_ 0.56591 0.361964 0.673031 0.10932
H_ H_ 0.821801 0.364218 0.687765 0.10932
H_ H_ 0.546532 0.42608 0.807064 0.10932
H_ H_ 0.780792 0.415857 0.822375 0.10932
H_ H_ 0.71898 0.410517 0.824529 0.10932
H_ H_ 0.979546 0.413007 0.81499 0.10932
H_ H_ 0.679441 0.361483 0.6824 0.10932
H_ H_ 0.92367 0.363948 0.687396 0.10932
H_ H_ 0.689404 0.345207 0.816959 0.10932
H_ H_ 0.944661 0.349712 0.819015 0.10932
H_ H_ 0.708321 0.422928 0.687275 0.10932
H_ H_ 0.956679 0.427847 0.685579 0.10932
H_ H_ 0.723971 0.0922152 0.818193 0.10932
H_ H_ 0.959472 0.0764283 0.810008 0.10932
H_ H_ 0.681246 0.147245 0.687855 0.10932
H_ H_ 0.933299 0.149716 0.682709 0.10932
H_ H_ 0.689342 0.150866 0.824009 0.10932
H_ H_ 0.923891 0.133347 0.813591 0.10932
H_ H_ 0.705208 0.0772943 0.686556 0.10932
H_ H_ 0.961605 0.0851364 0.680055 0.10932
H_ H_ 0.530284 0.0900226 0.675595 0.10932
H_ H_ 0.775976 0.0938085 0.689128 0.10932
H_ H_ 0.558885 0.155923 0.812237 0.10932
H_ H_ 0.809599 0.155639 0.819972 0.10932
H_ H_ 0.561018 0.154984 0.675902 0.10932
H_ H_ 0.810988 0.147619 0.682836 0.10932
H_ H_ 0.530723 0.0903657 0.814194 0.10932
H_ H_ 0.781839 0.091477 0.823263 0.10932
H_ H_ 0.617274 0.319865 0.848986 0.10932
H_ H_ 0.919276 0.241376 0.868599 0.10932
H_ H_ 0.627945 0.193778 0.860798 0.10932
H_ H_ 0.82688 0.271586 0.858583 0.10932
H_ H_ 0.639319 0.200673 0.934747 0.10932
H_ H_ 0.822175 0.26283 0.934101 0.10932
H_ H_ 0.621866 0.328462 0.928585 0.10932
H_ H_ 0.91457 0.236739 0.945796 0.10932
H_ H_ 0.612826 0.184182 0.643128 0.10932
H_ H_ 0.860672 0.314356 0.649926 0.10932
H_ H_ 0.641951 0.305876 0.630604 0.10932
H_ H_ 0.876311 0.186607 0.642194 0.10932
H_ H_ 0.650397 0.296869 0.555145 0.10932
H_ H_ 0.873673 0.18934 0.561192 0.10932
H_ H_ 0.615594 0.168833 0.5691 0.10932
H_ H_ 0.862776 0.322348 0.571607 0.10932
C_ C_ 0.564702 0.348835 0.740139 -0.02249
C_ C_ 0.817778 0.35285 0.755753 -0.02249
C_ C_ 0.516735 0.46569 0.743337 -0.02249
C_ C_ 0.762936 0.463849 0.754995 -0.02249
C_ C_ 0.538165 0.404795 0.705535 -0.11473
C_ C_ 0.790909 0.407911 0.71717 -0.11473
C_ C_ 0.558521 0.36915 0.778811 -0.11473
C_ C_ 0.806958 0.37203 0.793898 -0.11473
C_ C_ 0.557022 0.370236 0.703748 -0.11473
C_ C_ 0.810811 0.374309 0.716159 -0.11473
C_ C_ 0.536232 0.427272 0.741673 -0.02249
C_ C_ 0.779679 0.424866 0.755571 -0.02249
C_ C_ 0.581497 0.309713 0.738095 0.6875
C_ C_ 0.837404 0.314299 0.755578 0.6875
C_ C_ 0.547116 0.409304 0.778439 -0.11473
C_ C_ 0.787485 0.404485 0.793175 -0.11473
C_ C_ 0.68083 0.348901 0.751314 -0.02249
C_ C_ 0.933147 0.351308 0.75341 -0.02249
C_ C_ 0.731839 0.464008 0.754548 -0.02249
C_ C_ 0.988365 0.461901 0.747685 -0.02249
C_ C_ 0.71023 0.400938 0.792408 -0.11473
C_ C_ 0.969347 0.399349 0.78665 -0.11473
C_ C_ 0.68567 0.374123 0.714898 -0.11473
C_ C_ 0.939074 0.370757 0.713502 -0.11473
C_ C_ 0.694629 0.361662 0.790103 -0.11473
C_ C_ 0.949045 0.364843 0.788142 -0.11473
C_ C_ 0.714808 0.424315 0.755395 -0.02249
C_ C_ 0.969821 0.422745 0.749658 -0.02249
C_ C_ 0.660121 0.314661 0.747472 0.6875
C_ C_ 0.913311 0.312525 0.756139 0.6875
C_ C_ 0.702313 0.40875 0.717755 -0.11473
C_ C_ 0.955456 0.408093 0.713845 -0.11473
C_ C_ 0.680258 0.153053 0.754786 -0.02249
C_ C_ 0.931571 0.15227 0.748892 -0.02249
C_ C_ 0.734333 0.0397505 0.754908 -0.02249
C_ C_ 0.980857 0.0386167 0.746467 -0.02249
C_ C_ 0.711097 0.100323 0.79224 -0.11473
C_ C_ 0.951948 0.0930804 0.78341 -0.11473
C_ C_ 0.687416 0.133067 0.716877 -0.11473
C_ C_ 0.939197 0.133858 0.710673 -0.11473
C_ C_ 0.694248 0.1367 0.792887 -0.11473
C_ C_ 0.93739 0.130054 0.785137 -0.11473
C_ C_ 0.717415 0.0798515 0.75427 -0.02249
C_ C_ 0.962133 0.0767548 0.746022 -0.02249
C_ C_ 0.66057 0.189471 0.754957 0.6875
C_ C_ 0.912275 0.191497 0.750571 0.6875
C_ C_ 0.704261 0.0938511 0.716161 -0.11473
C_ C_ 0.953021 0.0962446 0.709018 -0.11473
C_ C_ 0.562499 0.159337 0.744642 -0.02249
C_ C_ 0.814274 0.157172 0.751798 -0.02249
C_ C_ 0.515698 0.0423511 0.746601 -0.02249
C_ C_ 0.766315 0.040808 0.754009 -0.02249
C_ C_ 0.537766 0.104229 0.706258 -0.11473
C_ C_ 0.786973 0.103178 0.716077 -0.11473
C_ C_ 0.555952 0.139193 0.783902 -0.11473
C_ C_ 0.806034 0.140037 0.790825 -0.11473
C_ C_ 0.554399 0.14157 0.705961 -0.11473
C_ C_ 0.805842 0.13664 0.714591 -0.11473
C_ C_ 0.530536 0.0838317 0.744567 -0.02249
C_ C_ 0.783644 0.0813228 0.755076 -0.02249
C_ C_ 0.582193 0.196439 0.74435 0.6875
C_ C_ 0.835005 0.193877 0.749308 0.6875
C_ C_ 0.537039 0.104267 0.784069 -0.11473
C_ C_ 0.791467 0.10078 0.793122 -0.11473
C_ C_ 0.616471 0.293382 0.869596 0.17695
C_ C_ 0.897966 0.243428 0.88187 0.17695
C_ C_ 0.62334 0.222243 0.875109 0.17695
C_ C_ 0.846559 0.260939 0.875617 0.17695
C_ C_ 0.629331 0.225789 0.917777 -0.11473
C_ C_ 0.843984 0.259277 0.919203 -0.11473
C_ C_ 0.625289 0.262807 0.938783 0.23465
C_ C_ 0.868517 0.248927 0.944738 0.23465
C_ C_ 0.620676 0.29806 0.913361 -0.11473
C_ C_ 0.895628 0.244405 0.925644 -0.11473
C_ C_ 0.621932 0.206304 0.623784 0.17695
C_ C_ 0.86459 0.286123 0.631139 0.17695
C_ C_ 0.634067 0.276625 0.616597 0.17695
C_ C_ 0.874998 0.216224 0.626477 0.17695
C_ C_ 0.637849 0.272471 0.573036 -0.11473
C_ C_ 0.873176 0.216524 0.58004 -0.11473
C_ C_ 0.630366 0.234284 0.552598 0.23465
C_ C_ 0.871303 0.255569 0.559036 0.23465
C_ C_ 0.622108 0.199709 0.580233 -0.11473
C_ C_ 0.865908 0.289249 0.585063 -0.11473
C_ C_ 0.530333 0.506455 0.746631 0.05793
C_ C_ 0.78007 0.501093 0.754858 0.05793
C_ C_ 0.719012 0.00158516 0.759085 0.05793
C_ C_ 0.967049 0.00035999999999991594 0.745067 0.05793
Br Br 0.572199 0.514728 0.733643 -0.17191
Br Br 0.823888 0.503176 0.757764 -0.17191
Br Br 0.675163 -0.0026450000000000085 0.761951 -0.17191
Br Br 0.924334 -0.0005030000000000312 0.73586 -0.17191
N_ N_ 0.619213 0.256119 0.850866 -0.272
N_ N_ 0.873443 0.253234 0.85842 -0.272
N_ N_ 0.627546 0.267734 0.982805 -0.12501
N_ N_ 0.866241 0.254221 0.988967 -0.12501
N_ N_ 0.62495 0.245295 0.640453 -0.272
N_ N_ 0.871371 0.251059 0.65043 -0.272
N_ N_ 0.631757 0.230713 0.507161 -0.12501
N_ N_ 0.867247 0.259993 0.514398 -0.12501
O_ O_ 0.591278 0.297968 0.702088 -0.60745
O_ O_ 0.843457 0.29685 0.720969 -0.60745
O_ O_ 0.592338 0.293453 0.771332 -0.60745
O_ O_ 0.843174 0.295375 0.788856 -0.60745
O_ O_ 0.65348 0.2977 0.78089 -0.60745
O_ O_ 0.90892 0.29363 0.790667 -0.60745
O_ O_ 0.656542 0.29548 0.713158 -0.60745
O_ O_ 0.903364 0.297756 0.723098 -0.60745
O_ O_ 0.656171 0.207688 0.788982 -0.60745
O_ O_ 0.90616 0.208635 0.78493 -0.60745
O_ O_ 0.656664 0.206916 0.720643 -0.60745
O_ O_ 0.904663 0.209344 0.718332 -0.60745
O_ O_ 0.592846 0.208319 0.710553 -0.60745
O_ O_ 0.841475 0.208878 0.713102 -0.60745
O_ O_ 0.593688 0.208894 0.779008 -0.60745
O_ O_ 0.845225 0.209967 0.783523 -0.60745
Zn Zn 0.623098 0.746845 0.285877 0.9476
Zn Zn 0.875201 0.751567 0.283149 0.9476
Zn Zn 0.623704 0.74282 0.213919 0.9476
Zn Zn 0.874906 0.750188 0.211707 0.9476
H_ H_ 0.531144 0.912349 0.1798 0.10932
H_ H_ 0.775902 0.908723 0.178466 0.10932
H_ H_ 0.57647 0.858385 0.310603 0.10932
H_ H_ 0.817603 0.857127 0.312358 0.10932
H_ H_ 0.54637 0.839701 0.180495 0.10932
H_ H_ 0.803408 0.840963 0.178693 0.10932
H_ H_ 0.55083 0.922334 0.312074 0.10932
H_ H_ 0.77966 0.913532 0.309573 0.10932
H_ H_ 0.720939 0.908967 0.31691 0.10932
H_ H_ 0.968432 0.910433 0.322965 0.10932
H_ H_ 0.677634 0.854252 0.184329 0.10932
H_ H_ 0.949757 0.844526 0.187011 0.10932
H_ H_ 0.691604 0.845195 0.317332 0.10932
H_ H_ 0.931946 0.855693 0.319857 0.10932
H_ H_ 0.709868 0.918598 0.183125 0.10932
H_ H_ 0.975941 0.913772 0.18784 0.10932
H_ H_ 0.717641 0.578626 0.314959 0.10932
H_ H_ 0.976723 0.597912 0.326682 0.10932
H_ H_ 0.689092 0.643489 0.181616 0.10932
H_ H_ 0.914437 0.625909 0.198477 0.10932
H_ H_ 0.693648 0.646773 0.319712 0.10932
H_ H_ 0.958185 0.665849 0.315142 0.10932
H_ H_ 0.722071 0.583303 0.185069 0.10932
H_ H_ 0.947202 0.564065 0.201924 0.10932
H_ H_ 0.538873 0.569191 0.189238 0.10932
H_ H_ 0.788988 0.579034 0.178175 0.10932
H_ H_ 0.545291 0.655366 0.317368 0.10932
H_ H_ 0.8155 0.647239 0.31063 0.10932
H_ H_ 0.56333 0.634993 0.186934 0.10932
H_ H_ 0.817775 0.641433 0.174599 0.10932
H_ H_ 0.526795 0.586283 0.321656 0.10932
H_ H_ 0.785346 0.586788 0.310337 0.10932
H_ H_ 0.632093 0.68154 0.356987 0.10932
H_ H_ 0.824933 0.749158 0.354531 0.10932
H_ H_ 0.621858 0.813609 0.363169 0.10932
H_ H_ 0.919365 0.743013 0.364617 0.10932
H_ H_ 0.630493 0.805896 0.439521 0.10932
H_ H_ 0.917809 0.740453 0.440818 0.10932
H_ H_ 0.627077 0.676889 0.435727 0.10932
H_ H_ 0.820848 0.740271 0.433416 0.10932
H_ H_ 0.571787 0.745355 0.138799 0.10932
H_ H_ 0.89637 0.688328 0.13396 0.10932
H_ H_ 0.668518 0.738235 0.139557 0.10932
H_ H_ 0.868924 0.815747 0.137217 0.10932
H_ H_ 0.668348 0.738612 0.0635088 0.10932
H_ H_ 0.870285 0.821743 0.0622222 0.10932
H_ H_ 0.573008 0.760144 0.0659141 0.10932
H_ H_ 0.901239 0.696289 0.0593898 0.10932
C_ C_ 0.564534 0.842315 0.246823 -0.02249
C_ C_ 0.814104 0.844551 0.245672 -0.02249
C_ C_ 0.52079 0.96191 0.248279 -0.02249
C_ C_ 0.763708 0.958749 0.243641 -0.02249
C_ C_ 0.539033 0.899826 0.210117 -0.11473
C_ C_ 0.785302 0.897116 0.20683 -0.11473
C_ C_ 0.563614 0.866078 0.284108 -0.11473
C_ C_ 0.807014 0.865502 0.28308 -0.11473
C_ C_ 0.546807 0.857872 0.210454 -0.11473
C_ C_ 0.800601 0.85923 0.206777 -0.11473
C_ C_ 0.536889 0.921906 0.246887 -0.02249
C_ C_ 0.781347 0.919825 0.243356 -0.02249
C_ C_ 0.580244 0.800413 0.247023 0.6875
C_ C_ 0.83276 0.805641 0.244499 0.6875
C_ C_ 0.550539 0.905184 0.282826 -0.11473
C_ C_ 0.791235 0.902815 0.281281 -0.11473
C_ C_ 0.680417 0.84611 0.249975 -0.02249
C_ C_ 0.935731 0.845551 0.251493 -0.02249
C_ C_ 0.732652 0.957035 0.251259 -0.02249
C_ C_ 0.98855 0.960231 0.259244 -0.02249
C_ C_ 0.712041 0.896321 0.287408 -0.11473
C_ C_ 0.96078 0.900921 0.291315 -0.11473
C_ C_ 0.688238 0.866195 0.211973 -0.11473
C_ C_ 0.948648 0.862693 0.214602 -0.11473
C_ C_ 0.693525 0.862209 0.28737 -0.11473
C_ C_ 0.940142 0.867964 0.28926 -0.11473
C_ C_ 0.717537 0.917391 0.250451 -0.02249
C_ C_ 0.970996 0.920642 0.254208 -0.02249
C_ C_ 0.659713 0.808172 0.250204 0.6875
C_ C_ 0.91631 0.809179 0.251565 0.6875
C_ C_ 0.705242 0.902922 0.211836 -0.11473
C_ C_ 0.96487 0.901689 0.215538 -0.11473
C_ C_ 0.685996 0.651221 0.249669 -0.02249
C_ C_ 0.932832 0.650385 0.257839 -0.02249
C_ C_ 0.739307 0.537791 0.250413 -0.02249
C_ C_ 0.981051 0.536792 0.267157 -0.02249
C_ C_ 0.711082 0.594714 0.287218 -0.11473
C_ C_ 0.963558 0.602948 0.297219 -0.11473
C_ C_ 0.698341 0.634489 0.213613 -0.11473
C_ C_ 0.929697 0.62125 0.22558 -0.11473
C_ C_ 0.694511 0.632515 0.287969 -0.11473
C_ C_ 0.949724 0.64125 0.294098 -0.11473
C_ C_ 0.722164 0.579058 0.249277 -0.02249
C_ C_ 0.964238 0.575529 0.26351 -0.02249
C_ C_ 0.664651 0.684865 0.247371 0.6875
C_ C_ 0.915663 0.690159 0.255741 0.6875
C_ C_ 0.717902 0.601096 0.212902 -0.11473
C_ C_ 0.94801 0.58603 0.226342 -0.11473
C_ C_ 0.562231 0.648425 0.253283 -0.02249
C_ C_ 0.818662 0.651177 0.241131 -0.02249
C_ C_ 0.515196 0.530407 0.257499 -0.02249
C_ C_ 0.771066 0.537063 0.248289 -0.02249
C_ C_ 0.541337 0.585568 0.21824 -0.11473
C_ C_ 0.794523 0.592979 0.207307 -0.11473
C_ C_ 0.548171 0.635054 0.290465 -0.11473
C_ C_ 0.810798 0.633431 0.280389 -0.11473
C_ C_ 0.558773 0.622949 0.21673 -0.11473
C_ C_ 0.810136 0.630861 0.204728 -0.11473
C_ C_ 0.534095 0.56821 0.25705 -0.02249
C_ C_ 0.788097 0.576308 0.245397 -0.02249
C_ C_ 0.580454 0.687774 0.251015 0.6875
C_ C_ 0.835298 0.691089 0.24136 0.6875
C_ C_ 0.534812 0.59508 0.29184 -0.11473
C_ C_ 0.793983 0.597919 0.28192 -0.11473
C_ C_ 0.629148 0.709527 0.375502 0.17695
C_ C_ 0.844808 0.745917 0.374056 0.17695
C_ C_ 0.623805 0.782902 0.378968 0.17695
C_ C_ 0.897269 0.744052 0.379689 0.17695
C_ C_ 0.624715 0.780975 0.423261 -0.11473
C_ C_ 0.896605 0.745673 0.424326 -0.11473
C_ C_ 0.627283 0.742524 0.442772 0.23465
C_ C_ 0.868402 0.745457 0.444586 0.23465
C_ C_ 0.626367 0.706336 0.418844 -0.11473
C_ C_ 0.842139 0.745471 0.41891 -0.11473
C_ C_ 0.594575 0.747406 0.122878 0.17695
C_ C_ 0.889238 0.717647 0.118466 0.17695
C_ C_ 0.646818 0.737081 0.121996 0.17695
C_ C_ 0.877133 0.789353 0.121339 0.17695
C_ C_ 0.647452 0.739299 0.0788194 -0.11473
C_ C_ 0.878621 0.79405 0.0781203 -0.11473
C_ C_ 0.621659 0.745822 0.0563289 0.23465
C_ C_ 0.884556 0.759991 0.0541321 0.23465
C_ C_ 0.594863 0.751434 0.0796647 -0.11473
C_ C_ 0.890946 0.720975 0.0751044 -0.11473
C_ C_ 0.53485 1.000608057 0.243956 0.05793
C_ C_ 0.778826 0.99623 0.239404 0.05793
C_ C_ 0.723639 0.5003 0.238959 0.05793
C_ C_ 0.965495 0.499829 0.27097 0.05793
Br Br 0.57556 1.00193956 0.228697 -0.17191
Br Br 0.821056 0.996017 0.244101 -0.17191
Br Br 0.682244 0.500812 0.221776 -0.17191
Br Br 0.922976 0.497413 0.278317 -0.17191
N_ N_ 0.626897 0.746449 0.355803 -0.272
N_ N_ 0.87195 0.747585 0.355359 -0.272
N_ N_ 0.626354 0.738805 0.488011 -0.12501
N_ N_ 0.865806 0.740719 0.488657 -0.12501
N_ N_ 0.620605 0.738166 0.14318 -0.272
N_ N_ 0.879139 0.75194 0.140469 -0.272
N_ N_ 0.621796 0.74102 0.0118354 -0.12501
N_ N_ 0.882652 0.765193 0.00827334 -0.12501
O_ O_ 0.593136 0.787326 0.214779 -0.60745
O_ O_ 0.845149 0.795894 0.210701 -0.60745
O_ O_ 0.592273 0.789327 0.283101 -0.60745
O_ O_ 0.843668 0.791953 0.278892 -0.60745
O_ O_ 0.654314 0.792031 0.286321 -0.60745
O_ O_ 0.908153 0.792808 0.286336 -0.60745
O_ O_ 0.654978 0.787181 0.216847 -0.60745
O_ O_ 0.908743 0.791403 0.215805 -0.60745
O_ O_ 0.653536 0.698235 0.281681 -0.60745
O_ O_ 0.908108 0.70783 0.288641 -0.60745
O_ O_ 0.654283 0.70016 0.211446 -0.60745
O_ O_ 0.906349 0.703806 0.220703 -0.60745
O_ O_ 0.592764 0.696024 0.216109 -0.60745
O_ O_ 0.840593 0.710351 0.209445 -0.60745
O_ O_ 0.589107 0.704062 0.285419 -0.60745
O_ O_ 0.842134 0.70784 0.276991 -0.60745
Zn Zn 0.623106 0.753703 0.784197 0.9476
Zn Zn 0.878513 0.751432 0.781719 0.9476
Zn Zn 0.622028 0.75379 0.714218 0.9476
Zn Zn 0.875939 0.751036 0.713864 0.9476
H_ H_ 0.536642 0.932379 0.678793 0.10932
H_ H_ 0.780143 0.920016 0.692751 0.10932
H_ H_ 0.562218 0.85451 0.811996 0.10932
H_ H_ 0.818395 0.853983 0.825312 0.10932
H_ H_ 0.569635 0.86704 0.677595 0.10932
H_ H_ 0.816228 0.862998 0.688042 0.10932
H_ H_ 0.530749 0.917772 0.81281 0.10932
H_ H_ 0.788954 0.920602 0.825837 0.10932
H_ H_ 0.720036 0.91403 0.823258 0.10932
H_ H_ 0.973697 0.914045 0.81885 0.10932
H_ H_ 0.67826 0.865146 0.688288 0.10932
H_ H_ 0.932081 0.856763 0.685295 0.10932
H_ H_ 0.696803 0.845178 0.820548 0.10932
H_ H_ 0.939457 0.852338 0.820595 0.10932
H_ H_ 0.706683 0.930035 0.689983 0.10932
H_ H_ 0.9614 0.918237 0.684718 0.10932
H_ H_ 0.698783 0.572779 0.815696 0.10932
H_ H_ 0.95247 0.566629 0.804248 0.10932
H_ H_ 0.694433 0.660038 0.685882 0.10932
H_ H_ 0.949682 0.659313 0.679448 0.10932
H_ H_ 0.676049 0.643799 0.819562 0.10932
H_ H_ 0.919511 0.631436 0.80571 0.10932
H_ H_ 0.722596 0.595275 0.687203 0.10932
H_ H_ 0.980098 0.597332 0.679534 0.10932
H_ H_ 0.520549 0.597206 0.677655 0.10932
H_ H_ 0.78616 0.575642 0.683908 0.10932
H_ H_ 0.55355 0.658295 0.814406 0.10932
H_ H_ 0.807648 0.659124 0.808718 0.10932
H_ H_ 0.546446 0.66313 0.682115 0.10932
H_ H_ 0.813904 0.644155 0.677342 0.10932
H_ H_ 0.534263 0.583956 0.813316 0.10932
H_ H_ 0.773947 0.601622 0.812306 0.10932
H_ H_ 0.595142 0.703117 0.863631 0.10932
H_ H_ 0.891202 0.684663 0.847104 0.10932
H_ H_ 0.63208 0.824958 0.851557 0.10932
H_ H_ 0.870085 0.812621 0.865986 0.10932
H_ H_ 0.634497 0.829924 0.93054 0.10932
H_ H_ 0.871123 0.806628 0.938525 0.10932
H_ H_ 0.592423 0.707776 0.938018 0.10932
H_ H_ 0.895539 0.678016 0.923933 0.10932
H_ H_ 0.62263 0.689754 0.637895 0.10932
H_ H_ 0.891186 0.816155 0.642732 0.10932
H_ H_ 0.630025 0.818021 0.647777 0.10932
H_ H_ 0.871371 0.688297 0.642588 0.10932
H_ H_ 0.639343 0.82571 0.57012 0.10932
H_ H_ 0.87209 0.687323 0.564298 0.10932
H_ H_ 0.614598 0.698999 0.557727 0.10932
H_ H_ 0.899632 0.813666 0.564886 0.10932
C_ C_ 0.564546 0.852914 0.743724 -0.02249
C_ C_ 0.819963 0.85349 0.754835 -0.02249
C_ C_ 0.515762 0.967241 0.746417 -0.02249
C_ C_ 0.767954 0.965795 0.7595 -0.02249
C_ C_ 0.543944 0.915565 0.707923 -0.11473
C_ C_ 0.793753 0.910942 0.721322 -0.11473
C_ C_ 0.552678 0.866326 0.782576 -0.11473
C_ C_ 0.811543 0.869667 0.795969 -0.11473
C_ C_ 0.558933 0.8775 0.70608 -0.11473
C_ C_ 0.811331 0.874948 0.719384 -0.11473
C_ C_ 0.532253 0.927276 0.745168 -0.02249
C_ C_ 0.786306 0.927055 0.759423 -0.02249
C_ C_ 0.583838 0.814152 0.743312 0.6875
C_ C_ 0.83817 0.814595 0.751342 0.6875
C_ C_ 0.537879 0.90547 0.783252 -0.11473
C_ C_ 0.796373 0.908355 0.796583 -0.11473
C_ C_ 0.680306 0.85378 0.756596 -0.02249
C_ C_ 0.934744 0.848635 0.751116 -0.02249
C_ C_ 0.735882 0.964747 0.75769 -0.02249
C_ C_ 0.982579 0.962603 0.749493 -0.02249
C_ C_ 0.711677 0.903206 0.792982 -0.11473
C_ C_ 0.962221 0.902764 0.790557 -0.11473
C_ C_ 0.683537 0.877133 0.719627 -0.11473
C_ C_ 0.937341 0.871579 0.71423 -0.11473
C_ C_ 0.696269 0.865341 0.791694 -0.11473
C_ C_ 0.945032 0.866962 0.790499 -0.11473
C_ C_ 0.719129 0.923915 0.756449 -0.02249
C_ C_ 0.96801 0.922059 0.750217 -0.02249
C_ C_ 0.662732 0.814936 0.753277 0.6875
C_ C_ 0.915023 0.810958 0.7501 0.6875
C_ C_ 0.703635 0.910676 0.719262 -0.11473
C_ C_ 0.95655 0.903974 0.714278 -0.11473
C_ C_ 0.680993 0.656075 0.752488 -0.02249
C_ C_ 0.934881 0.65214 0.744999 -0.02249
C_ C_ 0.73278 0.538887 0.75162 -0.02249
C_ C_ 0.987338 0.539703 0.743251 -0.02249
C_ C_ 0.699832 0.594595 0.78811 -0.11473
C_ C_ 0.951043 0.586103 0.77856 -0.11473
C_ C_ 0.695897 0.642226 0.715402 -0.11473
C_ C_ 0.95154 0.641999 0.708766 -0.11473
C_ C_ 0.684657 0.633207 0.790519 -0.11473
C_ C_ 0.934811 0.624591 0.780533 -0.11473
C_ C_ 0.715689 0.58019 0.75307 -0.02249
C_ C_ 0.968987 0.57922 0.743789 -0.02249
C_ C_ 0.661159 0.694341 0.753097 0.6875
C_ C_ 0.91608 0.68991 0.74573 0.6875
C_ C_ 0.711231 0.6033 0.715697 -0.11473
C_ C_ 0.967457 0.604014 0.706806 -0.11473
C_ C_ 0.556932 0.661988 0.747985 -0.02249
C_ C_ 0.811907 0.657244 0.742644 -0.02249
C_ C_ 0.512728 0.542643 0.7441 -0.02249
C_ C_ 0.764157 0.540109 0.754918 -0.02249
C_ C_ 0.530586 0.607855 0.707931 -0.11473
C_ C_ 0.790704 0.594388 0.71013 -0.11473
C_ C_ 0.551449 0.640807 0.785298 -0.11473
C_ C_ 0.800215 0.644594 0.780818 -0.11473
C_ C_ 0.542955 0.646758 0.709643 -0.11473
C_ C_ 0.804087 0.634185 0.706642 -0.11473
C_ C_ 0.526598 0.585298 0.745057 -0.02249
C_ C_ 0.781455 0.579357 0.75063 -0.02249
C_ C_ 0.581355 0.695596 0.747262 0.6875
C_ C_ 0.831586 0.696334 0.741407 0.6875
C_ C_ 0.535165 0.6022 0.784448 -0.11473
C_ C_ 0.783437 0.607598 0.783559 -0.11473
C_ C_ 0.6034 0.730856 0.878299 0.17695
C_ C_ 0.885012 0.710452 0.868779 0.17695
C_ C_ 0.623038 0.799429 0.871726 0.17695
C_ C_ 0.873538 0.782001 0.877279 0.17695
C_ C_ 0.625719 0.801709 0.916781 -0.11473
C_ C_ 0.876555 0.778723 0.92128 -0.11473
C_ C_ 0.615162 0.769385 0.942607 0.23465
C_ C_ 0.886363 0.740996 0.939179 0.23465
C_ C_ 0.602794 0.733947 0.921618 -0.11473
C_ C_ 0.889124 0.708127 0.911243 -0.11473
C_ C_ 0.625038 0.719405 0.622203 0.17695
C_ C_ 0.887835 0.787835 0.623959 0.17695
C_ C_ 0.628991 0.791781 0.627437 0.17695
C_ C_ 0.869984 0.716997 0.624274 0.17695
C_ C_ 0.632969 0.795963 0.583126 -0.11473
C_ C_ 0.870257 0.715969 0.580914 -0.11473
C_ C_ 0.631049 0.761772 0.557545 0.23465
C_ C_ 0.880554 0.751246 0.559281 0.23465
C_ C_ 0.62325 0.724367 0.57673 -0.11473
C_ C_ 0.891985 0.786519 0.581509 -0.11473
C_ C_ 0.531329 0.00572431 0.742352 0.05793
C_ C_ 0.782982 0.00344349 0.756722 0.05793
C_ C_ 0.716915 0.501676 0.753065 0.05793
C_ C_ 0.971563 0.501966 0.743929 0.05793
Br Br 0.575194 0.00803157 0.750485 -0.17191
Br Br 0.82593 1.00647592 0.764854 -0.17191
Br Br 0.673969 0.504195 0.747981 -0.17191
Br Br 0.92907 0.501586 0.728248 -0.17191
N_ N_ 0.615339 0.7621 0.854814 -0.272
N_ N_ 0.879079 0.747702 0.852579 -0.272
N_ N_ 0.616998 0.771168 0.988318 -0.12501
N_ N_ 0.889939 0.737026 0.982016 -0.12501
N_ N_ 0.62698 0.754109 0.646186 -0.272
N_ N_ 0.876475 0.753898 0.643254 -0.272
N_ N_ 0.629804 0.766952 0.512987 -0.12501
N_ N_ 0.886204 0.75089 0.515738 -0.12501
O_ O_ 0.590591 0.79719 0.710082 -0.60745
O_ O_ 0.84683 0.801701 0.715852 -0.60745
O_ O_ 0.595019 0.800885 0.778261 -0.60745
O_ O_ 0.847477 0.797556 0.78496 -0.60745
O_ O_ 0.654117 0.800368 0.787282 -0.60745
O_ O_ 0.905993 0.796973 0.784202 -0.60745
O_ O_ 0.651585 0.801464 0.720118 -0.60745
O_ O_ 0.908194 0.791816 0.715928 -0.60745
O_ O_ 0.651072 0.708899 0.787018 -0.60745
O_ O_ 0.909535 0.707937 0.780411 -0.60745
O_ O_ 0.655094 0.711941 0.718132 -0.60745
O_ O_ 0.90584 0.704096 0.710727 -0.60745
O_ O_ 0.590957 0.70869 0.712722 -0.60745
O_ O_ 0.840217 0.709854 0.70584 -0.60745
O_ O_ 0.590048 0.713413 0.780856 -0.60745
O_ O_ 0.846405 0.705923 0.774343 -0.60745
