_cell_length_a 44.444
_cell_length_b 32.3360000049186
_cell_length_c 31.843999878906452
_cell_angle_alpha 89.99799923859553
_cell_angle_beta 91.13600050494348
_cell_angle_gamma 89.9990006550086
_symmetry_space_group_name_H-M         'P 1'
_symmetry_Int_Tables_number            1
loop_
_symmetry_equiv_pos_as_xyz
   'x, y, z'
                         
loop_
_atom_site_label
_atom_site_type_symbol
_atom_site_fract_x 
_atom_site_fract_y
_atom_site_fract_z
_atom_site_charge
Zn Zn 0.125394 0.248888 0.289195 0.9476
Zn Zn 0.374056 0.252446 0.283923 0.9476
Zn Zn 0.126284 0.250637 0.219311 0.9476
Zn Zn 0.374857 0.25393 0.214308 0.9476
H_ H_ 0.0372996 0.418218 0.186698 0.10932
H_ H_ 0.269758 0.408707 0.173467 0.10932
H_ H_ 0.0690876 0.354302 0.321347 0.10932
H_ H_ 0.314594 0.35846 0.309788 0.10932
H_ H_ 0.0661561 0.355059 0.188547 0.10932
H_ H_ 0.305118 0.35024 0.174744 0.10932
H_ H_ 0.0420066 0.421835 0.321074 0.10932
H_ H_ 0.281391 0.419273 0.308693 0.10932
H_ H_ 0.221956 0.409078 0.31587 0.10932
H_ H_ 0.464968 0.420059 0.315905 0.10932
H_ H_ 0.172209 0.359788 0.188066 0.10932
H_ H_ 0.427167 0.367216 0.180509 0.10932
H_ H_ 0.20082 0.340428 0.317038 0.10932
H_ H_ 0.435134 0.355472 0.31875 0.10932
H_ H_ 0.199454 0.42611 0.183062 0.10932
H_ H_ 0.452958 0.428919 0.183934 0.10932
H_ H_ 0.22954 0.0951446 0.319973 0.10932
H_ H_ 0.460615 0.0772752 0.315702 0.10932
H_ H_ 0.174848 0.136965 0.19174 0.10932
H_ H_ 0.431996 0.146254 0.184229 0.10932
H_ H_ 0.202911 0.16248 0.314102 0.10932
H_ H_ 0.44105 0.147842 0.317009 0.10932
H_ H_ 0.201487 0.072174 0.189194 0.10932
H_ H_ 0.456394 0.0801854 0.179573 0.10932
H_ H_ 0.0497623 0.0734209 0.186562 0.10932
H_ H_ 0.270744 0.0954135 0.190023 0.10932
H_ H_ 0.0535557 0.156559 0.31642 0.10932
H_ H_ 0.327201 0.14447 0.315238 0.10932
H_ H_ 0.0772001 0.137437 0.184699 0.10932
H_ H_ 0.296244 0.162179 0.187731 0.10932
H_ H_ 0.0220001 0.0954031 0.313131 0.10932
H_ H_ 0.298831 0.0788312 0.320074 0.10932
H_ H_ 0.121753 0.31764 0.358013 0.10932
H_ H_ 0.373121 0.315255 0.355603 0.10932
H_ H_ 0.120775 0.186993 0.366287 0.10932
H_ H_ 0.374285 0.184818 0.363603 0.10932
H_ H_ 0.128867 0.19084 0.445385 0.10932
H_ H_ 0.373066 0.188992 0.436437 0.10932
H_ H_ 0.115494 0.323565 0.435079 0.10932
H_ H_ 0.371701 0.319806 0.432623 0.10932
H_ H_ 0.129228 0.320085 0.150321 0.10932
H_ H_ 0.374084 0.31571 0.13792 0.10932
H_ H_ 0.125169 0.189422 0.143328 0.10932
H_ H_ 0.378236 0.186845 0.148658 0.10932
H_ H_ 0.124567 0.191269 0.0615458 0.10932
H_ H_ 0.384853 0.18202 0.0685121 0.10932
H_ H_ 0.133622 0.32507 0.0724588 0.10932
H_ H_ 0.382764 0.317293 0.0605753 0.10932
C_ C_ 0.0702288 0.34904 0.254831 -0.02249
C_ C_ 0.312747 0.35112 0.242079 -0.02249
C_ C_ 0.0186786 0.463587 0.253767 -0.02249
C_ C_ 0.258622 0.46407 0.239863 -0.02249
C_ C_ 0.0417391 0.402566 0.216452 -0.11473
C_ C_ 0.281334 0.400303 0.203814 -0.11473
C_ C_ 0.0627196 0.369565 0.292613 -0.11473
C_ C_ 0.306877 0.37274 0.279152 -0.11473
C_ C_ 0.058672 0.365776 0.217269 -0.11473
C_ C_ 0.298961 0.365062 0.203984 -0.11473
C_ C_ 0.0352309 0.422287 0.254213 -0.02249
C_ C_ 0.276167 0.423712 0.239825 -0.02249
C_ C_ 0.0909239 0.312295 0.254553 0.6875
C_ C_ 0.334531 0.314527 0.242452 0.6875
C_ C_ 0.0461156 0.405282 0.292799 -0.11473
C_ C_ 0.289523 0.409805 0.278442 -0.11473
C_ C_ 0.182438 0.345466 0.253238 -0.02249
C_ C_ 0.430424 0.353173 0.250525 -0.02249
C_ C_ 0.227885 0.464042 0.251857 -0.02249
C_ C_ 0.483078 0.465566 0.248485 -0.02249
C_ C_ 0.211533 0.399163 0.288742 -0.11473
C_ C_ 0.46044 0.405201 0.287121 -0.11473
C_ C_ 0.181466 0.372491 0.215843 -0.11473
C_ C_ 0.435108 0.375352 0.211983 -0.11473
C_ C_ 0.198557 0.360677 0.288963 -0.11473
C_ C_ 0.441942 0.369514 0.287866 -0.11473
C_ C_ 0.210588 0.425483 0.25289 -0.02249
C_ C_ 0.466296 0.425862 0.249947 -0.02249
C_ C_ 0.166844 0.305765 0.253514 0.6875
C_ C_ 0.41334 0.312198 0.249185 0.6875
C_ C_ 0.196304 0.410689 0.214565 -0.11473
C_ C_ 0.452742 0.411 0.211702 -0.11473
C_ C_ 0.18259 0.150448 0.255385 -0.02249
C_ C_ 0.429449 0.150382 0.25018 -0.02249
C_ C_ 0.235853 0.0398866 0.255281 -0.02249
C_ C_ 0.481748 0.0363655 0.248285 -0.02249
C_ C_ 0.215802 0.102405 0.292138 -0.11473
C_ C_ 0.455795 0.0934523 0.287672 -0.11473
C_ C_ 0.184611 0.125755 0.221031 -0.11473
C_ C_ 0.437313 0.130983 0.212457 -0.11473
C_ C_ 0.199292 0.139859 0.290596 -0.11473
C_ C_ 0.439197 0.131475 0.288329 -0.11473
C_ C_ 0.21784 0.0766376 0.256431 -0.02249
C_ C_ 0.464633 0.0765148 0.248656 -0.02249
C_ C_ 0.163164 0.187186 0.255697 0.6875
C_ C_ 0.414831 0.192665 0.249861 0.6875
C_ C_ 0.201575 0.0892086 0.220238 -0.11473
C_ C_ 0.454138 0.0960211 0.211169 -0.11473
C_ C_ 0.066229 0.154261 0.248889 -0.02249
C_ C_ 0.313045 0.16024 0.252237 -0.02249
C_ C_ 0.0181563 0.0371535 0.252024 -0.02249
C_ C_ 0.266911 0.04116 0.250738 -0.02249
C_ C_ 0.0487589 0.0917454 0.212724 -0.11473
C_ C_ 0.279647 0.108618 0.218589 -0.11473
C_ C_ 0.0513064 0.140378 0.285697 -0.11473
C_ C_ 0.31393 0.134739 0.288051 -0.11473
C_ C_ 0.0627728 0.130997 0.21045 -0.11473
C_ C_ 0.295975 0.145914 0.217788 -0.11473
C_ C_ 0.0344225 0.0771946 0.249115 -0.02249
C_ C_ 0.281801 0.0824148 0.254526 -0.02249
C_ C_ 0.0876272 0.191529 0.251608 0.6875
C_ C_ 0.33351 0.196533 0.250817 0.6875
C_ C_ 0.0338711 0.104747 0.284363 -0.11473
C_ C_ 0.297409 0.0972606 0.291175 -0.11473
C_ C_ 0.127112 0.290136 0.377918 0.17695
C_ C_ 0.372491 0.288031 0.373861 0.17695
C_ C_ 0.121269 0.217022 0.381906 0.17695
C_ C_ 0.373035 0.21543 0.377702 0.17695
C_ C_ 0.125516 0.218116 0.425842 -0.11473
C_ C_ 0.371284 0.217156 0.421513 -0.11473
C_ C_ 0.126197 0.257605 0.446857 0.23465
C_ C_ 0.372757 0.254415 0.443095 0.23465
C_ C_ 0.122513 0.293668 0.420958 -0.11473
C_ C_ 0.373051 0.2902 0.417069 -0.11473
C_ C_ 0.129385 0.292432 0.130139 0.17695
C_ C_ 0.37843 0.288659 0.121878 0.17695
C_ C_ 0.1248 0.218756 0.126319 0.17695
C_ C_ 0.378122 0.213896 0.126507 0.17695
C_ C_ 0.128017 0.21915 0.0823342 -0.11473
C_ C_ 0.382677 0.211894 0.082814 -0.11473
C_ C_ 0.129971 0.258285 0.0631687 0.23465
C_ C_ 0.383487 0.248323 0.0572577 0.23465
C_ C_ 0.132579 0.294083 0.0866789 -0.11473
C_ C_ 0.381812 0.286793 0.077399 -0.11473
C_ C_ 0.0340522 0.501531 0.251221 0.05793
C_ C_ 0.273655 0.502217 0.237291 0.05793
C_ C_ 0.220347 0.002610000000000001 0.250182 0.05793
C_ C_ 0.466416 0.996688 0.246206 0.05793
Br Br 0.0769884 0.503086 0.25985 -0.17191
Br Br 0.314262 0.502358 0.216308 -0.17191
Br Br 0.179104 -0.000637421 0.254865 -0.17191
Br Br 0.423997 0.991125 0.23581 -0.17191
N_ N_ 0.125456 0.252577 0.359436 -0.272
N_ N_ 0.373657 0.251188 0.354362 -0.272
N_ N_ 0.118488 0.258578 0.489829 -0.12501
N_ N_ 0.379337 0.254742 0.487987 -0.12501
N_ N_ 0.125902 0.254782 0.148574 -0.272
N_ N_ 0.377637 0.25227 0.144239 -0.272
N_ N_ 0.138011 0.260901 0.0188846 -0.12501
N_ N_ 0.386592 0.243674 0.0125724 -0.12501
O_ O_ 0.0992947 0.298019 0.219973 -0.60745
O_ O_ 0.341485 0.295571 0.211495 -0.60745
O_ O_ 0.0998024 0.295928 0.288719 -0.60745
O_ O_ 0.344341 0.300144 0.277466 -0.60745
O_ O_ 0.160572 0.289856 0.288669 -0.60745
O_ O_ 0.404977 0.294375 0.283212 -0.60745
O_ O_ 0.160631 0.287636 0.220399 -0.60745
O_ O_ 0.403569 0.299855 0.21466 -0.60745
O_ O_ 0.151907 0.199355 0.289514 -0.60745
O_ O_ 0.403443 0.205699 0.283803 -0.60745
O_ O_ 0.152222 0.200617 0.221922 -0.60745
O_ O_ 0.409819 0.2125 0.215911 -0.60745
O_ O_ 0.0909052 0.21335 0.218018 -0.60745
O_ O_ 0.345262 0.208476 0.217311 -0.60745
O_ O_ 0.0946534 0.205459 0.287242 -0.60745
O_ O_ 0.340634 0.214109 0.285933 -0.60745
Zn Zn 0.12084 0.252512 0.789325 0.9476
Zn Zn 0.3752 0.250933 0.782746 0.9476
Zn Zn 0.118496 0.250019 0.719417 0.9476
Zn Zn 0.372797 0.250952 0.715368 0.9476
H_ H_ 0.0242323 0.415775 0.682239 0.10932
H_ H_ 0.278663 0.411534 0.679207 0.10932
H_ H_ 0.0669722 0.355037 0.817176 0.10932
H_ H_ 0.313068 0.35873 0.816732 0.10932
H_ H_ 0.0575638 0.354034 0.68379 0.10932
H_ H_ 0.310816 0.345521 0.682363 0.10932
H_ H_ 0.0366899 0.417093 0.819431 0.10932
H_ H_ 0.284369 0.420618 0.808587 0.10932
H_ H_ 0.212075 0.423245 0.811637 0.10932
H_ H_ 0.480463 0.396863 0.808802 0.10932
H_ H_ 0.17851 0.353254 0.679109 0.10932
H_ H_ 0.426936 0.366129 0.678086 0.10932
H_ H_ 0.182769 0.358691 0.816614 0.10932
H_ H_ 0.462629 0.329353 0.800853 0.10932
H_ H_ 0.213471 0.415275 0.674543 0.10932
H_ H_ 0.459798 0.428926 0.680495 0.10932
H_ H_ 0.200121 0.0720165 0.813397 0.10932
H_ H_ 0.465656 0.0810219 0.816878 0.10932
H_ H_ 0.189893 0.15611 0.685797 0.10932
H_ H_ 0.417927 0.136042 0.683561 0.10932
H_ H_ 0.174919 0.140388 0.815168 0.10932
H_ H_ 0.438694 0.148671 0.817885 0.10932
H_ H_ 0.21662 0.0897002 0.682223 0.10932
H_ H_ 0.448838 0.0732909 0.682586 0.10932
H_ H_ 0.0438075 0.0756069 0.698802 0.10932
H_ H_ 0.273821 0.0970389 0.684795 0.10932
H_ H_ 0.0721288 0.141927 0.824697 0.10932
H_ H_ 0.324896 0.137453 0.814699 0.10932
H_ H_ 0.0603542 0.145789 0.690534 0.10932
H_ H_ 0.303306 0.161442 0.687017 0.10932
H_ H_ 0.04031 0.0790906 0.827744 0.10932
H_ H_ 0.294965 0.0726787 0.813922 0.10932
H_ H_ 0.166929 0.238661 0.860304 0.10932
H_ H_ 0.376278 0.318771 0.851449 0.10932
H_ H_ 0.0815405 0.291221 0.863041 0.10932
H_ H_ 0.384528 0.190137 0.866373 0.10932
H_ H_ 0.0796347 0.282379 0.942398 0.10932
H_ H_ 0.385907 0.194539 0.940193 0.10932
H_ H_ 0.168996 0.232648 0.93993 0.10932
H_ H_ 0.375426 0.324916 0.929701 0.10932
H_ H_ 0.130033 0.178522 0.649213 0.10932
H_ H_ 0.414554 0.268345 0.633909 0.10932
H_ H_ 0.0996977 0.302625 0.639507 0.10932
H_ H_ 0.3235 0.223626 0.64395 0.10932
H_ H_ 0.108174 0.302733 0.562427 0.10932
H_ H_ 0.318624 0.226273 0.5681 0.10932
H_ H_ 0.14173 0.176226 0.570786 0.10932
H_ H_ 0.410572 0.264043 0.559639 0.10932
C_ C_ 0.059819 0.348347 0.749496 -0.02249
C_ C_ 0.315686 0.348304 0.749983 -0.02249
C_ C_ 0.0133157 0.464535 0.751443 -0.02249
C_ C_ 0.26373 0.461264 0.741427 -0.02249
C_ C_ 0.0365877 0.405803 0.712947 -0.11473
C_ C_ 0.286401 0.397467 0.708133 -0.11473
C_ C_ 0.0566824 0.367408 0.787391 -0.11473
C_ C_ 0.306219 0.367617 0.786635 -0.11473
C_ C_ 0.0509486 0.366781 0.712867 -0.11473
C_ C_ 0.303899 0.36199 0.710449 -0.11473
C_ C_ 0.0309769 0.425487 0.7512 -0.02249
C_ C_ 0.280445 0.420898 0.743773 -0.02249
C_ C_ 0.0794453 0.310584 0.749831 0.6875
C_ C_ 0.337299 0.31472 0.750001 0.6875
C_ C_ 0.0409519 0.405585 0.788976 -0.11473
C_ C_ 0.289223 0.40376 0.782187 -0.11473
C_ C_ 0.179701 0.34812 0.74745 -0.02249
C_ C_ 0.43743 0.345513 0.7413 -0.02249
C_ C_ 0.232567 0.462096 0.742134 -0.02249
C_ C_ 0.489267 0.45883 0.74713 -0.02249
C_ C_ 0.208296 0.403793 0.783356 -0.11473
C_ C_ 0.471423 0.3914 0.779622 -0.11473
C_ C_ 0.186879 0.366435 0.706896 -0.11473
C_ C_ 0.437297 0.375088 0.707315 -0.11473
C_ C_ 0.189955 0.368529 0.784663 -0.11473
C_ C_ 0.45757 0.352867 0.776124 -0.11473
C_ C_ 0.214734 0.423096 0.743008 -0.02249
C_ C_ 0.474381 0.417848 0.74348 -0.02249
C_ C_ 0.160215 0.31117 0.750283 0.6875
C_ C_ 0.413943 0.311248 0.743939 0.6875
C_ C_ 0.204679 0.403112 0.705076 -0.11473
C_ C_ 0.457387 0.409574 0.707846 -0.11473
C_ C_ 0.185067 0.157103 0.75167 -0.02249
C_ C_ 0.430145 0.150859 0.749074 -0.02249
C_ C_ 0.231714 0.0398549 0.750227 -0.02249
C_ C_ 0.48007 0.036682 0.748963 -0.02249
C_ C_ 0.200672 0.0929706 0.786002 -0.11473
C_ C_ 0.456668 0.0954561 0.787347 -0.11473
C_ C_ 0.196662 0.141539 0.714409 -0.11473
C_ C_ 0.431193 0.127279 0.712032 -0.11473
C_ C_ 0.185563 0.13169 0.787163 -0.11473
C_ C_ 0.443741 0.134933 0.786836 -0.11473
C_ C_ 0.214754 0.0800939 0.74855 -0.02249
C_ C_ 0.461274 0.0752349 0.749097 -0.02249
C_ C_ 0.161893 0.191871 0.751388 0.6875
C_ C_ 0.411178 0.189609 0.748981 0.6875
C_ C_ 0.209914 0.103016 0.711933 -0.11473
C_ C_ 0.447707 0.0911577 0.711532 -0.11473
C_ C_ 0.0650799 0.151871 0.758243 -0.02249
C_ C_ 0.313022 0.159182 0.753541 -0.02249
C_ C_ 0.0216001 0.0325043 0.762074 -0.02249
C_ C_ 0.263871 0.0410675 0.749501 -0.02249
C_ C_ 0.0407057 0.0944109 0.722786 -0.11473
C_ C_ 0.284704 0.107162 0.711786 -0.11473
C_ C_ 0.065484 0.12755 0.796042 -0.11473
C_ C_ 0.317117 0.127399 0.784803 -0.11473
C_ C_ 0.0547055 0.133129 0.720336 -0.11473
C_ C_ 0.299783 0.145575 0.714594 -0.11473
C_ C_ 0.0396188 0.0730849 0.760826 -0.02249
C_ C_ 0.280632 0.0827365 0.748531 -0.02249
C_ C_ 0.0814883 0.19337 0.757968 0.6875
C_ C_ 0.3308 0.197867 0.754821 0.6875
C_ C_ 0.0478458 0.0922147 0.798371 -0.11473
C_ C_ 0.29719 0.0924551 0.784743 -0.11473
C_ C_ 0.146816 0.242916 0.878966 0.17695
C_ C_ 0.374325 0.291175 0.872181 0.17695
C_ C_ 0.0972544 0.271524 0.881123 0.17695
C_ C_ 0.378181 0.219928 0.880364 0.17695
C_ C_ 0.0984252 0.271565 0.924311 -0.11473
C_ C_ 0.378257 0.222024 0.923568 -0.11473
C_ C_ 0.123781 0.25414 0.946856 0.23465
C_ C_ 0.373392 0.260085 0.942759 0.23465
C_ C_ 0.149043 0.244227 0.924461 -0.11473
C_ C_ 0.372138 0.295068 0.916574 -0.11473
C_ C_ 0.12837 0.207551 0.628277 0.17695
C_ C_ 0.392825 0.256909 0.620818 0.17695
C_ C_ 0.112507 0.277081 0.624043 0.17695
C_ C_ 0.342885 0.233362 0.626157 0.17695
C_ C_ 0.114089 0.275922 0.579808 -0.11473
C_ C_ 0.338753 0.235923 0.583193 -0.11473
C_ C_ 0.126645 0.239319 0.560775 0.23465
C_ C_ 0.36416 0.241188 0.559081 0.23465
C_ C_ 0.13441 0.205129 0.585863 -0.11473
C_ C_ 0.391542 0.251407 0.577343 -0.11473
C_ C_ 0.0290252 0.502231 0.746495 0.05793
C_ C_ 0.280935 0.498527 0.743729 0.05793
C_ C_ 0.21628 0.000539384 0.749134 0.05793
C_ C_ 0.465661 0.998468 0.74844 0.05793
Br Br 0.0713564 0.502224 0.731408 -0.17191
Br Br 0.325097 0.493465 0.746629 -0.17191
Br Br 0.174094 -0.0012839999999999518 0.742582 -0.17191
Br Br 0.422502 0.995137 0.737614 -0.17191
N_ N_ 0.120656 0.257711 0.859064 -0.272
N_ N_ 0.374339 0.253367 0.855775 -0.272
N_ N_ 0.121123 0.244854 0.991561 -0.12501
N_ N_ 0.372828 0.265804 0.987362 -0.12501
N_ N_ 0.11791 0.24311 0.647026 -0.272
N_ N_ 0.368756 0.248092 0.645509 -0.272
N_ N_ 0.133244 0.238146 0.517118 -0.12501
N_ N_ 0.36233 0.237177 0.514155 -0.12501
O_ O_ 0.0850287 0.292177 0.715763 -0.60745
O_ O_ 0.344201 0.297378 0.716007 -0.60745
O_ O_ 0.0885527 0.294911 0.784666 -0.60745
O_ O_ 0.344752 0.29744 0.784465 -0.60745
O_ O_ 0.151992 0.297325 0.785841 -0.60745
O_ O_ 0.407995 0.293126 0.77914 -0.60745
O_ O_ 0.147896 0.296796 0.71707 -0.60745
O_ O_ 0.403257 0.296787 0.709368 -0.60745
O_ O_ 0.154227 0.208407 0.787374 -0.60745
O_ O_ 0.404558 0.208909 0.78342 -0.60745
O_ O_ 0.154077 0.208021 0.718039 -0.60745
O_ O_ 0.402152 0.205619 0.713926 -0.60745
O_ O_ 0.0889064 0.20756 0.723183 -0.60745
O_ O_ 0.339246 0.212144 0.721998 -0.60745
O_ O_ 0.0926395 0.207488 0.791936 -0.60745
O_ O_ 0.345019 0.207101 0.788259 -0.60745
Zn Zn 0.124959 0.752504 0.286687 0.9476
Zn Zn 0.374404 0.752875 0.280459 0.9476
Zn Zn 0.124396 0.755049 0.216312 0.9476
Zn Zn 0.37661 0.751251 0.210549 0.9476
H_ H_ 0.0281029 0.912357 0.189066 0.10932
H_ H_ 0.278125 0.915474 0.179651 0.10932
H_ H_ 0.0650954 0.855157 0.322488 0.10932
H_ H_ 0.326484 0.868021 0.309326 0.10932
H_ H_ 0.060978 0.855653 0.187203 0.10932
H_ H_ 0.307255 0.847491 0.179084 0.10932
H_ H_ 0.0268852 0.908737 0.32239 0.10932
H_ H_ 0.293019 0.925249 0.313429 0.10932
H_ H_ 0.224672 0.918675 0.314314 0.10932
H_ H_ 0.463244 0.918541 0.314173 0.10932
H_ H_ 0.181268 0.85441 0.18189 0.10932
H_ H_ 0.443055 0.846596 0.180699 0.10932
H_ H_ 0.191641 0.856026 0.317672 0.10932
H_ H_ 0.425654 0.858933 0.314386 0.10932
H_ H_ 0.210376 0.916957 0.180623 0.10932
H_ H_ 0.472885 0.909778 0.18171 0.10932
H_ H_ 0.236774 0.605756 0.309615 0.10932
H_ H_ 0.486326 0.602279 0.302564 0.10932
H_ H_ 0.164983 0.630801 0.190551 0.10932
H_ H_ 0.41928 0.638199 0.181507 0.10932
H_ H_ 0.207937 0.669771 0.308595 0.10932
H_ H_ 0.453356 0.663537 0.305359 0.10932
H_ H_ 0.18807 0.561412 0.198796 0.10932
H_ H_ 0.446093 0.571174 0.183977 0.10932
H_ H_ 0.0375399 0.575566 0.186612 0.10932
H_ H_ 0.265738 0.590505 0.180803 0.10932
H_ H_ 0.0637702 0.653475 0.319101 0.10932
H_ H_ 0.321874 0.641142 0.311413 0.10932
H_ H_ 0.0694556 0.647811 0.184324 0.10932
H_ H_ 0.296072 0.657324 0.180404 0.10932
H_ H_ 0.0296797 0.595228 0.318754 0.10932
H_ H_ 0.288354 0.579644 0.313174 0.10932
H_ H_ 0.103102 0.805246 0.362762 0.10932
H_ H_ 0.360433 0.687188 0.364397 0.10932
H_ H_ 0.134392 0.683676 0.355542 0.10932
H_ H_ 0.388768 0.811693 0.353558 0.10932
H_ H_ 0.133947 0.678515 0.435808 0.10932
H_ H_ 0.393887 0.815994 0.430851 0.10932
H_ H_ 0.108853 0.809258 0.440385 0.10932
H_ H_ 0.367612 0.691381 0.44059 0.10932
H_ H_ 0.17099 0.781524 0.136096 0.10932
H_ H_ 0.385439 0.691285 0.134051 0.10932
H_ H_ 0.0800292 0.735104 0.137778 0.10932
H_ H_ 0.378319 0.819651 0.138992 0.10932
H_ H_ 0.0789707 0.730477 0.0606271 0.10932
H_ H_ 0.373051 0.825839 0.0650387 0.10932
H_ H_ 0.169908 0.779945 0.0580221 0.10932
H_ H_ 0.382538 0.691057 0.0562238 0.10932
C_ C_ 0.06779 0.85095 0.255954 -0.02249
C_ C_ 0.320638 0.853289 0.24327 -0.02249
C_ C_ 0.0151787 0.960374 0.25831 -0.02249
C_ C_ 0.267702 0.965958 0.247848 -0.02249
C_ C_ 0.0388174 0.903704 0.218295 -0.11473
C_ C_ 0.289077 0.904007 0.207659 -0.11473
C_ C_ 0.0580162 0.868119 0.293263 -0.11473
C_ C_ 0.314938 0.875577 0.280919 -0.11473
C_ C_ 0.0559399 0.86746 0.21743 -0.11473
C_ C_ 0.307314 0.868015 0.206415 -0.11473
C_ C_ 0.030429 0.92028 0.255678 -0.02249
C_ C_ 0.285311 0.926994 0.245443 -0.02249
C_ C_ 0.0856602 0.812331 0.253824 0.6875
C_ C_ 0.342658 0.818793 0.244481 0.6875
C_ C_ 0.0378452 0.899934 0.293707 -0.11473
C_ C_ 0.29596 0.909013 0.282957 -0.11473
C_ C_ 0.182884 0.852753 0.251339 -0.02249
C_ C_ 0.436403 0.844036 0.246492 -0.02249
C_ C_ 0.235921 0.965715 0.246305 -0.02249
C_ C_ 0.484227 0.959221 0.24451 -0.02249
C_ C_ 0.215576 0.904847 0.286624 -0.11473
C_ C_ 0.45736 0.90372 0.285043 -0.11473
C_ C_ 0.190142 0.868862 0.212331 -0.11473
C_ C_ 0.447095 0.861745 0.209812 -0.11473
C_ C_ 0.196583 0.868979 0.287931 -0.11473
C_ C_ 0.438064 0.867966 0.284585 -0.11473
C_ C_ 0.219275 0.923986 0.248068 -0.02249
C_ C_ 0.469176 0.919496 0.247752 -0.02249
C_ C_ 0.162702 0.816207 0.252932 0.6875
C_ C_ 0.417257 0.807742 0.24494 0.6875
C_ C_ 0.207862 0.905146 0.211054 -0.11473
C_ C_ 0.464588 0.898149 0.21037 -0.11473
C_ C_ 0.182044 0.654745 0.249797 -0.02249
C_ C_ 0.435513 0.656777 0.242757 -0.02249
C_ C_ 0.228979 0.538475 0.256967 -0.02249
C_ C_ 0.483841 0.540769 0.242839 -0.02249
C_ C_ 0.217514 0.608489 0.285231 -0.11473
C_ C_ 0.470386 0.607283 0.278477 -0.11473
C_ C_ 0.177919 0.623826 0.218018 -0.11473
C_ C_ 0.432408 0.629938 0.208845 -0.11473
C_ C_ 0.202535 0.646233 0.283747 -0.11473
C_ C_ 0.452026 0.642678 0.279418 -0.11473
C_ C_ 0.212063 0.57729 0.253922 -0.02249
C_ C_ 0.468125 0.58187 0.242627 -0.02249
C_ C_ 0.166163 0.694959 0.248622 0.6875
C_ C_ 0.415324 0.691475 0.242905 0.6875
C_ C_ 0.192558 0.585382 0.221149 -0.11473
C_ C_ 0.448852 0.593061 0.20821 -0.11473
C_ C_ 0.068674 0.653256 0.249452 -0.02249
C_ C_ 0.313887 0.653367 0.243952 -0.02249
C_ C_ 0.0187069 0.539228 0.252601 -0.02249
C_ C_ 0.259815 0.539251 0.245722 -0.02249
C_ C_ 0.0461973 0.59299 0.213458 -0.11473
C_ C_ 0.278009 0.604847 0.211571 -0.11473
C_ C_ 0.0582451 0.637023 0.28844 -0.11473
C_ C_ 0.310574 0.631341 0.282092 -0.11473
C_ C_ 0.0605757 0.632911 0.213704 -0.11473
C_ C_ 0.297315 0.639033 0.208947 -0.11473
C_ C_ 0.035515 0.579325 0.252166 -0.02249
C_ C_ 0.276509 0.580477 0.247639 -0.02249
C_ C_ 0.0877218 0.689261 0.248263 0.6875
C_ C_ 0.331869 0.693017 0.244166 0.6875
C_ C_ 0.0410299 0.602776 0.289879 -0.11473
C_ C_ 0.293718 0.59373 0.283654 -0.11473
C_ C_ 0.116437 0.783241 0.378935 0.17695
C_ C_ 0.365009 0.718587 0.37749 0.17695
C_ C_ 0.131367 0.711563 0.375142 0.17695
C_ C_ 0.381889 0.787083 0.372709 0.17695
C_ C_ 0.130016 0.707645 0.419642 -0.11473
C_ C_ 0.383844 0.790287 0.416216 -0.11473
C_ C_ 0.122789 0.743565 0.44338 0.23465
C_ C_ 0.377751 0.755727 0.439966 0.23465
C_ C_ 0.115323 0.781245 0.422225 -0.11473
C_ C_ 0.36801 0.719564 0.421613 -0.11473
C_ C_ 0.15023 0.767098 0.120941 0.17695
C_ C_ 0.381685 0.720021 0.117776 0.17695
C_ C_ 0.0996722 0.743312 0.121448 0.17695
C_ C_ 0.378818 0.791987 0.121382 0.17695
C_ C_ 0.0998672 0.7409 0.077284 -0.11473
C_ C_ 0.379026 0.795356 0.0787848 -0.11473
C_ C_ 0.125617 0.751992 0.0553942 0.23465
C_ C_ 0.378272 0.759084 0.0534648 0.23465
C_ C_ 0.150909 0.766704 0.0769159 -0.11473
C_ C_ 0.383355 0.721356 0.073893 -0.11473
C_ C_ 0.0319302 0.997977 0.256199 0.05793
C_ C_ 0.283534 1.00323874 0.246572 0.05793
C_ C_ 0.214296 0.500782 0.264087 0.05793
C_ C_ 0.466788 0.503355 0.24706 0.05793
Br Br 0.0739369 -0.008075999999999972 0.267333 -0.17191
Br Br 0.325651 1.00746119 0.232849 -0.17191
Br Br 0.174094 0.505451 0.290185 -0.17191
Br Br 0.423418 0.504373 0.262016 -0.17191
N_ N_ 0.124409 0.748788 0.356549 -0.272
N_ N_ 0.373579 0.750704 0.353858 -0.272
N_ N_ 0.117797 0.738376 0.486965 -0.12501
N_ N_ 0.382713 0.75646 0.484231 -0.12501
N_ N_ 0.124718 0.755637 0.143098 -0.272
N_ N_ 0.378045 0.754673 0.140281 -0.272
N_ N_ 0.123495 0.752416 0.01187 -0.12501
N_ N_ 0.374011 0.763627 0.00960261 -0.12501
O_ O_ 0.0920658 0.796942 0.2182 -0.60745
O_ O_ 0.344492 0.793593 0.212437 -0.60745
O_ O_ 0.0912351 0.791943 0.286267 -0.60745
O_ O_ 0.348672 0.803569 0.279504 -0.60745
O_ O_ 0.151712 0.802198 0.286399 -0.60745
O_ O_ 0.408103 0.791865 0.277836 -0.60745
O_ O_ 0.153759 0.800912 0.217548 -0.60745
O_ O_ 0.40636 0.794855 0.209072 -0.60745
O_ O_ 0.158689 0.711693 0.283286 -0.60745
O_ O_ 0.402835 0.70219 0.27669 -0.60745
O_ O_ 0.155884 0.708912 0.214482 -0.60745
O_ O_ 0.41066 0.711893 0.208917 -0.60745
O_ O_ 0.0954564 0.706085 0.214635 -0.60745
O_ O_ 0.342027 0.706168 0.210407 -0.60745
O_ O_ 0.0959882 0.704915 0.282475 -0.60745
O_ O_ 0.342275 0.70984 0.279441 -0.60745
Zn Zn 0.128047 0.745022 0.781737 0.9476
Zn Zn 0.375385 0.750122 0.781082 0.9476
Zn Zn 0.124173 0.744264 0.713004 0.9476
Zn Zn 0.376777 0.749432 0.712144 0.9476
H_ H_ 0.0441795 0.918218 0.685906 0.10932
H_ H_ 0.274294 0.912221 0.684662 0.10932
H_ H_ 0.0607384 0.842572 0.819352 0.10932
H_ H_ 0.327641 0.871498 0.813506 0.10932
H_ H_ 0.0643306 0.846962 0.682616 0.10932
H_ H_ 0.306454 0.849115 0.684339 0.10932
H_ H_ 0.034869 0.908739 0.818476 0.10932
H_ H_ 0.293983 0.933299 0.813949 0.10932
H_ H_ 0.21911 0.915073 0.81414 0.10932
H_ H_ 0.453501 0.927641 0.81315 0.10932
H_ H_ 0.175079 0.863029 0.684683 0.10932
H_ H_ 0.442683 0.8452 0.681713 0.10932
H_ H_ 0.192495 0.849009 0.815942 0.10932
H_ H_ 0.4176 0.870547 0.809961 0.10932
H_ H_ 0.21179 0.916061 0.682685 0.10932
H_ H_ 0.48021 0.906812 0.689351 0.10932
H_ H_ 0.207376 0.572803 0.812402 0.10932
H_ H_ 0.457432 0.571783 0.814718 0.10932
H_ H_ 0.193879 0.651907 0.682753 0.10932
H_ H_ 0.43369 0.641708 0.680138 0.10932
H_ H_ 0.179445 0.634538 0.813779 0.10932
H_ H_ 0.426319 0.638493 0.81352 0.10932
H_ H_ 0.230885 0.597454 0.683763 0.10932
H_ H_ 0.471684 0.584062 0.683151 0.10932
H_ H_ 0.0370929 0.577821 0.681556 0.10932
H_ H_ 0.289615 0.574635 0.685482 0.10932
H_ H_ 0.0571926 0.650733 0.818288 0.10932
H_ H_ 0.303267 0.656816 0.816858 0.10932
H_ H_ 0.0680408 0.64315 0.684881 0.10932
H_ H_ 0.319853 0.642301 0.684135 0.10932
H_ H_ 0.0243429 0.59371 0.815008 0.10932
H_ H_ 0.276171 0.590136 0.814052 0.10932
H_ H_ 0.134983 0.809911 0.861031 0.10932
H_ H_ 0.382224 0.816746 0.866747 0.10932
H_ H_ 0.128497 0.676507 0.856788 0.10932
H_ H_ 0.368911 0.685888 0.847861 0.10932
H_ H_ 0.134923 0.673792 0.931584 0.10932
H_ H_ 0.370522 0.675407 0.925108 0.10932
H_ H_ 0.136086 0.804612 0.941424 0.10932
H_ H_ 0.378443 0.808187 0.940289 0.10932
H_ H_ 0.12412 0.683044 0.633613 0.10932
H_ H_ 0.325903 0.73194 0.636845 0.10932
H_ H_ 0.120213 0.814511 0.646483 0.10932
H_ H_ 0.416553 0.759318 0.635902 0.10932
H_ H_ 0.120555 0.823352 0.568725 0.10932
H_ H_ 0.414638 0.757228 0.55418 0.10932
H_ H_ 0.12557 0.69212 0.558282 0.10932
H_ H_ 0.324418 0.728219 0.560054 0.10932
C_ C_ 0.0629784 0.83754 0.75149 -0.02249
C_ C_ 0.317028 0.852759 0.747008 -0.02249
C_ C_ 0.0197839 0.95709 0.75168 -0.02249
C_ C_ 0.2638 0.964159 0.747686 -0.02249
C_ C_ 0.0431646 0.898849 0.713736 -0.11473
C_ C_ 0.286592 0.904072 0.711384 -0.11473
C_ C_ 0.0569217 0.855967 0.789167 -0.11473
C_ C_ 0.313274 0.875468 0.786178 -0.11473
C_ C_ 0.0564942 0.860167 0.714194 -0.11473
C_ C_ 0.30722 0.869694 0.709978 -0.11473
C_ C_ 0.0369995 0.918143 0.751563 -0.02249
C_ C_ 0.281423 0.924736 0.747835 -0.02249
C_ C_ 0.0862506 0.803781 0.750216 0.6875
C_ C_ 0.337607 0.813306 0.747426 0.6875
C_ C_ 0.0415985 0.894551 0.788467 -0.11473
C_ C_ 0.29428 0.911058 0.78585 -0.11473
C_ C_ 0.178174 0.851249 0.75123 -0.02249
C_ C_ 0.430637 0.852961 0.747049 -0.02249
C_ C_ 0.232276 0.964172 0.751486 -0.02249
C_ C_ 0.484022 0.963031 0.751842 -0.02249
C_ C_ 0.209523 0.901465 0.786416 -0.11473
C_ C_ 0.454579 0.906764 0.787238 -0.11473
C_ C_ 0.186087 0.872047 0.713909 -0.11473
C_ C_ 0.449061 0.86005 0.711934 -0.11473
C_ C_ 0.191297 0.867238 0.7877 -0.11473
C_ C_ 0.433303 0.875786 0.784401 -0.11473
C_ C_ 0.215193 0.923253 0.749327 -0.02249
C_ C_ 0.468774 0.920249 0.751288 -0.02249
C_ C_ 0.160483 0.809773 0.751076 0.6875
C_ C_ 0.414393 0.81354 0.745398 0.6875
C_ C_ 0.20687 0.903368 0.712068 -0.11473
C_ C_ 0.467355 0.895425 0.714883 -0.11473
C_ C_ 0.181075 0.646829 0.746138 -0.02249
C_ C_ 0.430637 0.646877 0.747276 -0.02249
C_ C_ 0.23386 0.536569 0.746619 -0.02249
C_ C_ 0.484642 0.534913 0.748555 -0.02249
C_ C_ 0.20417 0.588506 0.78325 -0.11473
C_ C_ 0.453295 0.58825 0.786115 -0.11473
C_ C_ 0.196909 0.633983 0.71021 -0.11473
C_ C_ 0.441186 0.628295 0.711014 -0.11473
C_ C_ 0.188262 0.625329 0.783658 -0.11473
C_ C_ 0.4367 0.626172 0.785131 -0.11473
C_ C_ 0.216912 0.575323 0.746724 -0.02249
C_ C_ 0.464904 0.571432 0.748838 -0.02249
C_ C_ 0.161565 0.684632 0.745496 0.6875
C_ C_ 0.413741 0.686347 0.746601 0.6875
C_ C_ 0.216699 0.601967 0.7108 -0.11473
C_ C_ 0.460746 0.594952 0.712327 -0.11473
C_ C_ 0.0675638 0.650448 0.750588 -0.02249
C_ C_ 0.313706 0.653724 0.750273 -0.02249
C_ C_ 0.0127601 0.539143 0.750115 -0.02249
C_ C_ 0.265693 0.536608 0.750208 -0.02249
C_ C_ 0.0396639 0.593282 0.71041 -0.11473
C_ C_ 0.295243 0.590565 0.71397 -0.11473
C_ C_ 0.0535 0.636508 0.787356 -0.11473
C_ C_ 0.300684 0.639463 0.786315 -0.11473
C_ C_ 0.0605569 0.629233 0.71221 -0.11473
C_ C_ 0.309232 0.630168 0.71332 -0.11473
C_ C_ 0.0291333 0.578865 0.749167 -0.02249
C_ C_ 0.284543 0.575029 0.750514 -0.02249
C_ C_ 0.0835396 0.690589 0.750675 0.6875
C_ C_ 0.334213 0.690923 0.750097 0.6875
C_ C_ 0.0335898 0.602757 0.785051 -0.11473
C_ C_ 0.286055 0.600697 0.78617 -0.11473
C_ C_ 0.132712 0.7801 0.877706 0.17695
C_ C_ 0.378112 0.785856 0.877787 0.17695
C_ C_ 0.131048 0.706817 0.874128 0.17695
C_ C_ 0.373076 0.712526 0.868635 0.17695
C_ C_ 0.134415 0.702677 0.916027 -0.11473
C_ C_ 0.373647 0.707479 0.912371 -0.11473
C_ C_ 0.136398 0.739248 0.941407 0.23465
C_ C_ 0.378752 0.742166 0.9393 0.23465
C_ C_ 0.136842 0.777009 0.920731 -0.11473
C_ C_ 0.37841 0.780609 0.922072 -0.11473
C_ C_ 0.121695 0.713636 0.618273 0.17695
C_ C_ 0.345532 0.737232 0.619924 0.17695
C_ C_ 0.121149 0.787151 0.626798 0.17695
C_ C_ 0.396793 0.752547 0.617429 0.17695
C_ C_ 0.123637 0.792205 0.58423 -0.11473
C_ C_ 0.397557 0.747829 0.573741 -0.11473
C_ C_ 0.12497 0.757058 0.558864 0.23465
C_ C_ 0.370713 0.738201 0.552847 0.23465
C_ C_ 0.121739 0.717528 0.576536 -0.11473
C_ C_ 0.345209 0.730239 0.576488 -0.11473
C_ C_ 0.0368198 -0.005306999999999951 0.756887 0.05793
C_ C_ 0.28082 0.00278225 0.74833 0.05793
C_ C_ 0.218286 0.500402 0.740664 0.05793
C_ C_ 0.471684 0.494224 0.752469 0.05793
Br Br 0.0787751 -0.0024119999999999697 0.746771 -0.17191
Br Br 0.32399 0.00253123 0.746638 -0.17191
Br Br 0.175003 0.500166 0.73759 -0.17191
Br Br 0.432546 0.486267 0.778957 -0.17191
N_ N_ 0.129516 0.744518 0.854016 -0.272
N_ N_ 0.376657 0.75182 0.851368 -0.272
N_ N_ 0.140795 0.735133 0.986743 -0.12501
N_ N_ 0.381679 0.735606 0.984679 -0.12501
N_ N_ 0.123156 0.748594 0.64461 -0.272
N_ N_ 0.371809 0.746022 0.640196 -0.272
N_ N_ 0.127422 0.763989 0.513627 -0.12501
N_ N_ 0.367571 0.73462 0.508274 -0.12501
O_ O_ 0.093226 0.787637 0.715333 -0.60745
O_ O_ 0.346106 0.797182 0.71383 -0.60745
O_ O_ 0.0959368 0.787779 0.783962 -0.60745
O_ O_ 0.346121 0.797214 0.7828 -0.60745
O_ O_ 0.157685 0.790188 0.78472 -0.60745
O_ O_ 0.407251 0.794589 0.778016 -0.60745
O_ O_ 0.154843 0.791536 0.715177 -0.60745
O_ O_ 0.405823 0.79847 0.709894 -0.60745
O_ O_ 0.158759 0.702019 0.780029 -0.60745
O_ O_ 0.40737 0.705533 0.780357 -0.60745
O_ O_ 0.153271 0.701094 0.711453 -0.60745
O_ O_ 0.405225 0.701289 0.711453 -0.60745
O_ O_ 0.0911745 0.705538 0.71581 -0.60745
O_ O_ 0.344997 0.703559 0.715794 -0.60745
O_ O_ 0.0973744 0.701601 0.78359 -0.60745
O_ O_ 0.340974 0.709267 0.784966 -0.60745
Zn Zn 0.622358 0.250102 0.28377 0.9476
Zn Zn 0.881097 0.253086 0.289407 0.9476
Zn Zn 0.621336 0.244616 0.217706 0.9476
Zn Zn 0.876484 0.255 0.219159 0.9476
H_ H_ 0.516653 0.406324 0.181027 0.10932
H_ H_ 0.772502 0.40512 0.193765 0.10932
H_ H_ 0.571022 0.365104 0.308606 0.10932
H_ H_ 0.819584 0.355693 0.324226 0.10932
H_ H_ 0.545821 0.338349 0.182053 0.10932
H_ H_ 0.804878 0.343916 0.192656 0.10932
H_ H_ 0.53659 0.422458 0.308576 0.10932
H_ H_ 0.796703 0.423021 0.32404 0.10932
H_ H_ 0.741111 0.385103 0.302531 0.10932
H_ H_ 0.977626 0.414165 0.313086 0.10932
H_ H_ 0.658438 0.372688 0.198308 0.10932
H_ H_ 0.929035 0.36046 0.182828 0.10932
H_ H_ 0.715665 0.321318 0.297006 0.10932
H_ H_ 0.948734 0.352536 0.31534 0.10932
H_ H_ 0.685029 0.438995 0.205136 0.10932
H_ H_ 0.960696 0.423123 0.181007 0.10932
H_ H_ 0.713685 0.0759252 0.322734 0.10932
H_ H_ 0.955412 0.0750586 0.314204 0.10932
H_ H_ 0.693564 0.15357 0.190987 0.10932
H_ H_ 0.947542 0.159769 0.187005 0.10932
H_ H_ 0.686401 0.141519 0.324687 0.10932
H_ H_ 0.941768 0.146388 0.320691 0.10932
H_ H_ 0.721408 0.0859418 0.190167 0.10932
H_ H_ 0.979589 0.100043 0.183244 0.10932
H_ H_ 0.541709 0.0742529 0.186283 0.10932
H_ H_ 0.804009 0.0629371 0.198023 0.10932
H_ H_ 0.546853 0.157794 0.315112 0.10932
H_ H_ 0.793399 0.173929 0.305513 0.10932
H_ H_ 0.560822 0.144827 0.183184 0.10932
H_ H_ 0.838691 0.124682 0.197078 0.10932
H_ H_ 0.522551 0.0890706 0.316008 0.10932
H_ H_ 0.769337 0.102781 0.312921 0.10932
H_ H_ 0.607928 0.192396 0.365964 0.10932
H_ H_ 0.869482 0.193573 0.351387 0.10932
H_ H_ 0.62667 0.323599 0.357918 0.10932
H_ H_ 0.883671 0.31984 0.374124 0.10932
H_ H_ 0.624117 0.32743 0.435904 0.10932
H_ H_ 0.880889 0.311673 0.450102 0.10932
H_ H_ 0.60564 0.197958 0.438399 0.10932
H_ H_ 0.874751 0.179508 0.42814 0.10932
H_ H_ 0.629761 0.182217 0.146473 0.10932
H_ H_ 0.860762 0.320473 0.150295 0.10932
H_ H_ 0.61384 0.307618 0.138485 0.10932
H_ H_ 0.901259 0.203045 0.138078 0.10932
H_ H_ 0.612846 0.306572 0.0617275 0.10932
H_ H_ 0.899986 0.20968 0.0577983 0.10932
H_ H_ 0.627019 0.175788 0.0687476 0.10932
H_ H_ 0.867119 0.336017 0.0741786 0.10932
C_ C_ 0.562569 0.345594 0.24427 -0.02249
C_ C_ 0.818431 0.3467 0.255799 -0.02249
C_ C_ 0.513926 0.464681 0.238472 -0.02249
C_ C_ 0.765771 0.457713 0.255486 -0.02249
C_ C_ 0.531544 0.396639 0.208288 -0.11473
C_ C_ 0.782551 0.39395 0.221939 -0.11473
C_ C_ 0.558352 0.37069 0.280648 -0.11473
C_ C_ 0.811032 0.367323 0.294511 -0.11473
C_ C_ 0.54532 0.35856 0.209777 -0.11473
C_ C_ 0.800954 0.359401 0.220757 -0.11473
C_ C_ 0.531491 0.424033 0.241632 -0.02249
C_ C_ 0.783429 0.419343 0.258258 -0.02249
C_ C_ 0.58149 0.30901 0.244699 0.6875
C_ C_ 0.838058 0.309058 0.257747 0.6875
C_ C_ 0.542215 0.408184 0.279194 -0.11473
C_ C_ 0.797594 0.404724 0.294837 -0.11473
C_ C_ 0.682103 0.344255 0.249678 -0.02249
C_ C_ 0.934555 0.353007 0.250595 -0.02249
C_ C_ 0.733836 0.457526 0.2565 -0.02249
C_ C_ 0.986949 0.463946 0.246291 -0.02249
C_ C_ 0.720928 0.38806 0.28517 -0.11473
C_ C_ 0.963913 0.404981 0.285345 -0.11473
C_ C_ 0.677521 0.375893 0.220072 -0.11473
C_ C_ 0.939737 0.371803 0.211508 -0.11473
C_ C_ 0.706731 0.34888 0.279935 -0.11473
C_ C_ 0.946705 0.369976 0.287438 -0.11473
C_ C_ 0.715444 0.418334 0.255334 -0.02249
C_ C_ 0.970191 0.423865 0.246987 -0.02249
C_ C_ 0.660628 0.309486 0.251493 0.6875
C_ C_ 0.914274 0.316982 0.252569 0.6875
C_ C_ 0.69194 0.413893 0.225769 -0.11473
C_ C_ 0.959245 0.406539 0.209911 -0.11473
C_ C_ 0.68666 0.154036 0.257539 -0.02249
C_ C_ 0.9387 0.156975 0.253858 -0.02249
C_ C_ 0.737255 0.0392915 0.254971 -0.02249
C_ C_ 0.986357 0.0385504 0.245731 -0.02249
C_ C_ 0.712145 0.0956484 0.294422 -0.11473
C_ C_ 0.958645 0.0958445 0.287033 -0.11473
C_ C_ 0.699553 0.139509 0.221565 -0.11473
C_ C_ 0.951106 0.14216 0.215425 -0.11473
C_ C_ 0.694375 0.13169 0.295888 -0.11473
C_ C_ 0.946031 0.134851 0.289834 -0.11473
C_ C_ 0.720853 0.0786592 0.257251 -0.02249
C_ C_ 0.971155 0.0809247 0.248801 -0.02249
C_ C_ 0.664944 0.189679 0.25658 0.6875
C_ C_ 0.919552 0.195082 0.255247 0.6875
C_ C_ 0.716472 0.102376 0.221658 -0.11473
C_ C_ 0.96942 0.107047 0.213594 -0.11473
C_ C_ 0.56027 0.154554 0.250775 -0.02249
C_ C_ 0.820055 0.154698 0.250721 -0.02249
C_ C_ 0.513699 0.0368313 0.248903 -0.02249
C_ C_ 0.768463 0.0377203 0.258415 -0.02249
C_ C_ 0.541167 0.0930787 0.21333 -0.11473
C_ C_ 0.802381 0.0876408 0.223002 -0.11473
C_ C_ 0.544501 0.140484 0.28561 -0.11473
C_ C_ 0.79777 0.147202 0.283792 -0.11473
C_ C_ 0.552676 0.13406 0.213362 -0.11473
C_ C_ 0.820725 0.123206 0.22009 -0.11473
C_ C_ 0.530205 0.0758222 0.249567 -0.02249
C_ C_ 0.785902 0.078677 0.257881 -0.02249
C_ C_ 0.581571 0.188608 0.251678 0.6875
C_ C_ 0.838713 0.193778 0.250387 0.6875
C_ C_ 0.529924 0.100918 0.285215 -0.11473
C_ C_ 0.784829 0.108116 0.289085 -0.11473
C_ C_ 0.613478 0.222863 0.37901 0.17695
C_ C_ 0.876643 0.218286 0.374471 0.17695
C_ C_ 0.621711 0.294337 0.37638 0.17695
C_ C_ 0.881094 0.2908 0.385766 0.17695
C_ C_ 0.622471 0.296789 0.419063 -0.11473
C_ C_ 0.878866 0.284685 0.430719 -0.11473
C_ C_ 0.61866 0.263098 0.444079 0.23465
C_ C_ 0.876795 0.243828 0.445691 0.23465
C_ C_ 0.613159 0.225073 0.422462 -0.11473
C_ C_ 0.876267 0.211296 0.417196 -0.11473
C_ C_ 0.63064 0.209156 0.128057 0.17695
C_ C_ 0.867933 0.295726 0.129559 0.17695
C_ C_ 0.616481 0.279442 0.123807 0.17695
C_ C_ 0.893653 0.231904 0.122842 0.17695
C_ C_ 0.615867 0.278648 0.0803046 -0.11473
C_ C_ 0.891816 0.234193 0.0778201 -0.11473
C_ C_ 0.618922 0.239761 0.059625 0.23465
C_ C_ 0.881235 0.27145 0.0593171 0.23465
C_ C_ 0.624097 0.204244 0.0848198 -0.11473
C_ C_ 0.872543 0.304151 0.0857331 -0.11473
C_ C_ 0.53079 0.502691 0.23492 0.05793
C_ C_ 0.781756 0.494985 0.248417 0.05793
C_ C_ 0.722314 1.00036 0.249595 0.05793
C_ C_ 0.970094 1.000590054 0.244788 0.05793
Br Br 0.569931 0.49682 0.213816 -0.17191
Br Br 0.824098 0.492455 0.234221 -0.17191
Br Br 0.678449 0.00426675 0.241125 -0.17191
Br Br 0.925954 0.00507182 0.238326 -0.17191
N_ N_ 0.620798 0.257416 0.357011 -0.272
N_ N_ 0.884196 0.257467 0.359872 -0.272
N_ N_ 0.613287 0.266299 0.488581 -0.12501
N_ N_ 0.876503 0.231904 0.488662 -0.12501
N_ N_ 0.62543 0.246191 0.146866 -0.272
N_ N_ 0.87879 0.260379 0.147638 -0.272
N_ N_ 0.615401 0.233759 0.014652 -0.12501
N_ N_ 0.882225 0.276719 0.0142669 -0.12501
O_ O_ 0.590279 0.291653 0.211951 -0.60745
O_ O_ 0.842869 0.293508 0.222952 -0.60745
O_ O_ 0.589859 0.292655 0.280096 -0.60745
O_ O_ 0.850404 0.298357 0.292984 -0.60745
O_ O_ 0.653735 0.293802 0.287186 -0.60745
O_ O_ 0.910408 0.299153 0.286648 -0.60745
O_ O_ 0.654132 0.288915 0.217594 -0.60745
O_ O_ 0.902432 0.302315 0.219216 -0.60745
O_ O_ 0.653697 0.204614 0.289729 -0.60745
O_ O_ 0.911368 0.20791 0.29015 -0.60745
O_ O_ 0.65248 0.200264 0.221231 -0.60745
O_ O_ 0.911805 0.21392 0.222677 -0.60745
O_ O_ 0.591176 0.202922 0.216624 -0.60745
O_ O_ 0.848293 0.20691 0.214707 -0.60745
O_ O_ 0.593246 0.203209 0.285458 -0.60745
O_ O_ 0.847108 0.211625 0.285364 -0.60745
Zn Zn 0.627247 0.24899 0.787741 0.9476
Zn Zn 0.87593 0.247152 0.787104 0.9476
Zn Zn 0.62235 0.24712 0.719551 0.9476
Zn Zn 0.877168 0.241949 0.717555 0.9476
H_ H_ 0.524613 0.405715 0.681187 0.10932
H_ H_ 0.78859 0.413954 0.684667 0.10932
H_ H_ 0.574206 0.358618 0.814473 0.10932
H_ H_ 0.809877 0.343874 0.816483 0.10932
H_ H_ 0.548212 0.336365 0.687982 0.10932
H_ H_ 0.812586 0.347135 0.682721 0.10932
H_ H_ 0.556085 0.433517 0.80848 0.10932
H_ H_ 0.780836 0.414502 0.817081 0.10932
H_ H_ 0.718351 0.413009 0.816299 0.10932
H_ H_ 0.975905 0.408103 0.819792 0.10932
H_ H_ 0.687395 0.345907 0.684985 0.10932
H_ H_ 0.93397 0.351772 0.684206 0.10932
H_ H_ 0.691684 0.349179 0.820282 0.10932
H_ H_ 0.944338 0.347624 0.819255 0.10932
H_ H_ 0.718722 0.410811 0.682511 0.10932
H_ H_ 0.960945 0.42042 0.686803 0.10932
H_ H_ 0.709027 0.0761192 0.829319 0.10932
H_ H_ 0.975817 0.0857609 0.828957 0.10932
H_ H_ 0.682411 0.13963 0.691015 0.10932
H_ H_ 0.92709 0.124515 0.690703 0.10932
H_ H_ 0.677971 0.141289 0.825531 0.10932
H_ H_ 0.953575 0.1562 0.816053 0.10932
H_ H_ 0.709221 0.0752841 0.694604 0.10932
H_ H_ 0.961442 0.0662918 0.696296 0.10932
H_ H_ 0.528858 0.0880931 0.687204 0.10932
H_ H_ 0.77792 0.0882988 0.682973 0.10932
H_ H_ 0.569201 0.141221 0.82105 0.10932
H_ H_ 0.816488 0.141019 0.820315 0.10932
H_ H_ 0.553424 0.151416 0.683835 0.10932
H_ H_ 0.812111 0.146662 0.685958 0.10932
H_ H_ 0.539936 0.0790177 0.820945 0.10932
H_ H_ 0.783764 0.0831549 0.818142 0.10932
H_ H_ 0.623136 0.31508 0.856412 0.10932
H_ H_ 0.926196 0.243383 0.857743 0.10932
H_ H_ 0.619153 0.186734 0.866349 0.10932
H_ H_ 0.832956 0.26343 0.865607 0.10932
H_ H_ 0.613226 0.18951 0.944111 0.10932
H_ H_ 0.836461 0.268844 0.942701 0.10932
H_ H_ 0.611594 0.321724 0.933519 0.10932
H_ H_ 0.927972 0.232926 0.9384 0.10932
H_ H_ 0.619879 0.182246 0.644956 0.10932
H_ H_ 0.874374 0.310173 0.651765 0.10932
H_ H_ 0.626766 0.315013 0.64277 0.10932
H_ H_ 0.887598 0.185085 0.638233 0.10932
H_ H_ 0.612259 0.310875 0.570887 0.10932
H_ H_ 0.886823 0.191109 0.563309 0.10932
H_ H_ 0.617243 0.178836 0.566559 0.10932
H_ H_ 0.864666 0.318367 0.575556 0.10932
C_ C_ 0.566336 0.344768 0.749578 -0.02249
C_ C_ 0.813077 0.340568 0.750599 -0.02249
C_ C_ 0.520376 0.462329 0.741048 -0.02249
C_ C_ 0.767659 0.459027 0.745661 -0.02249
C_ C_ 0.539727 0.398651 0.708212 -0.11473
C_ C_ 0.793866 0.400172 0.713093 -0.11473
C_ C_ 0.565022 0.371529 0.78416 -0.11473
C_ C_ 0.802934 0.359794 0.788752 -0.11473
C_ C_ 0.553334 0.359522 0.711565 -0.11473
C_ C_ 0.805588 0.360163 0.712492 -0.11473
C_ C_ 0.54062 0.424452 0.743846 -0.02249
C_ C_ 0.784795 0.419664 0.749328 -0.02249
C_ C_ 0.584396 0.305251 0.749502 0.6875
C_ C_ 0.832657 0.301777 0.752271 0.6875
C_ C_ 0.553954 0.412133 0.781373 -0.11473
C_ C_ 0.786261 0.39636 0.788019 -0.11473
C_ C_ 0.685403 0.343145 0.749978 -0.02249
C_ C_ 0.937197 0.342439 0.751142 -0.02249
C_ C_ 0.735968 0.457669 0.749491 -0.02249
C_ C_ 0.981709 0.462786 0.757461 -0.02249
C_ C_ 0.714127 0.398201 0.787397 -0.11473
C_ C_ 0.963564 0.39799 0.791281 -0.11473
C_ C_ 0.694448 0.360919 0.712242 -0.11473
C_ C_ 0.940788 0.365305 0.71417 -0.11473
C_ C_ 0.696974 0.362094 0.788307 -0.11473
C_ C_ 0.947698 0.360968 0.788803 -0.11473
C_ C_ 0.7199 0.417935 0.748848 -0.02249
C_ C_ 0.964603 0.422544 0.754575 -0.02249
C_ C_ 0.664752 0.307149 0.749793 0.6875
C_ C_ 0.918851 0.304477 0.7512 0.6875
C_ C_ 0.713093 0.396565 0.711668 -0.11473
C_ C_ 0.952178 0.405657 0.714815 -0.11473
C_ C_ 0.678103 0.146977 0.758268 -0.02249
C_ C_ 0.93443 0.14454 0.756417 -0.02249
C_ C_ 0.73068 0.0349593 0.760029 -0.02249
C_ C_ 0.989889 0.0334667 0.761988 -0.02249
C_ C_ 0.702653 0.0915393 0.798147 -0.11473
C_ C_ 0.965945 0.0962469 0.797943 -0.11473
C_ C_ 0.685109 0.124701 0.720963 -0.11473
C_ C_ 0.9417 0.121074 0.719578 -0.11473
C_ C_ 0.683209 0.127573 0.797317 -0.11473
C_ C_ 0.948707 0.133381 0.794412 -0.11473
C_ C_ 0.711236 0.0739703 0.760665 -0.02249
C_ C_ 0.973019 0.0732357 0.76011 -0.02249
C_ C_ 0.661271 0.18752 0.757945 0.6875
C_ C_ 0.914274 0.181502 0.752281 0.6875
C_ C_ 0.70064 0.0890862 0.72279 -0.11473
C_ C_ 0.96074 0.087665 0.721134 -0.11473
C_ C_ 0.565396 0.151943 0.753278 -0.02249
C_ C_ 0.812676 0.15385 0.75342 -0.02249
C_ C_ 0.51356 0.0392238 0.752274 -0.02249
C_ C_ 0.761644 0.0396328 0.749581 -0.02249
C_ C_ 0.534594 0.101163 0.716426 -0.11473
C_ C_ 0.78259 0.103916 0.714716 -0.11473
C_ C_ 0.561398 0.128847 0.790261 -0.11473
C_ C_ 0.802784 0.135396 0.791398 -0.11473
C_ C_ 0.551765 0.13675 0.714273 -0.11473
C_ C_ 0.803319 0.136855 0.715528 -0.11473
C_ C_ 0.528576 0.0796007 0.755125 -0.02249
C_ C_ 0.776443 0.0813092 0.751186 -0.02249
C_ C_ 0.583319 0.189307 0.753684 0.6875
C_ C_ 0.834835 0.191426 0.752706 0.6875
C_ C_ 0.542559 0.0937143 0.790936 -0.11473
C_ C_ 0.78755 0.098145 0.789583 -0.11473
C_ C_ 0.621489 0.288474 0.877127 0.17695
C_ C_ 0.90676 0.248897 0.876978 0.17695
C_ C_ 0.620335 0.21619 0.882376 0.17695
C_ C_ 0.853188 0.253998 0.88085 0.17695
C_ C_ 0.615055 0.218359 0.925848 -0.11473
C_ C_ 0.855624 0.25845 0.925264 -0.11473
C_ C_ 0.61466 0.257978 0.945098 0.23465
C_ C_ 0.883463 0.254091 0.946568 0.23465
C_ C_ 0.613764 0.292427 0.918862 -0.11473
C_ C_ 0.908369 0.245575 0.922115 -0.11473
C_ C_ 0.619928 0.210913 0.627846 0.17695
C_ C_ 0.869941 0.28374 0.63156 0.17695
C_ C_ 0.623481 0.284661 0.625468 0.17695
C_ C_ 0.877415 0.213304 0.624777 0.17695
C_ C_ 0.621966 0.284472 0.582121 -0.11473
C_ C_ 0.876685 0.216502 0.58146 -0.11473
C_ C_ 0.622428 0.24651 0.560076 0.23465
C_ C_ 0.869183 0.252894 0.560823 0.23465
C_ C_ 0.620262 0.209668 0.58312 -0.11473
C_ C_ 0.864279 0.289042 0.587288 -0.11473
C_ C_ 0.533367 0.502462 0.74162 0.05793
C_ C_ 0.784418 0.497948 0.742909 0.05793
C_ C_ 0.71792 -0.00523499999999999 0.758057 0.05793
C_ C_ 0.973005 -0.003801999999999972 0.758606 0.05793
Br Br 0.576595 0.505836 0.736552 -0.17191
Br Br 0.827387 0.494986 0.738314 -0.17191
Br Br 0.674767 -0.010122999999999993 0.76081 -0.17191
Br Br 0.93232 -0.002642999999999951 0.773075 -0.17191
N_ N_ 0.626052 0.25083 0.859522 -0.272
N_ N_ 0.878887 0.249938 0.857731 -0.272
N_ N_ 0.619125 0.262698 0.989251 -0.12501
N_ N_ 0.883604 0.246922 0.989723 -0.12501
N_ N_ 0.621536 0.249112 0.647896 -0.272
N_ N_ 0.871157 0.24569 0.647416 -0.272
N_ N_ 0.62549 0.24379 0.51457 -0.12501
N_ N_ 0.874417 0.259725 0.516667 -0.12501
O_ O_ 0.594087 0.292626 0.715657 -0.60745
O_ O_ 0.844659 0.28695 0.718874 -0.60745
O_ O_ 0.595071 0.289241 0.782694 -0.60745
O_ O_ 0.843958 0.292901 0.787558 -0.60745
O_ O_ 0.656063 0.293315 0.785446 -0.60745
O_ O_ 0.908773 0.291601 0.785162 -0.60745
O_ O_ 0.656491 0.290463 0.715867 -0.60745
O_ O_ 0.908483 0.288851 0.718066 -0.60745
O_ O_ 0.658745 0.207031 0.791789 -0.60745
O_ O_ 0.906333 0.197304 0.786309 -0.60745
O_ O_ 0.651353 0.20117 0.723039 -0.60745
O_ O_ 0.907151 0.197607 0.717226 -0.60745
O_ O_ 0.591009 0.205125 0.719425 -0.60745
O_ O_ 0.847156 0.198631 0.719009 -0.60745
O_ O_ 0.596994 0.201055 0.786481 -0.60745
O_ O_ 0.844353 0.206572 0.787355 -0.60745
Zn Zn 0.626756 0.74807 0.282941 0.9476
Zn Zn 0.873247 0.74577 0.287431 0.9476
Zn Zn 0.626465 0.752019 0.213189 0.9476
Zn Zn 0.872333 0.747774 0.215495 0.9476
H_ H_ 0.532902 0.911987 0.185512 0.10932
H_ H_ 0.78451 0.921957 0.195449 0.10932
H_ H_ 0.572294 0.857544 0.320138 0.10932
H_ H_ 0.813232 0.844335 0.325958 0.10932
H_ H_ 0.561778 0.845813 0.189448 0.10932
H_ H_ 0.819136 0.859003 0.19213 0.10932
H_ H_ 0.537455 0.91823 0.318638 0.10932
H_ H_ 0.778261 0.908022 0.327162 0.10932
H_ H_ 0.720364 0.914401 0.323223 0.10932
H_ H_ 0.965916 0.914979 0.321516 0.10932
H_ H_ 0.677976 0.865232 0.188657 0.10932
H_ H_ 0.938581 0.852384 0.182113 0.10932
H_ H_ 0.688744 0.852741 0.321142 0.10932
H_ H_ 0.938233 0.845509 0.315881 0.10932
H_ H_ 0.706967 0.929157 0.190723 0.10932
H_ H_ 0.958557 0.920948 0.186234 0.10932
H_ H_ 0.731535 0.597495 0.307445 0.10932
H_ H_ 0.949785 0.568473 0.308573 0.10932
H_ H_ 0.667251 0.626251 0.18492 0.10932
H_ H_ 0.947449 0.65607 0.182672 0.10932
H_ H_ 0.711715 0.666345 0.300468 0.10932
H_ H_ 0.925606 0.635727 0.313221 0.10932
H_ H_ 0.698622 0.562435 0.183494 0.10932
H_ H_ 0.983336 0.604801 0.188513 0.10932
H_ H_ 0.519607 0.605553 0.17852 0.10932
H_ H_ 0.768999 0.59785 0.186541 0.10932
H_ H_ 0.582963 0.629669 0.306034 0.10932
H_ H_ 0.833407 0.6209 0.317274 0.10932
H_ H_ 0.552347 0.663714 0.181132 0.10932
H_ H_ 0.800962 0.659446 0.193822 0.10932
H_ H_ 0.553506 0.565301 0.301562 0.10932
H_ H_ 0.800046 0.558845 0.311456 0.10932
H_ H_ 0.631711 0.681073 0.350197 0.10932
H_ H_ 0.830431 0.744279 0.366043 0.10932
H_ H_ 0.623091 0.810113 0.361009 0.10932
H_ H_ 0.924118 0.75812 0.356938 0.10932
H_ H_ 0.625178 0.808268 0.439113 0.10932
H_ H_ 0.929237 0.756012 0.437096 0.10932
H_ H_ 0.627137 0.675013 0.42755 0.10932
H_ H_ 0.83231 0.753544 0.443422 0.10932
H_ H_ 0.581335 0.763603 0.128834 0.10932
H_ H_ 0.878195 0.68413 0.136244 0.10932
H_ H_ 0.676309 0.758408 0.147871 0.10932
H_ H_ 0.866451 0.810692 0.146604 0.10932
H_ H_ 0.683769 0.754267 0.0705652 0.10932
H_ H_ 0.861072 0.81479 0.0700794 0.10932
H_ H_ 0.588034 0.759956 0.0539157 0.10932
H_ H_ 0.877171 0.684735 0.0614803 0.10932
C_ C_ 0.563975 0.844637 0.254305 -0.02249
C_ C_ 0.817376 0.847891 0.259334 -0.02249
C_ C_ 0.516469 0.960698 0.249349 -0.02249
C_ C_ 0.768996 0.962475 0.263943 -0.02249
C_ C_ 0.539697 0.899417 0.215197 -0.11473
C_ C_ 0.792613 0.905688 0.224934 -0.11473
C_ C_ 0.560029 0.866371 0.291929 -0.11473
C_ C_ 0.807339 0.862464 0.298563 -0.11473
C_ C_ 0.556673 0.863498 0.216161 -0.11473
C_ C_ 0.80887 0.869132 0.222884 -0.11473
C_ C_ 0.533491 0.921407 0.251692 -0.02249
C_ C_ 0.785986 0.922486 0.264397 -0.02249
C_ C_ 0.586379 0.808905 0.2522 0.6875
C_ C_ 0.835131 0.809205 0.257906 0.6875
C_ C_ 0.542996 0.904112 0.290818 -0.11473
C_ C_ 0.789217 0.898383 0.299704 -0.11473
C_ C_ 0.686149 0.849477 0.253357 -0.02249
C_ C_ 0.932644 0.847518 0.250033 -0.02249
C_ C_ 0.737202 0.963169 0.258146 -0.02249
C_ C_ 0.983067 0.961744 0.255001 -0.02249
C_ C_ 0.713874 0.901874 0.293068 -0.11473
C_ C_ 0.960353 0.899491 0.291902 -0.11473
C_ C_ 0.69062 0.872829 0.217619 -0.11473
C_ C_ 0.940931 0.867434 0.212539 -0.11473
C_ C_ 0.697736 0.86371 0.292458 -0.11473
C_ C_ 0.94365 0.862968 0.289861 -0.11473
C_ C_ 0.721 0.923092 0.255962 -0.02249
C_ C_ 0.965468 0.921537 0.254219 -0.02249
C_ C_ 0.663761 0.81535 0.251435 0.6875
C_ C_ 0.911281 0.80991 0.248413 0.6875
C_ C_ 0.708254 0.908329 0.217537 -0.11473
C_ C_ 0.95469 0.905737 0.215193 -0.11473
C_ C_ 0.68603 0.65168 0.241518 -0.02249
C_ C_ 0.933263 0.652142 0.248236 -0.02249
C_ C_ 0.734595 0.533728 0.249335 -0.02249
C_ C_ 0.986538 0.540333 0.246438 -0.02249
C_ C_ 0.720453 0.605086 0.276381 -0.11473
C_ C_ 0.950873 0.590721 0.282399 -0.11473
C_ C_ 0.682169 0.619436 0.210465 -0.11473
C_ C_ 0.947542 0.64006 0.211198 -0.11473
C_ C_ 0.707798 0.645361 0.273329 -0.11473
C_ C_ 0.936994 0.628808 0.284482 -0.11473
C_ C_ 0.716722 0.573038 0.247551 -0.02249
C_ C_ 0.969528 0.581 0.248781 -0.02249
C_ C_ 0.666632 0.690922 0.24327 0.6875
C_ C_ 0.91226 0.688015 0.250556 0.6875
C_ C_ 0.698497 0.58232 0.212355 -0.11473
C_ C_ 0.96721 0.606716 0.213773 -0.11473
C_ C_ 0.571853 0.650551 0.242784 -0.02249
C_ C_ 0.818664 0.646082 0.256395 -0.02249
C_ C_ 0.514945 0.540248 0.234926 -0.02249
C_ C_ 0.765178 0.53319 0.244394 -0.02249
C_ C_ 0.53329 0.608476 0.207299 -0.11473
C_ C_ 0.783773 0.602502 0.214895 -0.11473
C_ C_ 0.57201 0.622425 0.276367 -0.11473
C_ C_ 0.818082 0.616762 0.290243 -0.11473
C_ C_ 0.554064 0.641935 0.208434 -0.11473
C_ C_ 0.802459 0.636204 0.21835 -0.11473
C_ C_ 0.533165 0.579287 0.239157 -0.02249
C_ C_ 0.7833 0.572801 0.248553 -0.02249
C_ C_ 0.58837 0.690065 0.245088 0.6875
C_ C_ 0.833937 0.686984 0.257726 0.6875
C_ C_ 0.551674 0.586506 0.275263 -0.11473
C_ C_ 0.799042 0.581794 0.285251 -0.11473
C_ C_ 0.630951 0.708039 0.368927 0.17695
C_ C_ 0.851618 0.747953 0.3808 0.17695
C_ C_ 0.629738 0.782094 0.375403 0.17695
C_ C_ 0.904087 0.754196 0.37661 0.17695
C_ C_ 0.629916 0.778742 0.418959 -0.11473
C_ C_ 0.907602 0.756771 0.420753 -0.11473
C_ C_ 0.63112 0.73954 0.438238 0.23465
C_ C_ 0.881499 0.756867 0.444999 0.23465
C_ C_ 0.634258 0.70474 0.413428 -0.11473
C_ C_ 0.853591 0.752733 0.425735 -0.11473
C_ C_ 0.604169 0.757995 0.117671 0.17695
C_ C_ 0.878021 0.714188 0.124394 0.17695
C_ C_ 0.656328 0.756165 0.126569 0.17695
C_ C_ 0.867141 0.785213 0.127718 0.17695
C_ C_ 0.660218 0.755777 0.08319 -0.11473
C_ C_ 0.870268 0.788815 0.085166 -0.11473
C_ C_ 0.635367 0.748176 0.05639 0.23465
C_ C_ 0.876041 0.753994 0.0605369 0.23465
C_ C_ 0.607164 0.754257 0.073822 -0.11473
C_ C_ 0.878927 0.715159 0.0798835 -0.11473
C_ C_ 0.530538 0.999012 0.251791 0.05793
C_ C_ 0.784351 1.000519799 0.265248 0.05793
C_ C_ 0.718224 0.495826 0.257928 0.05793
C_ C_ 0.971204 0.502323 0.240579 0.05793
Br Br 0.573363 1.000446214 0.234562 -0.17191
Br Br 0.828602 1.0012684 0.261139 -0.17191
Br Br 0.679791 0.499807 0.282389 -0.17191
Br Br 0.931934 0.505935 0.21606 -0.17191
N_ N_ 0.631333 0.74704 0.351598 -0.272
N_ N_ 0.876973 0.749361 0.35685 -0.272
N_ N_ 0.628322 0.734995 0.483659 -0.12501
N_ N_ 0.88388 0.759408 0.490791 -0.12501
N_ N_ 0.628248 0.755219 0.143835 -0.272
N_ N_ 0.873145 0.749339 0.1487 -0.272
N_ N_ 0.640932 0.747962 0.0130034 -0.12501
N_ N_ 0.871437 0.757653 0.0146189 -0.12501
O_ O_ 0.595096 0.793327 0.217265 -0.60745
O_ O_ 0.843348 0.792728 0.222333 -0.60745
O_ O_ 0.594449 0.790731 0.285549 -0.60745
O_ O_ 0.842637 0.791992 0.292746 -0.60745
O_ O_ 0.656689 0.796406 0.285059 -0.60745
O_ O_ 0.908077 0.789175 0.282356 -0.60745
O_ O_ 0.657862 0.796338 0.21686 -0.60745
O_ O_ 0.899089 0.798211 0.213074 -0.60745
O_ O_ 0.66197 0.706739 0.276704 -0.60745
O_ O_ 0.902138 0.701121 0.28531 -0.60745
O_ O_ 0.659736 0.709932 0.209917 -0.60745
O_ O_ 0.904739 0.708861 0.217085 -0.60745
O_ O_ 0.596742 0.705978 0.211026 -0.60745
O_ O_ 0.840696 0.704354 0.222885 -0.60745
O_ O_ 0.600287 0.702417 0.278872 -0.60745
O_ O_ 0.841792 0.70265 0.290944 -0.60745
Zn Zn 0.623099 0.750349 0.780897 0.9476
Zn Zn 0.87322 0.749696 0.788671 0.9476
Zn Zn 0.624806 0.751537 0.711223 0.9476
Zn Zn 0.872549 0.746246 0.71755 0.9476
H_ H_ 0.535902 0.917636 0.679893 0.10932
H_ H_ 0.781887 0.917619 0.678249 0.10932
H_ H_ 0.568565 0.857063 0.817544 0.10932
H_ H_ 0.820787 0.861943 0.815691 0.10932
H_ H_ 0.569002 0.856484 0.68258 0.10932
H_ H_ 0.810269 0.850546 0.682055 0.10932
H_ H_ 0.539693 0.923322 0.819152 0.10932
H_ H_ 0.796598 0.929496 0.813219 0.10932
H_ H_ 0.727198 0.901294 0.811874 0.10932
H_ H_ 0.962817 0.917072 0.818224 0.10932
H_ H_ 0.677344 0.863578 0.67791 0.10932
H_ H_ 0.941244 0.842005 0.686278 0.10932
H_ H_ 0.700391 0.836065 0.804402 0.10932
H_ H_ 0.935414 0.850073 0.817658 0.10932
H_ H_ 0.710113 0.924063 0.682237 0.10932
H_ H_ 0.970678 0.912735 0.685521 0.10932
H_ H_ 0.708968 0.575048 0.815719 0.10932
H_ H_ 0.961724 0.581815 0.824559 0.10932
H_ H_ 0.695967 0.648954 0.685548 0.10932
H_ H_ 0.931317 0.644627 0.68726 0.10932
H_ H_ 0.67343 0.633451 0.8155 0.10932
H_ H_ 0.941722 0.652544 0.822018 0.10932
H_ H_ 0.715349 0.5807 0.684727 0.10932
H_ H_ 0.961009 0.578249 0.687263 0.10932
H_ H_ 0.533943 0.58327 0.67758 0.10932
H_ H_ 0.792323 0.573307 0.683322 0.10932
H_ H_ 0.541891 0.665218 0.805835 0.10932
H_ H_ 0.806908 0.65494 0.814194 0.10932
H_ H_ 0.563881 0.648502 0.678114 0.10932
H_ H_ 0.814524 0.640436 0.680008 0.10932
H_ H_ 0.520718 0.591599 0.806098 0.10932
H_ H_ 0.781426 0.58599 0.816766 0.10932
H_ H_ 0.620958 0.686238 0.851032 0.10932
H_ H_ 0.875539 0.683896 0.858006 0.10932
H_ H_ 0.6238 0.813791 0.859885 0.10932
H_ H_ 0.881882 0.81403 0.86239 0.10932
H_ H_ 0.624255 0.810825 0.938396 0.10932
H_ H_ 0.895476 0.809471 0.939661 0.10932
H_ H_ 0.628231 0.678691 0.929624 0.10932
H_ H_ 0.881319 0.678942 0.937935 0.10932
H_ H_ 0.630837 0.691241 0.633475 0.10932
H_ H_ 0.886319 0.810674 0.639145 0.10932
H_ H_ 0.625888 0.816631 0.643776 0.10932
H_ H_ 0.873221 0.680204 0.648244 0.10932
H_ H_ 0.627037 0.825739 0.566365 0.10932
H_ H_ 0.863605 0.676367 0.568673 0.10932
H_ H_ 0.629911 0.693267 0.555824 0.10932
H_ H_ 0.887239 0.805113 0.558829 0.10932
C_ C_ 0.568432 0.851357 0.748728 -0.02249
C_ C_ 0.816724 0.851635 0.748578 -0.02249
C_ C_ 0.51675 0.965479 0.750225 -0.02249
C_ C_ 0.767602 0.964587 0.746537 -0.02249
C_ C_ 0.542086 0.907077 0.709699 -0.11473
C_ C_ 0.789142 0.905129 0.707086 -0.11473
C_ C_ 0.56189 0.871531 0.787261 -0.11473
C_ C_ 0.813866 0.874277 0.785221 -0.11473
C_ C_ 0.562022 0.872689 0.710123 -0.11473
C_ C_ 0.805813 0.868303 0.709958 -0.11473
C_ C_ 0.535103 0.926101 0.750245 -0.02249
C_ C_ 0.784907 0.92586 0.746937 -0.02249
C_ C_ 0.589276 0.813902 0.749264 0.6875
C_ C_ 0.834377 0.812314 0.748582 0.6875
C_ C_ 0.544394 0.907699 0.78902 -0.11473
C_ C_ 0.800009 0.912374 0.784176 -0.11473
C_ C_ 0.68558 0.843964 0.740944 -0.02249
C_ C_ 0.934148 0.844601 0.750495 -0.02249
C_ C_ 0.73556 0.959131 0.751033 -0.02249
C_ C_ 0.987458 0.958281 0.752134 -0.02249
C_ C_ 0.718202 0.891768 0.782083 -0.11473
C_ C_ 0.958678 0.900021 0.789163 -0.11473
C_ C_ 0.689949 0.868571 0.705865 -0.11473
C_ C_ 0.947699 0.859328 0.713921 -0.11473
C_ C_ 0.70134 0.854934 0.778215 -0.11473
C_ C_ 0.942776 0.862806 0.788302 -0.11473
C_ C_ 0.720915 0.918283 0.747225 -0.02249
C_ C_ 0.970018 0.91804 0.751419 -0.02249
C_ C_ 0.664041 0.808206 0.742277 0.6875
C_ C_ 0.914724 0.807849 0.749954 0.6875
C_ C_ 0.708522 0.904078 0.707915 -0.11473
C_ C_ 0.96476 0.896235 0.713021 -0.11473
C_ C_ 0.684773 0.651505 0.750666 -0.02249
C_ C_ 0.93065 0.650745 0.753879 -0.02249
C_ C_ 0.736118 0.534119 0.750334 -0.02249
C_ C_ 0.980822 0.5393 0.7565 -0.02249
C_ C_ 0.705622 0.591654 0.788409 -0.11473
C_ C_ 0.956632 0.596114 0.793347 -0.11473
C_ C_ 0.696572 0.632993 0.713668 -0.11473
C_ C_ 0.938823 0.631198 0.716745 -0.11473
C_ C_ 0.687242 0.625645 0.788334 -0.11473
C_ C_ 0.941449 0.634033 0.792876 -0.11473
C_ C_ 0.718201 0.574744 0.751539 -0.02249
C_ C_ 0.962945 0.576232 0.757289 -0.02249
C_ C_ 0.662597 0.687283 0.746286 0.6875
C_ C_ 0.913352 0.690495 0.753459 0.6875
C_ C_ 0.711758 0.59644 0.714316 -0.11473
C_ C_ 0.955788 0.594056 0.718381 -0.11473
C_ C_ 0.560962 0.656838 0.744851 -0.02249
C_ C_ 0.814651 0.652909 0.747083 -0.02249
C_ C_ 0.516088 0.538659 0.740387 -0.02249
C_ C_ 0.768215 0.535055 0.749299 -0.02249
C_ C_ 0.540478 0.596517 0.706965 -0.11473
C_ C_ 0.792374 0.592101 0.711764 -0.11473
C_ C_ 0.546401 0.642362 0.780779 -0.11473
C_ C_ 0.803714 0.636677 0.785636 -0.11473
C_ C_ 0.554557 0.635957 0.707616 -0.11473
C_ C_ 0.808188 0.629362 0.709753 -0.11473
C_ C_ 0.531963 0.5791 0.743279 -0.02249
C_ C_ 0.783711 0.575035 0.750607 -0.02249
C_ C_ 0.580354 0.695293 0.746527 0.6875
C_ C_ 0.832603 0.691411 0.746776 0.6875
C_ C_ 0.531621 0.60428 0.77915 -0.11473
C_ C_ 0.789589 0.59879 0.787067 -0.11473
C_ C_ 0.626439 0.713594 0.869999 0.17695
C_ C_ 0.876812 0.711012 0.878619 0.17695
C_ C_ 0.625245 0.784957 0.874752 0.17695
C_ C_ 0.881679 0.783574 0.878883 0.17695
C_ C_ 0.623435 0.78348 0.919777 -0.11473
C_ C_ 0.887087 0.782226 0.922978 -0.11473
C_ C_ 0.626096 0.744359 0.941326 0.23465
C_ C_ 0.885787 0.745024 0.945948 0.23465
C_ C_ 0.625232 0.709383 0.914675 -0.11473
C_ C_ 0.882641 0.708604 0.922914 -0.11473
C_ C_ 0.622771 0.71855 0.617199 0.17695
C_ C_ 0.880286 0.781276 0.623027 0.17695
C_ C_ 0.622563 0.791929 0.623499 0.17695
C_ C_ 0.870655 0.708086 0.627831 0.17695
C_ C_ 0.623234 0.795486 0.579222 -0.11473
C_ C_ 0.866898 0.706195 0.58503 -0.11473
C_ C_ 0.624053 0.759891 0.553312 0.23465
C_ C_ 0.874675 0.74113 0.559489 0.23465
C_ C_ 0.626519 0.721762 0.572373 -0.11473
C_ C_ 0.881692 0.778433 0.578649 -0.11473
C_ C_ 0.530752 0.00356961 0.748317 0.05793
C_ C_ 0.780763 0.0044284 0.746312 0.05793
C_ C_ 0.720742 0.495087 0.747862 0.05793
C_ C_ 0.966343 0.500417 0.763984 0.05793
Br Br 0.574192 0.00936638 0.742429 -0.17191
Br Br 0.82184 1.00964357 0.727544 -0.17191
Br Br 0.678721 0.492904 0.756926 -0.17191
Br Br 0.928762 0.499134 0.79213 -0.17191
N_ N_ 0.627034 0.751639 0.851236 -0.272
N_ N_ 0.874919 0.747369 0.857768 -0.272
N_ N_ 0.620238 0.742048 0.986523 -0.12501
N_ N_ 0.889552 0.742639 0.990249 -0.12501
N_ N_ 0.620531 0.753246 0.640239 -0.272
N_ N_ 0.873326 0.746854 0.645677 -0.272
N_ N_ 0.629234 0.764751 0.508573 -0.12501
N_ N_ 0.86882 0.739304 0.515611 -0.12501
O_ O_ 0.595133 0.796305 0.715164 -0.60745
O_ O_ 0.842639 0.794823 0.715086 -0.60745
O_ O_ 0.60194 0.801784 0.783565 -0.60745
O_ O_ 0.840211 0.79451 0.782711 -0.60745
O_ O_ 0.659807 0.787421 0.774694 -0.60745
O_ O_ 0.904885 0.793783 0.783686 -0.60745
O_ O_ 0.655884 0.795554 0.707008 -0.60745
O_ O_ 0.907435 0.789756 0.716632 -0.60745
O_ O_ 0.647295 0.698139 0.777382 -0.60745
O_ O_ 0.904573 0.704391 0.787916 -0.60745
O_ O_ 0.659215 0.705731 0.71193 -0.60745
O_ O_ 0.900316 0.701883 0.719544 -0.60745
O_ O_ 0.595212 0.705541 0.713378 -0.60745
O_ O_ 0.837796 0.708118 0.713849 -0.60745
O_ O_ 0.583983 0.715625 0.780002 -0.60745
O_ O_ 0.842418 0.706695 0.782274 -0.60745
_cell_length_a 44.444
_cell_length_b 32.3360000049186
_cell_length_c 31.843999878906452
_cell_angle_alpha 89.99799923859553
_cell_angle_beta 91.13600050494348
_cell_angle_gamma 89.9990006550086
_symmetry_space_group_name_H-M         'P 1'
_symmetry_Int_Tables_number            1
loop_
_symmetry_equiv_pos_as_xyz
   'x, y, z'
                         
loop_
_atom_site_label
_atom_site_type_symbol
_atom_site_fract_x 
_atom_site_fract_y
_atom_site_fract_z
_atom_site_charge
Zn Zn 0.125394 0.248888 0.289195 0.9476
Zn Zn 0.374056 0.252446 0.283923 0.9476
Zn Zn 0.126284 0.250637 0.219311 0.9476
Zn Zn 0.374857 0.25393 0.214308 0.9476
H_ H_ 0.0372996 0.418218 0.186698 0.10932
H_ H_ 0.269758 0.408707 0.173467 0.10932
H_ H_ 0.0690876 0.354302 0.321347 0.10932
H_ H_ 0.314594 0.35846 0.309788 0.10932
H_ H_ 0.0661561 0.355059 0.188547 0.10932
H_ H_ 0.305118 0.35024 0.174744 0.10932
H_ H_ 0.0420066 0.421835 0.321074 0.10932
H_ H_ 0.281391 0.419273 0.308693 0.10932
H_ H_ 0.221956 0.409078 0.31587 0.10932
H_ H_ 0.464968 0.420059 0.315905 0.10932
H_ H_ 0.172209 0.359788 0.188066 0.10932
H_ H_ 0.427167 0.367216 0.180509 0.10932
H_ H_ 0.20082 0.340428 0.317038 0.10932
H_ H_ 0.435134 0.355472 0.31875 0.10932
H_ H_ 0.199454 0.42611 0.183062 0.10932
H_ H_ 0.452958 0.428919 0.183934 0.10932
H_ H_ 0.22954 0.0951446 0.319973 0.10932
H_ H_ 0.460615 0.0772752 0.315702 0.10932
H_ H_ 0.174848 0.136965 0.19174 0.10932
H_ H_ 0.431996 0.146254 0.184229 0.10932
H_ H_ 0.202911 0.16248 0.314102 0.10932
H_ H_ 0.44105 0.147842 0.317009 0.10932
H_ H_ 0.201487 0.072174 0.189194 0.10932
H_ H_ 0.456394 0.0801854 0.179573 0.10932
H_ H_ 0.0497623 0.0734209 0.186562 0.10932
H_ H_ 0.270744 0.0954135 0.190023 0.10932
H_ H_ 0.0535557 0.156559 0.31642 0.10932
H_ H_ 0.327201 0.14447 0.315238 0.10932
H_ H_ 0.0772001 0.137437 0.184699 0.10932
H_ H_ 0.296244 0.162179 0.187731 0.10932
H_ H_ 0.0220001 0.0954031 0.313131 0.10932
H_ H_ 0.298831 0.0788312 0.320074 0.10932
H_ H_ 0.121753 0.31764 0.358013 0.10932
H_ H_ 0.373121 0.315255 0.355603 0.10932
H_ H_ 0.120775 0.186993 0.366287 0.10932
H_ H_ 0.374285 0.184818 0.363603 0.10932
H_ H_ 0.128867 0.19084 0.445385 0.10932
H_ H_ 0.373066 0.188992 0.436437 0.10932
H_ H_ 0.115494 0.323565 0.435079 0.10932
H_ H_ 0.371701 0.319806 0.432623 0.10932
H_ H_ 0.129228 0.320085 0.150321 0.10932
H_ H_ 0.374084 0.31571 0.13792 0.10932
H_ H_ 0.125169 0.189422 0.143328 0.10932
H_ H_ 0.378236 0.186845 0.148658 0.10932
H_ H_ 0.124567 0.191269 0.0615458 0.10932
H_ H_ 0.384853 0.18202 0.0685121 0.10932
H_ H_ 0.133622 0.32507 0.0724588 0.10932
H_ H_ 0.382764 0.317293 0.0605753 0.10932
C_ C_ 0.0702288 0.34904 0.254831 -0.02249
C_ C_ 0.312747 0.35112 0.242079 -0.02249
C_ C_ 0.0186786 0.463587 0.253767 -0.02249
C_ C_ 0.258622 0.46407 0.239863 -0.02249
C_ C_ 0.0417391 0.402566 0.216452 -0.11473
C_ C_ 0.281334 0.400303 0.203814 -0.11473
C_ C_ 0.0627196 0.369565 0.292613 -0.11473
C_ C_ 0.306877 0.37274 0.279152 -0.11473
C_ C_ 0.058672 0.365776 0.217269 -0.11473
C_ C_ 0.298961 0.365062 0.203984 -0.11473
C_ C_ 0.0352309 0.422287 0.254213 -0.02249
C_ C_ 0.276167 0.423712 0.239825 -0.02249
C_ C_ 0.0909239 0.312295 0.254553 0.6875
C_ C_ 0.334531 0.314527 0.242452 0.6875
C_ C_ 0.0461156 0.405282 0.292799 -0.11473
C_ C_ 0.289523 0.409805 0.278442 -0.11473
C_ C_ 0.182438 0.345466 0.253238 -0.02249
C_ C_ 0.430424 0.353173 0.250525 -0.02249
C_ C_ 0.227885 0.464042 0.251857 -0.02249
C_ C_ 0.483078 0.465566 0.248485 -0.02249
C_ C_ 0.211533 0.399163 0.288742 -0.11473
C_ C_ 0.46044 0.405201 0.287121 -0.11473
C_ C_ 0.181466 0.372491 0.215843 -0.11473
C_ C_ 0.435108 0.375352 0.211983 -0.11473
C_ C_ 0.198557 0.360677 0.288963 -0.11473
C_ C_ 0.441942 0.369514 0.287866 -0.11473
C_ C_ 0.210588 0.425483 0.25289 -0.02249
C_ C_ 0.466296 0.425862 0.249947 -0.02249
C_ C_ 0.166844 0.305765 0.253514 0.6875
C_ C_ 0.41334 0.312198 0.249185 0.6875
C_ C_ 0.196304 0.410689 0.214565 -0.11473
C_ C_ 0.452742 0.411 0.211702 -0.11473
C_ C_ 0.18259 0.150448 0.255385 -0.02249
C_ C_ 0.429449 0.150382 0.25018 -0.02249
C_ C_ 0.235853 0.0398866 0.255281 -0.02249
C_ C_ 0.481748 0.0363655 0.248285 -0.02249
C_ C_ 0.215802 0.102405 0.292138 -0.11473
C_ C_ 0.455795 0.0934523 0.287672 -0.11473
C_ C_ 0.184611 0.125755 0.221031 -0.11473
C_ C_ 0.437313 0.130983 0.212457 -0.11473
C_ C_ 0.199292 0.139859 0.290596 -0.11473
C_ C_ 0.439197 0.131475 0.288329 -0.11473
C_ C_ 0.21784 0.0766376 0.256431 -0.02249
C_ C_ 0.464633 0.0765148 0.248656 -0.02249
C_ C_ 0.163164 0.187186 0.255697 0.6875
C_ C_ 0.414831 0.192665 0.249861 0.6875
C_ C_ 0.201575 0.0892086 0.220238 -0.11473
C_ C_ 0.454138 0.0960211 0.211169 -0.11473
C_ C_ 0.066229 0.154261 0.248889 -0.02249
C_ C_ 0.313045 0.16024 0.252237 -0.02249
C_ C_ 0.0181563 0.0371535 0.252024 -0.02249
C_ C_ 0.266911 0.04116 0.250738 -0.02249
C_ C_ 0.0487589 0.0917454 0.212724 -0.11473
C_ C_ 0.279647 0.108618 0.218589 -0.11473
C_ C_ 0.0513064 0.140378 0.285697 -0.11473
C_ C_ 0.31393 0.134739 0.288051 -0.11473
C_ C_ 0.0627728 0.130997 0.21045 -0.11473
C_ C_ 0.295975 0.145914 0.217788 -0.11473
C_ C_ 0.0344225 0.0771946 0.249115 -0.02249
C_ C_ 0.281801 0.0824148 0.254526 -0.02249
C_ C_ 0.0876272 0.191529 0.251608 0.6875
C_ C_ 0.33351 0.196533 0.250817 0.6875
C_ C_ 0.0338711 0.104747 0.284363 -0.11473
C_ C_ 0.297409 0.0972606 0.291175 -0.11473
C_ C_ 0.127112 0.290136 0.377918 0.17695
C_ C_ 0.372491 0.288031 0.373861 0.17695
C_ C_ 0.121269 0.217022 0.381906 0.17695
C_ C_ 0.373035 0.21543 0.377702 0.17695
C_ C_ 0.125516 0.218116 0.425842 -0.11473
C_ C_ 0.371284 0.217156 0.421513 -0.11473
C_ C_ 0.126197 0.257605 0.446857 0.23465
C_ C_ 0.372757 0.254415 0.443095 0.23465
C_ C_ 0.122513 0.293668 0.420958 -0.11473
C_ C_ 0.373051 0.2902 0.417069 -0.11473
C_ C_ 0.129385 0.292432 0.130139 0.17695
C_ C_ 0.37843 0.288659 0.121878 0.17695
C_ C_ 0.1248 0.218756 0.126319 0.17695
C_ C_ 0.378122 0.213896 0.126507 0.17695
C_ C_ 0.128017 0.21915 0.0823342 -0.11473
C_ C_ 0.382677 0.211894 0.082814 -0.11473
C_ C_ 0.129971 0.258285 0.0631687 0.23465
C_ C_ 0.383487 0.248323 0.0572577 0.23465
C_ C_ 0.132579 0.294083 0.0866789 -0.11473
C_ C_ 0.381812 0.286793 0.077399 -0.11473
C_ C_ 0.0340522 0.501531 0.251221 0.05793
C_ C_ 0.273655 0.502217 0.237291 0.05793
C_ C_ 0.220347 0.002610000000000001 0.250182 0.05793
C_ C_ 0.466416 0.996688 0.246206 0.05793
Br Br 0.0769884 0.503086 0.25985 -0.17191
Br Br 0.314262 0.502358 0.216308 -0.17191
Br Br 0.179104 -0.000637421 0.254865 -0.17191
Br Br 0.423997 0.991125 0.23581 -0.17191
N_ N_ 0.125456 0.252577 0.359436 -0.272
N_ N_ 0.373657 0.251188 0.354362 -0.272
N_ N_ 0.118488 0.258578 0.489829 -0.12501
N_ N_ 0.379337 0.254742 0.487987 -0.12501
N_ N_ 0.125902 0.254782 0.148574 -0.272
N_ N_ 0.377637 0.25227 0.144239 -0.272
N_ N_ 0.138011 0.260901 0.0188846 -0.12501
N_ N_ 0.386592 0.243674 0.0125724 -0.12501
O_ O_ 0.0992947 0.298019 0.219973 -0.60745
O_ O_ 0.341485 0.295571 0.211495 -0.60745
O_ O_ 0.0998024 0.295928 0.288719 -0.60745
O_ O_ 0.344341 0.300144 0.277466 -0.60745
O_ O_ 0.160572 0.289856 0.288669 -0.60745
O_ O_ 0.404977 0.294375 0.283212 -0.60745
O_ O_ 0.160631 0.287636 0.220399 -0.60745
O_ O_ 0.403569 0.299855 0.21466 -0.60745
O_ O_ 0.151907 0.199355 0.289514 -0.60745
O_ O_ 0.403443 0.205699 0.283803 -0.60745
O_ O_ 0.152222 0.200617 0.221922 -0.60745
O_ O_ 0.409819 0.2125 0.215911 -0.60745
O_ O_ 0.0909052 0.21335 0.218018 -0.60745
O_ O_ 0.345262 0.208476 0.217311 -0.60745
O_ O_ 0.0946534 0.205459 0.287242 -0.60745
O_ O_ 0.340634 0.214109 0.285933 -0.60745
Zn Zn 0.12084 0.252512 0.789325 0.9476
Zn Zn 0.3752 0.250933 0.782746 0.9476
Zn Zn 0.118496 0.250019 0.719417 0.9476
Zn Zn 0.372797 0.250952 0.715368 0.9476
H_ H_ 0.0242323 0.415775 0.682239 0.10932
H_ H_ 0.278663 0.411534 0.679207 0.10932
H_ H_ 0.0669722 0.355037 0.817176 0.10932
H_ H_ 0.313068 0.35873 0.816732 0.10932
H_ H_ 0.0575638 0.354034 0.68379 0.10932
H_ H_ 0.310816 0.345521 0.682363 0.10932
H_ H_ 0.0366899 0.417093 0.819431 0.10932
H_ H_ 0.284369 0.420618 0.808587 0.10932
H_ H_ 0.212075 0.423245 0.811637 0.10932
H_ H_ 0.480463 0.396863 0.808802 0.10932
H_ H_ 0.17851 0.353254 0.679109 0.10932
H_ H_ 0.426936 0.366129 0.678086 0.10932
H_ H_ 0.182769 0.358691 0.816614 0.10932
H_ H_ 0.462629 0.329353 0.800853 0.10932
H_ H_ 0.213471 0.415275 0.674543 0.10932
H_ H_ 0.459798 0.428926 0.680495 0.10932
H_ H_ 0.200121 0.0720165 0.813397 0.10932
H_ H_ 0.465656 0.0810219 0.816878 0.10932
H_ H_ 0.189893 0.15611 0.685797 0.10932
H_ H_ 0.417927 0.136042 0.683561 0.10932
H_ H_ 0.174919 0.140388 0.815168 0.10932
H_ H_ 0.438694 0.148671 0.817885 0.10932
H_ H_ 0.21662 0.0897002 0.682223 0.10932
H_ H_ 0.448838 0.0732909 0.682586 0.10932
H_ H_ 0.0438075 0.0756069 0.698802 0.10932
H_ H_ 0.273821 0.0970389 0.684795 0.10932
H_ H_ 0.0721288 0.141927 0.824697 0.10932
H_ H_ 0.324896 0.137453 0.814699 0.10932
H_ H_ 0.0603542 0.145789 0.690534 0.10932
H_ H_ 0.303306 0.161442 0.687017 0.10932
H_ H_ 0.04031 0.0790906 0.827744 0.10932
H_ H_ 0.294965 0.0726787 0.813922 0.10932
H_ H_ 0.166929 0.238661 0.860304 0.10932
H_ H_ 0.376278 0.318771 0.851449 0.10932
H_ H_ 0.0815405 0.291221 0.863041 0.10932
H_ H_ 0.384528 0.190137 0.866373 0.10932
H_ H_ 0.0796347 0.282379 0.942398 0.10932
H_ H_ 0.385907 0.194539 0.940193 0.10932
H_ H_ 0.168996 0.232648 0.93993 0.10932
H_ H_ 0.375426 0.324916 0.929701 0.10932
H_ H_ 0.130033 0.178522 0.649213 0.10932
H_ H_ 0.414554 0.268345 0.633909 0.10932
H_ H_ 0.0996977 0.302625 0.639507 0.10932
H_ H_ 0.3235 0.223626 0.64395 0.10932
H_ H_ 0.108174 0.302733 0.562427 0.10932
H_ H_ 0.318624 0.226273 0.5681 0.10932
H_ H_ 0.14173 0.176226 0.570786 0.10932
H_ H_ 0.410572 0.264043 0.559639 0.10932
C_ C_ 0.059819 0.348347 0.749496 -0.02249
C_ C_ 0.315686 0.348304 0.749983 -0.02249
C_ C_ 0.0133157 0.464535 0.751443 -0.02249
C_ C_ 0.26373 0.461264 0.741427 -0.02249
C_ C_ 0.0365877 0.405803 0.712947 -0.11473
C_ C_ 0.286401 0.397467 0.708133 -0.11473
C_ C_ 0.0566824 0.367408 0.787391 -0.11473
C_ C_ 0.306219 0.367617 0.786635 -0.11473
C_ C_ 0.0509486 0.366781 0.712867 -0.11473
C_ C_ 0.303899 0.36199 0.710449 -0.11473
C_ C_ 0.0309769 0.425487 0.7512 -0.02249
C_ C_ 0.280445 0.420898 0.743773 -0.02249
C_ C_ 0.0794453 0.310584 0.749831 0.6875
C_ C_ 0.337299 0.31472 0.750001 0.6875
C_ C_ 0.0409519 0.405585 0.788976 -0.11473
C_ C_ 0.289223 0.40376 0.782187 -0.11473
C_ C_ 0.179701 0.34812 0.74745 -0.02249
C_ C_ 0.43743 0.345513 0.7413 -0.02249
C_ C_ 0.232567 0.462096 0.742134 -0.02249
C_ C_ 0.489267 0.45883 0.74713 -0.02249
C_ C_ 0.208296 0.403793 0.783356 -0.11473
C_ C_ 0.471423 0.3914 0.779622 -0.11473
C_ C_ 0.186879 0.366435 0.706896 -0.11473
C_ C_ 0.437297 0.375088 0.707315 -0.11473
C_ C_ 0.189955 0.368529 0.784663 -0.11473
C_ C_ 0.45757 0.352867 0.776124 -0.11473
C_ C_ 0.214734 0.423096 0.743008 -0.02249
C_ C_ 0.474381 0.417848 0.74348 -0.02249
C_ C_ 0.160215 0.31117 0.750283 0.6875
C_ C_ 0.413943 0.311248 0.743939 0.6875
C_ C_ 0.204679 0.403112 0.705076 -0.11473
C_ C_ 0.457387 0.409574 0.707846 -0.11473
C_ C_ 0.185067 0.157103 0.75167 -0.02249
C_ C_ 0.430145 0.150859 0.749074 -0.02249
C_ C_ 0.231714 0.0398549 0.750227 -0.02249
C_ C_ 0.48007 0.036682 0.748963 -0.02249
C_ C_ 0.200672 0.0929706 0.786002 -0.11473
C_ C_ 0.456668 0.0954561 0.787347 -0.11473
C_ C_ 0.196662 0.141539 0.714409 -0.11473
C_ C_ 0.431193 0.127279 0.712032 -0.11473
C_ C_ 0.185563 0.13169 0.787163 -0.11473
C_ C_ 0.443741 0.134933 0.786836 -0.11473
C_ C_ 0.214754 0.0800939 0.74855 -0.02249
C_ C_ 0.461274 0.0752349 0.749097 -0.02249
C_ C_ 0.161893 0.191871 0.751388 0.6875
C_ C_ 0.411178 0.189609 0.748981 0.6875
C_ C_ 0.209914 0.103016 0.711933 -0.11473
C_ C_ 0.447707 0.0911577 0.711532 -0.11473
C_ C_ 0.0650799 0.151871 0.758243 -0.02249
C_ C_ 0.313022 0.159182 0.753541 -0.02249
C_ C_ 0.0216001 0.0325043 0.762074 -0.02249
C_ C_ 0.263871 0.0410675 0.749501 -0.02249
C_ C_ 0.0407057 0.0944109 0.722786 -0.11473
C_ C_ 0.284704 0.107162 0.711786 -0.11473
C_ C_ 0.065484 0.12755 0.796042 -0.11473
C_ C_ 0.317117 0.127399 0.784803 -0.11473
C_ C_ 0.0547055 0.133129 0.720336 -0.11473
C_ C_ 0.299783 0.145575 0.714594 -0.11473
C_ C_ 0.0396188 0.0730849 0.760826 -0.02249
C_ C_ 0.280632 0.0827365 0.748531 -0.02249
C_ C_ 0.0814883 0.19337 0.757968 0.6875
C_ C_ 0.3308 0.197867 0.754821 0.6875
C_ C_ 0.0478458 0.0922147 0.798371 -0.11473
C_ C_ 0.29719 0.0924551 0.784743 -0.11473
C_ C_ 0.146816 0.242916 0.878966 0.17695
C_ C_ 0.374325 0.291175 0.872181 0.17695
C_ C_ 0.0972544 0.271524 0.881123 0.17695
C_ C_ 0.378181 0.219928 0.880364 0.17695
C_ C_ 0.0984252 0.271565 0.924311 -0.11473
C_ C_ 0.378257 0.222024 0.923568 -0.11473
C_ C_ 0.123781 0.25414 0.946856 0.23465
C_ C_ 0.373392 0.260085 0.942759 0.23465
C_ C_ 0.149043 0.244227 0.924461 -0.11473
C_ C_ 0.372138 0.295068 0.916574 -0.11473
C_ C_ 0.12837 0.207551 0.628277 0.17695
C_ C_ 0.392825 0.256909 0.620818 0.17695
C_ C_ 0.112507 0.277081 0.624043 0.17695
C_ C_ 0.342885 0.233362 0.626157 0.17695
C_ C_ 0.114089 0.275922 0.579808 -0.11473
C_ C_ 0.338753 0.235923 0.583193 -0.11473
C_ C_ 0.126645 0.239319 0.560775 0.23465
C_ C_ 0.36416 0.241188 0.559081 0.23465
C_ C_ 0.13441 0.205129 0.585863 -0.11473
C_ C_ 0.391542 0.251407 0.577343 -0.11473
C_ C_ 0.0290252 0.502231 0.746495 0.05793
C_ C_ 0.280935 0.498527 0.743729 0.05793
C_ C_ 0.21628 0.000539384 0.749134 0.05793
C_ C_ 0.465661 0.998468 0.74844 0.05793
Br Br 0.0713564 0.502224 0.731408 -0.17191
Br Br 0.325097 0.493465 0.746629 -0.17191
Br Br 0.174094 -0.0012839999999999518 0.742582 -0.17191
Br Br 0.422502 0.995137 0.737614 -0.17191
N_ N_ 0.120656 0.257711 0.859064 -0.272
N_ N_ 0.374339 0.253367 0.855775 -0.272
N_ N_ 0.121123 0.244854 0.991561 -0.12501
N_ N_ 0.372828 0.265804 0.987362 -0.12501
N_ N_ 0.11791 0.24311 0.647026 -0.272
N_ N_ 0.368756 0.248092 0.645509 -0.272
N_ N_ 0.133244 0.238146 0.517118 -0.12501
N_ N_ 0.36233 0.237177 0.514155 -0.12501
O_ O_ 0.0850287 0.292177 0.715763 -0.60745
O_ O_ 0.344201 0.297378 0.716007 -0.60745
O_ O_ 0.0885527 0.294911 0.784666 -0.60745
O_ O_ 0.344752 0.29744 0.784465 -0.60745
O_ O_ 0.151992 0.297325 0.785841 -0.60745
O_ O_ 0.407995 0.293126 0.77914 -0.60745
O_ O_ 0.147896 0.296796 0.71707 -0.60745
O_ O_ 0.403257 0.296787 0.709368 -0.60745
O_ O_ 0.154227 0.208407 0.787374 -0.60745
O_ O_ 0.404558 0.208909 0.78342 -0.60745
O_ O_ 0.154077 0.208021 0.718039 -0.60745
O_ O_ 0.402152 0.205619 0.713926 -0.60745
O_ O_ 0.0889064 0.20756 0.723183 -0.60745
O_ O_ 0.339246 0.212144 0.721998 -0.60745
O_ O_ 0.0926395 0.207488 0.791936 -0.60745
O_ O_ 0.345019 0.207101 0.788259 -0.60745
Zn Zn 0.124959 0.752504 0.286687 0.9476
Zn Zn 0.374404 0.752875 0.280459 0.9476
Zn Zn 0.124396 0.755049 0.216312 0.9476
Zn Zn 0.37661 0.751251 0.210549 0.9476
H_ H_ 0.0281029 0.912357 0.189066 0.10932
H_ H_ 0.278125 0.915474 0.179651 0.10932
H_ H_ 0.0650954 0.855157 0.322488 0.10932
H_ H_ 0.326484 0.868021 0.309326 0.10932
H_ H_ 0.060978 0.855653 0.187203 0.10932
H_ H_ 0.307255 0.847491 0.179084 0.10932
H_ H_ 0.0268852 0.908737 0.32239 0.10932
H_ H_ 0.293019 0.925249 0.313429 0.10932
H_ H_ 0.224672 0.918675 0.314314 0.10932
H_ H_ 0.463244 0.918541 0.314173 0.10932
H_ H_ 0.181268 0.85441 0.18189 0.10932
H_ H_ 0.443055 0.846596 0.180699 0.10932
H_ H_ 0.191641 0.856026 0.317672 0.10932
H_ H_ 0.425654 0.858933 0.314386 0.10932
H_ H_ 0.210376 0.916957 0.180623 0.10932
H_ H_ 0.472885 0.909778 0.18171 0.10932
H_ H_ 0.236774 0.605756 0.309615 0.10932
H_ H_ 0.486326 0.602279 0.302564 0.10932
H_ H_ 0.164983 0.630801 0.190551 0.10932
H_ H_ 0.41928 0.638199 0.181507 0.10932
H_ H_ 0.207937 0.669771 0.308595 0.10932
H_ H_ 0.453356 0.663537 0.305359 0.10932
H_ H_ 0.18807 0.561412 0.198796 0.10932
H_ H_ 0.446093 0.571174 0.183977 0.10932
H_ H_ 0.0375399 0.575566 0.186612 0.10932
H_ H_ 0.265738 0.590505 0.180803 0.10932
H_ H_ 0.0637702 0.653475 0.319101 0.10932
H_ H_ 0.321874 0.641142 0.311413 0.10932
H_ H_ 0.0694556 0.647811 0.184324 0.10932
H_ H_ 0.296072 0.657324 0.180404 0.10932
H_ H_ 0.0296797 0.595228 0.318754 0.10932
H_ H_ 0.288354 0.579644 0.313174 0.10932
H_ H_ 0.103102 0.805246 0.362762 0.10932
H_ H_ 0.360433 0.687188 0.364397 0.10932
H_ H_ 0.134392 0.683676 0.355542 0.10932
H_ H_ 0.388768 0.811693 0.353558 0.10932
H_ H_ 0.133947 0.678515 0.435808 0.10932
H_ H_ 0.393887 0.815994 0.430851 0.10932
H_ H_ 0.108853 0.809258 0.440385 0.10932
H_ H_ 0.367612 0.691381 0.44059 0.10932
H_ H_ 0.17099 0.781524 0.136096 0.10932
H_ H_ 0.385439 0.691285 0.134051 0.10932
H_ H_ 0.0800292 0.735104 0.137778 0.10932
H_ H_ 0.378319 0.819651 0.138992 0.10932
H_ H_ 0.0789707 0.730477 0.0606271 0.10932
H_ H_ 0.373051 0.825839 0.0650387 0.10932
H_ H_ 0.169908 0.779945 0.0580221 0.10932
H_ H_ 0.382538 0.691057 0.0562238 0.10932
C_ C_ 0.06779 0.85095 0.255954 -0.02249
C_ C_ 0.320638 0.853289 0.24327 -0.02249
C_ C_ 0.0151787 0.960374 0.25831 -0.02249
C_ C_ 0.267702 0.965958 0.247848 -0.02249
C_ C_ 0.0388174 0.903704 0.218295 -0.11473
C_ C_ 0.289077 0.904007 0.207659 -0.11473
C_ C_ 0.0580162 0.868119 0.293263 -0.11473
C_ C_ 0.314938 0.875577 0.280919 -0.11473
C_ C_ 0.0559399 0.86746 0.21743 -0.11473
C_ C_ 0.307314 0.868015 0.206415 -0.11473
C_ C_ 0.030429 0.92028 0.255678 -0.02249
C_ C_ 0.285311 0.926994 0.245443 -0.02249
C_ C_ 0.0856602 0.812331 0.253824 0.6875
C_ C_ 0.342658 0.818793 0.244481 0.6875
C_ C_ 0.0378452 0.899934 0.293707 -0.11473
C_ C_ 0.29596 0.909013 0.282957 -0.11473
C_ C_ 0.182884 0.852753 0.251339 -0.02249
C_ C_ 0.436403 0.844036 0.246492 -0.02249
C_ C_ 0.235921 0.965715 0.246305 -0.02249
C_ C_ 0.484227 0.959221 0.24451 -0.02249
C_ C_ 0.215576 0.904847 0.286624 -0.11473
C_ C_ 0.45736 0.90372 0.285043 -0.11473
C_ C_ 0.190142 0.868862 0.212331 -0.11473
C_ C_ 0.447095 0.861745 0.209812 -0.11473
C_ C_ 0.196583 0.868979 0.287931 -0.11473
C_ C_ 0.438064 0.867966 0.284585 -0.11473
C_ C_ 0.219275 0.923986 0.248068 -0.02249
C_ C_ 0.469176 0.919496 0.247752 -0.02249
C_ C_ 0.162702 0.816207 0.252932 0.6875
C_ C_ 0.417257 0.807742 0.24494 0.6875
C_ C_ 0.207862 0.905146 0.211054 -0.11473
C_ C_ 0.464588 0.898149 0.21037 -0.11473
C_ C_ 0.182044 0.654745 0.249797 -0.02249
C_ C_ 0.435513 0.656777 0.242757 -0.02249
C_ C_ 0.228979 0.538475 0.256967 -0.02249
C_ C_ 0.483841 0.540769 0.242839 -0.02249
C_ C_ 0.217514 0.608489 0.285231 -0.11473
C_ C_ 0.470386 0.607283 0.278477 -0.11473
C_ C_ 0.177919 0.623826 0.218018 -0.11473
C_ C_ 0.432408 0.629938 0.208845 -0.11473
C_ C_ 0.202535 0.646233 0.283747 -0.11473
C_ C_ 0.452026 0.642678 0.279418 -0.11473
C_ C_ 0.212063 0.57729 0.253922 -0.02249
C_ C_ 0.468125 0.58187 0.242627 -0.02249
C_ C_ 0.166163 0.694959 0.248622 0.6875
C_ C_ 0.415324 0.691475 0.242905 0.6875
C_ C_ 0.192558 0.585382 0.221149 -0.11473
C_ C_ 0.448852 0.593061 0.20821 -0.11473
C_ C_ 0.068674 0.653256 0.249452 -0.02249
C_ C_ 0.313887 0.653367 0.243952 -0.02249
C_ C_ 0.0187069 0.539228 0.252601 -0.02249
C_ C_ 0.259815 0.539251 0.245722 -0.02249
C_ C_ 0.0461973 0.59299 0.213458 -0.11473
C_ C_ 0.278009 0.604847 0.211571 -0.11473
C_ C_ 0.0582451 0.637023 0.28844 -0.11473
C_ C_ 0.310574 0.631341 0.282092 -0.11473
C_ C_ 0.0605757 0.632911 0.213704 -0.11473
C_ C_ 0.297315 0.639033 0.208947 -0.11473
C_ C_ 0.035515 0.579325 0.252166 -0.02249
C_ C_ 0.276509 0.580477 0.247639 -0.02249
C_ C_ 0.0877218 0.689261 0.248263 0.6875
C_ C_ 0.331869 0.693017 0.244166 0.6875
C_ C_ 0.0410299 0.602776 0.289879 -0.11473
C_ C_ 0.293718 0.59373 0.283654 -0.11473
C_ C_ 0.116437 0.783241 0.378935 0.17695
C_ C_ 0.365009 0.718587 0.37749 0.17695
C_ C_ 0.131367 0.711563 0.375142 0.17695
C_ C_ 0.381889 0.787083 0.372709 0.17695
C_ C_ 0.130016 0.707645 0.419642 -0.11473
C_ C_ 0.383844 0.790287 0.416216 -0.11473
C_ C_ 0.122789 0.743565 0.44338 0.23465
C_ C_ 0.377751 0.755727 0.439966 0.23465
C_ C_ 0.115323 0.781245 0.422225 -0.11473
C_ C_ 0.36801 0.719564 0.421613 -0.11473
C_ C_ 0.15023 0.767098 0.120941 0.17695
C_ C_ 0.381685 0.720021 0.117776 0.17695
C_ C_ 0.0996722 0.743312 0.121448 0.17695
C_ C_ 0.378818 0.791987 0.121382 0.17695
C_ C_ 0.0998672 0.7409 0.077284 -0.11473
C_ C_ 0.379026 0.795356 0.0787848 -0.11473
C_ C_ 0.125617 0.751992 0.0553942 0.23465
C_ C_ 0.378272 0.759084 0.0534648 0.23465
C_ C_ 0.150909 0.766704 0.0769159 -0.11473
C_ C_ 0.383355 0.721356 0.073893 -0.11473
C_ C_ 0.0319302 0.997977 0.256199 0.05793
C_ C_ 0.283534 1.00323874 0.246572 0.05793
C_ C_ 0.214296 0.500782 0.264087 0.05793
C_ C_ 0.466788 0.503355 0.24706 0.05793
Br Br 0.0739369 -0.008075999999999972 0.267333 -0.17191
Br Br 0.325651 1.00746119 0.232849 -0.17191
Br Br 0.174094 0.505451 0.290185 -0.17191
Br Br 0.423418 0.504373 0.262016 -0.17191
N_ N_ 0.124409 0.748788 0.356549 -0.272
N_ N_ 0.373579 0.750704 0.353858 -0.272
N_ N_ 0.117797 0.738376 0.486965 -0.12501
N_ N_ 0.382713 0.75646 0.484231 -0.12501
N_ N_ 0.124718 0.755637 0.143098 -0.272
N_ N_ 0.378045 0.754673 0.140281 -0.272
N_ N_ 0.123495 0.752416 0.01187 -0.12501
N_ N_ 0.374011 0.763627 0.00960261 -0.12501
O_ O_ 0.0920658 0.796942 0.2182 -0.60745
O_ O_ 0.344492 0.793593 0.212437 -0.60745
O_ O_ 0.0912351 0.791943 0.286267 -0.60745
O_ O_ 0.348672 0.803569 0.279504 -0.60745
O_ O_ 0.151712 0.802198 0.286399 -0.60745
O_ O_ 0.408103 0.791865 0.277836 -0.60745
O_ O_ 0.153759 0.800912 0.217548 -0.60745
O_ O_ 0.40636 0.794855 0.209072 -0.60745
O_ O_ 0.158689 0.711693 0.283286 -0.60745
O_ O_ 0.402835 0.70219 0.27669 -0.60745
O_ O_ 0.155884 0.708912 0.214482 -0.60745
O_ O_ 0.41066 0.711893 0.208917 -0.60745
O_ O_ 0.0954564 0.706085 0.214635 -0.60745
O_ O_ 0.342027 0.706168 0.210407 -0.60745
O_ O_ 0.0959882 0.704915 0.282475 -0.60745
O_ O_ 0.342275 0.70984 0.279441 -0.60745
Zn Zn 0.128047 0.745022 0.781737 0.9476
Zn Zn 0.375385 0.750122 0.781082 0.9476
Zn Zn 0.124173 0.744264 0.713004 0.9476
Zn Zn 0.376777 0.749432 0.712144 0.9476
H_ H_ 0.0441795 0.918218 0.685906 0.10932
H_ H_ 0.274294 0.912221 0.684662 0.10932
H_ H_ 0.0607384 0.842572 0.819352 0.10932
H_ H_ 0.327641 0.871498 0.813506 0.10932
H_ H_ 0.0643306 0.846962 0.682616 0.10932
H_ H_ 0.306454 0.849115 0.684339 0.10932
H_ H_ 0.034869 0.908739 0.818476 0.10932
H_ H_ 0.293983 0.933299 0.813949 0.10932
H_ H_ 0.21911 0.915073 0.81414 0.10932
H_ H_ 0.453501 0.927641 0.81315 0.10932
H_ H_ 0.175079 0.863029 0.684683 0.10932
H_ H_ 0.442683 0.8452 0.681713 0.10932
H_ H_ 0.192495 0.849009 0.815942 0.10932
H_ H_ 0.4176 0.870547 0.809961 0.10932
H_ H_ 0.21179 0.916061 0.682685 0.10932
H_ H_ 0.48021 0.906812 0.689351 0.10932
H_ H_ 0.207376 0.572803 0.812402 0.10932
H_ H_ 0.457432 0.571783 0.814718 0.10932
H_ H_ 0.193879 0.651907 0.682753 0.10932
H_ H_ 0.43369 0.641708 0.680138 0.10932
H_ H_ 0.179445 0.634538 0.813779 0.10932
H_ H_ 0.426319 0.638493 0.81352 0.10932
H_ H_ 0.230885 0.597454 0.683763 0.10932
H_ H_ 0.471684 0.584062 0.683151 0.10932
H_ H_ 0.0370929 0.577821 0.681556 0.10932
H_ H_ 0.289615 0.574635 0.685482 0.10932
H_ H_ 0.0571926 0.650733 0.818288 0.10932
H_ H_ 0.303267 0.656816 0.816858 0.10932
H_ H_ 0.0680408 0.64315 0.684881 0.10932
H_ H_ 0.319853 0.642301 0.684135 0.10932
H_ H_ 0.0243429 0.59371 0.815008 0.10932
H_ H_ 0.276171 0.590136 0.814052 0.10932
H_ H_ 0.134983 0.809911 0.861031 0.10932
H_ H_ 0.382224 0.816746 0.866747 0.10932
H_ H_ 0.128497 0.676507 0.856788 0.10932
H_ H_ 0.368911 0.685888 0.847861 0.10932
H_ H_ 0.134923 0.673792 0.931584 0.10932
H_ H_ 0.370522 0.675407 0.925108 0.10932
H_ H_ 0.136086 0.804612 0.941424 0.10932
H_ H_ 0.378443 0.808187 0.940289 0.10932
H_ H_ 0.12412 0.683044 0.633613 0.10932
H_ H_ 0.325903 0.73194 0.636845 0.10932
H_ H_ 0.120213 0.814511 0.646483 0.10932
H_ H_ 0.416553 0.759318 0.635902 0.10932
H_ H_ 0.120555 0.823352 0.568725 0.10932
H_ H_ 0.414638 0.757228 0.55418 0.10932
H_ H_ 0.12557 0.69212 0.558282 0.10932
H_ H_ 0.324418 0.728219 0.560054 0.10932
C_ C_ 0.0629784 0.83754 0.75149 -0.02249
C_ C_ 0.317028 0.852759 0.747008 -0.02249
C_ C_ 0.0197839 0.95709 0.75168 -0.02249
C_ C_ 0.2638 0.964159 0.747686 -0.02249
C_ C_ 0.0431646 0.898849 0.713736 -0.11473
C_ C_ 0.286592 0.904072 0.711384 -0.11473
C_ C_ 0.0569217 0.855967 0.789167 -0.11473
C_ C_ 0.313274 0.875468 0.786178 -0.11473
C_ C_ 0.0564942 0.860167 0.714194 -0.11473
C_ C_ 0.30722 0.869694 0.709978 -0.11473
C_ C_ 0.0369995 0.918143 0.751563 -0.02249
C_ C_ 0.281423 0.924736 0.747835 -0.02249
C_ C_ 0.0862506 0.803781 0.750216 0.6875
C_ C_ 0.337607 0.813306 0.747426 0.6875
C_ C_ 0.0415985 0.894551 0.788467 -0.11473
C_ C_ 0.29428 0.911058 0.78585 -0.11473
C_ C_ 0.178174 0.851249 0.75123 -0.02249
C_ C_ 0.430637 0.852961 0.747049 -0.02249
C_ C_ 0.232276 0.964172 0.751486 -0.02249
C_ C_ 0.484022 0.963031 0.751842 -0.02249
C_ C_ 0.209523 0.901465 0.786416 -0.11473
C_ C_ 0.454579 0.906764 0.787238 -0.11473
C_ C_ 0.186087 0.872047 0.713909 -0.11473
C_ C_ 0.449061 0.86005 0.711934 -0.11473
C_ C_ 0.191297 0.867238 0.7877 -0.11473
C_ C_ 0.433303 0.875786 0.784401 -0.11473
C_ C_ 0.215193 0.923253 0.749327 -0.02249
C_ C_ 0.468774 0.920249 0.751288 -0.02249
C_ C_ 0.160483 0.809773 0.751076 0.6875
C_ C_ 0.414393 0.81354 0.745398 0.6875
C_ C_ 0.20687 0.903368 0.712068 -0.11473
C_ C_ 0.467355 0.895425 0.714883 -0.11473
C_ C_ 0.181075 0.646829 0.746138 -0.02249
C_ C_ 0.430637 0.646877 0.747276 -0.02249
C_ C_ 0.23386 0.536569 0.746619 -0.02249
C_ C_ 0.484642 0.534913 0.748555 -0.02249
C_ C_ 0.20417 0.588506 0.78325 -0.11473
C_ C_ 0.453295 0.58825 0.786115 -0.11473
C_ C_ 0.196909 0.633983 0.71021 -0.11473
C_ C_ 0.441186 0.628295 0.711014 -0.11473
C_ C_ 0.188262 0.625329 0.783658 -0.11473
C_ C_ 0.4367 0.626172 0.785131 -0.11473
C_ C_ 0.216912 0.575323 0.746724 -0.02249
C_ C_ 0.464904 0.571432 0.748838 -0.02249
C_ C_ 0.161565 0.684632 0.745496 0.6875
C_ C_ 0.413741 0.686347 0.746601 0.6875
C_ C_ 0.216699 0.601967 0.7108 -0.11473
C_ C_ 0.460746 0.594952 0.712327 -0.11473
C_ C_ 0.0675638 0.650448 0.750588 -0.02249
C_ C_ 0.313706 0.653724 0.750273 -0.02249
C_ C_ 0.0127601 0.539143 0.750115 -0.02249
C_ C_ 0.265693 0.536608 0.750208 -0.02249
C_ C_ 0.0396639 0.593282 0.71041 -0.11473
C_ C_ 0.295243 0.590565 0.71397 -0.11473
C_ C_ 0.0535 0.636508 0.787356 -0.11473
C_ C_ 0.300684 0.639463 0.786315 -0.11473
C_ C_ 0.0605569 0.629233 0.71221 -0.11473
C_ C_ 0.309232 0.630168 0.71332 -0.11473
C_ C_ 0.0291333 0.578865 0.749167 -0.02249
C_ C_ 0.284543 0.575029 0.750514 -0.02249
C_ C_ 0.0835396 0.690589 0.750675 0.6875
C_ C_ 0.334213 0.690923 0.750097 0.6875
C_ C_ 0.0335898 0.602757 0.785051 -0.11473
C_ C_ 0.286055 0.600697 0.78617 -0.11473
C_ C_ 0.132712 0.7801 0.877706 0.17695
C_ C_ 0.378112 0.785856 0.877787 0.17695
C_ C_ 0.131048 0.706817 0.874128 0.17695
C_ C_ 0.373076 0.712526 0.868635 0.17695
C_ C_ 0.134415 0.702677 0.916027 -0.11473
C_ C_ 0.373647 0.707479 0.912371 -0.11473
C_ C_ 0.136398 0.739248 0.941407 0.23465
C_ C_ 0.378752 0.742166 0.9393 0.23465
C_ C_ 0.136842 0.777009 0.920731 -0.11473
C_ C_ 0.37841 0.780609 0.922072 -0.11473
C_ C_ 0.121695 0.713636 0.618273 0.17695
C_ C_ 0.345532 0.737232 0.619924 0.17695
C_ C_ 0.121149 0.787151 0.626798 0.17695
C_ C_ 0.396793 0.752547 0.617429 0.17695
C_ C_ 0.123637 0.792205 0.58423 -0.11473
C_ C_ 0.397557 0.747829 0.573741 -0.11473
C_ C_ 0.12497 0.757058 0.558864 0.23465
C_ C_ 0.370713 0.738201 0.552847 0.23465
C_ C_ 0.121739 0.717528 0.576536 -0.11473
C_ C_ 0.345209 0.730239 0.576488 -0.11473
C_ C_ 0.0368198 -0.005306999999999951 0.756887 0.05793
C_ C_ 0.28082 0.00278225 0.74833 0.05793
C_ C_ 0.218286 0.500402 0.740664 0.05793
C_ C_ 0.471684 0.494224 0.752469 0.05793
Br Br 0.0787751 -0.0024119999999999697 0.746771 -0.17191
Br Br 0.32399 0.00253123 0.746638 -0.17191
Br Br 0.175003 0.500166 0.73759 -0.17191
Br Br 0.432546 0.486267 0.778957 -0.17191
N_ N_ 0.129516 0.744518 0.854016 -0.272
N_ N_ 0.376657 0.75182 0.851368 -0.272
N_ N_ 0.140795 0.735133 0.986743 -0.12501
N_ N_ 0.381679 0.735606 0.984679 -0.12501
N_ N_ 0.123156 0.748594 0.64461 -0.272
N_ N_ 0.371809 0.746022 0.640196 -0.272
N_ N_ 0.127422 0.763989 0.513627 -0.12501
N_ N_ 0.367571 0.73462 0.508274 -0.12501
O_ O_ 0.093226 0.787637 0.715333 -0.60745
O_ O_ 0.346106 0.797182 0.71383 -0.60745
O_ O_ 0.0959368 0.787779 0.783962 -0.60745
O_ O_ 0.346121 0.797214 0.7828 -0.60745
O_ O_ 0.157685 0.790188 0.78472 -0.60745
O_ O_ 0.407251 0.794589 0.778016 -0.60745
O_ O_ 0.154843 0.791536 0.715177 -0.60745
O_ O_ 0.405823 0.79847 0.709894 -0.60745
O_ O_ 0.158759 0.702019 0.780029 -0.60745
O_ O_ 0.40737 0.705533 0.780357 -0.60745
O_ O_ 0.153271 0.701094 0.711453 -0.60745
O_ O_ 0.405225 0.701289 0.711453 -0.60745
O_ O_ 0.0911745 0.705538 0.71581 -0.60745
O_ O_ 0.344997 0.703559 0.715794 -0.60745
O_ O_ 0.0973744 0.701601 0.78359 -0.60745
O_ O_ 0.340974 0.709267 0.784966 -0.60745
Zn Zn 0.622358 0.250102 0.28377 0.9476
Zn Zn 0.881097 0.253086 0.289407 0.9476
Zn Zn 0.621336 0.244616 0.217706 0.9476
Zn Zn 0.876484 0.255 0.219159 0.9476
H_ H_ 0.516653 0.406324 0.181027 0.10932
H_ H_ 0.772502 0.40512 0.193765 0.10932
H_ H_ 0.571022 0.365104 0.308606 0.10932
H_ H_ 0.819584 0.355693 0.324226 0.10932
H_ H_ 0.545821 0.338349 0.182053 0.10932
H_ H_ 0.804878 0.343916 0.192656 0.10932
H_ H_ 0.53659 0.422458 0.308576 0.10932
H_ H_ 0.796703 0.423021 0.32404 0.10932
H_ H_ 0.741111 0.385103 0.302531 0.10932
H_ H_ 0.977626 0.414165 0.313086 0.10932
H_ H_ 0.658438 0.372688 0.198308 0.10932
H_ H_ 0.929035 0.36046 0.182828 0.10932
H_ H_ 0.715665 0.321318 0.297006 0.10932
H_ H_ 0.948734 0.352536 0.31534 0.10932
H_ H_ 0.685029 0.438995 0.205136 0.10932
H_ H_ 0.960696 0.423123 0.181007 0.10932
H_ H_ 0.713685 0.0759252 0.322734 0.10932
H_ H_ 0.955412 0.0750586 0.314204 0.10932
H_ H_ 0.693564 0.15357 0.190987 0.10932
H_ H_ 0.947542 0.159769 0.187005 0.10932
H_ H_ 0.686401 0.141519 0.324687 0.10932
H_ H_ 0.941768 0.146388 0.320691 0.10932
H_ H_ 0.721408 0.0859418 0.190167 0.10932
H_ H_ 0.979589 0.100043 0.183244 0.10932
H_ H_ 0.541709 0.0742529 0.186283 0.10932
H_ H_ 0.804009 0.0629371 0.198023 0.10932
H_ H_ 0.546853 0.157794 0.315112 0.10932
H_ H_ 0.793399 0.173929 0.305513 0.10932
H_ H_ 0.560822 0.144827 0.183184 0.10932
H_ H_ 0.838691 0.124682 0.197078 0.10932
H_ H_ 0.522551 0.0890706 0.316008 0.10932
H_ H_ 0.769337 0.102781 0.312921 0.10932
H_ H_ 0.607928 0.192396 0.365964 0.10932
H_ H_ 0.869482 0.193573 0.351387 0.10932
H_ H_ 0.62667 0.323599 0.357918 0.10932
H_ H_ 0.883671 0.31984 0.374124 0.10932
H_ H_ 0.624117 0.32743 0.435904 0.10932
H_ H_ 0.880889 0.311673 0.450102 0.10932
H_ H_ 0.60564 0.197958 0.438399 0.10932
H_ H_ 0.874751 0.179508 0.42814 0.10932
H_ H_ 0.629761 0.182217 0.146473 0.10932
H_ H_ 0.860762 0.320473 0.150295 0.10932
H_ H_ 0.61384 0.307618 0.138485 0.10932
H_ H_ 0.901259 0.203045 0.138078 0.10932
H_ H_ 0.612846 0.306572 0.0617275 0.10932
H_ H_ 0.899986 0.20968 0.0577983 0.10932
H_ H_ 0.627019 0.175788 0.0687476 0.10932
H_ H_ 0.867119 0.336017 0.0741786 0.10932
C_ C_ 0.562569 0.345594 0.24427 -0.02249
C_ C_ 0.818431 0.3467 0.255799 -0.02249
C_ C_ 0.513926 0.464681 0.238472 -0.02249
C_ C_ 0.765771 0.457713 0.255486 -0.02249
C_ C_ 0.531544 0.396639 0.208288 -0.11473
C_ C_ 0.782551 0.39395 0.221939 -0.11473
C_ C_ 0.558352 0.37069 0.280648 -0.11473
C_ C_ 0.811032 0.367323 0.294511 -0.11473
C_ C_ 0.54532 0.35856 0.209777 -0.11473
C_ C_ 0.800954 0.359401 0.220757 -0.11473
C_ C_ 0.531491 0.424033 0.241632 -0.02249
C_ C_ 0.783429 0.419343 0.258258 -0.02249
C_ C_ 0.58149 0.30901 0.244699 0.6875
C_ C_ 0.838058 0.309058 0.257747 0.6875
C_ C_ 0.542215 0.408184 0.279194 -0.11473
C_ C_ 0.797594 0.404724 0.294837 -0.11473
C_ C_ 0.682103 0.344255 0.249678 -0.02249
C_ C_ 0.934555 0.353007 0.250595 -0.02249
C_ C_ 0.733836 0.457526 0.2565 -0.02249
C_ C_ 0.986949 0.463946 0.246291 -0.02249
C_ C_ 0.720928 0.38806 0.28517 -0.11473
C_ C_ 0.963913 0.404981 0.285345 -0.11473
C_ C_ 0.677521 0.375893 0.220072 -0.11473
C_ C_ 0.939737 0.371803 0.211508 -0.11473
C_ C_ 0.706731 0.34888 0.279935 -0.11473
C_ C_ 0.946705 0.369976 0.287438 -0.11473
C_ C_ 0.715444 0.418334 0.255334 -0.02249
C_ C_ 0.970191 0.423865 0.246987 -0.02249
C_ C_ 0.660628 0.309486 0.251493 0.6875
C_ C_ 0.914274 0.316982 0.252569 0.6875
C_ C_ 0.69194 0.413893 0.225769 -0.11473
C_ C_ 0.959245 0.406539 0.209911 -0.11473
C_ C_ 0.68666 0.154036 0.257539 -0.02249
C_ C_ 0.9387 0.156975 0.253858 -0.02249
C_ C_ 0.737255 0.0392915 0.254971 -0.02249
C_ C_ 0.986357 0.0385504 0.245731 -0.02249
C_ C_ 0.712145 0.0956484 0.294422 -0.11473
C_ C_ 0.958645 0.0958445 0.287033 -0.11473
C_ C_ 0.699553 0.139509 0.221565 -0.11473
C_ C_ 0.951106 0.14216 0.215425 -0.11473
C_ C_ 0.694375 0.13169 0.295888 -0.11473
C_ C_ 0.946031 0.134851 0.289834 -0.11473
C_ C_ 0.720853 0.0786592 0.257251 -0.02249
C_ C_ 0.971155 0.0809247 0.248801 -0.02249
C_ C_ 0.664944 0.189679 0.25658 0.6875
C_ C_ 0.919552 0.195082 0.255247 0.6875
C_ C_ 0.716472 0.102376 0.221658 -0.11473
C_ C_ 0.96942 0.107047 0.213594 -0.11473
C_ C_ 0.56027 0.154554 0.250775 -0.02249
C_ C_ 0.820055 0.154698 0.250721 -0.02249
C_ C_ 0.513699 0.0368313 0.248903 -0.02249
C_ C_ 0.768463 0.0377203 0.258415 -0.02249
C_ C_ 0.541167 0.0930787 0.21333 -0.11473
C_ C_ 0.802381 0.0876408 0.223002 -0.11473
C_ C_ 0.544501 0.140484 0.28561 -0.11473
C_ C_ 0.79777 0.147202 0.283792 -0.11473
C_ C_ 0.552676 0.13406 0.213362 -0.11473
C_ C_ 0.820725 0.123206 0.22009 -0.11473
C_ C_ 0.530205 0.0758222 0.249567 -0.02249
C_ C_ 0.785902 0.078677 0.257881 -0.02249
C_ C_ 0.581571 0.188608 0.251678 0.6875
C_ C_ 0.838713 0.193778 0.250387 0.6875
C_ C_ 0.529924 0.100918 0.285215 -0.11473
C_ C_ 0.784829 0.108116 0.289085 -0.11473
C_ C_ 0.613478 0.222863 0.37901 0.17695
C_ C_ 0.876643 0.218286 0.374471 0.17695
C_ C_ 0.621711 0.294337 0.37638 0.17695
C_ C_ 0.881094 0.2908 0.385766 0.17695
C_ C_ 0.622471 0.296789 0.419063 -0.11473
C_ C_ 0.878866 0.284685 0.430719 -0.11473
C_ C_ 0.61866 0.263098 0.444079 0.23465
C_ C_ 0.876795 0.243828 0.445691 0.23465
C_ C_ 0.613159 0.225073 0.422462 -0.11473
C_ C_ 0.876267 0.211296 0.417196 -0.11473
C_ C_ 0.63064 0.209156 0.128057 0.17695
C_ C_ 0.867933 0.295726 0.129559 0.17695
C_ C_ 0.616481 0.279442 0.123807 0.17695
C_ C_ 0.893653 0.231904 0.122842 0.17695
C_ C_ 0.615867 0.278648 0.0803046 -0.11473
C_ C_ 0.891816 0.234193 0.0778201 -0.11473
C_ C_ 0.618922 0.239761 0.059625 0.23465
C_ C_ 0.881235 0.27145 0.0593171 0.23465
C_ C_ 0.624097 0.204244 0.0848198 -0.11473
C_ C_ 0.872543 0.304151 0.0857331 -0.11473
C_ C_ 0.53079 0.502691 0.23492 0.05793
C_ C_ 0.781756 0.494985 0.248417 0.05793
C_ C_ 0.722314 1.00036 0.249595 0.05793
C_ C_ 0.970094 1.000590054 0.244788 0.05793
Br Br 0.569931 0.49682 0.213816 -0.17191
Br Br 0.824098 0.492455 0.234221 -0.17191
Br Br 0.678449 0.00426675 0.241125 -0.17191
Br Br 0.925954 0.00507182 0.238326 -0.17191
N_ N_ 0.620798 0.257416 0.357011 -0.272
N_ N_ 0.884196 0.257467 0.359872 -0.272
N_ N_ 0.613287 0.266299 0.488581 -0.12501
N_ N_ 0.876503 0.231904 0.488662 -0.12501
N_ N_ 0.62543 0.246191 0.146866 -0.272
N_ N_ 0.87879 0.260379 0.147638 -0.272
N_ N_ 0.615401 0.233759 0.014652 -0.12501
N_ N_ 0.882225 0.276719 0.0142669 -0.12501
O_ O_ 0.590279 0.291653 0.211951 -0.60745
O_ O_ 0.842869 0.293508 0.222952 -0.60745
O_ O_ 0.589859 0.292655 0.280096 -0.60745
O_ O_ 0.850404 0.298357 0.292984 -0.60745
O_ O_ 0.653735 0.293802 0.287186 -0.60745
O_ O_ 0.910408 0.299153 0.286648 -0.60745
O_ O_ 0.654132 0.288915 0.217594 -0.60745
O_ O_ 0.902432 0.302315 0.219216 -0.60745
O_ O_ 0.653697 0.204614 0.289729 -0.60745
O_ O_ 0.911368 0.20791 0.29015 -0.60745
O_ O_ 0.65248 0.200264 0.221231 -0.60745
O_ O_ 0.911805 0.21392 0.222677 -0.60745
O_ O_ 0.591176 0.202922 0.216624 -0.60745
O_ O_ 0.848293 0.20691 0.214707 -0.60745
O_ O_ 0.593246 0.203209 0.285458 -0.60745
O_ O_ 0.847108 0.211625 0.285364 -0.60745
Zn Zn 0.627247 0.24899 0.787741 0.9476
Zn Zn 0.87593 0.247152 0.787104 0.9476
Zn Zn 0.62235 0.24712 0.719551 0.9476
Zn Zn 0.877168 0.241949 0.717555 0.9476
H_ H_ 0.524613 0.405715 0.681187 0.10932
H_ H_ 0.78859 0.413954 0.684667 0.10932
H_ H_ 0.574206 0.358618 0.814473 0.10932
H_ H_ 0.809877 0.343874 0.816483 0.10932
H_ H_ 0.548212 0.336365 0.687982 0.10932
H_ H_ 0.812586 0.347135 0.682721 0.10932
H_ H_ 0.556085 0.433517 0.80848 0.10932
H_ H_ 0.780836 0.414502 0.817081 0.10932
H_ H_ 0.718351 0.413009 0.816299 0.10932
H_ H_ 0.975905 0.408103 0.819792 0.10932
H_ H_ 0.687395 0.345907 0.684985 0.10932
H_ H_ 0.93397 0.351772 0.684206 0.10932
H_ H_ 0.691684 0.349179 0.820282 0.10932
H_ H_ 0.944338 0.347624 0.819255 0.10932
H_ H_ 0.718722 0.410811 0.682511 0.10932
H_ H_ 0.960945 0.42042 0.686803 0.10932
H_ H_ 0.709027 0.0761192 0.829319 0.10932
H_ H_ 0.975817 0.0857609 0.828957 0.10932
H_ H_ 0.682411 0.13963 0.691015 0.10932
H_ H_ 0.92709 0.124515 0.690703 0.10932
H_ H_ 0.677971 0.141289 0.825531 0.10932
H_ H_ 0.953575 0.1562 0.816053 0.10932
H_ H_ 0.709221 0.0752841 0.694604 0.10932
H_ H_ 0.961442 0.0662918 0.696296 0.10932
H_ H_ 0.528858 0.0880931 0.687204 0.10932
H_ H_ 0.77792 0.0882988 0.682973 0.10932
H_ H_ 0.569201 0.141221 0.82105 0.10932
H_ H_ 0.816488 0.141019 0.820315 0.10932
H_ H_ 0.553424 0.151416 0.683835 0.10932
H_ H_ 0.812111 0.146662 0.685958 0.10932
H_ H_ 0.539936 0.0790177 0.820945 0.10932
H_ H_ 0.783764 0.0831549 0.818142 0.10932
H_ H_ 0.623136 0.31508 0.856412 0.10932
H_ H_ 0.926196 0.243383 0.857743 0.10932
H_ H_ 0.619153 0.186734 0.866349 0.10932
H_ H_ 0.832956 0.26343 0.865607 0.10932
H_ H_ 0.613226 0.18951 0.944111 0.10932
H_ H_ 0.836461 0.268844 0.942701 0.10932
H_ H_ 0.611594 0.321724 0.933519 0.10932
H_ H_ 0.927972 0.232926 0.9384 0.10932
H_ H_ 0.619879 0.182246 0.644956 0.10932
H_ H_ 0.874374 0.310173 0.651765 0.10932
H_ H_ 0.626766 0.315013 0.64277 0.10932
H_ H_ 0.887598 0.185085 0.638233 0.10932
H_ H_ 0.612259 0.310875 0.570887 0.10932
H_ H_ 0.886823 0.191109 0.563309 0.10932
H_ H_ 0.617243 0.178836 0.566559 0.10932
H_ H_ 0.864666 0.318367 0.575556 0.10932
C_ C_ 0.566336 0.344768 0.749578 -0.02249
C_ C_ 0.813077 0.340568 0.750599 -0.02249
C_ C_ 0.520376 0.462329 0.741048 -0.02249
C_ C_ 0.767659 0.459027 0.745661 -0.02249
C_ C_ 0.539727 0.398651 0.708212 -0.11473
C_ C_ 0.793866 0.400172 0.713093 -0.11473
C_ C_ 0.565022 0.371529 0.78416 -0.11473
C_ C_ 0.802934 0.359794 0.788752 -0.11473
C_ C_ 0.553334 0.359522 0.711565 -0.11473
C_ C_ 0.805588 0.360163 0.712492 -0.11473
C_ C_ 0.54062 0.424452 0.743846 -0.02249
C_ C_ 0.784795 0.419664 0.749328 -0.02249
C_ C_ 0.584396 0.305251 0.749502 0.6875
C_ C_ 0.832657 0.301777 0.752271 0.6875
C_ C_ 0.553954 0.412133 0.781373 -0.11473
C_ C_ 0.786261 0.39636 0.788019 -0.11473
C_ C_ 0.685403 0.343145 0.749978 -0.02249
C_ C_ 0.937197 0.342439 0.751142 -0.02249
C_ C_ 0.735968 0.457669 0.749491 -0.02249
C_ C_ 0.981709 0.462786 0.757461 -0.02249
C_ C_ 0.714127 0.398201 0.787397 -0.11473
C_ C_ 0.963564 0.39799 0.791281 -0.11473
C_ C_ 0.694448 0.360919 0.712242 -0.11473
C_ C_ 0.940788 0.365305 0.71417 -0.11473
C_ C_ 0.696974 0.362094 0.788307 -0.11473
C_ C_ 0.947698 0.360968 0.788803 -0.11473
C_ C_ 0.7199 0.417935 0.748848 -0.02249
C_ C_ 0.964603 0.422544 0.754575 -0.02249
C_ C_ 0.664752 0.307149 0.749793 0.6875
C_ C_ 0.918851 0.304477 0.7512 0.6875
C_ C_ 0.713093 0.396565 0.711668 -0.11473
C_ C_ 0.952178 0.405657 0.714815 -0.11473
C_ C_ 0.678103 0.146977 0.758268 -0.02249
C_ C_ 0.93443 0.14454 0.756417 -0.02249
C_ C_ 0.73068 0.0349593 0.760029 -0.02249
C_ C_ 0.989889 0.0334667 0.761988 -0.02249
C_ C_ 0.702653 0.0915393 0.798147 -0.11473
C_ C_ 0.965945 0.0962469 0.797943 -0.11473
C_ C_ 0.685109 0.124701 0.720963 -0.11473
C_ C_ 0.9417 0.121074 0.719578 -0.11473
C_ C_ 0.683209 0.127573 0.797317 -0.11473
C_ C_ 0.948707 0.133381 0.794412 -0.11473
C_ C_ 0.711236 0.0739703 0.760665 -0.02249
C_ C_ 0.973019 0.0732357 0.76011 -0.02249
C_ C_ 0.661271 0.18752 0.757945 0.6875
C_ C_ 0.914274 0.181502 0.752281 0.6875
C_ C_ 0.70064 0.0890862 0.72279 -0.11473
C_ C_ 0.96074 0.087665 0.721134 -0.11473
C_ C_ 0.565396 0.151943 0.753278 -0.02249
C_ C_ 0.812676 0.15385 0.75342 -0.02249
C_ C_ 0.51356 0.0392238 0.752274 -0.02249
C_ C_ 0.761644 0.0396328 0.749581 -0.02249
C_ C_ 0.534594 0.101163 0.716426 -0.11473
C_ C_ 0.78259 0.103916 0.714716 -0.11473
C_ C_ 0.561398 0.128847 0.790261 -0.11473
C_ C_ 0.802784 0.135396 0.791398 -0.11473
C_ C_ 0.551765 0.13675 0.714273 -0.11473
C_ C_ 0.803319 0.136855 0.715528 -0.11473
C_ C_ 0.528576 0.0796007 0.755125 -0.02249
C_ C_ 0.776443 0.0813092 0.751186 -0.02249
C_ C_ 0.583319 0.189307 0.753684 0.6875
C_ C_ 0.834835 0.191426 0.752706 0.6875
C_ C_ 0.542559 0.0937143 0.790936 -0.11473
C_ C_ 0.78755 0.098145 0.789583 -0.11473
C_ C_ 0.621489 0.288474 0.877127 0.17695
C_ C_ 0.90676 0.248897 0.876978 0.17695
C_ C_ 0.620335 0.21619 0.882376 0.17695
C_ C_ 0.853188 0.253998 0.88085 0.17695
C_ C_ 0.615055 0.218359 0.925848 -0.11473
C_ C_ 0.855624 0.25845 0.925264 -0.11473
C_ C_ 0.61466 0.257978 0.945098 0.23465
C_ C_ 0.883463 0.254091 0.946568 0.23465
C_ C_ 0.613764 0.292427 0.918862 -0.11473
C_ C_ 0.908369 0.245575 0.922115 -0.11473
C_ C_ 0.619928 0.210913 0.627846 0.17695
C_ C_ 0.869941 0.28374 0.63156 0.17695
C_ C_ 0.623481 0.284661 0.625468 0.17695
C_ C_ 0.877415 0.213304 0.624777 0.17695
C_ C_ 0.621966 0.284472 0.582121 -0.11473
C_ C_ 0.876685 0.216502 0.58146 -0.11473
C_ C_ 0.622428 0.24651 0.560076 0.23465
C_ C_ 0.869183 0.252894 0.560823 0.23465
C_ C_ 0.620262 0.209668 0.58312 -0.11473
C_ C_ 0.864279 0.289042 0.587288 -0.11473
C_ C_ 0.533367 0.502462 0.74162 0.05793
C_ C_ 0.784418 0.497948 0.742909 0.05793
C_ C_ 0.71792 -0.00523499999999999 0.758057 0.05793
C_ C_ 0.973005 -0.003801999999999972 0.758606 0.05793
Br Br 0.576595 0.505836 0.736552 -0.17191
Br Br 0.827387 0.494986 0.738314 -0.17191
Br Br 0.674767 -0.010122999999999993 0.76081 -0.17191
Br Br 0.93232 -0.002642999999999951 0.773075 -0.17191
N_ N_ 0.626052 0.25083 0.859522 -0.272
N_ N_ 0.878887 0.249938 0.857731 -0.272
N_ N_ 0.619125 0.262698 0.989251 -0.12501
N_ N_ 0.883604 0.246922 0.989723 -0.12501
N_ N_ 0.621536 0.249112 0.647896 -0.272
N_ N_ 0.871157 0.24569 0.647416 -0.272
N_ N_ 0.62549 0.24379 0.51457 -0.12501
N_ N_ 0.874417 0.259725 0.516667 -0.12501
O_ O_ 0.594087 0.292626 0.715657 -0.60745
O_ O_ 0.844659 0.28695 0.718874 -0.60745
O_ O_ 0.595071 0.289241 0.782694 -0.60745
O_ O_ 0.843958 0.292901 0.787558 -0.60745
O_ O_ 0.656063 0.293315 0.785446 -0.60745
O_ O_ 0.908773 0.291601 0.785162 -0.60745
O_ O_ 0.656491 0.290463 0.715867 -0.60745
O_ O_ 0.908483 0.288851 0.718066 -0.60745
O_ O_ 0.658745 0.207031 0.791789 -0.60745
O_ O_ 0.906333 0.197304 0.786309 -0.60745
O_ O_ 0.651353 0.20117 0.723039 -0.60745
O_ O_ 0.907151 0.197607 0.717226 -0.60745
O_ O_ 0.591009 0.205125 0.719425 -0.60745
O_ O_ 0.847156 0.198631 0.719009 -0.60745
O_ O_ 0.596994 0.201055 0.786481 -0.60745
O_ O_ 0.844353 0.206572 0.787355 -0.60745
Zn Zn 0.626756 0.74807 0.282941 0.9476
Zn Zn 0.873247 0.74577 0.287431 0.9476
Zn Zn 0.626465 0.752019 0.213189 0.9476
Zn Zn 0.872333 0.747774 0.215495 0.9476
H_ H_ 0.532902 0.911987 0.185512 0.10932
H_ H_ 0.78451 0.921957 0.195449 0.10932
H_ H_ 0.572294 0.857544 0.320138 0.10932
H_ H_ 0.813232 0.844335 0.325958 0.10932
H_ H_ 0.561778 0.845813 0.189448 0.10932
H_ H_ 0.819136 0.859003 0.19213 0.10932
H_ H_ 0.537455 0.91823 0.318638 0.10932
H_ H_ 0.778261 0.908022 0.327162 0.10932
H_ H_ 0.720364 0.914401 0.323223 0.10932
H_ H_ 0.965916 0.914979 0.321516 0.10932
H_ H_ 0.677976 0.865232 0.188657 0.10932
H_ H_ 0.938581 0.852384 0.182113 0.10932
H_ H_ 0.688744 0.852741 0.321142 0.10932
H_ H_ 0.938233 0.845509 0.315881 0.10932
H_ H_ 0.706967 0.929157 0.190723 0.10932
H_ H_ 0.958557 0.920948 0.186234 0.10932
H_ H_ 0.731535 0.597495 0.307445 0.10932
H_ H_ 0.949785 0.568473 0.308573 0.10932
H_ H_ 0.667251 0.626251 0.18492 0.10932
H_ H_ 0.947449 0.65607 0.182672 0.10932
H_ H_ 0.711715 0.666345 0.300468 0.10932
H_ H_ 0.925606 0.635727 0.313221 0.10932
H_ H_ 0.698622 0.562435 0.183494 0.10932
H_ H_ 0.983336 0.604801 0.188513 0.10932
H_ H_ 0.519607 0.605553 0.17852 0.10932
H_ H_ 0.768999 0.59785 0.186541 0.10932
H_ H_ 0.582963 0.629669 0.306034 0.10932
H_ H_ 0.833407 0.6209 0.317274 0.10932
H_ H_ 0.552347 0.663714 0.181132 0.10932
H_ H_ 0.800962 0.659446 0.193822 0.10932
H_ H_ 0.553506 0.565301 0.301562 0.10932
H_ H_ 0.800046 0.558845 0.311456 0.10932
H_ H_ 0.631711 0.681073 0.350197 0.10932
H_ H_ 0.830431 0.744279 0.366043 0.10932
H_ H_ 0.623091 0.810113 0.361009 0.10932
H_ H_ 0.924118 0.75812 0.356938 0.10932
H_ H_ 0.625178 0.808268 0.439113 0.10932
H_ H_ 0.929237 0.756012 0.437096 0.10932
H_ H_ 0.627137 0.675013 0.42755 0.10932
H_ H_ 0.83231 0.753544 0.443422 0.10932
H_ H_ 0.581335 0.763603 0.128834 0.10932
H_ H_ 0.878195 0.68413 0.136244 0.10932
H_ H_ 0.676309 0.758408 0.147871 0.10932
H_ H_ 0.866451 0.810692 0.146604 0.10932
H_ H_ 0.683769 0.754267 0.0705652 0.10932
H_ H_ 0.861072 0.81479 0.0700794 0.10932
H_ H_ 0.588034 0.759956 0.0539157 0.10932
H_ H_ 0.877171 0.684735 0.0614803 0.10932
C_ C_ 0.563975 0.844637 0.254305 -0.02249
C_ C_ 0.817376 0.847891 0.259334 -0.02249
C_ C_ 0.516469 0.960698 0.249349 -0.02249
C_ C_ 0.768996 0.962475 0.263943 -0.02249
C_ C_ 0.539697 0.899417 0.215197 -0.11473
C_ C_ 0.792613 0.905688 0.224934 -0.11473
C_ C_ 0.560029 0.866371 0.291929 -0.11473
C_ C_ 0.807339 0.862464 0.298563 -0.11473
C_ C_ 0.556673 0.863498 0.216161 -0.11473
C_ C_ 0.80887 0.869132 0.222884 -0.11473
C_ C_ 0.533491 0.921407 0.251692 -0.02249
C_ C_ 0.785986 0.922486 0.264397 -0.02249
C_ C_ 0.586379 0.808905 0.2522 0.6875
C_ C_ 0.835131 0.809205 0.257906 0.6875
C_ C_ 0.542996 0.904112 0.290818 -0.11473
C_ C_ 0.789217 0.898383 0.299704 -0.11473
C_ C_ 0.686149 0.849477 0.253357 -0.02249
C_ C_ 0.932644 0.847518 0.250033 -0.02249
C_ C_ 0.737202 0.963169 0.258146 -0.02249
C_ C_ 0.983067 0.961744 0.255001 -0.02249
C_ C_ 0.713874 0.901874 0.293068 -0.11473
C_ C_ 0.960353 0.899491 0.291902 -0.11473
C_ C_ 0.69062 0.872829 0.217619 -0.11473
C_ C_ 0.940931 0.867434 0.212539 -0.11473
C_ C_ 0.697736 0.86371 0.292458 -0.11473
C_ C_ 0.94365 0.862968 0.289861 -0.11473
C_ C_ 0.721 0.923092 0.255962 -0.02249
C_ C_ 0.965468 0.921537 0.254219 -0.02249
C_ C_ 0.663761 0.81535 0.251435 0.6875
C_ C_ 0.911281 0.80991 0.248413 0.6875
C_ C_ 0.708254 0.908329 0.217537 -0.11473
C_ C_ 0.95469 0.905737 0.215193 -0.11473
C_ C_ 0.68603 0.65168 0.241518 -0.02249
C_ C_ 0.933263 0.652142 0.248236 -0.02249
C_ C_ 0.734595 0.533728 0.249335 -0.02249
C_ C_ 0.986538 0.540333 0.246438 -0.02249
C_ C_ 0.720453 0.605086 0.276381 -0.11473
C_ C_ 0.950873 0.590721 0.282399 -0.11473
C_ C_ 0.682169 0.619436 0.210465 -0.11473
C_ C_ 0.947542 0.64006 0.211198 -0.11473
C_ C_ 0.707798 0.645361 0.273329 -0.11473
C_ C_ 0.936994 0.628808 0.284482 -0.11473
C_ C_ 0.716722 0.573038 0.247551 -0.02249
C_ C_ 0.969528 0.581 0.248781 -0.02249
C_ C_ 0.666632 0.690922 0.24327 0.6875
C_ C_ 0.91226 0.688015 0.250556 0.6875
C_ C_ 0.698497 0.58232 0.212355 -0.11473
C_ C_ 0.96721 0.606716 0.213773 -0.11473
C_ C_ 0.571853 0.650551 0.242784 -0.02249
C_ C_ 0.818664 0.646082 0.256395 -0.02249
C_ C_ 0.514945 0.540248 0.234926 -0.02249
C_ C_ 0.765178 0.53319 0.244394 -0.02249
C_ C_ 0.53329 0.608476 0.207299 -0.11473
C_ C_ 0.783773 0.602502 0.214895 -0.11473
C_ C_ 0.57201 0.622425 0.276367 -0.11473
C_ C_ 0.818082 0.616762 0.290243 -0.11473
C_ C_ 0.554064 0.641935 0.208434 -0.11473
C_ C_ 0.802459 0.636204 0.21835 -0.11473
C_ C_ 0.533165 0.579287 0.239157 -0.02249
C_ C_ 0.7833 0.572801 0.248553 -0.02249
C_ C_ 0.58837 0.690065 0.245088 0.6875
C_ C_ 0.833937 0.686984 0.257726 0.6875
C_ C_ 0.551674 0.586506 0.275263 -0.11473
C_ C_ 0.799042 0.581794 0.285251 -0.11473
C_ C_ 0.630951 0.708039 0.368927 0.17695
C_ C_ 0.851618 0.747953 0.3808 0.17695
C_ C_ 0.629738 0.782094 0.375403 0.17695
C_ C_ 0.904087 0.754196 0.37661 0.17695
C_ C_ 0.629916 0.778742 0.418959 -0.11473
C_ C_ 0.907602 0.756771 0.420753 -0.11473
C_ C_ 0.63112 0.73954 0.438238 0.23465
C_ C_ 0.881499 0.756867 0.444999 0.23465
C_ C_ 0.634258 0.70474 0.413428 -0.11473
C_ C_ 0.853591 0.752733 0.425735 -0.11473
C_ C_ 0.604169 0.757995 0.117671 0.17695
C_ C_ 0.878021 0.714188 0.124394 0.17695
C_ C_ 0.656328 0.756165 0.126569 0.17695
C_ C_ 0.867141 0.785213 0.127718 0.17695
C_ C_ 0.660218 0.755777 0.08319 -0.11473
C_ C_ 0.870268 0.788815 0.085166 -0.11473
C_ C_ 0.635367 0.748176 0.05639 0.23465
C_ C_ 0.876041 0.753994 0.0605369 0.23465
C_ C_ 0.607164 0.754257 0.073822 -0.11473
C_ C_ 0.878927 0.715159 0.0798835 -0.11473
C_ C_ 0.530538 0.999012 0.251791 0.05793
C_ C_ 0.784351 1.000519799 0.265248 0.05793
C_ C_ 0.718224 0.495826 0.257928 0.05793
C_ C_ 0.971204 0.502323 0.240579 0.05793
Br Br 0.573363 1.000446214 0.234562 -0.17191
Br Br 0.828602 1.0012684 0.261139 -0.17191
Br Br 0.679791 0.499807 0.282389 -0.17191
Br Br 0.931934 0.505935 0.21606 -0.17191
N_ N_ 0.631333 0.74704 0.351598 -0.272
N_ N_ 0.876973 0.749361 0.35685 -0.272
N_ N_ 0.628322 0.734995 0.483659 -0.12501
N_ N_ 0.88388 0.759408 0.490791 -0.12501
N_ N_ 0.628248 0.755219 0.143835 -0.272
N_ N_ 0.873145 0.749339 0.1487 -0.272
N_ N_ 0.640932 0.747962 0.0130034 -0.12501
N_ N_ 0.871437 0.757653 0.0146189 -0.12501
O_ O_ 0.595096 0.793327 0.217265 -0.60745
O_ O_ 0.843348 0.792728 0.222333 -0.60745
O_ O_ 0.594449 0.790731 0.285549 -0.60745
O_ O_ 0.842637 0.791992 0.292746 -0.60745
O_ O_ 0.656689 0.796406 0.285059 -0.60745
O_ O_ 0.908077 0.789175 0.282356 -0.60745
O_ O_ 0.657862 0.796338 0.21686 -0.60745
O_ O_ 0.899089 0.798211 0.213074 -0.60745
O_ O_ 0.66197 0.706739 0.276704 -0.60745
O_ O_ 0.902138 0.701121 0.28531 -0.60745
O_ O_ 0.659736 0.709932 0.209917 -0.60745
O_ O_ 0.904739 0.708861 0.217085 -0.60745
O_ O_ 0.596742 0.705978 0.211026 -0.60745
O_ O_ 0.840696 0.704354 0.222885 -0.60745
O_ O_ 0.600287 0.702417 0.278872 -0.60745
O_ O_ 0.841792 0.70265 0.290944 -0.60745
Zn Zn 0.623099 0.750349 0.780897 0.9476
Zn Zn 0.87322 0.749696 0.788671 0.9476
Zn Zn 0.624806 0.751537 0.711223 0.9476
Zn Zn 0.872549 0.746246 0.71755 0.9476
H_ H_ 0.535902 0.917636 0.679893 0.10932
H_ H_ 0.781887 0.917619 0.678249 0.10932
H_ H_ 0.568565 0.857063 0.817544 0.10932
H_ H_ 0.820787 0.861943 0.815691 0.10932
H_ H_ 0.569002 0.856484 0.68258 0.10932
H_ H_ 0.810269 0.850546 0.682055 0.10932
H_ H_ 0.539693 0.923322 0.819152 0.10932
H_ H_ 0.796598 0.929496 0.813219 0.10932
H_ H_ 0.727198 0.901294 0.811874 0.10932
H_ H_ 0.962817 0.917072 0.818224 0.10932
H_ H_ 0.677344 0.863578 0.67791 0.10932
H_ H_ 0.941244 0.842005 0.686278 0.10932
H_ H_ 0.700391 0.836065 0.804402 0.10932
H_ H_ 0.935414 0.850073 0.817658 0.10932
H_ H_ 0.710113 0.924063 0.682237 0.10932
H_ H_ 0.970678 0.912735 0.685521 0.10932
H_ H_ 0.708968 0.575048 0.815719 0.10932
H_ H_ 0.961724 0.581815 0.824559 0.10932
H_ H_ 0.695967 0.648954 0.685548 0.10932
H_ H_ 0.931317 0.644627 0.68726 0.10932
H_ H_ 0.67343 0.633451 0.8155 0.10932
H_ H_ 0.941722 0.652544 0.822018 0.10932
H_ H_ 0.715349 0.5807 0.684727 0.10932
H_ H_ 0.961009 0.578249 0.687263 0.10932
H_ H_ 0.533943 0.58327 0.67758 0.10932
H_ H_ 0.792323 0.573307 0.683322 0.10932
H_ H_ 0.541891 0.665218 0.805835 0.10932
H_ H_ 0.806908 0.65494 0.814194 0.10932
H_ H_ 0.563881 0.648502 0.678114 0.10932
H_ H_ 0.814524 0.640436 0.680008 0.10932
H_ H_ 0.520718 0.591599 0.806098 0.10932
H_ H_ 0.781426 0.58599 0.816766 0.10932
H_ H_ 0.620958 0.686238 0.851032 0.10932
H_ H_ 0.875539 0.683896 0.858006 0.10932
H_ H_ 0.6238 0.813791 0.859885 0.10932
H_ H_ 0.881882 0.81403 0.86239 0.10932
H_ H_ 0.624255 0.810825 0.938396 0.10932
H_ H_ 0.895476 0.809471 0.939661 0.10932
H_ H_ 0.628231 0.678691 0.929624 0.10932
H_ H_ 0.881319 0.678942 0.937935 0.10932
H_ H_ 0.630837 0.691241 0.633475 0.10932
H_ H_ 0.886319 0.810674 0.639145 0.10932
H_ H_ 0.625888 0.816631 0.643776 0.10932
H_ H_ 0.873221 0.680204 0.648244 0.10932
H_ H_ 0.627037 0.825739 0.566365 0.10932
H_ H_ 0.863605 0.676367 0.568673 0.10932
H_ H_ 0.629911 0.693267 0.555824 0.10932
H_ H_ 0.887239 0.805113 0.558829 0.10932
C_ C_ 0.568432 0.851357 0.748728 -0.02249
C_ C_ 0.816724 0.851635 0.748578 -0.02249
C_ C_ 0.51675 0.965479 0.750225 -0.02249
C_ C_ 0.767602 0.964587 0.746537 -0.02249
C_ C_ 0.542086 0.907077 0.709699 -0.11473
C_ C_ 0.789142 0.905129 0.707086 -0.11473
C_ C_ 0.56189 0.871531 0.787261 -0.11473
C_ C_ 0.813866 0.874277 0.785221 -0.11473
C_ C_ 0.562022 0.872689 0.710123 -0.11473
C_ C_ 0.805813 0.868303 0.709958 -0.11473
C_ C_ 0.535103 0.926101 0.750245 -0.02249
C_ C_ 0.784907 0.92586 0.746937 -0.02249
C_ C_ 0.589276 0.813902 0.749264 0.6875
C_ C_ 0.834377 0.812314 0.748582 0.6875
C_ C_ 0.544394 0.907699 0.78902 -0.11473
C_ C_ 0.800009 0.912374 0.784176 -0.11473
C_ C_ 0.68558 0.843964 0.740944 -0.02249
C_ C_ 0.934148 0.844601 0.750495 -0.02249
C_ C_ 0.73556 0.959131 0.751033 -0.02249
C_ C_ 0.987458 0.958281 0.752134 -0.02249
C_ C_ 0.718202 0.891768 0.782083 -0.11473
C_ C_ 0.958678 0.900021 0.789163 -0.11473
C_ C_ 0.689949 0.868571 0.705865 -0.11473
C_ C_ 0.947699 0.859328 0.713921 -0.11473
C_ C_ 0.70134 0.854934 0.778215 -0.11473
C_ C_ 0.942776 0.862806 0.788302 -0.11473
C_ C_ 0.720915 0.918283 0.747225 -0.02249
C_ C_ 0.970018 0.91804 0.751419 -0.02249
C_ C_ 0.664041 0.808206 0.742277 0.6875
C_ C_ 0.914724 0.807849 0.749954 0.6875
C_ C_ 0.708522 0.904078 0.707915 -0.11473
C_ C_ 0.96476 0.896235 0.713021 -0.11473
C_ C_ 0.684773 0.651505 0.750666 -0.02249
C_ C_ 0.93065 0.650745 0.753879 -0.02249
C_ C_ 0.736118 0.534119 0.750334 -0.02249
C_ C_ 0.980822 0.5393 0.7565 -0.02249
C_ C_ 0.705622 0.591654 0.788409 -0.11473
C_ C_ 0.956632 0.596114 0.793347 -0.11473
C_ C_ 0.696572 0.632993 0.713668 -0.11473
C_ C_ 0.938823 0.631198 0.716745 -0.11473
C_ C_ 0.687242 0.625645 0.788334 -0.11473
C_ C_ 0.941449 0.634033 0.792876 -0.11473
C_ C_ 0.718201 0.574744 0.751539 -0.02249
C_ C_ 0.962945 0.576232 0.757289 -0.02249
C_ C_ 0.662597 0.687283 0.746286 0.6875
C_ C_ 0.913352 0.690495 0.753459 0.6875
C_ C_ 0.711758 0.59644 0.714316 -0.11473
C_ C_ 0.955788 0.594056 0.718381 -0.11473
C_ C_ 0.560962 0.656838 0.744851 -0.02249
C_ C_ 0.814651 0.652909 0.747083 -0.02249
C_ C_ 0.516088 0.538659 0.740387 -0.02249
C_ C_ 0.768215 0.535055 0.749299 -0.02249
C_ C_ 0.540478 0.596517 0.706965 -0.11473
C_ C_ 0.792374 0.592101 0.711764 -0.11473
C_ C_ 0.546401 0.642362 0.780779 -0.11473
C_ C_ 0.803714 0.636677 0.785636 -0.11473
C_ C_ 0.554557 0.635957 0.707616 -0.11473
C_ C_ 0.808188 0.629362 0.709753 -0.11473
C_ C_ 0.531963 0.5791 0.743279 -0.02249
C_ C_ 0.783711 0.575035 0.750607 -0.02249
C_ C_ 0.580354 0.695293 0.746527 0.6875
C_ C_ 0.832603 0.691411 0.746776 0.6875
C_ C_ 0.531621 0.60428 0.77915 -0.11473
C_ C_ 0.789589 0.59879 0.787067 -0.11473
C_ C_ 0.626439 0.713594 0.869999 0.17695
C_ C_ 0.876812 0.711012 0.878619 0.17695
C_ C_ 0.625245 0.784957 0.874752 0.17695
C_ C_ 0.881679 0.783574 0.878883 0.17695
C_ C_ 0.623435 0.78348 0.919777 -0.11473
C_ C_ 0.887087 0.782226 0.922978 -0.11473
C_ C_ 0.626096 0.744359 0.941326 0.23465
C_ C_ 0.885787 0.745024 0.945948 0.23465
C_ C_ 0.625232 0.709383 0.914675 -0.11473
C_ C_ 0.882641 0.708604 0.922914 -0.11473
C_ C_ 0.622771 0.71855 0.617199 0.17695
C_ C_ 0.880286 0.781276 0.623027 0.17695
C_ C_ 0.622563 0.791929 0.623499 0.17695
C_ C_ 0.870655 0.708086 0.627831 0.17695
C_ C_ 0.623234 0.795486 0.579222 -0.11473
C_ C_ 0.866898 0.706195 0.58503 -0.11473
C_ C_ 0.624053 0.759891 0.553312 0.23465
C_ C_ 0.874675 0.74113 0.559489 0.23465
C_ C_ 0.626519 0.721762 0.572373 -0.11473
C_ C_ 0.881692 0.778433 0.578649 -0.11473
C_ C_ 0.530752 0.00356961 0.748317 0.05793
C_ C_ 0.780763 0.0044284 0.746312 0.05793
C_ C_ 0.720742 0.495087 0.747862 0.05793
C_ C_ 0.966343 0.500417 0.763984 0.05793
Br Br 0.574192 0.00936638 0.742429 -0.17191
Br Br 0.82184 1.00964357 0.727544 -0.17191
Br Br 0.678721 0.492904 0.756926 -0.17191
Br Br 0.928762 0.499134 0.79213 -0.17191
N_ N_ 0.627034 0.751639 0.851236 -0.272
N_ N_ 0.874919 0.747369 0.857768 -0.272
N_ N_ 0.620238 0.742048 0.986523 -0.12501
N_ N_ 0.889552 0.742639 0.990249 -0.12501
N_ N_ 0.620531 0.753246 0.640239 -0.272
N_ N_ 0.873326 0.746854 0.645677 -0.272
N_ N_ 0.629234 0.764751 0.508573 -0.12501
N_ N_ 0.86882 0.739304 0.515611 -0.12501
O_ O_ 0.595133 0.796305 0.715164 -0.60745
O_ O_ 0.842639 0.794823 0.715086 -0.60745
O_ O_ 0.60194 0.801784 0.783565 -0.60745
O_ O_ 0.840211 0.79451 0.782711 -0.60745
O_ O_ 0.659807 0.787421 0.774694 -0.60745
O_ O_ 0.904885 0.793783 0.783686 -0.60745
O_ O_ 0.655884 0.795554 0.707008 -0.60745
O_ O_ 0.907435 0.789756 0.716632 -0.60745
O_ O_ 0.647295 0.698139 0.777382 -0.60745
O_ O_ 0.904573 0.704391 0.787916 -0.60745
O_ O_ 0.659215 0.705731 0.71193 -0.60745
O_ O_ 0.900316 0.701883 0.719544 -0.60745
O_ O_ 0.595212 0.705541 0.713378 -0.60745
O_ O_ 0.837796 0.708118 0.713849 -0.60745
O_ O_ 0.583983 0.715625 0.780002 -0.60745
O_ O_ 0.842418 0.706695 0.782274 -0.60745
