_cell_length_a 44.444
_cell_length_b 32.3360000049186
_cell_length_c 31.843999878906452
_cell_angle_alpha 89.99799923859553
_cell_angle_beta 91.13600050494348
_cell_angle_gamma 89.9990006550086
_symmetry_space_group_name_H-M         'P 1'
_symmetry_Int_Tables_number            1
loop_
_symmetry_equiv_pos_as_xyz
   'x, y, z'
                         
loop_
_atom_site_label
_atom_site_type_symbol
_atom_site_fract_x 
_atom_site_fract_y
_atom_site_fract_z
_atom_site_charge
Zn Zn 0.129743 0.251715 0.283378 0.9476
Zn Zn 0.374864 0.252081 0.289412 0.9476
Zn Zn 0.127485 0.253266 0.213786 0.9476
Zn Zn 0.376445 0.24839 0.220229 0.9476
H_ H_ 0.0205843 0.408222 0.184316 0.10932
H_ H_ 0.278901 0.40981 0.191461 0.10932
H_ H_ 0.0787625 0.363955 0.310956 0.10932
H_ H_ 0.320206 0.356859 0.32515 0.10932
H_ H_ 0.0505124 0.344215 0.182528 0.10932
H_ H_ 0.30748 0.351074 0.191938 0.10932
H_ H_ 0.0383571 0.420124 0.311932 0.10932
H_ H_ 0.291794 0.424088 0.32393 0.10932
H_ H_ 0.231189 0.401929 0.316271 0.10932
H_ H_ 0.46416 0.424782 0.31124 0.10932
H_ H_ 0.170481 0.368622 0.191417 0.10932
H_ H_ 0.44483 0.342872 0.183298 0.10932
H_ H_ 0.208907 0.33454 0.311646 0.10932
H_ H_ 0.422401 0.367807 0.312569 0.10932
H_ H_ 0.196695 0.436456 0.195001 0.10932
H_ H_ 0.464165 0.413057 0.179194 0.10932
H_ H_ 0.22466 0.0909171 0.319943 0.10932
H_ H_ 0.464535 0.0813365 0.319159 0.10932
H_ H_ 0.175187 0.135798 0.185884 0.10932
H_ H_ 0.449395 0.161989 0.18917 0.10932
H_ H_ 0.192356 0.151964 0.320138 0.10932
H_ H_ 0.436823 0.143337 0.322095 0.10932
H_ H_ 0.204312 0.073258 0.188916 0.10932
H_ H_ 0.470046 0.088701 0.184441 0.10932
H_ H_ 0.0430019 0.0811013 0.181426 0.10932
H_ H_ 0.265555 0.0987049 0.18946 0.10932
H_ H_ 0.0700053 0.143843 0.317834 0.10932
H_ H_ 0.329574 0.127777 0.31451 0.10932
H_ H_ 0.0677511 0.145729 0.181186 0.10932
H_ H_ 0.299458 0.157683 0.191455 0.10932
H_ H_ 0.0385828 0.0802985 0.316493 0.10932
H_ H_ 0.299776 0.0650105 0.312838 0.10932
H_ H_ 0.134807 0.317836 0.349463 0.10932
H_ H_ 0.37115 0.317804 0.372135 0.10932
H_ H_ 0.126721 0.189208 0.362108 0.10932
H_ H_ 0.376833 0.186646 0.354791 0.10932
H_ H_ 0.130911 0.192106 0.439565 0.10932
H_ H_ 0.377705 0.176431 0.432747 0.10932
H_ H_ 0.129625 0.325645 0.426473 0.10932
H_ H_ 0.371257 0.311342 0.448527 0.10932
H_ H_ 0.138868 0.315495 0.14025 0.10932
H_ H_ 0.357408 0.302823 0.143823 0.10932
H_ H_ 0.120726 0.188008 0.139039 0.10932
H_ H_ 0.394496 0.182122 0.147774 0.10932
H_ H_ 0.118689 0.187851 0.0609491 0.10932
H_ H_ 0.38846 0.173116 0.0725351 0.10932
H_ H_ 0.132501 0.318949 0.0631594 0.10932
H_ H_ 0.362274 0.301145 0.062029 0.10932
C_ C_ 0.0640448 0.344369 0.248563 -0.02249
C_ C_ 0.317944 0.348619 0.257871 -0.02249
C_ C_ 0.0154275 0.45912 0.24732 -0.02249
C_ C_ 0.267861 0.462015 0.255188 -0.02249
C_ C_ 0.0292333 0.392936 0.213029 -0.11473
C_ C_ 0.291027 0.401747 0.219209 -0.11473
C_ C_ 0.0627423 0.367487 0.28496 -0.11473
C_ C_ 0.313402 0.371419 0.296453 -0.11473
C_ C_ 0.047792 0.358841 0.210444 -0.11473
C_ C_ 0.307415 0.366524 0.221107 -0.11473
C_ C_ 0.0273452 0.41555 0.248638 -0.02249
C_ C_ 0.285604 0.423166 0.257454 -0.02249
C_ C_ 0.0873252 0.310112 0.247383 0.6875
C_ C_ 0.335552 0.30778 0.258902 0.6875
C_ C_ 0.0448616 0.404419 0.284576 -0.11473
C_ C_ 0.29672 0.408474 0.295626 -0.11473
C_ C_ 0.187895 0.347472 0.249466 -0.02249
C_ C_ 0.434393 0.346121 0.250526 -0.02249
C_ C_ 0.236339 0.462056 0.255949 -0.02249
C_ C_ 0.485031 0.45902 0.244361 -0.02249
C_ C_ 0.220896 0.39452 0.287569 -0.11473
C_ C_ 0.457097 0.407583 0.284542 -0.11473
C_ C_ 0.183496 0.37715 0.218411 -0.11473
C_ C_ 0.445068 0.361912 0.212039 -0.11473
C_ C_ 0.206988 0.356364 0.283602 -0.11473
C_ C_ 0.437354 0.373636 0.285149 -0.11473
C_ C_ 0.218563 0.423093 0.253976 -0.02249
C_ C_ 0.467252 0.421567 0.245788 -0.02249
C_ C_ 0.169336 0.310035 0.250614 0.6875
C_ C_ 0.415053 0.308522 0.25347 0.6875
C_ C_ 0.199772 0.413108 0.219217 -0.11473
C_ C_ 0.459978 0.400124 0.208797 -0.11473
C_ C_ 0.180727 0.149471 0.252808 -0.02249
C_ C_ 0.434668 0.154738 0.253537 -0.02249
C_ C_ 0.233112 0.0350552 0.254048 -0.02249
C_ C_ 0.487722 0.0403032 0.252815 -0.02249
C_ C_ 0.211695 0.0982398 0.291475 -0.11473
C_ C_ 0.461991 0.0991398 0.288693 -0.11473
C_ C_ 0.185245 0.125462 0.215613 -0.11473
C_ C_ 0.44951 0.142173 0.215297 -0.11473
C_ C_ 0.194636 0.135053 0.290566 -0.11473
C_ C_ 0.443341 0.133861 0.290469 -0.11473
C_ C_ 0.214332 0.0737914 0.254695 -0.02249
C_ C_ 0.47147 0.08145 0.251186 -0.02249
C_ C_ 0.167655 0.192121 0.250245 0.6875
C_ C_ 0.416181 0.193094 0.255111 0.6875
C_ C_ 0.204409 0.0906883 0.216579 -0.11473
C_ C_ 0.465305 0.104036 0.214055 -0.11473
C_ C_ 0.0711445 0.151151 0.250636 -0.02249
C_ C_ 0.314725 0.15138 0.254351 -0.02249
C_ C_ 0.0187078 0.0385424 0.247805 -0.02249
C_ C_ 0.263874 0.0376002 0.249168 -0.02249
C_ C_ 0.0471807 0.0942153 0.212288 -0.11473
C_ C_ 0.278907 0.105392 0.218648 -0.11473
C_ C_ 0.0620078 0.132187 0.288854 -0.11473
C_ C_ 0.314439 0.124063 0.289007 -0.11473
C_ C_ 0.0603768 0.133121 0.211475 -0.11473
C_ C_ 0.296976 0.141289 0.219707 -0.11473
C_ C_ 0.0352998 0.0773431 0.248353 -0.02249
C_ C_ 0.279231 0.0772821 0.252524 -0.02249
C_ C_ 0.0888339 0.190318 0.24919 0.6875
C_ C_ 0.336496 0.187969 0.255153 0.6875
C_ C_ 0.0445618 0.095985 0.286917 -0.11473
C_ C_ 0.29732 0.0872984 0.28694 -0.11473
C_ C_ 0.133415 0.29128 0.369697 0.17695
C_ C_ 0.372192 0.286526 0.387096 0.17695
C_ C_ 0.131499 0.216987 0.376685 0.17695
C_ C_ 0.375843 0.212757 0.375758 0.17695
C_ C_ 0.130251 0.221149 0.420259 -0.11473
C_ C_ 0.373224 0.206456 0.419348 -0.11473
C_ C_ 0.13061 0.260431 0.439851 0.23465
C_ C_ 0.372221 0.241451 0.447715 0.23465
C_ C_ 0.132523 0.294595 0.412725 -0.11473
C_ C_ 0.371911 0.281806 0.429949 -0.11473
C_ C_ 0.131623 0.290074 0.12206 0.17695
C_ C_ 0.367116 0.275935 0.126408 0.17695
C_ C_ 0.122149 0.217478 0.12199 0.17695
C_ C_ 0.38532 0.206406 0.12954 0.17695
C_ C_ 0.119687 0.217775 0.0765862 -0.11473
C_ C_ 0.386467 0.203618 0.0865007 -0.11473
C_ C_ 0.120791 0.256526 0.0555273 0.23465
C_ C_ 0.377032 0.237699 0.0620156 0.23465
C_ C_ 0.12924 0.291435 0.0786016 -0.11473
C_ C_ 0.36886 0.274605 0.0818421 -0.11473
C_ C_ 0.03366 0.494903 0.248069 0.05793
C_ C_ 0.282563 0.502028 0.255205 0.05793
C_ C_ 0.219344 -0.003955000000000042 0.249764 0.05793
C_ C_ 0.47095 1.00316627 0.250053 0.05793
Br Br 0.0774784 0.49182 0.239348 -0.17191
Br Br 0.326706 0.501468 0.251282 -0.17191
Br Br 0.176822 -0.008974999999999955 0.2542 -0.17191
Br Br 0.429989 1.00991829 0.231438 -0.17191
N_ N_ 0.134266 0.252414 0.352891 -0.272
N_ N_ 0.376017 0.252448 0.360109 -0.272
N_ N_ 0.123787 0.266438 0.483538 -0.12501
N_ N_ 0.375895 0.233802 0.491525 -0.12501
N_ N_ 0.125887 0.254572 0.143304 -0.272
N_ N_ 0.378065 0.243348 0.148597 -0.272
N_ N_ 0.115025 0.261761 0.0116566 -0.12501
N_ N_ 0.373797 0.231183 0.01726 -0.12501
O_ O_ 0.0960718 0.298448 0.212074 -0.60745
O_ O_ 0.34341 0.289575 0.224095 -0.60745
O_ O_ 0.101119 0.297394 0.280067 -0.60745
O_ O_ 0.342438 0.290806 0.292876 -0.60745
O_ O_ 0.163925 0.291428 0.284582 -0.60745
O_ O_ 0.403793 0.297486 0.288735 -0.60745
O_ O_ 0.158607 0.295275 0.21598 -0.60745
O_ O_ 0.404163 0.293505 0.219328 -0.60745
O_ O_ 0.159447 0.207262 0.28502 -0.60745
O_ O_ 0.408918 0.209317 0.289992 -0.60745
O_ O_ 0.155661 0.206015 0.215878 -0.60745
O_ O_ 0.408062 0.209281 0.219458 -0.60745
O_ O_ 0.0942969 0.207416 0.213818 -0.60745
O_ O_ 0.346041 0.201394 0.220343 -0.60745
O_ O_ 0.097775 0.207135 0.283063 -0.60745
O_ O_ 0.344634 0.205716 0.289283 -0.60745
Zn Zn 0.124244 0.247601 0.783376 0.9476
Zn Zn 0.372308 0.250735 0.787102 0.9476
Zn Zn 0.118542 0.249086 0.714329 0.9476
Zn Zn 0.371959 0.253954 0.718582 0.9476
H_ H_ 0.0238041 0.413122 0.685199 0.10932
H_ H_ 0.280874 0.415329 0.677861 0.10932
H_ H_ 0.0644683 0.351282 0.815364 0.10932
H_ H_ 0.307676 0.352212 0.816955 0.10932
H_ H_ 0.0505086 0.345381 0.681935 0.10932
H_ H_ 0.30141 0.344102 0.678788 0.10932
H_ H_ 0.04028 0.422143 0.816539 0.10932
H_ H_ 0.280713 0.414161 0.815627 0.10932
H_ H_ 0.212301 0.422094 0.816437 0.10932
H_ H_ 0.46906 0.415666 0.820675 0.10932
H_ H_ 0.17777 0.352865 0.682143 0.10932
H_ H_ 0.437825 0.355917 0.682183 0.10932
H_ H_ 0.182062 0.358376 0.816803 0.10932
H_ H_ 0.437211 0.352923 0.817147 0.10932
H_ H_ 0.206642 0.418265 0.68203 0.10932
H_ H_ 0.467589 0.416237 0.686072 0.10932
H_ H_ 0.222473 0.0828406 0.811697 0.10932
H_ H_ 0.465946 0.0857738 0.818582 0.10932
H_ H_ 0.172461 0.145161 0.686108 0.10932
H_ H_ 0.431465 0.154229 0.690586 0.10932
H_ H_ 0.192407 0.149792 0.816985 0.10932
H_ H_ 0.441717 0.152331 0.822264 0.10932
H_ H_ 0.197114 0.0759312 0.684324 0.10932
H_ H_ 0.465348 0.0952223 0.686157 0.10932
H_ H_ 0.0113601 0.101946 0.682382 0.10932
H_ H_ 0.283265 0.0824293 0.683011 0.10932
H_ H_ 0.0816153 0.123426 0.802112 0.10932
H_ H_ 0.322506 0.14298 0.816678 0.10932
H_ H_ 0.035702 0.170013 0.691049 0.10932
H_ H_ 0.310616 0.149723 0.685076 0.10932
H_ H_ 0.0488117 0.0604568 0.799838 0.10932
H_ H_ 0.28956 0.0796073 0.81924 0.10932
H_ H_ 0.138019 0.308261 0.864603 0.10932
H_ H_ 0.374743 0.317886 0.855848 0.10932
H_ H_ 0.118398 0.18258 0.850987 0.10932
H_ H_ 0.377546 0.186618 0.866272 0.10932
H_ H_ 0.108884 0.173059 0.927607 0.10932
H_ H_ 0.389079 0.191244 0.940307 0.10932
H_ H_ 0.129636 0.305563 0.942018 0.10932
H_ H_ 0.375735 0.322103 0.937207 0.10932
H_ H_ 0.11293 0.182052 0.638902 0.10932
H_ H_ 0.373571 0.18376 0.644677 0.10932
H_ H_ 0.131429 0.310557 0.638007 0.10932
H_ H_ 0.367508 0.313383 0.648127 0.10932
H_ H_ 0.138103 0.308236 0.560054 0.10932
H_ H_ 0.361744 0.318965 0.570958 0.10932
H_ H_ 0.108324 0.180235 0.560381 0.10932
H_ H_ 0.369273 0.187914 0.564959 0.10932
C_ C_ 0.062498 0.345191 0.749527 -0.02249
C_ C_ 0.309595 0.344268 0.747162 -0.02249
C_ C_ 0.0130615 0.463352 0.750021 -0.02249
C_ C_ 0.262178 0.462429 0.748317 -0.02249
C_ C_ 0.0329424 0.399328 0.71409 -0.11473
C_ C_ 0.285317 0.401429 0.709596 -0.11473
C_ C_ 0.0575118 0.365737 0.786589 -0.11473
C_ C_ 0.301034 0.363586 0.785233 -0.11473
C_ C_ 0.0476957 0.361586 0.71267 -0.11473
C_ C_ 0.299102 0.362451 0.708398 -0.11473
C_ C_ 0.0316812 0.424648 0.749685 -0.02249
C_ C_ 0.277413 0.420453 0.747649 -0.02249
C_ C_ 0.0820916 0.307669 0.746413 0.6875
C_ C_ 0.33013 0.30761 0.748444 0.6875
C_ C_ 0.0439649 0.405946 0.787542 -0.11473
C_ C_ 0.28507 0.400014 0.784491 -0.11473
C_ C_ 0.180735 0.346735 0.750376 -0.02249
C_ C_ 0.433381 0.347024 0.750709 -0.02249
C_ C_ 0.230526 0.462566 0.744266 -0.02249
C_ C_ 0.483101 0.461767 0.752988 -0.02249
C_ C_ 0.208091 0.403551 0.786644 -0.11473
C_ C_ 0.463456 0.399974 0.790297 -0.11473
C_ C_ 0.185796 0.366914 0.71193 -0.11473
C_ C_ 0.444188 0.365746 0.713603 -0.11473
C_ C_ 0.191347 0.36782 0.786764 -0.11473
C_ C_ 0.443453 0.365908 0.788449 -0.11473
C_ C_ 0.213112 0.423483 0.749507 -0.02249
C_ C_ 0.467814 0.421701 0.753188 -0.02249
C_ C_ 0.163084 0.307452 0.751324 0.6875
C_ C_ 0.411032 0.312658 0.751356 0.6875
C_ C_ 0.201997 0.404424 0.711485 -0.11473
C_ C_ 0.458344 0.403954 0.714163 -0.11473
C_ C_ 0.180012 0.15043 0.751987 -0.02249
C_ C_ 0.429912 0.15401 0.754874 -0.02249
C_ C_ 0.231885 0.0343384 0.750019 -0.02249
C_ C_ 0.481407 0.0424042 0.75143 -0.02249
C_ C_ 0.208039 0.0937226 0.786326 -0.11473
C_ C_ 0.460928 0.101341 0.789998 -0.11473
C_ C_ 0.181144 0.130001 0.714546 -0.11473
C_ C_ 0.435102 0.133918 0.717878 -0.11473
C_ C_ 0.191136 0.130888 0.787746 -0.11473
C_ C_ 0.444223 0.138602 0.792604 -0.11473
C_ C_ 0.211437 0.0727041 0.748657 -0.02249
C_ C_ 0.46627 0.0819358 0.752595 -0.02249
C_ C_ 0.162706 0.190006 0.753735 0.6875
C_ C_ 0.410449 0.191728 0.756642 0.6875
C_ C_ 0.19465 0.0894032 0.71344 -0.11473
C_ C_ 0.455007 0.100134 0.715572 -0.11473
C_ C_ 0.0614258 0.151832 0.746071 -0.02249
C_ C_ 0.316021 0.151432 0.751742 -0.02249
C_ C_ 0.0105676 0.0392781 0.741429 -0.02249
C_ C_ 0.264703 0.0358856 0.754843 -0.02249
C_ C_ 0.0247456 0.10753 0.710945 -0.11473
C_ C_ 0.289218 0.0959889 0.712799 -0.11473
C_ C_ 0.0654578 0.119805 0.776344 -0.11473
C_ C_ 0.311523 0.129501 0.789002 -0.11473
C_ C_ 0.0410918 0.145479 0.711963 -0.11473
C_ C_ 0.303323 0.135819 0.714149 -0.11473
C_ C_ 0.0270103 0.078806 0.742907 -0.02249
C_ C_ 0.280498 0.0779532 0.752902 -0.02249
C_ C_ 0.0810663 0.188801 0.74739 0.6875
C_ C_ 0.335536 0.189469 0.75377 0.6875
C_ C_ 0.0479372 0.083888 0.775127 -0.11473
C_ C_ 0.290729 0.0973669 0.790449 -0.11473
C_ C_ 0.128411 0.280995 0.878488 0.17695
C_ C_ 0.373059 0.289829 0.876739 0.17695
C_ C_ 0.119266 0.208754 0.872123 0.17695
C_ C_ 0.377857 0.2165 0.881927 0.17695
C_ C_ 0.115831 0.204324 0.914802 -0.11473
C_ C_ 0.37985 0.219102 0.925178 -0.11473
C_ C_ 0.117949 0.239795 0.940884 0.23465
C_ C_ 0.376237 0.256339 0.945067 0.23465
C_ C_ 0.126982 0.277571 0.922637 -0.11473
C_ C_ 0.374895 0.292366 0.920361 -0.11473
C_ C_ 0.118124 0.21121 0.621888 0.17695
C_ C_ 0.369572 0.213372 0.627064 0.17695
C_ C_ 0.12892 0.282652 0.619383 0.17695
C_ C_ 0.369089 0.286995 0.629088 0.17695
C_ C_ 0.131491 0.281395 0.575307 -0.11473
C_ C_ 0.366522 0.290487 0.585869 -0.11473
C_ C_ 0.123927 0.243717 0.554246 0.23465
C_ C_ 0.369034 0.254926 0.561292 0.23465
C_ C_ 0.115147 0.209175 0.577242 -0.11473
C_ C_ 0.367231 0.215665 0.582393 -0.11473
C_ C_ 0.0264803 0.502579 0.750478 0.05793
C_ C_ 0.279447 0.498732 0.747029 0.05793
C_ C_ 0.217848 -0.004206999999999961 0.758002 0.05793
C_ C_ 0.465708 1.0055518 0.755715 0.05793
Br Br 0.0698688 0.506853 0.762476 -0.17191
Br Br 0.321847 0.496616 0.743057 -0.17191
Br Br 0.176265 -0.0030160000000000187 0.773193 -0.17191
Br Br 0.423607 1.0104562 0.766994 -0.17191
N_ N_ 0.122651 0.246988 0.855105 -0.272
N_ N_ 0.373639 0.252382 0.858379 -0.272
N_ N_ 0.118892 0.232808 0.985329 -0.12501
N_ N_ 0.378015 0.260258 0.991424 -0.12501
N_ N_ 0.123383 0.247866 0.642176 -0.272
N_ N_ 0.36719 0.249664 0.649213 -0.272
N_ N_ 0.130595 0.239836 0.510132 -0.12501
N_ N_ 0.36275 0.257694 0.517043 -0.12501
O_ O_ 0.0883438 0.291803 0.71091 -0.60745
O_ O_ 0.342094 0.295882 0.716029 -0.60745
O_ O_ 0.0935994 0.291639 0.779855 -0.60745
O_ O_ 0.341591 0.295439 0.78395 -0.60745
O_ O_ 0.156845 0.290037 0.786226 -0.60745
O_ O_ 0.402522 0.296521 0.784898 -0.60745
O_ O_ 0.150549 0.293538 0.718096 -0.60745
O_ O_ 0.402369 0.299598 0.717588 -0.60745
O_ O_ 0.157125 0.205056 0.788288 -0.60745
O_ O_ 0.403678 0.204005 0.791416 -0.60745
O_ O_ 0.149295 0.204082 0.720697 -0.60745
O_ O_ 0.402128 0.210149 0.722024 -0.60745
O_ O_ 0.0880641 0.205197 0.712758 -0.60745
O_ O_ 0.340496 0.208967 0.719751 -0.60745
O_ O_ 0.0907076 0.204891 0.781595 -0.60745
O_ O_ 0.34015 0.20564 0.788505 -0.60745
Zn Zn 0.121738 0.750437 0.283647 0.9476
Zn Zn 0.37985 0.748774 0.285114 0.9476
Zn Zn 0.126325 0.751261 0.215433 0.9476
Zn Zn 0.37996 0.750122 0.214005 0.9476
H_ H_ 0.0376354 0.922855 0.186684 0.10932
H_ H_ 0.285098 0.916522 0.176813 0.10932
H_ H_ 0.0533418 0.840416 0.318296 0.10932
H_ H_ 0.328267 0.865919 0.310801 0.10932
H_ H_ 0.0732375 0.864047 0.186314 0.10932
H_ H_ 0.310079 0.846343 0.180365 0.10932
H_ H_ 0.0280762 0.907606 0.319062 0.10932
H_ H_ 0.293766 0.926237 0.311682 0.10932
H_ H_ 0.218911 0.914262 0.315822 0.10932
H_ H_ 0.462783 0.923084 0.322853 0.10932
H_ H_ 0.197891 0.840699 0.183898 0.10932
H_ H_ 0.446688 0.850266 0.187927 0.10932
H_ H_ 0.190435 0.848317 0.316442 0.10932
H_ H_ 0.440269 0.85065 0.322325 0.10932
H_ H_ 0.219426 0.913641 0.178325 0.10932
H_ H_ 0.464777 0.923709 0.188885 0.10932
H_ H_ 0.196875 0.575274 0.320575 0.10932
H_ H_ 0.461984 0.569778 0.314437 0.10932
H_ H_ 0.204429 0.663737 0.192361 0.10932
H_ H_ 0.447495 0.658318 0.187216 0.10932
H_ H_ 0.171375 0.640697 0.3165 0.10932
H_ H_ 0.437549 0.639363 0.319761 0.10932
H_ H_ 0.232096 0.596891 0.19416 0.10932
H_ H_ 0.479095 0.592588 0.182936 0.10932
H_ H_ 0.0424315 0.576554 0.178033 0.10932
H_ H_ 0.284254 0.582958 0.190488 0.10932
H_ H_ 0.0709912 0.640389 0.316044 0.10932
H_ H_ 0.320126 0.646331 0.322447 0.10932
H_ H_ 0.0662249 0.642284 0.180566 0.10932
H_ H_ 0.31124 0.645789 0.188529 0.10932
H_ H_ 0.0383925 0.580089 0.314203 0.10932
H_ H_ 0.288736 0.584947 0.323316 0.10932
H_ H_ 0.131642 0.814123 0.350168 0.10932
H_ H_ 0.386638 0.816723 0.351846 0.10932
H_ H_ 0.122034 0.687092 0.361888 0.10932
H_ H_ 0.377116 0.691451 0.361346 0.10932
H_ H_ 0.130015 0.694663 0.439379 0.10932
H_ H_ 0.378503 0.696839 0.440416 0.10932
H_ H_ 0.126006 0.827097 0.422588 0.10932
H_ H_ 0.385637 0.825496 0.42959 0.10932
H_ H_ 0.121345 0.687498 0.147976 0.10932
H_ H_ 0.371533 0.680804 0.147494 0.10932
H_ H_ 0.130831 0.816337 0.140434 0.10932
H_ H_ 0.380967 0.810732 0.140864 0.10932
H_ H_ 0.133789 0.811661 0.0626104 0.10932
H_ H_ 0.378871 0.808762 0.0592146 0.10932
H_ H_ 0.127547 0.680476 0.071492 0.10932
H_ H_ 0.370701 0.673038 0.0693594 0.10932
C_ C_ 0.0670419 0.848244 0.25382 -0.02249
C_ C_ 0.323332 0.851719 0.245053 -0.02249
C_ C_ 0.0171689 0.96294 0.250988 -0.02249
C_ C_ 0.267839 0.962487 0.24177 -0.02249
C_ C_ 0.0436064 0.907695 0.215907 -0.11473
C_ C_ 0.292973 0.903576 0.20527 -0.11473
C_ C_ 0.053034 0.860917 0.290153 -0.11473
C_ C_ 0.318581 0.87525 0.281425 -0.11473
C_ C_ 0.0622085 0.871175 0.215747 -0.11473
C_ C_ 0.309513 0.866797 0.208068 -0.11473
C_ C_ 0.0328653 0.922511 0.252481 -0.02249
C_ C_ 0.286961 0.925144 0.242961 -0.02249
C_ C_ 0.0861522 0.810758 0.252644 0.6875
C_ C_ 0.344366 0.814312 0.245364 0.6875
C_ C_ 0.0381981 0.898634 0.290251 -0.11473
C_ C_ 0.301104 0.911931 0.281388 -0.11473
C_ C_ 0.185988 0.845818 0.248756 -0.02249
C_ C_ 0.439555 0.848318 0.253538 -0.02249
C_ C_ 0.236405 0.960075 0.247861 -0.02249
C_ C_ 0.485497 0.964412 0.257017 -0.02249
C_ C_ 0.212793 0.899204 0.286283 -0.11473
C_ C_ 0.459807 0.906243 0.292963 -0.11473
C_ C_ 0.199236 0.861707 0.212096 -0.11473
C_ C_ 0.44854 0.866864 0.215903 -0.11473
C_ C_ 0.197007 0.863222 0.286309 -0.11473
C_ C_ 0.446268 0.867139 0.292008 -0.11473
C_ C_ 0.220752 0.918676 0.247748 -0.02249
C_ C_ 0.468103 0.925498 0.255488 -0.02249
C_ C_ 0.165801 0.807998 0.248499 0.6875
C_ C_ 0.420342 0.80859 0.252045 0.6875
C_ C_ 0.215367 0.898741 0.21049 -0.11473
C_ C_ 0.462529 0.905938 0.216518 -0.11473
C_ C_ 0.183738 0.655013 0.252793 -0.02249
C_ C_ 0.437926 0.651783 0.254081 -0.02249
C_ C_ 0.235117 0.537776 0.257701 -0.02249
C_ C_ 0.486656 0.535356 0.241435 -0.02249
C_ C_ 0.200818 0.593229 0.291553 -0.11473
C_ C_ 0.461213 0.589565 0.287547 -0.11473
C_ C_ 0.202051 0.642912 0.218329 -0.11473
C_ C_ 0.452472 0.640746 0.215848 -0.11473
C_ C_ 0.185007 0.629914 0.289035 -0.11473
C_ C_ 0.445031 0.627177 0.289227 -0.11473
C_ C_ 0.218144 0.580579 0.257738 -0.02249
C_ C_ 0.4715 0.575719 0.248276 -0.02249
C_ C_ 0.165261 0.694555 0.250143 0.6875
C_ C_ 0.416512 0.687425 0.254761 0.6875
C_ C_ 0.218087 0.605123 0.220879 -0.11473
C_ C_ 0.467258 0.601596 0.21214 -0.11473
C_ C_ 0.0693473 0.647949 0.247266 -0.02249
C_ C_ 0.322805 0.648849 0.255091 -0.02249
C_ C_ 0.0189049 0.533676 0.246485 -0.02249
C_ C_ 0.267096 0.538362 0.258418 -0.02249
C_ C_ 0.0454525 0.590301 0.208142 -0.11473
C_ C_ 0.294712 0.593741 0.21928 -0.11473
C_ C_ 0.0598286 0.632096 0.285285 -0.11473
C_ C_ 0.312162 0.632605 0.292855 -0.11473
C_ C_ 0.0598454 0.630073 0.210052 -0.11473
C_ C_ 0.312778 0.630682 0.217673 -0.11473
C_ C_ 0.0362682 0.573137 0.245694 -0.02249
C_ C_ 0.284117 0.579093 0.256523 -0.02249
C_ C_ 0.0862345 0.688484 0.2481 0.6875
C_ C_ 0.339613 0.690302 0.254239 0.6875
C_ C_ 0.0430659 0.594455 0.284292 -0.11473
C_ C_ 0.294544 0.596758 0.29398 -0.11473
C_ C_ 0.127303 0.790253 0.369149 0.17695
C_ C_ 0.380832 0.790871 0.371975 0.17695
C_ C_ 0.12086 0.717659 0.378181 0.17695
C_ C_ 0.3787 0.720141 0.376511 0.17695
C_ C_ 0.124214 0.72227 0.421134 -0.11473
C_ C_ 0.375987 0.721954 0.419909 -0.11473
C_ C_ 0.123884 0.762206 0.440718 0.23465
C_ C_ 0.376056 0.759911 0.439506 0.23465
C_ C_ 0.126412 0.796334 0.411329 -0.11473
C_ C_ 0.379314 0.795462 0.415565 -0.11473
C_ C_ 0.121196 0.713655 0.127937 0.17695
C_ C_ 0.375805 0.708035 0.127702 0.17695
C_ C_ 0.129186 0.787337 0.123158 0.17695
C_ C_ 0.382606 0.780746 0.123387 0.17695
C_ C_ 0.127478 0.784047 0.0793556 -0.11473
C_ C_ 0.379206 0.780102 0.0776745 -0.11473
C_ C_ 0.127202 0.746054 0.0588858 0.23465
C_ C_ 0.376097 0.740239 0.0571329 0.23465
C_ C_ 0.123936 0.70977 0.0842911 -0.11473
C_ C_ 0.374331 0.704568 0.0834517 -0.11473
C_ C_ 0.0336916 1.000129596 0.251088 0.05793
C_ C_ 0.281405 1.00172206 0.243006 0.05793
C_ C_ 0.220588 0.499821 0.259392 0.05793
C_ C_ 0.469977 0.498482 0.242127 0.05793
Br Br 0.076847 -0.0023600000000000287 0.260247 -0.17191
Br Br 0.323629 1.00925089 0.226743 -0.17191
Br Br 0.177746 0.49833 0.270584 -0.17191
Br Br 0.427207 0.50437 0.238025 -0.17191
N_ N_ 0.124128 0.751726 0.352939 -0.272
N_ N_ 0.380487 0.753568 0.353506 -0.272
N_ N_ 0.127931 0.769472 0.484277 -0.12501
N_ N_ 0.380402 0.763285 0.483018 -0.12501
N_ N_ 0.124898 0.752098 0.146641 -0.272
N_ N_ 0.380155 0.744762 0.14644 -0.272
N_ N_ 0.132238 0.742573 0.014674 -0.12501
N_ N_ 0.370881 0.738864 0.0127661 -0.12501
O_ O_ 0.0940739 0.795085 0.217787 -0.60745
O_ O_ 0.352195 0.797406 0.209562 -0.60745
O_ O_ 0.0884891 0.789365 0.286185 -0.60745
O_ O_ 0.351788 0.798611 0.279614 -0.60745
O_ O_ 0.153087 0.796163 0.281698 -0.60745
O_ O_ 0.413328 0.790486 0.286006 -0.60745
O_ O_ 0.158587 0.792309 0.213539 -0.60745
O_ O_ 0.411561 0.793887 0.216421 -0.60745
O_ O_ 0.155717 0.710851 0.283548 -0.60745
O_ O_ 0.410219 0.703768 0.289751 -0.60745
O_ O_ 0.157853 0.708437 0.215539 -0.60745
O_ O_ 0.408763 0.703408 0.218945 -0.60745
O_ O_ 0.094662 0.705002 0.214026 -0.60745
O_ O_ 0.350815 0.705097 0.220265 -0.60745
O_ O_ 0.0942581 0.70508 0.282975 -0.60745
O_ O_ 0.347877 0.706842 0.287975 -0.60745
Zn Zn 0.122049 0.750366 0.785321 0.9476
Zn Zn 0.375195 0.746826 0.782786 0.9476
Zn Zn 0.121468 0.749858 0.714779 0.9476
Zn Zn 0.374936 0.748029 0.71373 0.9476
H_ H_ 0.0154168 0.902251 0.681957 0.10932
H_ H_ 0.277713 0.907709 0.685982 0.10932
H_ H_ 0.0745729 0.866401 0.811664 0.10932
H_ H_ 0.315288 0.845733 0.818979 0.10932
H_ H_ 0.0443119 0.839859 0.682714 0.10932
H_ H_ 0.312678 0.849365 0.686125 0.10932
H_ H_ 0.0492783 0.932722 0.807457 0.10932
H_ H_ 0.281024 0.905691 0.821316 0.10932
H_ H_ 0.223854 0.904608 0.823323 0.10932
H_ H_ 0.453164 0.928457 0.81342 0.10932
H_ H_ 0.181837 0.855378 0.686778 0.10932
H_ H_ 0.435653 0.859221 0.678282 0.10932
H_ H_ 0.195093 0.840632 0.818723 0.10932
H_ H_ 0.422487 0.862029 0.810776 0.10932
H_ H_ 0.216389 0.915924 0.687114 0.10932
H_ H_ 0.467097 0.919203 0.682549 0.10932
H_ H_ 0.227401 0.592088 0.81138 0.10932
H_ H_ 0.478034 0.587812 0.813728 0.10932
H_ H_ 0.17242 0.641425 0.684984 0.10932
H_ H_ 0.427774 0.641784 0.686009 0.10932
H_ H_ 0.190442 0.648979 0.816788 0.10932
H_ H_ 0.458749 0.661906 0.812819 0.10932
H_ H_ 0.200498 0.579516 0.680873 0.10932
H_ H_ 0.454888 0.578056 0.684145 0.10932
H_ H_ 0.0402107 0.57401 0.679922 0.10932
H_ H_ 0.277413 0.590407 0.676633 0.10932
H_ H_ 0.0562237 0.648991 0.816372 0.10932
H_ H_ 0.323369 0.636464 0.812702 0.10932
H_ H_ 0.0662302 0.64186 0.679175 0.10932
H_ H_ 0.302272 0.656877 0.682126 0.10932
H_ H_ 0.0205169 0.59244 0.810648 0.10932
H_ H_ 0.298685 0.571534 0.807492 0.10932
H_ H_ 0.112103 0.821999 0.857156 0.10932
H_ H_ 0.387457 0.81108 0.85629 0.10932
H_ H_ 0.127137 0.693084 0.86607 0.10932
H_ H_ 0.370301 0.680885 0.863204 0.10932
H_ H_ 0.131453 0.699933 0.945588 0.10932
H_ H_ 0.376451 0.683993 0.938198 0.10932
H_ H_ 0.106103 0.82763 0.932977 0.10932
H_ H_ 0.389287 0.815989 0.938625 0.10932
H_ H_ 0.170013 0.753123 0.637675 0.10932
H_ H_ 0.370398 0.681793 0.641362 0.10932
H_ H_ 0.0771382 0.759475 0.64386 0.10932
H_ H_ 0.383764 0.811775 0.632226 0.10932
H_ H_ 0.0725685 0.754181 0.568828 0.10932
H_ H_ 0.379889 0.807721 0.554598 0.10932
H_ H_ 0.167994 0.753407 0.554718 0.10932
H_ H_ 0.379049 0.673863 0.568056 0.10932
C_ C_ 0.060574 0.847063 0.747854 -0.02249
C_ C_ 0.316117 0.843089 0.752262 -0.02249
C_ C_ 0.0112801 0.962848 0.742412 -0.02249
C_ C_ 0.264592 0.957566 0.753489 -0.02249
C_ C_ 0.0301859 0.897628 0.707753 -0.11473
C_ C_ 0.285757 0.895354 0.715725 -0.11473
C_ C_ 0.0614321 0.872778 0.783192 -0.11473
C_ C_ 0.307892 0.861327 0.790193 -0.11473
C_ C_ 0.0423627 0.858175 0.711738 -0.11473
C_ C_ 0.303983 0.860064 0.714843 -0.11473
C_ C_ 0.0283523 0.922437 0.744067 -0.02249
C_ C_ 0.282359 0.917225 0.754132 -0.02249
C_ C_ 0.0810474 0.810956 0.748693 0.6875
C_ C_ 0.336174 0.805041 0.751197 0.6875
C_ C_ 0.0463065 0.911088 0.779585 -0.11473
C_ C_ 0.293 0.898776 0.791164 -0.11473
C_ C_ 0.185146 0.841945 0.751951 -0.02249
C_ C_ 0.426834 0.854087 0.743245 -0.02249
C_ C_ 0.232657 0.958491 0.756526 -0.02249
C_ C_ 0.480213 0.967352 0.748884 -0.02249
C_ C_ 0.214359 0.893907 0.791797 -0.11473
C_ C_ 0.449882 0.911138 0.784447 -0.11473
C_ C_ 0.191129 0.865614 0.715529 -0.11473
C_ C_ 0.438078 0.872229 0.707353 -0.11473
C_ C_ 0.197627 0.856799 0.790226 -0.11473
C_ C_ 0.430196 0.876119 0.781598 -0.11473
C_ C_ 0.21671 0.918694 0.755061 -0.02249
C_ C_ 0.463019 0.927239 0.747626 -0.02249
C_ C_ 0.161939 0.809421 0.752139 0.6875
C_ C_ 0.408056 0.815028 0.743847 0.6875
C_ C_ 0.208445 0.900443 0.716067 -0.11473
C_ C_ 0.454802 0.907823 0.709298 -0.11473
C_ C_ 0.18126 0.652757 0.749958 -0.02249
C_ C_ 0.437877 0.657194 0.751963 -0.02249
C_ C_ 0.231789 0.538597 0.745075 -0.02249
C_ C_ 0.482434 0.538316 0.749136 -0.02249
C_ C_ 0.213738 0.602986 0.783799 -0.11473
C_ C_ 0.467539 0.601871 0.786679 -0.11473
C_ C_ 0.185284 0.633004 0.712094 -0.11473
C_ C_ 0.440536 0.633591 0.714796 -0.11473
C_ C_ 0.196603 0.638313 0.785609 -0.11473
C_ C_ 0.453012 0.640473 0.787826 -0.11473
C_ C_ 0.21635 0.580287 0.746743 -0.02249
C_ C_ 0.465201 0.578396 0.751691 -0.02249
C_ C_ 0.159933 0.690125 0.750488 0.6875
C_ C_ 0.419355 0.694859 0.753189 0.6875
C_ C_ 0.202045 0.595571 0.710583 -0.11473
C_ C_ 0.453809 0.594532 0.71426 -0.11473
C_ C_ 0.0648524 0.650032 0.74774 -0.02249
C_ C_ 0.317346 0.65056 0.747295 -0.02249
C_ C_ 0.00979438 0.539681 0.746847 -0.02249
C_ C_ 0.264456 0.537922 0.744775 -0.02249
C_ C_ 0.0434643 0.592328 0.710482 -0.11473
C_ C_ 0.284167 0.60311 0.706921 -0.11473
C_ C_ 0.0531565 0.634919 0.785222 -0.11473
C_ C_ 0.311582 0.629821 0.785188 -0.11473
C_ C_ 0.0605428 0.62878 0.709933 -0.11473
C_ C_ 0.301998 0.638601 0.709694 -0.11473
C_ C_ 0.0260585 0.580924 0.745558 -0.02249
C_ C_ 0.283798 0.577368 0.742887 -0.02249
C_ C_ 0.0827064 0.690463 0.74779 0.6875
C_ C_ 0.335894 0.688687 0.750694 0.6875
C_ C_ 0.0305193 0.60331 0.782389 -0.11473
C_ C_ 0.297946 0.591893 0.78022 -0.11473
C_ C_ 0.113049 0.79307 0.874335 0.17695
C_ C_ 0.38671 0.782925 0.875416 0.17695
C_ C_ 0.125791 0.723464 0.880777 0.17695
C_ C_ 0.374812 0.711247 0.877713 0.17695
C_ C_ 0.126211 0.72687 0.926461 -0.11473
C_ C_ 0.37616 0.712063 0.922193 -0.11473
C_ C_ 0.117669 0.763952 0.945305 0.23465
C_ C_ 0.383569 0.74998 0.943465 0.23465
C_ C_ 0.110057 0.797426 0.917805 -0.11473
C_ C_ 0.388042 0.78719 0.91982 -0.11473
C_ C_ 0.149839 0.752979 0.62069 0.17695
C_ C_ 0.374449 0.709893 0.622675 0.17695
C_ C_ 0.0969924 0.756499 0.62527 0.17695
C_ C_ 0.382077 0.782 0.616871 0.17695
C_ C_ 0.0938032 0.754853 0.58198 -0.11473
C_ C_ 0.381785 0.779144 0.571405 -0.11473
C_ C_ 0.119154 0.756802 0.55707 0.23465
C_ C_ 0.377967 0.741049 0.553138 0.23465
C_ C_ 0.147672 0.751625 0.575837 -0.11473
C_ C_ 0.377432 0.704885 0.579058 -0.11473
C_ C_ 0.0271973 0.000985184 0.741122 0.05793
C_ C_ 0.280722 -0.0024290000000000145 0.753281 0.05793
C_ C_ 0.215352 0.502158 0.744584 0.05793
C_ C_ 0.467804 0.500634 0.753615 0.05793
Br Br 0.0672976 -0.0020000000000000018 0.719003 -0.17191
Br Br 0.32304 -0.0037770000000000303 0.755198 -0.17191
Br Br 0.172289 0.505663 0.745051 -0.17191
Br Br 0.426335 0.498841 0.769978 -0.17191
N_ N_ 0.119348 0.755687 0.85723 -0.272
N_ N_ 0.379527 0.746651 0.855037 -0.272
N_ N_ 0.117979 0.766903 0.990374 -0.12501
N_ N_ 0.389101 0.752242 0.987559 -0.12501
N_ N_ 0.124077 0.754142 0.644607 -0.272
N_ N_ 0.376589 0.748391 0.640813 -0.272
N_ N_ 0.117203 0.746636 0.513014 -0.12501
N_ N_ 0.37381 0.735451 0.508146 -0.12501
O_ O_ 0.0904393 0.79604 0.714108 -0.60745
O_ O_ 0.342928 0.790302 0.716162 -0.60745
O_ O_ 0.0879864 0.791999 0.782518 -0.60745
O_ O_ 0.34115 0.785859 0.78428 -0.60745
O_ O_ 0.150403 0.797974 0.788157 -0.60745
O_ O_ 0.398425 0.799743 0.777754 -0.60745
O_ O_ 0.155105 0.790886 0.718131 -0.60745
O_ O_ 0.402289 0.795777 0.710264 -0.60745
O_ O_ 0.152836 0.706728 0.785841 -0.60745
O_ O_ 0.411341 0.708797 0.788781 -0.60745
O_ O_ 0.149134 0.704176 0.716415 -0.60745
O_ O_ 0.406787 0.705245 0.718479 -0.60745
O_ O_ 0.0886249 0.708708 0.713206 -0.60745
O_ O_ 0.347143 0.702248 0.716741 -0.60745
O_ O_ 0.0935814 0.704244 0.782789 -0.60745
O_ O_ 0.346365 0.699558 0.786777 -0.60745
Zn Zn 0.632229 0.247597 0.2833 0.9476
Zn Zn 0.875933 0.249504 0.284613 0.9476
Zn Zn 0.629385 0.245152 0.214715 0.9476
Zn Zn 0.873975 0.250764 0.214114 0.9476
H_ H_ 0.533001 0.410405 0.178376 0.10932
H_ H_ 0.760379 0.392374 0.190715 0.10932
H_ H_ 0.559446 0.345042 0.313995 0.10932
H_ H_ 0.841862 0.377306 0.299326 0.10932
H_ H_ 0.562737 0.340792 0.181544 0.10932
H_ H_ 0.788224 0.325767 0.196272 0.10932
H_ H_ 0.531319 0.412055 0.312202 0.10932
H_ H_ 0.815673 0.44233 0.290745 0.10932
H_ H_ 0.746328 0.384915 0.308418 0.10932
H_ H_ 0.980372 0.406923 0.315582 0.10932
H_ H_ 0.659231 0.377628 0.209018 0.10932
H_ H_ 0.917341 0.372223 0.191499 0.10932
H_ H_ 0.721043 0.316799 0.295372 0.10932
H_ H_ 0.950548 0.338284 0.314205 0.10932
H_ H_ 0.688698 0.440934 0.215929 0.10932
H_ H_ 0.951596 0.433108 0.19165 0.10932
H_ H_ 0.718992 0.0814487 0.311276 0.10932
H_ H_ 0.977807 0.0898517 0.317468 0.10932
H_ H_ 0.687526 0.138795 0.174858 0.10932
H_ H_ 0.932016 0.139328 0.182917 0.10932
H_ H_ 0.690938 0.14178 0.311548 0.10932
H_ H_ 0.947069 0.153751 0.318012 0.10932
H_ H_ 0.718637 0.0777494 0.177757 0.10932
H_ H_ 0.965197 0.0788184 0.184218 0.10932
H_ H_ 0.54572 0.0675464 0.189347 0.10932
H_ H_ 0.789083 0.077706 0.176496 0.10932
H_ H_ 0.572827 0.148108 0.313865 0.10932
H_ H_ 0.813295 0.14831 0.311796 0.10932
H_ H_ 0.574847 0.134803 0.183346 0.10932
H_ H_ 0.811333 0.153088 0.179619 0.10932
H_ H_ 0.540557 0.0912276 0.324349 0.10932
H_ H_ 0.787778 0.0802598 0.309739 0.10932
H_ H_ 0.631709 0.177555 0.355268 0.10932
H_ H_ 0.881454 0.18954 0.365987 0.10932
H_ H_ 0.633381 0.306278 0.361407 0.10932
H_ H_ 0.873296 0.323028 0.350507 0.10932
H_ H_ 0.634509 0.303866 0.438006 0.10932
H_ H_ 0.860684 0.324244 0.425777 0.10932
H_ H_ 0.624354 0.176369 0.436296 0.10932
H_ H_ 0.871797 0.19463 0.438783 0.10932
H_ H_ 0.615122 0.180898 0.135422 0.10932
H_ H_ 0.829056 0.232516 0.136153 0.10932
H_ H_ 0.641191 0.308295 0.141293 0.10932
H_ H_ 0.92353 0.249555 0.141136 0.10932
H_ H_ 0.638493 0.312211 0.0645242 0.10932
H_ H_ 0.924728 0.261101 0.0671517 0.10932
H_ H_ 0.623707 0.184011 0.0570588 0.10932
H_ H_ 0.834173 0.213148 0.0617892 0.10932
C_ C_ 0.567 0.342159 0.248599 -0.02249
C_ C_ 0.818525 0.347152 0.245912 -0.02249
C_ C_ 0.515832 0.457417 0.243778 -0.02249
C_ C_ 0.765683 0.457848 0.244862 -0.02249
C_ C_ 0.539866 0.395982 0.207842 -0.11473
C_ C_ 0.77786 0.387498 0.216532 -0.11473
C_ C_ 0.55568 0.360935 0.285317 -0.11473
C_ C_ 0.824623 0.379326 0.276297 -0.11473
C_ C_ 0.557225 0.358385 0.209414 -0.11473
C_ C_ 0.794366 0.351223 0.217631 -0.11473
C_ C_ 0.529666 0.415251 0.244672 -0.02249
C_ C_ 0.785741 0.421315 0.243949 -0.02249
C_ C_ 0.588967 0.304386 0.250208 0.6875
C_ C_ 0.83694 0.309108 0.244958 0.6875
C_ C_ 0.536981 0.396824 0.284185 -0.11473
C_ C_ 0.807915 0.415323 0.275132 -0.11473
C_ C_ 0.687575 0.341212 0.252826 -0.02249
C_ C_ 0.934638 0.34839 0.249512 -0.02249
C_ C_ 0.737456 0.459162 0.263692 -0.02249
C_ C_ 0.984928 0.462509 0.256266 -0.02249
C_ C_ 0.726542 0.383809 0.286965 -0.11473
C_ C_ 0.965248 0.399101 0.28959 -0.11473
C_ C_ 0.679006 0.377319 0.22879 -0.11473
C_ C_ 0.932236 0.377637 0.217813 -0.11473
C_ C_ 0.712387 0.345499 0.280566 -0.11473
C_ C_ 0.948919 0.360883 0.287704 -0.11473
C_ C_ 0.718451 0.418915 0.262861 -0.02249
C_ C_ 0.965716 0.42486 0.255169 -0.02249
C_ C_ 0.669559 0.304727 0.250442 0.6875
C_ C_ 0.913749 0.311184 0.249185 0.6875
C_ C_ 0.694135 0.415339 0.23376 -0.11473
C_ C_ 0.950751 0.41374 0.218981 -0.11473
C_ C_ 0.689388 0.148175 0.244011 -0.02249
C_ C_ 0.936285 0.151699 0.251481 -0.02249
C_ C_ 0.738804 0.0354776 0.247487 -0.02249
C_ C_ 0.987918 0.0383014 0.252995 -0.02249
C_ C_ 0.71398 0.0948824 0.2824 -0.11473
C_ C_ 0.969696 0.102574 0.288222 -0.11473
C_ C_ 0.697263 0.1307 0.205383 -0.11473
C_ C_ 0.943672 0.132463 0.211909 -0.11473
C_ C_ 0.70109 0.133105 0.28295 -0.11473
C_ C_ 0.950269 0.136973 0.288538 -0.11473
C_ C_ 0.722883 0.0768004 0.2446 -0.02249
C_ C_ 0.972409 0.0789908 0.252253 -0.02249
C_ C_ 0.66789 0.183577 0.242991 0.6875
C_ C_ 0.913209 0.185657 0.252557 0.6875
C_ C_ 0.714625 0.0956248 0.206929 -0.11473
C_ C_ 0.96238 0.0955236 0.212671 -0.11473
C_ C_ 0.573157 0.147678 0.24676 -0.02249
C_ C_ 0.815366 0.152317 0.245595 -0.02249
C_ C_ 0.518718 0.0379214 0.262481 -0.02249
C_ C_ 0.770042 0.0335444 0.241148 -0.02249
C_ C_ 0.547454 0.0883018 0.21616 -0.11473
C_ C_ 0.796777 0.0935495 0.204769 -0.11473
C_ C_ 0.564434 0.134216 0.286542 -0.11473
C_ C_ 0.806878 0.133745 0.282255 -0.11473
C_ C_ 0.564449 0.125847 0.211836 -0.11473
C_ C_ 0.807948 0.134215 0.206135 -0.11473
C_ C_ 0.536594 0.0766509 0.256546 -0.02249
C_ C_ 0.789437 0.0725224 0.242799 -0.02249
C_ C_ 0.591843 0.187388 0.243973 0.6875
C_ C_ 0.834382 0.191637 0.248201 0.6875
C_ C_ 0.545375 0.100252 0.291778 -0.11473
C_ C_ 0.794175 0.0944483 0.282306 -0.11473
C_ C_ 0.634481 0.205261 0.373682 0.17695
C_ C_ 0.875011 0.218094 0.377482 0.17695
C_ C_ 0.635713 0.278771 0.377936 0.17695
C_ C_ 0.872381 0.292763 0.37079 0.17695
C_ C_ 0.635156 0.276566 0.421357 -0.11473
C_ C_ 0.862741 0.294877 0.411864 -0.11473
C_ C_ 0.631765 0.237864 0.441403 0.23465
C_ C_ 0.863695 0.260018 0.439326 0.23465
C_ C_ 0.63251 0.202963 0.417799 -0.11473
C_ C_ 0.868543 0.220876 0.420803 -0.11473
C_ C_ 0.62051 0.210031 0.120559 0.17695
C_ C_ 0.850329 0.236317 0.121243 0.17695
C_ C_ 0.633963 0.281662 0.123722 0.17695
C_ C_ 0.901801 0.252187 0.1252 0.17695
C_ C_ 0.637749 0.283261 0.0805108 -0.11473
C_ C_ 0.902652 0.256428 0.0812647 -0.11473
C_ C_ 0.632133 0.249166 0.0548245 0.23465
C_ C_ 0.876659 0.246011 0.0562746 0.23465
C_ C_ 0.625944 0.211595 0.0763096 -0.11473
C_ C_ 0.850855 0.232741 0.0775811 -0.11473
C_ C_ 0.532479 0.495855 0.244722 0.05793
C_ C_ 0.779114 0.497433 0.235481 0.05793
C_ C_ 0.722549 0.99756 0.255614 0.05793
C_ C_ 0.970637 1.00104303 0.253853 0.05793
Br Br 0.572348 0.49211 0.262595 -0.17191
Br Br 0.807803 0.49986 0.19265 -0.17191
Br Br 0.679715 -0.000276000000000054 0.263717 -0.17191
Br Br 0.929367 0.000946353 0.27292 -0.17191
N_ N_ 0.635428 0.241444 0.353512 -0.272
N_ N_ 0.875802 0.254436 0.353013 -0.272
N_ N_ 0.621839 0.237099 0.485446 -0.12501
N_ N_ 0.860818 0.265255 0.483699 -0.12501
N_ N_ 0.626466 0.245423 0.144489 -0.272
N_ N_ 0.875399 0.246534 0.14319 -0.272
N_ N_ 0.638916 0.249745 0.0112642 -0.12501
N_ N_ 0.879747 0.238405 0.0127305 -0.12501
O_ O_ 0.597622 0.289347 0.217274 -0.60745
O_ O_ 0.842339 0.292986 0.209681 -0.60745
O_ O_ 0.599359 0.292493 0.285147 -0.60745
O_ O_ 0.848257 0.295095 0.279608 -0.60745
O_ O_ 0.662624 0.288931 0.2853 -0.60745
O_ O_ 0.91038 0.292575 0.282944 -0.60745
O_ O_ 0.659107 0.290722 0.2146 -0.60745
O_ O_ 0.904655 0.295975 0.215011 -0.60745
O_ O_ 0.661831 0.201853 0.276585 -0.60745
O_ O_ 0.906081 0.203353 0.288119 -0.60745
O_ O_ 0.658854 0.19933 0.207696 -0.60745
O_ O_ 0.905658 0.203769 0.218714 -0.60745
O_ O_ 0.599513 0.201307 0.209377 -0.60745
O_ O_ 0.843686 0.20757 0.215061 -0.60745
O_ O_ 0.603331 0.203447 0.27815 -0.60745
O_ O_ 0.842165 0.208116 0.284516 -0.60745
Zn Zn 0.624255 0.250911 0.784175 0.9476
Zn Zn 0.87528 0.251044 0.784073 0.9476
Zn Zn 0.62529 0.249506 0.715581 0.9476
Zn Zn 0.87278 0.255459 0.713418 0.9476
H_ H_ 0.52155 0.404267 0.684505 0.10932
H_ H_ 0.774568 0.412996 0.688142 0.10932
H_ H_ 0.571915 0.36093 0.819539 0.10932
H_ H_ 0.837616 0.372305 0.809971 0.10932
H_ H_ 0.550494 0.33976 0.687475 0.10932
H_ H_ 0.794133 0.34227 0.690388 0.10932
H_ H_ 0.548947 0.431963 0.811442 0.10932
H_ H_ 0.800628 0.427749 0.817908 0.10932
H_ H_ 0.720418 0.413205 0.818795 0.10932
H_ H_ 0.970415 0.414825 0.812333 0.10932
H_ H_ 0.677645 0.360596 0.684875 0.10932
H_ H_ 0.922378 0.364203 0.677485 0.10932
H_ H_ 0.685404 0.354345 0.820079 0.10932
H_ H_ 0.946074 0.347964 0.810731 0.10932
H_ H_ 0.710835 0.42108 0.684281 0.10932
H_ H_ 0.955476 0.426024 0.677758 0.10932
H_ H_ 0.723629 0.0927352 0.8145 0.10932
H_ H_ 0.96844 0.0885159 0.809249 0.10932
H_ H_ 0.679929 0.14649 0.677328 0.10932
H_ H_ 0.922832 0.142223 0.680738 0.10932
H_ H_ 0.697996 0.158653 0.812778 0.10932
H_ H_ 0.941671 0.155261 0.813936 0.10932
H_ H_ 0.705535 0.078628 0.682758 0.10932
H_ H_ 0.94455 0.0745923 0.680607 0.10932
H_ H_ 0.537074 0.0829773 0.680982 0.10932
H_ H_ 0.787726 0.0848335 0.68418 0.10932
H_ H_ 0.563916 0.146505 0.819108 0.10932
H_ H_ 0.803267 0.159949 0.814616 0.10932
H_ H_ 0.559258 0.154846 0.683328 0.10932
H_ H_ 0.813262 0.151663 0.683042 0.10932
H_ H_ 0.537475 0.0781558 0.815744 0.10932
H_ H_ 0.788263 0.0830644 0.816275 0.10932
H_ H_ 0.620414 0.30735 0.862338 0.10932
H_ H_ 0.832162 0.241744 0.848271 0.10932
H_ H_ 0.624744 0.176927 0.854009 0.10932
H_ H_ 0.918056 0.281585 0.872146 0.10932
H_ H_ 0.631838 0.175176 0.931168 0.10932
H_ H_ 0.914406 0.268838 0.948277 0.10932
H_ H_ 0.617288 0.303883 0.937472 0.10932
H_ H_ 0.82278 0.229139 0.923868 0.10932
H_ H_ 0.637925 0.185505 0.635127 0.10932
H_ H_ 0.915111 0.252617 0.641479 0.10932
H_ H_ 0.612812 0.314452 0.64278 0.10932
H_ H_ 0.820165 0.25417 0.635905 0.10932
H_ H_ 0.615196 0.320873 0.569019 0.10932
H_ H_ 0.82324 0.245194 0.559477 0.10932
H_ H_ 0.638558 0.190773 0.559665 0.10932
H_ H_ 0.918545 0.250109 0.564752 0.10932
C_ C_ 0.565049 0.346285 0.75389 -0.02249
C_ C_ 0.814635 0.348171 0.753254 -0.02249
C_ C_ 0.514764 0.461777 0.745754 -0.02249
C_ C_ 0.763985 0.462713 0.757422 -0.02249
C_ C_ 0.535351 0.39631 0.711274 -0.11473
C_ C_ 0.782136 0.400347 0.718323 -0.11473
C_ C_ 0.562061 0.37017 0.789641 -0.11473
C_ C_ 0.819046 0.376603 0.786911 -0.11473
C_ C_ 0.549 0.357179 0.716151 -0.11473
C_ C_ 0.79373 0.359757 0.720452 -0.11473
C_ C_ 0.531695 0.420789 0.747414 -0.02249
C_ C_ 0.783015 0.42405 0.756484 -0.02249
C_ C_ 0.586129 0.309961 0.752449 0.6875
C_ C_ 0.834602 0.31289 0.750362 0.6875
C_ C_ 0.546903 0.409922 0.785479 -0.11473
C_ C_ 0.801015 0.411276 0.788813 -0.11473
C_ C_ 0.679118 0.350606 0.754253 -0.02249
C_ C_ 0.931132 0.352594 0.746001 -0.02249
C_ C_ 0.732232 0.462478 0.753855 -0.02249
C_ C_ 0.982052 0.461738 0.744921 -0.02249
C_ C_ 0.714029 0.399839 0.789448 -0.11473
C_ C_ 0.964265 0.401759 0.7825 -0.11473
C_ C_ 0.687218 0.371487 0.716075 -0.11473
C_ C_ 0.933598 0.373388 0.707652 -0.11473
C_ C_ 0.691929 0.367522 0.791311 -0.11473
C_ C_ 0.94835 0.364519 0.781711 -0.11473
C_ C_ 0.716191 0.422578 0.752102 -0.02249
C_ C_ 0.9651 0.423395 0.743694 -0.02249
C_ C_ 0.665294 0.307985 0.752012 0.6875
C_ C_ 0.912947 0.314667 0.748253 0.6875
C_ C_ 0.704515 0.406676 0.715071 -0.11473
C_ C_ 0.951987 0.408465 0.706127 -0.11473
C_ C_ 0.685355 0.157956 0.745415 -0.02249
C_ C_ 0.931274 0.154446 0.747164 -0.02249
C_ C_ 0.735055 0.0427057 0.749341 -0.02249
C_ C_ 0.978777 0.0384268 0.743646 -0.02249
C_ C_ 0.714244 0.104001 0.784283 -0.11473
C_ C_ 0.962412 0.102546 0.781196 -0.11473
C_ C_ 0.68974 0.136715 0.707902 -0.11473
C_ C_ 0.93362 0.131818 0.708842 -0.11473
C_ C_ 0.699004 0.14177 0.783712 -0.11473
C_ C_ 0.945264 0.139699 0.783881 -0.11473
C_ C_ 0.717837 0.0828996 0.747057 -0.02249
C_ C_ 0.962186 0.0796339 0.744252 -0.02249
C_ C_ 0.664611 0.194182 0.745973 0.6875
C_ C_ 0.91443 0.19275 0.747647 0.6875
C_ C_ 0.705442 0.0992184 0.709525 -0.11473
C_ C_ 0.947143 0.0940929 0.708338 -0.11473
C_ C_ 0.565248 0.154057 0.750909 -0.02249
C_ C_ 0.814126 0.158464 0.749649 -0.02249
C_ C_ 0.513322 0.0406412 0.746138 -0.02249
C_ C_ 0.76655 0.0409346 0.752373 -0.02249
C_ C_ 0.539819 0.0998181 0.71102 -0.11473
C_ C_ 0.78946 0.100684 0.713765 -0.11473
C_ C_ 0.55631 0.132949 0.787996 -0.11473
C_ C_ 0.804383 0.140599 0.787561 -0.11473
C_ C_ 0.555814 0.137374 0.712253 -0.11473
C_ C_ 0.804747 0.138694 0.711731 -0.11473
C_ C_ 0.52916 0.0819011 0.747286 -0.02249
C_ C_ 0.784642 0.0814053 0.75109 -0.02249
C_ C_ 0.586351 0.188751 0.750706 0.6875
C_ C_ 0.834254 0.195274 0.748368 0.6875
C_ C_ 0.539768 0.0966816 0.78712 -0.11473
C_ C_ 0.791455 0.101252 0.788709 -0.11473
C_ C_ 0.629059 0.279113 0.876332 0.17695
C_ C_ 0.850301 0.240349 0.870526 0.17695
C_ C_ 0.626705 0.205757 0.871567 0.17695
C_ C_ 0.900934 0.261802 0.882993 0.17695
C_ C_ 0.626285 0.203835 0.915871 -0.11473
C_ C_ 0.896541 0.258264 0.928078 -0.11473
C_ C_ 0.626121 0.238927 0.940452 0.23465
C_ C_ 0.867431 0.247403 0.942085 0.23465
C_ C_ 0.625657 0.277634 0.920469 -0.11473
C_ C_ 0.845877 0.234197 0.91384 -0.11473
C_ C_ 0.631116 0.214451 0.619885 0.17695
C_ C_ 0.895647 0.256006 0.622212 0.17695
C_ C_ 0.621304 0.287145 0.624785 0.17695
C_ C_ 0.842799 0.259351 0.619331 0.17695
C_ C_ 0.619914 0.290544 0.582039 -0.11473
C_ C_ 0.844179 0.25127 0.575773 -0.11473
C_ C_ 0.626386 0.254817 0.556532 0.23465
C_ C_ 0.870359 0.246856 0.554245 0.23465
C_ C_ 0.634431 0.218021 0.576573 -0.11473
C_ C_ 0.896615 0.250776 0.578905 -0.11473
C_ C_ 0.531368 0.500135 0.741042 0.05793
C_ C_ 0.779514 0.501443 0.756955 0.05793
C_ C_ 0.719354 0.00521482 0.749042 0.05793
C_ C_ 0.963174 -0.00024100000000004673 0.74647 0.05793
Br Br 0.571035 0.502207 0.718085 -0.17191
Br Br 0.822764 0.502874 0.749737 -0.17191
Br Br 0.675515 0.00684593 0.75272 -0.17191
Br Br 0.91943 0.00126584 0.732102 -0.17191
N_ N_ 0.62902 0.243334 0.852806 -0.272
N_ N_ 0.878114 0.250741 0.857349 -0.272
N_ N_ 0.620076 0.236864 0.983879 -0.12501
N_ N_ 0.859675 0.244317 0.984884 -0.12501
N_ N_ 0.625315 0.247989 0.643788 -0.272
N_ N_ 0.869309 0.260172 0.642324 -0.272
N_ N_ 0.633829 0.258953 0.513765 -0.12501
N_ N_ 0.87233 0.240723 0.510021 -0.12501
O_ O_ 0.590829 0.289786 0.717195 -0.60745
O_ O_ 0.842929 0.301017 0.715541 -0.60745
O_ O_ 0.59754 0.295811 0.785998 -0.60745
O_ O_ 0.844008 0.292878 0.782708 -0.60745
O_ O_ 0.656106 0.29219 0.786156 -0.60745
O_ O_ 0.905742 0.299661 0.782097 -0.60745
O_ O_ 0.654405 0.294798 0.716436 -0.60745
O_ O_ 0.90546 0.296413 0.713567 -0.60745
O_ O_ 0.651234 0.205259 0.778883 -0.60745
O_ O_ 0.907688 0.20719 0.782613 -0.60745
O_ O_ 0.658579 0.212558 0.71261 -0.60745
O_ O_ 0.904572 0.209538 0.714101 -0.60745
O_ O_ 0.59534 0.202376 0.716764 -0.60745
O_ O_ 0.841463 0.212457 0.713856 -0.60745
O_ O_ 0.593651 0.206443 0.784462 -0.60745
O_ O_ 0.847153 0.206241 0.78185 -0.60745
Zn Zn 0.622938 0.751472 0.287942 0.9476
Zn Zn 0.881847 0.746368 0.280148 0.9476
Zn Zn 0.621518 0.748301 0.218449 0.9476
Zn Zn 0.880046 0.746955 0.211547 0.9476
H_ H_ 0.532073 0.922215 0.190501 0.10932
H_ H_ 0.777589 0.900325 0.187155 0.10932
H_ H_ 0.562889 0.849458 0.327325 0.10932
H_ H_ 0.827192 0.854419 0.318457 0.10932
H_ H_ 0.560139 0.853827 0.1886 0.10932
H_ H_ 0.80653 0.836554 0.188663 0.10932
H_ H_ 0.533041 0.914158 0.324987 0.10932
H_ H_ 0.800108 0.922834 0.313809 0.10932
H_ H_ 0.717104 0.915182 0.321624 0.10932
H_ H_ 0.97038 0.912108 0.31465 0.10932
H_ H_ 0.695688 0.847751 0.184958 0.10932
H_ H_ 0.926433 0.867315 0.177005 0.10932
H_ H_ 0.688746 0.850194 0.322326 0.10932
H_ H_ 0.941648 0.845182 0.307971 0.10932
H_ H_ 0.709738 0.925516 0.188761 0.10932
H_ H_ 0.963345 0.925683 0.177198 0.10932
H_ H_ 0.718931 0.587517 0.32122 0.10932
H_ H_ 0.972288 0.583213 0.314692 0.10932
H_ H_ 0.678151 0.636054 0.187464 0.10932
H_ H_ 0.940706 0.643491 0.178999 0.10932
H_ H_ 0.69231 0.653484 0.317807 0.10932
H_ H_ 0.937317 0.642018 0.317038 0.10932
H_ H_ 0.709946 0.577085 0.19072 0.10932
H_ H_ 0.963137 0.576962 0.18279 0.10932
H_ H_ 0.546017 0.573194 0.182973 0.10932
H_ H_ 0.776023 0.595407 0.182766 0.10932
H_ H_ 0.565575 0.64001 0.317261 0.10932
H_ H_ 0.829502 0.625955 0.312679 0.10932
H_ H_ 0.583254 0.627577 0.187607 0.10932
H_ H_ 0.805146 0.654981 0.18447 0.10932
H_ H_ 0.524546 0.588583 0.313331 0.10932
H_ H_ 0.79922 0.563791 0.310783 0.10932
H_ H_ 0.625595 0.688295 0.362468 0.10932
H_ H_ 0.83636 0.748118 0.356816 0.10932
H_ H_ 0.618288 0.816243 0.360151 0.10932
H_ H_ 0.931452 0.748377 0.365054 0.10932
H_ H_ 0.62765 0.821295 0.432966 0.10932
H_ H_ 0.929419 0.750659 0.441519 0.10932
H_ H_ 0.627044 0.689708 0.445316 0.10932
H_ H_ 0.833102 0.740592 0.430079 0.10932
H_ H_ 0.600334 0.694831 0.133511 0.10932
H_ H_ 0.887162 0.69105 0.130554 0.10932
H_ H_ 0.644161 0.812211 0.146588 0.10932
H_ H_ 0.867334 0.817432 0.141325 0.10932
H_ H_ 0.646216 0.817884 0.0667149 0.10932
H_ H_ 0.861995 0.822411 0.0634334 0.10932
H_ H_ 0.591906 0.709383 0.0588573 0.10932
H_ H_ 0.882583 0.695843 0.054155 0.10932
C_ C_ 0.565765 0.848703 0.258305 -0.02249
C_ C_ 0.821553 0.843068 0.252769 -0.02249
C_ C_ 0.517015 0.963777 0.25962 -0.02249
C_ C_ 0.770278 0.957777 0.246256 -0.02249
C_ C_ 0.540411 0.905499 0.219576 -0.11473
C_ C_ 0.78974 0.89298 0.214913 -0.11473
C_ C_ 0.559427 0.868004 0.298083 -0.11473
C_ C_ 0.816851 0.866492 0.289686 -0.11473
C_ C_ 0.556694 0.868581 0.219292 -0.11473
C_ C_ 0.803455 0.853493 0.217077 -0.11473
C_ C_ 0.532729 0.923841 0.257835 -0.02249
C_ C_ 0.787602 0.918409 0.249933 -0.02249
C_ C_ 0.581829 0.808619 0.256905 0.6875
C_ C_ 0.84336 0.807885 0.250713 0.6875
C_ C_ 0.54151 0.904044 0.296944 -0.11473
C_ C_ 0.802852 0.905982 0.286329 -0.11473
C_ C_ 0.687029 0.844233 0.25388 -0.02249
C_ C_ 0.936657 0.849583 0.240502 -0.02249
C_ C_ 0.738533 0.958862 0.255749 -0.02249
C_ C_ 0.985877 0.963081 0.252826 -0.02249
C_ C_ 0.713867 0.898316 0.292099 -0.11473
C_ C_ 0.961989 0.900624 0.28431 -0.11473
C_ C_ 0.698051 0.86334 0.21507 -0.11473
C_ C_ 0.939717 0.87419 0.205048 -0.11473
C_ C_ 0.697242 0.862048 0.292374 -0.11473
C_ C_ 0.947812 0.862504 0.279833 -0.11473
C_ C_ 0.72297 0.917707 0.254157 -0.02249
C_ C_ 0.96874 0.924654 0.247849 -0.02249
C_ C_ 0.662514 0.808643 0.254707 0.6875
C_ C_ 0.918323 0.811868 0.240967 0.6875
C_ C_ 0.711198 0.902785 0.215811 -0.11473
C_ C_ 0.957899 0.909828 0.207992 -0.11473
C_ C_ 0.684403 0.652228 0.253196 -0.02249
C_ C_ 0.936438 0.648618 0.247412 -0.02249
C_ C_ 0.735439 0.534755 0.258598 -0.02249
C_ C_ 0.987816 0.537572 0.249476 -0.02249
C_ C_ 0.712731 0.599047 0.291376 -0.11473
C_ C_ 0.967564 0.598286 0.286725 -0.11473
C_ C_ 0.691172 0.630893 0.215506 -0.11473
C_ C_ 0.947798 0.63235 0.209153 -0.11473
C_ C_ 0.696894 0.63658 0.288496 -0.11473
C_ C_ 0.945678 0.631144 0.285796 -0.11473
C_ C_ 0.719507 0.575924 0.256274 -0.02249
C_ C_ 0.972277 0.578002 0.248458 -0.02249
C_ C_ 0.662947 0.688716 0.252202 0.6875
C_ C_ 0.921929 0.691316 0.246777 0.6875
C_ C_ 0.707634 0.593779 0.217131 -0.11473
C_ C_ 0.962777 0.595148 0.210676 -0.11473
C_ C_ 0.569829 0.645623 0.252108 -0.02249
C_ C_ 0.819445 0.646764 0.250233 -0.02249
C_ C_ 0.517496 0.533612 0.243553 -0.02249
C_ C_ 0.764287 0.53615 0.242629 -0.02249
C_ C_ 0.549596 0.587634 0.212311 -0.11473
C_ C_ 0.787709 0.599694 0.210808 -0.11473
C_ C_ 0.558408 0.629315 0.287936 -0.11473
C_ C_ 0.815799 0.621868 0.285293 -0.11473
C_ C_ 0.56863 0.622918 0.214272 -0.11473
C_ C_ 0.804273 0.636411 0.212586 -0.11473
C_ C_ 0.533873 0.574015 0.246978 -0.02249
C_ C_ 0.783984 0.574346 0.246841 -0.02249
C_ C_ 0.585365 0.687319 0.251185 0.6875
C_ C_ 0.840866 0.682069 0.250974 0.6875
C_ C_ 0.537896 0.596156 0.285686 -0.11473
C_ C_ 0.798983 0.584134 0.285162 -0.11473
C_ C_ 0.626024 0.715799 0.381322 0.17695
C_ C_ 0.856175 0.752401 0.374553 0.17695
C_ C_ 0.622029 0.78862 0.378603 0.17695
C_ C_ 0.909291 0.751089 0.380184 0.17695
C_ C_ 0.62479 0.791263 0.420436 -0.11473
C_ C_ 0.907844 0.750915 0.424014 -0.11473
C_ C_ 0.624346 0.755536 0.445126 0.23465
C_ C_ 0.879987 0.750087 0.443068 0.23465
C_ C_ 0.623219 0.717153 0.425455 -0.11473
C_ C_ 0.854253 0.746357 0.417853 -0.11473
C_ C_ 0.611159 0.721249 0.120258 0.17695
C_ C_ 0.879553 0.718743 0.1166 0.17695
C_ C_ 0.636757 0.786131 0.127219 0.17695
C_ C_ 0.870494 0.789621 0.122945 0.17695
C_ C_ 0.636773 0.79042 0.0830032 -0.11473
C_ C_ 0.86643 0.792605 0.0788296 -0.11473
C_ C_ 0.626251 0.759035 0.0571652 0.23465
C_ C_ 0.870829 0.758009 0.054031 0.23465
C_ C_ 0.610706 0.725859 0.0755068 -0.11473
C_ C_ 0.874626 0.719499 0.0723314 -0.11473
C_ C_ 0.533895 1.0000411276 0.261176 0.05793
C_ C_ 0.785868 0.995241 0.245039 0.05793
C_ C_ 0.72238 0.498467 0.273445 0.05793
C_ C_ 0.970687 0.501015 0.258732 0.05793
Br Br 0.576939 0.998482 0.276039 -0.17191
Br Br 0.826884 0.990991 0.224921 -0.17191
Br Br 0.68581 0.50171 0.30603 -0.17191
Br Br 0.926223 0.504889 0.257445 -0.17191
N_ N_ 0.625856 0.751547 0.358488 -0.272
N_ N_ 0.883681 0.752374 0.355369 -0.272
N_ N_ 0.631426 0.759756 0.489489 -0.12501
N_ N_ 0.880262 0.741651 0.486491 -0.12501
N_ N_ 0.621567 0.753108 0.145591 -0.272
N_ N_ 0.876459 0.752211 0.142124 -0.272
N_ N_ 0.627739 0.766062 0.0135803 -0.12501
N_ N_ 0.867077 0.76088 0.0102419 -0.12501
O_ O_ 0.593346 0.796918 0.222748 -0.60745
O_ O_ 0.846938 0.789861 0.216236 -0.60745
O_ O_ 0.59028 0.793477 0.292932 -0.60745
O_ O_ 0.852807 0.789889 0.283955 -0.60745
O_ O_ 0.651016 0.79765 0.288194 -0.60745
O_ O_ 0.90999 0.796 0.275969 -0.60745
O_ O_ 0.656491 0.787973 0.221454 -0.60745
O_ O_ 0.9066 0.79726 0.207268 -0.60745
O_ O_ 0.65801 0.710197 0.284814 -0.60745
O_ O_ 0.915859 0.708252 0.282177 -0.60745
O_ O_ 0.649629 0.699761 0.217708 -0.60745
O_ O_ 0.913819 0.707305 0.211044 -0.60745
O_ O_ 0.589338 0.7042 0.217267 -0.60745
O_ O_ 0.849196 0.69877 0.215992 -0.60745
O_ O_ 0.593325 0.704191 0.286477 -0.60745
O_ O_ 0.850314 0.698156 0.285709 -0.60745
Zn Zn 0.621475 0.754437 0.78399 0.9476
Zn Zn 0.874523 0.750858 0.783198 0.9476
Zn Zn 0.625658 0.753588 0.717562 0.9476
Zn Zn 0.871339 0.746997 0.713515 0.9476
H_ H_ 0.526434 0.917155 0.677342 0.10932
H_ H_ 0.796978 0.931469 0.691906 0.10932
H_ H_ 0.578153 0.870522 0.810402 0.10932
H_ H_ 0.793422 0.840239 0.817588 0.10932
H_ H_ 0.55512 0.852405 0.680699 0.10932
H_ H_ 0.827145 0.866275 0.693604 0.10932
H_ H_ 0.545512 0.932832 0.809393 0.10932
H_ H_ 0.771876 0.908945 0.816593 0.10932
H_ H_ 0.702103 0.932335 0.811781 0.10932
H_ H_ 0.974328 0.906081 0.81316 0.10932
H_ H_ 0.699653 0.841777 0.687197 0.10932
H_ H_ 0.926164 0.853798 0.680087 0.10932
H_ H_ 0.668232 0.870942 0.812767 0.10932
H_ H_ 0.950028 0.840282 0.811999 0.10932
H_ H_ 0.732215 0.90658 0.687816 0.10932
H_ H_ 0.955484 0.919771 0.680675 0.10932
H_ H_ 0.716023 0.586289 0.823971 0.10932
H_ H_ 0.951347 0.574835 0.802572 0.10932
H_ H_ 0.678038 0.645721 0.690315 0.10932
H_ H_ 0.94152 0.654708 0.672279 0.10932
H_ H_ 0.682576 0.647586 0.823918 0.10932
H_ H_ 0.923104 0.639055 0.803803 0.10932
H_ H_ 0.716575 0.589308 0.689355 0.10932
H_ H_ 0.968733 0.588402 0.673532 0.10932
H_ H_ 0.517508 0.59618 0.679099 0.10932
H_ H_ 0.791581 0.574426 0.691306 0.10932
H_ H_ 0.570626 0.636261 0.81458 0.10932
H_ H_ 0.802547 0.659824 0.818679 0.10932
H_ H_ 0.54797 0.662051 0.683736 0.10932
H_ H_ 0.812245 0.647183 0.68317 0.10932
H_ H_ 0.543518 0.570858 0.807092 0.10932
H_ H_ 0.777071 0.589547 0.82011 0.10932
H_ H_ 0.576032 0.733244 0.854326 0.10932
H_ H_ 0.90232 0.69481 0.853961 0.10932
H_ H_ 0.664121 0.777805 0.867051 0.10932
H_ H_ 0.859269 0.808685 0.859482 0.10932
H_ H_ 0.662562 0.761952 0.945314 0.10932
H_ H_ 0.859143 0.804795 0.941312 0.10932
H_ H_ 0.569764 0.733326 0.933939 0.10932
H_ H_ 0.894235 0.68311 0.927364 0.10932
H_ H_ 0.639053 0.686347 0.655038 0.10932
H_ H_ 0.857529 0.816956 0.647276 0.10932
H_ H_ 0.621959 0.815394 0.637008 0.10932
H_ H_ 0.877014 0.687546 0.636088 0.10932
H_ H_ 0.618875 0.802939 0.556546 0.10932
H_ H_ 0.880876 0.696884 0.554542 0.10932
H_ H_ 0.635992 0.677311 0.577338 0.10932
H_ H_ 0.852373 0.823687 0.56479 0.10932
C_ C_ 0.565911 0.851969 0.745276 -0.02249
C_ C_ 0.812105 0.844576 0.753934 -0.02249
C_ C_ 0.512324 0.966987 0.743554 -0.02249
C_ C_ 0.765706 0.963143 0.754194 -0.02249
C_ C_ 0.533759 0.903093 0.707472 -0.11473
C_ C_ 0.794707 0.908418 0.718091 -0.11473
C_ C_ 0.562283 0.876653 0.782763 -0.11473
C_ C_ 0.795579 0.858233 0.788888 -0.11473
C_ C_ 0.552987 0.86816 0.708815 -0.11473
C_ C_ 0.812963 0.87266 0.719476 -0.11473
C_ C_ 0.530301 0.925783 0.74446 -0.02249
C_ C_ 0.779864 0.921851 0.75244 -0.02249
C_ C_ 0.58605 0.813962 0.74769 0.6875
C_ C_ 0.832464 0.808088 0.754418 0.6875
C_ C_ 0.546442 0.914084 0.781878 -0.11473
C_ C_ 0.781943 0.897339 0.7887 -0.11473
C_ C_ 0.683152 0.84971 0.750952 -0.02249
C_ C_ 0.932854 0.843703 0.748184 -0.02249
C_ C_ 0.734684 0.965809 0.748362 -0.02249
C_ C_ 0.979345 0.962207 0.746416 -0.02249
C_ C_ 0.700318 0.913166 0.783678 -0.11473
C_ C_ 0.964207 0.893783 0.783882 -0.11473
C_ C_ 0.700013 0.862023 0.71479 -0.11473
C_ C_ 0.936953 0.865081 0.70989 -0.11473
C_ C_ 0.682877 0.877513 0.786399 -0.11473
C_ C_ 0.950459 0.855974 0.783337 -0.11473
C_ C_ 0.715425 0.926333 0.746392 -0.02249
C_ C_ 0.962651 0.921769 0.749315 -0.02249
C_ C_ 0.666459 0.811373 0.750106 0.6875
C_ C_ 0.909911 0.809596 0.750605 0.6875
C_ C_ 0.715936 0.899824 0.711992 -0.11473
C_ C_ 0.951118 0.905729 0.711859 -0.11473
C_ C_ 0.681716 0.652126 0.757852 -0.02249
C_ C_ 0.929818 0.651522 0.739819 -0.02249
C_ C_ 0.731564 0.538594 0.755634 -0.02249
C_ C_ 0.97733 0.537659 0.741352 -0.02249
C_ C_ 0.706778 0.597258 0.794341 -0.11473
C_ C_ 0.946592 0.589828 0.774286 -0.11473
C_ C_ 0.688661 0.634405 0.719829 -0.11473
C_ C_ 0.940931 0.635176 0.701249 -0.11473
C_ C_ 0.68775 0.632097 0.795182 -0.11473
C_ C_ 0.932237 0.627298 0.77524 -0.11473
C_ C_ 0.716095 0.579874 0.755676 -0.02249
C_ C_ 0.959893 0.575916 0.73834 -0.02249
C_ C_ 0.663277 0.691389 0.75634 0.6875
C_ C_ 0.913928 0.691911 0.740554 0.6875
C_ C_ 0.706394 0.598763 0.718537 -0.11473
C_ C_ 0.956007 0.597775 0.7008 -0.11473
C_ C_ 0.564231 0.653054 0.747077 -0.02249
C_ C_ 0.810068 0.657126 0.750552 -0.02249
C_ C_ 0.513744 0.538583 0.742019 -0.02249
C_ C_ 0.76362 0.539077 0.755882 -0.02249
C_ C_ 0.530178 0.605048 0.708133 -0.11473
C_ C_ 0.789334 0.596869 0.715747 -0.11473
C_ C_ 0.564063 0.626832 0.782794 -0.11473
C_ C_ 0.800859 0.640489 0.789872 -0.11473
C_ C_ 0.549533 0.639849 0.709201 -0.11473
C_ C_ 0.804898 0.634681 0.712726 -0.11473
C_ C_ 0.529634 0.579945 0.743087 -0.02249
C_ C_ 0.779357 0.580963 0.753707 -0.02249
C_ C_ 0.583348 0.692621 0.74741 0.6875
C_ C_ 0.829721 0.693881 0.747049 0.6875
C_ C_ 0.545436 0.590217 0.780741 -0.11473
C_ C_ 0.786418 0.601809 0.791042 -0.11473
C_ C_ 0.594272 0.741737 0.874798 0.17695
C_ C_ 0.89119 0.717092 0.871335 0.17695
C_ C_ 0.643646 0.763847 0.880249 0.17695
C_ C_ 0.866755 0.782237 0.875505 0.17695
C_ C_ 0.642907 0.758575 0.924949 -0.11473
C_ C_ 0.867924 0.779546 0.919907 -0.11473
C_ C_ 0.61628 0.747382 0.943937 0.23465
C_ C_ 0.878851 0.742967 0.939591 0.23465
C_ C_ 0.591328 0.738486 0.918447 -0.11473
C_ C_ 0.888167 0.711681 0.914669 -0.11473
C_ C_ 0.634587 0.712211 0.632918 0.17695
C_ C_ 0.861177 0.791004 0.626569 0.17695
C_ C_ 0.623972 0.783301 0.623347 0.17695
C_ C_ 0.874204 0.71877 0.620869 0.17695
C_ C_ 0.625386 0.778555 0.578926 -0.11473
C_ C_ 0.875261 0.722352 0.575477 -0.11473
C_ C_ 0.627267 0.738463 0.561189 0.23465
C_ C_ 0.869847 0.761506 0.556485 0.23465
C_ C_ 0.628884 0.704665 0.590905 -0.11473
C_ C_ 0.859443 0.794154 0.582155 -0.11473
C_ C_ 0.528921 0.00352873 0.742223 0.05793
C_ C_ 0.781897 0.00260489 0.757001 0.05793
C_ C_ 0.715776 0.499073 0.755296 0.05793
C_ C_ 0.964529 0.498062 0.742093 0.05793
Br Br 0.572342 0.00312992 0.730444 -0.17191
Br Br 0.825123 1.00286422 0.756026 -0.17191
Br Br 0.673285 0.501942 0.758185 -0.17191
Br Br 0.921568 0.495094 0.746645 -0.17191
N_ N_ 0.619955 0.751868 0.855898 -0.272
N_ N_ 0.88119 0.752726 0.852674 -0.272
N_ N_ 0.615497 0.742098 0.988207 -0.12501
N_ N_ 0.881325 0.736343 0.985771 -0.12501
N_ N_ 0.626935 0.749636 0.648346 -0.272
N_ N_ 0.867388 0.752449 0.645559 -0.272
N_ N_ 0.625102 0.731212 0.515702 -0.12501
N_ N_ 0.868483 0.766001 0.512515 -0.12501
O_ O_ 0.593881 0.795298 0.713797 -0.60745
O_ O_ 0.840072 0.79146 0.720124 -0.60745
O_ O_ 0.594281 0.799276 0.782799 -0.60745
O_ O_ 0.847091 0.798509 0.787335 -0.60745
O_ O_ 0.656026 0.796549 0.783601 -0.60745
O_ O_ 0.909999 0.785818 0.781882 -0.60745
O_ O_ 0.65794 0.795506 0.71548 -0.60745
O_ O_ 0.897666 0.797388 0.716299 -0.60745
O_ O_ 0.648311 0.702189 0.788928 -0.60745
O_ O_ 0.905959 0.706274 0.774574 -0.60745
O_ O_ 0.657907 0.711005 0.721647 -0.60745
O_ O_ 0.90685 0.709907 0.705901 -0.60745
O_ O_ 0.594134 0.708168 0.714733 -0.60745
O_ O_ 0.845315 0.698751 0.714706 -0.60745
O_ O_ 0.585295 0.713526 0.781149 -0.60745
O_ O_ 0.837729 0.71196 0.782088 -0.60745
_cell_length_a 44.444
_cell_length_b 32.3360000049186
_cell_length_c 31.843999878906452
_cell_angle_alpha 89.99799923859553
_cell_angle_beta 91.13600050494348
_cell_angle_gamma 89.9990006550086
_symmetry_space_group_name_H-M         'P 1'
_symmetry_Int_Tables_number            1
loop_
_symmetry_equiv_pos_as_xyz
   'x, y, z'
                         
loop_
_atom_site_label
_atom_site_type_symbol
_atom_site_fract_x 
_atom_site_fract_y
_atom_site_fract_z
_atom_site_charge
Zn Zn 0.129743 0.251715 0.283378 0.9476
Zn Zn 0.374864 0.252081 0.289412 0.9476
Zn Zn 0.127485 0.253266 0.213786 0.9476
Zn Zn 0.376445 0.24839 0.220229 0.9476
H_ H_ 0.0205843 0.408222 0.184316 0.10932
H_ H_ 0.278901 0.40981 0.191461 0.10932
H_ H_ 0.0787625 0.363955 0.310956 0.10932
H_ H_ 0.320206 0.356859 0.32515 0.10932
H_ H_ 0.0505124 0.344215 0.182528 0.10932
H_ H_ 0.30748 0.351074 0.191938 0.10932
H_ H_ 0.0383571 0.420124 0.311932 0.10932
H_ H_ 0.291794 0.424088 0.32393 0.10932
H_ H_ 0.231189 0.401929 0.316271 0.10932
H_ H_ 0.46416 0.424782 0.31124 0.10932
H_ H_ 0.170481 0.368622 0.191417 0.10932
H_ H_ 0.44483 0.342872 0.183298 0.10932
H_ H_ 0.208907 0.33454 0.311646 0.10932
H_ H_ 0.422401 0.367807 0.312569 0.10932
H_ H_ 0.196695 0.436456 0.195001 0.10932
H_ H_ 0.464165 0.413057 0.179194 0.10932
H_ H_ 0.22466 0.0909171 0.319943 0.10932
H_ H_ 0.464535 0.0813365 0.319159 0.10932
H_ H_ 0.175187 0.135798 0.185884 0.10932
H_ H_ 0.449395 0.161989 0.18917 0.10932
H_ H_ 0.192356 0.151964 0.320138 0.10932
H_ H_ 0.436823 0.143337 0.322095 0.10932
H_ H_ 0.204312 0.073258 0.188916 0.10932
H_ H_ 0.470046 0.088701 0.184441 0.10932
H_ H_ 0.0430019 0.0811013 0.181426 0.10932
H_ H_ 0.265555 0.0987049 0.18946 0.10932
H_ H_ 0.0700053 0.143843 0.317834 0.10932
H_ H_ 0.329574 0.127777 0.31451 0.10932
H_ H_ 0.0677511 0.145729 0.181186 0.10932
H_ H_ 0.299458 0.157683 0.191455 0.10932
H_ H_ 0.0385828 0.0802985 0.316493 0.10932
H_ H_ 0.299776 0.0650105 0.312838 0.10932
H_ H_ 0.134807 0.317836 0.349463 0.10932
H_ H_ 0.37115 0.317804 0.372135 0.10932
H_ H_ 0.126721 0.189208 0.362108 0.10932
H_ H_ 0.376833 0.186646 0.354791 0.10932
H_ H_ 0.130911 0.192106 0.439565 0.10932
H_ H_ 0.377705 0.176431 0.432747 0.10932
H_ H_ 0.129625 0.325645 0.426473 0.10932
H_ H_ 0.371257 0.311342 0.448527 0.10932
H_ H_ 0.138868 0.315495 0.14025 0.10932
H_ H_ 0.357408 0.302823 0.143823 0.10932
H_ H_ 0.120726 0.188008 0.139039 0.10932
H_ H_ 0.394496 0.182122 0.147774 0.10932
H_ H_ 0.118689 0.187851 0.0609491 0.10932
H_ H_ 0.38846 0.173116 0.0725351 0.10932
H_ H_ 0.132501 0.318949 0.0631594 0.10932
H_ H_ 0.362274 0.301145 0.062029 0.10932
C_ C_ 0.0640448 0.344369 0.248563 -0.02249
C_ C_ 0.317944 0.348619 0.257871 -0.02249
C_ C_ 0.0154275 0.45912 0.24732 -0.02249
C_ C_ 0.267861 0.462015 0.255188 -0.02249
C_ C_ 0.0292333 0.392936 0.213029 -0.11473
C_ C_ 0.291027 0.401747 0.219209 -0.11473
C_ C_ 0.0627423 0.367487 0.28496 -0.11473
C_ C_ 0.313402 0.371419 0.296453 -0.11473
C_ C_ 0.047792 0.358841 0.210444 -0.11473
C_ C_ 0.307415 0.366524 0.221107 -0.11473
C_ C_ 0.0273452 0.41555 0.248638 -0.02249
C_ C_ 0.285604 0.423166 0.257454 -0.02249
C_ C_ 0.0873252 0.310112 0.247383 0.6875
C_ C_ 0.335552 0.30778 0.258902 0.6875
C_ C_ 0.0448616 0.404419 0.284576 -0.11473
C_ C_ 0.29672 0.408474 0.295626 -0.11473
C_ C_ 0.187895 0.347472 0.249466 -0.02249
C_ C_ 0.434393 0.346121 0.250526 -0.02249
C_ C_ 0.236339 0.462056 0.255949 -0.02249
C_ C_ 0.485031 0.45902 0.244361 -0.02249
C_ C_ 0.220896 0.39452 0.287569 -0.11473
C_ C_ 0.457097 0.407583 0.284542 -0.11473
C_ C_ 0.183496 0.37715 0.218411 -0.11473
C_ C_ 0.445068 0.361912 0.212039 -0.11473
C_ C_ 0.206988 0.356364 0.283602 -0.11473
C_ C_ 0.437354 0.373636 0.285149 -0.11473
C_ C_ 0.218563 0.423093 0.253976 -0.02249
C_ C_ 0.467252 0.421567 0.245788 -0.02249
C_ C_ 0.169336 0.310035 0.250614 0.6875
C_ C_ 0.415053 0.308522 0.25347 0.6875
C_ C_ 0.199772 0.413108 0.219217 -0.11473
C_ C_ 0.459978 0.400124 0.208797 -0.11473
C_ C_ 0.180727 0.149471 0.252808 -0.02249
C_ C_ 0.434668 0.154738 0.253537 -0.02249
C_ C_ 0.233112 0.0350552 0.254048 -0.02249
C_ C_ 0.487722 0.0403032 0.252815 -0.02249
C_ C_ 0.211695 0.0982398 0.291475 -0.11473
C_ C_ 0.461991 0.0991398 0.288693 -0.11473
C_ C_ 0.185245 0.125462 0.215613 -0.11473
C_ C_ 0.44951 0.142173 0.215297 -0.11473
C_ C_ 0.194636 0.135053 0.290566 -0.11473
C_ C_ 0.443341 0.133861 0.290469 -0.11473
C_ C_ 0.214332 0.0737914 0.254695 -0.02249
C_ C_ 0.47147 0.08145 0.251186 -0.02249
C_ C_ 0.167655 0.192121 0.250245 0.6875
C_ C_ 0.416181 0.193094 0.255111 0.6875
C_ C_ 0.204409 0.0906883 0.216579 -0.11473
C_ C_ 0.465305 0.104036 0.214055 -0.11473
C_ C_ 0.0711445 0.151151 0.250636 -0.02249
C_ C_ 0.314725 0.15138 0.254351 -0.02249
C_ C_ 0.0187078 0.0385424 0.247805 -0.02249
C_ C_ 0.263874 0.0376002 0.249168 -0.02249
C_ C_ 0.0471807 0.0942153 0.212288 -0.11473
C_ C_ 0.278907 0.105392 0.218648 -0.11473
C_ C_ 0.0620078 0.132187 0.288854 -0.11473
C_ C_ 0.314439 0.124063 0.289007 -0.11473
C_ C_ 0.0603768 0.133121 0.211475 -0.11473
C_ C_ 0.296976 0.141289 0.219707 -0.11473
C_ C_ 0.0352998 0.0773431 0.248353 -0.02249
C_ C_ 0.279231 0.0772821 0.252524 -0.02249
C_ C_ 0.0888339 0.190318 0.24919 0.6875
C_ C_ 0.336496 0.187969 0.255153 0.6875
C_ C_ 0.0445618 0.095985 0.286917 -0.11473
C_ C_ 0.29732 0.0872984 0.28694 -0.11473
C_ C_ 0.133415 0.29128 0.369697 0.17695
C_ C_ 0.372192 0.286526 0.387096 0.17695
C_ C_ 0.131499 0.216987 0.376685 0.17695
C_ C_ 0.375843 0.212757 0.375758 0.17695
C_ C_ 0.130251 0.221149 0.420259 -0.11473
C_ C_ 0.373224 0.206456 0.419348 -0.11473
C_ C_ 0.13061 0.260431 0.439851 0.23465
C_ C_ 0.372221 0.241451 0.447715 0.23465
C_ C_ 0.132523 0.294595 0.412725 -0.11473
C_ C_ 0.371911 0.281806 0.429949 -0.11473
C_ C_ 0.131623 0.290074 0.12206 0.17695
C_ C_ 0.367116 0.275935 0.126408 0.17695
C_ C_ 0.122149 0.217478 0.12199 0.17695
C_ C_ 0.38532 0.206406 0.12954 0.17695
C_ C_ 0.119687 0.217775 0.0765862 -0.11473
C_ C_ 0.386467 0.203618 0.0865007 -0.11473
C_ C_ 0.120791 0.256526 0.0555273 0.23465
C_ C_ 0.377032 0.237699 0.0620156 0.23465
C_ C_ 0.12924 0.291435 0.0786016 -0.11473
C_ C_ 0.36886 0.274605 0.0818421 -0.11473
C_ C_ 0.03366 0.494903 0.248069 0.05793
C_ C_ 0.282563 0.502028 0.255205 0.05793
C_ C_ 0.219344 -0.003955000000000042 0.249764 0.05793
C_ C_ 0.47095 1.00316627 0.250053 0.05793
Br Br 0.0774784 0.49182 0.239348 -0.17191
Br Br 0.326706 0.501468 0.251282 -0.17191
Br Br 0.176822 -0.008974999999999955 0.2542 -0.17191
Br Br 0.429989 1.00991829 0.231438 -0.17191
N_ N_ 0.134266 0.252414 0.352891 -0.272
N_ N_ 0.376017 0.252448 0.360109 -0.272
N_ N_ 0.123787 0.266438 0.483538 -0.12501
N_ N_ 0.375895 0.233802 0.491525 -0.12501
N_ N_ 0.125887 0.254572 0.143304 -0.272
N_ N_ 0.378065 0.243348 0.148597 -0.272
N_ N_ 0.115025 0.261761 0.0116566 -0.12501
N_ N_ 0.373797 0.231183 0.01726 -0.12501
O_ O_ 0.0960718 0.298448 0.212074 -0.60745
O_ O_ 0.34341 0.289575 0.224095 -0.60745
O_ O_ 0.101119 0.297394 0.280067 -0.60745
O_ O_ 0.342438 0.290806 0.292876 -0.60745
O_ O_ 0.163925 0.291428 0.284582 -0.60745
O_ O_ 0.403793 0.297486 0.288735 -0.60745
O_ O_ 0.158607 0.295275 0.21598 -0.60745
O_ O_ 0.404163 0.293505 0.219328 -0.60745
O_ O_ 0.159447 0.207262 0.28502 -0.60745
O_ O_ 0.408918 0.209317 0.289992 -0.60745
O_ O_ 0.155661 0.206015 0.215878 -0.60745
O_ O_ 0.408062 0.209281 0.219458 -0.60745
O_ O_ 0.0942969 0.207416 0.213818 -0.60745
O_ O_ 0.346041 0.201394 0.220343 -0.60745
O_ O_ 0.097775 0.207135 0.283063 -0.60745
O_ O_ 0.344634 0.205716 0.289283 -0.60745
Zn Zn 0.124244 0.247601 0.783376 0.9476
Zn Zn 0.372308 0.250735 0.787102 0.9476
Zn Zn 0.118542 0.249086 0.714329 0.9476
Zn Zn 0.371959 0.253954 0.718582 0.9476
H_ H_ 0.0238041 0.413122 0.685199 0.10932
H_ H_ 0.280874 0.415329 0.677861 0.10932
H_ H_ 0.0644683 0.351282 0.815364 0.10932
H_ H_ 0.307676 0.352212 0.816955 0.10932
H_ H_ 0.0505086 0.345381 0.681935 0.10932
H_ H_ 0.30141 0.344102 0.678788 0.10932
H_ H_ 0.04028 0.422143 0.816539 0.10932
H_ H_ 0.280713 0.414161 0.815627 0.10932
H_ H_ 0.212301 0.422094 0.816437 0.10932
H_ H_ 0.46906 0.415666 0.820675 0.10932
H_ H_ 0.17777 0.352865 0.682143 0.10932
H_ H_ 0.437825 0.355917 0.682183 0.10932
H_ H_ 0.182062 0.358376 0.816803 0.10932
H_ H_ 0.437211 0.352923 0.817147 0.10932
H_ H_ 0.206642 0.418265 0.68203 0.10932
H_ H_ 0.467589 0.416237 0.686072 0.10932
H_ H_ 0.222473 0.0828406 0.811697 0.10932
H_ H_ 0.465946 0.0857738 0.818582 0.10932
H_ H_ 0.172461 0.145161 0.686108 0.10932
H_ H_ 0.431465 0.154229 0.690586 0.10932
H_ H_ 0.192407 0.149792 0.816985 0.10932
H_ H_ 0.441717 0.152331 0.822264 0.10932
H_ H_ 0.197114 0.0759312 0.684324 0.10932
H_ H_ 0.465348 0.0952223 0.686157 0.10932
H_ H_ 0.0113601 0.101946 0.682382 0.10932
H_ H_ 0.283265 0.0824293 0.683011 0.10932
H_ H_ 0.0816153 0.123426 0.802112 0.10932
H_ H_ 0.322506 0.14298 0.816678 0.10932
H_ H_ 0.035702 0.170013 0.691049 0.10932
H_ H_ 0.310616 0.149723 0.685076 0.10932
H_ H_ 0.0488117 0.0604568 0.799838 0.10932
H_ H_ 0.28956 0.0796073 0.81924 0.10932
H_ H_ 0.138019 0.308261 0.864603 0.10932
H_ H_ 0.374743 0.317886 0.855848 0.10932
H_ H_ 0.118398 0.18258 0.850987 0.10932
H_ H_ 0.377546 0.186618 0.866272 0.10932
H_ H_ 0.108884 0.173059 0.927607 0.10932
H_ H_ 0.389079 0.191244 0.940307 0.10932
H_ H_ 0.129636 0.305563 0.942018 0.10932
H_ H_ 0.375735 0.322103 0.937207 0.10932
H_ H_ 0.11293 0.182052 0.638902 0.10932
H_ H_ 0.373571 0.18376 0.644677 0.10932
H_ H_ 0.131429 0.310557 0.638007 0.10932
H_ H_ 0.367508 0.313383 0.648127 0.10932
H_ H_ 0.138103 0.308236 0.560054 0.10932
H_ H_ 0.361744 0.318965 0.570958 0.10932
H_ H_ 0.108324 0.180235 0.560381 0.10932
H_ H_ 0.369273 0.187914 0.564959 0.10932
C_ C_ 0.062498 0.345191 0.749527 -0.02249
C_ C_ 0.309595 0.344268 0.747162 -0.02249
C_ C_ 0.0130615 0.463352 0.750021 -0.02249
C_ C_ 0.262178 0.462429 0.748317 -0.02249
C_ C_ 0.0329424 0.399328 0.71409 -0.11473
C_ C_ 0.285317 0.401429 0.709596 -0.11473
C_ C_ 0.0575118 0.365737 0.786589 -0.11473
C_ C_ 0.301034 0.363586 0.785233 -0.11473
C_ C_ 0.0476957 0.361586 0.71267 -0.11473
C_ C_ 0.299102 0.362451 0.708398 -0.11473
C_ C_ 0.0316812 0.424648 0.749685 -0.02249
C_ C_ 0.277413 0.420453 0.747649 -0.02249
C_ C_ 0.0820916 0.307669 0.746413 0.6875
C_ C_ 0.33013 0.30761 0.748444 0.6875
C_ C_ 0.0439649 0.405946 0.787542 -0.11473
C_ C_ 0.28507 0.400014 0.784491 -0.11473
C_ C_ 0.180735 0.346735 0.750376 -0.02249
C_ C_ 0.433381 0.347024 0.750709 -0.02249
C_ C_ 0.230526 0.462566 0.744266 -0.02249
C_ C_ 0.483101 0.461767 0.752988 -0.02249
C_ C_ 0.208091 0.403551 0.786644 -0.11473
C_ C_ 0.463456 0.399974 0.790297 -0.11473
C_ C_ 0.185796 0.366914 0.71193 -0.11473
C_ C_ 0.444188 0.365746 0.713603 -0.11473
C_ C_ 0.191347 0.36782 0.786764 -0.11473
C_ C_ 0.443453 0.365908 0.788449 -0.11473
C_ C_ 0.213112 0.423483 0.749507 -0.02249
C_ C_ 0.467814 0.421701 0.753188 -0.02249
C_ C_ 0.163084 0.307452 0.751324 0.6875
C_ C_ 0.411032 0.312658 0.751356 0.6875
C_ C_ 0.201997 0.404424 0.711485 -0.11473
C_ C_ 0.458344 0.403954 0.714163 -0.11473
C_ C_ 0.180012 0.15043 0.751987 -0.02249
C_ C_ 0.429912 0.15401 0.754874 -0.02249
C_ C_ 0.231885 0.0343384 0.750019 -0.02249
C_ C_ 0.481407 0.0424042 0.75143 -0.02249
C_ C_ 0.208039 0.0937226 0.786326 -0.11473
C_ C_ 0.460928 0.101341 0.789998 -0.11473
C_ C_ 0.181144 0.130001 0.714546 -0.11473
C_ C_ 0.435102 0.133918 0.717878 -0.11473
C_ C_ 0.191136 0.130888 0.787746 -0.11473
C_ C_ 0.444223 0.138602 0.792604 -0.11473
C_ C_ 0.211437 0.0727041 0.748657 -0.02249
C_ C_ 0.46627 0.0819358 0.752595 -0.02249
C_ C_ 0.162706 0.190006 0.753735 0.6875
C_ C_ 0.410449 0.191728 0.756642 0.6875
C_ C_ 0.19465 0.0894032 0.71344 -0.11473
C_ C_ 0.455007 0.100134 0.715572 -0.11473
C_ C_ 0.0614258 0.151832 0.746071 -0.02249
C_ C_ 0.316021 0.151432 0.751742 -0.02249
C_ C_ 0.0105676 0.0392781 0.741429 -0.02249
C_ C_ 0.264703 0.0358856 0.754843 -0.02249
C_ C_ 0.0247456 0.10753 0.710945 -0.11473
C_ C_ 0.289218 0.0959889 0.712799 -0.11473
C_ C_ 0.0654578 0.119805 0.776344 -0.11473
C_ C_ 0.311523 0.129501 0.789002 -0.11473
C_ C_ 0.0410918 0.145479 0.711963 -0.11473
C_ C_ 0.303323 0.135819 0.714149 -0.11473
C_ C_ 0.0270103 0.078806 0.742907 -0.02249
C_ C_ 0.280498 0.0779532 0.752902 -0.02249
C_ C_ 0.0810663 0.188801 0.74739 0.6875
C_ C_ 0.335536 0.189469 0.75377 0.6875
C_ C_ 0.0479372 0.083888 0.775127 -0.11473
C_ C_ 0.290729 0.0973669 0.790449 -0.11473
C_ C_ 0.128411 0.280995 0.878488 0.17695
C_ C_ 0.373059 0.289829 0.876739 0.17695
C_ C_ 0.119266 0.208754 0.872123 0.17695
C_ C_ 0.377857 0.2165 0.881927 0.17695
C_ C_ 0.115831 0.204324 0.914802 -0.11473
C_ C_ 0.37985 0.219102 0.925178 -0.11473
C_ C_ 0.117949 0.239795 0.940884 0.23465
C_ C_ 0.376237 0.256339 0.945067 0.23465
C_ C_ 0.126982 0.277571 0.922637 -0.11473
C_ C_ 0.374895 0.292366 0.920361 -0.11473
C_ C_ 0.118124 0.21121 0.621888 0.17695
C_ C_ 0.369572 0.213372 0.627064 0.17695
C_ C_ 0.12892 0.282652 0.619383 0.17695
C_ C_ 0.369089 0.286995 0.629088 0.17695
C_ C_ 0.131491 0.281395 0.575307 -0.11473
C_ C_ 0.366522 0.290487 0.585869 -0.11473
C_ C_ 0.123927 0.243717 0.554246 0.23465
C_ C_ 0.369034 0.254926 0.561292 0.23465
C_ C_ 0.115147 0.209175 0.577242 -0.11473
C_ C_ 0.367231 0.215665 0.582393 -0.11473
C_ C_ 0.0264803 0.502579 0.750478 0.05793
C_ C_ 0.279447 0.498732 0.747029 0.05793
C_ C_ 0.217848 -0.004206999999999961 0.758002 0.05793
C_ C_ 0.465708 1.0055518 0.755715 0.05793
Br Br 0.0698688 0.506853 0.762476 -0.17191
Br Br 0.321847 0.496616 0.743057 -0.17191
Br Br 0.176265 -0.0030160000000000187 0.773193 -0.17191
Br Br 0.423607 1.0104562 0.766994 -0.17191
N_ N_ 0.122651 0.246988 0.855105 -0.272
N_ N_ 0.373639 0.252382 0.858379 -0.272
N_ N_ 0.118892 0.232808 0.985329 -0.12501
N_ N_ 0.378015 0.260258 0.991424 -0.12501
N_ N_ 0.123383 0.247866 0.642176 -0.272
N_ N_ 0.36719 0.249664 0.649213 -0.272
N_ N_ 0.130595 0.239836 0.510132 -0.12501
N_ N_ 0.36275 0.257694 0.517043 -0.12501
O_ O_ 0.0883438 0.291803 0.71091 -0.60745
O_ O_ 0.342094 0.295882 0.716029 -0.60745
O_ O_ 0.0935994 0.291639 0.779855 -0.60745
O_ O_ 0.341591 0.295439 0.78395 -0.60745
O_ O_ 0.156845 0.290037 0.786226 -0.60745
O_ O_ 0.402522 0.296521 0.784898 -0.60745
O_ O_ 0.150549 0.293538 0.718096 -0.60745
O_ O_ 0.402369 0.299598 0.717588 -0.60745
O_ O_ 0.157125 0.205056 0.788288 -0.60745
O_ O_ 0.403678 0.204005 0.791416 -0.60745
O_ O_ 0.149295 0.204082 0.720697 -0.60745
O_ O_ 0.402128 0.210149 0.722024 -0.60745
O_ O_ 0.0880641 0.205197 0.712758 -0.60745
O_ O_ 0.340496 0.208967 0.719751 -0.60745
O_ O_ 0.0907076 0.204891 0.781595 -0.60745
O_ O_ 0.34015 0.20564 0.788505 -0.60745
Zn Zn 0.121738 0.750437 0.283647 0.9476
Zn Zn 0.37985 0.748774 0.285114 0.9476
Zn Zn 0.126325 0.751261 0.215433 0.9476
Zn Zn 0.37996 0.750122 0.214005 0.9476
H_ H_ 0.0376354 0.922855 0.186684 0.10932
H_ H_ 0.285098 0.916522 0.176813 0.10932
H_ H_ 0.0533418 0.840416 0.318296 0.10932
H_ H_ 0.328267 0.865919 0.310801 0.10932
H_ H_ 0.0732375 0.864047 0.186314 0.10932
H_ H_ 0.310079 0.846343 0.180365 0.10932
H_ H_ 0.0280762 0.907606 0.319062 0.10932
H_ H_ 0.293766 0.926237 0.311682 0.10932
H_ H_ 0.218911 0.914262 0.315822 0.10932
H_ H_ 0.462783 0.923084 0.322853 0.10932
H_ H_ 0.197891 0.840699 0.183898 0.10932
H_ H_ 0.446688 0.850266 0.187927 0.10932
H_ H_ 0.190435 0.848317 0.316442 0.10932
H_ H_ 0.440269 0.85065 0.322325 0.10932
H_ H_ 0.219426 0.913641 0.178325 0.10932
H_ H_ 0.464777 0.923709 0.188885 0.10932
H_ H_ 0.196875 0.575274 0.320575 0.10932
H_ H_ 0.461984 0.569778 0.314437 0.10932
H_ H_ 0.204429 0.663737 0.192361 0.10932
H_ H_ 0.447495 0.658318 0.187216 0.10932
H_ H_ 0.171375 0.640697 0.3165 0.10932
H_ H_ 0.437549 0.639363 0.319761 0.10932
H_ H_ 0.232096 0.596891 0.19416 0.10932
H_ H_ 0.479095 0.592588 0.182936 0.10932
H_ H_ 0.0424315 0.576554 0.178033 0.10932
H_ H_ 0.284254 0.582958 0.190488 0.10932
H_ H_ 0.0709912 0.640389 0.316044 0.10932
H_ H_ 0.320126 0.646331 0.322447 0.10932
H_ H_ 0.0662249 0.642284 0.180566 0.10932
H_ H_ 0.31124 0.645789 0.188529 0.10932
H_ H_ 0.0383925 0.580089 0.314203 0.10932
H_ H_ 0.288736 0.584947 0.323316 0.10932
H_ H_ 0.131642 0.814123 0.350168 0.10932
H_ H_ 0.386638 0.816723 0.351846 0.10932
H_ H_ 0.122034 0.687092 0.361888 0.10932
H_ H_ 0.377116 0.691451 0.361346 0.10932
H_ H_ 0.130015 0.694663 0.439379 0.10932
H_ H_ 0.378503 0.696839 0.440416 0.10932
H_ H_ 0.126006 0.827097 0.422588 0.10932
H_ H_ 0.385637 0.825496 0.42959 0.10932
H_ H_ 0.121345 0.687498 0.147976 0.10932
H_ H_ 0.371533 0.680804 0.147494 0.10932
H_ H_ 0.130831 0.816337 0.140434 0.10932
H_ H_ 0.380967 0.810732 0.140864 0.10932
H_ H_ 0.133789 0.811661 0.0626104 0.10932
H_ H_ 0.378871 0.808762 0.0592146 0.10932
H_ H_ 0.127547 0.680476 0.071492 0.10932
H_ H_ 0.370701 0.673038 0.0693594 0.10932
C_ C_ 0.0670419 0.848244 0.25382 -0.02249
C_ C_ 0.323332 0.851719 0.245053 -0.02249
C_ C_ 0.0171689 0.96294 0.250988 -0.02249
C_ C_ 0.267839 0.962487 0.24177 -0.02249
C_ C_ 0.0436064 0.907695 0.215907 -0.11473
C_ C_ 0.292973 0.903576 0.20527 -0.11473
C_ C_ 0.053034 0.860917 0.290153 -0.11473
C_ C_ 0.318581 0.87525 0.281425 -0.11473
C_ C_ 0.0622085 0.871175 0.215747 -0.11473
C_ C_ 0.309513 0.866797 0.208068 -0.11473
C_ C_ 0.0328653 0.922511 0.252481 -0.02249
C_ C_ 0.286961 0.925144 0.242961 -0.02249
C_ C_ 0.0861522 0.810758 0.252644 0.6875
C_ C_ 0.344366 0.814312 0.245364 0.6875
C_ C_ 0.0381981 0.898634 0.290251 -0.11473
C_ C_ 0.301104 0.911931 0.281388 -0.11473
C_ C_ 0.185988 0.845818 0.248756 -0.02249
C_ C_ 0.439555 0.848318 0.253538 -0.02249
C_ C_ 0.236405 0.960075 0.247861 -0.02249
C_ C_ 0.485497 0.964412 0.257017 -0.02249
C_ C_ 0.212793 0.899204 0.286283 -0.11473
C_ C_ 0.459807 0.906243 0.292963 -0.11473
C_ C_ 0.199236 0.861707 0.212096 -0.11473
C_ C_ 0.44854 0.866864 0.215903 -0.11473
C_ C_ 0.197007 0.863222 0.286309 -0.11473
C_ C_ 0.446268 0.867139 0.292008 -0.11473
C_ C_ 0.220752 0.918676 0.247748 -0.02249
C_ C_ 0.468103 0.925498 0.255488 -0.02249
C_ C_ 0.165801 0.807998 0.248499 0.6875
C_ C_ 0.420342 0.80859 0.252045 0.6875
C_ C_ 0.215367 0.898741 0.21049 -0.11473
C_ C_ 0.462529 0.905938 0.216518 -0.11473
C_ C_ 0.183738 0.655013 0.252793 -0.02249
C_ C_ 0.437926 0.651783 0.254081 -0.02249
C_ C_ 0.235117 0.537776 0.257701 -0.02249
C_ C_ 0.486656 0.535356 0.241435 -0.02249
C_ C_ 0.200818 0.593229 0.291553 -0.11473
C_ C_ 0.461213 0.589565 0.287547 -0.11473
C_ C_ 0.202051 0.642912 0.218329 -0.11473
C_ C_ 0.452472 0.640746 0.215848 -0.11473
C_ C_ 0.185007 0.629914 0.289035 -0.11473
C_ C_ 0.445031 0.627177 0.289227 -0.11473
C_ C_ 0.218144 0.580579 0.257738 -0.02249
C_ C_ 0.4715 0.575719 0.248276 -0.02249
C_ C_ 0.165261 0.694555 0.250143 0.6875
C_ C_ 0.416512 0.687425 0.254761 0.6875
C_ C_ 0.218087 0.605123 0.220879 -0.11473
C_ C_ 0.467258 0.601596 0.21214 -0.11473
C_ C_ 0.0693473 0.647949 0.247266 -0.02249
C_ C_ 0.322805 0.648849 0.255091 -0.02249
C_ C_ 0.0189049 0.533676 0.246485 -0.02249
C_ C_ 0.267096 0.538362 0.258418 -0.02249
C_ C_ 0.0454525 0.590301 0.208142 -0.11473
C_ C_ 0.294712 0.593741 0.21928 -0.11473
C_ C_ 0.0598286 0.632096 0.285285 -0.11473
C_ C_ 0.312162 0.632605 0.292855 -0.11473
C_ C_ 0.0598454 0.630073 0.210052 -0.11473
C_ C_ 0.312778 0.630682 0.217673 -0.11473
C_ C_ 0.0362682 0.573137 0.245694 -0.02249
C_ C_ 0.284117 0.579093 0.256523 -0.02249
C_ C_ 0.0862345 0.688484 0.2481 0.6875
C_ C_ 0.339613 0.690302 0.254239 0.6875
C_ C_ 0.0430659 0.594455 0.284292 -0.11473
C_ C_ 0.294544 0.596758 0.29398 -0.11473
C_ C_ 0.127303 0.790253 0.369149 0.17695
C_ C_ 0.380832 0.790871 0.371975 0.17695
C_ C_ 0.12086 0.717659 0.378181 0.17695
C_ C_ 0.3787 0.720141 0.376511 0.17695
C_ C_ 0.124214 0.72227 0.421134 -0.11473
C_ C_ 0.375987 0.721954 0.419909 -0.11473
C_ C_ 0.123884 0.762206 0.440718 0.23465
C_ C_ 0.376056 0.759911 0.439506 0.23465
C_ C_ 0.126412 0.796334 0.411329 -0.11473
C_ C_ 0.379314 0.795462 0.415565 -0.11473
C_ C_ 0.121196 0.713655 0.127937 0.17695
C_ C_ 0.375805 0.708035 0.127702 0.17695
C_ C_ 0.129186 0.787337 0.123158 0.17695
C_ C_ 0.382606 0.780746 0.123387 0.17695
C_ C_ 0.127478 0.784047 0.0793556 -0.11473
C_ C_ 0.379206 0.780102 0.0776745 -0.11473
C_ C_ 0.127202 0.746054 0.0588858 0.23465
C_ C_ 0.376097 0.740239 0.0571329 0.23465
C_ C_ 0.123936 0.70977 0.0842911 -0.11473
C_ C_ 0.374331 0.704568 0.0834517 -0.11473
C_ C_ 0.0336916 1.000129596 0.251088 0.05793
C_ C_ 0.281405 1.00172206 0.243006 0.05793
C_ C_ 0.220588 0.499821 0.259392 0.05793
C_ C_ 0.469977 0.498482 0.242127 0.05793
Br Br 0.076847 -0.0023600000000000287 0.260247 -0.17191
Br Br 0.323629 1.00925089 0.226743 -0.17191
Br Br 0.177746 0.49833 0.270584 -0.17191
Br Br 0.427207 0.50437 0.238025 -0.17191
N_ N_ 0.124128 0.751726 0.352939 -0.272
N_ N_ 0.380487 0.753568 0.353506 -0.272
N_ N_ 0.127931 0.769472 0.484277 -0.12501
N_ N_ 0.380402 0.763285 0.483018 -0.12501
N_ N_ 0.124898 0.752098 0.146641 -0.272
N_ N_ 0.380155 0.744762 0.14644 -0.272
N_ N_ 0.132238 0.742573 0.014674 -0.12501
N_ N_ 0.370881 0.738864 0.0127661 -0.12501
O_ O_ 0.0940739 0.795085 0.217787 -0.60745
O_ O_ 0.352195 0.797406 0.209562 -0.60745
O_ O_ 0.0884891 0.789365 0.286185 -0.60745
O_ O_ 0.351788 0.798611 0.279614 -0.60745
O_ O_ 0.153087 0.796163 0.281698 -0.60745
O_ O_ 0.413328 0.790486 0.286006 -0.60745
O_ O_ 0.158587 0.792309 0.213539 -0.60745
O_ O_ 0.411561 0.793887 0.216421 -0.60745
O_ O_ 0.155717 0.710851 0.283548 -0.60745
O_ O_ 0.410219 0.703768 0.289751 -0.60745
O_ O_ 0.157853 0.708437 0.215539 -0.60745
O_ O_ 0.408763 0.703408 0.218945 -0.60745
O_ O_ 0.094662 0.705002 0.214026 -0.60745
O_ O_ 0.350815 0.705097 0.220265 -0.60745
O_ O_ 0.0942581 0.70508 0.282975 -0.60745
O_ O_ 0.347877 0.706842 0.287975 -0.60745
Zn Zn 0.122049 0.750366 0.785321 0.9476
Zn Zn 0.375195 0.746826 0.782786 0.9476
Zn Zn 0.121468 0.749858 0.714779 0.9476
Zn Zn 0.374936 0.748029 0.71373 0.9476
H_ H_ 0.0154168 0.902251 0.681957 0.10932
H_ H_ 0.277713 0.907709 0.685982 0.10932
H_ H_ 0.0745729 0.866401 0.811664 0.10932
H_ H_ 0.315288 0.845733 0.818979 0.10932
H_ H_ 0.0443119 0.839859 0.682714 0.10932
H_ H_ 0.312678 0.849365 0.686125 0.10932
H_ H_ 0.0492783 0.932722 0.807457 0.10932
H_ H_ 0.281024 0.905691 0.821316 0.10932
H_ H_ 0.223854 0.904608 0.823323 0.10932
H_ H_ 0.453164 0.928457 0.81342 0.10932
H_ H_ 0.181837 0.855378 0.686778 0.10932
H_ H_ 0.435653 0.859221 0.678282 0.10932
H_ H_ 0.195093 0.840632 0.818723 0.10932
H_ H_ 0.422487 0.862029 0.810776 0.10932
H_ H_ 0.216389 0.915924 0.687114 0.10932
H_ H_ 0.467097 0.919203 0.682549 0.10932
H_ H_ 0.227401 0.592088 0.81138 0.10932
H_ H_ 0.478034 0.587812 0.813728 0.10932
H_ H_ 0.17242 0.641425 0.684984 0.10932
H_ H_ 0.427774 0.641784 0.686009 0.10932
H_ H_ 0.190442 0.648979 0.816788 0.10932
H_ H_ 0.458749 0.661906 0.812819 0.10932
H_ H_ 0.200498 0.579516 0.680873 0.10932
H_ H_ 0.454888 0.578056 0.684145 0.10932
H_ H_ 0.0402107 0.57401 0.679922 0.10932
H_ H_ 0.277413 0.590407 0.676633 0.10932
H_ H_ 0.0562237 0.648991 0.816372 0.10932
H_ H_ 0.323369 0.636464 0.812702 0.10932
H_ H_ 0.0662302 0.64186 0.679175 0.10932
H_ H_ 0.302272 0.656877 0.682126 0.10932
H_ H_ 0.0205169 0.59244 0.810648 0.10932
H_ H_ 0.298685 0.571534 0.807492 0.10932
H_ H_ 0.112103 0.821999 0.857156 0.10932
H_ H_ 0.387457 0.81108 0.85629 0.10932
H_ H_ 0.127137 0.693084 0.86607 0.10932
H_ H_ 0.370301 0.680885 0.863204 0.10932
H_ H_ 0.131453 0.699933 0.945588 0.10932
H_ H_ 0.376451 0.683993 0.938198 0.10932
H_ H_ 0.106103 0.82763 0.932977 0.10932
H_ H_ 0.389287 0.815989 0.938625 0.10932
H_ H_ 0.170013 0.753123 0.637675 0.10932
H_ H_ 0.370398 0.681793 0.641362 0.10932
H_ H_ 0.0771382 0.759475 0.64386 0.10932
H_ H_ 0.383764 0.811775 0.632226 0.10932
H_ H_ 0.0725685 0.754181 0.568828 0.10932
H_ H_ 0.379889 0.807721 0.554598 0.10932
H_ H_ 0.167994 0.753407 0.554718 0.10932
H_ H_ 0.379049 0.673863 0.568056 0.10932
C_ C_ 0.060574 0.847063 0.747854 -0.02249
C_ C_ 0.316117 0.843089 0.752262 -0.02249
C_ C_ 0.0112801 0.962848 0.742412 -0.02249
C_ C_ 0.264592 0.957566 0.753489 -0.02249
C_ C_ 0.0301859 0.897628 0.707753 -0.11473
C_ C_ 0.285757 0.895354 0.715725 -0.11473
C_ C_ 0.0614321 0.872778 0.783192 -0.11473
C_ C_ 0.307892 0.861327 0.790193 -0.11473
C_ C_ 0.0423627 0.858175 0.711738 -0.11473
C_ C_ 0.303983 0.860064 0.714843 -0.11473
C_ C_ 0.0283523 0.922437 0.744067 -0.02249
C_ C_ 0.282359 0.917225 0.754132 -0.02249
C_ C_ 0.0810474 0.810956 0.748693 0.6875
C_ C_ 0.336174 0.805041 0.751197 0.6875
C_ C_ 0.0463065 0.911088 0.779585 -0.11473
C_ C_ 0.293 0.898776 0.791164 -0.11473
C_ C_ 0.185146 0.841945 0.751951 -0.02249
C_ C_ 0.426834 0.854087 0.743245 -0.02249
C_ C_ 0.232657 0.958491 0.756526 -0.02249
C_ C_ 0.480213 0.967352 0.748884 -0.02249
C_ C_ 0.214359 0.893907 0.791797 -0.11473
C_ C_ 0.449882 0.911138 0.784447 -0.11473
C_ C_ 0.191129 0.865614 0.715529 -0.11473
C_ C_ 0.438078 0.872229 0.707353 -0.11473
C_ C_ 0.197627 0.856799 0.790226 -0.11473
C_ C_ 0.430196 0.876119 0.781598 -0.11473
C_ C_ 0.21671 0.918694 0.755061 -0.02249
C_ C_ 0.463019 0.927239 0.747626 -0.02249
C_ C_ 0.161939 0.809421 0.752139 0.6875
C_ C_ 0.408056 0.815028 0.743847 0.6875
C_ C_ 0.208445 0.900443 0.716067 -0.11473
C_ C_ 0.454802 0.907823 0.709298 -0.11473
C_ C_ 0.18126 0.652757 0.749958 -0.02249
C_ C_ 0.437877 0.657194 0.751963 -0.02249
C_ C_ 0.231789 0.538597 0.745075 -0.02249
C_ C_ 0.482434 0.538316 0.749136 -0.02249
C_ C_ 0.213738 0.602986 0.783799 -0.11473
C_ C_ 0.467539 0.601871 0.786679 -0.11473
C_ C_ 0.185284 0.633004 0.712094 -0.11473
C_ C_ 0.440536 0.633591 0.714796 -0.11473
C_ C_ 0.196603 0.638313 0.785609 -0.11473
C_ C_ 0.453012 0.640473 0.787826 -0.11473
C_ C_ 0.21635 0.580287 0.746743 -0.02249
C_ C_ 0.465201 0.578396 0.751691 -0.02249
C_ C_ 0.159933 0.690125 0.750488 0.6875
C_ C_ 0.419355 0.694859 0.753189 0.6875
C_ C_ 0.202045 0.595571 0.710583 -0.11473
C_ C_ 0.453809 0.594532 0.71426 -0.11473
C_ C_ 0.0648524 0.650032 0.74774 -0.02249
C_ C_ 0.317346 0.65056 0.747295 -0.02249
C_ C_ 0.00979438 0.539681 0.746847 -0.02249
C_ C_ 0.264456 0.537922 0.744775 -0.02249
C_ C_ 0.0434643 0.592328 0.710482 -0.11473
C_ C_ 0.284167 0.60311 0.706921 -0.11473
C_ C_ 0.0531565 0.634919 0.785222 -0.11473
C_ C_ 0.311582 0.629821 0.785188 -0.11473
C_ C_ 0.0605428 0.62878 0.709933 -0.11473
C_ C_ 0.301998 0.638601 0.709694 -0.11473
C_ C_ 0.0260585 0.580924 0.745558 -0.02249
C_ C_ 0.283798 0.577368 0.742887 -0.02249
C_ C_ 0.0827064 0.690463 0.74779 0.6875
C_ C_ 0.335894 0.688687 0.750694 0.6875
C_ C_ 0.0305193 0.60331 0.782389 -0.11473
C_ C_ 0.297946 0.591893 0.78022 -0.11473
C_ C_ 0.113049 0.79307 0.874335 0.17695
C_ C_ 0.38671 0.782925 0.875416 0.17695
C_ C_ 0.125791 0.723464 0.880777 0.17695
C_ C_ 0.374812 0.711247 0.877713 0.17695
C_ C_ 0.126211 0.72687 0.926461 -0.11473
C_ C_ 0.37616 0.712063 0.922193 -0.11473
C_ C_ 0.117669 0.763952 0.945305 0.23465
C_ C_ 0.383569 0.74998 0.943465 0.23465
C_ C_ 0.110057 0.797426 0.917805 -0.11473
C_ C_ 0.388042 0.78719 0.91982 -0.11473
C_ C_ 0.149839 0.752979 0.62069 0.17695
C_ C_ 0.374449 0.709893 0.622675 0.17695
C_ C_ 0.0969924 0.756499 0.62527 0.17695
C_ C_ 0.382077 0.782 0.616871 0.17695
C_ C_ 0.0938032 0.754853 0.58198 -0.11473
C_ C_ 0.381785 0.779144 0.571405 -0.11473
C_ C_ 0.119154 0.756802 0.55707 0.23465
C_ C_ 0.377967 0.741049 0.553138 0.23465
C_ C_ 0.147672 0.751625 0.575837 -0.11473
C_ C_ 0.377432 0.704885 0.579058 -0.11473
C_ C_ 0.0271973 0.000985184 0.741122 0.05793
C_ C_ 0.280722 -0.0024290000000000145 0.753281 0.05793
C_ C_ 0.215352 0.502158 0.744584 0.05793
C_ C_ 0.467804 0.500634 0.753615 0.05793
Br Br 0.0672976 -0.0020000000000000018 0.719003 -0.17191
Br Br 0.32304 -0.0037770000000000303 0.755198 -0.17191
Br Br 0.172289 0.505663 0.745051 -0.17191
Br Br 0.426335 0.498841 0.769978 -0.17191
N_ N_ 0.119348 0.755687 0.85723 -0.272
N_ N_ 0.379527 0.746651 0.855037 -0.272
N_ N_ 0.117979 0.766903 0.990374 -0.12501
N_ N_ 0.389101 0.752242 0.987559 -0.12501
N_ N_ 0.124077 0.754142 0.644607 -0.272
N_ N_ 0.376589 0.748391 0.640813 -0.272
N_ N_ 0.117203 0.746636 0.513014 -0.12501
N_ N_ 0.37381 0.735451 0.508146 -0.12501
O_ O_ 0.0904393 0.79604 0.714108 -0.60745
O_ O_ 0.342928 0.790302 0.716162 -0.60745
O_ O_ 0.0879864 0.791999 0.782518 -0.60745
O_ O_ 0.34115 0.785859 0.78428 -0.60745
O_ O_ 0.150403 0.797974 0.788157 -0.60745
O_ O_ 0.398425 0.799743 0.777754 -0.60745
O_ O_ 0.155105 0.790886 0.718131 -0.60745
O_ O_ 0.402289 0.795777 0.710264 -0.60745
O_ O_ 0.152836 0.706728 0.785841 -0.60745
O_ O_ 0.411341 0.708797 0.788781 -0.60745
O_ O_ 0.149134 0.704176 0.716415 -0.60745
O_ O_ 0.406787 0.705245 0.718479 -0.60745
O_ O_ 0.0886249 0.708708 0.713206 -0.60745
O_ O_ 0.347143 0.702248 0.716741 -0.60745
O_ O_ 0.0935814 0.704244 0.782789 -0.60745
O_ O_ 0.346365 0.699558 0.786777 -0.60745
Zn Zn 0.632229 0.247597 0.2833 0.9476
Zn Zn 0.875933 0.249504 0.284613 0.9476
Zn Zn 0.629385 0.245152 0.214715 0.9476
Zn Zn 0.873975 0.250764 0.214114 0.9476
H_ H_ 0.533001 0.410405 0.178376 0.10932
H_ H_ 0.760379 0.392374 0.190715 0.10932
H_ H_ 0.559446 0.345042 0.313995 0.10932
H_ H_ 0.841862 0.377306 0.299326 0.10932
H_ H_ 0.562737 0.340792 0.181544 0.10932
H_ H_ 0.788224 0.325767 0.196272 0.10932
H_ H_ 0.531319 0.412055 0.312202 0.10932
H_ H_ 0.815673 0.44233 0.290745 0.10932
H_ H_ 0.746328 0.384915 0.308418 0.10932
H_ H_ 0.980372 0.406923 0.315582 0.10932
H_ H_ 0.659231 0.377628 0.209018 0.10932
H_ H_ 0.917341 0.372223 0.191499 0.10932
H_ H_ 0.721043 0.316799 0.295372 0.10932
H_ H_ 0.950548 0.338284 0.314205 0.10932
H_ H_ 0.688698 0.440934 0.215929 0.10932
H_ H_ 0.951596 0.433108 0.19165 0.10932
H_ H_ 0.718992 0.0814487 0.311276 0.10932
H_ H_ 0.977807 0.0898517 0.317468 0.10932
H_ H_ 0.687526 0.138795 0.174858 0.10932
H_ H_ 0.932016 0.139328 0.182917 0.10932
H_ H_ 0.690938 0.14178 0.311548 0.10932
H_ H_ 0.947069 0.153751 0.318012 0.10932
H_ H_ 0.718637 0.0777494 0.177757 0.10932
H_ H_ 0.965197 0.0788184 0.184218 0.10932
H_ H_ 0.54572 0.0675464 0.189347 0.10932
H_ H_ 0.789083 0.077706 0.176496 0.10932
H_ H_ 0.572827 0.148108 0.313865 0.10932
H_ H_ 0.813295 0.14831 0.311796 0.10932
H_ H_ 0.574847 0.134803 0.183346 0.10932
H_ H_ 0.811333 0.153088 0.179619 0.10932
H_ H_ 0.540557 0.0912276 0.324349 0.10932
H_ H_ 0.787778 0.0802598 0.309739 0.10932
H_ H_ 0.631709 0.177555 0.355268 0.10932
H_ H_ 0.881454 0.18954 0.365987 0.10932
H_ H_ 0.633381 0.306278 0.361407 0.10932
H_ H_ 0.873296 0.323028 0.350507 0.10932
H_ H_ 0.634509 0.303866 0.438006 0.10932
H_ H_ 0.860684 0.324244 0.425777 0.10932
H_ H_ 0.624354 0.176369 0.436296 0.10932
H_ H_ 0.871797 0.19463 0.438783 0.10932
H_ H_ 0.615122 0.180898 0.135422 0.10932
H_ H_ 0.829056 0.232516 0.136153 0.10932
H_ H_ 0.641191 0.308295 0.141293 0.10932
H_ H_ 0.92353 0.249555 0.141136 0.10932
H_ H_ 0.638493 0.312211 0.0645242 0.10932
H_ H_ 0.924728 0.261101 0.0671517 0.10932
H_ H_ 0.623707 0.184011 0.0570588 0.10932
H_ H_ 0.834173 0.213148 0.0617892 0.10932
C_ C_ 0.567 0.342159 0.248599 -0.02249
C_ C_ 0.818525 0.347152 0.245912 -0.02249
C_ C_ 0.515832 0.457417 0.243778 -0.02249
C_ C_ 0.765683 0.457848 0.244862 -0.02249
C_ C_ 0.539866 0.395982 0.207842 -0.11473
C_ C_ 0.77786 0.387498 0.216532 -0.11473
C_ C_ 0.55568 0.360935 0.285317 -0.11473
C_ C_ 0.824623 0.379326 0.276297 -0.11473
C_ C_ 0.557225 0.358385 0.209414 -0.11473
C_ C_ 0.794366 0.351223 0.217631 -0.11473
C_ C_ 0.529666 0.415251 0.244672 -0.02249
C_ C_ 0.785741 0.421315 0.243949 -0.02249
C_ C_ 0.588967 0.304386 0.250208 0.6875
C_ C_ 0.83694 0.309108 0.244958 0.6875
C_ C_ 0.536981 0.396824 0.284185 -0.11473
C_ C_ 0.807915 0.415323 0.275132 -0.11473
C_ C_ 0.687575 0.341212 0.252826 -0.02249
C_ C_ 0.934638 0.34839 0.249512 -0.02249
C_ C_ 0.737456 0.459162 0.263692 -0.02249
C_ C_ 0.984928 0.462509 0.256266 -0.02249
C_ C_ 0.726542 0.383809 0.286965 -0.11473
C_ C_ 0.965248 0.399101 0.28959 -0.11473
C_ C_ 0.679006 0.377319 0.22879 -0.11473
C_ C_ 0.932236 0.377637 0.217813 -0.11473
C_ C_ 0.712387 0.345499 0.280566 -0.11473
C_ C_ 0.948919 0.360883 0.287704 -0.11473
C_ C_ 0.718451 0.418915 0.262861 -0.02249
C_ C_ 0.965716 0.42486 0.255169 -0.02249
C_ C_ 0.669559 0.304727 0.250442 0.6875
C_ C_ 0.913749 0.311184 0.249185 0.6875
C_ C_ 0.694135 0.415339 0.23376 -0.11473
C_ C_ 0.950751 0.41374 0.218981 -0.11473
C_ C_ 0.689388 0.148175 0.244011 -0.02249
C_ C_ 0.936285 0.151699 0.251481 -0.02249
C_ C_ 0.738804 0.0354776 0.247487 -0.02249
C_ C_ 0.987918 0.0383014 0.252995 -0.02249
C_ C_ 0.71398 0.0948824 0.2824 -0.11473
C_ C_ 0.969696 0.102574 0.288222 -0.11473
C_ C_ 0.697263 0.1307 0.205383 -0.11473
C_ C_ 0.943672 0.132463 0.211909 -0.11473
C_ C_ 0.70109 0.133105 0.28295 -0.11473
C_ C_ 0.950269 0.136973 0.288538 -0.11473
C_ C_ 0.722883 0.0768004 0.2446 -0.02249
C_ C_ 0.972409 0.0789908 0.252253 -0.02249
C_ C_ 0.66789 0.183577 0.242991 0.6875
C_ C_ 0.913209 0.185657 0.252557 0.6875
C_ C_ 0.714625 0.0956248 0.206929 -0.11473
C_ C_ 0.96238 0.0955236 0.212671 -0.11473
C_ C_ 0.573157 0.147678 0.24676 -0.02249
C_ C_ 0.815366 0.152317 0.245595 -0.02249
C_ C_ 0.518718 0.0379214 0.262481 -0.02249
C_ C_ 0.770042 0.0335444 0.241148 -0.02249
C_ C_ 0.547454 0.0883018 0.21616 -0.11473
C_ C_ 0.796777 0.0935495 0.204769 -0.11473
C_ C_ 0.564434 0.134216 0.286542 -0.11473
C_ C_ 0.806878 0.133745 0.282255 -0.11473
C_ C_ 0.564449 0.125847 0.211836 -0.11473
C_ C_ 0.807948 0.134215 0.206135 -0.11473
C_ C_ 0.536594 0.0766509 0.256546 -0.02249
C_ C_ 0.789437 0.0725224 0.242799 -0.02249
C_ C_ 0.591843 0.187388 0.243973 0.6875
C_ C_ 0.834382 0.191637 0.248201 0.6875
C_ C_ 0.545375 0.100252 0.291778 -0.11473
C_ C_ 0.794175 0.0944483 0.282306 -0.11473
C_ C_ 0.634481 0.205261 0.373682 0.17695
C_ C_ 0.875011 0.218094 0.377482 0.17695
C_ C_ 0.635713 0.278771 0.377936 0.17695
C_ C_ 0.872381 0.292763 0.37079 0.17695
C_ C_ 0.635156 0.276566 0.421357 -0.11473
C_ C_ 0.862741 0.294877 0.411864 -0.11473
C_ C_ 0.631765 0.237864 0.441403 0.23465
C_ C_ 0.863695 0.260018 0.439326 0.23465
C_ C_ 0.63251 0.202963 0.417799 -0.11473
C_ C_ 0.868543 0.220876 0.420803 -0.11473
C_ C_ 0.62051 0.210031 0.120559 0.17695
C_ C_ 0.850329 0.236317 0.121243 0.17695
C_ C_ 0.633963 0.281662 0.123722 0.17695
C_ C_ 0.901801 0.252187 0.1252 0.17695
C_ C_ 0.637749 0.283261 0.0805108 -0.11473
C_ C_ 0.902652 0.256428 0.0812647 -0.11473
C_ C_ 0.632133 0.249166 0.0548245 0.23465
C_ C_ 0.876659 0.246011 0.0562746 0.23465
C_ C_ 0.625944 0.211595 0.0763096 -0.11473
C_ C_ 0.850855 0.232741 0.0775811 -0.11473
C_ C_ 0.532479 0.495855 0.244722 0.05793
C_ C_ 0.779114 0.497433 0.235481 0.05793
C_ C_ 0.722549 0.99756 0.255614 0.05793
C_ C_ 0.970637 1.00104303 0.253853 0.05793
Br Br 0.572348 0.49211 0.262595 -0.17191
Br Br 0.807803 0.49986 0.19265 -0.17191
Br Br 0.679715 -0.000276000000000054 0.263717 -0.17191
Br Br 0.929367 0.000946353 0.27292 -0.17191
N_ N_ 0.635428 0.241444 0.353512 -0.272
N_ N_ 0.875802 0.254436 0.353013 -0.272
N_ N_ 0.621839 0.237099 0.485446 -0.12501
N_ N_ 0.860818 0.265255 0.483699 -0.12501
N_ N_ 0.626466 0.245423 0.144489 -0.272
N_ N_ 0.875399 0.246534 0.14319 -0.272
N_ N_ 0.638916 0.249745 0.0112642 -0.12501
N_ N_ 0.879747 0.238405 0.0127305 -0.12501
O_ O_ 0.597622 0.289347 0.217274 -0.60745
O_ O_ 0.842339 0.292986 0.209681 -0.60745
O_ O_ 0.599359 0.292493 0.285147 -0.60745
O_ O_ 0.848257 0.295095 0.279608 -0.60745
O_ O_ 0.662624 0.288931 0.2853 -0.60745
O_ O_ 0.91038 0.292575 0.282944 -0.60745
O_ O_ 0.659107 0.290722 0.2146 -0.60745
O_ O_ 0.904655 0.295975 0.215011 -0.60745
O_ O_ 0.661831 0.201853 0.276585 -0.60745
O_ O_ 0.906081 0.203353 0.288119 -0.60745
O_ O_ 0.658854 0.19933 0.207696 -0.60745
O_ O_ 0.905658 0.203769 0.218714 -0.60745
O_ O_ 0.599513 0.201307 0.209377 -0.60745
O_ O_ 0.843686 0.20757 0.215061 -0.60745
O_ O_ 0.603331 0.203447 0.27815 -0.60745
O_ O_ 0.842165 0.208116 0.284516 -0.60745
Zn Zn 0.624255 0.250911 0.784175 0.9476
Zn Zn 0.87528 0.251044 0.784073 0.9476
Zn Zn 0.62529 0.249506 0.715581 0.9476
Zn Zn 0.87278 0.255459 0.713418 0.9476
H_ H_ 0.52155 0.404267 0.684505 0.10932
H_ H_ 0.774568 0.412996 0.688142 0.10932
H_ H_ 0.571915 0.36093 0.819539 0.10932
H_ H_ 0.837616 0.372305 0.809971 0.10932
H_ H_ 0.550494 0.33976 0.687475 0.10932
H_ H_ 0.794133 0.34227 0.690388 0.10932
H_ H_ 0.548947 0.431963 0.811442 0.10932
H_ H_ 0.800628 0.427749 0.817908 0.10932
H_ H_ 0.720418 0.413205 0.818795 0.10932
H_ H_ 0.970415 0.414825 0.812333 0.10932
H_ H_ 0.677645 0.360596 0.684875 0.10932
H_ H_ 0.922378 0.364203 0.677485 0.10932
H_ H_ 0.685404 0.354345 0.820079 0.10932
H_ H_ 0.946074 0.347964 0.810731 0.10932
H_ H_ 0.710835 0.42108 0.684281 0.10932
H_ H_ 0.955476 0.426024 0.677758 0.10932
H_ H_ 0.723629 0.0927352 0.8145 0.10932
H_ H_ 0.96844 0.0885159 0.809249 0.10932
H_ H_ 0.679929 0.14649 0.677328 0.10932
H_ H_ 0.922832 0.142223 0.680738 0.10932
H_ H_ 0.697996 0.158653 0.812778 0.10932
H_ H_ 0.941671 0.155261 0.813936 0.10932
H_ H_ 0.705535 0.078628 0.682758 0.10932
H_ H_ 0.94455 0.0745923 0.680607 0.10932
H_ H_ 0.537074 0.0829773 0.680982 0.10932
H_ H_ 0.787726 0.0848335 0.68418 0.10932
H_ H_ 0.563916 0.146505 0.819108 0.10932
H_ H_ 0.803267 0.159949 0.814616 0.10932
H_ H_ 0.559258 0.154846 0.683328 0.10932
H_ H_ 0.813262 0.151663 0.683042 0.10932
H_ H_ 0.537475 0.0781558 0.815744 0.10932
H_ H_ 0.788263 0.0830644 0.816275 0.10932
H_ H_ 0.620414 0.30735 0.862338 0.10932
H_ H_ 0.832162 0.241744 0.848271 0.10932
H_ H_ 0.624744 0.176927 0.854009 0.10932
H_ H_ 0.918056 0.281585 0.872146 0.10932
H_ H_ 0.631838 0.175176 0.931168 0.10932
H_ H_ 0.914406 0.268838 0.948277 0.10932
H_ H_ 0.617288 0.303883 0.937472 0.10932
H_ H_ 0.82278 0.229139 0.923868 0.10932
H_ H_ 0.637925 0.185505 0.635127 0.10932
H_ H_ 0.915111 0.252617 0.641479 0.10932
H_ H_ 0.612812 0.314452 0.64278 0.10932
H_ H_ 0.820165 0.25417 0.635905 0.10932
H_ H_ 0.615196 0.320873 0.569019 0.10932
H_ H_ 0.82324 0.245194 0.559477 0.10932
H_ H_ 0.638558 0.190773 0.559665 0.10932
H_ H_ 0.918545 0.250109 0.564752 0.10932
C_ C_ 0.565049 0.346285 0.75389 -0.02249
C_ C_ 0.814635 0.348171 0.753254 -0.02249
C_ C_ 0.514764 0.461777 0.745754 -0.02249
C_ C_ 0.763985 0.462713 0.757422 -0.02249
C_ C_ 0.535351 0.39631 0.711274 -0.11473
C_ C_ 0.782136 0.400347 0.718323 -0.11473
C_ C_ 0.562061 0.37017 0.789641 -0.11473
C_ C_ 0.819046 0.376603 0.786911 -0.11473
C_ C_ 0.549 0.357179 0.716151 -0.11473
C_ C_ 0.79373 0.359757 0.720452 -0.11473
C_ C_ 0.531695 0.420789 0.747414 -0.02249
C_ C_ 0.783015 0.42405 0.756484 -0.02249
C_ C_ 0.586129 0.309961 0.752449 0.6875
C_ C_ 0.834602 0.31289 0.750362 0.6875
C_ C_ 0.546903 0.409922 0.785479 -0.11473
C_ C_ 0.801015 0.411276 0.788813 -0.11473
C_ C_ 0.679118 0.350606 0.754253 -0.02249
C_ C_ 0.931132 0.352594 0.746001 -0.02249
C_ C_ 0.732232 0.462478 0.753855 -0.02249
C_ C_ 0.982052 0.461738 0.744921 -0.02249
C_ C_ 0.714029 0.399839 0.789448 -0.11473
C_ C_ 0.964265 0.401759 0.7825 -0.11473
C_ C_ 0.687218 0.371487 0.716075 -0.11473
C_ C_ 0.933598 0.373388 0.707652 -0.11473
C_ C_ 0.691929 0.367522 0.791311 -0.11473
C_ C_ 0.94835 0.364519 0.781711 -0.11473
C_ C_ 0.716191 0.422578 0.752102 -0.02249
C_ C_ 0.9651 0.423395 0.743694 -0.02249
C_ C_ 0.665294 0.307985 0.752012 0.6875
C_ C_ 0.912947 0.314667 0.748253 0.6875
C_ C_ 0.704515 0.406676 0.715071 -0.11473
C_ C_ 0.951987 0.408465 0.706127 -0.11473
C_ C_ 0.685355 0.157956 0.745415 -0.02249
C_ C_ 0.931274 0.154446 0.747164 -0.02249
C_ C_ 0.735055 0.0427057 0.749341 -0.02249
C_ C_ 0.978777 0.0384268 0.743646 -0.02249
C_ C_ 0.714244 0.104001 0.784283 -0.11473
C_ C_ 0.962412 0.102546 0.781196 -0.11473
C_ C_ 0.68974 0.136715 0.707902 -0.11473
C_ C_ 0.93362 0.131818 0.708842 -0.11473
C_ C_ 0.699004 0.14177 0.783712 -0.11473
C_ C_ 0.945264 0.139699 0.783881 -0.11473
C_ C_ 0.717837 0.0828996 0.747057 -0.02249
C_ C_ 0.962186 0.0796339 0.744252 -0.02249
C_ C_ 0.664611 0.194182 0.745973 0.6875
C_ C_ 0.91443 0.19275 0.747647 0.6875
C_ C_ 0.705442 0.0992184 0.709525 -0.11473
C_ C_ 0.947143 0.0940929 0.708338 -0.11473
C_ C_ 0.565248 0.154057 0.750909 -0.02249
C_ C_ 0.814126 0.158464 0.749649 -0.02249
C_ C_ 0.513322 0.0406412 0.746138 -0.02249
C_ C_ 0.76655 0.0409346 0.752373 -0.02249
C_ C_ 0.539819 0.0998181 0.71102 -0.11473
C_ C_ 0.78946 0.100684 0.713765 -0.11473
C_ C_ 0.55631 0.132949 0.787996 -0.11473
C_ C_ 0.804383 0.140599 0.787561 -0.11473
C_ C_ 0.555814 0.137374 0.712253 -0.11473
C_ C_ 0.804747 0.138694 0.711731 -0.11473
C_ C_ 0.52916 0.0819011 0.747286 -0.02249
C_ C_ 0.784642 0.0814053 0.75109 -0.02249
C_ C_ 0.586351 0.188751 0.750706 0.6875
C_ C_ 0.834254 0.195274 0.748368 0.6875
C_ C_ 0.539768 0.0966816 0.78712 -0.11473
C_ C_ 0.791455 0.101252 0.788709 -0.11473
C_ C_ 0.629059 0.279113 0.876332 0.17695
C_ C_ 0.850301 0.240349 0.870526 0.17695
C_ C_ 0.626705 0.205757 0.871567 0.17695
C_ C_ 0.900934 0.261802 0.882993 0.17695
C_ C_ 0.626285 0.203835 0.915871 -0.11473
C_ C_ 0.896541 0.258264 0.928078 -0.11473
C_ C_ 0.626121 0.238927 0.940452 0.23465
C_ C_ 0.867431 0.247403 0.942085 0.23465
C_ C_ 0.625657 0.277634 0.920469 -0.11473
C_ C_ 0.845877 0.234197 0.91384 -0.11473
C_ C_ 0.631116 0.214451 0.619885 0.17695
C_ C_ 0.895647 0.256006 0.622212 0.17695
C_ C_ 0.621304 0.287145 0.624785 0.17695
C_ C_ 0.842799 0.259351 0.619331 0.17695
C_ C_ 0.619914 0.290544 0.582039 -0.11473
C_ C_ 0.844179 0.25127 0.575773 -0.11473
C_ C_ 0.626386 0.254817 0.556532 0.23465
C_ C_ 0.870359 0.246856 0.554245 0.23465
C_ C_ 0.634431 0.218021 0.576573 -0.11473
C_ C_ 0.896615 0.250776 0.578905 -0.11473
C_ C_ 0.531368 0.500135 0.741042 0.05793
C_ C_ 0.779514 0.501443 0.756955 0.05793
C_ C_ 0.719354 0.00521482 0.749042 0.05793
C_ C_ 0.963174 -0.00024100000000004673 0.74647 0.05793
Br Br 0.571035 0.502207 0.718085 -0.17191
Br Br 0.822764 0.502874 0.749737 -0.17191
Br Br 0.675515 0.00684593 0.75272 -0.17191
Br Br 0.91943 0.00126584 0.732102 -0.17191
N_ N_ 0.62902 0.243334 0.852806 -0.272
N_ N_ 0.878114 0.250741 0.857349 -0.272
N_ N_ 0.620076 0.236864 0.983879 -0.12501
N_ N_ 0.859675 0.244317 0.984884 -0.12501
N_ N_ 0.625315 0.247989 0.643788 -0.272
N_ N_ 0.869309 0.260172 0.642324 -0.272
N_ N_ 0.633829 0.258953 0.513765 -0.12501
N_ N_ 0.87233 0.240723 0.510021 -0.12501
O_ O_ 0.590829 0.289786 0.717195 -0.60745
O_ O_ 0.842929 0.301017 0.715541 -0.60745
O_ O_ 0.59754 0.295811 0.785998 -0.60745
O_ O_ 0.844008 0.292878 0.782708 -0.60745
O_ O_ 0.656106 0.29219 0.786156 -0.60745
O_ O_ 0.905742 0.299661 0.782097 -0.60745
O_ O_ 0.654405 0.294798 0.716436 -0.60745
O_ O_ 0.90546 0.296413 0.713567 -0.60745
O_ O_ 0.651234 0.205259 0.778883 -0.60745
O_ O_ 0.907688 0.20719 0.782613 -0.60745
O_ O_ 0.658579 0.212558 0.71261 -0.60745
O_ O_ 0.904572 0.209538 0.714101 -0.60745
O_ O_ 0.59534 0.202376 0.716764 -0.60745
O_ O_ 0.841463 0.212457 0.713856 -0.60745
O_ O_ 0.593651 0.206443 0.784462 -0.60745
O_ O_ 0.847153 0.206241 0.78185 -0.60745
Zn Zn 0.622938 0.751472 0.287942 0.9476
Zn Zn 0.881847 0.746368 0.280148 0.9476
Zn Zn 0.621518 0.748301 0.218449 0.9476
Zn Zn 0.880046 0.746955 0.211547 0.9476
H_ H_ 0.532073 0.922215 0.190501 0.10932
H_ H_ 0.777589 0.900325 0.187155 0.10932
H_ H_ 0.562889 0.849458 0.327325 0.10932
H_ H_ 0.827192 0.854419 0.318457 0.10932
H_ H_ 0.560139 0.853827 0.1886 0.10932
H_ H_ 0.80653 0.836554 0.188663 0.10932
H_ H_ 0.533041 0.914158 0.324987 0.10932
H_ H_ 0.800108 0.922834 0.313809 0.10932
H_ H_ 0.717104 0.915182 0.321624 0.10932
H_ H_ 0.97038 0.912108 0.31465 0.10932
H_ H_ 0.695688 0.847751 0.184958 0.10932
H_ H_ 0.926433 0.867315 0.177005 0.10932
H_ H_ 0.688746 0.850194 0.322326 0.10932
H_ H_ 0.941648 0.845182 0.307971 0.10932
H_ H_ 0.709738 0.925516 0.188761 0.10932
H_ H_ 0.963345 0.925683 0.177198 0.10932
H_ H_ 0.718931 0.587517 0.32122 0.10932
H_ H_ 0.972288 0.583213 0.314692 0.10932
H_ H_ 0.678151 0.636054 0.187464 0.10932
H_ H_ 0.940706 0.643491 0.178999 0.10932
H_ H_ 0.69231 0.653484 0.317807 0.10932
H_ H_ 0.937317 0.642018 0.317038 0.10932
H_ H_ 0.709946 0.577085 0.19072 0.10932
H_ H_ 0.963137 0.576962 0.18279 0.10932
H_ H_ 0.546017 0.573194 0.182973 0.10932
H_ H_ 0.776023 0.595407 0.182766 0.10932
H_ H_ 0.565575 0.64001 0.317261 0.10932
H_ H_ 0.829502 0.625955 0.312679 0.10932
H_ H_ 0.583254 0.627577 0.187607 0.10932
H_ H_ 0.805146 0.654981 0.18447 0.10932
H_ H_ 0.524546 0.588583 0.313331 0.10932
H_ H_ 0.79922 0.563791 0.310783 0.10932
H_ H_ 0.625595 0.688295 0.362468 0.10932
H_ H_ 0.83636 0.748118 0.356816 0.10932
H_ H_ 0.618288 0.816243 0.360151 0.10932
H_ H_ 0.931452 0.748377 0.365054 0.10932
H_ H_ 0.62765 0.821295 0.432966 0.10932
H_ H_ 0.929419 0.750659 0.441519 0.10932
H_ H_ 0.627044 0.689708 0.445316 0.10932
H_ H_ 0.833102 0.740592 0.430079 0.10932
H_ H_ 0.600334 0.694831 0.133511 0.10932
H_ H_ 0.887162 0.69105 0.130554 0.10932
H_ H_ 0.644161 0.812211 0.146588 0.10932
H_ H_ 0.867334 0.817432 0.141325 0.10932
H_ H_ 0.646216 0.817884 0.0667149 0.10932
H_ H_ 0.861995 0.822411 0.0634334 0.10932
H_ H_ 0.591906 0.709383 0.0588573 0.10932
H_ H_ 0.882583 0.695843 0.054155 0.10932
C_ C_ 0.565765 0.848703 0.258305 -0.02249
C_ C_ 0.821553 0.843068 0.252769 -0.02249
C_ C_ 0.517015 0.963777 0.25962 -0.02249
C_ C_ 0.770278 0.957777 0.246256 -0.02249
C_ C_ 0.540411 0.905499 0.219576 -0.11473
C_ C_ 0.78974 0.89298 0.214913 -0.11473
C_ C_ 0.559427 0.868004 0.298083 -0.11473
C_ C_ 0.816851 0.866492 0.289686 -0.11473
C_ C_ 0.556694 0.868581 0.219292 -0.11473
C_ C_ 0.803455 0.853493 0.217077 -0.11473
C_ C_ 0.532729 0.923841 0.257835 -0.02249
C_ C_ 0.787602 0.918409 0.249933 -0.02249
C_ C_ 0.581829 0.808619 0.256905 0.6875
C_ C_ 0.84336 0.807885 0.250713 0.6875
C_ C_ 0.54151 0.904044 0.296944 -0.11473
C_ C_ 0.802852 0.905982 0.286329 -0.11473
C_ C_ 0.687029 0.844233 0.25388 -0.02249
C_ C_ 0.936657 0.849583 0.240502 -0.02249
C_ C_ 0.738533 0.958862 0.255749 -0.02249
C_ C_ 0.985877 0.963081 0.252826 -0.02249
C_ C_ 0.713867 0.898316 0.292099 -0.11473
C_ C_ 0.961989 0.900624 0.28431 -0.11473
C_ C_ 0.698051 0.86334 0.21507 -0.11473
C_ C_ 0.939717 0.87419 0.205048 -0.11473
C_ C_ 0.697242 0.862048 0.292374 -0.11473
C_ C_ 0.947812 0.862504 0.279833 -0.11473
C_ C_ 0.72297 0.917707 0.254157 -0.02249
C_ C_ 0.96874 0.924654 0.247849 -0.02249
C_ C_ 0.662514 0.808643 0.254707 0.6875
C_ C_ 0.918323 0.811868 0.240967 0.6875
C_ C_ 0.711198 0.902785 0.215811 -0.11473
C_ C_ 0.957899 0.909828 0.207992 -0.11473
C_ C_ 0.684403 0.652228 0.253196 -0.02249
C_ C_ 0.936438 0.648618 0.247412 -0.02249
C_ C_ 0.735439 0.534755 0.258598 -0.02249
C_ C_ 0.987816 0.537572 0.249476 -0.02249
C_ C_ 0.712731 0.599047 0.291376 -0.11473
C_ C_ 0.967564 0.598286 0.286725 -0.11473
C_ C_ 0.691172 0.630893 0.215506 -0.11473
C_ C_ 0.947798 0.63235 0.209153 -0.11473
C_ C_ 0.696894 0.63658 0.288496 -0.11473
C_ C_ 0.945678 0.631144 0.285796 -0.11473
C_ C_ 0.719507 0.575924 0.256274 -0.02249
C_ C_ 0.972277 0.578002 0.248458 -0.02249
C_ C_ 0.662947 0.688716 0.252202 0.6875
C_ C_ 0.921929 0.691316 0.246777 0.6875
C_ C_ 0.707634 0.593779 0.217131 -0.11473
C_ C_ 0.962777 0.595148 0.210676 -0.11473
C_ C_ 0.569829 0.645623 0.252108 -0.02249
C_ C_ 0.819445 0.646764 0.250233 -0.02249
C_ C_ 0.517496 0.533612 0.243553 -0.02249
C_ C_ 0.764287 0.53615 0.242629 -0.02249
C_ C_ 0.549596 0.587634 0.212311 -0.11473
C_ C_ 0.787709 0.599694 0.210808 -0.11473
C_ C_ 0.558408 0.629315 0.287936 -0.11473
C_ C_ 0.815799 0.621868 0.285293 -0.11473
C_ C_ 0.56863 0.622918 0.214272 -0.11473
C_ C_ 0.804273 0.636411 0.212586 -0.11473
C_ C_ 0.533873 0.574015 0.246978 -0.02249
C_ C_ 0.783984 0.574346 0.246841 -0.02249
C_ C_ 0.585365 0.687319 0.251185 0.6875
C_ C_ 0.840866 0.682069 0.250974 0.6875
C_ C_ 0.537896 0.596156 0.285686 -0.11473
C_ C_ 0.798983 0.584134 0.285162 -0.11473
C_ C_ 0.626024 0.715799 0.381322 0.17695
C_ C_ 0.856175 0.752401 0.374553 0.17695
C_ C_ 0.622029 0.78862 0.378603 0.17695
C_ C_ 0.909291 0.751089 0.380184 0.17695
C_ C_ 0.62479 0.791263 0.420436 -0.11473
C_ C_ 0.907844 0.750915 0.424014 -0.11473
C_ C_ 0.624346 0.755536 0.445126 0.23465
C_ C_ 0.879987 0.750087 0.443068 0.23465
C_ C_ 0.623219 0.717153 0.425455 -0.11473
C_ C_ 0.854253 0.746357 0.417853 -0.11473
C_ C_ 0.611159 0.721249 0.120258 0.17695
C_ C_ 0.879553 0.718743 0.1166 0.17695
C_ C_ 0.636757 0.786131 0.127219 0.17695
C_ C_ 0.870494 0.789621 0.122945 0.17695
C_ C_ 0.636773 0.79042 0.0830032 -0.11473
C_ C_ 0.86643 0.792605 0.0788296 -0.11473
C_ C_ 0.626251 0.759035 0.0571652 0.23465
C_ C_ 0.870829 0.758009 0.054031 0.23465
C_ C_ 0.610706 0.725859 0.0755068 -0.11473
C_ C_ 0.874626 0.719499 0.0723314 -0.11473
C_ C_ 0.533895 1.0000411276 0.261176 0.05793
C_ C_ 0.785868 0.995241 0.245039 0.05793
C_ C_ 0.72238 0.498467 0.273445 0.05793
C_ C_ 0.970687 0.501015 0.258732 0.05793
Br Br 0.576939 0.998482 0.276039 -0.17191
Br Br 0.826884 0.990991 0.224921 -0.17191
Br Br 0.68581 0.50171 0.30603 -0.17191
Br Br 0.926223 0.504889 0.257445 -0.17191
N_ N_ 0.625856 0.751547 0.358488 -0.272
N_ N_ 0.883681 0.752374 0.355369 -0.272
N_ N_ 0.631426 0.759756 0.489489 -0.12501
N_ N_ 0.880262 0.741651 0.486491 -0.12501
N_ N_ 0.621567 0.753108 0.145591 -0.272
N_ N_ 0.876459 0.752211 0.142124 -0.272
N_ N_ 0.627739 0.766062 0.0135803 -0.12501
N_ N_ 0.867077 0.76088 0.0102419 -0.12501
O_ O_ 0.593346 0.796918 0.222748 -0.60745
O_ O_ 0.846938 0.789861 0.216236 -0.60745
O_ O_ 0.59028 0.793477 0.292932 -0.60745
O_ O_ 0.852807 0.789889 0.283955 -0.60745
O_ O_ 0.651016 0.79765 0.288194 -0.60745
O_ O_ 0.90999 0.796 0.275969 -0.60745
O_ O_ 0.656491 0.787973 0.221454 -0.60745
O_ O_ 0.9066 0.79726 0.207268 -0.60745
O_ O_ 0.65801 0.710197 0.284814 -0.60745
O_ O_ 0.915859 0.708252 0.282177 -0.60745
O_ O_ 0.649629 0.699761 0.217708 -0.60745
O_ O_ 0.913819 0.707305 0.211044 -0.60745
O_ O_ 0.589338 0.7042 0.217267 -0.60745
O_ O_ 0.849196 0.69877 0.215992 -0.60745
O_ O_ 0.593325 0.704191 0.286477 -0.60745
O_ O_ 0.850314 0.698156 0.285709 -0.60745
Zn Zn 0.621475 0.754437 0.78399 0.9476
Zn Zn 0.874523 0.750858 0.783198 0.9476
Zn Zn 0.625658 0.753588 0.717562 0.9476
Zn Zn 0.871339 0.746997 0.713515 0.9476
H_ H_ 0.526434 0.917155 0.677342 0.10932
H_ H_ 0.796978 0.931469 0.691906 0.10932
H_ H_ 0.578153 0.870522 0.810402 0.10932
H_ H_ 0.793422 0.840239 0.817588 0.10932
H_ H_ 0.55512 0.852405 0.680699 0.10932
H_ H_ 0.827145 0.866275 0.693604 0.10932
H_ H_ 0.545512 0.932832 0.809393 0.10932
H_ H_ 0.771876 0.908945 0.816593 0.10932
H_ H_ 0.702103 0.932335 0.811781 0.10932
H_ H_ 0.974328 0.906081 0.81316 0.10932
H_ H_ 0.699653 0.841777 0.687197 0.10932
H_ H_ 0.926164 0.853798 0.680087 0.10932
H_ H_ 0.668232 0.870942 0.812767 0.10932
H_ H_ 0.950028 0.840282 0.811999 0.10932
H_ H_ 0.732215 0.90658 0.687816 0.10932
H_ H_ 0.955484 0.919771 0.680675 0.10932
H_ H_ 0.716023 0.586289 0.823971 0.10932
H_ H_ 0.951347 0.574835 0.802572 0.10932
H_ H_ 0.678038 0.645721 0.690315 0.10932
H_ H_ 0.94152 0.654708 0.672279 0.10932
H_ H_ 0.682576 0.647586 0.823918 0.10932
H_ H_ 0.923104 0.639055 0.803803 0.10932
H_ H_ 0.716575 0.589308 0.689355 0.10932
H_ H_ 0.968733 0.588402 0.673532 0.10932
H_ H_ 0.517508 0.59618 0.679099 0.10932
H_ H_ 0.791581 0.574426 0.691306 0.10932
H_ H_ 0.570626 0.636261 0.81458 0.10932
H_ H_ 0.802547 0.659824 0.818679 0.10932
H_ H_ 0.54797 0.662051 0.683736 0.10932
H_ H_ 0.812245 0.647183 0.68317 0.10932
H_ H_ 0.543518 0.570858 0.807092 0.10932
H_ H_ 0.777071 0.589547 0.82011 0.10932
H_ H_ 0.576032 0.733244 0.854326 0.10932
H_ H_ 0.90232 0.69481 0.853961 0.10932
H_ H_ 0.664121 0.777805 0.867051 0.10932
H_ H_ 0.859269 0.808685 0.859482 0.10932
H_ H_ 0.662562 0.761952 0.945314 0.10932
H_ H_ 0.859143 0.804795 0.941312 0.10932
H_ H_ 0.569764 0.733326 0.933939 0.10932
H_ H_ 0.894235 0.68311 0.927364 0.10932
H_ H_ 0.639053 0.686347 0.655038 0.10932
H_ H_ 0.857529 0.816956 0.647276 0.10932
H_ H_ 0.621959 0.815394 0.637008 0.10932
H_ H_ 0.877014 0.687546 0.636088 0.10932
H_ H_ 0.618875 0.802939 0.556546 0.10932
H_ H_ 0.880876 0.696884 0.554542 0.10932
H_ H_ 0.635992 0.677311 0.577338 0.10932
H_ H_ 0.852373 0.823687 0.56479 0.10932
C_ C_ 0.565911 0.851969 0.745276 -0.02249
C_ C_ 0.812105 0.844576 0.753934 -0.02249
C_ C_ 0.512324 0.966987 0.743554 -0.02249
C_ C_ 0.765706 0.963143 0.754194 -0.02249
C_ C_ 0.533759 0.903093 0.707472 -0.11473
C_ C_ 0.794707 0.908418 0.718091 -0.11473
C_ C_ 0.562283 0.876653 0.782763 -0.11473
C_ C_ 0.795579 0.858233 0.788888 -0.11473
C_ C_ 0.552987 0.86816 0.708815 -0.11473
C_ C_ 0.812963 0.87266 0.719476 -0.11473
C_ C_ 0.530301 0.925783 0.74446 -0.02249
C_ C_ 0.779864 0.921851 0.75244 -0.02249
C_ C_ 0.58605 0.813962 0.74769 0.6875
C_ C_ 0.832464 0.808088 0.754418 0.6875
C_ C_ 0.546442 0.914084 0.781878 -0.11473
C_ C_ 0.781943 0.897339 0.7887 -0.11473
C_ C_ 0.683152 0.84971 0.750952 -0.02249
C_ C_ 0.932854 0.843703 0.748184 -0.02249
C_ C_ 0.734684 0.965809 0.748362 -0.02249
C_ C_ 0.979345 0.962207 0.746416 -0.02249
C_ C_ 0.700318 0.913166 0.783678 -0.11473
C_ C_ 0.964207 0.893783 0.783882 -0.11473
C_ C_ 0.700013 0.862023 0.71479 -0.11473
C_ C_ 0.936953 0.865081 0.70989 -0.11473
C_ C_ 0.682877 0.877513 0.786399 -0.11473
C_ C_ 0.950459 0.855974 0.783337 -0.11473
C_ C_ 0.715425 0.926333 0.746392 -0.02249
C_ C_ 0.962651 0.921769 0.749315 -0.02249
C_ C_ 0.666459 0.811373 0.750106 0.6875
C_ C_ 0.909911 0.809596 0.750605 0.6875
C_ C_ 0.715936 0.899824 0.711992 -0.11473
C_ C_ 0.951118 0.905729 0.711859 -0.11473
C_ C_ 0.681716 0.652126 0.757852 -0.02249
C_ C_ 0.929818 0.651522 0.739819 -0.02249
C_ C_ 0.731564 0.538594 0.755634 -0.02249
C_ C_ 0.97733 0.537659 0.741352 -0.02249
C_ C_ 0.706778 0.597258 0.794341 -0.11473
C_ C_ 0.946592 0.589828 0.774286 -0.11473
C_ C_ 0.688661 0.634405 0.719829 -0.11473
C_ C_ 0.940931 0.635176 0.701249 -0.11473
C_ C_ 0.68775 0.632097 0.795182 -0.11473
C_ C_ 0.932237 0.627298 0.77524 -0.11473
C_ C_ 0.716095 0.579874 0.755676 -0.02249
C_ C_ 0.959893 0.575916 0.73834 -0.02249
C_ C_ 0.663277 0.691389 0.75634 0.6875
C_ C_ 0.913928 0.691911 0.740554 0.6875
C_ C_ 0.706394 0.598763 0.718537 -0.11473
C_ C_ 0.956007 0.597775 0.7008 -0.11473
C_ C_ 0.564231 0.653054 0.747077 -0.02249
C_ C_ 0.810068 0.657126 0.750552 -0.02249
C_ C_ 0.513744 0.538583 0.742019 -0.02249
C_ C_ 0.76362 0.539077 0.755882 -0.02249
C_ C_ 0.530178 0.605048 0.708133 -0.11473
C_ C_ 0.789334 0.596869 0.715747 -0.11473
C_ C_ 0.564063 0.626832 0.782794 -0.11473
C_ C_ 0.800859 0.640489 0.789872 -0.11473
C_ C_ 0.549533 0.639849 0.709201 -0.11473
C_ C_ 0.804898 0.634681 0.712726 -0.11473
C_ C_ 0.529634 0.579945 0.743087 -0.02249
C_ C_ 0.779357 0.580963 0.753707 -0.02249
C_ C_ 0.583348 0.692621 0.74741 0.6875
C_ C_ 0.829721 0.693881 0.747049 0.6875
C_ C_ 0.545436 0.590217 0.780741 -0.11473
C_ C_ 0.786418 0.601809 0.791042 -0.11473
C_ C_ 0.594272 0.741737 0.874798 0.17695
C_ C_ 0.89119 0.717092 0.871335 0.17695
C_ C_ 0.643646 0.763847 0.880249 0.17695
C_ C_ 0.866755 0.782237 0.875505 0.17695
C_ C_ 0.642907 0.758575 0.924949 -0.11473
C_ C_ 0.867924 0.779546 0.919907 -0.11473
C_ C_ 0.61628 0.747382 0.943937 0.23465
C_ C_ 0.878851 0.742967 0.939591 0.23465
C_ C_ 0.591328 0.738486 0.918447 -0.11473
C_ C_ 0.888167 0.711681 0.914669 -0.11473
C_ C_ 0.634587 0.712211 0.632918 0.17695
C_ C_ 0.861177 0.791004 0.626569 0.17695
C_ C_ 0.623972 0.783301 0.623347 0.17695
C_ C_ 0.874204 0.71877 0.620869 0.17695
C_ C_ 0.625386 0.778555 0.578926 -0.11473
C_ C_ 0.875261 0.722352 0.575477 -0.11473
C_ C_ 0.627267 0.738463 0.561189 0.23465
C_ C_ 0.869847 0.761506 0.556485 0.23465
C_ C_ 0.628884 0.704665 0.590905 -0.11473
C_ C_ 0.859443 0.794154 0.582155 -0.11473
C_ C_ 0.528921 0.00352873 0.742223 0.05793
C_ C_ 0.781897 0.00260489 0.757001 0.05793
C_ C_ 0.715776 0.499073 0.755296 0.05793
C_ C_ 0.964529 0.498062 0.742093 0.05793
Br Br 0.572342 0.00312992 0.730444 -0.17191
Br Br 0.825123 1.00286422 0.756026 -0.17191
Br Br 0.673285 0.501942 0.758185 -0.17191
Br Br 0.921568 0.495094 0.746645 -0.17191
N_ N_ 0.619955 0.751868 0.855898 -0.272
N_ N_ 0.88119 0.752726 0.852674 -0.272
N_ N_ 0.615497 0.742098 0.988207 -0.12501
N_ N_ 0.881325 0.736343 0.985771 -0.12501
N_ N_ 0.626935 0.749636 0.648346 -0.272
N_ N_ 0.867388 0.752449 0.645559 -0.272
N_ N_ 0.625102 0.731212 0.515702 -0.12501
N_ N_ 0.868483 0.766001 0.512515 -0.12501
O_ O_ 0.593881 0.795298 0.713797 -0.60745
O_ O_ 0.840072 0.79146 0.720124 -0.60745
O_ O_ 0.594281 0.799276 0.782799 -0.60745
O_ O_ 0.847091 0.798509 0.787335 -0.60745
O_ O_ 0.656026 0.796549 0.783601 -0.60745
O_ O_ 0.909999 0.785818 0.781882 -0.60745
O_ O_ 0.65794 0.795506 0.71548 -0.60745
O_ O_ 0.897666 0.797388 0.716299 -0.60745
O_ O_ 0.648311 0.702189 0.788928 -0.60745
O_ O_ 0.905959 0.706274 0.774574 -0.60745
O_ O_ 0.657907 0.711005 0.721647 -0.60745
O_ O_ 0.90685 0.709907 0.705901 -0.60745
O_ O_ 0.594134 0.708168 0.714733 -0.60745
O_ O_ 0.845315 0.698751 0.714706 -0.60745
O_ O_ 0.585295 0.713526 0.781149 -0.60745
O_ O_ 0.837729 0.71196 0.782088 -0.60745
