_cell_length_a 44.444
_cell_length_b 32.3360000049186
_cell_length_c 31.843999878906452
_cell_angle_alpha 89.99799923859553
_cell_angle_beta 91.13600050494348
_cell_angle_gamma 89.9990006550086
_symmetry_space_group_name_H-M         'P 1'
_symmetry_Int_Tables_number            1
loop_
_symmetry_equiv_pos_as_xyz
   'x, y, z'
                         
loop_
_atom_site_label
_atom_site_type_symbol
_atom_site_fract_x 
_atom_site_fract_y
_atom_site_fract_z
_atom_site_charge
Zn Zn 0.128257 0.256238 0.285154 0.9476
Zn Zn 0.372089 0.253537 0.286764 0.9476
Zn Zn 0.126523 0.25648 0.214242 0.9476
Zn Zn 0.369746 0.2516 0.215998 0.9476
H_ H_ 0.021253 0.412762 0.18711 0.10932
H_ H_ 0.287304 0.429418 0.183964 0.10932
H_ H_ 0.0792617 0.373697 0.315362 0.10932
H_ H_ 0.313824 0.365524 0.317303 0.10932
H_ H_ 0.0484359 0.344134 0.189449 0.10932
H_ H_ 0.320208 0.367704 0.183878 0.10932
H_ H_ 0.0473316 0.433584 0.317045 0.10932
H_ H_ 0.281397 0.421151 0.318784 0.10932
H_ H_ 0.227166 0.419183 0.308204 0.10932
H_ H_ 0.444514 0.43851 0.311232 0.10932
H_ H_ 0.17926 0.359089 0.177571 0.10932
H_ H_ 0.446089 0.342544 0.190547 0.10932
H_ H_ 0.197104 0.353543 0.310657 0.10932
H_ H_ 0.419192 0.371514 0.315434 0.10932
H_ H_ 0.205696 0.423335 0.174561 0.10932
H_ H_ 0.47409 0.409421 0.188163 0.10932
H_ H_ 0.217556 0.0899788 0.313788 0.10932
H_ H_ 0.453341 0.0767849 0.316457 0.10932
H_ H_ 0.174046 0.137891 0.178202 0.10932
H_ H_ 0.44153 0.163035 0.187605 0.10932
H_ H_ 0.18948 0.155041 0.311271 0.10932
H_ H_ 0.419901 0.139062 0.317536 0.10932
H_ H_ 0.210436 0.0792606 0.18353 0.10932
H_ H_ 0.472355 0.0962154 0.187722 0.10932
H_ H_ 0.0265757 0.0941471 0.178091 0.10932
H_ H_ 0.28413 0.084601 0.186409 0.10932
H_ H_ 0.084804 0.136452 0.307725 0.10932
H_ H_ 0.302481 0.156661 0.322715 0.10932
H_ H_ 0.0529595 0.160864 0.179147 0.10932
H_ H_ 0.303894 0.156083 0.186196 0.10932
H_ H_ 0.0520164 0.0744952 0.308772 0.10932
H_ H_ 0.28466 0.0863584 0.321974 0.10932
H_ H_ 0.122394 0.318174 0.354828 0.10932
H_ H_ 0.379283 0.323409 0.360362 0.10932
H_ H_ 0.127304 0.18846 0.361249 0.10932
H_ H_ 0.367348 0.191046 0.369714 0.10932
H_ H_ 0.118807 0.191924 0.440534 0.10932
H_ H_ 0.367678 0.19434 0.444545 0.10932
H_ H_ 0.126727 0.320436 0.437939 0.10932
H_ H_ 0.381832 0.329409 0.434984 0.10932
H_ H_ 0.130139 0.321184 0.143247 0.10932
H_ H_ 0.38546 0.309524 0.136537 0.10932
H_ H_ 0.114759 0.192435 0.138127 0.10932
H_ H_ 0.373127 0.184164 0.150226 0.10932
H_ H_ 0.119683 0.197504 0.0582608 0.10932
H_ H_ 0.378726 0.173002 0.0715911 0.10932
H_ H_ 0.136507 0.325443 0.068583 0.10932
H_ H_ 0.385231 0.305012 0.0587149 0.10932
C_ C_ 0.0682068 0.356456 0.250232 -0.02249
C_ C_ 0.314235 0.35537 0.250951 -0.02249
C_ C_ 0.0149526 0.466905 0.250173 -0.02249
C_ C_ 0.265506 0.468785 0.251447 -0.02249
C_ C_ 0.0342469 0.403326 0.214128 -0.11473
C_ C_ 0.291379 0.413443 0.212904 -0.11473
C_ C_ 0.0648777 0.379297 0.287021 -0.11473
C_ C_ 0.305359 0.375247 0.287966 -0.11473
C_ C_ 0.0508498 0.367243 0.214816 -0.11473
C_ C_ 0.310606 0.378986 0.212675 -0.11473
C_ C_ 0.030522 0.425847 0.253253 -0.02249
C_ C_ 0.282989 0.43009 0.251021 -0.02249
C_ C_ 0.0890305 0.319952 0.251281 0.6875
C_ C_ 0.33456 0.317213 0.252634 0.6875
C_ C_ 0.0456205 0.413367 0.289669 -0.11473
C_ C_ 0.289324 0.40992 0.2892 -0.11473
C_ C_ 0.187168 0.352198 0.245085 -0.02249
C_ C_ 0.430281 0.349819 0.252639 -0.02249
C_ C_ 0.23351 0.46916 0.239535 -0.02249
C_ C_ 0.481375 0.464683 0.253479 -0.02249
C_ C_ 0.214847 0.408751 0.279743 -0.11473
C_ C_ 0.445653 0.415831 0.285936 -0.11473
C_ C_ 0.190735 0.372525 0.205771 -0.11473
C_ C_ 0.445485 0.361889 0.218149 -0.11473
C_ C_ 0.200721 0.36925 0.282536 -0.11473
C_ C_ 0.429905 0.377727 0.287286 -0.11473
C_ C_ 0.216957 0.42905 0.24134 -0.02249
C_ C_ 0.462035 0.42662 0.251349 -0.02249
C_ C_ 0.169083 0.313651 0.247812 0.6875
C_ C_ 0.41099 0.311333 0.252227 0.6875
C_ C_ 0.203028 0.411684 0.205179 -0.11473
C_ C_ 0.461947 0.399904 0.2172 -0.11473
C_ C_ 0.181875 0.152306 0.244848 -0.02249
C_ C_ 0.426656 0.153302 0.25123 -0.02249
C_ C_ 0.234102 0.0389364 0.248147 -0.02249
C_ C_ 0.481674 0.0415303 0.249291 -0.02249
C_ C_ 0.208466 0.0993021 0.284532 -0.11473
C_ C_ 0.447926 0.093589 0.287447 -0.11473
C_ C_ 0.186099 0.12934 0.208154 -0.11473
C_ C_ 0.440602 0.140522 0.214706 -0.11473
C_ C_ 0.190556 0.135161 0.282938 -0.11473
C_ C_ 0.429084 0.128507 0.287372 -0.11473
C_ C_ 0.214686 0.0771869 0.248562 -0.02249
C_ C_ 0.461969 0.0789365 0.251058 -0.02249
C_ C_ 0.163475 0.193111 0.243763 0.6875
C_ C_ 0.408233 0.19309 0.252288 0.6875
C_ C_ 0.205979 0.0952518 0.210527 -0.11473
C_ C_ 0.461015 0.105443 0.21574 -0.11473
C_ C_ 0.0698924 0.153625 0.245928 -0.02249
C_ C_ 0.309803 0.158136 0.253963 -0.02249
C_ C_ 0.0193813 0.040695 0.242878 -0.02249
C_ C_ 0.265727 0.0398536 0.252674 -0.02249
C_ C_ 0.039291 0.104384 0.207474 -0.11473
C_ C_ 0.288473 0.100378 0.216093 -0.11473
C_ C_ 0.0710533 0.127349 0.28015 -0.11473
C_ C_ 0.297439 0.143725 0.292526 -0.11473
C_ C_ 0.0542457 0.143102 0.208561 -0.11473
C_ C_ 0.301381 0.138789 0.215393 -0.11473
C_ C_ 0.0393492 0.078257 0.242874 -0.02249
C_ C_ 0.281644 0.0799016 0.25451 -0.02249
C_ C_ 0.0879274 0.193977 0.248644 0.6875
C_ C_ 0.329928 0.195649 0.252683 0.6875
C_ C_ 0.0533564 0.091631 0.279867 -0.11473
C_ C_ 0.285354 0.103512 0.293945 -0.11473
C_ C_ 0.125533 0.2908 0.375284 0.17695
C_ C_ 0.374807 0.295295 0.37632 0.17695
C_ C_ 0.12926 0.217301 0.378553 0.17695
C_ C_ 0.369546 0.222633 0.382536 0.17695
C_ C_ 0.126077 0.219396 0.422901 -0.11473
C_ C_ 0.369597 0.224404 0.427334 -0.11473
C_ C_ 0.124884 0.258059 0.443126 0.23465
C_ C_ 0.371433 0.26355 0.449152 0.23465
C_ C_ 0.127308 0.293361 0.420718 -0.11473
C_ C_ 0.377956 0.298161 0.422836 -0.11473
C_ C_ 0.126422 0.293573 0.123921 0.17695
C_ C_ 0.380334 0.280932 0.120014 0.17695
C_ C_ 0.117952 0.22154 0.121029 0.17695
C_ C_ 0.373395 0.209958 0.128167 0.17695
C_ C_ 0.124105 0.222432 0.0775644 -0.11473
C_ C_ 0.379148 0.203923 0.0837667 -0.11473
C_ C_ 0.13175 0.259511 0.0590162 0.23465
C_ C_ 0.380058 0.238842 0.0583338 0.23465
C_ C_ 0.13094 0.296148 0.0826542 -0.11473
C_ C_ 0.382692 0.277617 0.0769906 -0.11473
C_ C_ 0.0309648 0.504771 0.249736 0.05793
C_ C_ 0.280624 0.505831 0.259057 0.05793
C_ C_ 0.219241 0.0007800000000000029 0.244953 0.05793
C_ C_ 0.466266 1.00232488 0.246661 0.05793
Br Br 0.0737271 0.505902 0.2419 -0.17191
Br Br 0.323622 0.505046 0.269678 -0.17191
Br Br 0.176087 -0.0037890000000000423 0.242346 -0.17191
Br Br 0.422915 0.996107 0.232597 -0.17191
N_ N_ 0.130371 0.253012 0.356702 -0.272
N_ N_ 0.372447 0.25695 0.357886 -0.272
N_ N_ 0.121242 0.261062 0.487208 -0.12501
N_ N_ 0.372439 0.266713 0.494685 -0.12501
N_ N_ 0.120063 0.257324 0.143481 -0.272
N_ N_ 0.37167 0.247888 0.143266 -0.272
N_ N_ 0.138534 0.264253 0.0152887 -0.12501
N_ N_ 0.383009 0.234044 0.0135819 -0.12501
O_ O_ 0.0977588 0.304747 0.216696 -0.60745
O_ O_ 0.334322 0.293706 0.220973 -0.60745
O_ O_ 0.0972983 0.304116 0.285915 -0.60745
O_ O_ 0.347157 0.306057 0.286786 -0.60745
O_ O_ 0.15914 0.300387 0.282498 -0.60745
O_ O_ 0.409607 0.288946 0.28386 -0.60745
O_ O_ 0.158097 0.298159 0.214413 -0.60745
O_ O_ 0.401167 0.29702 0.21741 -0.60745
O_ O_ 0.161777 0.214208 0.278199 -0.60745
O_ O_ 0.394818 0.203051 0.286407 -0.60745
O_ O_ 0.152487 0.207354 0.209441 -0.60745
O_ O_ 0.401614 0.212119 0.218153 -0.60745
O_ O_ 0.0938072 0.214117 0.215353 -0.60745
O_ O_ 0.340426 0.204789 0.216929 -0.60745
O_ O_ 0.0967945 0.208332 0.284515 -0.60745
O_ O_ 0.337244 0.216184 0.283763 -0.60745
Zn Zn 0.130238 0.250102 0.783778 0.9476
Zn Zn 0.37334 0.245383 0.790034 0.9476
Zn Zn 0.129012 0.252072 0.715183 0.9476
Zn Zn 0.370994 0.245793 0.719598 0.9476
H_ H_ 0.0377485 0.415528 0.685809 0.10932
H_ H_ 0.28398 0.414869 0.684918 0.10932
H_ H_ 0.0734767 0.351856 0.813837 0.10932
H_ H_ 0.311387 0.348523 0.820184 0.10932
H_ H_ 0.0632787 0.349185 0.678033 0.10932
H_ H_ 0.314656 0.354944 0.685594 0.10932
H_ H_ 0.0397816 0.414893 0.816724 0.10932
H_ H_ 0.286468 0.419457 0.820597 0.10932
H_ H_ 0.218579 0.422872 0.812632 0.10932
H_ H_ 0.46233 0.420051 0.812126 0.10932
H_ H_ 0.18939 0.355333 0.679343 0.10932
H_ H_ 0.427374 0.349241 0.67892 0.10932
H_ H_ 0.188727 0.361406 0.812308 0.10932
H_ H_ 0.440419 0.348569 0.812898 0.10932
H_ H_ 0.215193 0.420698 0.678573 0.10932
H_ H_ 0.460707 0.409332 0.678495 0.10932
H_ H_ 0.211711 0.0790989 0.82563 0.10932
H_ H_ 0.477854 0.0910874 0.81582 0.10932
H_ H_ 0.191916 0.147831 0.68887 0.10932
H_ H_ 0.411528 0.120041 0.694333 0.10932
H_ H_ 0.182578 0.141451 0.827137 0.10932
H_ H_ 0.457514 0.161113 0.805247 0.10932
H_ H_ 0.215245 0.0795158 0.691355 0.10932
H_ H_ 0.445694 0.0589327 0.693247 0.10932
H_ H_ 0.0257422 0.0919657 0.687783 0.10932
H_ H_ 0.276317 0.0812119 0.687312 0.10932
H_ H_ 0.0905322 0.130566 0.809129 0.10932
H_ H_ 0.312565 0.137788 0.826986 0.10932
H_ H_ 0.0584414 0.151335 0.684963 0.10932
H_ H_ 0.318249 0.137723 0.68934 0.10932
H_ H_ 0.0586584 0.067425 0.814821 0.10932
H_ H_ 0.291559 0.0742285 0.822488 0.10932
H_ H_ 0.177886 0.250164 0.865365 0.10932
H_ H_ 0.368758 0.317826 0.856092 0.10932
H_ H_ 0.0850186 0.254373 0.853123 0.10932
H_ H_ 0.381123 0.189191 0.862962 0.10932
H_ H_ 0.077028 0.252431 0.932407 0.10932
H_ H_ 0.382975 0.19109 0.942054 0.10932
H_ H_ 0.171847 0.244868 0.945831 0.10932
H_ H_ 0.374568 0.323415 0.93204 0.10932
H_ H_ 0.137033 0.178664 0.646332 0.10932
H_ H_ 0.412121 0.215706 0.646182 0.10932
H_ H_ 0.124438 0.307346 0.633753 0.10932
H_ H_ 0.321433 0.257262 0.645559 0.10932
H_ H_ 0.123117 0.302076 0.554485 0.10932
H_ H_ 0.319026 0.247585 0.569431 0.10932
H_ H_ 0.129644 0.170946 0.570388 0.10932
H_ H_ 0.41646 0.232688 0.571362 0.10932
C_ C_ 0.0709189 0.345389 0.745417 -0.02249
C_ C_ 0.313124 0.34323 0.752943 -0.02249
C_ C_ 0.0183394 0.45614 0.75021 -0.02249
C_ C_ 0.269602 0.462717 0.751215 -0.02249
C_ C_ 0.0426646 0.399723 0.711763 -0.11473
C_ C_ 0.290992 0.402289 0.716006 -0.11473
C_ C_ 0.0654283 0.364735 0.784323 -0.11473
C_ C_ 0.306415 0.363572 0.789946 -0.11473
C_ C_ 0.059506 0.364356 0.708517 -0.11473
C_ C_ 0.305421 0.364155 0.715968 -0.11473
C_ C_ 0.0346885 0.416697 0.750707 -0.02249
C_ C_ 0.286178 0.421747 0.752398 -0.02249
C_ C_ 0.0891599 0.306842 0.74357 0.6875
C_ C_ 0.334287 0.305648 0.754539 0.6875
C_ C_ 0.0450604 0.398029 0.786877 -0.11473
C_ C_ 0.294657 0.402771 0.790673 -0.11473
C_ C_ 0.183926 0.35577 0.748353 -0.02249
C_ C_ 0.432263 0.342665 0.746854 -0.02249
C_ C_ 0.238339 0.466343 0.748412 -0.02249
C_ C_ 0.483772 0.456425 0.74321 -0.02249
C_ C_ 0.210079 0.410945 0.783768 -0.11473
C_ C_ 0.455656 0.402776 0.781535 -0.11473
C_ C_ 0.195011 0.370681 0.709977 -0.11473
C_ C_ 0.439515 0.359712 0.70823 -0.11473
C_ C_ 0.193414 0.375295 0.784338 -0.11473
C_ C_ 0.442755 0.362646 0.783436 -0.11473
C_ C_ 0.220956 0.424949 0.746128 -0.02249
C_ C_ 0.466607 0.416651 0.743974 -0.02249
C_ C_ 0.165892 0.31599 0.750761 0.6875
C_ C_ 0.413873 0.30456 0.750412 0.6875
C_ C_ 0.211878 0.406207 0.70781 -0.11473
C_ C_ 0.458076 0.395398 0.708284 -0.11473
C_ C_ 0.185217 0.149299 0.757749 -0.02249
C_ C_ 0.430039 0.145349 0.752916 -0.02249
C_ C_ 0.232249 0.0339981 0.758159 -0.02249
C_ C_ 0.485607 0.0315907 0.755714 -0.02249
C_ C_ 0.206021 0.0933644 0.79632 -0.11473
C_ C_ 0.466973 0.100435 0.787159 -0.11473
C_ C_ 0.195965 0.132995 0.720107 -0.11473
C_ C_ 0.429478 0.117688 0.717104 -0.11473
C_ C_ 0.190086 0.128704 0.795696 -0.11473
C_ C_ 0.449885 0.136791 0.786909 -0.11473
C_ C_ 0.216374 0.0745101 0.759544 -0.02249
C_ C_ 0.464841 0.0706856 0.754443 -0.02249
C_ C_ 0.170366 0.191223 0.757664 0.6875
C_ C_ 0.408729 0.181312 0.756177 0.6875
C_ C_ 0.21067 0.0946926 0.720456 -0.11473
C_ C_ 0.446685 0.0813711 0.717964 -0.11473
C_ C_ 0.0726563 0.148196 0.751337 -0.02249
C_ C_ 0.31344 0.149732 0.757666 -0.02249
C_ C_ 0.0181755 0.0365549 0.75005 -0.02249
C_ C_ 0.264363 0.0340103 0.755886 -0.02249
C_ C_ 0.0370474 0.102045 0.716738 -0.11473
C_ C_ 0.285717 0.094977 0.717177 -0.11473
C_ C_ 0.0732075 0.123254 0.785221 -0.11473
C_ C_ 0.305209 0.129858 0.794951 -0.11473
C_ C_ 0.0528836 0.139493 0.717106 -0.11473
C_ C_ 0.30445 0.130153 0.718085 -0.11473
C_ C_ 0.0367393 0.0763476 0.752782 -0.02249
C_ C_ 0.280895 0.0736435 0.755993 -0.02249
C_ C_ 0.0918331 0.184683 0.750302 0.6875
C_ C_ 0.332108 0.18635 0.75867 0.6875
C_ C_ 0.0558547 0.0871201 0.78705 -0.11473
C_ C_ 0.289229 0.0923208 0.794569 -0.11473
C_ C_ 0.155835 0.250949 0.880079 0.17695
C_ C_ 0.371818 0.288786 0.875215 0.17695
C_ C_ 0.102513 0.247674 0.873954 0.17695
C_ C_ 0.380499 0.217885 0.880185 0.17695
C_ C_ 0.0990201 0.252995 0.918422 -0.11473
C_ C_ 0.379817 0.219245 0.923329 -0.11473
C_ C_ 0.124746 0.250596 0.94498 0.23465
C_ C_ 0.376804 0.256484 0.944189 0.23465
C_ C_ 0.152487 0.248083 0.924728 -0.11473
C_ C_ 0.371226 0.29199 0.918861 -0.11473
C_ C_ 0.135944 0.205962 0.625483 0.17695
C_ C_ 0.393739 0.231379 0.629516 0.17695
C_ C_ 0.127993 0.277799 0.619904 0.17695
C_ C_ 0.34173 0.24598 0.628595 0.17695
C_ C_ 0.126848 0.27409 0.575554 -0.11473
C_ C_ 0.340618 0.244865 0.586061 -0.11473
C_ C_ 0.127045 0.236008 0.55601 0.23465
C_ C_ 0.367321 0.245071 0.563574 0.23465
C_ C_ 0.131323 0.201293 0.581394 -0.11473
C_ C_ 0.395604 0.240016 0.586648 -0.11473
C_ C_ 0.0336092 0.493532 0.751038 0.05793
C_ C_ 0.286809 0.500612 0.750983 0.05793
C_ C_ 0.215126 -0.0035530000000000284 0.752767 0.05793
C_ C_ 0.471602 0.993322 0.760308 0.05793
Br Br 0.0773293 0.494558 0.749695 -0.17191
Br Br 0.329251 0.499299 0.747357 -0.17191
Br Br 0.171363 -0.003130999999999995 0.753048 -0.17191
Br Br 0.429607 0.990351 0.771903 -0.17191
N_ N_ 0.13004 0.248873 0.855684 -0.272
N_ N_ 0.375308 0.252578 0.856503 -0.272
N_ N_ 0.121223 0.247391 0.989037 -0.12501
N_ N_ 0.372721 0.25976 0.98769 -0.12501
N_ N_ 0.131791 0.242773 0.64484 -0.272
N_ N_ 0.367785 0.238208 0.650414 -0.272
N_ N_ 0.131207 0.232883 0.511617 -0.12501
N_ N_ 0.365132 0.238524 0.519211 -0.12501
O_ O_ 0.0935161 0.289632 0.709595 -0.60745
O_ O_ 0.341227 0.288929 0.720314 -0.60745
O_ O_ 0.0985432 0.290767 0.777694 -0.60745
O_ O_ 0.342941 0.291371 0.788987 -0.60745
O_ O_ 0.16135 0.296856 0.784688 -0.60745
O_ O_ 0.405523 0.290724 0.785839 -0.60745
O_ O_ 0.154695 0.301529 0.71684 -0.60745
O_ O_ 0.405324 0.283734 0.717566 -0.60745
O_ O_ 0.162712 0.206416 0.791845 -0.60745
O_ O_ 0.40241 0.197471 0.792089 -0.60745
O_ O_ 0.1618 0.208022 0.723461 -0.60745
O_ O_ 0.395831 0.196337 0.724269 -0.60745
O_ O_ 0.101472 0.199857 0.716274 -0.60745
O_ O_ 0.335301 0.205524 0.723533 -0.60745
O_ O_ 0.0993399 0.202862 0.78451 -0.60745
O_ O_ 0.343044 0.202165 0.792785 -0.60745
Zn Zn 0.126812 0.754003 0.283761 0.9476
Zn Zn 0.372848 0.747508 0.285613 0.9476
Zn Zn 0.122255 0.752777 0.214362 0.9476
Zn Zn 0.376965 0.753519 0.217148 0.9476
H_ H_ 0.0240878 0.907527 0.182753 0.10932
H_ H_ 0.293247 0.924507 0.186812 0.10932
H_ H_ 0.073174 0.864308 0.318272 0.10932
H_ H_ 0.307711 0.847621 0.320951 0.10932
H_ H_ 0.0479172 0.839239 0.187818 0.10932
H_ H_ 0.32993 0.86915 0.189678 0.10932
H_ H_ 0.0505733 0.931442 0.312951 0.10932
H_ H_ 0.278515 0.913128 0.317563 0.10932
H_ H_ 0.213029 0.920131 0.317216 0.10932
H_ H_ 0.452125 0.930411 0.315525 0.10932
H_ H_ 0.18485 0.849634 0.18169 0.10932
H_ H_ 0.447378 0.846171 0.185678 0.10932
H_ H_ 0.181242 0.861555 0.315971 0.10932
H_ H_ 0.432245 0.859465 0.31552 0.10932
H_ H_ 0.209614 0.915433 0.177106 0.10932
H_ H_ 0.476954 0.907212 0.184818 0.10932
H_ H_ 0.206425 0.579668 0.307668 0.10932
H_ H_ 0.461957 0.581377 0.319928 0.10932
H_ H_ 0.197465 0.664682 0.178082 0.10932
H_ H_ 0.445349 0.654965 0.184762 0.10932
H_ H_ 0.185291 0.646111 0.31385 0.10932
H_ H_ 0.423839 0.637064 0.315865 0.10932
H_ H_ 0.219682 0.59736 0.174671 0.10932
H_ H_ 0.470234 0.58906 0.183532 0.10932
H_ H_ 0.0377719 0.580199 0.18137 0.10932
H_ H_ 0.30112 0.573508 0.196936 0.10932
H_ H_ 0.0573045 0.66277 0.309533 0.10932
H_ H_ 0.287215 0.673011 0.308556 0.10932
H_ H_ 0.0630222 0.643974 0.177617 0.10932
H_ H_ 0.330828 0.632512 0.192411 0.10932
H_ H_ 0.0270098 0.593779 0.313861 0.10932
H_ H_ 0.265111 0.605848 0.314622 0.10932
H_ H_ 0.141155 0.817911 0.361229 0.10932
H_ H_ 0.386037 0.683747 0.367959 0.10932
H_ H_ 0.113505 0.693562 0.354729 0.10932
H_ H_ 0.370458 0.81321 0.357562 0.10932
H_ H_ 0.108195 0.689115 0.431144 0.10932
H_ H_ 0.363543 0.819636 0.434794 0.10932
H_ H_ 0.143062 0.813355 0.439408 0.10932
H_ H_ 0.389977 0.690924 0.443853 0.10932
H_ H_ 0.161319 0.783604 0.135359 0.10932
H_ H_ 0.361733 0.689457 0.137073 0.10932
H_ H_ 0.0747121 0.726298 0.138362 0.10932
H_ H_ 0.37439 0.820062 0.14618 0.10932
H_ H_ 0.0708745 0.730497 0.063851 0.10932
H_ H_ 0.375864 0.826121 0.0683164 0.10932
H_ H_ 0.156302 0.792707 0.0586364 0.10932
H_ H_ 0.368789 0.69311 0.0617474 0.10932
C_ C_ 0.0632036 0.846358 0.253341 -0.02249
C_ C_ 0.320482 0.851969 0.254741 -0.02249
C_ C_ 0.0159655 0.963217 0.244986 -0.02249
C_ C_ 0.266441 0.963376 0.257029 -0.02249
C_ C_ 0.0349112 0.897275 0.212369 -0.11473
C_ C_ 0.295247 0.907951 0.215908 -0.11473
C_ C_ 0.0614709 0.871441 0.288802 -0.11473
C_ C_ 0.307026 0.866436 0.291957 -0.11473
C_ C_ 0.0473288 0.859198 0.215945 -0.11473
C_ C_ 0.316102 0.875402 0.2164 -0.11473
C_ C_ 0.0317743 0.922134 0.2481 -0.02249
C_ C_ 0.28369 0.924121 0.253829 -0.02249
C_ C_ 0.0835863 0.810359 0.252002 0.6875
C_ C_ 0.334446 0.81028 0.252584 0.6875
C_ C_ 0.0461578 0.910259 0.287647 -0.11473
C_ C_ 0.287653 0.900011 0.289953 -0.11473
C_ C_ 0.181963 0.849913 0.248563 -0.02249
C_ C_ 0.435464 0.849308 0.250759 -0.02249
C_ C_ 0.235978 0.962771 0.245122 -0.02249
C_ C_ 0.482771 0.965249 0.249732 -0.02249
C_ C_ 0.207516 0.907424 0.285177 -0.11473
C_ C_ 0.454496 0.90929 0.287902 -0.11473
C_ C_ 0.189508 0.866382 0.209548 -0.11473
C_ C_ 0.446266 0.86487 0.21331 -0.11473
C_ C_ 0.19019 0.870548 0.286471 -0.11473
C_ C_ 0.44086 0.871589 0.287546 -0.11473
C_ C_ 0.217233 0.923535 0.246116 -0.02249
C_ C_ 0.467954 0.924092 0.25083 -0.02249
C_ C_ 0.162259 0.812417 0.250079 0.6875
C_ C_ 0.413312 0.812682 0.250058 0.6875
C_ C_ 0.205763 0.903392 0.208411 -0.11473
C_ C_ 0.465848 0.899364 0.214535 -0.11473
C_ C_ 0.187794 0.661505 0.246598 -0.02249
C_ C_ 0.434429 0.654373 0.251766 -0.02249
C_ C_ 0.234474 0.545287 0.243632 -0.02249
C_ C_ 0.484794 0.53925 0.25185 -0.02249
C_ C_ 0.202804 0.596106 0.279822 -0.11473
C_ C_ 0.457768 0.59679 0.288822 -0.11473
C_ C_ 0.19801 0.64572 0.207526 -0.11473
C_ C_ 0.447286 0.638147 0.214517 -0.11473
C_ C_ 0.192631 0.636961 0.283695 -0.11473
C_ C_ 0.438046 0.630759 0.288533 -0.11473
C_ C_ 0.216818 0.583938 0.243214 -0.02249
C_ C_ 0.469423 0.579522 0.252589 -0.02249
C_ C_ 0.168818 0.69892 0.248247 0.6875
C_ C_ 0.413339 0.689932 0.249175 0.6875
C_ C_ 0.212954 0.607881 0.205748 -0.11473
C_ C_ 0.464325 0.602261 0.215146 -0.11473
C_ C_ 0.0604762 0.661167 0.245213 -0.02249
C_ C_ 0.312484 0.659631 0.250225 -0.02249
C_ C_ 0.014475 0.543314 0.250573 -0.02249
C_ C_ 0.264618 0.54439 0.25403 -0.02249
C_ C_ 0.0395302 0.598445 0.209232 -0.11473
C_ C_ 0.296672 0.594945 0.217615 -0.11473
C_ C_ 0.0510423 0.64561 0.282341 -0.11473
C_ C_ 0.290153 0.652584 0.281496 -0.11473
C_ C_ 0.0559593 0.634869 0.208029 -0.11473
C_ C_ 0.314683 0.629492 0.217708 -0.11473
C_ C_ 0.0291529 0.5845 0.247756 -0.02249
C_ C_ 0.280811 0.584357 0.254567 -0.02249
C_ C_ 0.0848388 0.694532 0.245891 0.6875
C_ C_ 0.334446 0.691836 0.253372 0.6875
C_ C_ 0.0338861 0.607087 0.284015 -0.11473
C_ C_ 0.278529 0.613551 0.287166 -0.11473
C_ C_ 0.133816 0.78878 0.37791 0.17695
C_ C_ 0.381599 0.713377 0.381857 0.17695
C_ C_ 0.115348 0.720396 0.37466 0.17695
C_ C_ 0.366389 0.784052 0.374887 0.17695
C_ C_ 0.113293 0.719484 0.418922 -0.11473
C_ C_ 0.36458 0.787851 0.41947 -0.11473
C_ C_ 0.121665 0.752975 0.443964 0.23465
C_ C_ 0.373154 0.754923 0.445658 0.23465
C_ C_ 0.133764 0.787892 0.423169 -0.11473
C_ C_ 0.380921 0.716335 0.426568 -0.11473
C_ C_ 0.140479 0.773839 0.119811 0.17695
C_ C_ 0.367604 0.71862 0.122945 0.17695
C_ C_ 0.0936567 0.740353 0.120929 0.17695
C_ C_ 0.374184 0.791954 0.127668 0.17695
C_ C_ 0.0906636 0.744121 0.0779495 -0.11473
C_ C_ 0.376407 0.79658 0.0833505 -0.11473
C_ C_ 0.110701 0.766855 0.0548616 0.23465
C_ C_ 0.37499 0.759244 0.0574637 0.23465
C_ C_ 0.137813 0.781124 0.0756329 -0.11473
C_ C_ 0.369119 0.720496 0.0789505 -0.11473
C_ C_ 0.0331831 1.000320144 0.242857 0.05793
C_ C_ 0.281247 1.00291827 0.260254 0.05793
C_ C_ 0.217942 0.507799 0.237538 0.05793
C_ C_ 0.468223 0.503462 0.246098 0.05793
Br Br 0.0754082 -0.0035439999999999916 0.224327 -0.17191
Br Br 0.324458 1.00301743 0.265382 -0.17191
Br Br 0.180315 0.510744 0.208347 -0.17191
Br Br 0.428908 0.50367 0.219314 -0.17191
N_ N_ 0.124637 0.75457 0.353787 -0.272
N_ N_ 0.374996 0.747243 0.357458 -0.272
N_ N_ 0.129099 0.746317 0.48619 -0.12501
N_ N_ 0.375068 0.760913 0.490509 -0.12501
N_ N_ 0.11736 0.756635 0.141966 -0.272
N_ N_ 0.375602 0.752945 0.146226 -0.272
N_ N_ 0.106131 0.773135 0.0100982 -0.12501
N_ N_ 0.37651 0.763793 0.0139017 -0.12501
O_ O_ 0.0865686 0.788028 0.218788 -0.60745
O_ O_ 0.342501 0.794208 0.218366 -0.60745
O_ O_ 0.0952798 0.797488 0.285569 -0.60745
O_ O_ 0.345238 0.793887 0.286966 -0.60745
O_ O_ 0.158279 0.792443 0.283609 -0.60745
O_ O_ 0.406976 0.790853 0.282019 -0.60745
O_ O_ 0.145073 0.806048 0.21831 -0.60745
O_ O_ 0.40522 0.798538 0.214858 -0.60745
O_ O_ 0.158129 0.709371 0.281995 -0.60745
O_ O_ 0.400427 0.700763 0.282686 -0.60745
O_ O_ 0.162329 0.719649 0.212985 -0.60745
O_ O_ 0.411563 0.713597 0.216956 -0.60745
O_ O_ 0.0965194 0.703193 0.210866 -0.60745
O_ O_ 0.348602 0.70524 0.221008 -0.60745
O_ O_ 0.0936467 0.712983 0.279565 -0.60745
O_ O_ 0.341957 0.706713 0.288856 -0.60745
Zn Zn 0.123951 0.746467 0.781499 0.9476
Zn Zn 0.376372 0.751651 0.789229 0.9476
Zn Zn 0.122655 0.748753 0.713262 0.9476
Zn Zn 0.378053 0.750209 0.718797 0.9476
H_ H_ 0.0394252 0.923164 0.677458 0.10932
H_ H_ 0.276239 0.902113 0.689922 0.10932
H_ H_ 0.0559702 0.843255 0.812551 0.10932
H_ H_ 0.324347 0.868381 0.825057 0.10932
H_ H_ 0.0650316 0.855942 0.677753 0.10932
H_ H_ 0.308544 0.843029 0.691701 0.10932
H_ H_ 0.030748 0.914993 0.810704 0.10932
H_ H_ 0.286636 0.920211 0.821356 0.10932
H_ H_ 0.223041 0.903202 0.816372 0.10932
H_ H_ 0.479394 0.90652 0.821529 0.10932
H_ H_ 0.187717 0.848006 0.682246 0.10932
H_ H_ 0.434318 0.85711 0.685498 0.10932
H_ H_ 0.193796 0.839013 0.815757 0.10932
H_ H_ 0.444433 0.844908 0.820346 0.10932
H_ H_ 0.209853 0.916526 0.682448 0.10932
H_ H_ 0.464581 0.916621 0.68758 0.10932
H_ H_ 0.215612 0.582073 0.820364 0.10932
H_ H_ 0.462783 0.57129 0.813602 0.10932
H_ H_ 0.184184 0.644795 0.685292 0.10932
H_ H_ 0.433842 0.646085 0.681901 0.10932
H_ H_ 0.184199 0.64653 0.820602 0.10932
H_ H_ 0.436432 0.639325 0.81851 0.10932
H_ H_ 0.223446 0.589891 0.684733 0.10932
H_ H_ 0.461747 0.579894 0.678935 0.10932
H_ H_ 0.0522043 0.570505 0.677727 0.10932
H_ H_ 0.293297 0.578757 0.687388 0.10932
H_ H_ 0.0538677 0.651582 0.810931 0.10932
H_ H_ 0.313713 0.652999 0.820565 0.10932
H_ H_ 0.080555 0.633 0.682084 0.10932
H_ H_ 0.327513 0.637595 0.691838 0.10932
H_ H_ 0.0206748 0.58947 0.804196 0.10932
H_ H_ 0.282735 0.586261 0.821009 0.10932
H_ H_ 0.117509 0.81754 0.857065 0.10932
H_ H_ 0.378352 0.814734 0.869267 0.10932
H_ H_ 0.120205 0.686859 0.856144 0.10932
H_ H_ 0.386211 0.682879 0.855061 0.10932
H_ H_ 0.119118 0.687223 0.934594 0.10932
H_ H_ 0.386286 0.674891 0.930712 0.10932
H_ H_ 0.116608 0.816292 0.936224 0.10932
H_ H_ 0.382403 0.807122 0.941168 0.10932
H_ H_ 0.130571 0.685054 0.63 0.10932
H_ H_ 0.381376 0.810086 0.635091 0.10932
H_ H_ 0.118328 0.812715 0.651408 0.10932
H_ H_ 0.350974 0.688321 0.649161 0.10932
H_ H_ 0.116447 0.823962 0.575675 0.10932
H_ H_ 0.351687 0.677823 0.571727 0.10932
H_ H_ 0.1292 0.693411 0.555319 0.10932
H_ H_ 0.382749 0.802963 0.556331 0.10932
C_ C_ 0.0662307 0.844898 0.745111 -0.02249
C_ C_ 0.320042 0.850329 0.76095 -0.02249
C_ C_ 0.0178925 0.961548 0.74681 -0.02249
C_ C_ 0.263437 0.958776 0.753994 -0.02249
C_ C_ 0.0439147 0.905446 0.706931 -0.11473
C_ C_ 0.288269 0.897381 0.719812 -0.11473
C_ C_ 0.05378 0.86092 0.782855 -0.11473
C_ C_ 0.315823 0.876348 0.794638 -0.11473
C_ C_ 0.0598183 0.867013 0.707071 -0.11473
C_ C_ 0.306134 0.862444 0.72206 -0.11473
C_ C_ 0.0347252 0.922103 0.745933 -0.02249
C_ C_ 0.281876 0.920174 0.75651 -0.02249
C_ C_ 0.0795126 0.802781 0.744569 0.6875
C_ C_ 0.339262 0.811256 0.762446 0.6875
C_ C_ 0.0399722 0.90055 0.783767 -0.11473
C_ C_ 0.295451 0.908795 0.793736 -0.11473
C_ C_ 0.183066 0.842777 0.747389 -0.02249
C_ C_ 0.439042 0.844266 0.752626 -0.02249
C_ C_ 0.231467 0.957175 0.752458 -0.02249
C_ C_ 0.488862 0.957159 0.755357 -0.02249
C_ C_ 0.212813 0.892542 0.786277 -0.11473
C_ C_ 0.467201 0.895796 0.793292 -0.11473
C_ C_ 0.189279 0.864332 0.711159 -0.11473
C_ C_ 0.444819 0.865362 0.714491 -0.11473
C_ C_ 0.195287 0.856719 0.786349 -0.11473
C_ C_ 0.450805 0.859191 0.791706 -0.11473
C_ C_ 0.217803 0.915099 0.750146 -0.02249
C_ C_ 0.4731 0.916745 0.754862 -0.02249
C_ C_ 0.163981 0.805181 0.746677 0.6875
C_ C_ 0.420011 0.806871 0.751824 0.6875
C_ C_ 0.204491 0.901663 0.712377 -0.11473
C_ C_ 0.463258 0.899082 0.71597 -0.11473
C_ C_ 0.184045 0.651718 0.752675 -0.02249
C_ C_ 0.435915 0.650051 0.752054 -0.02249
C_ C_ 0.239335 0.540874 0.753599 -0.02249
C_ C_ 0.481643 0.533087 0.740636 -0.02249
C_ C_ 0.211275 0.598937 0.79054 -0.11473
C_ C_ 0.458092 0.590614 0.786145 -0.11473
C_ C_ 0.194149 0.634669 0.715103 -0.11473
C_ C_ 0.442992 0.632697 0.710618 -0.11473
C_ C_ 0.194124 0.636072 0.791785 -0.11473
C_ C_ 0.441545 0.627356 0.788829 -0.11473
C_ C_ 0.221836 0.581376 0.75306 -0.02249
C_ C_ 0.464609 0.573563 0.745617 -0.02249
C_ C_ 0.164872 0.689697 0.751596 0.6875
C_ C_ 0.413985 0.687419 0.751907 0.6875
C_ C_ 0.213099 0.598367 0.71457 -0.11473
C_ C_ 0.458601 0.595434 0.70871 -0.11473
C_ C_ 0.067771 0.645898 0.746857 -0.02249
C_ C_ 0.318853 0.655284 0.754576 -0.02249
C_ C_ 0.0182127 0.530489 0.741778 -0.02249
C_ C_ 0.271225 0.538907 0.753057 -0.02249
C_ C_ 0.0529057 0.585296 0.709558 -0.11473
C_ C_ 0.298299 0.595126 0.716877 -0.11473
C_ C_ 0.0524821 0.632589 0.78217 -0.11473
C_ C_ 0.306796 0.637596 0.791811 -0.11473
C_ C_ 0.066696 0.62322 0.709865 -0.11473
C_ C_ 0.31365 0.632496 0.716841 -0.11473
C_ C_ 0.0358078 0.572754 0.743355 -0.02249
C_ C_ 0.28966 0.576506 0.753917 -0.02249
C_ C_ 0.0847601 0.686138 0.748201 0.6875
C_ C_ 0.333981 0.694912 0.75552 0.6875
C_ C_ 0.0370308 0.59405 0.780259 -0.11473
C_ C_ 0.292999 0.598259 0.791824 -0.11473
C_ C_ 0.117663 0.788683 0.872753 0.17695
C_ C_ 0.377376 0.781946 0.88182 0.17695
C_ C_ 0.120686 0.715697 0.873591 0.17695
C_ C_ 0.382634 0.708717 0.875026 0.17695
C_ C_ 0.119878 0.715827 0.916581 -0.11473
C_ C_ 0.382242 0.70407 0.917737 -0.11473
C_ C_ 0.115905 0.751652 0.938664 0.23465
C_ C_ 0.380326 0.738219 0.9442 0.23465
C_ C_ 0.114074 0.789 0.916933 -0.11473
C_ C_ 0.378449 0.776964 0.924587 -0.11473
C_ C_ 0.130311 0.717594 0.619499 0.17695
C_ C_ 0.376658 0.781168 0.621372 0.17695
C_ C_ 0.122217 0.788092 0.63065 0.17695
C_ C_ 0.36077 0.711478 0.628488 0.17695
C_ C_ 0.119035 0.793485 0.587008 -0.11473
C_ C_ 0.359899 0.707714 0.585493 -0.11473
C_ C_ 0.122854 0.761419 0.558617 0.23465
C_ C_ 0.371177 0.738584 0.559207 0.23465
C_ C_ 0.128925 0.721778 0.575278 -0.11473
C_ C_ 0.378467 0.776007 0.57732 -0.11473
C_ C_ 0.0347793 -0.00185109 0.748465 0.05793
C_ C_ 0.279521 -0.0036810000000000453 0.750575 0.05793
C_ C_ 0.222884 0.504194 0.754103 0.05793
C_ C_ 0.467439 0.49465 0.739476 0.05793
Br Br 0.0745271 -0.000540688 0.727311 -0.17191
Br Br 0.323156 -0.0009620000000000184 0.755287 -0.17191
Br Br 0.180165 0.503986 0.753925 -0.17191
Br Br 0.4242 0.495422 0.726671 -0.17191
N_ N_ 0.1201 0.752783 0.850724 -0.272
N_ N_ 0.378979 0.748018 0.857723 -0.272
N_ N_ 0.119226 0.749398 0.985217 -0.12501
N_ N_ 0.382189 0.73447 0.989448 -0.12501
N_ N_ 0.126267 0.749387 0.645819 -0.272
N_ N_ 0.371058 0.747896 0.646353 -0.272
N_ N_ 0.118917 0.769341 0.514043 -0.12501
N_ N_ 0.366383 0.73475 0.515484 -0.12501
O_ O_ 0.0865254 0.788288 0.709258 -0.60745
O_ O_ 0.348319 0.797867 0.728355 -0.60745
O_ O_ 0.0922534 0.789401 0.77718 -0.60745
O_ O_ 0.350882 0.799102 0.797013 -0.60745
O_ O_ 0.154394 0.791464 0.78176 -0.60745
O_ O_ 0.41098 0.792395 0.785879 -0.60745
O_ O_ 0.154179 0.790362 0.712875 -0.60745
O_ O_ 0.411867 0.791184 0.718476 -0.60745
O_ O_ 0.157139 0.7058 0.786626 -0.60745
O_ O_ 0.403901 0.702782 0.786116 -0.60745
O_ O_ 0.153881 0.703186 0.717034 -0.60745
O_ O_ 0.404475 0.70228 0.717432 -0.60745
O_ O_ 0.0911798 0.702513 0.714705 -0.60745
O_ O_ 0.344855 0.709048 0.722021 -0.60745
O_ O_ 0.0926085 0.701814 0.783083 -0.60745
O_ O_ 0.341413 0.711384 0.790428 -0.60745
Zn Zn 0.623451 0.253945 0.284559 0.9476
Zn Zn 0.875623 0.257583 0.27638 0.9476
Zn Zn 0.620735 0.250337 0.218539 0.9476
Zn Zn 0.877478 0.255152 0.207741 0.9476
H_ H_ 0.535579 0.421911 0.191918 0.10932
H_ H_ 0.782511 0.424496 0.176912 0.10932
H_ H_ 0.54981 0.340868 0.321103 0.10932
H_ H_ 0.808643 0.351141 0.312615 0.10932
H_ H_ 0.57274 0.368719 0.192376 0.10932
H_ H_ 0.820524 0.366716 0.177971 0.10932
H_ H_ 0.518199 0.40334 0.321957 0.10932
H_ H_ 0.777645 0.417972 0.311096 0.10932
H_ H_ 0.707378 0.428235 0.309095 0.10932
H_ H_ 0.96263 0.423261 0.314512 0.10932
H_ H_ 0.68594 0.351405 0.178005 0.10932
H_ H_ 0.934585 0.365541 0.175302 0.10932
H_ H_ 0.688597 0.357684 0.312233 0.10932
H_ H_ 0.946255 0.349629 0.308284 0.10932
H_ H_ 0.707893 0.417475 0.170592 0.10932
H_ H_ 0.963968 0.428903 0.180314 0.10932
H_ H_ 0.716914 0.0818903 0.318393 0.10932
H_ H_ 0.984073 0.10609 0.309441 0.10932
H_ H_ 0.696328 0.15362 0.184895 0.10932
H_ H_ 0.931035 0.14532 0.175898 0.10932
H_ H_ 0.682746 0.144822 0.319974 0.10932
H_ H_ 0.955918 0.171358 0.306369 0.10932
H_ H_ 0.721969 0.0901529 0.184294 0.10932
H_ H_ 0.960812 0.0814137 0.178948 0.10932
H_ H_ 0.542356 0.0783849 0.185026 0.10932
H_ H_ 0.793211 0.0794346 0.178492 0.10932
H_ H_ 0.539059 0.174564 0.302867 0.10932
H_ H_ 0.802824 0.168742 0.303958 0.10932
H_ H_ 0.576048 0.13722 0.185625 0.10932
H_ H_ 0.821362 0.147579 0.176932 0.10932
H_ H_ 0.512219 0.110041 0.308238 0.10932
H_ H_ 0.782221 0.0943357 0.309915 0.10932
H_ H_ 0.62723 0.190353 0.360492 0.10932
H_ H_ 0.885064 0.18579 0.350393 0.10932
H_ H_ 0.625081 0.320652 0.359449 0.10932
H_ H_ 0.860984 0.313749 0.350776 0.10932
H_ H_ 0.629005 0.319356 0.440792 0.10932
H_ H_ 0.863418 0.317941 0.430738 0.10932
H_ H_ 0.635227 0.192352 0.439502 0.10932
H_ H_ 0.887116 0.187399 0.429932 0.10932
H_ H_ 0.616951 0.190126 0.143265 0.10932
H_ H_ 0.857499 0.31688 0.135857 0.10932
H_ H_ 0.626786 0.320624 0.145974 0.10932
H_ H_ 0.887462 0.193488 0.130996 0.10932
H_ H_ 0.609948 0.32535 0.072754 0.10932
H_ H_ 0.891594 0.197781 0.0536162 0.10932
H_ H_ 0.613076 0.191968 0.0648235 0.10932
H_ H_ 0.849967 0.314849 0.0584246 0.10932
C_ C_ 0.565498 0.348685 0.256891 -0.02249
C_ C_ 0.81376 0.350881 0.244214 -0.02249
C_ C_ 0.51337 0.46165 0.263064 -0.02249
C_ C_ 0.763584 0.46602 0.245546 -0.02249
C_ C_ 0.541443 0.408224 0.220992 -0.11473
C_ C_ 0.788849 0.408037 0.206417 -0.11473
C_ C_ 0.548297 0.360889 0.293495 -0.11473
C_ C_ 0.799737 0.364663 0.282342 -0.11473
C_ C_ 0.560076 0.373979 0.219824 -0.11473
C_ C_ 0.808077 0.373168 0.207555 -0.11473
C_ C_ 0.528536 0.421437 0.259536 -0.02249
C_ C_ 0.780588 0.426876 0.245451 -0.02249
C_ C_ 0.583071 0.309905 0.255576 0.6875
C_ C_ 0.835001 0.315101 0.245225 0.6875
C_ C_ 0.530045 0.395018 0.294079 -0.11473
C_ C_ 0.783604 0.402769 0.282146 -0.11473
C_ C_ 0.680846 0.352079 0.24536 -0.02249
C_ C_ 0.936143 0.353372 0.242255 -0.02249
C_ C_ 0.732985 0.466121 0.237327 -0.02249
C_ C_ 0.9828 0.469076 0.248762 -0.02249
C_ C_ 0.706394 0.409834 0.280097 -0.11473
C_ C_ 0.960327 0.408749 0.284388 -0.11473
C_ C_ 0.688005 0.370169 0.205566 -0.11473
C_ C_ 0.939391 0.378238 0.205539 -0.11473
C_ C_ 0.689824 0.373367 0.28211 -0.11473
C_ C_ 0.949138 0.36745 0.28077 -0.11473
C_ C_ 0.714261 0.428 0.241918 -0.02249
C_ C_ 0.964668 0.431331 0.247153 -0.02249
C_ C_ 0.660392 0.315529 0.249891 0.6875
C_ C_ 0.915404 0.31513 0.241688 0.6875
C_ C_ 0.704543 0.406969 0.203707 -0.11473
C_ C_ 0.956849 0.413645 0.208894 -0.11473
C_ C_ 0.686462 0.154328 0.25161 -0.02249
C_ C_ 0.942883 0.165409 0.240718 -0.02249
C_ C_ 0.738472 0.0406425 0.251375 -0.02249
C_ C_ 0.987795 0.0448668 0.250042 -0.02249
C_ C_ 0.709285 0.0959979 0.289929 -0.11473
C_ C_ 0.973197 0.113634 0.279853 -0.11473
C_ C_ 0.69756 0.136487 0.213019 -0.11473
C_ C_ 0.944581 0.137848 0.204854 -0.11473
C_ C_ 0.691788 0.13181 0.289017 -0.11473
C_ C_ 0.957629 0.152103 0.278071 -0.11473
C_ C_ 0.721986 0.0807702 0.252009 -0.02249
C_ C_ 0.973217 0.0869597 0.244314 -0.02249
C_ C_ 0.665759 0.192063 0.251168 0.6875
C_ C_ 0.920821 0.201173 0.239803 0.6875
C_ C_ 0.715102 0.101603 0.213106 -0.11473
C_ C_ 0.960272 0.100777 0.206681 -0.11473
C_ C_ 0.56482 0.157791 0.248177 -0.02249
C_ C_ 0.818085 0.157858 0.242106 -0.02249
C_ C_ 0.513758 0.0447468 0.251872 -0.02249
C_ C_ 0.770643 0.040308 0.246177 -0.02249
C_ C_ 0.547143 0.0945273 0.215241 -0.11473
C_ C_ 0.796176 0.0973731 0.20543 -0.11473
C_ C_ 0.542609 0.151935 0.278558 -0.11473
C_ C_ 0.805367 0.145005 0.280436 -0.11473
C_ C_ 0.564164 0.131351 0.213051 -0.11473
C_ C_ 0.812345 0.134716 0.204765 -0.11473
C_ C_ 0.529819 0.084965 0.250446 -0.02249
C_ C_ 0.789223 0.0801751 0.245866 -0.02249
C_ C_ 0.581947 0.195512 0.24815 0.6875
C_ C_ 0.83588 0.196106 0.24189 0.6875
C_ C_ 0.526591 0.114969 0.281902 -0.11473
C_ C_ 0.790874 0.105913 0.281559 -0.11473
C_ C_ 0.629801 0.220008 0.377068 0.17695
C_ C_ 0.883582 0.215329 0.369328 0.17695
C_ C_ 0.628672 0.291976 0.376734 0.17695
C_ C_ 0.867589 0.287051 0.370274 0.17695
C_ C_ 0.62785 0.293262 0.420893 -0.11473
C_ C_ 0.867612 0.288486 0.412991 -0.11473
C_ C_ 0.627558 0.256813 0.443947 0.23465
C_ C_ 0.871451 0.250607 0.435147 0.23465
C_ C_ 0.630271 0.220402 0.421576 -0.11473
C_ C_ 0.881308 0.214488 0.413929 -0.11473
C_ C_ 0.61658 0.219936 0.12593 0.17695
C_ C_ 0.866155 0.290921 0.11655 0.17695
C_ C_ 0.622337 0.292626 0.129341 0.17695
C_ C_ 0.881693 0.222839 0.114997 0.17695
C_ C_ 0.617999 0.295131 0.0852339 -0.11473
C_ C_ 0.884667 0.224779 0.0711299 -0.11473
C_ C_ 0.614464 0.258462 0.0619385 0.23465
C_ C_ 0.87333 0.258291 0.0499584 0.23465
C_ C_ 0.616873 0.219841 0.0830189 -0.11473
C_ C_ 0.861553 0.290188 0.073491 -0.11473
C_ C_ 0.531299 0.497817 0.264043 0.05793
C_ C_ 0.779704 0.504033 0.252237 0.05793
C_ C_ 0.723126 1.00190403 0.256112 0.05793
C_ C_ 0.970637 1.00647134 0.246019 0.05793
Br Br 0.570437 0.49141 0.288548 -0.17191
Br Br 0.823696 0.501836 0.252355 -0.17191
Br Br 0.679258 0.00432966 0.263997 -0.17191
Br Br 0.928008 0.00907179 0.257701 -0.17191
N_ N_ 0.625589 0.255595 0.354853 -0.272
N_ N_ 0.8741 0.251601 0.349546 -0.272
N_ N_ 0.6229 0.260569 0.487993 -0.12501
N_ N_ 0.86483 0.252832 0.479368 -0.12501
N_ N_ 0.621497 0.254488 0.148389 -0.272
N_ N_ 0.874686 0.25677 0.136972 -0.272
N_ N_ 0.608322 0.258895 0.0158797 -0.12501
N_ N_ 0.871086 0.260671 0.00428012 -0.12501
O_ O_ 0.593127 0.297601 0.220578 -0.60745
O_ O_ 0.845523 0.301179 0.212111 -0.60745
O_ O_ 0.590204 0.29081 0.289161 -0.60745
O_ O_ 0.844167 0.299955 0.279943 -0.60745
O_ O_ 0.651646 0.303284 0.287326 -0.60745
O_ O_ 0.908391 0.299775 0.27543 -0.60745
O_ O_ 0.65525 0.291458 0.21821 -0.60745
O_ O_ 0.90448 0.303635 0.208327 -0.60745
O_ O_ 0.661923 0.214408 0.284351 -0.60745
O_ O_ 0.90835 0.21181 0.272955 -0.60745
O_ O_ 0.647804 0.198164 0.219925 -0.60745
O_ O_ 0.912566 0.215561 0.205067 -0.60745
O_ O_ 0.583793 0.218253 0.215894 -0.60745
O_ O_ 0.848426 0.207722 0.208379 -0.60745
O_ O_ 0.595634 0.206798 0.282222 -0.60745
O_ O_ 0.84407 0.212738 0.275448 -0.60745
Zn Zn 0.62547 0.24596 0.785926 0.9476
Zn Zn 0.872014 0.244944 0.779252 0.9476
Zn Zn 0.625569 0.243518 0.716337 0.9476
Zn Zn 0.871181 0.244871 0.70994 0.9476
H_ H_ 0.53512 0.411117 0.682977 0.10932
H_ H_ 0.787583 0.422348 0.682496 0.10932
H_ H_ 0.571379 0.356655 0.817307 0.10932
H_ H_ 0.813375 0.346679 0.814595 0.10932
H_ H_ 0.558828 0.339592 0.686103 0.10932
H_ H_ 0.812313 0.352792 0.678483 0.10932
H_ H_ 0.538082 0.418112 0.815598 0.10932
H_ H_ 0.785769 0.410219 0.816383 0.10932
H_ H_ 0.721224 0.412062 0.815705 0.10932
H_ H_ 0.965268 0.411474 0.808536 0.10932
H_ H_ 0.687252 0.3458 0.680409 0.10932
H_ H_ 0.937354 0.345996 0.673431 0.10932
H_ H_ 0.695039 0.341244 0.815069 0.10932
H_ H_ 0.935388 0.345425 0.80582 0.10932
H_ H_ 0.720935 0.405072 0.679644 0.10932
H_ H_ 0.963374 0.411965 0.674053 0.10932
H_ H_ 0.697342 0.0622629 0.817713 0.10932
H_ H_ 0.961743 0.0739605 0.819625 0.10932
H_ H_ 0.695065 0.141373 0.684565 0.10932
H_ H_ 0.944728 0.148201 0.686494 0.10932
H_ H_ 0.674418 0.129598 0.819409 0.10932
H_ H_ 0.930493 0.141342 0.817107 0.10932
H_ H_ 0.718862 0.0715548 0.687597 0.10932
H_ H_ 0.973262 0.0803716 0.688108 0.10932
H_ H_ 0.520702 0.0894206 0.682094 0.10932
H_ H_ 0.783726 0.0662627 0.688752 0.10932
H_ H_ 0.57034 0.141643 0.81374 0.10932
H_ H_ 0.797427 0.157606 0.807563 0.10932
H_ H_ 0.557272 0.150068 0.683161 0.10932
H_ H_ 0.819259 0.1245 0.679678 0.10932
H_ H_ 0.538674 0.0780953 0.815452 0.10932
H_ H_ 0.769136 0.091871 0.816859 0.10932
H_ H_ 0.631827 0.311288 0.86461 0.10932
H_ H_ 0.921493 0.241211 0.84607 0.10932
H_ H_ 0.61167 0.184321 0.854531 0.10932
H_ H_ 0.828 0.260709 0.858231 0.10932
H_ H_ 0.603574 0.17848 0.930647 0.10932
H_ H_ 0.832508 0.247462 0.936214 0.10932
H_ H_ 0.632335 0.306875 0.943055 0.10932
H_ H_ 0.92713 0.245392 0.926131 0.10932
H_ H_ 0.625453 0.175867 0.645716 0.10932
H_ H_ 0.874981 0.312632 0.631199 0.10932
H_ H_ 0.634549 0.30576 0.641238 0.10932
H_ H_ 0.857314 0.184408 0.63452 0.10932
H_ H_ 0.626197 0.301886 0.56012 0.10932
H_ H_ 0.865237 0.17953 0.560561 0.10932
H_ H_ 0.623439 0.169229 0.568081 0.10932
H_ H_ 0.887209 0.305628 0.555258 0.10932
C_ C_ 0.567926 0.34451 0.751551 -0.02249
C_ C_ 0.812752 0.341689 0.745532 -0.02249
C_ C_ 0.515411 0.45755 0.746434 -0.02249
C_ C_ 0.767479 0.457649 0.753274 -0.02249
C_ C_ 0.541132 0.397839 0.712058 -0.11473
C_ C_ 0.792854 0.403243 0.710912 -0.11473
C_ C_ 0.562245 0.366651 0.788074 -0.11473
C_ C_ 0.805209 0.3602 0.784773 -0.11473
C_ C_ 0.557027 0.360604 0.713191 -0.11473
C_ C_ 0.806272 0.365912 0.708083 -0.11473
C_ C_ 0.533633 0.418005 0.748957 -0.02249
C_ C_ 0.784808 0.420113 0.751208 -0.02249
C_ C_ 0.587496 0.307614 0.753509 0.6875
C_ C_ 0.831528 0.303909 0.744618 0.6875
C_ C_ 0.542949 0.401307 0.787449 -0.11473
C_ C_ 0.792741 0.399269 0.787092 -0.11473
C_ C_ 0.689022 0.338198 0.749421 -0.02249
C_ C_ 0.931977 0.342906 0.740598 -0.02249
C_ C_ 0.736308 0.455145 0.748579 -0.02249
C_ C_ 0.98624 0.455645 0.74233 -0.02249
C_ C_ 0.713277 0.395363 0.786454 -0.11473
C_ C_ 0.960116 0.39663 0.779273 -0.11473
C_ C_ 0.696169 0.357079 0.710775 -0.11473
C_ C_ 0.943823 0.358228 0.703655 -0.11473
C_ C_ 0.698111 0.357259 0.78617 -0.11473
C_ C_ 0.942016 0.360219 0.777816 -0.11473
C_ C_ 0.719945 0.414647 0.747646 -0.02249
C_ C_ 0.970386 0.415439 0.742052 -0.02249
C_ C_ 0.669115 0.300841 0.750956 0.6875
C_ C_ 0.912217 0.30477 0.74357 0.6875
C_ C_ 0.713849 0.392486 0.709265 -0.11473
C_ C_ 0.961865 0.395503 0.703593 -0.11473
C_ C_ 0.679662 0.139446 0.751349 -0.02249
C_ C_ 0.934983 0.14911 0.751421 -0.02249
C_ C_ 0.731992 0.0272285 0.75809 -0.02249
C_ C_ 0.987082 0.0365738 0.753767 -0.02249
C_ C_ 0.697777 0.0788524 0.790145 -0.11473
C_ C_ 0.957948 0.0922609 0.790875 -0.11473
C_ C_ 0.6963 0.125435 0.715201 -0.11473
C_ C_ 0.949605 0.134126 0.715612 -0.11473
C_ C_ 0.682868 0.115668 0.788465 -0.11473
C_ C_ 0.938565 0.126325 0.7883 -0.11473
C_ C_ 0.712886 0.0642322 0.755585 -0.02249
C_ C_ 0.970381 0.0762707 0.753368 -0.02249
C_ C_ 0.66026 0.177451 0.750126 0.6875
C_ C_ 0.910581 0.182735 0.746288 0.6875
C_ C_ 0.710644 0.0857909 0.717012 -0.11473
C_ C_ 0.963308 0.0951811 0.716489 -0.11473
C_ C_ 0.562606 0.150346 0.749199 -0.02249
C_ C_ 0.812647 0.145508 0.744999 -0.02249
C_ C_ 0.51656 0.03433 0.75056 -0.02249
C_ C_ 0.763816 0.0297908 0.758397 -0.02249
C_ C_ 0.534204 0.097285 0.711005 -0.11473
C_ C_ 0.790743 0.0836033 0.714442 -0.11473
C_ C_ 0.55702 0.131319 0.787564 -0.11473
C_ C_ 0.797757 0.136202 0.783038 -0.11473
C_ C_ 0.55139 0.134522 0.711513 -0.11473
C_ C_ 0.811167 0.116854 0.710713 -0.11473
C_ C_ 0.532013 0.0755662 0.748035 -0.02249
C_ C_ 0.778887 0.0715749 0.753894 -0.02249
C_ C_ 0.58102 0.191572 0.749112 0.6875
C_ C_ 0.833442 0.182295 0.74409 0.6875
C_ C_ 0.543485 0.0926784 0.787095 -0.11473
C_ C_ 0.782062 0.098151 0.787987 -0.11473
C_ C_ 0.628003 0.281953 0.881455 0.17695
C_ C_ 0.902142 0.245663 0.867857 0.17695
C_ C_ 0.613198 0.212046 0.874738 0.17695
C_ C_ 0.849973 0.255934 0.874177 0.17695
C_ C_ 0.609798 0.208419 0.918359 -0.11473
C_ C_ 0.8526 0.249728 0.917116 -0.11473
C_ C_ 0.618078 0.241412 0.944508 0.23465
C_ C_ 0.88083 0.243723 0.93651 0.23465
C_ C_ 0.627116 0.278641 0.925794 -0.11473
C_ C_ 0.905576 0.245834 0.911492 -0.11473
C_ C_ 0.626123 0.203192 0.626772 0.17695
C_ C_ 0.875772 0.280983 0.61647 0.17695
C_ C_ 0.630228 0.275312 0.623258 0.17695
C_ C_ 0.859564 0.212511 0.618321 0.17695
C_ C_ 0.631286 0.273423 0.577789 -0.11473
C_ C_ 0.86571 0.208615 0.574634 -0.11473
C_ C_ 0.628975 0.2347 0.557668 0.23465
C_ C_ 0.874693 0.242074 0.551044 0.23465
C_ C_ 0.623437 0.198886 0.582821 -0.11473
C_ C_ 0.880582 0.277438 0.573064 -0.11473
C_ C_ 0.529997 0.496331 0.750087 0.05793
C_ C_ 0.781651 0.495974 0.748494 0.05793
C_ C_ 0.718441 -0.011338999999999988 0.756767 0.05793
C_ C_ 0.971324 -0.000295119 0.748094 0.05793
Br Br 0.572288 0.503182 0.761352 -0.17191
Br Br 0.824645 0.49582 0.741245 -0.17191
Br Br 0.678634 -0.018365999999999993 0.732216 -0.17191
Br Br 0.927307 0.00365457 0.744336 -0.17191
N_ N_ 0.623214 0.247073 0.857371 -0.272
N_ N_ 0.874315 0.247794 0.849451 -0.272
N_ N_ 0.621765 0.236097 0.990374 -0.12501
N_ N_ 0.884137 0.2376 0.980166 -0.12501
N_ N_ 0.626154 0.239637 0.646707 -0.272
N_ N_ 0.867609 0.246746 0.639505 -0.272
N_ N_ 0.628297 0.23207 0.51183 -0.12501
N_ N_ 0.881691 0.238526 0.506808 -0.12501
O_ O_ 0.595711 0.291452 0.720361 -0.60745
O_ O_ 0.840481 0.290838 0.709417 -0.60745
O_ O_ 0.60013 0.297088 0.788297 -0.60745
O_ O_ 0.838936 0.284381 0.777351 -0.60745
O_ O_ 0.662861 0.282636 0.785144 -0.60745
O_ O_ 0.901465 0.292992 0.777527 -0.60745
O_ O_ 0.659343 0.286851 0.716055 -0.60745
O_ O_ 0.904541 0.287642 0.710058 -0.60745
O_ O_ 0.651005 0.192938 0.784381 -0.60745
O_ O_ 0.904622 0.204699 0.778308 -0.60745
O_ O_ 0.654029 0.196525 0.716861 -0.60745
O_ O_ 0.902613 0.196134 0.711085 -0.60745
O_ O_ 0.592635 0.201191 0.714904 -0.60745
O_ O_ 0.841276 0.196414 0.708065 -0.60745
O_ O_ 0.590581 0.210447 0.781854 -0.60745
O_ O_ 0.843797 0.197696 0.77691 -0.60745
Zn Zn 0.629678 0.754523 0.288922 0.9476
Zn Zn 0.871409 0.754812 0.286048 0.9476
Zn Zn 0.624583 0.754037 0.217009 0.9476
Zn Zn 0.876709 0.750419 0.21749 0.9476
H_ H_ 0.531438 0.919371 0.189984 0.10932
H_ H_ 0.782341 0.913319 0.178597 0.10932
H_ H_ 0.569733 0.860436 0.324239 0.10932
H_ H_ 0.813839 0.852971 0.316331 0.10932
H_ H_ 0.563942 0.863035 0.189186 0.10932
H_ H_ 0.816378 0.852362 0.184872 0.10932
H_ H_ 0.538239 0.925488 0.326653 0.10932
H_ H_ 0.797596 0.926946 0.310933 0.10932
H_ H_ 0.732224 0.90832 0.316906 0.10932
H_ H_ 0.968364 0.918297 0.32001 0.10932
H_ H_ 0.669675 0.868072 0.191737 0.10932
H_ H_ 0.928574 0.858145 0.187965 0.10932
H_ H_ 0.699571 0.844852 0.319236 0.10932
H_ H_ 0.937618 0.858518 0.32324 0.10932
H_ H_ 0.706741 0.925843 0.185378 0.10932
H_ H_ 0.956833 0.926262 0.184638 0.10932
H_ H_ 0.71789 0.585745 0.315906 0.10932
H_ H_ 0.961061 0.58301 0.317693 0.10932
H_ H_ 0.68466 0.65658 0.185351 0.10932
H_ H_ 0.93033 0.650571 0.182085 0.10932
H_ H_ 0.690036 0.646278 0.319801 0.10932
H_ H_ 0.937134 0.652372 0.319334 0.10932
H_ H_ 0.711577 0.596139 0.180554 0.10932
H_ H_ 0.966648 0.587197 0.185006 0.10932
H_ H_ 0.546458 0.571492 0.194175 0.10932
H_ H_ 0.77584 0.591734 0.190548 0.10932
H_ H_ 0.566952 0.652947 0.322992 0.10932
H_ H_ 0.82017 0.644301 0.323367 0.10932
H_ H_ 0.573293 0.640008 0.189626 0.10932
H_ H_ 0.810126 0.648862 0.190117 0.10932
H_ H_ 0.534953 0.588359 0.326353 0.10932
H_ H_ 0.787029 0.581679 0.321999 0.10932
H_ H_ 0.642504 0.688934 0.354156 0.10932
H_ H_ 0.827103 0.761332 0.361925 0.10932
H_ H_ 0.614565 0.809955 0.371899 0.10932
H_ H_ 0.920865 0.751379 0.352254 0.10932
H_ H_ 0.622641 0.803483 0.448161 0.10932
H_ H_ 0.926815 0.753326 0.430853 0.10932
H_ H_ 0.640787 0.677264 0.427419 0.10932
H_ H_ 0.831849 0.767683 0.441179 0.10932
H_ H_ 0.584096 0.727023 0.144917 0.10932
H_ H_ 0.860489 0.690533 0.134807 0.10932
H_ H_ 0.673685 0.763308 0.139935 0.10932
H_ H_ 0.874584 0.818273 0.151512 0.10932
H_ H_ 0.671981 0.760248 0.0643589 0.10932
H_ H_ 0.872797 0.828667 0.077371 0.10932
H_ H_ 0.576726 0.732873 0.0712047 0.10932
H_ H_ 0.865816 0.696959 0.061132 0.10932
C_ C_ 0.568883 0.856055 0.256942 -0.02249
C_ C_ 0.817061 0.84712 0.249136 -0.02249
C_ C_ 0.514388 0.968322 0.257949 -0.02249
C_ C_ 0.769862 0.963147 0.246897 -0.02249
C_ C_ 0.540311 0.91014 0.219926 -0.11473
C_ C_ 0.792922 0.903271 0.207619 -0.11473
C_ C_ 0.561749 0.875422 0.294389 -0.11473
C_ C_ 0.810255 0.868683 0.28531 -0.11473
C_ C_ 0.558132 0.874351 0.220517 -0.11473
C_ C_ 0.807469 0.864457 0.210957 -0.11473
C_ C_ 0.533097 0.929649 0.257975 -0.02249
C_ C_ 0.786921 0.923706 0.245632 -0.02249
C_ C_ 0.587116 0.816272 0.256996 0.6875
C_ C_ 0.835037 0.808523 0.253274 0.6875
C_ C_ 0.544286 0.911321 0.29469 -0.11473
C_ C_ 0.798487 0.90711 0.282777 -0.11473
C_ C_ 0.683417 0.851717 0.254847 -0.02249
C_ C_ 0.930078 0.853827 0.254879 -0.02249
C_ C_ 0.737393 0.962865 0.250314 -0.02249
C_ C_ 0.984097 0.965829 0.24839 -0.02249
C_ C_ 0.718118 0.900301 0.28987 -0.11473
C_ C_ 0.958827 0.909072 0.290521 -0.11473
C_ C_ 0.684298 0.875532 0.218941 -0.11473
C_ C_ 0.938035 0.872557 0.216691 -0.11473
C_ C_ 0.701502 0.863171 0.289913 -0.11473
C_ C_ 0.939106 0.875085 0.291817 -0.11473
C_ C_ 0.720534 0.923547 0.252515 -0.02249
C_ C_ 0.966554 0.926748 0.252096 -0.02249
C_ C_ 0.666439 0.811491 0.25544 0.6875
C_ C_ 0.912223 0.814138 0.255321 0.6875
C_ C_ 0.704668 0.910303 0.215952 -0.11473
C_ C_ 0.953572 0.909596 0.215082 -0.11473
C_ C_ 0.686132 0.660319 0.253155 -0.02249
C_ C_ 0.932567 0.657939 0.251124 -0.02249
C_ C_ 0.731514 0.542595 0.245518 -0.02249
C_ C_ 0.982795 0.542604 0.248941 -0.02249
C_ C_ 0.70949 0.599258 0.287477 -0.11473
C_ C_ 0.957194 0.59954 0.289378 -0.11473
C_ C_ 0.695788 0.644659 0.213659 -0.11473
C_ C_ 0.94044 0.638667 0.213213 -0.11473
C_ C_ 0.695643 0.63743 0.290172 -0.11473
C_ C_ 0.943613 0.639235 0.289354 -0.11473
C_ C_ 0.715928 0.583028 0.249047 -0.02249
C_ C_ 0.964572 0.581206 0.250364 -0.02249
C_ C_ 0.666964 0.697369 0.255943 0.6875
C_ C_ 0.916235 0.698368 0.249171 0.6875
C_ C_ 0.709286 0.605868 0.212142 -0.11473
C_ C_ 0.960224 0.604548 0.213278 -0.11473
C_ C_ 0.571642 0.65215 0.256992 -0.02249
C_ C_ 0.817065 0.652491 0.256053 -0.02249
C_ C_ 0.516738 0.537603 0.259329 -0.02249
C_ C_ 0.76345 0.541582 0.253762 -0.02249
C_ C_ 0.549427 0.590523 0.222095 -0.11473
C_ C_ 0.784281 0.602888 0.219415 -0.11473
C_ C_ 0.559277 0.637003 0.294437 -0.11473
C_ C_ 0.811561 0.629895 0.294736 -0.11473
C_ C_ 0.566291 0.629175 0.219649 -0.11473
C_ C_ 0.805791 0.634737 0.219639 -0.11473
C_ C_ 0.535714 0.577349 0.259012 -0.02249
C_ C_ 0.778863 0.581928 0.256405 -0.02249
C_ C_ 0.590346 0.691523 0.255668 0.6875
C_ C_ 0.838709 0.68627 0.253692 0.6875
C_ C_ 0.542527 0.598648 0.295907 -0.11473
C_ C_ 0.794446 0.593961 0.293887 -0.11473
C_ C_ 0.6329 0.712357 0.373629 0.17695
C_ C_ 0.848908 0.755929 0.377967 0.17695
C_ C_ 0.625338 0.783392 0.38459 0.17695
C_ C_ 0.90185 0.749227 0.37219 0.17695
C_ C_ 0.624912 0.778384 0.428617 -0.11473
C_ C_ 0.905233 0.75074 0.415851 -0.11473
C_ C_ 0.629103 0.738103 0.444826 0.23465
C_ C_ 0.879704 0.756115 0.441914 0.23465
C_ C_ 0.634973 0.706385 0.417009 -0.11473
C_ C_ 0.851217 0.761937 0.422439 -0.11473
C_ C_ 0.601446 0.740149 0.127444 0.17695
C_ C_ 0.864451 0.718559 0.121691 0.17695
C_ C_ 0.652507 0.75945 0.124886 0.17695
C_ C_ 0.874516 0.790495 0.131143 0.17695
C_ C_ 0.651965 0.753365 0.0804023 -0.11473
C_ C_ 0.87462 0.79688 0.0879255 -0.11473
C_ C_ 0.623759 0.745853 0.0604192 0.23465
C_ C_ 0.871396 0.762017 0.061334 0.23465
C_ C_ 0.59863 0.738427 0.0849766 -0.11473
C_ C_ 0.86653 0.722848 0.0802248 -0.11473
C_ C_ 0.529257 1.00799299 0.259364 0.05793
C_ C_ 0.785295 1.00177885 0.2458 0.05793
C_ C_ 0.716155 0.504577 0.238797 0.05793
C_ C_ 0.96749 0.505124 0.251992 0.05793
Br Br 0.571543 1.012835 0.275129 -0.17191
Br Br 0.827508 1.00135152 0.244697 -0.17191
Br Br 0.673975 0.504598 0.222571 -0.17191
Br Br 0.924578 0.503891 0.25499 -0.17191
N_ N_ 0.629984 0.751429 0.358376 -0.272
N_ N_ 0.873718 0.752681 0.353706 -0.272
N_ N_ 0.632959 0.730409 0.488715 -0.12501
N_ N_ 0.884002 0.757721 0.487834 -0.12501
N_ N_ 0.627053 0.75178 0.146559 -0.272
N_ N_ 0.871431 0.751423 0.147816 -0.272
N_ N_ 0.61832 0.748339 0.0160293 -0.12501
N_ N_ 0.875553 0.766489 0.01577 -0.12501
O_ O_ 0.593103 0.800369 0.220143 -0.60745
O_ O_ 0.843426 0.791761 0.220112 -0.60745
O_ O_ 0.599074 0.801957 0.291022 -0.60745
O_ O_ 0.841142 0.793225 0.289031 -0.60745
O_ O_ 0.661098 0.796394 0.290848 -0.60745
O_ O_ 0.904977 0.796639 0.288965 -0.60745
O_ O_ 0.65682 0.795578 0.220828 -0.60745
O_ O_ 0.903785 0.798487 0.221062 -0.60745
O_ O_ 0.661965 0.714326 0.290922 -0.60745
O_ O_ 0.904018 0.710984 0.281602 -0.60745
O_ O_ 0.653081 0.709111 0.222377 -0.60745
O_ O_ 0.911536 0.716101 0.214275 -0.60745
O_ O_ 0.592705 0.71024 0.221562 -0.60745
O_ O_ 0.84858 0.700043 0.218329 -0.60745
O_ O_ 0.596949 0.710117 0.288655 -0.60745
O_ O_ 0.839961 0.711611 0.284557 -0.60745
Zn Zn 0.620024 0.742347 0.787623 0.9476
Zn Zn 0.877076 0.747861 0.788289 0.9476
Zn Zn 0.625748 0.743364 0.718039 0.9476
Zn Zn 0.873836 0.746411 0.718081 0.9476
H_ H_ 0.537712 0.909164 0.680851 0.10932
H_ H_ 0.784587 0.916738 0.699192 0.10932
H_ H_ 0.582562 0.862077 0.815364 0.10932
H_ H_ 0.825222 0.851368 0.827701 0.10932
H_ H_ 0.566736 0.844042 0.685792 0.10932
H_ H_ 0.809122 0.849835 0.694538 0.10932
H_ H_ 0.553113 0.925727 0.815042 0.10932
H_ H_ 0.794072 0.914526 0.834841 0.10932
H_ H_ 0.71324 0.908582 0.826836 0.10932
H_ H_ 0.956028 0.925878 0.816169 0.10932
H_ H_ 0.701509 0.829492 0.690675 0.10932
H_ H_ 0.945613 0.848927 0.682833 0.10932
H_ H_ 0.682387 0.841254 0.822928 0.10932
H_ H_ 0.923712 0.860763 0.813671 0.10932
H_ H_ 0.728492 0.899094 0.694237 0.10932
H_ H_ 0.97541 0.91137 0.685788 0.10932
H_ H_ 0.712969 0.575849 0.818181 0.10932
H_ H_ 0.947518 0.557493 0.797353 0.10932
H_ H_ 0.689316 0.645945 0.680746 0.10932
H_ H_ 0.958384 0.663637 0.690271 0.10932
H_ H_ 0.682156 0.636753 0.815526 0.10932
H_ H_ 0.923713 0.627317 0.809324 0.10932
H_ H_ 0.716735 0.580681 0.681983 0.10932
H_ H_ 0.983874 0.598474 0.684688 0.10932
H_ H_ 0.52837 0.584181 0.679538 0.10932
H_ H_ 0.775541 0.582978 0.68455 0.10932
H_ H_ 0.562131 0.639199 0.817061 0.10932
H_ H_ 0.812126 0.638755 0.822762 0.10932
H_ H_ 0.558645 0.647174 0.685953 0.10932
H_ H_ 0.810642 0.649433 0.68505 0.10932
H_ H_ 0.535504 0.573144 0.813622 0.10932
H_ H_ 0.786053 0.572009 0.818069 0.10932
H_ H_ 0.630045 0.678456 0.858536 0.10932
H_ H_ 0.868108 0.679319 0.85961 0.10932
H_ H_ 0.62696 0.807932 0.86061 0.10932
H_ H_ 0.885151 0.807318 0.863614 0.10932
H_ H_ 0.632084 0.809777 0.93916 0.10932
H_ H_ 0.878141 0.807546 0.941585 0.10932
H_ H_ 0.629581 0.677357 0.939126 0.10932
H_ H_ 0.859221 0.679112 0.93547 0.10932
H_ H_ 0.621671 0.683099 0.643561 0.10932
H_ H_ 0.882319 0.811034 0.636728 0.10932
H_ H_ 0.62551 0.813442 0.64481 0.10932
H_ H_ 0.85714 0.682371 0.644557 0.10932
H_ H_ 0.627144 0.816566 0.568067 0.10932
H_ H_ 0.859424 0.680227 0.564832 0.10932
H_ H_ 0.628948 0.682194 0.561982 0.10932
H_ H_ 0.877551 0.808042 0.559257 0.10932
C_ C_ 0.572357 0.84752 0.751998 -0.02249
C_ C_ 0.816523 0.842721 0.761503 -0.02249
C_ C_ 0.519469 0.957984 0.747726 -0.02249
C_ C_ 0.766243 0.954651 0.769174 -0.02249
C_ C_ 0.544374 0.896987 0.713081 -0.11473
C_ C_ 0.789805 0.899298 0.728284 -0.11473
C_ C_ 0.568773 0.870138 0.788333 -0.11473
C_ C_ 0.81346 0.863532 0.800361 -0.11473
C_ C_ 0.560808 0.861902 0.714301 -0.11473
C_ C_ 0.805192 0.862995 0.725246 -0.11473
C_ C_ 0.53844 0.920395 0.750808 -0.02249
C_ C_ 0.784405 0.918402 0.767762 -0.02249
C_ C_ 0.59015 0.808951 0.754549 0.6875
C_ C_ 0.835987 0.804395 0.760287 0.6875
C_ C_ 0.551472 0.906128 0.788036 -0.11473
C_ C_ 0.795743 0.898493 0.80486 -0.11473
C_ C_ 0.685386 0.834763 0.75442 -0.02249
C_ C_ 0.934374 0.845296 0.750259 -0.02249
C_ C_ 0.734883 0.952439 0.761002 -0.02249
C_ C_ 0.986903 0.961897 0.753968 -0.02249
C_ C_ 0.706701 0.893046 0.79691 -0.11473
C_ C_ 0.954556 0.906406 0.788224 -0.11473
C_ C_ 0.701385 0.848522 0.719834 -0.11473
C_ C_ 0.949929 0.861292 0.714395 -0.11473
C_ C_ 0.690884 0.855334 0.7938 -0.11473
C_ C_ 0.936183 0.870237 0.786676 -0.11473
C_ C_ 0.719432 0.910299 0.760894 -0.02249
C_ C_ 0.968119 0.922257 0.752263 -0.02249
C_ C_ 0.665148 0.798175 0.753063 0.6875
C_ C_ 0.916097 0.805707 0.748191 0.6875
C_ C_ 0.717967 0.886047 0.723322 -0.11473
C_ C_ 0.963603 0.900558 0.714493 -0.11473
C_ C_ 0.679867 0.643288 0.748182 -0.02249
C_ C_ 0.936911 0.647955 0.746885 -0.02249
C_ C_ 0.733177 0.531591 0.746553 -0.02249
C_ C_ 0.986552 0.53113 0.73885 -0.02249
C_ C_ 0.707308 0.58941 0.786907 -0.11473
C_ C_ 0.951133 0.582164 0.776364 -0.11473
C_ C_ 0.693305 0.628663 0.711584 -0.11473
C_ C_ 0.955497 0.63955 0.713376 -0.11473
C_ C_ 0.686757 0.621476 0.786079 -0.11473
C_ C_ 0.935513 0.61955 0.781066 -0.11473
C_ C_ 0.716348 0.571664 0.749716 -0.02249
C_ C_ 0.970125 0.573191 0.742237 -0.02249
C_ C_ 0.661842 0.681711 0.748623 0.6875
C_ C_ 0.914543 0.68388 0.746846 0.6875
C_ C_ 0.708906 0.592305 0.711697 -0.11473
C_ C_ 0.971908 0.603677 0.710549 -0.11473
C_ C_ 0.561657 0.649606 0.751661 -0.02249
C_ C_ 0.811953 0.652525 0.754313 -0.02249
C_ C_ 0.512454 0.534327 0.745152 -0.02249
C_ C_ 0.765522 0.532635 0.747098 -0.02249
C_ C_ 0.535582 0.597339 0.709986 -0.11473
C_ C_ 0.786797 0.596456 0.713822 -0.11473
C_ C_ 0.554149 0.627763 0.787836 -0.11473
C_ C_ 0.804784 0.628767 0.791692 -0.11473
C_ C_ 0.550479 0.63458 0.71375 -0.11473
C_ C_ 0.804512 0.632452 0.71482 -0.11473
C_ C_ 0.527128 0.57639 0.746424 -0.02249
C_ C_ 0.780793 0.573657 0.750789 -0.02249
C_ C_ 0.57853 0.688321 0.755405 0.6875
C_ C_ 0.833915 0.688203 0.755155 0.6875
C_ C_ 0.538152 0.591169 0.78495 -0.11473
C_ C_ 0.788567 0.590336 0.790135 -0.11473
C_ C_ 0.629423 0.706687 0.877467 0.17695
C_ C_ 0.87169 0.706841 0.877667 0.17695
C_ C_ 0.630516 0.778924 0.8777 0.17695
C_ C_ 0.885603 0.778892 0.882486 0.17695
C_ C_ 0.63233 0.77965 0.922305 -0.11473
C_ C_ 0.879332 0.778764 0.925423 -0.11473
C_ C_ 0.631442 0.742133 0.94511 0.23465
C_ C_ 0.872181 0.741527 0.945535 0.23465
C_ C_ 0.630838 0.704901 0.922518 -0.11473
C_ C_ 0.869861 0.705402 0.921162 -0.11473
C_ C_ 0.624579 0.711729 0.625051 0.17695
C_ C_ 0.873717 0.782631 0.622278 0.17695
C_ C_ 0.628625 0.783758 0.627314 0.17695
C_ C_ 0.862177 0.709413 0.625225 0.17695
C_ C_ 0.625792 0.78538 0.58228 -0.11473
C_ C_ 0.86324 0.707815 0.581668 -0.11473
C_ C_ 0.627505 0.749064 0.558653 0.23465
C_ C_ 0.869735 0.742905 0.556051 0.23465
C_ C_ 0.626546 0.710808 0.579928 -0.11473
C_ C_ 0.870961 0.781427 0.576552 -0.11473
C_ C_ 0.533535 -0.0024279999999999857 0.746755 0.05793
C_ C_ 0.780902 -0.006821999999999995 0.765721 0.05793
C_ C_ 0.719336 0.492161 0.751647 0.05793
C_ C_ 0.970779 0.493292 0.739519 0.05793
Br Br 0.576828 0.001980000000000093 0.753597 -0.17191
Br Br 0.824891 0.997873 0.760693 -0.17191
Br Br 0.675263 0.489549 0.752197 -0.17191
Br Br 0.929841 0.495081 0.718273 -0.17191
N_ N_ 0.628835 0.743861 0.856333 -0.272
N_ N_ 0.881153 0.744036 0.859631 -0.272
N_ N_ 0.63795 0.740201 0.990661 -0.12501
N_ N_ 0.866092 0.740187 0.989949 -0.12501
N_ N_ 0.627613 0.746629 0.647419 -0.272
N_ N_ 0.870962 0.745837 0.6441 -0.272
N_ N_ 0.61888 0.751438 0.51572 -0.12501
N_ N_ 0.866098 0.740165 0.512007 -0.12501
O_ O_ 0.603211 0.79638 0.722359 -0.60745
O_ O_ 0.842375 0.788052 0.725598 -0.60745
O_ O_ 0.591968 0.788108 0.788268 -0.60745
O_ O_ 0.848997 0.792652 0.794704 -0.60745
O_ O_ 0.650576 0.788294 0.78493 -0.60745
O_ O_ 0.910758 0.788594 0.78334 -0.60745
O_ O_ 0.660793 0.778302 0.719288 -0.60745
O_ O_ 0.901413 0.794653 0.716455 -0.60745
O_ O_ 0.654831 0.697887 0.783253 -0.60745
O_ O_ 0.905776 0.698256 0.782402 -0.60745
O_ O_ 0.651519 0.695207 0.714589 -0.60745
O_ O_ 0.908261 0.702519 0.712924 -0.60745
O_ O_ 0.588154 0.705177 0.722385 -0.60745
O_ O_ 0.843844 0.700792 0.718803 -0.60745
O_ O_ 0.588928 0.698558 0.791033 -0.60745
O_ O_ 0.843555 0.705415 0.789574 -0.60745
_cell_length_a 44.444
_cell_length_b 32.3360000049186
_cell_length_c 31.843999878906452
_cell_angle_alpha 89.99799923859553
_cell_angle_beta 91.13600050494348
_cell_angle_gamma 89.9990006550086
_symmetry_space_group_name_H-M         'P 1'
_symmetry_Int_Tables_number            1
loop_
_symmetry_equiv_pos_as_xyz
   'x, y, z'
                         
loop_
_atom_site_label
_atom_site_type_symbol
_atom_site_fract_x 
_atom_site_fract_y
_atom_site_fract_z
_atom_site_charge
Zn Zn 0.128257 0.256238 0.285154 0.9476
Zn Zn 0.372089 0.253537 0.286764 0.9476
Zn Zn 0.126523 0.25648 0.214242 0.9476
Zn Zn 0.369746 0.2516 0.215998 0.9476
H_ H_ 0.021253 0.412762 0.18711 0.10932
H_ H_ 0.287304 0.429418 0.183964 0.10932
H_ H_ 0.0792617 0.373697 0.315362 0.10932
H_ H_ 0.313824 0.365524 0.317303 0.10932
H_ H_ 0.0484359 0.344134 0.189449 0.10932
H_ H_ 0.320208 0.367704 0.183878 0.10932
H_ H_ 0.0473316 0.433584 0.317045 0.10932
H_ H_ 0.281397 0.421151 0.318784 0.10932
H_ H_ 0.227166 0.419183 0.308204 0.10932
H_ H_ 0.444514 0.43851 0.311232 0.10932
H_ H_ 0.17926 0.359089 0.177571 0.10932
H_ H_ 0.446089 0.342544 0.190547 0.10932
H_ H_ 0.197104 0.353543 0.310657 0.10932
H_ H_ 0.419192 0.371514 0.315434 0.10932
H_ H_ 0.205696 0.423335 0.174561 0.10932
H_ H_ 0.47409 0.409421 0.188163 0.10932
H_ H_ 0.217556 0.0899788 0.313788 0.10932
H_ H_ 0.453341 0.0767849 0.316457 0.10932
H_ H_ 0.174046 0.137891 0.178202 0.10932
H_ H_ 0.44153 0.163035 0.187605 0.10932
H_ H_ 0.18948 0.155041 0.311271 0.10932
H_ H_ 0.419901 0.139062 0.317536 0.10932
H_ H_ 0.210436 0.0792606 0.18353 0.10932
H_ H_ 0.472355 0.0962154 0.187722 0.10932
H_ H_ 0.0265757 0.0941471 0.178091 0.10932
H_ H_ 0.28413 0.084601 0.186409 0.10932
H_ H_ 0.084804 0.136452 0.307725 0.10932
H_ H_ 0.302481 0.156661 0.322715 0.10932
H_ H_ 0.0529595 0.160864 0.179147 0.10932
H_ H_ 0.303894 0.156083 0.186196 0.10932
H_ H_ 0.0520164 0.0744952 0.308772 0.10932
H_ H_ 0.28466 0.0863584 0.321974 0.10932
H_ H_ 0.122394 0.318174 0.354828 0.10932
H_ H_ 0.379283 0.323409 0.360362 0.10932
H_ H_ 0.127304 0.18846 0.361249 0.10932
H_ H_ 0.367348 0.191046 0.369714 0.10932
H_ H_ 0.118807 0.191924 0.440534 0.10932
H_ H_ 0.367678 0.19434 0.444545 0.10932
H_ H_ 0.126727 0.320436 0.437939 0.10932
H_ H_ 0.381832 0.329409 0.434984 0.10932
H_ H_ 0.130139 0.321184 0.143247 0.10932
H_ H_ 0.38546 0.309524 0.136537 0.10932
H_ H_ 0.114759 0.192435 0.138127 0.10932
H_ H_ 0.373127 0.184164 0.150226 0.10932
H_ H_ 0.119683 0.197504 0.0582608 0.10932
H_ H_ 0.378726 0.173002 0.0715911 0.10932
H_ H_ 0.136507 0.325443 0.068583 0.10932
H_ H_ 0.385231 0.305012 0.0587149 0.10932
C_ C_ 0.0682068 0.356456 0.250232 -0.02249
C_ C_ 0.314235 0.35537 0.250951 -0.02249
C_ C_ 0.0149526 0.466905 0.250173 -0.02249
C_ C_ 0.265506 0.468785 0.251447 -0.02249
C_ C_ 0.0342469 0.403326 0.214128 -0.11473
C_ C_ 0.291379 0.413443 0.212904 -0.11473
C_ C_ 0.0648777 0.379297 0.287021 -0.11473
C_ C_ 0.305359 0.375247 0.287966 -0.11473
C_ C_ 0.0508498 0.367243 0.214816 -0.11473
C_ C_ 0.310606 0.378986 0.212675 -0.11473
C_ C_ 0.030522 0.425847 0.253253 -0.02249
C_ C_ 0.282989 0.43009 0.251021 -0.02249
C_ C_ 0.0890305 0.319952 0.251281 0.6875
C_ C_ 0.33456 0.317213 0.252634 0.6875
C_ C_ 0.0456205 0.413367 0.289669 -0.11473
C_ C_ 0.289324 0.40992 0.2892 -0.11473
C_ C_ 0.187168 0.352198 0.245085 -0.02249
C_ C_ 0.430281 0.349819 0.252639 -0.02249
C_ C_ 0.23351 0.46916 0.239535 -0.02249
C_ C_ 0.481375 0.464683 0.253479 -0.02249
C_ C_ 0.214847 0.408751 0.279743 -0.11473
C_ C_ 0.445653 0.415831 0.285936 -0.11473
C_ C_ 0.190735 0.372525 0.205771 -0.11473
C_ C_ 0.445485 0.361889 0.218149 -0.11473
C_ C_ 0.200721 0.36925 0.282536 -0.11473
C_ C_ 0.429905 0.377727 0.287286 -0.11473
C_ C_ 0.216957 0.42905 0.24134 -0.02249
C_ C_ 0.462035 0.42662 0.251349 -0.02249
C_ C_ 0.169083 0.313651 0.247812 0.6875
C_ C_ 0.41099 0.311333 0.252227 0.6875
C_ C_ 0.203028 0.411684 0.205179 -0.11473
C_ C_ 0.461947 0.399904 0.2172 -0.11473
C_ C_ 0.181875 0.152306 0.244848 -0.02249
C_ C_ 0.426656 0.153302 0.25123 -0.02249
C_ C_ 0.234102 0.0389364 0.248147 -0.02249
C_ C_ 0.481674 0.0415303 0.249291 -0.02249
C_ C_ 0.208466 0.0993021 0.284532 -0.11473
C_ C_ 0.447926 0.093589 0.287447 -0.11473
C_ C_ 0.186099 0.12934 0.208154 -0.11473
C_ C_ 0.440602 0.140522 0.214706 -0.11473
C_ C_ 0.190556 0.135161 0.282938 -0.11473
C_ C_ 0.429084 0.128507 0.287372 -0.11473
C_ C_ 0.214686 0.0771869 0.248562 -0.02249
C_ C_ 0.461969 0.0789365 0.251058 -0.02249
C_ C_ 0.163475 0.193111 0.243763 0.6875
C_ C_ 0.408233 0.19309 0.252288 0.6875
C_ C_ 0.205979 0.0952518 0.210527 -0.11473
C_ C_ 0.461015 0.105443 0.21574 -0.11473
C_ C_ 0.0698924 0.153625 0.245928 -0.02249
C_ C_ 0.309803 0.158136 0.253963 -0.02249
C_ C_ 0.0193813 0.040695 0.242878 -0.02249
C_ C_ 0.265727 0.0398536 0.252674 -0.02249
C_ C_ 0.039291 0.104384 0.207474 -0.11473
C_ C_ 0.288473 0.100378 0.216093 -0.11473
C_ C_ 0.0710533 0.127349 0.28015 -0.11473
C_ C_ 0.297439 0.143725 0.292526 -0.11473
C_ C_ 0.0542457 0.143102 0.208561 -0.11473
C_ C_ 0.301381 0.138789 0.215393 -0.11473
C_ C_ 0.0393492 0.078257 0.242874 -0.02249
C_ C_ 0.281644 0.0799016 0.25451 -0.02249
C_ C_ 0.0879274 0.193977 0.248644 0.6875
C_ C_ 0.329928 0.195649 0.252683 0.6875
C_ C_ 0.0533564 0.091631 0.279867 -0.11473
C_ C_ 0.285354 0.103512 0.293945 -0.11473
C_ C_ 0.125533 0.2908 0.375284 0.17695
C_ C_ 0.374807 0.295295 0.37632 0.17695
C_ C_ 0.12926 0.217301 0.378553 0.17695
C_ C_ 0.369546 0.222633 0.382536 0.17695
C_ C_ 0.126077 0.219396 0.422901 -0.11473
C_ C_ 0.369597 0.224404 0.427334 -0.11473
C_ C_ 0.124884 0.258059 0.443126 0.23465
C_ C_ 0.371433 0.26355 0.449152 0.23465
C_ C_ 0.127308 0.293361 0.420718 -0.11473
C_ C_ 0.377956 0.298161 0.422836 -0.11473
C_ C_ 0.126422 0.293573 0.123921 0.17695
C_ C_ 0.380334 0.280932 0.120014 0.17695
C_ C_ 0.117952 0.22154 0.121029 0.17695
C_ C_ 0.373395 0.209958 0.128167 0.17695
C_ C_ 0.124105 0.222432 0.0775644 -0.11473
C_ C_ 0.379148 0.203923 0.0837667 -0.11473
C_ C_ 0.13175 0.259511 0.0590162 0.23465
C_ C_ 0.380058 0.238842 0.0583338 0.23465
C_ C_ 0.13094 0.296148 0.0826542 -0.11473
C_ C_ 0.382692 0.277617 0.0769906 -0.11473
C_ C_ 0.0309648 0.504771 0.249736 0.05793
C_ C_ 0.280624 0.505831 0.259057 0.05793
C_ C_ 0.219241 0.0007800000000000029 0.244953 0.05793
C_ C_ 0.466266 1.00232488 0.246661 0.05793
Br Br 0.0737271 0.505902 0.2419 -0.17191
Br Br 0.323622 0.505046 0.269678 -0.17191
Br Br 0.176087 -0.0037890000000000423 0.242346 -0.17191
Br Br 0.422915 0.996107 0.232597 -0.17191
N_ N_ 0.130371 0.253012 0.356702 -0.272
N_ N_ 0.372447 0.25695 0.357886 -0.272
N_ N_ 0.121242 0.261062 0.487208 -0.12501
N_ N_ 0.372439 0.266713 0.494685 -0.12501
N_ N_ 0.120063 0.257324 0.143481 -0.272
N_ N_ 0.37167 0.247888 0.143266 -0.272
N_ N_ 0.138534 0.264253 0.0152887 -0.12501
N_ N_ 0.383009 0.234044 0.0135819 -0.12501
O_ O_ 0.0977588 0.304747 0.216696 -0.60745
O_ O_ 0.334322 0.293706 0.220973 -0.60745
O_ O_ 0.0972983 0.304116 0.285915 -0.60745
O_ O_ 0.347157 0.306057 0.286786 -0.60745
O_ O_ 0.15914 0.300387 0.282498 -0.60745
O_ O_ 0.409607 0.288946 0.28386 -0.60745
O_ O_ 0.158097 0.298159 0.214413 -0.60745
O_ O_ 0.401167 0.29702 0.21741 -0.60745
O_ O_ 0.161777 0.214208 0.278199 -0.60745
O_ O_ 0.394818 0.203051 0.286407 -0.60745
O_ O_ 0.152487 0.207354 0.209441 -0.60745
O_ O_ 0.401614 0.212119 0.218153 -0.60745
O_ O_ 0.0938072 0.214117 0.215353 -0.60745
O_ O_ 0.340426 0.204789 0.216929 -0.60745
O_ O_ 0.0967945 0.208332 0.284515 -0.60745
O_ O_ 0.337244 0.216184 0.283763 -0.60745
Zn Zn 0.130238 0.250102 0.783778 0.9476
Zn Zn 0.37334 0.245383 0.790034 0.9476
Zn Zn 0.129012 0.252072 0.715183 0.9476
Zn Zn 0.370994 0.245793 0.719598 0.9476
H_ H_ 0.0377485 0.415528 0.685809 0.10932
H_ H_ 0.28398 0.414869 0.684918 0.10932
H_ H_ 0.0734767 0.351856 0.813837 0.10932
H_ H_ 0.311387 0.348523 0.820184 0.10932
H_ H_ 0.0632787 0.349185 0.678033 0.10932
H_ H_ 0.314656 0.354944 0.685594 0.10932
H_ H_ 0.0397816 0.414893 0.816724 0.10932
H_ H_ 0.286468 0.419457 0.820597 0.10932
H_ H_ 0.218579 0.422872 0.812632 0.10932
H_ H_ 0.46233 0.420051 0.812126 0.10932
H_ H_ 0.18939 0.355333 0.679343 0.10932
H_ H_ 0.427374 0.349241 0.67892 0.10932
H_ H_ 0.188727 0.361406 0.812308 0.10932
H_ H_ 0.440419 0.348569 0.812898 0.10932
H_ H_ 0.215193 0.420698 0.678573 0.10932
H_ H_ 0.460707 0.409332 0.678495 0.10932
H_ H_ 0.211711 0.0790989 0.82563 0.10932
H_ H_ 0.477854 0.0910874 0.81582 0.10932
H_ H_ 0.191916 0.147831 0.68887 0.10932
H_ H_ 0.411528 0.120041 0.694333 0.10932
H_ H_ 0.182578 0.141451 0.827137 0.10932
H_ H_ 0.457514 0.161113 0.805247 0.10932
H_ H_ 0.215245 0.0795158 0.691355 0.10932
H_ H_ 0.445694 0.0589327 0.693247 0.10932
H_ H_ 0.0257422 0.0919657 0.687783 0.10932
H_ H_ 0.276317 0.0812119 0.687312 0.10932
H_ H_ 0.0905322 0.130566 0.809129 0.10932
H_ H_ 0.312565 0.137788 0.826986 0.10932
H_ H_ 0.0584414 0.151335 0.684963 0.10932
H_ H_ 0.318249 0.137723 0.68934 0.10932
H_ H_ 0.0586584 0.067425 0.814821 0.10932
H_ H_ 0.291559 0.0742285 0.822488 0.10932
H_ H_ 0.177886 0.250164 0.865365 0.10932
H_ H_ 0.368758 0.317826 0.856092 0.10932
H_ H_ 0.0850186 0.254373 0.853123 0.10932
H_ H_ 0.381123 0.189191 0.862962 0.10932
H_ H_ 0.077028 0.252431 0.932407 0.10932
H_ H_ 0.382975 0.19109 0.942054 0.10932
H_ H_ 0.171847 0.244868 0.945831 0.10932
H_ H_ 0.374568 0.323415 0.93204 0.10932
H_ H_ 0.137033 0.178664 0.646332 0.10932
H_ H_ 0.412121 0.215706 0.646182 0.10932
H_ H_ 0.124438 0.307346 0.633753 0.10932
H_ H_ 0.321433 0.257262 0.645559 0.10932
H_ H_ 0.123117 0.302076 0.554485 0.10932
H_ H_ 0.319026 0.247585 0.569431 0.10932
H_ H_ 0.129644 0.170946 0.570388 0.10932
H_ H_ 0.41646 0.232688 0.571362 0.10932
C_ C_ 0.0709189 0.345389 0.745417 -0.02249
C_ C_ 0.313124 0.34323 0.752943 -0.02249
C_ C_ 0.0183394 0.45614 0.75021 -0.02249
C_ C_ 0.269602 0.462717 0.751215 -0.02249
C_ C_ 0.0426646 0.399723 0.711763 -0.11473
C_ C_ 0.290992 0.402289 0.716006 -0.11473
C_ C_ 0.0654283 0.364735 0.784323 -0.11473
C_ C_ 0.306415 0.363572 0.789946 -0.11473
C_ C_ 0.059506 0.364356 0.708517 -0.11473
C_ C_ 0.305421 0.364155 0.715968 -0.11473
C_ C_ 0.0346885 0.416697 0.750707 -0.02249
C_ C_ 0.286178 0.421747 0.752398 -0.02249
C_ C_ 0.0891599 0.306842 0.74357 0.6875
C_ C_ 0.334287 0.305648 0.754539 0.6875
C_ C_ 0.0450604 0.398029 0.786877 -0.11473
C_ C_ 0.294657 0.402771 0.790673 -0.11473
C_ C_ 0.183926 0.35577 0.748353 -0.02249
C_ C_ 0.432263 0.342665 0.746854 -0.02249
C_ C_ 0.238339 0.466343 0.748412 -0.02249
C_ C_ 0.483772 0.456425 0.74321 -0.02249
C_ C_ 0.210079 0.410945 0.783768 -0.11473
C_ C_ 0.455656 0.402776 0.781535 -0.11473
C_ C_ 0.195011 0.370681 0.709977 -0.11473
C_ C_ 0.439515 0.359712 0.70823 -0.11473
C_ C_ 0.193414 0.375295 0.784338 -0.11473
C_ C_ 0.442755 0.362646 0.783436 -0.11473
C_ C_ 0.220956 0.424949 0.746128 -0.02249
C_ C_ 0.466607 0.416651 0.743974 -0.02249
C_ C_ 0.165892 0.31599 0.750761 0.6875
C_ C_ 0.413873 0.30456 0.750412 0.6875
C_ C_ 0.211878 0.406207 0.70781 -0.11473
C_ C_ 0.458076 0.395398 0.708284 -0.11473
C_ C_ 0.185217 0.149299 0.757749 -0.02249
C_ C_ 0.430039 0.145349 0.752916 -0.02249
C_ C_ 0.232249 0.0339981 0.758159 -0.02249
C_ C_ 0.485607 0.0315907 0.755714 -0.02249
C_ C_ 0.206021 0.0933644 0.79632 -0.11473
C_ C_ 0.466973 0.100435 0.787159 -0.11473
C_ C_ 0.195965 0.132995 0.720107 -0.11473
C_ C_ 0.429478 0.117688 0.717104 -0.11473
C_ C_ 0.190086 0.128704 0.795696 -0.11473
C_ C_ 0.449885 0.136791 0.786909 -0.11473
C_ C_ 0.216374 0.0745101 0.759544 -0.02249
C_ C_ 0.464841 0.0706856 0.754443 -0.02249
C_ C_ 0.170366 0.191223 0.757664 0.6875
C_ C_ 0.408729 0.181312 0.756177 0.6875
C_ C_ 0.21067 0.0946926 0.720456 -0.11473
C_ C_ 0.446685 0.0813711 0.717964 -0.11473
C_ C_ 0.0726563 0.148196 0.751337 -0.02249
C_ C_ 0.31344 0.149732 0.757666 -0.02249
C_ C_ 0.0181755 0.0365549 0.75005 -0.02249
C_ C_ 0.264363 0.0340103 0.755886 -0.02249
C_ C_ 0.0370474 0.102045 0.716738 -0.11473
C_ C_ 0.285717 0.094977 0.717177 -0.11473
C_ C_ 0.0732075 0.123254 0.785221 -0.11473
C_ C_ 0.305209 0.129858 0.794951 -0.11473
C_ C_ 0.0528836 0.139493 0.717106 -0.11473
C_ C_ 0.30445 0.130153 0.718085 -0.11473
C_ C_ 0.0367393 0.0763476 0.752782 -0.02249
C_ C_ 0.280895 0.0736435 0.755993 -0.02249
C_ C_ 0.0918331 0.184683 0.750302 0.6875
C_ C_ 0.332108 0.18635 0.75867 0.6875
C_ C_ 0.0558547 0.0871201 0.78705 -0.11473
C_ C_ 0.289229 0.0923208 0.794569 -0.11473
C_ C_ 0.155835 0.250949 0.880079 0.17695
C_ C_ 0.371818 0.288786 0.875215 0.17695
C_ C_ 0.102513 0.247674 0.873954 0.17695
C_ C_ 0.380499 0.217885 0.880185 0.17695
C_ C_ 0.0990201 0.252995 0.918422 -0.11473
C_ C_ 0.379817 0.219245 0.923329 -0.11473
C_ C_ 0.124746 0.250596 0.94498 0.23465
C_ C_ 0.376804 0.256484 0.944189 0.23465
C_ C_ 0.152487 0.248083 0.924728 -0.11473
C_ C_ 0.371226 0.29199 0.918861 -0.11473
C_ C_ 0.135944 0.205962 0.625483 0.17695
C_ C_ 0.393739 0.231379 0.629516 0.17695
C_ C_ 0.127993 0.277799 0.619904 0.17695
C_ C_ 0.34173 0.24598 0.628595 0.17695
C_ C_ 0.126848 0.27409 0.575554 -0.11473
C_ C_ 0.340618 0.244865 0.586061 -0.11473
C_ C_ 0.127045 0.236008 0.55601 0.23465
C_ C_ 0.367321 0.245071 0.563574 0.23465
C_ C_ 0.131323 0.201293 0.581394 -0.11473
C_ C_ 0.395604 0.240016 0.586648 -0.11473
C_ C_ 0.0336092 0.493532 0.751038 0.05793
C_ C_ 0.286809 0.500612 0.750983 0.05793
C_ C_ 0.215126 -0.0035530000000000284 0.752767 0.05793
C_ C_ 0.471602 0.993322 0.760308 0.05793
Br Br 0.0773293 0.494558 0.749695 -0.17191
Br Br 0.329251 0.499299 0.747357 -0.17191
Br Br 0.171363 -0.003130999999999995 0.753048 -0.17191
Br Br 0.429607 0.990351 0.771903 -0.17191
N_ N_ 0.13004 0.248873 0.855684 -0.272
N_ N_ 0.375308 0.252578 0.856503 -0.272
N_ N_ 0.121223 0.247391 0.989037 -0.12501
N_ N_ 0.372721 0.25976 0.98769 -0.12501
N_ N_ 0.131791 0.242773 0.64484 -0.272
N_ N_ 0.367785 0.238208 0.650414 -0.272
N_ N_ 0.131207 0.232883 0.511617 -0.12501
N_ N_ 0.365132 0.238524 0.519211 -0.12501
O_ O_ 0.0935161 0.289632 0.709595 -0.60745
O_ O_ 0.341227 0.288929 0.720314 -0.60745
O_ O_ 0.0985432 0.290767 0.777694 -0.60745
O_ O_ 0.342941 0.291371 0.788987 -0.60745
O_ O_ 0.16135 0.296856 0.784688 -0.60745
O_ O_ 0.405523 0.290724 0.785839 -0.60745
O_ O_ 0.154695 0.301529 0.71684 -0.60745
O_ O_ 0.405324 0.283734 0.717566 -0.60745
O_ O_ 0.162712 0.206416 0.791845 -0.60745
O_ O_ 0.40241 0.197471 0.792089 -0.60745
O_ O_ 0.1618 0.208022 0.723461 -0.60745
O_ O_ 0.395831 0.196337 0.724269 -0.60745
O_ O_ 0.101472 0.199857 0.716274 -0.60745
O_ O_ 0.335301 0.205524 0.723533 -0.60745
O_ O_ 0.0993399 0.202862 0.78451 -0.60745
O_ O_ 0.343044 0.202165 0.792785 -0.60745
Zn Zn 0.126812 0.754003 0.283761 0.9476
Zn Zn 0.372848 0.747508 0.285613 0.9476
Zn Zn 0.122255 0.752777 0.214362 0.9476
Zn Zn 0.376965 0.753519 0.217148 0.9476
H_ H_ 0.0240878 0.907527 0.182753 0.10932
H_ H_ 0.293247 0.924507 0.186812 0.10932
H_ H_ 0.073174 0.864308 0.318272 0.10932
H_ H_ 0.307711 0.847621 0.320951 0.10932
H_ H_ 0.0479172 0.839239 0.187818 0.10932
H_ H_ 0.32993 0.86915 0.189678 0.10932
H_ H_ 0.0505733 0.931442 0.312951 0.10932
H_ H_ 0.278515 0.913128 0.317563 0.10932
H_ H_ 0.213029 0.920131 0.317216 0.10932
H_ H_ 0.452125 0.930411 0.315525 0.10932
H_ H_ 0.18485 0.849634 0.18169 0.10932
H_ H_ 0.447378 0.846171 0.185678 0.10932
H_ H_ 0.181242 0.861555 0.315971 0.10932
H_ H_ 0.432245 0.859465 0.31552 0.10932
H_ H_ 0.209614 0.915433 0.177106 0.10932
H_ H_ 0.476954 0.907212 0.184818 0.10932
H_ H_ 0.206425 0.579668 0.307668 0.10932
H_ H_ 0.461957 0.581377 0.319928 0.10932
H_ H_ 0.197465 0.664682 0.178082 0.10932
H_ H_ 0.445349 0.654965 0.184762 0.10932
H_ H_ 0.185291 0.646111 0.31385 0.10932
H_ H_ 0.423839 0.637064 0.315865 0.10932
H_ H_ 0.219682 0.59736 0.174671 0.10932
H_ H_ 0.470234 0.58906 0.183532 0.10932
H_ H_ 0.0377719 0.580199 0.18137 0.10932
H_ H_ 0.30112 0.573508 0.196936 0.10932
H_ H_ 0.0573045 0.66277 0.309533 0.10932
H_ H_ 0.287215 0.673011 0.308556 0.10932
H_ H_ 0.0630222 0.643974 0.177617 0.10932
H_ H_ 0.330828 0.632512 0.192411 0.10932
H_ H_ 0.0270098 0.593779 0.313861 0.10932
H_ H_ 0.265111 0.605848 0.314622 0.10932
H_ H_ 0.141155 0.817911 0.361229 0.10932
H_ H_ 0.386037 0.683747 0.367959 0.10932
H_ H_ 0.113505 0.693562 0.354729 0.10932
H_ H_ 0.370458 0.81321 0.357562 0.10932
H_ H_ 0.108195 0.689115 0.431144 0.10932
H_ H_ 0.363543 0.819636 0.434794 0.10932
H_ H_ 0.143062 0.813355 0.439408 0.10932
H_ H_ 0.389977 0.690924 0.443853 0.10932
H_ H_ 0.161319 0.783604 0.135359 0.10932
H_ H_ 0.361733 0.689457 0.137073 0.10932
H_ H_ 0.0747121 0.726298 0.138362 0.10932
H_ H_ 0.37439 0.820062 0.14618 0.10932
H_ H_ 0.0708745 0.730497 0.063851 0.10932
H_ H_ 0.375864 0.826121 0.0683164 0.10932
H_ H_ 0.156302 0.792707 0.0586364 0.10932
H_ H_ 0.368789 0.69311 0.0617474 0.10932
C_ C_ 0.0632036 0.846358 0.253341 -0.02249
C_ C_ 0.320482 0.851969 0.254741 -0.02249
C_ C_ 0.0159655 0.963217 0.244986 -0.02249
C_ C_ 0.266441 0.963376 0.257029 -0.02249
C_ C_ 0.0349112 0.897275 0.212369 -0.11473
C_ C_ 0.295247 0.907951 0.215908 -0.11473
C_ C_ 0.0614709 0.871441 0.288802 -0.11473
C_ C_ 0.307026 0.866436 0.291957 -0.11473
C_ C_ 0.0473288 0.859198 0.215945 -0.11473
C_ C_ 0.316102 0.875402 0.2164 -0.11473
C_ C_ 0.0317743 0.922134 0.2481 -0.02249
C_ C_ 0.28369 0.924121 0.253829 -0.02249
C_ C_ 0.0835863 0.810359 0.252002 0.6875
C_ C_ 0.334446 0.81028 0.252584 0.6875
C_ C_ 0.0461578 0.910259 0.287647 -0.11473
C_ C_ 0.287653 0.900011 0.289953 -0.11473
C_ C_ 0.181963 0.849913 0.248563 -0.02249
C_ C_ 0.435464 0.849308 0.250759 -0.02249
C_ C_ 0.235978 0.962771 0.245122 -0.02249
C_ C_ 0.482771 0.965249 0.249732 -0.02249
C_ C_ 0.207516 0.907424 0.285177 -0.11473
C_ C_ 0.454496 0.90929 0.287902 -0.11473
C_ C_ 0.189508 0.866382 0.209548 -0.11473
C_ C_ 0.446266 0.86487 0.21331 -0.11473
C_ C_ 0.19019 0.870548 0.286471 -0.11473
C_ C_ 0.44086 0.871589 0.287546 -0.11473
C_ C_ 0.217233 0.923535 0.246116 -0.02249
C_ C_ 0.467954 0.924092 0.25083 -0.02249
C_ C_ 0.162259 0.812417 0.250079 0.6875
C_ C_ 0.413312 0.812682 0.250058 0.6875
C_ C_ 0.205763 0.903392 0.208411 -0.11473
C_ C_ 0.465848 0.899364 0.214535 -0.11473
C_ C_ 0.187794 0.661505 0.246598 -0.02249
C_ C_ 0.434429 0.654373 0.251766 -0.02249
C_ C_ 0.234474 0.545287 0.243632 -0.02249
C_ C_ 0.484794 0.53925 0.25185 -0.02249
C_ C_ 0.202804 0.596106 0.279822 -0.11473
C_ C_ 0.457768 0.59679 0.288822 -0.11473
C_ C_ 0.19801 0.64572 0.207526 -0.11473
C_ C_ 0.447286 0.638147 0.214517 -0.11473
C_ C_ 0.192631 0.636961 0.283695 -0.11473
C_ C_ 0.438046 0.630759 0.288533 -0.11473
C_ C_ 0.216818 0.583938 0.243214 -0.02249
C_ C_ 0.469423 0.579522 0.252589 -0.02249
C_ C_ 0.168818 0.69892 0.248247 0.6875
C_ C_ 0.413339 0.689932 0.249175 0.6875
C_ C_ 0.212954 0.607881 0.205748 -0.11473
C_ C_ 0.464325 0.602261 0.215146 -0.11473
C_ C_ 0.0604762 0.661167 0.245213 -0.02249
C_ C_ 0.312484 0.659631 0.250225 -0.02249
C_ C_ 0.014475 0.543314 0.250573 -0.02249
C_ C_ 0.264618 0.54439 0.25403 -0.02249
C_ C_ 0.0395302 0.598445 0.209232 -0.11473
C_ C_ 0.296672 0.594945 0.217615 -0.11473
C_ C_ 0.0510423 0.64561 0.282341 -0.11473
C_ C_ 0.290153 0.652584 0.281496 -0.11473
C_ C_ 0.0559593 0.634869 0.208029 -0.11473
C_ C_ 0.314683 0.629492 0.217708 -0.11473
C_ C_ 0.0291529 0.5845 0.247756 -0.02249
C_ C_ 0.280811 0.584357 0.254567 -0.02249
C_ C_ 0.0848388 0.694532 0.245891 0.6875
C_ C_ 0.334446 0.691836 0.253372 0.6875
C_ C_ 0.0338861 0.607087 0.284015 -0.11473
C_ C_ 0.278529 0.613551 0.287166 -0.11473
C_ C_ 0.133816 0.78878 0.37791 0.17695
C_ C_ 0.381599 0.713377 0.381857 0.17695
C_ C_ 0.115348 0.720396 0.37466 0.17695
C_ C_ 0.366389 0.784052 0.374887 0.17695
C_ C_ 0.113293 0.719484 0.418922 -0.11473
C_ C_ 0.36458 0.787851 0.41947 -0.11473
C_ C_ 0.121665 0.752975 0.443964 0.23465
C_ C_ 0.373154 0.754923 0.445658 0.23465
C_ C_ 0.133764 0.787892 0.423169 -0.11473
C_ C_ 0.380921 0.716335 0.426568 -0.11473
C_ C_ 0.140479 0.773839 0.119811 0.17695
C_ C_ 0.367604 0.71862 0.122945 0.17695
C_ C_ 0.0936567 0.740353 0.120929 0.17695
C_ C_ 0.374184 0.791954 0.127668 0.17695
C_ C_ 0.0906636 0.744121 0.0779495 -0.11473
C_ C_ 0.376407 0.79658 0.0833505 -0.11473
C_ C_ 0.110701 0.766855 0.0548616 0.23465
C_ C_ 0.37499 0.759244 0.0574637 0.23465
C_ C_ 0.137813 0.781124 0.0756329 -0.11473
C_ C_ 0.369119 0.720496 0.0789505 -0.11473
C_ C_ 0.0331831 1.000320144 0.242857 0.05793
C_ C_ 0.281247 1.00291827 0.260254 0.05793
C_ C_ 0.217942 0.507799 0.237538 0.05793
C_ C_ 0.468223 0.503462 0.246098 0.05793
Br Br 0.0754082 -0.0035439999999999916 0.224327 -0.17191
Br Br 0.324458 1.00301743 0.265382 -0.17191
Br Br 0.180315 0.510744 0.208347 -0.17191
Br Br 0.428908 0.50367 0.219314 -0.17191
N_ N_ 0.124637 0.75457 0.353787 -0.272
N_ N_ 0.374996 0.747243 0.357458 -0.272
N_ N_ 0.129099 0.746317 0.48619 -0.12501
N_ N_ 0.375068 0.760913 0.490509 -0.12501
N_ N_ 0.11736 0.756635 0.141966 -0.272
N_ N_ 0.375602 0.752945 0.146226 -0.272
N_ N_ 0.106131 0.773135 0.0100982 -0.12501
N_ N_ 0.37651 0.763793 0.0139017 -0.12501
O_ O_ 0.0865686 0.788028 0.218788 -0.60745
O_ O_ 0.342501 0.794208 0.218366 -0.60745
O_ O_ 0.0952798 0.797488 0.285569 -0.60745
O_ O_ 0.345238 0.793887 0.286966 -0.60745
O_ O_ 0.158279 0.792443 0.283609 -0.60745
O_ O_ 0.406976 0.790853 0.282019 -0.60745
O_ O_ 0.145073 0.806048 0.21831 -0.60745
O_ O_ 0.40522 0.798538 0.214858 -0.60745
O_ O_ 0.158129 0.709371 0.281995 -0.60745
O_ O_ 0.400427 0.700763 0.282686 -0.60745
O_ O_ 0.162329 0.719649 0.212985 -0.60745
O_ O_ 0.411563 0.713597 0.216956 -0.60745
O_ O_ 0.0965194 0.703193 0.210866 -0.60745
O_ O_ 0.348602 0.70524 0.221008 -0.60745
O_ O_ 0.0936467 0.712983 0.279565 -0.60745
O_ O_ 0.341957 0.706713 0.288856 -0.60745
Zn Zn 0.123951 0.746467 0.781499 0.9476
Zn Zn 0.376372 0.751651 0.789229 0.9476
Zn Zn 0.122655 0.748753 0.713262 0.9476
Zn Zn 0.378053 0.750209 0.718797 0.9476
H_ H_ 0.0394252 0.923164 0.677458 0.10932
H_ H_ 0.276239 0.902113 0.689922 0.10932
H_ H_ 0.0559702 0.843255 0.812551 0.10932
H_ H_ 0.324347 0.868381 0.825057 0.10932
H_ H_ 0.0650316 0.855942 0.677753 0.10932
H_ H_ 0.308544 0.843029 0.691701 0.10932
H_ H_ 0.030748 0.914993 0.810704 0.10932
H_ H_ 0.286636 0.920211 0.821356 0.10932
H_ H_ 0.223041 0.903202 0.816372 0.10932
H_ H_ 0.479394 0.90652 0.821529 0.10932
H_ H_ 0.187717 0.848006 0.682246 0.10932
H_ H_ 0.434318 0.85711 0.685498 0.10932
H_ H_ 0.193796 0.839013 0.815757 0.10932
H_ H_ 0.444433 0.844908 0.820346 0.10932
H_ H_ 0.209853 0.916526 0.682448 0.10932
H_ H_ 0.464581 0.916621 0.68758 0.10932
H_ H_ 0.215612 0.582073 0.820364 0.10932
H_ H_ 0.462783 0.57129 0.813602 0.10932
H_ H_ 0.184184 0.644795 0.685292 0.10932
H_ H_ 0.433842 0.646085 0.681901 0.10932
H_ H_ 0.184199 0.64653 0.820602 0.10932
H_ H_ 0.436432 0.639325 0.81851 0.10932
H_ H_ 0.223446 0.589891 0.684733 0.10932
H_ H_ 0.461747 0.579894 0.678935 0.10932
H_ H_ 0.0522043 0.570505 0.677727 0.10932
H_ H_ 0.293297 0.578757 0.687388 0.10932
H_ H_ 0.0538677 0.651582 0.810931 0.10932
H_ H_ 0.313713 0.652999 0.820565 0.10932
H_ H_ 0.080555 0.633 0.682084 0.10932
H_ H_ 0.327513 0.637595 0.691838 0.10932
H_ H_ 0.0206748 0.58947 0.804196 0.10932
H_ H_ 0.282735 0.586261 0.821009 0.10932
H_ H_ 0.117509 0.81754 0.857065 0.10932
H_ H_ 0.378352 0.814734 0.869267 0.10932
H_ H_ 0.120205 0.686859 0.856144 0.10932
H_ H_ 0.386211 0.682879 0.855061 0.10932
H_ H_ 0.119118 0.687223 0.934594 0.10932
H_ H_ 0.386286 0.674891 0.930712 0.10932
H_ H_ 0.116608 0.816292 0.936224 0.10932
H_ H_ 0.382403 0.807122 0.941168 0.10932
H_ H_ 0.130571 0.685054 0.63 0.10932
H_ H_ 0.381376 0.810086 0.635091 0.10932
H_ H_ 0.118328 0.812715 0.651408 0.10932
H_ H_ 0.350974 0.688321 0.649161 0.10932
H_ H_ 0.116447 0.823962 0.575675 0.10932
H_ H_ 0.351687 0.677823 0.571727 0.10932
H_ H_ 0.1292 0.693411 0.555319 0.10932
H_ H_ 0.382749 0.802963 0.556331 0.10932
C_ C_ 0.0662307 0.844898 0.745111 -0.02249
C_ C_ 0.320042 0.850329 0.76095 -0.02249
C_ C_ 0.0178925 0.961548 0.74681 -0.02249
C_ C_ 0.263437 0.958776 0.753994 -0.02249
C_ C_ 0.0439147 0.905446 0.706931 -0.11473
C_ C_ 0.288269 0.897381 0.719812 -0.11473
C_ C_ 0.05378 0.86092 0.782855 -0.11473
C_ C_ 0.315823 0.876348 0.794638 -0.11473
C_ C_ 0.0598183 0.867013 0.707071 -0.11473
C_ C_ 0.306134 0.862444 0.72206 -0.11473
C_ C_ 0.0347252 0.922103 0.745933 -0.02249
C_ C_ 0.281876 0.920174 0.75651 -0.02249
C_ C_ 0.0795126 0.802781 0.744569 0.6875
C_ C_ 0.339262 0.811256 0.762446 0.6875
C_ C_ 0.0399722 0.90055 0.783767 -0.11473
C_ C_ 0.295451 0.908795 0.793736 -0.11473
C_ C_ 0.183066 0.842777 0.747389 -0.02249
C_ C_ 0.439042 0.844266 0.752626 -0.02249
C_ C_ 0.231467 0.957175 0.752458 -0.02249
C_ C_ 0.488862 0.957159 0.755357 -0.02249
C_ C_ 0.212813 0.892542 0.786277 -0.11473
C_ C_ 0.467201 0.895796 0.793292 -0.11473
C_ C_ 0.189279 0.864332 0.711159 -0.11473
C_ C_ 0.444819 0.865362 0.714491 -0.11473
C_ C_ 0.195287 0.856719 0.786349 -0.11473
C_ C_ 0.450805 0.859191 0.791706 -0.11473
C_ C_ 0.217803 0.915099 0.750146 -0.02249
C_ C_ 0.4731 0.916745 0.754862 -0.02249
C_ C_ 0.163981 0.805181 0.746677 0.6875
C_ C_ 0.420011 0.806871 0.751824 0.6875
C_ C_ 0.204491 0.901663 0.712377 -0.11473
C_ C_ 0.463258 0.899082 0.71597 -0.11473
C_ C_ 0.184045 0.651718 0.752675 -0.02249
C_ C_ 0.435915 0.650051 0.752054 -0.02249
C_ C_ 0.239335 0.540874 0.753599 -0.02249
C_ C_ 0.481643 0.533087 0.740636 -0.02249
C_ C_ 0.211275 0.598937 0.79054 -0.11473
C_ C_ 0.458092 0.590614 0.786145 -0.11473
C_ C_ 0.194149 0.634669 0.715103 -0.11473
C_ C_ 0.442992 0.632697 0.710618 -0.11473
C_ C_ 0.194124 0.636072 0.791785 -0.11473
C_ C_ 0.441545 0.627356 0.788829 -0.11473
C_ C_ 0.221836 0.581376 0.75306 -0.02249
C_ C_ 0.464609 0.573563 0.745617 -0.02249
C_ C_ 0.164872 0.689697 0.751596 0.6875
C_ C_ 0.413985 0.687419 0.751907 0.6875
C_ C_ 0.213099 0.598367 0.71457 -0.11473
C_ C_ 0.458601 0.595434 0.70871 -0.11473
C_ C_ 0.067771 0.645898 0.746857 -0.02249
C_ C_ 0.318853 0.655284 0.754576 -0.02249
C_ C_ 0.0182127 0.530489 0.741778 -0.02249
C_ C_ 0.271225 0.538907 0.753057 -0.02249
C_ C_ 0.0529057 0.585296 0.709558 -0.11473
C_ C_ 0.298299 0.595126 0.716877 -0.11473
C_ C_ 0.0524821 0.632589 0.78217 -0.11473
C_ C_ 0.306796 0.637596 0.791811 -0.11473
C_ C_ 0.066696 0.62322 0.709865 -0.11473
C_ C_ 0.31365 0.632496 0.716841 -0.11473
C_ C_ 0.0358078 0.572754 0.743355 -0.02249
C_ C_ 0.28966 0.576506 0.753917 -0.02249
C_ C_ 0.0847601 0.686138 0.748201 0.6875
C_ C_ 0.333981 0.694912 0.75552 0.6875
C_ C_ 0.0370308 0.59405 0.780259 -0.11473
C_ C_ 0.292999 0.598259 0.791824 -0.11473
C_ C_ 0.117663 0.788683 0.872753 0.17695
C_ C_ 0.377376 0.781946 0.88182 0.17695
C_ C_ 0.120686 0.715697 0.873591 0.17695
C_ C_ 0.382634 0.708717 0.875026 0.17695
C_ C_ 0.119878 0.715827 0.916581 -0.11473
C_ C_ 0.382242 0.70407 0.917737 -0.11473
C_ C_ 0.115905 0.751652 0.938664 0.23465
C_ C_ 0.380326 0.738219 0.9442 0.23465
C_ C_ 0.114074 0.789 0.916933 -0.11473
C_ C_ 0.378449 0.776964 0.924587 -0.11473
C_ C_ 0.130311 0.717594 0.619499 0.17695
C_ C_ 0.376658 0.781168 0.621372 0.17695
C_ C_ 0.122217 0.788092 0.63065 0.17695
C_ C_ 0.36077 0.711478 0.628488 0.17695
C_ C_ 0.119035 0.793485 0.587008 -0.11473
C_ C_ 0.359899 0.707714 0.585493 -0.11473
C_ C_ 0.122854 0.761419 0.558617 0.23465
C_ C_ 0.371177 0.738584 0.559207 0.23465
C_ C_ 0.128925 0.721778 0.575278 -0.11473
C_ C_ 0.378467 0.776007 0.57732 -0.11473
C_ C_ 0.0347793 -0.00185109 0.748465 0.05793
C_ C_ 0.279521 -0.0036810000000000453 0.750575 0.05793
C_ C_ 0.222884 0.504194 0.754103 0.05793
C_ C_ 0.467439 0.49465 0.739476 0.05793
Br Br 0.0745271 -0.000540688 0.727311 -0.17191
Br Br 0.323156 -0.0009620000000000184 0.755287 -0.17191
Br Br 0.180165 0.503986 0.753925 -0.17191
Br Br 0.4242 0.495422 0.726671 -0.17191
N_ N_ 0.1201 0.752783 0.850724 -0.272
N_ N_ 0.378979 0.748018 0.857723 -0.272
N_ N_ 0.119226 0.749398 0.985217 -0.12501
N_ N_ 0.382189 0.73447 0.989448 -0.12501
N_ N_ 0.126267 0.749387 0.645819 -0.272
N_ N_ 0.371058 0.747896 0.646353 -0.272
N_ N_ 0.118917 0.769341 0.514043 -0.12501
N_ N_ 0.366383 0.73475 0.515484 -0.12501
O_ O_ 0.0865254 0.788288 0.709258 -0.60745
O_ O_ 0.348319 0.797867 0.728355 -0.60745
O_ O_ 0.0922534 0.789401 0.77718 -0.60745
O_ O_ 0.350882 0.799102 0.797013 -0.60745
O_ O_ 0.154394 0.791464 0.78176 -0.60745
O_ O_ 0.41098 0.792395 0.785879 -0.60745
O_ O_ 0.154179 0.790362 0.712875 -0.60745
O_ O_ 0.411867 0.791184 0.718476 -0.60745
O_ O_ 0.157139 0.7058 0.786626 -0.60745
O_ O_ 0.403901 0.702782 0.786116 -0.60745
O_ O_ 0.153881 0.703186 0.717034 -0.60745
O_ O_ 0.404475 0.70228 0.717432 -0.60745
O_ O_ 0.0911798 0.702513 0.714705 -0.60745
O_ O_ 0.344855 0.709048 0.722021 -0.60745
O_ O_ 0.0926085 0.701814 0.783083 -0.60745
O_ O_ 0.341413 0.711384 0.790428 -0.60745
Zn Zn 0.623451 0.253945 0.284559 0.9476
Zn Zn 0.875623 0.257583 0.27638 0.9476
Zn Zn 0.620735 0.250337 0.218539 0.9476
Zn Zn 0.877478 0.255152 0.207741 0.9476
H_ H_ 0.535579 0.421911 0.191918 0.10932
H_ H_ 0.782511 0.424496 0.176912 0.10932
H_ H_ 0.54981 0.340868 0.321103 0.10932
H_ H_ 0.808643 0.351141 0.312615 0.10932
H_ H_ 0.57274 0.368719 0.192376 0.10932
H_ H_ 0.820524 0.366716 0.177971 0.10932
H_ H_ 0.518199 0.40334 0.321957 0.10932
H_ H_ 0.777645 0.417972 0.311096 0.10932
H_ H_ 0.707378 0.428235 0.309095 0.10932
H_ H_ 0.96263 0.423261 0.314512 0.10932
H_ H_ 0.68594 0.351405 0.178005 0.10932
H_ H_ 0.934585 0.365541 0.175302 0.10932
H_ H_ 0.688597 0.357684 0.312233 0.10932
H_ H_ 0.946255 0.349629 0.308284 0.10932
H_ H_ 0.707893 0.417475 0.170592 0.10932
H_ H_ 0.963968 0.428903 0.180314 0.10932
H_ H_ 0.716914 0.0818903 0.318393 0.10932
H_ H_ 0.984073 0.10609 0.309441 0.10932
H_ H_ 0.696328 0.15362 0.184895 0.10932
H_ H_ 0.931035 0.14532 0.175898 0.10932
H_ H_ 0.682746 0.144822 0.319974 0.10932
H_ H_ 0.955918 0.171358 0.306369 0.10932
H_ H_ 0.721969 0.0901529 0.184294 0.10932
H_ H_ 0.960812 0.0814137 0.178948 0.10932
H_ H_ 0.542356 0.0783849 0.185026 0.10932
H_ H_ 0.793211 0.0794346 0.178492 0.10932
H_ H_ 0.539059 0.174564 0.302867 0.10932
H_ H_ 0.802824 0.168742 0.303958 0.10932
H_ H_ 0.576048 0.13722 0.185625 0.10932
H_ H_ 0.821362 0.147579 0.176932 0.10932
H_ H_ 0.512219 0.110041 0.308238 0.10932
H_ H_ 0.782221 0.0943357 0.309915 0.10932
H_ H_ 0.62723 0.190353 0.360492 0.10932
H_ H_ 0.885064 0.18579 0.350393 0.10932
H_ H_ 0.625081 0.320652 0.359449 0.10932
H_ H_ 0.860984 0.313749 0.350776 0.10932
H_ H_ 0.629005 0.319356 0.440792 0.10932
H_ H_ 0.863418 0.317941 0.430738 0.10932
H_ H_ 0.635227 0.192352 0.439502 0.10932
H_ H_ 0.887116 0.187399 0.429932 0.10932
H_ H_ 0.616951 0.190126 0.143265 0.10932
H_ H_ 0.857499 0.31688 0.135857 0.10932
H_ H_ 0.626786 0.320624 0.145974 0.10932
H_ H_ 0.887462 0.193488 0.130996 0.10932
H_ H_ 0.609948 0.32535 0.072754 0.10932
H_ H_ 0.891594 0.197781 0.0536162 0.10932
H_ H_ 0.613076 0.191968 0.0648235 0.10932
H_ H_ 0.849967 0.314849 0.0584246 0.10932
C_ C_ 0.565498 0.348685 0.256891 -0.02249
C_ C_ 0.81376 0.350881 0.244214 -0.02249
C_ C_ 0.51337 0.46165 0.263064 -0.02249
C_ C_ 0.763584 0.46602 0.245546 -0.02249
C_ C_ 0.541443 0.408224 0.220992 -0.11473
C_ C_ 0.788849 0.408037 0.206417 -0.11473
C_ C_ 0.548297 0.360889 0.293495 -0.11473
C_ C_ 0.799737 0.364663 0.282342 -0.11473
C_ C_ 0.560076 0.373979 0.219824 -0.11473
C_ C_ 0.808077 0.373168 0.207555 -0.11473
C_ C_ 0.528536 0.421437 0.259536 -0.02249
C_ C_ 0.780588 0.426876 0.245451 -0.02249
C_ C_ 0.583071 0.309905 0.255576 0.6875
C_ C_ 0.835001 0.315101 0.245225 0.6875
C_ C_ 0.530045 0.395018 0.294079 -0.11473
C_ C_ 0.783604 0.402769 0.282146 -0.11473
C_ C_ 0.680846 0.352079 0.24536 -0.02249
C_ C_ 0.936143 0.353372 0.242255 -0.02249
C_ C_ 0.732985 0.466121 0.237327 -0.02249
C_ C_ 0.9828 0.469076 0.248762 -0.02249
C_ C_ 0.706394 0.409834 0.280097 -0.11473
C_ C_ 0.960327 0.408749 0.284388 -0.11473
C_ C_ 0.688005 0.370169 0.205566 -0.11473
C_ C_ 0.939391 0.378238 0.205539 -0.11473
C_ C_ 0.689824 0.373367 0.28211 -0.11473
C_ C_ 0.949138 0.36745 0.28077 -0.11473
C_ C_ 0.714261 0.428 0.241918 -0.02249
C_ C_ 0.964668 0.431331 0.247153 -0.02249
C_ C_ 0.660392 0.315529 0.249891 0.6875
C_ C_ 0.915404 0.31513 0.241688 0.6875
C_ C_ 0.704543 0.406969 0.203707 -0.11473
C_ C_ 0.956849 0.413645 0.208894 -0.11473
C_ C_ 0.686462 0.154328 0.25161 -0.02249
C_ C_ 0.942883 0.165409 0.240718 -0.02249
C_ C_ 0.738472 0.0406425 0.251375 -0.02249
C_ C_ 0.987795 0.0448668 0.250042 -0.02249
C_ C_ 0.709285 0.0959979 0.289929 -0.11473
C_ C_ 0.973197 0.113634 0.279853 -0.11473
C_ C_ 0.69756 0.136487 0.213019 -0.11473
C_ C_ 0.944581 0.137848 0.204854 -0.11473
C_ C_ 0.691788 0.13181 0.289017 -0.11473
C_ C_ 0.957629 0.152103 0.278071 -0.11473
C_ C_ 0.721986 0.0807702 0.252009 -0.02249
C_ C_ 0.973217 0.0869597 0.244314 -0.02249
C_ C_ 0.665759 0.192063 0.251168 0.6875
C_ C_ 0.920821 0.201173 0.239803 0.6875
C_ C_ 0.715102 0.101603 0.213106 -0.11473
C_ C_ 0.960272 0.100777 0.206681 -0.11473
C_ C_ 0.56482 0.157791 0.248177 -0.02249
C_ C_ 0.818085 0.157858 0.242106 -0.02249
C_ C_ 0.513758 0.0447468 0.251872 -0.02249
C_ C_ 0.770643 0.040308 0.246177 -0.02249
C_ C_ 0.547143 0.0945273 0.215241 -0.11473
C_ C_ 0.796176 0.0973731 0.20543 -0.11473
C_ C_ 0.542609 0.151935 0.278558 -0.11473
C_ C_ 0.805367 0.145005 0.280436 -0.11473
C_ C_ 0.564164 0.131351 0.213051 -0.11473
C_ C_ 0.812345 0.134716 0.204765 -0.11473
C_ C_ 0.529819 0.084965 0.250446 -0.02249
C_ C_ 0.789223 0.0801751 0.245866 -0.02249
C_ C_ 0.581947 0.195512 0.24815 0.6875
C_ C_ 0.83588 0.196106 0.24189 0.6875
C_ C_ 0.526591 0.114969 0.281902 -0.11473
C_ C_ 0.790874 0.105913 0.281559 -0.11473
C_ C_ 0.629801 0.220008 0.377068 0.17695
C_ C_ 0.883582 0.215329 0.369328 0.17695
C_ C_ 0.628672 0.291976 0.376734 0.17695
C_ C_ 0.867589 0.287051 0.370274 0.17695
C_ C_ 0.62785 0.293262 0.420893 -0.11473
C_ C_ 0.867612 0.288486 0.412991 -0.11473
C_ C_ 0.627558 0.256813 0.443947 0.23465
C_ C_ 0.871451 0.250607 0.435147 0.23465
C_ C_ 0.630271 0.220402 0.421576 -0.11473
C_ C_ 0.881308 0.214488 0.413929 -0.11473
C_ C_ 0.61658 0.219936 0.12593 0.17695
C_ C_ 0.866155 0.290921 0.11655 0.17695
C_ C_ 0.622337 0.292626 0.129341 0.17695
C_ C_ 0.881693 0.222839 0.114997 0.17695
C_ C_ 0.617999 0.295131 0.0852339 -0.11473
C_ C_ 0.884667 0.224779 0.0711299 -0.11473
C_ C_ 0.614464 0.258462 0.0619385 0.23465
C_ C_ 0.87333 0.258291 0.0499584 0.23465
C_ C_ 0.616873 0.219841 0.0830189 -0.11473
C_ C_ 0.861553 0.290188 0.073491 -0.11473
C_ C_ 0.531299 0.497817 0.264043 0.05793
C_ C_ 0.779704 0.504033 0.252237 0.05793
C_ C_ 0.723126 1.00190403 0.256112 0.05793
C_ C_ 0.970637 1.00647134 0.246019 0.05793
Br Br 0.570437 0.49141 0.288548 -0.17191
Br Br 0.823696 0.501836 0.252355 -0.17191
Br Br 0.679258 0.00432966 0.263997 -0.17191
Br Br 0.928008 0.00907179 0.257701 -0.17191
N_ N_ 0.625589 0.255595 0.354853 -0.272
N_ N_ 0.8741 0.251601 0.349546 -0.272
N_ N_ 0.6229 0.260569 0.487993 -0.12501
N_ N_ 0.86483 0.252832 0.479368 -0.12501
N_ N_ 0.621497 0.254488 0.148389 -0.272
N_ N_ 0.874686 0.25677 0.136972 -0.272
N_ N_ 0.608322 0.258895 0.0158797 -0.12501
N_ N_ 0.871086 0.260671 0.00428012 -0.12501
O_ O_ 0.593127 0.297601 0.220578 -0.60745
O_ O_ 0.845523 0.301179 0.212111 -0.60745
O_ O_ 0.590204 0.29081 0.289161 -0.60745
O_ O_ 0.844167 0.299955 0.279943 -0.60745
O_ O_ 0.651646 0.303284 0.287326 -0.60745
O_ O_ 0.908391 0.299775 0.27543 -0.60745
O_ O_ 0.65525 0.291458 0.21821 -0.60745
O_ O_ 0.90448 0.303635 0.208327 -0.60745
O_ O_ 0.661923 0.214408 0.284351 -0.60745
O_ O_ 0.90835 0.21181 0.272955 -0.60745
O_ O_ 0.647804 0.198164 0.219925 -0.60745
O_ O_ 0.912566 0.215561 0.205067 -0.60745
O_ O_ 0.583793 0.218253 0.215894 -0.60745
O_ O_ 0.848426 0.207722 0.208379 -0.60745
O_ O_ 0.595634 0.206798 0.282222 -0.60745
O_ O_ 0.84407 0.212738 0.275448 -0.60745
Zn Zn 0.62547 0.24596 0.785926 0.9476
Zn Zn 0.872014 0.244944 0.779252 0.9476
Zn Zn 0.625569 0.243518 0.716337 0.9476
Zn Zn 0.871181 0.244871 0.70994 0.9476
H_ H_ 0.53512 0.411117 0.682977 0.10932
H_ H_ 0.787583 0.422348 0.682496 0.10932
H_ H_ 0.571379 0.356655 0.817307 0.10932
H_ H_ 0.813375 0.346679 0.814595 0.10932
H_ H_ 0.558828 0.339592 0.686103 0.10932
H_ H_ 0.812313 0.352792 0.678483 0.10932
H_ H_ 0.538082 0.418112 0.815598 0.10932
H_ H_ 0.785769 0.410219 0.816383 0.10932
H_ H_ 0.721224 0.412062 0.815705 0.10932
H_ H_ 0.965268 0.411474 0.808536 0.10932
H_ H_ 0.687252 0.3458 0.680409 0.10932
H_ H_ 0.937354 0.345996 0.673431 0.10932
H_ H_ 0.695039 0.341244 0.815069 0.10932
H_ H_ 0.935388 0.345425 0.80582 0.10932
H_ H_ 0.720935 0.405072 0.679644 0.10932
H_ H_ 0.963374 0.411965 0.674053 0.10932
H_ H_ 0.697342 0.0622629 0.817713 0.10932
H_ H_ 0.961743 0.0739605 0.819625 0.10932
H_ H_ 0.695065 0.141373 0.684565 0.10932
H_ H_ 0.944728 0.148201 0.686494 0.10932
H_ H_ 0.674418 0.129598 0.819409 0.10932
H_ H_ 0.930493 0.141342 0.817107 0.10932
H_ H_ 0.718862 0.0715548 0.687597 0.10932
H_ H_ 0.973262 0.0803716 0.688108 0.10932
H_ H_ 0.520702 0.0894206 0.682094 0.10932
H_ H_ 0.783726 0.0662627 0.688752 0.10932
H_ H_ 0.57034 0.141643 0.81374 0.10932
H_ H_ 0.797427 0.157606 0.807563 0.10932
H_ H_ 0.557272 0.150068 0.683161 0.10932
H_ H_ 0.819259 0.1245 0.679678 0.10932
H_ H_ 0.538674 0.0780953 0.815452 0.10932
H_ H_ 0.769136 0.091871 0.816859 0.10932
H_ H_ 0.631827 0.311288 0.86461 0.10932
H_ H_ 0.921493 0.241211 0.84607 0.10932
H_ H_ 0.61167 0.184321 0.854531 0.10932
H_ H_ 0.828 0.260709 0.858231 0.10932
H_ H_ 0.603574 0.17848 0.930647 0.10932
H_ H_ 0.832508 0.247462 0.936214 0.10932
H_ H_ 0.632335 0.306875 0.943055 0.10932
H_ H_ 0.92713 0.245392 0.926131 0.10932
H_ H_ 0.625453 0.175867 0.645716 0.10932
H_ H_ 0.874981 0.312632 0.631199 0.10932
H_ H_ 0.634549 0.30576 0.641238 0.10932
H_ H_ 0.857314 0.184408 0.63452 0.10932
H_ H_ 0.626197 0.301886 0.56012 0.10932
H_ H_ 0.865237 0.17953 0.560561 0.10932
H_ H_ 0.623439 0.169229 0.568081 0.10932
H_ H_ 0.887209 0.305628 0.555258 0.10932
C_ C_ 0.567926 0.34451 0.751551 -0.02249
C_ C_ 0.812752 0.341689 0.745532 -0.02249
C_ C_ 0.515411 0.45755 0.746434 -0.02249
C_ C_ 0.767479 0.457649 0.753274 -0.02249
C_ C_ 0.541132 0.397839 0.712058 -0.11473
C_ C_ 0.792854 0.403243 0.710912 -0.11473
C_ C_ 0.562245 0.366651 0.788074 -0.11473
C_ C_ 0.805209 0.3602 0.784773 -0.11473
C_ C_ 0.557027 0.360604 0.713191 -0.11473
C_ C_ 0.806272 0.365912 0.708083 -0.11473
C_ C_ 0.533633 0.418005 0.748957 -0.02249
C_ C_ 0.784808 0.420113 0.751208 -0.02249
C_ C_ 0.587496 0.307614 0.753509 0.6875
C_ C_ 0.831528 0.303909 0.744618 0.6875
C_ C_ 0.542949 0.401307 0.787449 -0.11473
C_ C_ 0.792741 0.399269 0.787092 -0.11473
C_ C_ 0.689022 0.338198 0.749421 -0.02249
C_ C_ 0.931977 0.342906 0.740598 -0.02249
C_ C_ 0.736308 0.455145 0.748579 -0.02249
C_ C_ 0.98624 0.455645 0.74233 -0.02249
C_ C_ 0.713277 0.395363 0.786454 -0.11473
C_ C_ 0.960116 0.39663 0.779273 -0.11473
C_ C_ 0.696169 0.357079 0.710775 -0.11473
C_ C_ 0.943823 0.358228 0.703655 -0.11473
C_ C_ 0.698111 0.357259 0.78617 -0.11473
C_ C_ 0.942016 0.360219 0.777816 -0.11473
C_ C_ 0.719945 0.414647 0.747646 -0.02249
C_ C_ 0.970386 0.415439 0.742052 -0.02249
C_ C_ 0.669115 0.300841 0.750956 0.6875
C_ C_ 0.912217 0.30477 0.74357 0.6875
C_ C_ 0.713849 0.392486 0.709265 -0.11473
C_ C_ 0.961865 0.395503 0.703593 -0.11473
C_ C_ 0.679662 0.139446 0.751349 -0.02249
C_ C_ 0.934983 0.14911 0.751421 -0.02249
C_ C_ 0.731992 0.0272285 0.75809 -0.02249
C_ C_ 0.987082 0.0365738 0.753767 -0.02249
C_ C_ 0.697777 0.0788524 0.790145 -0.11473
C_ C_ 0.957948 0.0922609 0.790875 -0.11473
C_ C_ 0.6963 0.125435 0.715201 -0.11473
C_ C_ 0.949605 0.134126 0.715612 -0.11473
C_ C_ 0.682868 0.115668 0.788465 -0.11473
C_ C_ 0.938565 0.126325 0.7883 -0.11473
C_ C_ 0.712886 0.0642322 0.755585 -0.02249
C_ C_ 0.970381 0.0762707 0.753368 -0.02249
C_ C_ 0.66026 0.177451 0.750126 0.6875
C_ C_ 0.910581 0.182735 0.746288 0.6875
C_ C_ 0.710644 0.0857909 0.717012 -0.11473
C_ C_ 0.963308 0.0951811 0.716489 -0.11473
C_ C_ 0.562606 0.150346 0.749199 -0.02249
C_ C_ 0.812647 0.145508 0.744999 -0.02249
C_ C_ 0.51656 0.03433 0.75056 -0.02249
C_ C_ 0.763816 0.0297908 0.758397 -0.02249
C_ C_ 0.534204 0.097285 0.711005 -0.11473
C_ C_ 0.790743 0.0836033 0.714442 -0.11473
C_ C_ 0.55702 0.131319 0.787564 -0.11473
C_ C_ 0.797757 0.136202 0.783038 -0.11473
C_ C_ 0.55139 0.134522 0.711513 -0.11473
C_ C_ 0.811167 0.116854 0.710713 -0.11473
C_ C_ 0.532013 0.0755662 0.748035 -0.02249
C_ C_ 0.778887 0.0715749 0.753894 -0.02249
C_ C_ 0.58102 0.191572 0.749112 0.6875
C_ C_ 0.833442 0.182295 0.74409 0.6875
C_ C_ 0.543485 0.0926784 0.787095 -0.11473
C_ C_ 0.782062 0.098151 0.787987 -0.11473
C_ C_ 0.628003 0.281953 0.881455 0.17695
C_ C_ 0.902142 0.245663 0.867857 0.17695
C_ C_ 0.613198 0.212046 0.874738 0.17695
C_ C_ 0.849973 0.255934 0.874177 0.17695
C_ C_ 0.609798 0.208419 0.918359 -0.11473
C_ C_ 0.8526 0.249728 0.917116 -0.11473
C_ C_ 0.618078 0.241412 0.944508 0.23465
C_ C_ 0.88083 0.243723 0.93651 0.23465
C_ C_ 0.627116 0.278641 0.925794 -0.11473
C_ C_ 0.905576 0.245834 0.911492 -0.11473
C_ C_ 0.626123 0.203192 0.626772 0.17695
C_ C_ 0.875772 0.280983 0.61647 0.17695
C_ C_ 0.630228 0.275312 0.623258 0.17695
C_ C_ 0.859564 0.212511 0.618321 0.17695
C_ C_ 0.631286 0.273423 0.577789 -0.11473
C_ C_ 0.86571 0.208615 0.574634 -0.11473
C_ C_ 0.628975 0.2347 0.557668 0.23465
C_ C_ 0.874693 0.242074 0.551044 0.23465
C_ C_ 0.623437 0.198886 0.582821 -0.11473
C_ C_ 0.880582 0.277438 0.573064 -0.11473
C_ C_ 0.529997 0.496331 0.750087 0.05793
C_ C_ 0.781651 0.495974 0.748494 0.05793
C_ C_ 0.718441 -0.011338999999999988 0.756767 0.05793
C_ C_ 0.971324 -0.000295119 0.748094 0.05793
Br Br 0.572288 0.503182 0.761352 -0.17191
Br Br 0.824645 0.49582 0.741245 -0.17191
Br Br 0.678634 -0.018365999999999993 0.732216 -0.17191
Br Br 0.927307 0.00365457 0.744336 -0.17191
N_ N_ 0.623214 0.247073 0.857371 -0.272
N_ N_ 0.874315 0.247794 0.849451 -0.272
N_ N_ 0.621765 0.236097 0.990374 -0.12501
N_ N_ 0.884137 0.2376 0.980166 -0.12501
N_ N_ 0.626154 0.239637 0.646707 -0.272
N_ N_ 0.867609 0.246746 0.639505 -0.272
N_ N_ 0.628297 0.23207 0.51183 -0.12501
N_ N_ 0.881691 0.238526 0.506808 -0.12501
O_ O_ 0.595711 0.291452 0.720361 -0.60745
O_ O_ 0.840481 0.290838 0.709417 -0.60745
O_ O_ 0.60013 0.297088 0.788297 -0.60745
O_ O_ 0.838936 0.284381 0.777351 -0.60745
O_ O_ 0.662861 0.282636 0.785144 -0.60745
O_ O_ 0.901465 0.292992 0.777527 -0.60745
O_ O_ 0.659343 0.286851 0.716055 -0.60745
O_ O_ 0.904541 0.287642 0.710058 -0.60745
O_ O_ 0.651005 0.192938 0.784381 -0.60745
O_ O_ 0.904622 0.204699 0.778308 -0.60745
O_ O_ 0.654029 0.196525 0.716861 -0.60745
O_ O_ 0.902613 0.196134 0.711085 -0.60745
O_ O_ 0.592635 0.201191 0.714904 -0.60745
O_ O_ 0.841276 0.196414 0.708065 -0.60745
O_ O_ 0.590581 0.210447 0.781854 -0.60745
O_ O_ 0.843797 0.197696 0.77691 -0.60745
Zn Zn 0.629678 0.754523 0.288922 0.9476
Zn Zn 0.871409 0.754812 0.286048 0.9476
Zn Zn 0.624583 0.754037 0.217009 0.9476
Zn Zn 0.876709 0.750419 0.21749 0.9476
H_ H_ 0.531438 0.919371 0.189984 0.10932
H_ H_ 0.782341 0.913319 0.178597 0.10932
H_ H_ 0.569733 0.860436 0.324239 0.10932
H_ H_ 0.813839 0.852971 0.316331 0.10932
H_ H_ 0.563942 0.863035 0.189186 0.10932
H_ H_ 0.816378 0.852362 0.184872 0.10932
H_ H_ 0.538239 0.925488 0.326653 0.10932
H_ H_ 0.797596 0.926946 0.310933 0.10932
H_ H_ 0.732224 0.90832 0.316906 0.10932
H_ H_ 0.968364 0.918297 0.32001 0.10932
H_ H_ 0.669675 0.868072 0.191737 0.10932
H_ H_ 0.928574 0.858145 0.187965 0.10932
H_ H_ 0.699571 0.844852 0.319236 0.10932
H_ H_ 0.937618 0.858518 0.32324 0.10932
H_ H_ 0.706741 0.925843 0.185378 0.10932
H_ H_ 0.956833 0.926262 0.184638 0.10932
H_ H_ 0.71789 0.585745 0.315906 0.10932
H_ H_ 0.961061 0.58301 0.317693 0.10932
H_ H_ 0.68466 0.65658 0.185351 0.10932
H_ H_ 0.93033 0.650571 0.182085 0.10932
H_ H_ 0.690036 0.646278 0.319801 0.10932
H_ H_ 0.937134 0.652372 0.319334 0.10932
H_ H_ 0.711577 0.596139 0.180554 0.10932
H_ H_ 0.966648 0.587197 0.185006 0.10932
H_ H_ 0.546458 0.571492 0.194175 0.10932
H_ H_ 0.77584 0.591734 0.190548 0.10932
H_ H_ 0.566952 0.652947 0.322992 0.10932
H_ H_ 0.82017 0.644301 0.323367 0.10932
H_ H_ 0.573293 0.640008 0.189626 0.10932
H_ H_ 0.810126 0.648862 0.190117 0.10932
H_ H_ 0.534953 0.588359 0.326353 0.10932
H_ H_ 0.787029 0.581679 0.321999 0.10932
H_ H_ 0.642504 0.688934 0.354156 0.10932
H_ H_ 0.827103 0.761332 0.361925 0.10932
H_ H_ 0.614565 0.809955 0.371899 0.10932
H_ H_ 0.920865 0.751379 0.352254 0.10932
H_ H_ 0.622641 0.803483 0.448161 0.10932
H_ H_ 0.926815 0.753326 0.430853 0.10932
H_ H_ 0.640787 0.677264 0.427419 0.10932
H_ H_ 0.831849 0.767683 0.441179 0.10932
H_ H_ 0.584096 0.727023 0.144917 0.10932
H_ H_ 0.860489 0.690533 0.134807 0.10932
H_ H_ 0.673685 0.763308 0.139935 0.10932
H_ H_ 0.874584 0.818273 0.151512 0.10932
H_ H_ 0.671981 0.760248 0.0643589 0.10932
H_ H_ 0.872797 0.828667 0.077371 0.10932
H_ H_ 0.576726 0.732873 0.0712047 0.10932
H_ H_ 0.865816 0.696959 0.061132 0.10932
C_ C_ 0.568883 0.856055 0.256942 -0.02249
C_ C_ 0.817061 0.84712 0.249136 -0.02249
C_ C_ 0.514388 0.968322 0.257949 -0.02249
C_ C_ 0.769862 0.963147 0.246897 -0.02249
C_ C_ 0.540311 0.91014 0.219926 -0.11473
C_ C_ 0.792922 0.903271 0.207619 -0.11473
C_ C_ 0.561749 0.875422 0.294389 -0.11473
C_ C_ 0.810255 0.868683 0.28531 -0.11473
C_ C_ 0.558132 0.874351 0.220517 -0.11473
C_ C_ 0.807469 0.864457 0.210957 -0.11473
C_ C_ 0.533097 0.929649 0.257975 -0.02249
C_ C_ 0.786921 0.923706 0.245632 -0.02249
C_ C_ 0.587116 0.816272 0.256996 0.6875
C_ C_ 0.835037 0.808523 0.253274 0.6875
C_ C_ 0.544286 0.911321 0.29469 -0.11473
C_ C_ 0.798487 0.90711 0.282777 -0.11473
C_ C_ 0.683417 0.851717 0.254847 -0.02249
C_ C_ 0.930078 0.853827 0.254879 -0.02249
C_ C_ 0.737393 0.962865 0.250314 -0.02249
C_ C_ 0.984097 0.965829 0.24839 -0.02249
C_ C_ 0.718118 0.900301 0.28987 -0.11473
C_ C_ 0.958827 0.909072 0.290521 -0.11473
C_ C_ 0.684298 0.875532 0.218941 -0.11473
C_ C_ 0.938035 0.872557 0.216691 -0.11473
C_ C_ 0.701502 0.863171 0.289913 -0.11473
C_ C_ 0.939106 0.875085 0.291817 -0.11473
C_ C_ 0.720534 0.923547 0.252515 -0.02249
C_ C_ 0.966554 0.926748 0.252096 -0.02249
C_ C_ 0.666439 0.811491 0.25544 0.6875
C_ C_ 0.912223 0.814138 0.255321 0.6875
C_ C_ 0.704668 0.910303 0.215952 -0.11473
C_ C_ 0.953572 0.909596 0.215082 -0.11473
C_ C_ 0.686132 0.660319 0.253155 -0.02249
C_ C_ 0.932567 0.657939 0.251124 -0.02249
C_ C_ 0.731514 0.542595 0.245518 -0.02249
C_ C_ 0.982795 0.542604 0.248941 -0.02249
C_ C_ 0.70949 0.599258 0.287477 -0.11473
C_ C_ 0.957194 0.59954 0.289378 -0.11473
C_ C_ 0.695788 0.644659 0.213659 -0.11473
C_ C_ 0.94044 0.638667 0.213213 -0.11473
C_ C_ 0.695643 0.63743 0.290172 -0.11473
C_ C_ 0.943613 0.639235 0.289354 -0.11473
C_ C_ 0.715928 0.583028 0.249047 -0.02249
C_ C_ 0.964572 0.581206 0.250364 -0.02249
C_ C_ 0.666964 0.697369 0.255943 0.6875
C_ C_ 0.916235 0.698368 0.249171 0.6875
C_ C_ 0.709286 0.605868 0.212142 -0.11473
C_ C_ 0.960224 0.604548 0.213278 -0.11473
C_ C_ 0.571642 0.65215 0.256992 -0.02249
C_ C_ 0.817065 0.652491 0.256053 -0.02249
C_ C_ 0.516738 0.537603 0.259329 -0.02249
C_ C_ 0.76345 0.541582 0.253762 -0.02249
C_ C_ 0.549427 0.590523 0.222095 -0.11473
C_ C_ 0.784281 0.602888 0.219415 -0.11473
C_ C_ 0.559277 0.637003 0.294437 -0.11473
C_ C_ 0.811561 0.629895 0.294736 -0.11473
C_ C_ 0.566291 0.629175 0.219649 -0.11473
C_ C_ 0.805791 0.634737 0.219639 -0.11473
C_ C_ 0.535714 0.577349 0.259012 -0.02249
C_ C_ 0.778863 0.581928 0.256405 -0.02249
C_ C_ 0.590346 0.691523 0.255668 0.6875
C_ C_ 0.838709 0.68627 0.253692 0.6875
C_ C_ 0.542527 0.598648 0.295907 -0.11473
C_ C_ 0.794446 0.593961 0.293887 -0.11473
C_ C_ 0.6329 0.712357 0.373629 0.17695
C_ C_ 0.848908 0.755929 0.377967 0.17695
C_ C_ 0.625338 0.783392 0.38459 0.17695
C_ C_ 0.90185 0.749227 0.37219 0.17695
C_ C_ 0.624912 0.778384 0.428617 -0.11473
C_ C_ 0.905233 0.75074 0.415851 -0.11473
C_ C_ 0.629103 0.738103 0.444826 0.23465
C_ C_ 0.879704 0.756115 0.441914 0.23465
C_ C_ 0.634973 0.706385 0.417009 -0.11473
C_ C_ 0.851217 0.761937 0.422439 -0.11473
C_ C_ 0.601446 0.740149 0.127444 0.17695
C_ C_ 0.864451 0.718559 0.121691 0.17695
C_ C_ 0.652507 0.75945 0.124886 0.17695
C_ C_ 0.874516 0.790495 0.131143 0.17695
C_ C_ 0.651965 0.753365 0.0804023 -0.11473
C_ C_ 0.87462 0.79688 0.0879255 -0.11473
C_ C_ 0.623759 0.745853 0.0604192 0.23465
C_ C_ 0.871396 0.762017 0.061334 0.23465
C_ C_ 0.59863 0.738427 0.0849766 -0.11473
C_ C_ 0.86653 0.722848 0.0802248 -0.11473
C_ C_ 0.529257 1.00799299 0.259364 0.05793
C_ C_ 0.785295 1.00177885 0.2458 0.05793
C_ C_ 0.716155 0.504577 0.238797 0.05793
C_ C_ 0.96749 0.505124 0.251992 0.05793
Br Br 0.571543 1.012835 0.275129 -0.17191
Br Br 0.827508 1.00135152 0.244697 -0.17191
Br Br 0.673975 0.504598 0.222571 -0.17191
Br Br 0.924578 0.503891 0.25499 -0.17191
N_ N_ 0.629984 0.751429 0.358376 -0.272
N_ N_ 0.873718 0.752681 0.353706 -0.272
N_ N_ 0.632959 0.730409 0.488715 -0.12501
N_ N_ 0.884002 0.757721 0.487834 -0.12501
N_ N_ 0.627053 0.75178 0.146559 -0.272
N_ N_ 0.871431 0.751423 0.147816 -0.272
N_ N_ 0.61832 0.748339 0.0160293 -0.12501
N_ N_ 0.875553 0.766489 0.01577 -0.12501
O_ O_ 0.593103 0.800369 0.220143 -0.60745
O_ O_ 0.843426 0.791761 0.220112 -0.60745
O_ O_ 0.599074 0.801957 0.291022 -0.60745
O_ O_ 0.841142 0.793225 0.289031 -0.60745
O_ O_ 0.661098 0.796394 0.290848 -0.60745
O_ O_ 0.904977 0.796639 0.288965 -0.60745
O_ O_ 0.65682 0.795578 0.220828 -0.60745
O_ O_ 0.903785 0.798487 0.221062 -0.60745
O_ O_ 0.661965 0.714326 0.290922 -0.60745
O_ O_ 0.904018 0.710984 0.281602 -0.60745
O_ O_ 0.653081 0.709111 0.222377 -0.60745
O_ O_ 0.911536 0.716101 0.214275 -0.60745
O_ O_ 0.592705 0.71024 0.221562 -0.60745
O_ O_ 0.84858 0.700043 0.218329 -0.60745
O_ O_ 0.596949 0.710117 0.288655 -0.60745
O_ O_ 0.839961 0.711611 0.284557 -0.60745
Zn Zn 0.620024 0.742347 0.787623 0.9476
Zn Zn 0.877076 0.747861 0.788289 0.9476
Zn Zn 0.625748 0.743364 0.718039 0.9476
Zn Zn 0.873836 0.746411 0.718081 0.9476
H_ H_ 0.537712 0.909164 0.680851 0.10932
H_ H_ 0.784587 0.916738 0.699192 0.10932
H_ H_ 0.582562 0.862077 0.815364 0.10932
H_ H_ 0.825222 0.851368 0.827701 0.10932
H_ H_ 0.566736 0.844042 0.685792 0.10932
H_ H_ 0.809122 0.849835 0.694538 0.10932
H_ H_ 0.553113 0.925727 0.815042 0.10932
H_ H_ 0.794072 0.914526 0.834841 0.10932
H_ H_ 0.71324 0.908582 0.826836 0.10932
H_ H_ 0.956028 0.925878 0.816169 0.10932
H_ H_ 0.701509 0.829492 0.690675 0.10932
H_ H_ 0.945613 0.848927 0.682833 0.10932
H_ H_ 0.682387 0.841254 0.822928 0.10932
H_ H_ 0.923712 0.860763 0.813671 0.10932
H_ H_ 0.728492 0.899094 0.694237 0.10932
H_ H_ 0.97541 0.91137 0.685788 0.10932
H_ H_ 0.712969 0.575849 0.818181 0.10932
H_ H_ 0.947518 0.557493 0.797353 0.10932
H_ H_ 0.689316 0.645945 0.680746 0.10932
H_ H_ 0.958384 0.663637 0.690271 0.10932
H_ H_ 0.682156 0.636753 0.815526 0.10932
H_ H_ 0.923713 0.627317 0.809324 0.10932
H_ H_ 0.716735 0.580681 0.681983 0.10932
H_ H_ 0.983874 0.598474 0.684688 0.10932
H_ H_ 0.52837 0.584181 0.679538 0.10932
H_ H_ 0.775541 0.582978 0.68455 0.10932
H_ H_ 0.562131 0.639199 0.817061 0.10932
H_ H_ 0.812126 0.638755 0.822762 0.10932
H_ H_ 0.558645 0.647174 0.685953 0.10932
H_ H_ 0.810642 0.649433 0.68505 0.10932
H_ H_ 0.535504 0.573144 0.813622 0.10932
H_ H_ 0.786053 0.572009 0.818069 0.10932
H_ H_ 0.630045 0.678456 0.858536 0.10932
H_ H_ 0.868108 0.679319 0.85961 0.10932
H_ H_ 0.62696 0.807932 0.86061 0.10932
H_ H_ 0.885151 0.807318 0.863614 0.10932
H_ H_ 0.632084 0.809777 0.93916 0.10932
H_ H_ 0.878141 0.807546 0.941585 0.10932
H_ H_ 0.629581 0.677357 0.939126 0.10932
H_ H_ 0.859221 0.679112 0.93547 0.10932
H_ H_ 0.621671 0.683099 0.643561 0.10932
H_ H_ 0.882319 0.811034 0.636728 0.10932
H_ H_ 0.62551 0.813442 0.64481 0.10932
H_ H_ 0.85714 0.682371 0.644557 0.10932
H_ H_ 0.627144 0.816566 0.568067 0.10932
H_ H_ 0.859424 0.680227 0.564832 0.10932
H_ H_ 0.628948 0.682194 0.561982 0.10932
H_ H_ 0.877551 0.808042 0.559257 0.10932
C_ C_ 0.572357 0.84752 0.751998 -0.02249
C_ C_ 0.816523 0.842721 0.761503 -0.02249
C_ C_ 0.519469 0.957984 0.747726 -0.02249
C_ C_ 0.766243 0.954651 0.769174 -0.02249
C_ C_ 0.544374 0.896987 0.713081 -0.11473
C_ C_ 0.789805 0.899298 0.728284 -0.11473
C_ C_ 0.568773 0.870138 0.788333 -0.11473
C_ C_ 0.81346 0.863532 0.800361 -0.11473
C_ C_ 0.560808 0.861902 0.714301 -0.11473
C_ C_ 0.805192 0.862995 0.725246 -0.11473
C_ C_ 0.53844 0.920395 0.750808 -0.02249
C_ C_ 0.784405 0.918402 0.767762 -0.02249
C_ C_ 0.59015 0.808951 0.754549 0.6875
C_ C_ 0.835987 0.804395 0.760287 0.6875
C_ C_ 0.551472 0.906128 0.788036 -0.11473
C_ C_ 0.795743 0.898493 0.80486 -0.11473
C_ C_ 0.685386 0.834763 0.75442 -0.02249
C_ C_ 0.934374 0.845296 0.750259 -0.02249
C_ C_ 0.734883 0.952439 0.761002 -0.02249
C_ C_ 0.986903 0.961897 0.753968 -0.02249
C_ C_ 0.706701 0.893046 0.79691 -0.11473
C_ C_ 0.954556 0.906406 0.788224 -0.11473
C_ C_ 0.701385 0.848522 0.719834 -0.11473
C_ C_ 0.949929 0.861292 0.714395 -0.11473
C_ C_ 0.690884 0.855334 0.7938 -0.11473
C_ C_ 0.936183 0.870237 0.786676 -0.11473
C_ C_ 0.719432 0.910299 0.760894 -0.02249
C_ C_ 0.968119 0.922257 0.752263 -0.02249
C_ C_ 0.665148 0.798175 0.753063 0.6875
C_ C_ 0.916097 0.805707 0.748191 0.6875
C_ C_ 0.717967 0.886047 0.723322 -0.11473
C_ C_ 0.963603 0.900558 0.714493 -0.11473
C_ C_ 0.679867 0.643288 0.748182 -0.02249
C_ C_ 0.936911 0.647955 0.746885 -0.02249
C_ C_ 0.733177 0.531591 0.746553 -0.02249
C_ C_ 0.986552 0.53113 0.73885 -0.02249
C_ C_ 0.707308 0.58941 0.786907 -0.11473
C_ C_ 0.951133 0.582164 0.776364 -0.11473
C_ C_ 0.693305 0.628663 0.711584 -0.11473
C_ C_ 0.955497 0.63955 0.713376 -0.11473
C_ C_ 0.686757 0.621476 0.786079 -0.11473
C_ C_ 0.935513 0.61955 0.781066 -0.11473
C_ C_ 0.716348 0.571664 0.749716 -0.02249
C_ C_ 0.970125 0.573191 0.742237 -0.02249
C_ C_ 0.661842 0.681711 0.748623 0.6875
C_ C_ 0.914543 0.68388 0.746846 0.6875
C_ C_ 0.708906 0.592305 0.711697 -0.11473
C_ C_ 0.971908 0.603677 0.710549 -0.11473
C_ C_ 0.561657 0.649606 0.751661 -0.02249
C_ C_ 0.811953 0.652525 0.754313 -0.02249
C_ C_ 0.512454 0.534327 0.745152 -0.02249
C_ C_ 0.765522 0.532635 0.747098 -0.02249
C_ C_ 0.535582 0.597339 0.709986 -0.11473
C_ C_ 0.786797 0.596456 0.713822 -0.11473
C_ C_ 0.554149 0.627763 0.787836 -0.11473
C_ C_ 0.804784 0.628767 0.791692 -0.11473
C_ C_ 0.550479 0.63458 0.71375 -0.11473
C_ C_ 0.804512 0.632452 0.71482 -0.11473
C_ C_ 0.527128 0.57639 0.746424 -0.02249
C_ C_ 0.780793 0.573657 0.750789 -0.02249
C_ C_ 0.57853 0.688321 0.755405 0.6875
C_ C_ 0.833915 0.688203 0.755155 0.6875
C_ C_ 0.538152 0.591169 0.78495 -0.11473
C_ C_ 0.788567 0.590336 0.790135 -0.11473
C_ C_ 0.629423 0.706687 0.877467 0.17695
C_ C_ 0.87169 0.706841 0.877667 0.17695
C_ C_ 0.630516 0.778924 0.8777 0.17695
C_ C_ 0.885603 0.778892 0.882486 0.17695
C_ C_ 0.63233 0.77965 0.922305 -0.11473
C_ C_ 0.879332 0.778764 0.925423 -0.11473
C_ C_ 0.631442 0.742133 0.94511 0.23465
C_ C_ 0.872181 0.741527 0.945535 0.23465
C_ C_ 0.630838 0.704901 0.922518 -0.11473
C_ C_ 0.869861 0.705402 0.921162 -0.11473
C_ C_ 0.624579 0.711729 0.625051 0.17695
C_ C_ 0.873717 0.782631 0.622278 0.17695
C_ C_ 0.628625 0.783758 0.627314 0.17695
C_ C_ 0.862177 0.709413 0.625225 0.17695
C_ C_ 0.625792 0.78538 0.58228 -0.11473
C_ C_ 0.86324 0.707815 0.581668 -0.11473
C_ C_ 0.627505 0.749064 0.558653 0.23465
C_ C_ 0.869735 0.742905 0.556051 0.23465
C_ C_ 0.626546 0.710808 0.579928 -0.11473
C_ C_ 0.870961 0.781427 0.576552 -0.11473
C_ C_ 0.533535 -0.0024279999999999857 0.746755 0.05793
C_ C_ 0.780902 -0.006821999999999995 0.765721 0.05793
C_ C_ 0.719336 0.492161 0.751647 0.05793
C_ C_ 0.970779 0.493292 0.739519 0.05793
Br Br 0.576828 0.001980000000000093 0.753597 -0.17191
Br Br 0.824891 0.997873 0.760693 -0.17191
Br Br 0.675263 0.489549 0.752197 -0.17191
Br Br 0.929841 0.495081 0.718273 -0.17191
N_ N_ 0.628835 0.743861 0.856333 -0.272
N_ N_ 0.881153 0.744036 0.859631 -0.272
N_ N_ 0.63795 0.740201 0.990661 -0.12501
N_ N_ 0.866092 0.740187 0.989949 -0.12501
N_ N_ 0.627613 0.746629 0.647419 -0.272
N_ N_ 0.870962 0.745837 0.6441 -0.272
N_ N_ 0.61888 0.751438 0.51572 -0.12501
N_ N_ 0.866098 0.740165 0.512007 -0.12501
O_ O_ 0.603211 0.79638 0.722359 -0.60745
O_ O_ 0.842375 0.788052 0.725598 -0.60745
O_ O_ 0.591968 0.788108 0.788268 -0.60745
O_ O_ 0.848997 0.792652 0.794704 -0.60745
O_ O_ 0.650576 0.788294 0.78493 -0.60745
O_ O_ 0.910758 0.788594 0.78334 -0.60745
O_ O_ 0.660793 0.778302 0.719288 -0.60745
O_ O_ 0.901413 0.794653 0.716455 -0.60745
O_ O_ 0.654831 0.697887 0.783253 -0.60745
O_ O_ 0.905776 0.698256 0.782402 -0.60745
O_ O_ 0.651519 0.695207 0.714589 -0.60745
O_ O_ 0.908261 0.702519 0.712924 -0.60745
O_ O_ 0.588154 0.705177 0.722385 -0.60745
O_ O_ 0.843844 0.700792 0.718803 -0.60745
O_ O_ 0.588928 0.698558 0.791033 -0.60745
O_ O_ 0.843555 0.705415 0.789574 -0.60745
