_cell_length_a 44.444
_cell_length_b 32.3360000049186
_cell_length_c 31.843999878906452
_cell_angle_alpha 89.99799923859553
_cell_angle_beta 91.13600050494348
_cell_angle_gamma 89.9990006550086
_symmetry_space_group_name_H-M         'P 1'
_symmetry_Int_Tables_number            1
loop_
_symmetry_equiv_pos_as_xyz
   'x, y, z'
                         
loop_
_atom_site_label
_atom_site_type_symbol
_atom_site_fract_x 
_atom_site_fract_y
_atom_site_fract_z
_atom_site_charge
Zn Zn 0.126519 0.254683 0.278412 0.9476
Zn Zn 0.376172 0.246514 0.284797 0.9476
Zn Zn 0.128374 0.252624 0.210679 0.9476
Zn Zn 0.373977 0.247957 0.215451 0.9476
H_ H_ 0.0287445 0.415792 0.181723 0.10932
H_ H_ 0.2905 0.422584 0.187499 0.10932
H_ H_ 0.0709666 0.361427 0.316594 0.10932
H_ H_ 0.312083 0.352274 0.323262 0.10932
H_ H_ 0.0600415 0.353957 0.181985 0.10932
H_ H_ 0.31771 0.360356 0.187121 0.10932
H_ H_ 0.0407097 0.428233 0.315764 0.10932
H_ H_ 0.284214 0.419538 0.323365 0.10932
H_ H_ 0.22288 0.407565 0.324982 0.10932
H_ H_ 0.472845 0.404063 0.328618 0.10932
H_ H_ 0.167788 0.373032 0.194663 0.10932
H_ H_ 0.409974 0.371518 0.200729 0.10932
H_ H_ 0.195237 0.34151 0.320821 0.10932
H_ H_ 0.443456 0.339134 0.325698 0.10932
H_ H_ 0.198314 0.434848 0.196072 0.10932
H_ H_ 0.444451 0.432614 0.200924 0.10932
H_ H_ 0.208279 0.0797026 0.315848 0.10932
H_ H_ 0.465367 0.0776081 0.318383 0.10932
H_ H_ 0.186807 0.147247 0.177503 0.10932
H_ H_ 0.428864 0.130601 0.185965 0.10932
H_ H_ 0.180236 0.144798 0.313131 0.10932
H_ H_ 0.434236 0.141416 0.319043 0.10932
H_ H_ 0.214505 0.0826193 0.17792 0.10932
H_ H_ 0.466265 0.0755759 0.185698 0.10932
H_ H_ 0.0465872 0.0703134 0.185446 0.10932
H_ H_ 0.285986 0.0831012 0.18359 0.10932
H_ H_ 0.0563295 0.157684 0.310349 0.10932
H_ H_ 0.295293 0.160963 0.315607 0.10932
H_ H_ 0.0719339 0.137136 0.178295 0.10932
H_ H_ 0.317675 0.147157 0.184368 0.10932
H_ H_ 0.0333127 0.0913204 0.315493 0.10932
H_ H_ 0.269083 0.0929981 0.312719 0.10932
H_ H_ 0.130766 0.315972 0.3581 0.10932
H_ H_ 0.383077 0.314118 0.364328 0.10932
H_ H_ 0.126929 0.186963 0.343869 0.10932
H_ H_ 0.359445 0.185405 0.361435 0.10932
H_ H_ 0.136298 0.176227 0.425579 0.10932
H_ H_ 0.356766 0.183725 0.43509 0.10932
H_ H_ 0.130227 0.310242 0.435437 0.10932
H_ H_ 0.378287 0.312727 0.442084 0.10932
H_ H_ 0.120645 0.312525 0.127864 0.10932
H_ H_ 0.385387 0.308957 0.139438 0.10932
H_ H_ 0.139115 0.186526 0.140913 0.10932
H_ H_ 0.362279 0.180984 0.140952 0.10932
H_ H_ 0.150505 0.181108 0.0645379 0.10932
H_ H_ 0.357447 0.178857 0.0619538 0.10932
H_ H_ 0.138809 0.312075 0.0528326 0.10932
H_ H_ 0.381294 0.307901 0.0597477 0.10932
C_ C_ 0.0690342 0.353175 0.249343 -0.02249
C_ C_ 0.319979 0.349961 0.254298 -0.02249
C_ C_ 0.0169784 0.465814 0.246241 -0.02249
C_ C_ 0.266859 0.464168 0.254527 -0.02249
C_ C_ 0.0376664 0.405174 0.212729 -0.11473
C_ C_ 0.295744 0.407796 0.2169 -0.11473
C_ C_ 0.0633065 0.374131 0.287751 -0.11473
C_ C_ 0.308978 0.367804 0.292377 -0.11473
C_ C_ 0.056171 0.368697 0.212281 -0.11473
C_ C_ 0.309632 0.369964 0.217397 -0.11473
C_ C_ 0.0348564 0.428241 0.248633 -0.02249
C_ C_ 0.285305 0.425411 0.254808 -0.02249
C_ C_ 0.0888042 0.31493 0.249192 0.6875
C_ C_ 0.339432 0.312139 0.253664 0.6875
C_ C_ 0.044631 0.410267 0.287404 -0.11473
C_ C_ 0.292583 0.406168 0.293611 -0.11473
C_ C_ 0.18516 0.350389 0.253294 -0.02249
C_ C_ 0.42767 0.348627 0.260675 -0.02249
C_ C_ 0.235754 0.46265 0.259742 -0.02249
C_ C_ 0.480746 0.461598 0.26072 -0.02249
C_ C_ 0.216447 0.397227 0.293403 -0.11473
C_ C_ 0.459129 0.396907 0.300587 -0.11473
C_ C_ 0.184625 0.377756 0.219563 -0.11473
C_ C_ 0.42595 0.377638 0.227435 -0.11473
C_ C_ 0.199233 0.361919 0.291857 -0.11473
C_ C_ 0.442503 0.359863 0.298438 -0.11473
C_ C_ 0.219566 0.422954 0.257685 -0.02249
C_ C_ 0.461545 0.424323 0.26439 -0.02249
C_ C_ 0.166544 0.312441 0.25069 0.6875
C_ C_ 0.412471 0.30799 0.25658 0.6875
C_ C_ 0.201961 0.413869 0.222852 -0.11473
C_ C_ 0.442243 0.414147 0.228591 -0.11473
C_ C_ 0.184221 0.15346 0.244818 -0.02249
C_ C_ 0.43015 0.142143 0.250871 -0.02249
C_ C_ 0.233414 0.0398822 0.247722 -0.02249
C_ C_ 0.486096 0.0341668 0.254411 -0.02249
C_ C_ 0.207356 0.097763 0.285348 -0.11473
C_ C_ 0.459445 0.0925147 0.288777 -0.11473
C_ C_ 0.194011 0.134849 0.206288 -0.11473
C_ C_ 0.4387 0.12184 0.214493 -0.11473
C_ C_ 0.191348 0.135279 0.284663 -0.11473
C_ C_ 0.441136 0.127925 0.289722 -0.11473
C_ C_ 0.217183 0.0798939 0.24596 -0.02249
C_ C_ 0.468704 0.0736754 0.252704 -0.02249
C_ C_ 0.167348 0.194826 0.242468 0.6875
C_ C_ 0.413022 0.18253 0.24924 0.6875
C_ C_ 0.212231 0.100044 0.208056 -0.11473
C_ C_ 0.456621 0.0877487 0.21396 -0.11473
C_ C_ 0.0658989 0.156401 0.243884 -0.02249
C_ C_ 0.310146 0.157908 0.249761 -0.02249
C_ C_ 0.0174888 0.0375401 0.252416 -0.02249
C_ C_ 0.265714 0.0402232 0.248587 -0.02249
C_ C_ 0.0487481 0.0905518 0.211852 -0.11473
C_ C_ 0.289878 0.0995837 0.212011 -0.11473
C_ C_ 0.052506 0.14217 0.282047 -0.11473
C_ C_ 0.297032 0.141531 0.287167 -0.11473
C_ C_ 0.0627207 0.129489 0.209069 -0.11473
C_ C_ 0.306605 0.136372 0.211782 -0.11473
C_ C_ 0.0368684 0.0764979 0.24995 -0.02249
C_ C_ 0.281738 0.0797366 0.249037 -0.02249
C_ C_ 0.0868791 0.194259 0.244397 0.6875
C_ C_ 0.332468 0.193553 0.250229 0.6875
C_ C_ 0.0400232 0.101927 0.285524 -0.11473
C_ C_ 0.284121 0.1019 0.286082 -0.11473
C_ C_ 0.129138 0.285797 0.373346 0.17695
C_ C_ 0.379283 0.283904 0.380541 0.17695
C_ C_ 0.129074 0.211732 0.365006 0.17695
C_ C_ 0.364169 0.214312 0.377523 0.17695
C_ C_ 0.13418 0.206489 0.409548 -0.11473
C_ C_ 0.362613 0.21199 0.421362 -0.11473
C_ C_ 0.132414 0.24165 0.434586 0.23465
C_ C_ 0.369745 0.246661 0.447646 0.23465
C_ C_ 0.127897 0.281305 0.416485 -0.11473
C_ C_ 0.373924 0.284347 0.424513 -0.11473
C_ C_ 0.127391 0.284515 0.113606 0.17695
C_ C_ 0.376648 0.281517 0.122591 0.17695
C_ C_ 0.137229 0.212464 0.120222 0.17695
C_ C_ 0.367709 0.20966 0.123322 0.17695
C_ C_ 0.14198 0.210787 0.0771937 -0.11473
C_ C_ 0.362923 0.208775 0.0787073 -0.11473
C_ C_ 0.13877 0.244861 0.0515426 0.23465
C_ C_ 0.367968 0.245232 0.0556115 0.23465
C_ C_ 0.133503 0.284185 0.071182 -0.11473
C_ C_ 0.375334 0.281801 0.0784841 -0.11473
C_ C_ 0.0315025 0.5055 0.243426 0.05793
C_ C_ 0.282186 0.501616 0.246498 0.05793
C_ C_ 0.216542 0.00174795 0.248291 0.05793
C_ C_ 0.473279 0.993844 0.264363 0.05793
Br Br 0.0731978 0.50723 0.24001 -0.17191
Br Br 0.325992 0.502487 0.252414 -0.17191
Br Br 0.174427 0.00634044 0.246026 -0.17191
Br Br 0.434544 0.988061 0.289767 -0.17191
N_ N_ 0.128628 0.250522 0.349444 -0.272
N_ N_ 0.375399 0.247642 0.357607 -0.272
N_ N_ 0.128701 0.23496 0.47834 -0.12501
N_ N_ 0.36159 0.249691 0.492157 -0.12501
N_ N_ 0.130326 0.249341 0.138635 -0.272
N_ N_ 0.371826 0.245983 0.143691 -0.272
N_ N_ 0.142182 0.238757 0.00658646 -0.12501
N_ N_ 0.362559 0.245336 0.0110575 -0.12501
O_ O_ 0.0971031 0.298301 0.216014 -0.60745
O_ O_ 0.350336 0.299204 0.21954 -0.60745
O_ O_ 0.0982833 0.301494 0.283626 -0.60745
O_ O_ 0.345298 0.292499 0.28655 -0.60745
O_ O_ 0.159494 0.29219 0.281633 -0.60745
O_ O_ 0.406944 0.287603 0.289335 -0.60745
O_ O_ 0.158226 0.299346 0.214704 -0.60745
O_ O_ 0.40756 0.291972 0.220428 -0.60745
O_ O_ 0.154902 0.207282 0.275035 -0.60745
O_ O_ 0.407568 0.202023 0.283111 -0.60745
O_ O_ 0.16088 0.21196 0.207729 -0.60745
O_ O_ 0.403163 0.195984 0.215052 -0.60745
O_ O_ 0.099104 0.205395 0.21063 -0.60745
O_ O_ 0.341396 0.208875 0.216407 -0.60745
O_ O_ 0.0923388 0.214842 0.277221 -0.60745
O_ O_ 0.343668 0.203744 0.28538 -0.60745
Zn Zn 0.126647 0.249601 0.777069 0.9476
Zn Zn 0.375216 0.254482 0.785522 0.9476
Zn Zn 0.12395 0.252803 0.709144 0.9476
Zn Zn 0.372433 0.252878 0.716049 0.9476
H_ H_ 0.0363942 0.425238 0.683148 0.10932
H_ H_ 0.286321 0.424093 0.681037 0.10932
H_ H_ 0.0689198 0.351317 0.812207 0.10932
H_ H_ 0.318518 0.358571 0.816759 0.10932
H_ H_ 0.062966 0.353982 0.677766 0.10932
H_ H_ 0.311037 0.356401 0.682774 0.10932
H_ H_ 0.0378337 0.412715 0.817146 0.10932
H_ H_ 0.293387 0.420374 0.819387 0.10932
H_ H_ 0.211976 0.422123 0.811308 0.10932
H_ H_ 0.47772 0.404005 0.813073 0.10932
H_ H_ 0.193945 0.347884 0.679258 0.10932
H_ H_ 0.414341 0.381364 0.695289 0.10932
H_ H_ 0.185236 0.356363 0.813682 0.10932
H_ H_ 0.454161 0.338916 0.808662 0.10932
H_ H_ 0.218813 0.416918 0.678281 0.10932
H_ H_ 0.452845 0.436303 0.688156 0.10932
H_ H_ 0.217292 0.0844075 0.809578 0.10932
H_ H_ 0.46645 0.082579 0.814623 0.10932
H_ H_ 0.189808 0.151516 0.675903 0.10932
H_ H_ 0.413913 0.139268 0.686941 0.10932
H_ H_ 0.190693 0.150937 0.808686 0.10932
H_ H_ 0.433951 0.147366 0.820479 0.10932
H_ H_ 0.21201 0.0853459 0.672229 0.10932
H_ H_ 0.455871 0.0846198 0.683355 0.10932
H_ H_ 0.0327397 0.0736308 0.679621 0.10932
H_ H_ 0.297226 0.0780141 0.686535 0.10932
H_ H_ 0.0629415 0.145722 0.808625 0.10932
H_ H_ 0.297308 0.170039 0.805393 0.10932
H_ H_ 0.0648032 0.137667 0.672556 0.10932
H_ H_ 0.328971 0.134111 0.688994 0.10932
H_ H_ 0.0362533 0.0789349 0.809635 0.10932
H_ H_ 0.269299 0.103165 0.81358 0.10932
H_ H_ 0.10714 0.19277 0.854344 0.10932
H_ H_ 0.382719 0.316589 0.852328 0.10932
H_ H_ 0.138629 0.313081 0.851858 0.10932
H_ H_ 0.355052 0.193306 0.863246 0.10932
H_ H_ 0.141833 0.316484 0.92722 0.10932
H_ H_ 0.36412 0.195166 0.939106 0.10932
H_ H_ 0.11156 0.195418 0.933498 0.10932
H_ H_ 0.390236 0.320856 0.931238 0.10932
H_ H_ 0.116497 0.1938 0.628451 0.10932
H_ H_ 0.418526 0.262639 0.646182 0.10932
H_ H_ 0.134662 0.318919 0.634038 0.10932
H_ H_ 0.324861 0.252142 0.641875 0.10932
H_ H_ 0.130923 0.327511 0.558206 0.10932
H_ H_ 0.32493 0.26205 0.562098 0.10932
H_ H_ 0.119604 0.196506 0.549643 0.10932
H_ H_ 0.418756 0.260914 0.568363 0.10932
C_ C_ 0.0665061 0.34472 0.744352 -0.02249
C_ C_ 0.318381 0.354038 0.748078 -0.02249
C_ C_ 0.0170393 0.460378 0.75171 -0.02249
C_ C_ 0.267352 0.467079 0.750907 -0.02249
C_ C_ 0.0414072 0.403368 0.71108 -0.11473
C_ C_ 0.292693 0.411114 0.710072 -0.11473
C_ C_ 0.0593959 0.363237 0.78392 -0.11473
C_ C_ 0.310237 0.369947 0.786051 -0.11473
C_ C_ 0.0572518 0.365821 0.707214 -0.11473
C_ C_ 0.307699 0.371662 0.710899 -0.11473
C_ C_ 0.0321644 0.418364 0.750809 -0.02249
C_ C_ 0.287899 0.430844 0.75015 -0.02249
C_ C_ 0.0849301 0.307409 0.741464 0.6875
C_ C_ 0.335039 0.315006 0.74848 0.6875
C_ C_ 0.0411898 0.397563 0.788209 -0.11473
C_ C_ 0.296826 0.409872 0.788232 -0.11473
C_ C_ 0.189148 0.345287 0.745816 -0.02249
C_ C_ 0.435988 0.349682 0.745981 -0.02249
C_ C_ 0.236362 0.464313 0.745501 -0.02249
C_ C_ 0.485141 0.464593 0.754471 -0.02249
C_ C_ 0.2115 0.404705 0.782318 -0.11473
C_ C_ 0.470178 0.395905 0.783855 -0.11473
C_ C_ 0.198718 0.362767 0.708761 -0.11473
C_ C_ 0.433737 0.379781 0.713821 -0.11473
C_ C_ 0.198714 0.364512 0.784557 -0.11473
C_ C_ 0.457375 0.357374 0.77896 -0.11473
C_ C_ 0.220164 0.422663 0.744811 -0.02249
C_ C_ 0.468035 0.423669 0.751709 -0.02249
C_ C_ 0.164524 0.313502 0.745014 0.6875
C_ C_ 0.414537 0.314689 0.746751 0.6875
C_ C_ 0.212065 0.402825 0.708278 -0.11473
C_ C_ 0.45341 0.412987 0.713552 -0.11473
C_ C_ 0.184384 0.155544 0.742227 -0.02249
C_ C_ 0.424924 0.150632 0.75302 -0.02249
C_ C_ 0.23443 0.0408436 0.740334 -0.02249
C_ C_ 0.479001 0.0394167 0.749375 -0.02249
C_ C_ 0.211607 0.0991847 0.779756 -0.11473
C_ C_ 0.452637 0.0939467 0.788035 -0.11473
C_ C_ 0.193428 0.136774 0.704425 -0.11473
C_ C_ 0.426641 0.128771 0.714272 -0.11473
C_ C_ 0.192411 0.135453 0.780468 -0.11473
C_ C_ 0.437404 0.131559 0.788975 -0.11473
C_ C_ 0.218521 0.0795609 0.741836 -0.02249
C_ C_ 0.458406 0.0762191 0.749846 -0.02249
C_ C_ 0.165038 0.190944 0.744184 0.6875
C_ C_ 0.410563 0.191377 0.753367 0.6875
C_ C_ 0.210171 0.099959 0.702917 -0.11473
C_ C_ 0.444296 0.0922133 0.712208 -0.11473
C_ C_ 0.0692188 0.146884 0.739349 -0.02249
C_ C_ 0.317061 0.15617 0.748178 -0.02249
C_ C_ 0.013786 0.0334596 0.74653 -0.02249
C_ C_ 0.264495 0.0427792 0.750134 -0.02249
C_ C_ 0.0366328 0.0956369 0.706638 -0.11473
C_ C_ 0.295508 0.0966647 0.715577 -0.11473
C_ C_ 0.0617956 0.12675 0.778758 -0.11473
C_ C_ 0.297211 0.148659 0.781586 -0.11473
C_ C_ 0.0582295 0.127298 0.703188 -0.11473
C_ C_ 0.316442 0.129294 0.715521 -0.11473
C_ C_ 0.0320973 0.0739065 0.744957 -0.02249
C_ C_ 0.280323 0.0838416 0.750325 -0.02249
C_ C_ 0.0884169 0.18593 0.740261 0.6875
C_ C_ 0.336146 0.194435 0.7478 0.6875
C_ C_ 0.0441919 0.0907834 0.780287 -0.11473
C_ C_ 0.281771 0.111039 0.78627 -0.11473
C_ C_ 0.119132 0.217847 0.870198 0.17695
C_ C_ 0.381324 0.288991 0.872481 0.17695
C_ C_ 0.139402 0.28552 0.868737 0.17695
C_ C_ 0.362924 0.220789 0.878801 0.17695
C_ C_ 0.141334 0.286521 0.913103 -0.11473
C_ C_ 0.369202 0.220778 0.921067 -0.11473
C_ C_ 0.130707 0.254019 0.936417 0.23465
C_ C_ 0.37728 0.258075 0.943052 0.23465
C_ C_ 0.120611 0.218936 0.914107 -0.11473
C_ C_ 0.384993 0.292105 0.917038 -0.11473
C_ C_ 0.117512 0.222662 0.612146 0.17695
C_ C_ 0.398193 0.264485 0.628342 0.17695
C_ C_ 0.131713 0.292959 0.616127 0.17695
C_ C_ 0.345132 0.256482 0.625795 0.17695
C_ C_ 0.128141 0.297309 0.571974 -0.11473
C_ C_ 0.344616 0.265882 0.582894 -0.11473
C_ C_ 0.125561 0.260288 0.547799 0.23465
C_ C_ 0.372928 0.267129 0.562315 0.23465
C_ C_ 0.121949 0.223901 0.568918 -0.11473
C_ C_ 0.39828 0.262952 0.585231 -0.11473
C_ C_ 0.0320135 0.497905 0.745763 0.05793
C_ C_ 0.280461 0.5064 0.754598 0.05793
C_ C_ 0.218215 0.00319912 0.73686 0.05793
C_ C_ 0.466496 0.999158591 0.744412 0.05793
Br Br 0.0772912 0.496567 0.750469 -0.17191
Br Br 0.324597 0.513083 0.7559 -0.17191
Br Br 0.176256 0.00288848 0.720207 -0.17191
Br Br 0.424311 0.992879 0.741756 -0.17191
N_ N_ 0.129007 0.250712 0.847848 -0.272
N_ N_ 0.372049 0.253013 0.854422 -0.272
N_ N_ 0.126213 0.257749 0.980384 -0.12501
N_ N_ 0.380562 0.262213 0.986025 -0.12501
N_ N_ 0.123181 0.257553 0.635844 -0.272
N_ N_ 0.37125 0.25861 0.647477 -0.272
N_ N_ 0.128863 0.263952 0.503483 -0.12501
N_ N_ 0.376446 0.271052 0.517832 -0.12501
O_ O_ 0.0948707 0.297041 0.706878 -0.60745
O_ O_ 0.339394 0.295883 0.713725 -0.60745
O_ O_ 0.0930965 0.288625 0.775392 -0.60745
O_ O_ 0.346841 0.300875 0.78249 -0.60745
O_ O_ 0.156299 0.297196 0.778482 -0.60745
O_ O_ 0.408583 0.297397 0.780587 -0.60745
O_ O_ 0.156079 0.299286 0.709754 -0.60745
O_ O_ 0.403015 0.300903 0.71433 -0.60745
O_ O_ 0.158649 0.206906 0.779021 -0.60745
O_ O_ 0.403794 0.207045 0.787514 -0.60745
O_ O_ 0.154981 0.205774 0.709529 -0.60745
O_ O_ 0.403808 0.209766 0.718699 -0.60745
O_ O_ 0.0919007 0.204914 0.706651 -0.60745
O_ O_ 0.345301 0.207201 0.712628 -0.60745
O_ O_ 0.10045 0.200076 0.775285 -0.60745
O_ O_ 0.343804 0.212573 0.782443 -0.60745
Zn Zn 0.125718 0.753131 0.280579 0.9476
Zn Zn 0.376877 0.749153 0.2875 0.9476
Zn Zn 0.126812 0.750971 0.212392 0.9476
Zn Zn 0.378268 0.751796 0.219495 0.9476
H_ H_ 0.0391489 0.923156 0.181963 0.10932
H_ H_ 0.286499 0.92106 0.188651 0.10932
H_ H_ 0.0516474 0.839943 0.312597 0.10932
H_ H_ 0.303694 0.843629 0.321008 0.10932
H_ H_ 0.073497 0.861865 0.181239 0.10932
H_ H_ 0.322275 0.858655 0.190963 0.10932
H_ H_ 0.0195846 0.903882 0.311037 0.10932
H_ H_ 0.274837 0.907272 0.319673 0.10932
H_ H_ 0.214847 0.918711 0.311423 0.10932
H_ H_ 0.481666 0.89719 0.316878 0.10932
H_ H_ 0.188231 0.855265 0.171754 0.10932
H_ H_ 0.425809 0.870025 0.185768 0.10932
H_ H_ 0.185618 0.851984 0.310312 0.10932
H_ H_ 0.449778 0.838922 0.315193 0.10932
H_ H_ 0.212687 0.922947 0.17485 0.10932
H_ H_ 0.461064 0.928771 0.190759 0.10932
H_ H_ 0.226951 0.594329 0.315626 0.10932
H_ H_ 0.477297 0.590355 0.322469 0.10932
H_ H_ 0.172581 0.636296 0.187437 0.10932
H_ H_ 0.421857 0.635441 0.194931 0.10932
H_ H_ 0.198858 0.661581 0.316942 0.10932
H_ H_ 0.450665 0.656952 0.324374 0.10932
H_ H_ 0.198645 0.572979 0.185881 0.10932
H_ H_ 0.452282 0.570454 0.194504 0.10932
H_ H_ 0.0370671 0.585519 0.175023 0.10932
H_ H_ 0.298258 0.577457 0.18011 0.10932
H_ H_ 0.044799 0.659491 0.311377 0.10932
H_ H_ 0.309864 0.648002 0.321677 0.10932
H_ H_ 0.0634559 0.650802 0.176689 0.10932
H_ H_ 0.333417 0.636249 0.191176 0.10932
H_ H_ 0.0248383 0.593165 0.311213 0.10932
H_ H_ 0.288684 0.578445 0.31592 0.10932
H_ H_ 0.143543 0.816129 0.35083 0.10932
H_ H_ 0.387221 0.677707 0.363113 0.10932
H_ H_ 0.120254 0.690012 0.36371 0.10932
H_ H_ 0.375257 0.808254 0.36805 0.10932
H_ H_ 0.117533 0.69674 0.441929 0.10932
H_ H_ 0.371476 0.807671 0.441018 0.10932
H_ H_ 0.14165 0.827952 0.425388 0.10932
H_ H_ 0.379035 0.676511 0.443632 0.10932
H_ H_ 0.168219 0.759374 0.130954 0.10932
H_ H_ 0.386124 0.68458 0.138665 0.10932
H_ H_ 0.073782 0.736163 0.141841 0.10932
H_ H_ 0.379602 0.812242 0.150045 0.10932
H_ H_ 0.0675282 0.739908 0.0687467 0.10932
H_ H_ 0.374858 0.822427 0.0728017 0.10932
H_ H_ 0.164535 0.763697 0.054976 0.10932
H_ H_ 0.37559 0.687719 0.059484 0.10932
C_ C_ 0.0657426 0.846227 0.246572 -0.02249
C_ C_ 0.318653 0.850214 0.256298 -0.02249
C_ C_ 0.014646 0.96068 0.248059 -0.02249
C_ C_ 0.264899 0.96317 0.251508 -0.02249
C_ C_ 0.0415771 0.905327 0.210095 -0.11473
C_ C_ 0.29285 0.906202 0.218311 -0.11473
C_ C_ 0.051771 0.860273 0.285266 -0.11473
C_ C_ 0.303242 0.861395 0.292233 -0.11473
C_ C_ 0.0613479 0.869953 0.209912 -0.11473
C_ C_ 0.31363 0.87315 0.219241 -0.11473
C_ C_ 0.029858 0.919147 0.247595 -0.02249
C_ C_ 0.281901 0.923267 0.254838 -0.02249
C_ C_ 0.0855433 0.808952 0.24557 0.6875
C_ C_ 0.3371 0.811986 0.256765 0.6875
C_ C_ 0.034643 0.895449 0.284242 -0.11473
C_ C_ 0.286579 0.898499 0.291403 -0.11473
C_ C_ 0.185739 0.846929 0.241905 -0.02249
C_ C_ 0.43607 0.846639 0.24942 -0.02249
C_ C_ 0.232098 0.964014 0.2458 -0.02249
C_ C_ 0.490106 0.957068 0.256716 -0.02249
C_ C_ 0.208804 0.905391 0.281758 -0.11473
C_ C_ 0.469261 0.893511 0.28973 -0.11473
C_ C_ 0.192995 0.868221 0.20328 -0.11473
C_ C_ 0.438078 0.874498 0.215721 -0.11473
C_ C_ 0.193566 0.866753 0.280309 -0.11473
C_ C_ 0.452042 0.856526 0.286673 -0.11473
C_ C_ 0.214454 0.92572 0.244269 -0.02249
C_ C_ 0.472325 0.918487 0.254628 -0.02249
C_ C_ 0.163992 0.812016 0.238768 0.6875
C_ C_ 0.415742 0.810849 0.248043 0.6875
C_ C_ 0.207678 0.907449 0.205159 -0.11473
C_ C_ 0.457508 0.907968 0.217278 -0.11473
C_ C_ 0.182623 0.65354 0.25313 -0.02249
C_ C_ 0.436436 0.654226 0.257545 -0.02249
C_ C_ 0.234444 0.539164 0.252433 -0.02249
C_ C_ 0.483891 0.536656 0.254365 -0.02249
C_ C_ 0.21631 0.604309 0.28718 -0.11473
C_ C_ 0.465641 0.600867 0.295222 -0.11473
C_ C_ 0.183915 0.629951 0.216396 -0.11473
C_ C_ 0.438258 0.628731 0.22036 -0.11473
C_ C_ 0.199321 0.641468 0.289226 -0.11473
C_ C_ 0.449312 0.638433 0.295905 -0.11473
C_ C_ 0.21576 0.579132 0.250387 -0.02249
C_ C_ 0.469599 0.578641 0.256439 -0.02249
C_ C_ 0.166516 0.692985 0.25103 0.6875
C_ C_ 0.419721 0.692872 0.257119 0.6875
C_ C_ 0.199748 0.59276 0.213776 -0.11473
C_ C_ 0.455209 0.590844 0.219658 -0.11473
C_ C_ 0.0623572 0.657018 0.246749 -0.02249
C_ C_ 0.324518 0.647642 0.25596 -0.02249
C_ C_ 0.0137035 0.541531 0.237265 -0.02249
C_ C_ 0.26618 0.539577 0.246382 -0.02249
C_ C_ 0.0405626 0.600815 0.206076 -0.11473
C_ C_ 0.300231 0.593529 0.211867 -0.11473
C_ C_ 0.0477856 0.641418 0.282567 -0.11473
C_ C_ 0.30769 0.634032 0.290534 -0.11473
C_ C_ 0.0574515 0.63814 0.206462 -0.11473
C_ C_ 0.320348 0.627008 0.216069 -0.11473
C_ C_ 0.0284061 0.583243 0.241023 -0.02249
C_ C_ 0.283743 0.579733 0.246994 -0.02249
C_ C_ 0.0837079 0.69238 0.248799 0.6875
C_ C_ 0.341552 0.688111 0.259538 0.6875
C_ C_ 0.0330182 0.604233 0.280713 -0.11473
C_ C_ 0.2933 0.595491 0.287485 -0.11473
C_ C_ 0.13702 0.789767 0.371526 0.17695
C_ C_ 0.381569 0.705867 0.381471 0.17695
C_ C_ 0.12457 0.718646 0.379717 0.17695
C_ C_ 0.378942 0.778707 0.38296 0.17695
C_ C_ 0.123313 0.724329 0.422664 -0.11473
C_ C_ 0.374874 0.779691 0.426034 -0.11473
C_ C_ 0.129909 0.764095 0.440229 0.23465
C_ C_ 0.37607 0.741627 0.44827 0.23465
C_ C_ 0.135451 0.797293 0.413668 -0.11473
C_ C_ 0.375069 0.704808 0.425305 -0.11473
C_ C_ 0.14642 0.75428 0.11698 0.17695
C_ C_ 0.378189 0.713653 0.124925 0.17695
C_ C_ 0.0939001 0.739476 0.122953 0.17695
C_ C_ 0.377227 0.785306 0.129561 0.17695
C_ C_ 0.0905145 0.740816 0.0794654 -0.11473
C_ C_ 0.379544 0.790909 0.0875604 -0.11473
C_ C_ 0.114422 0.751044 0.0534072 0.23465
C_ C_ 0.38048 0.755978 0.0598348 0.23465
C_ C_ 0.143405 0.754061 0.0725811 -0.11473
C_ C_ 0.378285 0.716122 0.0800828 -0.11473
C_ C_ 0.032054 0.997649 0.254476 0.05793
C_ C_ 0.28158 1.000708543 0.249369 0.05793
C_ C_ 0.219073 0.500908 0.263859 0.05793
C_ C_ 0.466664 0.499395 0.256489 0.05793
Br Br 0.0753132 -0.010750999999999955 0.270998 -0.17191
Br Br 0.32545 1.00129868 0.255202 -0.17191
Br Br 0.176436 0.500588 0.275602 -0.17191
Br Br 0.423583 0.507285 0.267426 -0.17191
N_ N_ 0.129798 0.752582 0.354094 -0.272
N_ N_ 0.381334 0.743378 0.360796 -0.272
N_ N_ 0.130137 0.76991 0.484946 -0.12501
N_ N_ 0.369787 0.741271 0.492263 -0.12501
N_ N_ 0.121407 0.745913 0.141037 -0.272
N_ N_ 0.378353 0.747482 0.148492 -0.272
N_ N_ 0.110748 0.752758 0.00993475 -0.12501
N_ N_ 0.378662 0.763115 0.0154671 -0.12501
O_ O_ 0.0999067 0.79879 0.214749 -0.60745
O_ O_ 0.346266 0.799254 0.222866 -0.60745
O_ O_ 0.091042 0.793059 0.281302 -0.60745
O_ O_ 0.344117 0.793214 0.290713 -0.60745
O_ O_ 0.151093 0.800315 0.273097 -0.60745
O_ O_ 0.405508 0.796411 0.282459 -0.60745
O_ O_ 0.159098 0.791012 0.20614 -0.60745
O_ O_ 0.407863 0.794936 0.213702 -0.60745
O_ O_ 0.161963 0.714212 0.283456 -0.60745
O_ O_ 0.411534 0.710211 0.290489 -0.60745
O_ O_ 0.154507 0.703774 0.21635 -0.60745
O_ O_ 0.408662 0.706204 0.22253 -0.60745
O_ O_ 0.0913661 0.710779 0.215257 -0.60745
O_ O_ 0.348217 0.707391 0.226111 -0.60745
O_ O_ 0.0975584 0.703328 0.283404 -0.60745
O_ O_ 0.349545 0.700958 0.296101 -0.60745
Zn Zn 0.122806 0.751786 0.78457 0.9476
Zn Zn 0.373197 0.753844 0.787219 0.9476
Zn Zn 0.123693 0.753812 0.713795 0.9476
Zn Zn 0.372512 0.754898 0.714685 0.9476
H_ H_ 0.0450879 0.933148 0.684375 0.10932
H_ H_ 0.28877 0.923371 0.688066 0.10932
H_ H_ 0.0415371 0.835987 0.800723 0.10932
H_ H_ 0.304799 0.857232 0.825158 0.10932
H_ H_ 0.0805848 0.870375 0.684356 0.10932
H_ H_ 0.304931 0.851794 0.690831 0.10932
H_ H_ 0.011505 0.901409 0.801158 0.10932
H_ H_ 0.282472 0.924513 0.823217 0.10932
H_ H_ 0.204347 0.933549 0.811853 0.10932
H_ H_ 0.460229 0.924781 0.814557 0.10932
H_ H_ 0.183497 0.855212 0.682541 0.10932
H_ H_ 0.442014 0.845484 0.679462 0.10932
H_ H_ 0.177814 0.870828 0.818977 0.10932
H_ H_ 0.438233 0.853933 0.81748 0.10932
H_ H_ 0.211691 0.918673 0.677445 0.10932
H_ H_ 0.476883 0.91366 0.680689 0.10932
H_ H_ 0.199161 0.576255 0.81346 0.10932
H_ H_ 0.48083 0.602599 0.819331 0.10932
H_ H_ 0.188821 0.651934 0.684239 0.10932
H_ H_ 0.414375 0.626532 0.693093 0.10932
H_ H_ 0.172881 0.638435 0.816256 0.10932
H_ H_ 0.447414 0.663181 0.817683 0.10932
H_ H_ 0.217101 0.587438 0.686043 0.10932
H_ H_ 0.450559 0.569462 0.695901 0.10932
H_ H_ 0.0328502 0.581089 0.674653 0.10932
H_ H_ 0.288227 0.581098 0.68322 0.10932
H_ H_ 0.0642633 0.645443 0.809264 0.10932
H_ H_ 0.295152 0.670827 0.808438 0.10932
H_ H_ 0.0682232 0.640623 0.675275 0.10932
H_ H_ 0.317919 0.647138 0.681621 0.10932
H_ H_ 0.0417358 0.579438 0.812533 0.10932
H_ H_ 0.270962 0.600711 0.813743 0.10932
H_ H_ 0.113805 0.811975 0.860081 0.10932
H_ H_ 0.375221 0.818713 0.869981 0.10932
H_ H_ 0.136491 0.686732 0.856164 0.10932
H_ H_ 0.379784 0.688964 0.854959 0.10932
H_ H_ 0.137724 0.681365 0.931439 0.10932
H_ H_ 0.387483 0.678589 0.92983 0.10932
H_ H_ 0.11384 0.807488 0.939197 0.10932
H_ H_ 0.37981 0.808758 0.94552 0.10932
H_ H_ 0.130785 0.689025 0.6426 0.10932
H_ H_ 0.364731 0.827186 0.645527 0.10932
H_ H_ 0.129147 0.817848 0.63808 0.10932
H_ H_ 0.380448 0.697044 0.641256 0.10932
H_ H_ 0.124739 0.813161 0.558169 0.10932
H_ H_ 0.376121 0.701256 0.562364 0.10932
H_ H_ 0.126937 0.682951 0.565326 0.10932
H_ H_ 0.365885 0.831073 0.567763 0.10932
C_ C_ 0.0591675 0.844144 0.738501 -0.02249
C_ C_ 0.312579 0.851017 0.756181 -0.02249
C_ C_ 0.01141 0.960147 0.740721 -0.02249
C_ C_ 0.264191 0.967291 0.752367 -0.02249
C_ C_ 0.0467351 0.910622 0.708666 -0.11473
C_ C_ 0.289126 0.90592 0.718019 -0.11473
C_ C_ 0.0430595 0.856105 0.773939 -0.11473
C_ C_ 0.305789 0.873841 0.79433 -0.11473
C_ C_ 0.0617809 0.872757 0.706494 -0.11473
C_ C_ 0.301895 0.867131 0.718002 -0.11473
C_ C_ 0.0252636 0.91784 0.739534 -0.02249
C_ C_ 0.279755 0.92655 0.753779 -0.02249
C_ C_ 0.0813637 0.807546 0.742786 0.6875
C_ C_ 0.33337 0.816306 0.755878 0.6875
C_ C_ 0.0255661 0.891879 0.773759 -0.11473
C_ C_ 0.288629 0.910578 0.792523 -0.11473
C_ C_ 0.182114 0.852911 0.75214 -0.02249
C_ C_ 0.436829 0.846823 0.747903 -0.02249
C_ C_ 0.233319 0.966017 0.744226 -0.02249
C_ C_ 0.485495 0.96341 0.745668 -0.02249
C_ C_ 0.204085 0.914769 0.784675 -0.11473
C_ C_ 0.459912 0.90655 0.786417 -0.11473
C_ C_ 0.191971 0.86923 0.712572 -0.11473
C_ C_ 0.448765 0.861938 0.709376 -0.11473
C_ C_ 0.189378 0.875505 0.788654 -0.11473
C_ C_ 0.443709 0.867586 0.786561 -0.11473
C_ C_ 0.215671 0.929074 0.746771 -0.02249
C_ C_ 0.471038 0.922921 0.747561 -0.02249
C_ C_ 0.163614 0.813885 0.752927 0.6875
C_ C_ 0.413661 0.81256 0.74946 0.6875
C_ C_ 0.20846 0.906536 0.70913 -0.11473
C_ C_ 0.46538 0.901127 0.709253 -0.11473
C_ C_ 0.177886 0.651055 0.749553 -0.02249
C_ C_ 0.428671 0.651189 0.752717 -0.02249
C_ C_ 0.23056 0.538125 0.748948 -0.02249
C_ C_ 0.484842 0.541115 0.758466 -0.02249
C_ C_ 0.1949 0.590831 0.784227 -0.11473
C_ C_ 0.468949 0.609183 0.789095 -0.11473
C_ C_ 0.187569 0.633621 0.712476 -0.11473
C_ C_ 0.431326 0.625135 0.717846 -0.11473
C_ C_ 0.178407 0.62779 0.785316 -0.11473
C_ C_ 0.448363 0.643662 0.787795 -0.11473
C_ C_ 0.209321 0.576248 0.748542 -0.02249
C_ C_ 0.469054 0.580863 0.755004 -0.02249
C_ C_ 0.161987 0.692033 0.748862 0.6875
C_ C_ 0.41085 0.691987 0.749129 0.6875
C_ C_ 0.207216 0.600073 0.71342 -0.11473
C_ C_ 0.449801 0.58945 0.721672 -0.11473
C_ C_ 0.0672882 0.649702 0.741852 -0.02249
C_ C_ 0.310309 0.66238 0.747756 -0.02249
C_ C_ 0.0161191 0.535733 0.742178 -0.02249
C_ C_ 0.262412 0.544067 0.752918 -0.02249
C_ C_ 0.0419412 0.592092 0.704028 -0.11473
C_ C_ 0.291928 0.598194 0.712084 -0.11473
C_ C_ 0.0608236 0.629882 0.78011 -0.11473
C_ C_ 0.294965 0.648226 0.783158 -0.11473
C_ C_ 0.0617291 0.628086 0.70444 -0.11473
C_ C_ 0.30806 0.635232 0.711549 -0.11473
C_ C_ 0.0332662 0.575723 0.743335 -0.02249
C_ C_ 0.277742 0.585952 0.749522 -0.02249
C_ C_ 0.0823413 0.690608 0.743642 0.6875
C_ C_ 0.332247 0.697362 0.750065 0.6875
C_ C_ 0.0436493 0.592601 0.781358 -0.11473
C_ C_ 0.2808 0.610338 0.784903 -0.11473
C_ C_ 0.118939 0.784072 0.876772 0.17695
C_ C_ 0.375371 0.788107 0.881868 0.17695
C_ C_ 0.13325 0.713391 0.873054 0.17695
C_ C_ 0.379298 0.716237 0.87473 0.17695
C_ C_ 0.13612 0.711364 0.916138 -0.11473
C_ C_ 0.382445 0.710556 0.91805 -0.11473
C_ C_ 0.126526 0.744288 0.940232 0.23465
C_ C_ 0.383284 0.744849 0.944588 0.23465
C_ C_ 0.121831 0.782387 0.920396 -0.11473
C_ C_ 0.379023 0.783866 0.925825 -0.11473
C_ C_ 0.127181 0.714219 0.623337 0.17695
C_ C_ 0.365041 0.798389 0.626515 0.17695
C_ C_ 0.128939 0.78738 0.620754 0.17695
C_ C_ 0.3761 0.725488 0.623952 0.17695
C_ C_ 0.127497 0.78591 0.576316 -0.11473
C_ C_ 0.37765 0.727348 0.580929 -0.11473
C_ C_ 0.126022 0.747977 0.555805 0.23465
C_ C_ 0.373749 0.766098 0.560099 0.23465
C_ C_ 0.127749 0.712306 0.580231 -0.11473
C_ C_ 0.371475 0.802792 0.583098 -0.11473
C_ C_ 0.0287688 -0.004722000000000004 0.744996 0.05793
C_ C_ 0.279605 0.00518348 0.753201 0.05793
C_ C_ 0.21815 0.500173 0.741582 0.05793
C_ C_ 0.469687 0.502786 0.761178 0.05793
Br Br 0.0688657 -0.011274000000000006 0.766934 -0.17191
Br Br 0.322156 0.00351945 0.761314 -0.17191
Br Br 0.176063 0.495937 0.72903 -0.17191
Br Br 0.427686 0.500225 0.778565 -0.17191
N_ N_ 0.124594 0.749047 0.854793 -0.272
N_ N_ 0.374424 0.753384 0.856134 -0.272
N_ N_ 0.130167 0.739855 0.985813 -0.12501
N_ N_ 0.38339 0.736711 0.988428 -0.12501
N_ N_ 0.126979 0.752472 0.642064 -0.272
N_ N_ 0.37143 0.761743 0.646383 -0.272
N_ N_ 0.119843 0.743929 0.511585 -0.12501
N_ N_ 0.375295 0.770853 0.516617 -0.12501
O_ O_ 0.0920237 0.793236 0.709167 -0.60745
O_ O_ 0.342471 0.802412 0.722383 -0.60745
O_ O_ 0.0922771 0.796959 0.777863 -0.60745
O_ O_ 0.343531 0.801401 0.791833 -0.60745
O_ O_ 0.155458 0.799305 0.788797 -0.60745
O_ O_ 0.402203 0.80121 0.784704 -0.60745
O_ O_ 0.154955 0.797238 0.718842 -0.60745
O_ O_ 0.407487 0.791373 0.71696 -0.60745
O_ O_ 0.154666 0.709329 0.782769 -0.60745
O_ O_ 0.405466 0.710371 0.782481 -0.60745
O_ O_ 0.152322 0.706691 0.714648 -0.60745
O_ O_ 0.40076 0.705594 0.714643 -0.60745
O_ O_ 0.0939639 0.704189 0.711431 -0.60745
O_ O_ 0.339374 0.714109 0.714697 -0.60745
O_ O_ 0.0907905 0.706075 0.778646 -0.60745
O_ O_ 0.343657 0.708607 0.784878 -0.60745
Zn Zn 0.623345 0.247505 0.291127 0.9476
Zn Zn 0.879411 0.248425 0.288882 0.9476
Zn Zn 0.619894 0.251661 0.222027 0.9476
Zn Zn 0.874295 0.250013 0.221321 0.9476
H_ H_ 0.514962 0.401797 0.193882 0.10932
H_ H_ 0.797266 0.423777 0.19345 0.10932
H_ H_ 0.570492 0.354252 0.324673 0.10932
H_ H_ 0.800384 0.333702 0.319053 0.10932
H_ H_ 0.550461 0.337709 0.192171 0.10932
H_ H_ 0.828963 0.362701 0.197362 0.10932
H_ H_ 0.535849 0.416954 0.326237 0.10932
H_ H_ 0.77299 0.395523 0.321208 0.10932
H_ H_ 0.708282 0.417738 0.322362 0.10932
H_ H_ 0.963576 0.430826 0.314236 0.10932
H_ H_ 0.689033 0.346205 0.186257 0.10932
H_ H_ 0.939499 0.346234 0.18582 0.10932
H_ H_ 0.677443 0.355672 0.321023 0.10932
H_ H_ 0.932569 0.366107 0.321631 0.10932
H_ H_ 0.724369 0.40515 0.191409 0.10932
H_ H_ 0.973557 0.408506 0.184071 0.10932
H_ H_ 0.727829 0.0920641 0.320043 0.10932
H_ H_ 0.953168 0.0700199 0.316644 0.10932
H_ H_ 0.674146 0.139651 0.189813 0.10932
H_ H_ 0.948182 0.157774 0.190701 0.10932
H_ H_ 0.698221 0.151516 0.316575 0.10932
H_ H_ 0.925508 0.135299 0.316671 0.10932
H_ H_ 0.700286 0.0703928 0.189083 0.10932
H_ H_ 0.974266 0.0900476 0.18976 0.10932
H_ H_ 0.536227 0.0828285 0.185025 0.10932
H_ H_ 0.778673 0.0919411 0.183772 0.10932
H_ H_ 0.575231 0.13273 0.320988 0.10932
H_ H_ 0.829173 0.137534 0.31731 0.10932
H_ H_ 0.571605 0.144237 0.189267 0.10932
H_ H_ 0.818381 0.145594 0.18666 0.10932
H_ H_ 0.543654 0.0704725 0.316099 0.10932
H_ H_ 0.789234 0.079832 0.32112 0.10932
H_ H_ 0.641341 0.192359 0.367498 0.10932
H_ H_ 0.897759 0.193415 0.366381 0.10932
H_ H_ 0.622811 0.318885 0.362602 0.10932
H_ H_ 0.867055 0.316764 0.356275 0.10932
H_ H_ 0.626415 0.323558 0.438473 0.10932
H_ H_ 0.857537 0.316519 0.433498 0.10932
H_ H_ 0.636268 0.195445 0.44792 0.10932
H_ H_ 0.89756 0.19488 0.444899 0.10932
H_ H_ 0.626655 0.183357 0.137702 0.10932
H_ H_ 0.877778 0.313546 0.145214 0.10932
H_ H_ 0.608603 0.314324 0.151708 0.10932
H_ H_ 0.873081 0.184569 0.143294 0.10932
H_ H_ 0.613306 0.322425 0.0751516 0.10932
H_ H_ 0.865904 0.180929 0.0679041 0.10932
H_ H_ 0.628781 0.19597 0.0590383 0.10932
H_ H_ 0.878802 0.312168 0.0639029 0.10932
C_ C_ 0.561872 0.343056 0.257683 -0.02249
C_ C_ 0.818036 0.342201 0.258071 -0.02249
C_ C_ 0.512625 0.458649 0.255991 -0.02249
C_ C_ 0.765895 0.455066 0.259816 -0.02249
C_ C_ 0.528296 0.392469 0.222036 -0.11473
C_ C_ 0.796477 0.402714 0.220499 -0.11473
C_ C_ 0.558275 0.363607 0.295739 -0.11473
C_ C_ 0.800643 0.352149 0.293825 -0.11473
C_ C_ 0.546148 0.356184 0.220791 -0.11473
C_ C_ 0.815182 0.368196 0.222997 -0.11473
C_ C_ 0.528344 0.416913 0.258193 -0.02249
C_ C_ 0.782606 0.415431 0.258281 -0.02249
C_ C_ 0.581292 0.306284 0.255825 0.6875
C_ C_ 0.836929 0.3044 0.253284 0.6875
C_ C_ 0.541148 0.400907 0.295848 -0.11473
C_ C_ 0.783897 0.388333 0.293283 -0.11473
C_ C_ 0.679971 0.346327 0.252807 -0.02249
C_ C_ 0.934306 0.349821 0.254568 -0.02249
C_ C_ 0.734596 0.455718 0.257595 -0.02249
C_ C_ 0.98559 0.462847 0.244244 -0.02249
C_ C_ 0.706036 0.40161 0.293312 -0.11473
C_ C_ 0.957446 0.412009 0.286973 -0.11473
C_ C_ 0.69378 0.362145 0.216611 -0.11473
C_ C_ 0.946116 0.361772 0.215969 -0.11473
C_ C_ 0.689078 0.364079 0.292913 -0.11473
C_ C_ 0.941328 0.374956 0.289658 -0.11473
C_ C_ 0.719265 0.415375 0.257225 -0.02249
C_ C_ 0.970206 0.422249 0.249177 -0.02249
C_ C_ 0.658294 0.311459 0.250682 0.6875
C_ C_ 0.915425 0.311103 0.255377 0.6875
C_ C_ 0.71357 0.39557 0.218664 -0.11473
C_ C_ 0.963198 0.398904 0.213292 -0.11473
C_ C_ 0.686005 0.153738 0.253489 -0.02249
C_ C_ 0.937103 0.154756 0.255695 -0.02249
C_ C_ 0.735557 0.0366806 0.25192 -0.02249
C_ C_ 0.986065 0.0395832 0.251521 -0.02249
C_ C_ 0.717062 0.101263 0.289161 -0.11473
C_ C_ 0.957363 0.0921467 0.291773 -0.11473
C_ C_ 0.685371 0.128148 0.218337 -0.11473
C_ C_ 0.95149 0.141437 0.218036 -0.11473
C_ C_ 0.701036 0.138416 0.289065 -0.11473
C_ C_ 0.939877 0.128525 0.291244 -0.11473
C_ C_ 0.717394 0.0762091 0.251979 -0.02249
C_ C_ 0.969655 0.0796107 0.254852 -0.02249
C_ C_ 0.665222 0.191594 0.25768 0.6875
C_ C_ 0.917857 0.19408 0.256545 0.6875
C_ C_ 0.701556 0.0912089 0.216478 -0.11473
C_ C_ 0.966994 0.102821 0.219069 -0.11473
C_ C_ 0.568253 0.147847 0.256965 -0.02249
C_ C_ 0.820802 0.149267 0.253357 -0.02249
C_ C_ 0.517111 0.035514 0.247675 -0.02249
C_ C_ 0.767318 0.0382299 0.250773 -0.02249
C_ C_ 0.541359 0.0969939 0.214429 -0.11473
C_ C_ 0.791429 0.0987955 0.213406 -0.11473
C_ C_ 0.562049 0.127082 0.292784 -0.11473
C_ C_ 0.81431 0.128442 0.29036 -0.11473
C_ C_ 0.559474 0.13168 0.218305 -0.11473
C_ C_ 0.807822 0.135306 0.216004 -0.11473
C_ C_ 0.534461 0.0755871 0.25049 -0.02249
C_ C_ 0.782801 0.0793646 0.251967 -0.02249
C_ C_ 0.584788 0.189457 0.259426 0.6875
C_ C_ 0.84103 0.186289 0.255579 0.6875
C_ C_ 0.547228 0.0891238 0.288593 -0.11473
C_ C_ 0.797307 0.0925781 0.290352 -0.11473
C_ C_ 0.633586 0.218123 0.383493 0.17695
C_ C_ 0.886315 0.218254 0.381312 0.17695
C_ C_ 0.625548 0.290728 0.380276 0.17695
C_ C_ 0.871033 0.289326 0.376623 0.17695
C_ C_ 0.627264 0.29366 0.42191 -0.11473
C_ C_ 0.868759 0.291374 0.420547 -0.11473
C_ C_ 0.628275 0.258212 0.446544 0.23465
C_ C_ 0.876805 0.258293 0.446854 0.23465
C_ C_ 0.635374 0.221473 0.426802 -0.11473
C_ C_ 0.886677 0.219875 0.426596 -0.11473
C_ C_ 0.624728 0.215622 0.12467 0.17695
C_ C_ 0.873402 0.286378 0.126698 0.17695
C_ C_ 0.613507 0.286202 0.1318 0.17695
C_ C_ 0.871918 0.213017 0.127947 0.17695
C_ C_ 0.614821 0.291952 0.0881928 -0.11473
C_ C_ 0.869594 0.211298 0.0836444 -0.11473
C_ C_ 0.615448 0.257862 0.061444 0.23465
C_ C_ 0.871693 0.247831 0.0600302 0.23465
C_ C_ 0.620655 0.218247 0.0806268 -0.11473
C_ C_ 0.873667 0.285489 0.0823944 -0.11473
C_ C_ 0.529099 0.495154 0.25052 0.05793
C_ C_ 0.782568 0.491829 0.257956 0.05793
C_ C_ 0.719972 0.998512 0.256404 0.05793
C_ C_ 0.968994 1.00166059 0.245079 0.05793
Br Br 0.571594 0.490797 0.240373 -0.17191
Br Br 0.824502 0.489085 0.244724 -0.17191
Br Br 0.677224 -0.0020919999999999828 0.264732 -0.17191
Br Br 0.925981 0.0043859 0.233599 -0.17191
N_ N_ 0.629123 0.253121 0.361954 -0.272
N_ N_ 0.877398 0.252138 0.35805 -0.272
N_ N_ 0.627247 0.263735 0.490293 -0.12501
N_ N_ 0.874792 0.263593 0.491824 -0.12501
N_ N_ 0.619257 0.248862 0.149991 -0.272
N_ N_ 0.87297 0.249952 0.148224 -0.272
N_ N_ 0.614398 0.264201 0.0170879 -0.12501
N_ N_ 0.868396 0.245331 0.0147087 -0.12501
O_ O_ 0.588548 0.291842 0.219515 -0.60745
O_ O_ 0.842597 0.290101 0.217953 -0.60745
O_ O_ 0.592753 0.290782 0.289694 -0.60745
O_ O_ 0.847325 0.286686 0.285062 -0.60745
O_ O_ 0.651385 0.292956 0.284186 -0.60745
O_ O_ 0.909643 0.293505 0.290146 -0.60745
O_ O_ 0.649988 0.296536 0.216717 -0.60745
O_ O_ 0.90506 0.295337 0.220769 -0.60745
O_ O_ 0.655317 0.203101 0.293151 -0.60745
O_ O_ 0.910178 0.208938 0.290729 -0.60745
O_ O_ 0.655731 0.210748 0.225134 -0.60745
O_ O_ 0.905283 0.206113 0.223235 -0.60745
O_ O_ 0.589575 0.207183 0.225923 -0.60745
O_ O_ 0.844681 0.208078 0.222224 -0.60745
O_ O_ 0.593237 0.20487 0.293794 -0.60745
O_ O_ 0.849584 0.199311 0.290745 -0.60745
Zn Zn 0.623985 0.249064 0.788331 0.9476
Zn Zn 0.875284 0.250098 0.789636 0.9476
Zn Zn 0.620523 0.246013 0.716948 0.9476
Zn Zn 0.873695 0.250937 0.721247 0.9476
H_ H_ 0.527532 0.413088 0.681113 0.10932
H_ H_ 0.783039 0.419001 0.68866 0.10932
H_ H_ 0.560989 0.360534 0.821939 0.10932
H_ H_ 0.814359 0.352068 0.82349 0.10932
H_ H_ 0.550543 0.343136 0.688017 0.10932
H_ H_ 0.814379 0.356423 0.68845 0.10932
H_ H_ 0.535728 0.425681 0.815573 0.10932
H_ H_ 0.782405 0.418809 0.823594 0.10932
H_ H_ 0.702311 0.423456 0.819448 0.10932
H_ H_ 0.968183 0.413315 0.818911 0.10932
H_ H_ 0.700912 0.337867 0.689873 0.10932
H_ H_ 0.935011 0.35664 0.680864 0.10932
H_ H_ 0.682907 0.356689 0.824416 0.10932
H_ H_ 0.938158 0.352135 0.817944 0.10932
H_ H_ 0.722077 0.409178 0.68808 0.10932
H_ H_ 0.967854 0.420384 0.684413 0.10932
H_ H_ 0.712967 0.0816469 0.821157 0.10932
H_ H_ 0.949589 0.0665446 0.807361 0.10932
H_ H_ 0.682578 0.142493 0.683499 0.10932
H_ H_ 0.945259 0.162821 0.688397 0.10932
H_ H_ 0.687085 0.148746 0.817217 0.10932
H_ H_ 0.922534 0.134416 0.813613 0.10932
H_ H_ 0.708888 0.0778454 0.685473 0.10932
H_ H_ 0.97156 0.0937867 0.682573 0.10932
H_ H_ 0.520474 0.0931877 0.687716 0.10932
H_ H_ 0.777546 0.0869621 0.685544 0.10932
H_ H_ 0.557361 0.154357 0.824246 0.10932
H_ H_ 0.807364 0.152776 0.821419 0.10932
H_ H_ 0.554183 0.154354 0.688118 0.10932
H_ H_ 0.813892 0.148395 0.685792 0.10932
H_ H_ 0.53371 0.0864476 0.825426 0.10932
H_ H_ 0.784575 0.0816365 0.818575 0.10932
H_ H_ 0.628098 0.311919 0.868107 0.10932
H_ H_ 0.926696 0.240524 0.857496 0.10932
H_ H_ 0.611873 0.184357 0.857663 0.10932
H_ H_ 0.833622 0.246704 0.866129 0.10932
H_ H_ 0.615297 0.178717 0.933823 0.10932
H_ H_ 0.836458 0.261258 0.940553 0.10932
H_ H_ 0.62829 0.309321 0.94605 0.10932
H_ H_ 0.932685 0.238801 0.934417 0.10932
H_ H_ 0.610032 0.185876 0.6524 0.10932
H_ H_ 0.875974 0.309253 0.639636 0.10932
H_ H_ 0.629782 0.30872 0.636417 0.10932
H_ H_ 0.86908 0.180194 0.651092 0.10932
H_ H_ 0.635387 0.306425 0.564682 0.10932
H_ H_ 0.877007 0.17143 0.576574 0.10932
H_ H_ 0.609114 0.177446 0.569595 0.10932
H_ H_ 0.892404 0.299973 0.565606 0.10932
C_ C_ 0.564502 0.350919 0.753685 -0.02249
C_ C_ 0.815489 0.346813 0.756836 -0.02249
C_ C_ 0.516735 0.46572 0.750627 -0.02249
C_ C_ 0.763854 0.461256 0.755892 -0.02249
C_ C_ 0.537817 0.40335 0.711941 -0.11473
C_ C_ 0.788857 0.404031 0.718192 -0.11473
C_ C_ 0.557108 0.372974 0.790811 -0.11473
C_ C_ 0.804656 0.363788 0.794808 -0.11473
C_ C_ 0.550974 0.363875 0.714492 -0.11473
C_ C_ 0.805344 0.366456 0.718359 -0.11473
C_ C_ 0.534321 0.426465 0.747892 -0.02249
C_ C_ 0.781397 0.420954 0.756147 -0.02249
C_ C_ 0.581908 0.310221 0.754225 0.6875
C_ C_ 0.836873 0.31201 0.755119 0.6875
C_ C_ 0.543708 0.411093 0.787193 -0.11473
C_ C_ 0.788867 0.401443 0.794837 -0.11473
C_ C_ 0.684811 0.343155 0.75547 -0.02249
C_ C_ 0.934862 0.348653 0.748722 -0.02249
C_ C_ 0.73159 0.458791 0.753756 -0.02249
C_ C_ 0.984861 0.462389 0.751437 -0.02249
C_ C_ 0.702352 0.405753 0.791597 -0.11473
C_ C_ 0.959415 0.404211 0.788357 -0.11473
C_ C_ 0.69707 0.357439 0.717747 -0.11473
C_ C_ 0.941651 0.368212 0.711178 -0.11473
C_ C_ 0.689484 0.367122 0.793203 -0.11473
C_ C_ 0.943142 0.367333 0.788191 -0.11473
C_ C_ 0.717349 0.417491 0.756025 -0.02249
C_ C_ 0.966493 0.424831 0.75177 -0.02249
C_ C_ 0.663869 0.305398 0.755195 0.6875
C_ C_ 0.912838 0.311455 0.75171 0.6875
C_ C_ 0.711467 0.396239 0.717056 -0.11473
C_ C_ 0.958466 0.407249 0.713005 -0.11473
C_ C_ 0.680771 0.14999 0.750412 -0.02249
C_ C_ 0.936938 0.156837 0.755267 -0.02249
C_ C_ 0.733274 0.0368201 0.755871 -0.02249
C_ C_ 0.982119 0.0362729 0.744685 -0.02249
C_ C_ 0.707238 0.0967672 0.789845 -0.11473
C_ C_ 0.95135 0.0905397 0.784038 -0.11473
C_ C_ 0.689396 0.129454 0.713358 -0.11473
C_ C_ 0.948764 0.143324 0.715967 -0.11473
C_ C_ 0.692365 0.134524 0.789668 -0.11473
C_ C_ 0.935988 0.129072 0.787211 -0.11473
C_ C_ 0.714256 0.0752226 0.752804 -0.02249
C_ C_ 0.965997 0.0788703 0.747318 -0.02249
C_ C_ 0.659017 0.185105 0.751196 0.6875
C_ C_ 0.915337 0.191696 0.754185 0.6875
C_ C_ 0.705921 0.0932075 0.714301 -0.11473
C_ C_ 0.964066 0.106336 0.712035 -0.11473
C_ C_ 0.556642 0.160316 0.756335 -0.02249
C_ C_ 0.814796 0.154553 0.754335 -0.02249
C_ C_ 0.509559 0.042552 0.75501 -0.02249
C_ C_ 0.76502 0.0395561 0.753472 -0.02249
C_ C_ 0.529107 0.104268 0.716811 -0.11473
C_ C_ 0.788353 0.0988948 0.714941 -0.11473
C_ C_ 0.548536 0.140609 0.794317 -0.11473
C_ C_ 0.804499 0.135588 0.790684 -0.11473
C_ C_ 0.545497 0.142102 0.718052 -0.11473
C_ C_ 0.805664 0.136048 0.715399 -0.11473
C_ C_ 0.524508 0.0827401 0.755541 -0.02249
C_ C_ 0.780927 0.0793753 0.751943 -0.02249
C_ C_ 0.577059 0.196766 0.755787 0.6875
C_ C_ 0.83443 0.189958 0.756186 0.6875
C_ C_ 0.536631 0.0997768 0.79349 -0.11473
C_ C_ 0.791107 0.0964099 0.790493 -0.11473
C_ C_ 0.622778 0.283359 0.88314 0.17695
C_ C_ 0.907202 0.242774 0.876749 0.17695
C_ C_ 0.615879 0.211867 0.877077 0.17695
C_ C_ 0.854801 0.252025 0.880711 0.17695
C_ C_ 0.614675 0.208889 0.92134 -0.11473
C_ C_ 0.85679 0.25686 0.924136 -0.11473
C_ C_ 0.620441 0.241682 0.947697 0.23465
C_ C_ 0.885127 0.250238 0.945649 0.23465
C_ C_ 0.622702 0.281619 0.927746 -0.11473
C_ C_ 0.910152 0.239621 0.92037 -0.11473
C_ C_ 0.616063 0.210628 0.629203 0.17695
C_ C_ 0.878626 0.279683 0.626498 0.17695
C_ C_ 0.631147 0.279694 0.623564 0.17695
C_ C_ 0.872978 0.206969 0.631633 0.17695
C_ C_ 0.630479 0.27694 0.57925 -0.11473
C_ C_ 0.873222 0.203934 0.587738 -0.11473
C_ C_ 0.626511 0.238177 0.559748 0.23465
C_ C_ 0.880745 0.23775 0.562189 0.23465
C_ C_ 0.61767 0.205574 0.585758 -0.11473
C_ C_ 0.881722 0.276083 0.582488 -0.11473
C_ C_ 0.532698 0.504295 0.753703 0.05793
C_ C_ 0.777383 0.499554 0.752216 0.05793
C_ C_ 0.717854 -0.0018089999999999495 0.751352 0.05793
C_ C_ 0.965083 0.00239371 0.735063 0.05793
Br Br 0.574422 0.502062 0.768237 -0.17191
Br Br 0.820942 0.504072 0.752878 -0.17191
Br Br 0.673827 -0.003646999999999956 0.757831 -0.17191
Br Br 0.922964 0.00569828 0.720722 -0.17191
N_ N_ 0.621954 0.249058 0.859057 -0.272
N_ N_ 0.879853 0.246322 0.858173 -0.272
N_ N_ 0.620733 0.235433 0.991715 -0.12501
N_ N_ 0.890264 0.25198 0.990525 -0.12501
N_ N_ 0.622238 0.246633 0.64647 -0.272
N_ N_ 0.875336 0.245297 0.651483 -0.272
N_ N_ 0.627536 0.233559 0.514885 -0.12501
N_ N_ 0.881856 0.234924 0.517658 -0.12501
O_ O_ 0.593534 0.298415 0.71907 -0.60745
O_ O_ 0.844589 0.29973 0.720292 -0.60745
O_ O_ 0.592313 0.293748 0.788212 -0.60745
O_ O_ 0.844839 0.292054 0.789743 -0.60745
O_ O_ 0.653279 0.293043 0.789852 -0.60745
O_ O_ 0.905913 0.295604 0.786808 -0.60745
O_ O_ 0.657781 0.288122 0.719084 -0.60745
O_ O_ 0.905655 0.292349 0.718496 -0.60745
O_ O_ 0.651857 0.202802 0.786054 -0.60745
O_ O_ 0.90937 0.211767 0.788347 -0.60745
O_ O_ 0.644691 0.19562 0.716984 -0.60745
O_ O_ 0.905076 0.205645 0.719756 -0.60745
O_ O_ 0.581285 0.217164 0.722096 -0.60745
O_ O_ 0.839296 0.209905 0.723147 -0.60745
O_ O_ 0.595391 0.200884 0.785767 -0.60745
O_ O_ 0.846434 0.202358 0.791146 -0.60745
Zn Zn 0.628335 0.743903 0.288693 0.9476
Zn Zn 0.876529 0.74839 0.272531 0.9476
Zn Zn 0.627151 0.742952 0.218343 0.9476
Zn Zn 0.87207 0.74766 0.202001 0.9476
H_ H_ 0.519838 0.899502 0.184438 0.10932
H_ H_ 0.783016 0.922807 0.179285 0.10932
H_ H_ 0.588681 0.86133 0.305476 0.10932
H_ H_ 0.815653 0.848361 0.303485 0.10932
H_ H_ 0.546941 0.831872 0.185346 0.10932
H_ H_ 0.802466 0.853194 0.170406 0.10932
H_ H_ 0.558973 0.922657 0.308852 0.10932
H_ H_ 0.792606 0.914259 0.311512 0.10932
H_ H_ 0.724698 0.907737 0.319778 0.10932
H_ H_ 0.962188 0.918012 0.312913 0.10932
H_ H_ 0.681734 0.854704 0.185519 0.10932
H_ H_ 0.943587 0.846337 0.177183 0.10932
H_ H_ 0.693824 0.846083 0.32023 0.10932
H_ H_ 0.932093 0.850328 0.309089 0.10932
H_ H_ 0.715018 0.916388 0.186865 0.10932
H_ H_ 0.967354 0.912526 0.177334 0.10932
H_ H_ 0.728146 0.581985 0.327315 0.10932
H_ H_ 0.953792 0.566928 0.299747 0.10932
H_ H_ 0.689801 0.645527 0.192369 0.10932
H_ H_ 0.948559 0.660251 0.178259 0.10932
H_ H_ 0.695372 0.645524 0.332069 0.10932
H_ H_ 0.922616 0.633345 0.301613 0.10932
H_ H_ 0.708908 0.575826 0.192764 0.10932
H_ H_ 0.971072 0.591454 0.17251 0.10932
H_ H_ 0.520693 0.591515 0.191255 0.10932
H_ H_ 0.775702 0.576226 0.18939 0.10932
H_ H_ 0.576596 0.629571 0.316682 0.10932
H_ H_ 0.817551 0.652361 0.313668 0.10932
H_ H_ 0.552545 0.652349 0.189305 0.10932
H_ H_ 0.810231 0.635336 0.176339 0.10932
H_ H_ 0.543659 0.568711 0.317711 0.10932
H_ H_ 0.799579 0.581004 0.323405 0.10932
H_ H_ 0.625876 0.675686 0.36136 0.10932
H_ H_ 0.861507 0.809847 0.342767 0.10932
H_ H_ 0.626946 0.807106 0.361757 0.10932
H_ H_ 0.897621 0.691232 0.354976 0.10932
H_ H_ 0.626391 0.806058 0.441108 0.10932
H_ H_ 0.899266 0.697212 0.433536 0.10932
H_ H_ 0.634238 0.67163 0.439688 0.10932
H_ H_ 0.856566 0.81642 0.419937 0.10932
H_ H_ 0.577457 0.746894 0.141255 0.10932
H_ H_ 0.876432 0.679412 0.130703 0.10932
H_ H_ 0.669361 0.718177 0.142088 0.10932
H_ H_ 0.875832 0.81348 0.133036 0.10932
H_ H_ 0.66823 0.714014 0.0656386 0.10932
H_ H_ 0.879131 0.815051 0.0598966 0.10932
H_ H_ 0.575226 0.753566 0.0636699 0.10932
H_ H_ 0.871034 0.68199 0.0499341 0.10932
C_ C_ 0.568507 0.840894 0.245553 -0.02249
C_ C_ 0.815892 0.847081 0.236892 -0.02249
C_ C_ 0.520705 0.957791 0.251372 -0.02249
C_ C_ 0.766705 0.96264 0.250088 -0.02249
C_ C_ 0.534791 0.891178 0.211269 -0.11473
C_ C_ 0.789053 0.905208 0.206295 -0.11473
C_ C_ 0.573099 0.868457 0.280464 -0.11473
C_ C_ 0.807573 0.86271 0.276317 -0.11473
C_ C_ 0.551209 0.852458 0.211018 -0.11473
C_ C_ 0.803183 0.867935 0.202585 -0.11473
C_ C_ 0.538252 0.918611 0.247859 -0.02249
C_ C_ 0.783523 0.922047 0.2462 -0.02249
C_ C_ 0.586241 0.801113 0.24553 0.6875
C_ C_ 0.8345 0.809177 0.234747 0.6875
C_ C_ 0.557681 0.90745 0.280834 -0.11473
C_ C_ 0.795992 0.902007 0.28087 -0.11473
C_ C_ 0.685346 0.846266 0.252127 -0.02249
C_ C_ 0.930614 0.847812 0.242922 -0.02249
C_ C_ 0.735662 0.960282 0.254462 -0.02249
C_ C_ 0.98336 0.961246 0.246051 -0.02249
C_ C_ 0.718571 0.894555 0.290036 -0.11473
C_ C_ 0.957146 0.901407 0.282753 -0.11473
C_ C_ 0.692041 0.865523 0.214207 -0.11473
C_ C_ 0.944541 0.863839 0.205782 -0.11473
C_ C_ 0.699893 0.859471 0.290846 -0.11473
C_ C_ 0.939357 0.864492 0.282151 -0.11473
C_ C_ 0.720838 0.918167 0.253014 -0.02249
C_ C_ 0.965864 0.921936 0.244726 -0.02249
C_ C_ 0.66747 0.805765 0.252252 0.6875
C_ C_ 0.913217 0.808253 0.239348 0.6875
C_ C_ 0.709744 0.901316 0.215237 -0.11473
C_ C_ 0.959635 0.902203 0.206508 -0.11473
C_ C_ 0.68846 0.648851 0.263318 -0.02249
C_ C_ 0.930705 0.65131 0.238979 -0.02249
C_ C_ 0.736708 0.533308 0.256964 -0.02249
C_ C_ 0.98168 0.53794 0.238139 -0.02249
C_ C_ 0.718969 0.594671 0.298038 -0.11473
C_ C_ 0.94941 0.587444 0.272773 -0.11473
C_ C_ 0.696767 0.633185 0.223467 -0.11473
C_ C_ 0.948461 0.64102 0.203862 -0.11473
C_ C_ 0.7016 0.631789 0.300715 -0.11473
C_ C_ 0.934153 0.625281 0.274425 -0.11473
C_ C_ 0.721506 0.574419 0.259045 -0.02249
C_ C_ 0.963738 0.576341 0.236356 -0.02249
C_ C_ 0.668506 0.685174 0.262869 0.6875
C_ C_ 0.912772 0.690958 0.238499 0.6875
C_ C_ 0.710417 0.593612 0.221584 -0.11473
C_ C_ 0.962413 0.602842 0.201417 -0.11473
C_ C_ 0.569616 0.646252 0.251876 -0.02249
C_ C_ 0.81794 0.647785 0.244366 -0.02249
C_ C_ 0.515146 0.534416 0.248749 -0.02249
C_ C_ 0.768783 0.531999 0.257781 -0.02249
C_ C_ 0.536314 0.597249 0.216697 -0.11473
C_ C_ 0.788663 0.590508 0.215871 -0.11473
C_ C_ 0.566086 0.619453 0.28836 -0.11473
C_ C_ 0.810311 0.633327 0.285746 -0.11473
C_ C_ 0.552911 0.632978 0.216424 -0.11473
C_ C_ 0.805768 0.624774 0.20871 -0.11473
C_ C_ 0.534327 0.571527 0.250561 -0.02249
C_ C_ 0.787146 0.570941 0.255129 -0.02249
C_ C_ 0.587654 0.684707 0.253151 0.6875
C_ C_ 0.8358 0.687083 0.240314 0.6875
C_ C_ 0.546842 0.586165 0.288857 -0.11473
C_ C_ 0.798982 0.593512 0.290812 -0.11473
C_ C_ 0.624783 0.705064 0.380393 0.17695
C_ C_ 0.863162 0.781733 0.3626 0.17695
C_ C_ 0.629681 0.777346 0.380083 0.17695
C_ C_ 0.886754 0.716194 0.369386 0.17695
C_ C_ 0.633745 0.777281 0.4232 -0.11473
C_ C_ 0.887704 0.72114 0.41336 -0.11473
C_ C_ 0.632345 0.739761 0.44605 0.23465
C_ C_ 0.873751 0.75589 0.431802 0.23465
C_ C_ 0.630327 0.703141 0.423865 -0.11473
C_ C_ 0.861329 0.787017 0.405556 -0.11473
C_ C_ 0.59823 0.749998 0.124185 0.17695
C_ C_ 0.874512 0.710094 0.112707 0.17695
C_ C_ 0.64922 0.728317 0.124909 0.17695
C_ C_ 0.875788 0.782694 0.116617 0.17695
C_ C_ 0.648705 0.727779 0.0802224 -0.11473
C_ C_ 0.875768 0.784968 0.0735303 -0.11473
C_ C_ 0.622303 0.736668 0.0577287 0.23465
C_ C_ 0.875189 0.748774 0.0481659 0.23465
C_ C_ 0.597261 0.748904 0.0803538 -0.11473
C_ C_ 0.871437 0.710885 0.0693879 -0.11473
C_ C_ 0.5332 0.997468 0.243916 0.05793
C_ C_ 0.782693 1.000499046 0.251363 0.05793
C_ C_ 0.720167 0.494106 0.257632 0.05793
C_ C_ 0.967981 0.499097 0.240761 0.05793
Br Br 0.57581 0.998864 0.226218 -0.17191
Br Br 0.82475 1.00314774 0.242515 -0.17191
Br Br 0.677912 0.496173 0.25198 -0.17191
Br Br 0.924927 0.49014 0.23135 -0.17191
N_ N_ 0.624495 0.741928 0.359279 -0.272
N_ N_ 0.876292 0.747664 0.34441 -0.272
N_ N_ 0.637632 0.737761 0.489913 -0.12501
N_ N_ 0.878483 0.764683 0.476465 -0.12501
N_ N_ 0.624952 0.741593 0.144926 -0.272
N_ N_ 0.874009 0.744507 0.136303 -0.272
N_ N_ 0.621616 0.745948 0.0150637 -0.12501
N_ N_ 0.883201 0.750167 0.00523732 -0.12501
O_ O_ 0.59467 0.784609 0.212614 -0.60745
O_ O_ 0.840939 0.792595 0.199159 -0.60745
O_ O_ 0.593437 0.786335 0.280096 -0.60745
O_ O_ 0.842138 0.791375 0.268349 -0.60745
O_ O_ 0.659435 0.790248 0.287022 -0.60745
O_ O_ 0.904274 0.791457 0.273461 -0.60745
O_ O_ 0.65948 0.789812 0.217649 -0.60745
O_ O_ 0.905344 0.791747 0.204128 -0.60745
O_ O_ 0.66109 0.702839 0.297122 -0.60745
O_ O_ 0.906329 0.706613 0.27335 -0.60745
O_ O_ 0.656829 0.698911 0.229774 -0.60745
O_ O_ 0.899311 0.700763 0.205899 -0.60745
O_ O_ 0.596058 0.699645 0.219544 -0.60745
O_ O_ 0.839054 0.702731 0.203272 -0.60745
O_ O_ 0.599864 0.695827 0.287272 -0.60745
O_ O_ 0.847121 0.703449 0.272743 -0.60745
Zn Zn 0.626394 0.756283 0.786674 0.9476
Zn Zn 0.875894 0.747227 0.774772 0.9476
Zn Zn 0.625592 0.753943 0.717326 0.9476
Zn Zn 0.871799 0.748136 0.705322 0.9476
H_ H_ 0.542738 0.930741 0.68853 0.10932
H_ H_ 0.770043 0.917302 0.684533 0.10932
H_ H_ 0.56842 0.864153 0.823253 0.10932
H_ H_ 0.836091 0.873409 0.801258 0.10932
H_ H_ 0.57342 0.866113 0.688263 0.10932
H_ H_ 0.796668 0.847719 0.675065 0.10932
H_ H_ 0.530415 0.920588 0.817128 0.10932
H_ H_ 0.797873 0.927161 0.81118 0.10932
H_ H_ 0.725298 0.912102 0.81715 0.10932
H_ H_ 0.940802 0.934216 0.799107 0.10932
H_ H_ 0.685382 0.850988 0.686765 0.10932
H_ H_ 0.947861 0.838005 0.680592 0.10932
H_ H_ 0.698689 0.847629 0.821562 0.10932
H_ H_ 0.914653 0.870734 0.802346 0.10932
H_ H_ 0.710051 0.918473 0.686356 0.10932
H_ H_ 0.976122 0.904411 0.679612 0.10932
H_ H_ 0.715512 0.580025 0.819206 0.10932
H_ H_ 0.974116 0.589203 0.80845 0.10932
H_ H_ 0.687418 0.64835 0.685342 0.10932
H_ H_ 0.938847 0.647122 0.673633 0.10932
H_ H_ 0.688158 0.648831 0.818843 0.10932
H_ H_ 0.944125 0.651024 0.808949 0.10932
H_ H_ 0.705527 0.576901 0.683253 0.10932
H_ H_ 0.963045 0.575432 0.6739 0.10932
H_ H_ 0.514082 0.600511 0.696304 0.10932
H_ H_ 0.781891 0.575102 0.680036 0.10932
H_ H_ 0.579586 0.642096 0.817174 0.10932
H_ H_ 0.809285 0.652304 0.803936 0.10932
H_ H_ 0.54488 0.666523 0.69354 0.10932
H_ H_ 0.806056 0.63867 0.670292 0.10932
H_ H_ 0.552173 0.57361 0.817005 0.10932
H_ H_ 0.773268 0.593119 0.811304 0.10932
H_ H_ 0.628377 0.687329 0.847037 0.10932
H_ H_ 0.870031 0.676697 0.844279 0.10932
H_ H_ 0.616547 0.813114 0.874216 0.10932
H_ H_ 0.881693 0.806646 0.858634 0.10932
H_ H_ 0.616086 0.798294 0.949029 0.10932
H_ H_ 0.876613 0.798257 0.934785 0.10932
H_ H_ 0.632306 0.669466 0.92351 0.10932
H_ H_ 0.865674 0.668868 0.920409 0.10932
H_ H_ 0.622521 0.690642 0.644107 0.10932
H_ H_ 0.863313 0.809708 0.622413 0.10932
H_ H_ 0.639183 0.819988 0.646863 0.10932
H_ H_ 0.888999 0.684338 0.635921 0.10932
H_ H_ 0.639951 0.82026 0.566169 0.10932
H_ H_ 0.890694 0.677747 0.557464 0.10932
H_ H_ 0.61087 0.693424 0.565907 0.10932
H_ H_ 0.875693 0.809079 0.549643 0.10932
C_ C_ 0.570352 0.855727 0.755344 -0.02249
C_ C_ 0.81761 0.852702 0.738333 -0.02249
C_ C_ 0.516605 0.967034 0.752342 -0.02249
C_ C_ 0.767049 0.964524 0.751167 -0.02249
C_ C_ 0.548435 0.914828 0.716679 -0.11473
C_ C_ 0.783372 0.903397 0.709741 -0.11473
C_ C_ 0.560903 0.876706 0.793961 -0.11473
C_ C_ 0.819801 0.877868 0.777224 -0.11473
C_ C_ 0.563226 0.875436 0.716724 -0.11473
C_ C_ 0.798013 0.864207 0.705043 -0.11473
C_ C_ 0.537293 0.931603 0.752334 -0.02249
C_ C_ 0.784325 0.925808 0.747188 -0.02249
C_ C_ 0.586483 0.814711 0.755527 0.6875
C_ C_ 0.833796 0.812368 0.736373 0.6875
C_ C_ 0.542518 0.91145 0.789964 -0.11473
C_ C_ 0.800241 0.9114 0.781865 -0.11473
C_ C_ 0.690042 0.843263 0.753831 -0.02249
C_ C_ 0.931521 0.847555 0.742153 -0.02249
C_ C_ 0.734568 0.962505 0.751437 -0.02249
C_ C_ 0.979429 0.963838 0.737009 -0.02249
C_ C_ 0.715403 0.900285 0.789395 -0.11473
C_ C_ 0.942721 0.914561 0.772618 -0.11473
C_ C_ 0.693735 0.864704 0.715204 -0.11473
C_ C_ 0.947818 0.857413 0.70664 -0.11473
C_ C_ 0.701339 0.861713 0.791302 -0.11473
C_ C_ 0.928831 0.876877 0.774985 -0.11473
C_ C_ 0.718167 0.921927 0.752234 -0.02249
C_ C_ 0.959787 0.924925 0.737296 -0.02249
C_ C_ 0.667565 0.809413 0.754635 0.6875
C_ C_ 0.911483 0.810918 0.74332 0.6875
C_ C_ 0.705843 0.904083 0.714808 -0.11473
C_ C_ 0.96235 0.895851 0.704644 -0.11473
C_ C_ 0.683952 0.653136 0.751233 -0.02249
C_ C_ 0.934937 0.651666 0.742441 -0.02249
C_ C_ 0.729103 0.534662 0.752426 -0.02249
C_ C_ 0.98509 0.536487 0.743742 -0.02249
C_ C_ 0.706975 0.593607 0.790382 -0.11473
C_ C_ 0.963818 0.599324 0.778917 -0.11473
C_ C_ 0.68824 0.631863 0.712927 -0.11473
C_ C_ 0.944704 0.633625 0.703656 -0.11473
C_ C_ 0.692935 0.633751 0.789248 -0.11473
C_ C_ 0.946617 0.634834 0.778781 -0.11473
C_ C_ 0.711237 0.573713 0.751657 -0.02249
C_ C_ 0.970156 0.57756 0.74272 -0.02249
C_ C_ 0.664277 0.692192 0.750785 0.6875
C_ C_ 0.914852 0.688879 0.742549 0.6875
C_ C_ 0.702561 0.591688 0.713905 -0.11473
C_ C_ 0.961469 0.595641 0.704041 -0.11473
C_ C_ 0.567614 0.65441 0.753283 -0.02249
C_ C_ 0.813727 0.647451 0.737567 -0.02249
C_ C_ 0.516724 0.54194 0.756143 -0.02249
C_ C_ 0.761254 0.536818 0.750266 -0.02249
C_ C_ 0.530759 0.607774 0.719982 -0.11473
C_ C_ 0.787239 0.590785 0.706816 -0.11473
C_ C_ 0.566923 0.630433 0.789218 -0.11473
C_ C_ 0.802192 0.63559 0.777506 -0.11473
C_ C_ 0.548836 0.643094 0.718628 -0.11473
C_ C_ 0.804253 0.625861 0.700689 -0.11473
C_ C_ 0.533888 0.581726 0.755214 -0.02249
C_ C_ 0.777331 0.577225 0.74595 -0.02249
C_ C_ 0.586702 0.693367 0.750153 0.6875
C_ C_ 0.835353 0.682878 0.735075 0.6875
C_ C_ 0.550274 0.594164 0.790888 -0.11473
C_ C_ 0.783046 0.602762 0.781812 -0.11473
C_ C_ 0.629756 0.711948 0.870456 0.17695
C_ C_ 0.871225 0.704267 0.862666 0.17695
C_ C_ 0.620398 0.781765 0.885526 0.17695
C_ C_ 0.876083 0.776813 0.870598 0.17695
C_ C_ 0.621181 0.773283 0.928469 -0.11473
C_ C_ 0.876569 0.772297 0.914823 -0.11473
C_ C_ 0.62579 0.733057 0.943442 0.23465
C_ C_ 0.872958 0.7335 0.933645 0.23465
C_ C_ 0.632215 0.702131 0.912995 -0.11473
C_ C_ 0.869543 0.699605 0.906878 -0.11473
C_ C_ 0.621358 0.719901 0.626786 0.17695
C_ C_ 0.869832 0.780873 0.609187 0.17695
C_ C_ 0.632847 0.791212 0.628354 0.17695
C_ C_ 0.883893 0.710159 0.616442 0.17695
C_ C_ 0.634693 0.792524 0.582842 -0.11473
C_ C_ 0.887223 0.708339 0.572281 -0.11473
C_ C_ 0.627999 0.756929 0.560102 0.23465
C_ C_ 0.881507 0.741857 0.546272 0.23465
C_ C_ 0.62073 0.719455 0.582311 -0.11473
C_ C_ 0.876096 0.779252 0.566319 -0.11473
C_ C_ 0.529408 0.00693308 0.754991 0.05793
C_ C_ 0.781855 0.0033279 0.750209 0.05793
C_ C_ 0.714644 0.496488 0.753453 0.05793
C_ C_ 0.969308 0.499692 0.745709 0.05793
Br Br 0.571975 0.0124554 0.758668 -0.17191
Br Br 0.826272 1.00483101 0.752088 -0.17191
Br Br 0.672747 0.493391 0.743764 -0.17191
Br Br 0.92683 0.502607 0.74344 -0.17191
N_ N_ 0.626703 0.751644 0.857811 -0.272
N_ N_ 0.874361 0.743123 0.845195 -0.272
N_ N_ 0.630029 0.721246 0.987168 -0.12501
N_ N_ 0.868141 0.729261 0.977074 -0.12501
N_ N_ 0.624129 0.755988 0.648072 -0.272
N_ N_ 0.873794 0.745977 0.633012 -0.272
N_ N_ 0.624062 0.761675 0.515911 -0.12501
N_ N_ 0.884779 0.736847 0.501742 -0.12501
O_ O_ 0.596189 0.799884 0.720691 -0.60745
O_ O_ 0.839363 0.79652 0.700757 -0.60745
O_ O_ 0.597998 0.801564 0.790211 -0.60745
O_ O_ 0.841791 0.794061 0.769641 -0.60745
O_ O_ 0.658337 0.795465 0.790533 -0.60745
O_ O_ 0.906286 0.793236 0.776606 -0.60745
O_ O_ 0.657315 0.79392 0.720747 -0.60745
O_ O_ 0.90113 0.795459 0.710272 -0.60745
O_ O_ 0.655504 0.708109 0.78485 -0.60745
O_ O_ 0.906127 0.702233 0.776778 -0.60745
O_ O_ 0.656931 0.708954 0.715353 -0.60745
O_ O_ 0.904102 0.705975 0.709762 -0.60745
O_ O_ 0.594441 0.708656 0.715891 -0.60745
O_ O_ 0.840697 0.700283 0.7005 -0.60745
O_ O_ 0.59322 0.713428 0.783804 -0.60745
O_ O_ 0.845882 0.69803 0.768475 -0.60745
_cell_length_a 44.444
_cell_length_b 32.3360000049186
_cell_length_c 31.843999878906452
_cell_angle_alpha 89.99799923859553
_cell_angle_beta 91.13600050494348
_cell_angle_gamma 89.9990006550086
_symmetry_space_group_name_H-M         'P 1'
_symmetry_Int_Tables_number            1
loop_
_symmetry_equiv_pos_as_xyz
   'x, y, z'
                         
loop_
_atom_site_label
_atom_site_type_symbol
_atom_site_fract_x 
_atom_site_fract_y
_atom_site_fract_z
_atom_site_charge
Zn Zn 0.126519 0.254683 0.278412 0.9476
Zn Zn 0.376172 0.246514 0.284797 0.9476
Zn Zn 0.128374 0.252624 0.210679 0.9476
Zn Zn 0.373977 0.247957 0.215451 0.9476
H_ H_ 0.0287445 0.415792 0.181723 0.10932
H_ H_ 0.2905 0.422584 0.187499 0.10932
H_ H_ 0.0709666 0.361427 0.316594 0.10932
H_ H_ 0.312083 0.352274 0.323262 0.10932
H_ H_ 0.0600415 0.353957 0.181985 0.10932
H_ H_ 0.31771 0.360356 0.187121 0.10932
H_ H_ 0.0407097 0.428233 0.315764 0.10932
H_ H_ 0.284214 0.419538 0.323365 0.10932
H_ H_ 0.22288 0.407565 0.324982 0.10932
H_ H_ 0.472845 0.404063 0.328618 0.10932
H_ H_ 0.167788 0.373032 0.194663 0.10932
H_ H_ 0.409974 0.371518 0.200729 0.10932
H_ H_ 0.195237 0.34151 0.320821 0.10932
H_ H_ 0.443456 0.339134 0.325698 0.10932
H_ H_ 0.198314 0.434848 0.196072 0.10932
H_ H_ 0.444451 0.432614 0.200924 0.10932
H_ H_ 0.208279 0.0797026 0.315848 0.10932
H_ H_ 0.465367 0.0776081 0.318383 0.10932
H_ H_ 0.186807 0.147247 0.177503 0.10932
H_ H_ 0.428864 0.130601 0.185965 0.10932
H_ H_ 0.180236 0.144798 0.313131 0.10932
H_ H_ 0.434236 0.141416 0.319043 0.10932
H_ H_ 0.214505 0.0826193 0.17792 0.10932
H_ H_ 0.466265 0.0755759 0.185698 0.10932
H_ H_ 0.0465872 0.0703134 0.185446 0.10932
H_ H_ 0.285986 0.0831012 0.18359 0.10932
H_ H_ 0.0563295 0.157684 0.310349 0.10932
H_ H_ 0.295293 0.160963 0.315607 0.10932
H_ H_ 0.0719339 0.137136 0.178295 0.10932
H_ H_ 0.317675 0.147157 0.184368 0.10932
H_ H_ 0.0333127 0.0913204 0.315493 0.10932
H_ H_ 0.269083 0.0929981 0.312719 0.10932
H_ H_ 0.130766 0.315972 0.3581 0.10932
H_ H_ 0.383077 0.314118 0.364328 0.10932
H_ H_ 0.126929 0.186963 0.343869 0.10932
H_ H_ 0.359445 0.185405 0.361435 0.10932
H_ H_ 0.136298 0.176227 0.425579 0.10932
H_ H_ 0.356766 0.183725 0.43509 0.10932
H_ H_ 0.130227 0.310242 0.435437 0.10932
H_ H_ 0.378287 0.312727 0.442084 0.10932
H_ H_ 0.120645 0.312525 0.127864 0.10932
H_ H_ 0.385387 0.308957 0.139438 0.10932
H_ H_ 0.139115 0.186526 0.140913 0.10932
H_ H_ 0.362279 0.180984 0.140952 0.10932
H_ H_ 0.150505 0.181108 0.0645379 0.10932
H_ H_ 0.357447 0.178857 0.0619538 0.10932
H_ H_ 0.138809 0.312075 0.0528326 0.10932
H_ H_ 0.381294 0.307901 0.0597477 0.10932
C_ C_ 0.0690342 0.353175 0.249343 -0.02249
C_ C_ 0.319979 0.349961 0.254298 -0.02249
C_ C_ 0.0169784 0.465814 0.246241 -0.02249
C_ C_ 0.266859 0.464168 0.254527 -0.02249
C_ C_ 0.0376664 0.405174 0.212729 -0.11473
C_ C_ 0.295744 0.407796 0.2169 -0.11473
C_ C_ 0.0633065 0.374131 0.287751 -0.11473
C_ C_ 0.308978 0.367804 0.292377 -0.11473
C_ C_ 0.056171 0.368697 0.212281 -0.11473
C_ C_ 0.309632 0.369964 0.217397 -0.11473
C_ C_ 0.0348564 0.428241 0.248633 -0.02249
C_ C_ 0.285305 0.425411 0.254808 -0.02249
C_ C_ 0.0888042 0.31493 0.249192 0.6875
C_ C_ 0.339432 0.312139 0.253664 0.6875
C_ C_ 0.044631 0.410267 0.287404 -0.11473
C_ C_ 0.292583 0.406168 0.293611 -0.11473
C_ C_ 0.18516 0.350389 0.253294 -0.02249
C_ C_ 0.42767 0.348627 0.260675 -0.02249
C_ C_ 0.235754 0.46265 0.259742 -0.02249
C_ C_ 0.480746 0.461598 0.26072 -0.02249
C_ C_ 0.216447 0.397227 0.293403 -0.11473
C_ C_ 0.459129 0.396907 0.300587 -0.11473
C_ C_ 0.184625 0.377756 0.219563 -0.11473
C_ C_ 0.42595 0.377638 0.227435 -0.11473
C_ C_ 0.199233 0.361919 0.291857 -0.11473
C_ C_ 0.442503 0.359863 0.298438 -0.11473
C_ C_ 0.219566 0.422954 0.257685 -0.02249
C_ C_ 0.461545 0.424323 0.26439 -0.02249
C_ C_ 0.166544 0.312441 0.25069 0.6875
C_ C_ 0.412471 0.30799 0.25658 0.6875
C_ C_ 0.201961 0.413869 0.222852 -0.11473
C_ C_ 0.442243 0.414147 0.228591 -0.11473
C_ C_ 0.184221 0.15346 0.244818 -0.02249
C_ C_ 0.43015 0.142143 0.250871 -0.02249
C_ C_ 0.233414 0.0398822 0.247722 -0.02249
C_ C_ 0.486096 0.0341668 0.254411 -0.02249
C_ C_ 0.207356 0.097763 0.285348 -0.11473
C_ C_ 0.459445 0.0925147 0.288777 -0.11473
C_ C_ 0.194011 0.134849 0.206288 -0.11473
C_ C_ 0.4387 0.12184 0.214493 -0.11473
C_ C_ 0.191348 0.135279 0.284663 -0.11473
C_ C_ 0.441136 0.127925 0.289722 -0.11473
C_ C_ 0.217183 0.0798939 0.24596 -0.02249
C_ C_ 0.468704 0.0736754 0.252704 -0.02249
C_ C_ 0.167348 0.194826 0.242468 0.6875
C_ C_ 0.413022 0.18253 0.24924 0.6875
C_ C_ 0.212231 0.100044 0.208056 -0.11473
C_ C_ 0.456621 0.0877487 0.21396 -0.11473
C_ C_ 0.0658989 0.156401 0.243884 -0.02249
C_ C_ 0.310146 0.157908 0.249761 -0.02249
C_ C_ 0.0174888 0.0375401 0.252416 -0.02249
C_ C_ 0.265714 0.0402232 0.248587 -0.02249
C_ C_ 0.0487481 0.0905518 0.211852 -0.11473
C_ C_ 0.289878 0.0995837 0.212011 -0.11473
C_ C_ 0.052506 0.14217 0.282047 -0.11473
C_ C_ 0.297032 0.141531 0.287167 -0.11473
C_ C_ 0.0627207 0.129489 0.209069 -0.11473
C_ C_ 0.306605 0.136372 0.211782 -0.11473
C_ C_ 0.0368684 0.0764979 0.24995 -0.02249
C_ C_ 0.281738 0.0797366 0.249037 -0.02249
C_ C_ 0.0868791 0.194259 0.244397 0.6875
C_ C_ 0.332468 0.193553 0.250229 0.6875
C_ C_ 0.0400232 0.101927 0.285524 -0.11473
C_ C_ 0.284121 0.1019 0.286082 -0.11473
C_ C_ 0.129138 0.285797 0.373346 0.17695
C_ C_ 0.379283 0.283904 0.380541 0.17695
C_ C_ 0.129074 0.211732 0.365006 0.17695
C_ C_ 0.364169 0.214312 0.377523 0.17695
C_ C_ 0.13418 0.206489 0.409548 -0.11473
C_ C_ 0.362613 0.21199 0.421362 -0.11473
C_ C_ 0.132414 0.24165 0.434586 0.23465
C_ C_ 0.369745 0.246661 0.447646 0.23465
C_ C_ 0.127897 0.281305 0.416485 -0.11473
C_ C_ 0.373924 0.284347 0.424513 -0.11473
C_ C_ 0.127391 0.284515 0.113606 0.17695
C_ C_ 0.376648 0.281517 0.122591 0.17695
C_ C_ 0.137229 0.212464 0.120222 0.17695
C_ C_ 0.367709 0.20966 0.123322 0.17695
C_ C_ 0.14198 0.210787 0.0771937 -0.11473
C_ C_ 0.362923 0.208775 0.0787073 -0.11473
C_ C_ 0.13877 0.244861 0.0515426 0.23465
C_ C_ 0.367968 0.245232 0.0556115 0.23465
C_ C_ 0.133503 0.284185 0.071182 -0.11473
C_ C_ 0.375334 0.281801 0.0784841 -0.11473
C_ C_ 0.0315025 0.5055 0.243426 0.05793
C_ C_ 0.282186 0.501616 0.246498 0.05793
C_ C_ 0.216542 0.00174795 0.248291 0.05793
C_ C_ 0.473279 0.993844 0.264363 0.05793
Br Br 0.0731978 0.50723 0.24001 -0.17191
Br Br 0.325992 0.502487 0.252414 -0.17191
Br Br 0.174427 0.00634044 0.246026 -0.17191
Br Br 0.434544 0.988061 0.289767 -0.17191
N_ N_ 0.128628 0.250522 0.349444 -0.272
N_ N_ 0.375399 0.247642 0.357607 -0.272
N_ N_ 0.128701 0.23496 0.47834 -0.12501
N_ N_ 0.36159 0.249691 0.492157 -0.12501
N_ N_ 0.130326 0.249341 0.138635 -0.272
N_ N_ 0.371826 0.245983 0.143691 -0.272
N_ N_ 0.142182 0.238757 0.00658646 -0.12501
N_ N_ 0.362559 0.245336 0.0110575 -0.12501
O_ O_ 0.0971031 0.298301 0.216014 -0.60745
O_ O_ 0.350336 0.299204 0.21954 -0.60745
O_ O_ 0.0982833 0.301494 0.283626 -0.60745
O_ O_ 0.345298 0.292499 0.28655 -0.60745
O_ O_ 0.159494 0.29219 0.281633 -0.60745
O_ O_ 0.406944 0.287603 0.289335 -0.60745
O_ O_ 0.158226 0.299346 0.214704 -0.60745
O_ O_ 0.40756 0.291972 0.220428 -0.60745
O_ O_ 0.154902 0.207282 0.275035 -0.60745
O_ O_ 0.407568 0.202023 0.283111 -0.60745
O_ O_ 0.16088 0.21196 0.207729 -0.60745
O_ O_ 0.403163 0.195984 0.215052 -0.60745
O_ O_ 0.099104 0.205395 0.21063 -0.60745
O_ O_ 0.341396 0.208875 0.216407 -0.60745
O_ O_ 0.0923388 0.214842 0.277221 -0.60745
O_ O_ 0.343668 0.203744 0.28538 -0.60745
Zn Zn 0.126647 0.249601 0.777069 0.9476
Zn Zn 0.375216 0.254482 0.785522 0.9476
Zn Zn 0.12395 0.252803 0.709144 0.9476
Zn Zn 0.372433 0.252878 0.716049 0.9476
H_ H_ 0.0363942 0.425238 0.683148 0.10932
H_ H_ 0.286321 0.424093 0.681037 0.10932
H_ H_ 0.0689198 0.351317 0.812207 0.10932
H_ H_ 0.318518 0.358571 0.816759 0.10932
H_ H_ 0.062966 0.353982 0.677766 0.10932
H_ H_ 0.311037 0.356401 0.682774 0.10932
H_ H_ 0.0378337 0.412715 0.817146 0.10932
H_ H_ 0.293387 0.420374 0.819387 0.10932
H_ H_ 0.211976 0.422123 0.811308 0.10932
H_ H_ 0.47772 0.404005 0.813073 0.10932
H_ H_ 0.193945 0.347884 0.679258 0.10932
H_ H_ 0.414341 0.381364 0.695289 0.10932
H_ H_ 0.185236 0.356363 0.813682 0.10932
H_ H_ 0.454161 0.338916 0.808662 0.10932
H_ H_ 0.218813 0.416918 0.678281 0.10932
H_ H_ 0.452845 0.436303 0.688156 0.10932
H_ H_ 0.217292 0.0844075 0.809578 0.10932
H_ H_ 0.46645 0.082579 0.814623 0.10932
H_ H_ 0.189808 0.151516 0.675903 0.10932
H_ H_ 0.413913 0.139268 0.686941 0.10932
H_ H_ 0.190693 0.150937 0.808686 0.10932
H_ H_ 0.433951 0.147366 0.820479 0.10932
H_ H_ 0.21201 0.0853459 0.672229 0.10932
H_ H_ 0.455871 0.0846198 0.683355 0.10932
H_ H_ 0.0327397 0.0736308 0.679621 0.10932
H_ H_ 0.297226 0.0780141 0.686535 0.10932
H_ H_ 0.0629415 0.145722 0.808625 0.10932
H_ H_ 0.297308 0.170039 0.805393 0.10932
H_ H_ 0.0648032 0.137667 0.672556 0.10932
H_ H_ 0.328971 0.134111 0.688994 0.10932
H_ H_ 0.0362533 0.0789349 0.809635 0.10932
H_ H_ 0.269299 0.103165 0.81358 0.10932
H_ H_ 0.10714 0.19277 0.854344 0.10932
H_ H_ 0.382719 0.316589 0.852328 0.10932
H_ H_ 0.138629 0.313081 0.851858 0.10932
H_ H_ 0.355052 0.193306 0.863246 0.10932
H_ H_ 0.141833 0.316484 0.92722 0.10932
H_ H_ 0.36412 0.195166 0.939106 0.10932
H_ H_ 0.11156 0.195418 0.933498 0.10932
H_ H_ 0.390236 0.320856 0.931238 0.10932
H_ H_ 0.116497 0.1938 0.628451 0.10932
H_ H_ 0.418526 0.262639 0.646182 0.10932
H_ H_ 0.134662 0.318919 0.634038 0.10932
H_ H_ 0.324861 0.252142 0.641875 0.10932
H_ H_ 0.130923 0.327511 0.558206 0.10932
H_ H_ 0.32493 0.26205 0.562098 0.10932
H_ H_ 0.119604 0.196506 0.549643 0.10932
H_ H_ 0.418756 0.260914 0.568363 0.10932
C_ C_ 0.0665061 0.34472 0.744352 -0.02249
C_ C_ 0.318381 0.354038 0.748078 -0.02249
C_ C_ 0.0170393 0.460378 0.75171 -0.02249
C_ C_ 0.267352 0.467079 0.750907 -0.02249
C_ C_ 0.0414072 0.403368 0.71108 -0.11473
C_ C_ 0.292693 0.411114 0.710072 -0.11473
C_ C_ 0.0593959 0.363237 0.78392 -0.11473
C_ C_ 0.310237 0.369947 0.786051 -0.11473
C_ C_ 0.0572518 0.365821 0.707214 -0.11473
C_ C_ 0.307699 0.371662 0.710899 -0.11473
C_ C_ 0.0321644 0.418364 0.750809 -0.02249
C_ C_ 0.287899 0.430844 0.75015 -0.02249
C_ C_ 0.0849301 0.307409 0.741464 0.6875
C_ C_ 0.335039 0.315006 0.74848 0.6875
C_ C_ 0.0411898 0.397563 0.788209 -0.11473
C_ C_ 0.296826 0.409872 0.788232 -0.11473
C_ C_ 0.189148 0.345287 0.745816 -0.02249
C_ C_ 0.435988 0.349682 0.745981 -0.02249
C_ C_ 0.236362 0.464313 0.745501 -0.02249
C_ C_ 0.485141 0.464593 0.754471 -0.02249
C_ C_ 0.2115 0.404705 0.782318 -0.11473
C_ C_ 0.470178 0.395905 0.783855 -0.11473
C_ C_ 0.198718 0.362767 0.708761 -0.11473
C_ C_ 0.433737 0.379781 0.713821 -0.11473
C_ C_ 0.198714 0.364512 0.784557 -0.11473
C_ C_ 0.457375 0.357374 0.77896 -0.11473
C_ C_ 0.220164 0.422663 0.744811 -0.02249
C_ C_ 0.468035 0.423669 0.751709 -0.02249
C_ C_ 0.164524 0.313502 0.745014 0.6875
C_ C_ 0.414537 0.314689 0.746751 0.6875
C_ C_ 0.212065 0.402825 0.708278 -0.11473
C_ C_ 0.45341 0.412987 0.713552 -0.11473
C_ C_ 0.184384 0.155544 0.742227 -0.02249
C_ C_ 0.424924 0.150632 0.75302 -0.02249
C_ C_ 0.23443 0.0408436 0.740334 -0.02249
C_ C_ 0.479001 0.0394167 0.749375 -0.02249
C_ C_ 0.211607 0.0991847 0.779756 -0.11473
C_ C_ 0.452637 0.0939467 0.788035 -0.11473
C_ C_ 0.193428 0.136774 0.704425 -0.11473
C_ C_ 0.426641 0.128771 0.714272 -0.11473
C_ C_ 0.192411 0.135453 0.780468 -0.11473
C_ C_ 0.437404 0.131559 0.788975 -0.11473
C_ C_ 0.218521 0.0795609 0.741836 -0.02249
C_ C_ 0.458406 0.0762191 0.749846 -0.02249
C_ C_ 0.165038 0.190944 0.744184 0.6875
C_ C_ 0.410563 0.191377 0.753367 0.6875
C_ C_ 0.210171 0.099959 0.702917 -0.11473
C_ C_ 0.444296 0.0922133 0.712208 -0.11473
C_ C_ 0.0692188 0.146884 0.739349 -0.02249
C_ C_ 0.317061 0.15617 0.748178 -0.02249
C_ C_ 0.013786 0.0334596 0.74653 -0.02249
C_ C_ 0.264495 0.0427792 0.750134 -0.02249
C_ C_ 0.0366328 0.0956369 0.706638 -0.11473
C_ C_ 0.295508 0.0966647 0.715577 -0.11473
C_ C_ 0.0617956 0.12675 0.778758 -0.11473
C_ C_ 0.297211 0.148659 0.781586 -0.11473
C_ C_ 0.0582295 0.127298 0.703188 -0.11473
C_ C_ 0.316442 0.129294 0.715521 -0.11473
C_ C_ 0.0320973 0.0739065 0.744957 -0.02249
C_ C_ 0.280323 0.0838416 0.750325 -0.02249
C_ C_ 0.0884169 0.18593 0.740261 0.6875
C_ C_ 0.336146 0.194435 0.7478 0.6875
C_ C_ 0.0441919 0.0907834 0.780287 -0.11473
C_ C_ 0.281771 0.111039 0.78627 -0.11473
C_ C_ 0.119132 0.217847 0.870198 0.17695
C_ C_ 0.381324 0.288991 0.872481 0.17695
C_ C_ 0.139402 0.28552 0.868737 0.17695
C_ C_ 0.362924 0.220789 0.878801 0.17695
C_ C_ 0.141334 0.286521 0.913103 -0.11473
C_ C_ 0.369202 0.220778 0.921067 -0.11473
C_ C_ 0.130707 0.254019 0.936417 0.23465
C_ C_ 0.37728 0.258075 0.943052 0.23465
C_ C_ 0.120611 0.218936 0.914107 -0.11473
C_ C_ 0.384993 0.292105 0.917038 -0.11473
C_ C_ 0.117512 0.222662 0.612146 0.17695
C_ C_ 0.398193 0.264485 0.628342 0.17695
C_ C_ 0.131713 0.292959 0.616127 0.17695
C_ C_ 0.345132 0.256482 0.625795 0.17695
C_ C_ 0.128141 0.297309 0.571974 -0.11473
C_ C_ 0.344616 0.265882 0.582894 -0.11473
C_ C_ 0.125561 0.260288 0.547799 0.23465
C_ C_ 0.372928 0.267129 0.562315 0.23465
C_ C_ 0.121949 0.223901 0.568918 -0.11473
C_ C_ 0.39828 0.262952 0.585231 -0.11473
C_ C_ 0.0320135 0.497905 0.745763 0.05793
C_ C_ 0.280461 0.5064 0.754598 0.05793
C_ C_ 0.218215 0.00319912 0.73686 0.05793
C_ C_ 0.466496 0.999158591 0.744412 0.05793
Br Br 0.0772912 0.496567 0.750469 -0.17191
Br Br 0.324597 0.513083 0.7559 -0.17191
Br Br 0.176256 0.00288848 0.720207 -0.17191
Br Br 0.424311 0.992879 0.741756 -0.17191
N_ N_ 0.129007 0.250712 0.847848 -0.272
N_ N_ 0.372049 0.253013 0.854422 -0.272
N_ N_ 0.126213 0.257749 0.980384 -0.12501
N_ N_ 0.380562 0.262213 0.986025 -0.12501
N_ N_ 0.123181 0.257553 0.635844 -0.272
N_ N_ 0.37125 0.25861 0.647477 -0.272
N_ N_ 0.128863 0.263952 0.503483 -0.12501
N_ N_ 0.376446 0.271052 0.517832 -0.12501
O_ O_ 0.0948707 0.297041 0.706878 -0.60745
O_ O_ 0.339394 0.295883 0.713725 -0.60745
O_ O_ 0.0930965 0.288625 0.775392 -0.60745
O_ O_ 0.346841 0.300875 0.78249 -0.60745
O_ O_ 0.156299 0.297196 0.778482 -0.60745
O_ O_ 0.408583 0.297397 0.780587 -0.60745
O_ O_ 0.156079 0.299286 0.709754 -0.60745
O_ O_ 0.403015 0.300903 0.71433 -0.60745
O_ O_ 0.158649 0.206906 0.779021 -0.60745
O_ O_ 0.403794 0.207045 0.787514 -0.60745
O_ O_ 0.154981 0.205774 0.709529 -0.60745
O_ O_ 0.403808 0.209766 0.718699 -0.60745
O_ O_ 0.0919007 0.204914 0.706651 -0.60745
O_ O_ 0.345301 0.207201 0.712628 -0.60745
O_ O_ 0.10045 0.200076 0.775285 -0.60745
O_ O_ 0.343804 0.212573 0.782443 -0.60745
Zn Zn 0.125718 0.753131 0.280579 0.9476
Zn Zn 0.376877 0.749153 0.2875 0.9476
Zn Zn 0.126812 0.750971 0.212392 0.9476
Zn Zn 0.378268 0.751796 0.219495 0.9476
H_ H_ 0.0391489 0.923156 0.181963 0.10932
H_ H_ 0.286499 0.92106 0.188651 0.10932
H_ H_ 0.0516474 0.839943 0.312597 0.10932
H_ H_ 0.303694 0.843629 0.321008 0.10932
H_ H_ 0.073497 0.861865 0.181239 0.10932
H_ H_ 0.322275 0.858655 0.190963 0.10932
H_ H_ 0.0195846 0.903882 0.311037 0.10932
H_ H_ 0.274837 0.907272 0.319673 0.10932
H_ H_ 0.214847 0.918711 0.311423 0.10932
H_ H_ 0.481666 0.89719 0.316878 0.10932
H_ H_ 0.188231 0.855265 0.171754 0.10932
H_ H_ 0.425809 0.870025 0.185768 0.10932
H_ H_ 0.185618 0.851984 0.310312 0.10932
H_ H_ 0.449778 0.838922 0.315193 0.10932
H_ H_ 0.212687 0.922947 0.17485 0.10932
H_ H_ 0.461064 0.928771 0.190759 0.10932
H_ H_ 0.226951 0.594329 0.315626 0.10932
H_ H_ 0.477297 0.590355 0.322469 0.10932
H_ H_ 0.172581 0.636296 0.187437 0.10932
H_ H_ 0.421857 0.635441 0.194931 0.10932
H_ H_ 0.198858 0.661581 0.316942 0.10932
H_ H_ 0.450665 0.656952 0.324374 0.10932
H_ H_ 0.198645 0.572979 0.185881 0.10932
H_ H_ 0.452282 0.570454 0.194504 0.10932
H_ H_ 0.0370671 0.585519 0.175023 0.10932
H_ H_ 0.298258 0.577457 0.18011 0.10932
H_ H_ 0.044799 0.659491 0.311377 0.10932
H_ H_ 0.309864 0.648002 0.321677 0.10932
H_ H_ 0.0634559 0.650802 0.176689 0.10932
H_ H_ 0.333417 0.636249 0.191176 0.10932
H_ H_ 0.0248383 0.593165 0.311213 0.10932
H_ H_ 0.288684 0.578445 0.31592 0.10932
H_ H_ 0.143543 0.816129 0.35083 0.10932
H_ H_ 0.387221 0.677707 0.363113 0.10932
H_ H_ 0.120254 0.690012 0.36371 0.10932
H_ H_ 0.375257 0.808254 0.36805 0.10932
H_ H_ 0.117533 0.69674 0.441929 0.10932
H_ H_ 0.371476 0.807671 0.441018 0.10932
H_ H_ 0.14165 0.827952 0.425388 0.10932
H_ H_ 0.379035 0.676511 0.443632 0.10932
H_ H_ 0.168219 0.759374 0.130954 0.10932
H_ H_ 0.386124 0.68458 0.138665 0.10932
H_ H_ 0.073782 0.736163 0.141841 0.10932
H_ H_ 0.379602 0.812242 0.150045 0.10932
H_ H_ 0.0675282 0.739908 0.0687467 0.10932
H_ H_ 0.374858 0.822427 0.0728017 0.10932
H_ H_ 0.164535 0.763697 0.054976 0.10932
H_ H_ 0.37559 0.687719 0.059484 0.10932
C_ C_ 0.0657426 0.846227 0.246572 -0.02249
C_ C_ 0.318653 0.850214 0.256298 -0.02249
C_ C_ 0.014646 0.96068 0.248059 -0.02249
C_ C_ 0.264899 0.96317 0.251508 -0.02249
C_ C_ 0.0415771 0.905327 0.210095 -0.11473
C_ C_ 0.29285 0.906202 0.218311 -0.11473
C_ C_ 0.051771 0.860273 0.285266 -0.11473
C_ C_ 0.303242 0.861395 0.292233 -0.11473
C_ C_ 0.0613479 0.869953 0.209912 -0.11473
C_ C_ 0.31363 0.87315 0.219241 -0.11473
C_ C_ 0.029858 0.919147 0.247595 -0.02249
C_ C_ 0.281901 0.923267 0.254838 -0.02249
C_ C_ 0.0855433 0.808952 0.24557 0.6875
C_ C_ 0.3371 0.811986 0.256765 0.6875
C_ C_ 0.034643 0.895449 0.284242 -0.11473
C_ C_ 0.286579 0.898499 0.291403 -0.11473
C_ C_ 0.185739 0.846929 0.241905 -0.02249
C_ C_ 0.43607 0.846639 0.24942 -0.02249
C_ C_ 0.232098 0.964014 0.2458 -0.02249
C_ C_ 0.490106 0.957068 0.256716 -0.02249
C_ C_ 0.208804 0.905391 0.281758 -0.11473
C_ C_ 0.469261 0.893511 0.28973 -0.11473
C_ C_ 0.192995 0.868221 0.20328 -0.11473
C_ C_ 0.438078 0.874498 0.215721 -0.11473
C_ C_ 0.193566 0.866753 0.280309 -0.11473
C_ C_ 0.452042 0.856526 0.286673 -0.11473
C_ C_ 0.214454 0.92572 0.244269 -0.02249
C_ C_ 0.472325 0.918487 0.254628 -0.02249
C_ C_ 0.163992 0.812016 0.238768 0.6875
C_ C_ 0.415742 0.810849 0.248043 0.6875
C_ C_ 0.207678 0.907449 0.205159 -0.11473
C_ C_ 0.457508 0.907968 0.217278 -0.11473
C_ C_ 0.182623 0.65354 0.25313 -0.02249
C_ C_ 0.436436 0.654226 0.257545 -0.02249
C_ C_ 0.234444 0.539164 0.252433 -0.02249
C_ C_ 0.483891 0.536656 0.254365 -0.02249
C_ C_ 0.21631 0.604309 0.28718 -0.11473
C_ C_ 0.465641 0.600867 0.295222 -0.11473
C_ C_ 0.183915 0.629951 0.216396 -0.11473
C_ C_ 0.438258 0.628731 0.22036 -0.11473
C_ C_ 0.199321 0.641468 0.289226 -0.11473
C_ C_ 0.449312 0.638433 0.295905 -0.11473
C_ C_ 0.21576 0.579132 0.250387 -0.02249
C_ C_ 0.469599 0.578641 0.256439 -0.02249
C_ C_ 0.166516 0.692985 0.25103 0.6875
C_ C_ 0.419721 0.692872 0.257119 0.6875
C_ C_ 0.199748 0.59276 0.213776 -0.11473
C_ C_ 0.455209 0.590844 0.219658 -0.11473
C_ C_ 0.0623572 0.657018 0.246749 -0.02249
C_ C_ 0.324518 0.647642 0.25596 -0.02249
C_ C_ 0.0137035 0.541531 0.237265 -0.02249
C_ C_ 0.26618 0.539577 0.246382 -0.02249
C_ C_ 0.0405626 0.600815 0.206076 -0.11473
C_ C_ 0.300231 0.593529 0.211867 -0.11473
C_ C_ 0.0477856 0.641418 0.282567 -0.11473
C_ C_ 0.30769 0.634032 0.290534 -0.11473
C_ C_ 0.0574515 0.63814 0.206462 -0.11473
C_ C_ 0.320348 0.627008 0.216069 -0.11473
C_ C_ 0.0284061 0.583243 0.241023 -0.02249
C_ C_ 0.283743 0.579733 0.246994 -0.02249
C_ C_ 0.0837079 0.69238 0.248799 0.6875
C_ C_ 0.341552 0.688111 0.259538 0.6875
C_ C_ 0.0330182 0.604233 0.280713 -0.11473
C_ C_ 0.2933 0.595491 0.287485 -0.11473
C_ C_ 0.13702 0.789767 0.371526 0.17695
C_ C_ 0.381569 0.705867 0.381471 0.17695
C_ C_ 0.12457 0.718646 0.379717 0.17695
C_ C_ 0.378942 0.778707 0.38296 0.17695
C_ C_ 0.123313 0.724329 0.422664 -0.11473
C_ C_ 0.374874 0.779691 0.426034 -0.11473
C_ C_ 0.129909 0.764095 0.440229 0.23465
C_ C_ 0.37607 0.741627 0.44827 0.23465
C_ C_ 0.135451 0.797293 0.413668 -0.11473
C_ C_ 0.375069 0.704808 0.425305 -0.11473
C_ C_ 0.14642 0.75428 0.11698 0.17695
C_ C_ 0.378189 0.713653 0.124925 0.17695
C_ C_ 0.0939001 0.739476 0.122953 0.17695
C_ C_ 0.377227 0.785306 0.129561 0.17695
C_ C_ 0.0905145 0.740816 0.0794654 -0.11473
C_ C_ 0.379544 0.790909 0.0875604 -0.11473
C_ C_ 0.114422 0.751044 0.0534072 0.23465
C_ C_ 0.38048 0.755978 0.0598348 0.23465
C_ C_ 0.143405 0.754061 0.0725811 -0.11473
C_ C_ 0.378285 0.716122 0.0800828 -0.11473
C_ C_ 0.032054 0.997649 0.254476 0.05793
C_ C_ 0.28158 1.000708543 0.249369 0.05793
C_ C_ 0.219073 0.500908 0.263859 0.05793
C_ C_ 0.466664 0.499395 0.256489 0.05793
Br Br 0.0753132 -0.010750999999999955 0.270998 -0.17191
Br Br 0.32545 1.00129868 0.255202 -0.17191
Br Br 0.176436 0.500588 0.275602 -0.17191
Br Br 0.423583 0.507285 0.267426 -0.17191
N_ N_ 0.129798 0.752582 0.354094 -0.272
N_ N_ 0.381334 0.743378 0.360796 -0.272
N_ N_ 0.130137 0.76991 0.484946 -0.12501
N_ N_ 0.369787 0.741271 0.492263 -0.12501
N_ N_ 0.121407 0.745913 0.141037 -0.272
N_ N_ 0.378353 0.747482 0.148492 -0.272
N_ N_ 0.110748 0.752758 0.00993475 -0.12501
N_ N_ 0.378662 0.763115 0.0154671 -0.12501
O_ O_ 0.0999067 0.79879 0.214749 -0.60745
O_ O_ 0.346266 0.799254 0.222866 -0.60745
O_ O_ 0.091042 0.793059 0.281302 -0.60745
O_ O_ 0.344117 0.793214 0.290713 -0.60745
O_ O_ 0.151093 0.800315 0.273097 -0.60745
O_ O_ 0.405508 0.796411 0.282459 -0.60745
O_ O_ 0.159098 0.791012 0.20614 -0.60745
O_ O_ 0.407863 0.794936 0.213702 -0.60745
O_ O_ 0.161963 0.714212 0.283456 -0.60745
O_ O_ 0.411534 0.710211 0.290489 -0.60745
O_ O_ 0.154507 0.703774 0.21635 -0.60745
O_ O_ 0.408662 0.706204 0.22253 -0.60745
O_ O_ 0.0913661 0.710779 0.215257 -0.60745
O_ O_ 0.348217 0.707391 0.226111 -0.60745
O_ O_ 0.0975584 0.703328 0.283404 -0.60745
O_ O_ 0.349545 0.700958 0.296101 -0.60745
Zn Zn 0.122806 0.751786 0.78457 0.9476
Zn Zn 0.373197 0.753844 0.787219 0.9476
Zn Zn 0.123693 0.753812 0.713795 0.9476
Zn Zn 0.372512 0.754898 0.714685 0.9476
H_ H_ 0.0450879 0.933148 0.684375 0.10932
H_ H_ 0.28877 0.923371 0.688066 0.10932
H_ H_ 0.0415371 0.835987 0.800723 0.10932
H_ H_ 0.304799 0.857232 0.825158 0.10932
H_ H_ 0.0805848 0.870375 0.684356 0.10932
H_ H_ 0.304931 0.851794 0.690831 0.10932
H_ H_ 0.011505 0.901409 0.801158 0.10932
H_ H_ 0.282472 0.924513 0.823217 0.10932
H_ H_ 0.204347 0.933549 0.811853 0.10932
H_ H_ 0.460229 0.924781 0.814557 0.10932
H_ H_ 0.183497 0.855212 0.682541 0.10932
H_ H_ 0.442014 0.845484 0.679462 0.10932
H_ H_ 0.177814 0.870828 0.818977 0.10932
H_ H_ 0.438233 0.853933 0.81748 0.10932
H_ H_ 0.211691 0.918673 0.677445 0.10932
H_ H_ 0.476883 0.91366 0.680689 0.10932
H_ H_ 0.199161 0.576255 0.81346 0.10932
H_ H_ 0.48083 0.602599 0.819331 0.10932
H_ H_ 0.188821 0.651934 0.684239 0.10932
H_ H_ 0.414375 0.626532 0.693093 0.10932
H_ H_ 0.172881 0.638435 0.816256 0.10932
H_ H_ 0.447414 0.663181 0.817683 0.10932
H_ H_ 0.217101 0.587438 0.686043 0.10932
H_ H_ 0.450559 0.569462 0.695901 0.10932
H_ H_ 0.0328502 0.581089 0.674653 0.10932
H_ H_ 0.288227 0.581098 0.68322 0.10932
H_ H_ 0.0642633 0.645443 0.809264 0.10932
H_ H_ 0.295152 0.670827 0.808438 0.10932
H_ H_ 0.0682232 0.640623 0.675275 0.10932
H_ H_ 0.317919 0.647138 0.681621 0.10932
H_ H_ 0.0417358 0.579438 0.812533 0.10932
H_ H_ 0.270962 0.600711 0.813743 0.10932
H_ H_ 0.113805 0.811975 0.860081 0.10932
H_ H_ 0.375221 0.818713 0.869981 0.10932
H_ H_ 0.136491 0.686732 0.856164 0.10932
H_ H_ 0.379784 0.688964 0.854959 0.10932
H_ H_ 0.137724 0.681365 0.931439 0.10932
H_ H_ 0.387483 0.678589 0.92983 0.10932
H_ H_ 0.11384 0.807488 0.939197 0.10932
H_ H_ 0.37981 0.808758 0.94552 0.10932
H_ H_ 0.130785 0.689025 0.6426 0.10932
H_ H_ 0.364731 0.827186 0.645527 0.10932
H_ H_ 0.129147 0.817848 0.63808 0.10932
H_ H_ 0.380448 0.697044 0.641256 0.10932
H_ H_ 0.124739 0.813161 0.558169 0.10932
H_ H_ 0.376121 0.701256 0.562364 0.10932
H_ H_ 0.126937 0.682951 0.565326 0.10932
H_ H_ 0.365885 0.831073 0.567763 0.10932
C_ C_ 0.0591675 0.844144 0.738501 -0.02249
C_ C_ 0.312579 0.851017 0.756181 -0.02249
C_ C_ 0.01141 0.960147 0.740721 -0.02249
C_ C_ 0.264191 0.967291 0.752367 -0.02249
C_ C_ 0.0467351 0.910622 0.708666 -0.11473
C_ C_ 0.289126 0.90592 0.718019 -0.11473
C_ C_ 0.0430595 0.856105 0.773939 -0.11473
C_ C_ 0.305789 0.873841 0.79433 -0.11473
C_ C_ 0.0617809 0.872757 0.706494 -0.11473
C_ C_ 0.301895 0.867131 0.718002 -0.11473
C_ C_ 0.0252636 0.91784 0.739534 -0.02249
C_ C_ 0.279755 0.92655 0.753779 -0.02249
C_ C_ 0.0813637 0.807546 0.742786 0.6875
C_ C_ 0.33337 0.816306 0.755878 0.6875
C_ C_ 0.0255661 0.891879 0.773759 -0.11473
C_ C_ 0.288629 0.910578 0.792523 -0.11473
C_ C_ 0.182114 0.852911 0.75214 -0.02249
C_ C_ 0.436829 0.846823 0.747903 -0.02249
C_ C_ 0.233319 0.966017 0.744226 -0.02249
C_ C_ 0.485495 0.96341 0.745668 -0.02249
C_ C_ 0.204085 0.914769 0.784675 -0.11473
C_ C_ 0.459912 0.90655 0.786417 -0.11473
C_ C_ 0.191971 0.86923 0.712572 -0.11473
C_ C_ 0.448765 0.861938 0.709376 -0.11473
C_ C_ 0.189378 0.875505 0.788654 -0.11473
C_ C_ 0.443709 0.867586 0.786561 -0.11473
C_ C_ 0.215671 0.929074 0.746771 -0.02249
C_ C_ 0.471038 0.922921 0.747561 -0.02249
C_ C_ 0.163614 0.813885 0.752927 0.6875
C_ C_ 0.413661 0.81256 0.74946 0.6875
C_ C_ 0.20846 0.906536 0.70913 -0.11473
C_ C_ 0.46538 0.901127 0.709253 -0.11473
C_ C_ 0.177886 0.651055 0.749553 -0.02249
C_ C_ 0.428671 0.651189 0.752717 -0.02249
C_ C_ 0.23056 0.538125 0.748948 -0.02249
C_ C_ 0.484842 0.541115 0.758466 -0.02249
C_ C_ 0.1949 0.590831 0.784227 -0.11473
C_ C_ 0.468949 0.609183 0.789095 -0.11473
C_ C_ 0.187569 0.633621 0.712476 -0.11473
C_ C_ 0.431326 0.625135 0.717846 -0.11473
C_ C_ 0.178407 0.62779 0.785316 -0.11473
C_ C_ 0.448363 0.643662 0.787795 -0.11473
C_ C_ 0.209321 0.576248 0.748542 -0.02249
C_ C_ 0.469054 0.580863 0.755004 -0.02249
C_ C_ 0.161987 0.692033 0.748862 0.6875
C_ C_ 0.41085 0.691987 0.749129 0.6875
C_ C_ 0.207216 0.600073 0.71342 -0.11473
C_ C_ 0.449801 0.58945 0.721672 -0.11473
C_ C_ 0.0672882 0.649702 0.741852 -0.02249
C_ C_ 0.310309 0.66238 0.747756 -0.02249
C_ C_ 0.0161191 0.535733 0.742178 -0.02249
C_ C_ 0.262412 0.544067 0.752918 -0.02249
C_ C_ 0.0419412 0.592092 0.704028 -0.11473
C_ C_ 0.291928 0.598194 0.712084 -0.11473
C_ C_ 0.0608236 0.629882 0.78011 -0.11473
C_ C_ 0.294965 0.648226 0.783158 -0.11473
C_ C_ 0.0617291 0.628086 0.70444 -0.11473
C_ C_ 0.30806 0.635232 0.711549 -0.11473
C_ C_ 0.0332662 0.575723 0.743335 -0.02249
C_ C_ 0.277742 0.585952 0.749522 -0.02249
C_ C_ 0.0823413 0.690608 0.743642 0.6875
C_ C_ 0.332247 0.697362 0.750065 0.6875
C_ C_ 0.0436493 0.592601 0.781358 -0.11473
C_ C_ 0.2808 0.610338 0.784903 -0.11473
C_ C_ 0.118939 0.784072 0.876772 0.17695
C_ C_ 0.375371 0.788107 0.881868 0.17695
C_ C_ 0.13325 0.713391 0.873054 0.17695
C_ C_ 0.379298 0.716237 0.87473 0.17695
C_ C_ 0.13612 0.711364 0.916138 -0.11473
C_ C_ 0.382445 0.710556 0.91805 -0.11473
C_ C_ 0.126526 0.744288 0.940232 0.23465
C_ C_ 0.383284 0.744849 0.944588 0.23465
C_ C_ 0.121831 0.782387 0.920396 -0.11473
C_ C_ 0.379023 0.783866 0.925825 -0.11473
C_ C_ 0.127181 0.714219 0.623337 0.17695
C_ C_ 0.365041 0.798389 0.626515 0.17695
C_ C_ 0.128939 0.78738 0.620754 0.17695
C_ C_ 0.3761 0.725488 0.623952 0.17695
C_ C_ 0.127497 0.78591 0.576316 -0.11473
C_ C_ 0.37765 0.727348 0.580929 -0.11473
C_ C_ 0.126022 0.747977 0.555805 0.23465
C_ C_ 0.373749 0.766098 0.560099 0.23465
C_ C_ 0.127749 0.712306 0.580231 -0.11473
C_ C_ 0.371475 0.802792 0.583098 -0.11473
C_ C_ 0.0287688 -0.004722000000000004 0.744996 0.05793
C_ C_ 0.279605 0.00518348 0.753201 0.05793
C_ C_ 0.21815 0.500173 0.741582 0.05793
C_ C_ 0.469687 0.502786 0.761178 0.05793
Br Br 0.0688657 -0.011274000000000006 0.766934 -0.17191
Br Br 0.322156 0.00351945 0.761314 -0.17191
Br Br 0.176063 0.495937 0.72903 -0.17191
Br Br 0.427686 0.500225 0.778565 -0.17191
N_ N_ 0.124594 0.749047 0.854793 -0.272
N_ N_ 0.374424 0.753384 0.856134 -0.272
N_ N_ 0.130167 0.739855 0.985813 -0.12501
N_ N_ 0.38339 0.736711 0.988428 -0.12501
N_ N_ 0.126979 0.752472 0.642064 -0.272
N_ N_ 0.37143 0.761743 0.646383 -0.272
N_ N_ 0.119843 0.743929 0.511585 -0.12501
N_ N_ 0.375295 0.770853 0.516617 -0.12501
O_ O_ 0.0920237 0.793236 0.709167 -0.60745
O_ O_ 0.342471 0.802412 0.722383 -0.60745
O_ O_ 0.0922771 0.796959 0.777863 -0.60745
O_ O_ 0.343531 0.801401 0.791833 -0.60745
O_ O_ 0.155458 0.799305 0.788797 -0.60745
O_ O_ 0.402203 0.80121 0.784704 -0.60745
O_ O_ 0.154955 0.797238 0.718842 -0.60745
O_ O_ 0.407487 0.791373 0.71696 -0.60745
O_ O_ 0.154666 0.709329 0.782769 -0.60745
O_ O_ 0.405466 0.710371 0.782481 -0.60745
O_ O_ 0.152322 0.706691 0.714648 -0.60745
O_ O_ 0.40076 0.705594 0.714643 -0.60745
O_ O_ 0.0939639 0.704189 0.711431 -0.60745
O_ O_ 0.339374 0.714109 0.714697 -0.60745
O_ O_ 0.0907905 0.706075 0.778646 -0.60745
O_ O_ 0.343657 0.708607 0.784878 -0.60745
Zn Zn 0.623345 0.247505 0.291127 0.9476
Zn Zn 0.879411 0.248425 0.288882 0.9476
Zn Zn 0.619894 0.251661 0.222027 0.9476
Zn Zn 0.874295 0.250013 0.221321 0.9476
H_ H_ 0.514962 0.401797 0.193882 0.10932
H_ H_ 0.797266 0.423777 0.19345 0.10932
H_ H_ 0.570492 0.354252 0.324673 0.10932
H_ H_ 0.800384 0.333702 0.319053 0.10932
H_ H_ 0.550461 0.337709 0.192171 0.10932
H_ H_ 0.828963 0.362701 0.197362 0.10932
H_ H_ 0.535849 0.416954 0.326237 0.10932
H_ H_ 0.77299 0.395523 0.321208 0.10932
H_ H_ 0.708282 0.417738 0.322362 0.10932
H_ H_ 0.963576 0.430826 0.314236 0.10932
H_ H_ 0.689033 0.346205 0.186257 0.10932
H_ H_ 0.939499 0.346234 0.18582 0.10932
H_ H_ 0.677443 0.355672 0.321023 0.10932
H_ H_ 0.932569 0.366107 0.321631 0.10932
H_ H_ 0.724369 0.40515 0.191409 0.10932
H_ H_ 0.973557 0.408506 0.184071 0.10932
H_ H_ 0.727829 0.0920641 0.320043 0.10932
H_ H_ 0.953168 0.0700199 0.316644 0.10932
H_ H_ 0.674146 0.139651 0.189813 0.10932
H_ H_ 0.948182 0.157774 0.190701 0.10932
H_ H_ 0.698221 0.151516 0.316575 0.10932
H_ H_ 0.925508 0.135299 0.316671 0.10932
H_ H_ 0.700286 0.0703928 0.189083 0.10932
H_ H_ 0.974266 0.0900476 0.18976 0.10932
H_ H_ 0.536227 0.0828285 0.185025 0.10932
H_ H_ 0.778673 0.0919411 0.183772 0.10932
H_ H_ 0.575231 0.13273 0.320988 0.10932
H_ H_ 0.829173 0.137534 0.31731 0.10932
H_ H_ 0.571605 0.144237 0.189267 0.10932
H_ H_ 0.818381 0.145594 0.18666 0.10932
H_ H_ 0.543654 0.0704725 0.316099 0.10932
H_ H_ 0.789234 0.079832 0.32112 0.10932
H_ H_ 0.641341 0.192359 0.367498 0.10932
H_ H_ 0.897759 0.193415 0.366381 0.10932
H_ H_ 0.622811 0.318885 0.362602 0.10932
H_ H_ 0.867055 0.316764 0.356275 0.10932
H_ H_ 0.626415 0.323558 0.438473 0.10932
H_ H_ 0.857537 0.316519 0.433498 0.10932
H_ H_ 0.636268 0.195445 0.44792 0.10932
H_ H_ 0.89756 0.19488 0.444899 0.10932
H_ H_ 0.626655 0.183357 0.137702 0.10932
H_ H_ 0.877778 0.313546 0.145214 0.10932
H_ H_ 0.608603 0.314324 0.151708 0.10932
H_ H_ 0.873081 0.184569 0.143294 0.10932
H_ H_ 0.613306 0.322425 0.0751516 0.10932
H_ H_ 0.865904 0.180929 0.0679041 0.10932
H_ H_ 0.628781 0.19597 0.0590383 0.10932
H_ H_ 0.878802 0.312168 0.0639029 0.10932
C_ C_ 0.561872 0.343056 0.257683 -0.02249
C_ C_ 0.818036 0.342201 0.258071 -0.02249
C_ C_ 0.512625 0.458649 0.255991 -0.02249
C_ C_ 0.765895 0.455066 0.259816 -0.02249
C_ C_ 0.528296 0.392469 0.222036 -0.11473
C_ C_ 0.796477 0.402714 0.220499 -0.11473
C_ C_ 0.558275 0.363607 0.295739 -0.11473
C_ C_ 0.800643 0.352149 0.293825 -0.11473
C_ C_ 0.546148 0.356184 0.220791 -0.11473
C_ C_ 0.815182 0.368196 0.222997 -0.11473
C_ C_ 0.528344 0.416913 0.258193 -0.02249
C_ C_ 0.782606 0.415431 0.258281 -0.02249
C_ C_ 0.581292 0.306284 0.255825 0.6875
C_ C_ 0.836929 0.3044 0.253284 0.6875
C_ C_ 0.541148 0.400907 0.295848 -0.11473
C_ C_ 0.783897 0.388333 0.293283 -0.11473
C_ C_ 0.679971 0.346327 0.252807 -0.02249
C_ C_ 0.934306 0.349821 0.254568 -0.02249
C_ C_ 0.734596 0.455718 0.257595 -0.02249
C_ C_ 0.98559 0.462847 0.244244 -0.02249
C_ C_ 0.706036 0.40161 0.293312 -0.11473
C_ C_ 0.957446 0.412009 0.286973 -0.11473
C_ C_ 0.69378 0.362145 0.216611 -0.11473
C_ C_ 0.946116 0.361772 0.215969 -0.11473
C_ C_ 0.689078 0.364079 0.292913 -0.11473
C_ C_ 0.941328 0.374956 0.289658 -0.11473
C_ C_ 0.719265 0.415375 0.257225 -0.02249
C_ C_ 0.970206 0.422249 0.249177 -0.02249
C_ C_ 0.658294 0.311459 0.250682 0.6875
C_ C_ 0.915425 0.311103 0.255377 0.6875
C_ C_ 0.71357 0.39557 0.218664 -0.11473
C_ C_ 0.963198 0.398904 0.213292 -0.11473
C_ C_ 0.686005 0.153738 0.253489 -0.02249
C_ C_ 0.937103 0.154756 0.255695 -0.02249
C_ C_ 0.735557 0.0366806 0.25192 -0.02249
C_ C_ 0.986065 0.0395832 0.251521 -0.02249
C_ C_ 0.717062 0.101263 0.289161 -0.11473
C_ C_ 0.957363 0.0921467 0.291773 -0.11473
C_ C_ 0.685371 0.128148 0.218337 -0.11473
C_ C_ 0.95149 0.141437 0.218036 -0.11473
C_ C_ 0.701036 0.138416 0.289065 -0.11473
C_ C_ 0.939877 0.128525 0.291244 -0.11473
C_ C_ 0.717394 0.0762091 0.251979 -0.02249
C_ C_ 0.969655 0.0796107 0.254852 -0.02249
C_ C_ 0.665222 0.191594 0.25768 0.6875
C_ C_ 0.917857 0.19408 0.256545 0.6875
C_ C_ 0.701556 0.0912089 0.216478 -0.11473
C_ C_ 0.966994 0.102821 0.219069 -0.11473
C_ C_ 0.568253 0.147847 0.256965 -0.02249
C_ C_ 0.820802 0.149267 0.253357 -0.02249
C_ C_ 0.517111 0.035514 0.247675 -0.02249
C_ C_ 0.767318 0.0382299 0.250773 -0.02249
C_ C_ 0.541359 0.0969939 0.214429 -0.11473
C_ C_ 0.791429 0.0987955 0.213406 -0.11473
C_ C_ 0.562049 0.127082 0.292784 -0.11473
C_ C_ 0.81431 0.128442 0.29036 -0.11473
C_ C_ 0.559474 0.13168 0.218305 -0.11473
C_ C_ 0.807822 0.135306 0.216004 -0.11473
C_ C_ 0.534461 0.0755871 0.25049 -0.02249
C_ C_ 0.782801 0.0793646 0.251967 -0.02249
C_ C_ 0.584788 0.189457 0.259426 0.6875
C_ C_ 0.84103 0.186289 0.255579 0.6875
C_ C_ 0.547228 0.0891238 0.288593 -0.11473
C_ C_ 0.797307 0.0925781 0.290352 -0.11473
C_ C_ 0.633586 0.218123 0.383493 0.17695
C_ C_ 0.886315 0.218254 0.381312 0.17695
C_ C_ 0.625548 0.290728 0.380276 0.17695
C_ C_ 0.871033 0.289326 0.376623 0.17695
C_ C_ 0.627264 0.29366 0.42191 -0.11473
C_ C_ 0.868759 0.291374 0.420547 -0.11473
C_ C_ 0.628275 0.258212 0.446544 0.23465
C_ C_ 0.876805 0.258293 0.446854 0.23465
C_ C_ 0.635374 0.221473 0.426802 -0.11473
C_ C_ 0.886677 0.219875 0.426596 -0.11473
C_ C_ 0.624728 0.215622 0.12467 0.17695
C_ C_ 0.873402 0.286378 0.126698 0.17695
C_ C_ 0.613507 0.286202 0.1318 0.17695
C_ C_ 0.871918 0.213017 0.127947 0.17695
C_ C_ 0.614821 0.291952 0.0881928 -0.11473
C_ C_ 0.869594 0.211298 0.0836444 -0.11473
C_ C_ 0.615448 0.257862 0.061444 0.23465
C_ C_ 0.871693 0.247831 0.0600302 0.23465
C_ C_ 0.620655 0.218247 0.0806268 -0.11473
C_ C_ 0.873667 0.285489 0.0823944 -0.11473
C_ C_ 0.529099 0.495154 0.25052 0.05793
C_ C_ 0.782568 0.491829 0.257956 0.05793
C_ C_ 0.719972 0.998512 0.256404 0.05793
C_ C_ 0.968994 1.00166059 0.245079 0.05793
Br Br 0.571594 0.490797 0.240373 -0.17191
Br Br 0.824502 0.489085 0.244724 -0.17191
Br Br 0.677224 -0.0020919999999999828 0.264732 -0.17191
Br Br 0.925981 0.0043859 0.233599 -0.17191
N_ N_ 0.629123 0.253121 0.361954 -0.272
N_ N_ 0.877398 0.252138 0.35805 -0.272
N_ N_ 0.627247 0.263735 0.490293 -0.12501
N_ N_ 0.874792 0.263593 0.491824 -0.12501
N_ N_ 0.619257 0.248862 0.149991 -0.272
N_ N_ 0.87297 0.249952 0.148224 -0.272
N_ N_ 0.614398 0.264201 0.0170879 -0.12501
N_ N_ 0.868396 0.245331 0.0147087 -0.12501
O_ O_ 0.588548 0.291842 0.219515 -0.60745
O_ O_ 0.842597 0.290101 0.217953 -0.60745
O_ O_ 0.592753 0.290782 0.289694 -0.60745
O_ O_ 0.847325 0.286686 0.285062 -0.60745
O_ O_ 0.651385 0.292956 0.284186 -0.60745
O_ O_ 0.909643 0.293505 0.290146 -0.60745
O_ O_ 0.649988 0.296536 0.216717 -0.60745
O_ O_ 0.90506 0.295337 0.220769 -0.60745
O_ O_ 0.655317 0.203101 0.293151 -0.60745
O_ O_ 0.910178 0.208938 0.290729 -0.60745
O_ O_ 0.655731 0.210748 0.225134 -0.60745
O_ O_ 0.905283 0.206113 0.223235 -0.60745
O_ O_ 0.589575 0.207183 0.225923 -0.60745
O_ O_ 0.844681 0.208078 0.222224 -0.60745
O_ O_ 0.593237 0.20487 0.293794 -0.60745
O_ O_ 0.849584 0.199311 0.290745 -0.60745
Zn Zn 0.623985 0.249064 0.788331 0.9476
Zn Zn 0.875284 0.250098 0.789636 0.9476
Zn Zn 0.620523 0.246013 0.716948 0.9476
Zn Zn 0.873695 0.250937 0.721247 0.9476
H_ H_ 0.527532 0.413088 0.681113 0.10932
H_ H_ 0.783039 0.419001 0.68866 0.10932
H_ H_ 0.560989 0.360534 0.821939 0.10932
H_ H_ 0.814359 0.352068 0.82349 0.10932
H_ H_ 0.550543 0.343136 0.688017 0.10932
H_ H_ 0.814379 0.356423 0.68845 0.10932
H_ H_ 0.535728 0.425681 0.815573 0.10932
H_ H_ 0.782405 0.418809 0.823594 0.10932
H_ H_ 0.702311 0.423456 0.819448 0.10932
H_ H_ 0.968183 0.413315 0.818911 0.10932
H_ H_ 0.700912 0.337867 0.689873 0.10932
H_ H_ 0.935011 0.35664 0.680864 0.10932
H_ H_ 0.682907 0.356689 0.824416 0.10932
H_ H_ 0.938158 0.352135 0.817944 0.10932
H_ H_ 0.722077 0.409178 0.68808 0.10932
H_ H_ 0.967854 0.420384 0.684413 0.10932
H_ H_ 0.712967 0.0816469 0.821157 0.10932
H_ H_ 0.949589 0.0665446 0.807361 0.10932
H_ H_ 0.682578 0.142493 0.683499 0.10932
H_ H_ 0.945259 0.162821 0.688397 0.10932
H_ H_ 0.687085 0.148746 0.817217 0.10932
H_ H_ 0.922534 0.134416 0.813613 0.10932
H_ H_ 0.708888 0.0778454 0.685473 0.10932
H_ H_ 0.97156 0.0937867 0.682573 0.10932
H_ H_ 0.520474 0.0931877 0.687716 0.10932
H_ H_ 0.777546 0.0869621 0.685544 0.10932
H_ H_ 0.557361 0.154357 0.824246 0.10932
H_ H_ 0.807364 0.152776 0.821419 0.10932
H_ H_ 0.554183 0.154354 0.688118 0.10932
H_ H_ 0.813892 0.148395 0.685792 0.10932
H_ H_ 0.53371 0.0864476 0.825426 0.10932
H_ H_ 0.784575 0.0816365 0.818575 0.10932
H_ H_ 0.628098 0.311919 0.868107 0.10932
H_ H_ 0.926696 0.240524 0.857496 0.10932
H_ H_ 0.611873 0.184357 0.857663 0.10932
H_ H_ 0.833622 0.246704 0.866129 0.10932
H_ H_ 0.615297 0.178717 0.933823 0.10932
H_ H_ 0.836458 0.261258 0.940553 0.10932
H_ H_ 0.62829 0.309321 0.94605 0.10932
H_ H_ 0.932685 0.238801 0.934417 0.10932
H_ H_ 0.610032 0.185876 0.6524 0.10932
H_ H_ 0.875974 0.309253 0.639636 0.10932
H_ H_ 0.629782 0.30872 0.636417 0.10932
H_ H_ 0.86908 0.180194 0.651092 0.10932
H_ H_ 0.635387 0.306425 0.564682 0.10932
H_ H_ 0.877007 0.17143 0.576574 0.10932
H_ H_ 0.609114 0.177446 0.569595 0.10932
H_ H_ 0.892404 0.299973 0.565606 0.10932
C_ C_ 0.564502 0.350919 0.753685 -0.02249
C_ C_ 0.815489 0.346813 0.756836 -0.02249
C_ C_ 0.516735 0.46572 0.750627 -0.02249
C_ C_ 0.763854 0.461256 0.755892 -0.02249
C_ C_ 0.537817 0.40335 0.711941 -0.11473
C_ C_ 0.788857 0.404031 0.718192 -0.11473
C_ C_ 0.557108 0.372974 0.790811 -0.11473
C_ C_ 0.804656 0.363788 0.794808 -0.11473
C_ C_ 0.550974 0.363875 0.714492 -0.11473
C_ C_ 0.805344 0.366456 0.718359 -0.11473
C_ C_ 0.534321 0.426465 0.747892 -0.02249
C_ C_ 0.781397 0.420954 0.756147 -0.02249
C_ C_ 0.581908 0.310221 0.754225 0.6875
C_ C_ 0.836873 0.31201 0.755119 0.6875
C_ C_ 0.543708 0.411093 0.787193 -0.11473
C_ C_ 0.788867 0.401443 0.794837 -0.11473
C_ C_ 0.684811 0.343155 0.75547 -0.02249
C_ C_ 0.934862 0.348653 0.748722 -0.02249
C_ C_ 0.73159 0.458791 0.753756 -0.02249
C_ C_ 0.984861 0.462389 0.751437 -0.02249
C_ C_ 0.702352 0.405753 0.791597 -0.11473
C_ C_ 0.959415 0.404211 0.788357 -0.11473
C_ C_ 0.69707 0.357439 0.717747 -0.11473
C_ C_ 0.941651 0.368212 0.711178 -0.11473
C_ C_ 0.689484 0.367122 0.793203 -0.11473
C_ C_ 0.943142 0.367333 0.788191 -0.11473
C_ C_ 0.717349 0.417491 0.756025 -0.02249
C_ C_ 0.966493 0.424831 0.75177 -0.02249
C_ C_ 0.663869 0.305398 0.755195 0.6875
C_ C_ 0.912838 0.311455 0.75171 0.6875
C_ C_ 0.711467 0.396239 0.717056 -0.11473
C_ C_ 0.958466 0.407249 0.713005 -0.11473
C_ C_ 0.680771 0.14999 0.750412 -0.02249
C_ C_ 0.936938 0.156837 0.755267 -0.02249
C_ C_ 0.733274 0.0368201 0.755871 -0.02249
C_ C_ 0.982119 0.0362729 0.744685 -0.02249
C_ C_ 0.707238 0.0967672 0.789845 -0.11473
C_ C_ 0.95135 0.0905397 0.784038 -0.11473
C_ C_ 0.689396 0.129454 0.713358 -0.11473
C_ C_ 0.948764 0.143324 0.715967 -0.11473
C_ C_ 0.692365 0.134524 0.789668 -0.11473
C_ C_ 0.935988 0.129072 0.787211 -0.11473
C_ C_ 0.714256 0.0752226 0.752804 -0.02249
C_ C_ 0.965997 0.0788703 0.747318 -0.02249
C_ C_ 0.659017 0.185105 0.751196 0.6875
C_ C_ 0.915337 0.191696 0.754185 0.6875
C_ C_ 0.705921 0.0932075 0.714301 -0.11473
C_ C_ 0.964066 0.106336 0.712035 -0.11473
C_ C_ 0.556642 0.160316 0.756335 -0.02249
C_ C_ 0.814796 0.154553 0.754335 -0.02249
C_ C_ 0.509559 0.042552 0.75501 -0.02249
C_ C_ 0.76502 0.0395561 0.753472 -0.02249
C_ C_ 0.529107 0.104268 0.716811 -0.11473
C_ C_ 0.788353 0.0988948 0.714941 -0.11473
C_ C_ 0.548536 0.140609 0.794317 -0.11473
C_ C_ 0.804499 0.135588 0.790684 -0.11473
C_ C_ 0.545497 0.142102 0.718052 -0.11473
C_ C_ 0.805664 0.136048 0.715399 -0.11473
C_ C_ 0.524508 0.0827401 0.755541 -0.02249
C_ C_ 0.780927 0.0793753 0.751943 -0.02249
C_ C_ 0.577059 0.196766 0.755787 0.6875
C_ C_ 0.83443 0.189958 0.756186 0.6875
C_ C_ 0.536631 0.0997768 0.79349 -0.11473
C_ C_ 0.791107 0.0964099 0.790493 -0.11473
C_ C_ 0.622778 0.283359 0.88314 0.17695
C_ C_ 0.907202 0.242774 0.876749 0.17695
C_ C_ 0.615879 0.211867 0.877077 0.17695
C_ C_ 0.854801 0.252025 0.880711 0.17695
C_ C_ 0.614675 0.208889 0.92134 -0.11473
C_ C_ 0.85679 0.25686 0.924136 -0.11473
C_ C_ 0.620441 0.241682 0.947697 0.23465
C_ C_ 0.885127 0.250238 0.945649 0.23465
C_ C_ 0.622702 0.281619 0.927746 -0.11473
C_ C_ 0.910152 0.239621 0.92037 -0.11473
C_ C_ 0.616063 0.210628 0.629203 0.17695
C_ C_ 0.878626 0.279683 0.626498 0.17695
C_ C_ 0.631147 0.279694 0.623564 0.17695
C_ C_ 0.872978 0.206969 0.631633 0.17695
C_ C_ 0.630479 0.27694 0.57925 -0.11473
C_ C_ 0.873222 0.203934 0.587738 -0.11473
C_ C_ 0.626511 0.238177 0.559748 0.23465
C_ C_ 0.880745 0.23775 0.562189 0.23465
C_ C_ 0.61767 0.205574 0.585758 -0.11473
C_ C_ 0.881722 0.276083 0.582488 -0.11473
C_ C_ 0.532698 0.504295 0.753703 0.05793
C_ C_ 0.777383 0.499554 0.752216 0.05793
C_ C_ 0.717854 -0.0018089999999999495 0.751352 0.05793
C_ C_ 0.965083 0.00239371 0.735063 0.05793
Br Br 0.574422 0.502062 0.768237 -0.17191
Br Br 0.820942 0.504072 0.752878 -0.17191
Br Br 0.673827 -0.003646999999999956 0.757831 -0.17191
Br Br 0.922964 0.00569828 0.720722 -0.17191
N_ N_ 0.621954 0.249058 0.859057 -0.272
N_ N_ 0.879853 0.246322 0.858173 -0.272
N_ N_ 0.620733 0.235433 0.991715 -0.12501
N_ N_ 0.890264 0.25198 0.990525 -0.12501
N_ N_ 0.622238 0.246633 0.64647 -0.272
N_ N_ 0.875336 0.245297 0.651483 -0.272
N_ N_ 0.627536 0.233559 0.514885 -0.12501
N_ N_ 0.881856 0.234924 0.517658 -0.12501
O_ O_ 0.593534 0.298415 0.71907 -0.60745
O_ O_ 0.844589 0.29973 0.720292 -0.60745
O_ O_ 0.592313 0.293748 0.788212 -0.60745
O_ O_ 0.844839 0.292054 0.789743 -0.60745
O_ O_ 0.653279 0.293043 0.789852 -0.60745
O_ O_ 0.905913 0.295604 0.786808 -0.60745
O_ O_ 0.657781 0.288122 0.719084 -0.60745
O_ O_ 0.905655 0.292349 0.718496 -0.60745
O_ O_ 0.651857 0.202802 0.786054 -0.60745
O_ O_ 0.90937 0.211767 0.788347 -0.60745
O_ O_ 0.644691 0.19562 0.716984 -0.60745
O_ O_ 0.905076 0.205645 0.719756 -0.60745
O_ O_ 0.581285 0.217164 0.722096 -0.60745
O_ O_ 0.839296 0.209905 0.723147 -0.60745
O_ O_ 0.595391 0.200884 0.785767 -0.60745
O_ O_ 0.846434 0.202358 0.791146 -0.60745
Zn Zn 0.628335 0.743903 0.288693 0.9476
Zn Zn 0.876529 0.74839 0.272531 0.9476
Zn Zn 0.627151 0.742952 0.218343 0.9476
Zn Zn 0.87207 0.74766 0.202001 0.9476
H_ H_ 0.519838 0.899502 0.184438 0.10932
H_ H_ 0.783016 0.922807 0.179285 0.10932
H_ H_ 0.588681 0.86133 0.305476 0.10932
H_ H_ 0.815653 0.848361 0.303485 0.10932
H_ H_ 0.546941 0.831872 0.185346 0.10932
H_ H_ 0.802466 0.853194 0.170406 0.10932
H_ H_ 0.558973 0.922657 0.308852 0.10932
H_ H_ 0.792606 0.914259 0.311512 0.10932
H_ H_ 0.724698 0.907737 0.319778 0.10932
H_ H_ 0.962188 0.918012 0.312913 0.10932
H_ H_ 0.681734 0.854704 0.185519 0.10932
H_ H_ 0.943587 0.846337 0.177183 0.10932
H_ H_ 0.693824 0.846083 0.32023 0.10932
H_ H_ 0.932093 0.850328 0.309089 0.10932
H_ H_ 0.715018 0.916388 0.186865 0.10932
H_ H_ 0.967354 0.912526 0.177334 0.10932
H_ H_ 0.728146 0.581985 0.327315 0.10932
H_ H_ 0.953792 0.566928 0.299747 0.10932
H_ H_ 0.689801 0.645527 0.192369 0.10932
H_ H_ 0.948559 0.660251 0.178259 0.10932
H_ H_ 0.695372 0.645524 0.332069 0.10932
H_ H_ 0.922616 0.633345 0.301613 0.10932
H_ H_ 0.708908 0.575826 0.192764 0.10932
H_ H_ 0.971072 0.591454 0.17251 0.10932
H_ H_ 0.520693 0.591515 0.191255 0.10932
H_ H_ 0.775702 0.576226 0.18939 0.10932
H_ H_ 0.576596 0.629571 0.316682 0.10932
H_ H_ 0.817551 0.652361 0.313668 0.10932
H_ H_ 0.552545 0.652349 0.189305 0.10932
H_ H_ 0.810231 0.635336 0.176339 0.10932
H_ H_ 0.543659 0.568711 0.317711 0.10932
H_ H_ 0.799579 0.581004 0.323405 0.10932
H_ H_ 0.625876 0.675686 0.36136 0.10932
H_ H_ 0.861507 0.809847 0.342767 0.10932
H_ H_ 0.626946 0.807106 0.361757 0.10932
H_ H_ 0.897621 0.691232 0.354976 0.10932
H_ H_ 0.626391 0.806058 0.441108 0.10932
H_ H_ 0.899266 0.697212 0.433536 0.10932
H_ H_ 0.634238 0.67163 0.439688 0.10932
H_ H_ 0.856566 0.81642 0.419937 0.10932
H_ H_ 0.577457 0.746894 0.141255 0.10932
H_ H_ 0.876432 0.679412 0.130703 0.10932
H_ H_ 0.669361 0.718177 0.142088 0.10932
H_ H_ 0.875832 0.81348 0.133036 0.10932
H_ H_ 0.66823 0.714014 0.0656386 0.10932
H_ H_ 0.879131 0.815051 0.0598966 0.10932
H_ H_ 0.575226 0.753566 0.0636699 0.10932
H_ H_ 0.871034 0.68199 0.0499341 0.10932
C_ C_ 0.568507 0.840894 0.245553 -0.02249
C_ C_ 0.815892 0.847081 0.236892 -0.02249
C_ C_ 0.520705 0.957791 0.251372 -0.02249
C_ C_ 0.766705 0.96264 0.250088 -0.02249
C_ C_ 0.534791 0.891178 0.211269 -0.11473
C_ C_ 0.789053 0.905208 0.206295 -0.11473
C_ C_ 0.573099 0.868457 0.280464 -0.11473
C_ C_ 0.807573 0.86271 0.276317 -0.11473
C_ C_ 0.551209 0.852458 0.211018 -0.11473
C_ C_ 0.803183 0.867935 0.202585 -0.11473
C_ C_ 0.538252 0.918611 0.247859 -0.02249
C_ C_ 0.783523 0.922047 0.2462 -0.02249
C_ C_ 0.586241 0.801113 0.24553 0.6875
C_ C_ 0.8345 0.809177 0.234747 0.6875
C_ C_ 0.557681 0.90745 0.280834 -0.11473
C_ C_ 0.795992 0.902007 0.28087 -0.11473
C_ C_ 0.685346 0.846266 0.252127 -0.02249
C_ C_ 0.930614 0.847812 0.242922 -0.02249
C_ C_ 0.735662 0.960282 0.254462 -0.02249
C_ C_ 0.98336 0.961246 0.246051 -0.02249
C_ C_ 0.718571 0.894555 0.290036 -0.11473
C_ C_ 0.957146 0.901407 0.282753 -0.11473
C_ C_ 0.692041 0.865523 0.214207 -0.11473
C_ C_ 0.944541 0.863839 0.205782 -0.11473
C_ C_ 0.699893 0.859471 0.290846 -0.11473
C_ C_ 0.939357 0.864492 0.282151 -0.11473
C_ C_ 0.720838 0.918167 0.253014 -0.02249
C_ C_ 0.965864 0.921936 0.244726 -0.02249
C_ C_ 0.66747 0.805765 0.252252 0.6875
C_ C_ 0.913217 0.808253 0.239348 0.6875
C_ C_ 0.709744 0.901316 0.215237 -0.11473
C_ C_ 0.959635 0.902203 0.206508 -0.11473
C_ C_ 0.68846 0.648851 0.263318 -0.02249
C_ C_ 0.930705 0.65131 0.238979 -0.02249
C_ C_ 0.736708 0.533308 0.256964 -0.02249
C_ C_ 0.98168 0.53794 0.238139 -0.02249
C_ C_ 0.718969 0.594671 0.298038 -0.11473
C_ C_ 0.94941 0.587444 0.272773 -0.11473
C_ C_ 0.696767 0.633185 0.223467 -0.11473
C_ C_ 0.948461 0.64102 0.203862 -0.11473
C_ C_ 0.7016 0.631789 0.300715 -0.11473
C_ C_ 0.934153 0.625281 0.274425 -0.11473
C_ C_ 0.721506 0.574419 0.259045 -0.02249
C_ C_ 0.963738 0.576341 0.236356 -0.02249
C_ C_ 0.668506 0.685174 0.262869 0.6875
C_ C_ 0.912772 0.690958 0.238499 0.6875
C_ C_ 0.710417 0.593612 0.221584 -0.11473
C_ C_ 0.962413 0.602842 0.201417 -0.11473
C_ C_ 0.569616 0.646252 0.251876 -0.02249
C_ C_ 0.81794 0.647785 0.244366 -0.02249
C_ C_ 0.515146 0.534416 0.248749 -0.02249
C_ C_ 0.768783 0.531999 0.257781 -0.02249
C_ C_ 0.536314 0.597249 0.216697 -0.11473
C_ C_ 0.788663 0.590508 0.215871 -0.11473
C_ C_ 0.566086 0.619453 0.28836 -0.11473
C_ C_ 0.810311 0.633327 0.285746 -0.11473
C_ C_ 0.552911 0.632978 0.216424 -0.11473
C_ C_ 0.805768 0.624774 0.20871 -0.11473
C_ C_ 0.534327 0.571527 0.250561 -0.02249
C_ C_ 0.787146 0.570941 0.255129 -0.02249
C_ C_ 0.587654 0.684707 0.253151 0.6875
C_ C_ 0.8358 0.687083 0.240314 0.6875
C_ C_ 0.546842 0.586165 0.288857 -0.11473
C_ C_ 0.798982 0.593512 0.290812 -0.11473
C_ C_ 0.624783 0.705064 0.380393 0.17695
C_ C_ 0.863162 0.781733 0.3626 0.17695
C_ C_ 0.629681 0.777346 0.380083 0.17695
C_ C_ 0.886754 0.716194 0.369386 0.17695
C_ C_ 0.633745 0.777281 0.4232 -0.11473
C_ C_ 0.887704 0.72114 0.41336 -0.11473
C_ C_ 0.632345 0.739761 0.44605 0.23465
C_ C_ 0.873751 0.75589 0.431802 0.23465
C_ C_ 0.630327 0.703141 0.423865 -0.11473
C_ C_ 0.861329 0.787017 0.405556 -0.11473
C_ C_ 0.59823 0.749998 0.124185 0.17695
C_ C_ 0.874512 0.710094 0.112707 0.17695
C_ C_ 0.64922 0.728317 0.124909 0.17695
C_ C_ 0.875788 0.782694 0.116617 0.17695
C_ C_ 0.648705 0.727779 0.0802224 -0.11473
C_ C_ 0.875768 0.784968 0.0735303 -0.11473
C_ C_ 0.622303 0.736668 0.0577287 0.23465
C_ C_ 0.875189 0.748774 0.0481659 0.23465
C_ C_ 0.597261 0.748904 0.0803538 -0.11473
C_ C_ 0.871437 0.710885 0.0693879 -0.11473
C_ C_ 0.5332 0.997468 0.243916 0.05793
C_ C_ 0.782693 1.000499046 0.251363 0.05793
C_ C_ 0.720167 0.494106 0.257632 0.05793
C_ C_ 0.967981 0.499097 0.240761 0.05793
Br Br 0.57581 0.998864 0.226218 -0.17191
Br Br 0.82475 1.00314774 0.242515 -0.17191
Br Br 0.677912 0.496173 0.25198 -0.17191
Br Br 0.924927 0.49014 0.23135 -0.17191
N_ N_ 0.624495 0.741928 0.359279 -0.272
N_ N_ 0.876292 0.747664 0.34441 -0.272
N_ N_ 0.637632 0.737761 0.489913 -0.12501
N_ N_ 0.878483 0.764683 0.476465 -0.12501
N_ N_ 0.624952 0.741593 0.144926 -0.272
N_ N_ 0.874009 0.744507 0.136303 -0.272
N_ N_ 0.621616 0.745948 0.0150637 -0.12501
N_ N_ 0.883201 0.750167 0.00523732 -0.12501
O_ O_ 0.59467 0.784609 0.212614 -0.60745
O_ O_ 0.840939 0.792595 0.199159 -0.60745
O_ O_ 0.593437 0.786335 0.280096 -0.60745
O_ O_ 0.842138 0.791375 0.268349 -0.60745
O_ O_ 0.659435 0.790248 0.287022 -0.60745
O_ O_ 0.904274 0.791457 0.273461 -0.60745
O_ O_ 0.65948 0.789812 0.217649 -0.60745
O_ O_ 0.905344 0.791747 0.204128 -0.60745
O_ O_ 0.66109 0.702839 0.297122 -0.60745
O_ O_ 0.906329 0.706613 0.27335 -0.60745
O_ O_ 0.656829 0.698911 0.229774 -0.60745
O_ O_ 0.899311 0.700763 0.205899 -0.60745
O_ O_ 0.596058 0.699645 0.219544 -0.60745
O_ O_ 0.839054 0.702731 0.203272 -0.60745
O_ O_ 0.599864 0.695827 0.287272 -0.60745
O_ O_ 0.847121 0.703449 0.272743 -0.60745
Zn Zn 0.626394 0.756283 0.786674 0.9476
Zn Zn 0.875894 0.747227 0.774772 0.9476
Zn Zn 0.625592 0.753943 0.717326 0.9476
Zn Zn 0.871799 0.748136 0.705322 0.9476
H_ H_ 0.542738 0.930741 0.68853 0.10932
H_ H_ 0.770043 0.917302 0.684533 0.10932
H_ H_ 0.56842 0.864153 0.823253 0.10932
H_ H_ 0.836091 0.873409 0.801258 0.10932
H_ H_ 0.57342 0.866113 0.688263 0.10932
H_ H_ 0.796668 0.847719 0.675065 0.10932
H_ H_ 0.530415 0.920588 0.817128 0.10932
H_ H_ 0.797873 0.927161 0.81118 0.10932
H_ H_ 0.725298 0.912102 0.81715 0.10932
H_ H_ 0.940802 0.934216 0.799107 0.10932
H_ H_ 0.685382 0.850988 0.686765 0.10932
H_ H_ 0.947861 0.838005 0.680592 0.10932
H_ H_ 0.698689 0.847629 0.821562 0.10932
H_ H_ 0.914653 0.870734 0.802346 0.10932
H_ H_ 0.710051 0.918473 0.686356 0.10932
H_ H_ 0.976122 0.904411 0.679612 0.10932
H_ H_ 0.715512 0.580025 0.819206 0.10932
H_ H_ 0.974116 0.589203 0.80845 0.10932
H_ H_ 0.687418 0.64835 0.685342 0.10932
H_ H_ 0.938847 0.647122 0.673633 0.10932
H_ H_ 0.688158 0.648831 0.818843 0.10932
H_ H_ 0.944125 0.651024 0.808949 0.10932
H_ H_ 0.705527 0.576901 0.683253 0.10932
H_ H_ 0.963045 0.575432 0.6739 0.10932
H_ H_ 0.514082 0.600511 0.696304 0.10932
H_ H_ 0.781891 0.575102 0.680036 0.10932
H_ H_ 0.579586 0.642096 0.817174 0.10932
H_ H_ 0.809285 0.652304 0.803936 0.10932
H_ H_ 0.54488 0.666523 0.69354 0.10932
H_ H_ 0.806056 0.63867 0.670292 0.10932
H_ H_ 0.552173 0.57361 0.817005 0.10932
H_ H_ 0.773268 0.593119 0.811304 0.10932
H_ H_ 0.628377 0.687329 0.847037 0.10932
H_ H_ 0.870031 0.676697 0.844279 0.10932
H_ H_ 0.616547 0.813114 0.874216 0.10932
H_ H_ 0.881693 0.806646 0.858634 0.10932
H_ H_ 0.616086 0.798294 0.949029 0.10932
H_ H_ 0.876613 0.798257 0.934785 0.10932
H_ H_ 0.632306 0.669466 0.92351 0.10932
H_ H_ 0.865674 0.668868 0.920409 0.10932
H_ H_ 0.622521 0.690642 0.644107 0.10932
H_ H_ 0.863313 0.809708 0.622413 0.10932
H_ H_ 0.639183 0.819988 0.646863 0.10932
H_ H_ 0.888999 0.684338 0.635921 0.10932
H_ H_ 0.639951 0.82026 0.566169 0.10932
H_ H_ 0.890694 0.677747 0.557464 0.10932
H_ H_ 0.61087 0.693424 0.565907 0.10932
H_ H_ 0.875693 0.809079 0.549643 0.10932
C_ C_ 0.570352 0.855727 0.755344 -0.02249
C_ C_ 0.81761 0.852702 0.738333 -0.02249
C_ C_ 0.516605 0.967034 0.752342 -0.02249
C_ C_ 0.767049 0.964524 0.751167 -0.02249
C_ C_ 0.548435 0.914828 0.716679 -0.11473
C_ C_ 0.783372 0.903397 0.709741 -0.11473
C_ C_ 0.560903 0.876706 0.793961 -0.11473
C_ C_ 0.819801 0.877868 0.777224 -0.11473
C_ C_ 0.563226 0.875436 0.716724 -0.11473
C_ C_ 0.798013 0.864207 0.705043 -0.11473
C_ C_ 0.537293 0.931603 0.752334 -0.02249
C_ C_ 0.784325 0.925808 0.747188 -0.02249
C_ C_ 0.586483 0.814711 0.755527 0.6875
C_ C_ 0.833796 0.812368 0.736373 0.6875
C_ C_ 0.542518 0.91145 0.789964 -0.11473
C_ C_ 0.800241 0.9114 0.781865 -0.11473
C_ C_ 0.690042 0.843263 0.753831 -0.02249
C_ C_ 0.931521 0.847555 0.742153 -0.02249
C_ C_ 0.734568 0.962505 0.751437 -0.02249
C_ C_ 0.979429 0.963838 0.737009 -0.02249
C_ C_ 0.715403 0.900285 0.789395 -0.11473
C_ C_ 0.942721 0.914561 0.772618 -0.11473
C_ C_ 0.693735 0.864704 0.715204 -0.11473
C_ C_ 0.947818 0.857413 0.70664 -0.11473
C_ C_ 0.701339 0.861713 0.791302 -0.11473
C_ C_ 0.928831 0.876877 0.774985 -0.11473
C_ C_ 0.718167 0.921927 0.752234 -0.02249
C_ C_ 0.959787 0.924925 0.737296 -0.02249
C_ C_ 0.667565 0.809413 0.754635 0.6875
C_ C_ 0.911483 0.810918 0.74332 0.6875
C_ C_ 0.705843 0.904083 0.714808 -0.11473
C_ C_ 0.96235 0.895851 0.704644 -0.11473
C_ C_ 0.683952 0.653136 0.751233 -0.02249
C_ C_ 0.934937 0.651666 0.742441 -0.02249
C_ C_ 0.729103 0.534662 0.752426 -0.02249
C_ C_ 0.98509 0.536487 0.743742 -0.02249
C_ C_ 0.706975 0.593607 0.790382 -0.11473
C_ C_ 0.963818 0.599324 0.778917 -0.11473
C_ C_ 0.68824 0.631863 0.712927 -0.11473
C_ C_ 0.944704 0.633625 0.703656 -0.11473
C_ C_ 0.692935 0.633751 0.789248 -0.11473
C_ C_ 0.946617 0.634834 0.778781 -0.11473
C_ C_ 0.711237 0.573713 0.751657 -0.02249
C_ C_ 0.970156 0.57756 0.74272 -0.02249
C_ C_ 0.664277 0.692192 0.750785 0.6875
C_ C_ 0.914852 0.688879 0.742549 0.6875
C_ C_ 0.702561 0.591688 0.713905 -0.11473
C_ C_ 0.961469 0.595641 0.704041 -0.11473
C_ C_ 0.567614 0.65441 0.753283 -0.02249
C_ C_ 0.813727 0.647451 0.737567 -0.02249
C_ C_ 0.516724 0.54194 0.756143 -0.02249
C_ C_ 0.761254 0.536818 0.750266 -0.02249
C_ C_ 0.530759 0.607774 0.719982 -0.11473
C_ C_ 0.787239 0.590785 0.706816 -0.11473
C_ C_ 0.566923 0.630433 0.789218 -0.11473
C_ C_ 0.802192 0.63559 0.777506 -0.11473
C_ C_ 0.548836 0.643094 0.718628 -0.11473
C_ C_ 0.804253 0.625861 0.700689 -0.11473
C_ C_ 0.533888 0.581726 0.755214 -0.02249
C_ C_ 0.777331 0.577225 0.74595 -0.02249
C_ C_ 0.586702 0.693367 0.750153 0.6875
C_ C_ 0.835353 0.682878 0.735075 0.6875
C_ C_ 0.550274 0.594164 0.790888 -0.11473
C_ C_ 0.783046 0.602762 0.781812 -0.11473
C_ C_ 0.629756 0.711948 0.870456 0.17695
C_ C_ 0.871225 0.704267 0.862666 0.17695
C_ C_ 0.620398 0.781765 0.885526 0.17695
C_ C_ 0.876083 0.776813 0.870598 0.17695
C_ C_ 0.621181 0.773283 0.928469 -0.11473
C_ C_ 0.876569 0.772297 0.914823 -0.11473
C_ C_ 0.62579 0.733057 0.943442 0.23465
C_ C_ 0.872958 0.7335 0.933645 0.23465
C_ C_ 0.632215 0.702131 0.912995 -0.11473
C_ C_ 0.869543 0.699605 0.906878 -0.11473
C_ C_ 0.621358 0.719901 0.626786 0.17695
C_ C_ 0.869832 0.780873 0.609187 0.17695
C_ C_ 0.632847 0.791212 0.628354 0.17695
C_ C_ 0.883893 0.710159 0.616442 0.17695
C_ C_ 0.634693 0.792524 0.582842 -0.11473
C_ C_ 0.887223 0.708339 0.572281 -0.11473
C_ C_ 0.627999 0.756929 0.560102 0.23465
C_ C_ 0.881507 0.741857 0.546272 0.23465
C_ C_ 0.62073 0.719455 0.582311 -0.11473
C_ C_ 0.876096 0.779252 0.566319 -0.11473
C_ C_ 0.529408 0.00693308 0.754991 0.05793
C_ C_ 0.781855 0.0033279 0.750209 0.05793
C_ C_ 0.714644 0.496488 0.753453 0.05793
C_ C_ 0.969308 0.499692 0.745709 0.05793
Br Br 0.571975 0.0124554 0.758668 -0.17191
Br Br 0.826272 1.00483101 0.752088 -0.17191
Br Br 0.672747 0.493391 0.743764 -0.17191
Br Br 0.92683 0.502607 0.74344 -0.17191
N_ N_ 0.626703 0.751644 0.857811 -0.272
N_ N_ 0.874361 0.743123 0.845195 -0.272
N_ N_ 0.630029 0.721246 0.987168 -0.12501
N_ N_ 0.868141 0.729261 0.977074 -0.12501
N_ N_ 0.624129 0.755988 0.648072 -0.272
N_ N_ 0.873794 0.745977 0.633012 -0.272
N_ N_ 0.624062 0.761675 0.515911 -0.12501
N_ N_ 0.884779 0.736847 0.501742 -0.12501
O_ O_ 0.596189 0.799884 0.720691 -0.60745
O_ O_ 0.839363 0.79652 0.700757 -0.60745
O_ O_ 0.597998 0.801564 0.790211 -0.60745
O_ O_ 0.841791 0.794061 0.769641 -0.60745
O_ O_ 0.658337 0.795465 0.790533 -0.60745
O_ O_ 0.906286 0.793236 0.776606 -0.60745
O_ O_ 0.657315 0.79392 0.720747 -0.60745
O_ O_ 0.90113 0.795459 0.710272 -0.60745
O_ O_ 0.655504 0.708109 0.78485 -0.60745
O_ O_ 0.906127 0.702233 0.776778 -0.60745
O_ O_ 0.656931 0.708954 0.715353 -0.60745
O_ O_ 0.904102 0.705975 0.709762 -0.60745
O_ O_ 0.594441 0.708656 0.715891 -0.60745
O_ O_ 0.840697 0.700283 0.7005 -0.60745
O_ O_ 0.59322 0.713428 0.783804 -0.60745
O_ O_ 0.845882 0.69803 0.768475 -0.60745
