_cell_length_a 44.444
_cell_length_b 32.3360000049186
_cell_length_c 31.843999878906452
_cell_angle_alpha 89.99799923859553
_cell_angle_beta 91.13600050494348
_cell_angle_gamma 89.9990006550086
_symmetry_space_group_name_H-M         'P 1'
_symmetry_Int_Tables_number            1
loop_
_symmetry_equiv_pos_as_xyz
   'x, y, z'
                         
loop_
_atom_site_label
_atom_site_type_symbol
_atom_site_fract_x 
_atom_site_fract_y
_atom_site_fract_z
_atom_site_charge
Zn Zn 0.123936 0.250286 0.2839 0.9476
Zn Zn 0.375915 0.252158 0.287755 0.9476
Zn Zn 0.12507 0.246998 0.214818 0.9476
Zn Zn 0.374544 0.247239 0.217729 0.9476
H_ H_ 0.0384196 0.42142 0.184455 0.10932
H_ H_ 0.273979 0.406229 0.178577 0.10932
H_ H_ 0.0512089 0.340524 0.315807 0.10932
H_ H_ 0.318846 0.361243 0.31556 0.10932
H_ H_ 0.0716878 0.36106 0.184309 0.10932
H_ H_ 0.303097 0.338748 0.183717 0.10932
H_ H_ 0.0252091 0.405248 0.314088 0.10932
H_ H_ 0.289136 0.425406 0.308381 0.10932
H_ H_ 0.220259 0.410856 0.316007 0.10932
H_ H_ 0.476979 0.407573 0.311017 0.10932
H_ H_ 0.182278 0.353358 0.1811 0.10932
H_ H_ 0.414959 0.362283 0.191078 0.10932
H_ H_ 0.194231 0.345638 0.313989 0.10932
H_ H_ 0.454452 0.337335 0.312315 0.10932
H_ H_ 0.207328 0.420145 0.181005 0.10932
H_ H_ 0.44652 0.424972 0.185699 0.10932
H_ H_ 0.22528 0.0898522 0.3204 0.10932
H_ H_ 0.460319 0.0742489 0.316156 0.10932
H_ H_ 0.174145 0.13294 0.18961 0.10932
H_ H_ 0.439515 0.155323 0.187045 0.10932
H_ H_ 0.195587 0.154712 0.320362 0.10932
H_ H_ 0.436869 0.14411 0.322905 0.10932
H_ H_ 0.209245 0.0735742 0.192428 0.10932
H_ H_ 0.461856 0.0834366 0.182161 0.10932
H_ H_ 0.0306754 0.0881356 0.177586 0.10932
H_ H_ 0.269586 0.0921561 0.186047 0.10932
H_ H_ 0.0563792 0.149338 0.316705 0.10932
H_ H_ 0.329305 0.136703 0.313312 0.10932
H_ H_ 0.0638746 0.15172 0.181131 0.10932
H_ H_ 0.295125 0.159398 0.185887 0.10932
H_ H_ 0.0346391 0.0764645 0.310615 0.10932
H_ H_ 0.30378 0.0687608 0.311855 0.10932
H_ H_ 0.113534 0.310923 0.362093 0.10932
H_ H_ 0.378389 0.314329 0.358741 0.10932
H_ H_ 0.135829 0.185754 0.353249 0.10932
H_ H_ 0.372935 0.187302 0.365384 0.10932
H_ H_ 0.132697 0.179055 0.428953 0.10932
H_ H_ 0.370854 0.189629 0.445199 0.10932
H_ H_ 0.115916 0.30912 0.440447 0.10932
H_ H_ 0.373922 0.323313 0.431773 0.10932
H_ H_ 0.139814 0.306272 0.13919 0.10932
H_ H_ 0.367944 0.31151 0.136307 0.10932
H_ H_ 0.105369 0.18496 0.145405 0.10932
H_ H_ 0.388471 0.185497 0.143628 0.10932
H_ H_ 0.103422 0.179113 0.0675039 0.10932
H_ H_ 0.385414 0.182161 0.0623495 0.10932
H_ H_ 0.135309 0.302895 0.0617841 0.10932
H_ H_ 0.360041 0.309237 0.0609974 0.10932
C_ C_ 0.0653415 0.346306 0.249968 -0.02249
C_ C_ 0.317856 0.347652 0.249183 -0.02249
C_ C_ 0.0126586 0.460117 0.24822 -0.02249
C_ C_ 0.26914 0.462045 0.245071 -0.02249
C_ C_ 0.0421341 0.403075 0.212108 -0.11473
C_ C_ 0.288758 0.398264 0.206133 -0.11473
C_ C_ 0.0517622 0.360427 0.287136 -0.11473
C_ C_ 0.311406 0.372402 0.285593 -0.11473
C_ C_ 0.0616878 0.369548 0.213095 -0.11473
C_ C_ 0.304569 0.359284 0.210372 -0.11473
C_ C_ 0.0281294 0.41769 0.247124 -0.02249
C_ C_ 0.286576 0.423018 0.243392 -0.02249
C_ C_ 0.0865589 0.308504 0.2488 0.6875
C_ C_ 0.336839 0.310197 0.250944 0.6875
C_ C_ 0.0352967 0.397506 0.284904 -0.11473
C_ C_ 0.296808 0.409904 0.281406 -0.11473
C_ C_ 0.184019 0.345229 0.249158 -0.02249
C_ C_ 0.431574 0.344959 0.252546 -0.02249
C_ C_ 0.236949 0.461346 0.248329 -0.02249
C_ C_ 0.479689 0.460818 0.24775 -0.02249
C_ C_ 0.212857 0.400083 0.28582 -0.11473
C_ C_ 0.464165 0.396727 0.285275 -0.11473
C_ C_ 0.191244 0.365318 0.210184 -0.11473
C_ C_ 0.427145 0.371271 0.217149 -0.11473
C_ C_ 0.194877 0.363691 0.28671 -0.11473
C_ C_ 0.451865 0.357658 0.285153 -0.11473
C_ C_ 0.220158 0.419243 0.247863 -0.02249
C_ C_ 0.461121 0.421841 0.25011 -0.02249
C_ C_ 0.16432 0.30778 0.250866 0.6875
C_ C_ 0.415235 0.305011 0.255328 0.6875
C_ C_ 0.207812 0.402035 0.210103 -0.11473
C_ C_ 0.444897 0.406554 0.214 -0.11473
C_ C_ 0.182638 0.150592 0.254937 -0.02249
C_ C_ 0.432391 0.152406 0.255245 -0.02249
C_ C_ 0.23651 0.0392106 0.257436 -0.02249
C_ C_ 0.483036 0.039921 0.253149 -0.02249
C_ C_ 0.215901 0.100535 0.292898 -0.11473
C_ C_ 0.453343 0.0913246 0.289642 -0.11473
C_ C_ 0.18873 0.128117 0.21823 -0.11473
C_ C_ 0.444923 0.139476 0.216319 -0.11473
C_ C_ 0.197753 0.13728 0.292307 -0.11473
C_ C_ 0.439659 0.129301 0.292627 -0.11473
C_ C_ 0.219184 0.0776905 0.256899 -0.02249
C_ C_ 0.463625 0.0766733 0.251747 -0.02249
C_ C_ 0.164618 0.188987 0.253533 0.6875
C_ C_ 0.411656 0.188209 0.254763 0.6875
C_ C_ 0.206831 0.0918776 0.21949 -0.11473
C_ C_ 0.461429 0.101023 0.213547 -0.11473
C_ C_ 0.0620794 0.154809 0.248689 -0.02249
C_ C_ 0.314589 0.151376 0.250692 -0.02249
C_ C_ 0.0158678 0.0360376 0.24166 -0.02249
C_ C_ 0.267012 0.0380449 0.249649 -0.02249
C_ C_ 0.0397214 0.0986641 0.207082 -0.11473
C_ C_ 0.282077 0.102239 0.213998 -0.11473
C_ C_ 0.0533062 0.134061 0.285325 -0.11473
C_ C_ 0.314526 0.128174 0.286253 -0.11473
C_ C_ 0.0559108 0.13637 0.208345 -0.11473
C_ C_ 0.297564 0.139325 0.21488 -0.11473
C_ C_ 0.0336465 0.0767924 0.243911 -0.02249
C_ C_ 0.28366 0.0764746 0.250443 -0.02249
C_ C_ 0.0814942 0.193015 0.250362 0.6875
C_ C_ 0.335225 0.188126 0.248175 0.6875
C_ C_ 0.0423099 0.0943778 0.283437 -0.11473
C_ C_ 0.3008 0.0892231 0.286297 -0.11473
C_ C_ 0.117041 0.282466 0.378681 0.17695
C_ C_ 0.371209 0.287752 0.377768 0.17695
C_ C_ 0.128979 0.212809 0.373548 0.17695
C_ C_ 0.37278 0.216116 0.383424 0.17695
C_ C_ 0.128764 0.209152 0.417326 -0.11473
C_ C_ 0.369803 0.218498 0.426194 -0.11473
C_ C_ 0.123378 0.243082 0.44276 0.23465
C_ C_ 0.372134 0.256435 0.447311 0.23465
C_ C_ 0.120348 0.281728 0.422704 -0.11473
C_ C_ 0.374275 0.292078 0.420188 -0.11473
C_ C_ 0.132314 0.278441 0.122002 0.17695
C_ C_ 0.36923 0.281716 0.121351 0.17695
C_ C_ 0.110653 0.211659 0.126636 0.17695
C_ C_ 0.380649 0.210696 0.125525 0.17695
C_ C_ 0.107865 0.207562 0.0826974 -0.11473
C_ C_ 0.378914 0.207964 0.0806493 -0.11473
C_ C_ 0.117854 0.239405 0.0578008 0.23465
C_ C_ 0.371372 0.243907 0.057307 0.23465
C_ C_ 0.128027 0.276489 0.0785275 -0.11473
C_ C_ 0.368329 0.28155 0.0780408 -0.11473
C_ C_ 0.0296843 0.497647 0.254199 0.05793
C_ C_ 0.283597 0.502037 0.241544 0.05793
C_ C_ 0.220914 0.0013000000000000789 0.259385 0.05793
C_ C_ 0.469561 1.000986979 0.246663 0.05793
Br Br 0.0703767 0.493978 0.269162 -0.17191
Br Br 0.32659 0.504435 0.230248 -0.17191
Br Br 0.180075 -0.004916999999999949 0.274509 -0.17191
Br Br 0.427921 0.997425 0.227754 -0.17191
N_ N_ 0.123699 0.248918 0.355692 -0.272
N_ N_ 0.369847 0.250305 0.358772 -0.272
N_ N_ 0.129763 0.239698 0.486392 -0.12501
N_ N_ 0.366467 0.261797 0.491272 -0.12501
N_ N_ 0.12336 0.246677 0.146097 -0.272
N_ N_ 0.373281 0.247538 0.14512 -0.272
N_ N_ 0.113258 0.239577 0.0126996 -0.12501
N_ N_ 0.367583 0.241802 0.0126415 -0.12501
O_ O_ 0.0951152 0.292119 0.2149 -0.60745
O_ O_ 0.349209 0.296386 0.218166 -0.60745
O_ O_ 0.0937034 0.292122 0.282857 -0.60745
O_ O_ 0.344746 0.297993 0.286562 -0.60745
O_ O_ 0.153738 0.297367 0.285084 -0.60745
O_ O_ 0.404318 0.295686 0.290723 -0.60745
O_ O_ 0.160314 0.284647 0.218262 -0.60745
O_ O_ 0.40825 0.285458 0.22305 -0.60745
O_ O_ 0.159201 0.208294 0.286012 -0.60745
O_ O_ 0.408641 0.210477 0.286954 -0.60745
O_ O_ 0.152811 0.200501 0.218589 -0.60745
O_ O_ 0.398755 0.197372 0.220155 -0.60745
O_ O_ 0.0908592 0.207308 0.216023 -0.60745
O_ O_ 0.338313 0.208994 0.215282 -0.60745
O_ O_ 0.0941821 0.202615 0.285456 -0.60745
O_ O_ 0.345951 0.204782 0.282577 -0.60745
Zn Zn 0.127156 0.250355 0.784381 0.9476
Zn Zn 0.377664 0.252709 0.789234 0.9476
Zn Zn 0.127122 0.250728 0.711614 0.9476
Zn Zn 0.376102 0.251589 0.720779 0.9476
H_ H_ 0.0193961 0.400142 0.687554 0.10932
H_ H_ 0.281908 0.414133 0.684621 0.10932
H_ H_ 0.0779146 0.361644 0.814994 0.10932
H_ H_ 0.322436 0.363392 0.820626 0.10932
H_ H_ 0.0481663 0.340057 0.686668 0.10932
H_ H_ 0.309476 0.35136 0.686005 0.10932
H_ H_ 0.0490088 0.429682 0.815583 0.10932
H_ H_ 0.289741 0.420589 0.823012 0.10932
H_ H_ 0.230117 0.408546 0.816564 0.10932
H_ H_ 0.476579 0.416525 0.813084 0.10932
H_ H_ 0.175325 0.368765 0.68667 0.10932
H_ H_ 0.44073 0.347822 0.681745 0.10932
H_ H_ 0.198588 0.34623 0.814999 0.10932
H_ H_ 0.447741 0.35131 0.814566 0.10932
H_ H_ 0.206692 0.4265 0.684778 0.10932
H_ H_ 0.466399 0.415394 0.678531 0.10932
H_ H_ 0.22634 0.0987953 0.820763 0.10932
H_ H_ 0.458082 0.0769019 0.824558 0.10932
H_ H_ 0.17741 0.136137 0.685236 0.10932
H_ H_ 0.428815 0.141497 0.688521 0.10932
H_ H_ 0.19717 0.161078 0.817302 0.10932
H_ H_ 0.435048 0.145 0.82103 0.10932
H_ H_ 0.206521 0.0740073 0.691733 0.10932
H_ H_ 0.460475 0.0802633 0.690123 0.10932
H_ H_ 0.0298499 0.0864526 0.688131 0.10932
H_ H_ 0.279486 0.0917941 0.693322 0.10932
H_ H_ 0.0858214 0.137708 0.810891 0.10932
H_ H_ 0.315878 0.149539 0.82805 0.10932
H_ H_ 0.0546836 0.153297 0.684008 0.10932
H_ H_ 0.307926 0.156835 0.690781 0.10932
H_ H_ 0.0531342 0.0769749 0.819182 0.10932
H_ H_ 0.302721 0.0775047 0.821855 0.10932
H_ H_ 0.148748 0.308263 0.857105 0.10932
H_ H_ 0.332681 0.243316 0.861926 0.10932
H_ H_ 0.116594 0.186749 0.865291 0.10932
H_ H_ 0.420249 0.288513 0.859758 0.10932
H_ H_ 0.118763 0.189711 0.943236 0.10932
H_ H_ 0.421337 0.290044 0.93989 0.10932
H_ H_ 0.139676 0.317624 0.934503 0.10932
H_ H_ 0.332656 0.237644 0.939575 0.10932
H_ H_ 0.133032 0.193786 0.634988 0.10932
H_ H_ 0.423214 0.251275 0.646162 0.10932
H_ H_ 0.110595 0.319185 0.646286 0.10932
H_ H_ 0.328 0.240071 0.643139 0.10932
H_ H_ 0.120411 0.328829 0.566813 0.10932
H_ H_ 0.328388 0.222329 0.567488 0.10932
H_ H_ 0.128117 0.194328 0.557667 0.10932
H_ H_ 0.421889 0.256484 0.56389 0.10932
C_ C_ 0.0646889 0.344851 0.752272 -0.02249
C_ C_ 0.319871 0.352825 0.754684 -0.02249
C_ C_ 0.0163603 0.460973 0.750951 -0.02249
C_ C_ 0.267866 0.46607 0.754719 -0.02249
C_ C_ 0.0318684 0.394577 0.715719 -0.11473
C_ C_ 0.293328 0.407552 0.715363 -0.11473
C_ C_ 0.0656279 0.370908 0.78744 -0.11473
C_ C_ 0.315217 0.375293 0.791797 -0.11473
C_ C_ 0.0491037 0.358558 0.717245 -0.11473
C_ C_ 0.308196 0.369309 0.717065 -0.11473
C_ C_ 0.0320526 0.420529 0.751251 -0.02249
C_ C_ 0.287875 0.428812 0.753531 -0.02249
C_ C_ 0.0868563 0.309575 0.750486 0.6875
C_ C_ 0.337981 0.313243 0.753379 0.6875
C_ C_ 0.0481938 0.408701 0.787865 -0.11473
C_ C_ 0.297051 0.412191 0.791406 -0.11473
C_ C_ 0.184888 0.350575 0.750295 -0.02249
C_ C_ 0.435459 0.349336 0.748727 -0.02249
C_ C_ 0.234807 0.464439 0.754069 -0.02249
C_ C_ 0.487127 0.462759 0.744603 -0.02249
C_ C_ 0.216782 0.399616 0.78807 -0.11473
C_ C_ 0.46406 0.404633 0.783903 -0.11473
C_ C_ 0.185784 0.377445 0.715721 -0.11473
C_ C_ 0.443555 0.36676 0.710644 -0.11473
C_ C_ 0.199803 0.363628 0.786921 -0.11473
C_ C_ 0.448871 0.367312 0.786493 -0.11473
C_ C_ 0.218653 0.423711 0.752576 -0.02249
C_ C_ 0.471152 0.421278 0.74557 -0.02249
C_ C_ 0.164072 0.312608 0.748833 0.6875
C_ C_ 0.416049 0.311109 0.751065 0.6875
C_ C_ 0.205278 0.41126 0.71403 -0.11473
C_ C_ 0.461148 0.402249 0.708111 -0.11473
C_ C_ 0.188698 0.157257 0.749416 -0.02249
C_ C_ 0.431866 0.150651 0.754227 -0.02249
C_ C_ 0.237313 0.0432005 0.758704 -0.02249
C_ C_ 0.480037 0.0364142 0.75593 -0.02249
C_ C_ 0.216017 0.106592 0.791222 -0.11473
C_ C_ 0.454746 0.0926128 0.794623 -0.11473
C_ C_ 0.193564 0.133189 0.713109 -0.11473
C_ C_ 0.436735 0.129372 0.718302 -0.11473
C_ C_ 0.20297 0.144233 0.787613 -0.11473
C_ C_ 0.440615 0.131091 0.793384 -0.11473
C_ C_ 0.219762 0.0815435 0.755918 -0.02249
C_ C_ 0.461178 0.0732588 0.756283 -0.02249
C_ C_ 0.168012 0.19444 0.7479 0.6875
C_ C_ 0.413296 0.190114 0.753509 0.6875
C_ C_ 0.209403 0.0957383 0.716622 -0.11473
C_ C_ 0.451234 0.0919204 0.719598 -0.11473
C_ C_ 0.0728198 0.151489 0.747828 -0.02249
C_ C_ 0.318829 0.155439 0.757217 -0.02249
C_ C_ 0.0170737 0.0391903 0.757848 -0.02249
C_ C_ 0.269196 0.0398988 0.75712 -0.02249
C_ C_ 0.0376197 0.0996773 0.715642 -0.11473
C_ C_ 0.290542 0.10197 0.719644 -0.11473
C_ C_ 0.0730852 0.127817 0.786456 -0.11473
C_ C_ 0.314732 0.133654 0.795774 -0.11473
C_ C_ 0.056081 0.13603 0.712379 -0.11473
C_ C_ 0.306429 0.138609 0.719822 -0.11473
C_ C_ 0.0354649 0.0784122 0.75627 -0.02249
C_ C_ 0.285595 0.079676 0.756996 -0.02249
C_ C_ 0.0893708 0.190072 0.745067 0.6875
C_ C_ 0.335982 0.194912 0.757182 0.6875
C_ C_ 0.0550378 0.0920448 0.790143 -0.11473
C_ C_ 0.300052 0.0954841 0.792093 -0.11473
C_ C_ 0.138213 0.283263 0.875216 0.17695
C_ C_ 0.353255 0.246149 0.879127 0.17695
C_ C_ 0.120055 0.215589 0.880632 0.17695
C_ C_ 0.402534 0.275073 0.87872 0.17695
C_ C_ 0.119039 0.218553 0.924432 -0.11473
C_ C_ 0.403484 0.272087 0.922454 -0.11473
C_ C_ 0.126002 0.256446 0.944026 0.23465
C_ C_ 0.379528 0.257218 0.944765 0.23465
C_ C_ 0.135203 0.288827 0.917879 -0.11473
C_ C_ 0.353147 0.245817 0.922991 -0.11473
C_ C_ 0.131071 0.222544 0.618097 0.17695
C_ C_ 0.401598 0.248585 0.627904 0.17695
C_ C_ 0.118038 0.293452 0.624896 0.17695
C_ C_ 0.348145 0.241034 0.626396 0.17695
C_ C_ 0.119959 0.298728 0.581044 -0.11473
C_ C_ 0.347929 0.233688 0.584158 -0.11473
C_ C_ 0.124389 0.263494 0.555378 0.23465
C_ C_ 0.374109 0.242352 0.561674 0.23465
C_ C_ 0.12679 0.223907 0.575216 -0.11473
C_ C_ 0.40195 0.248418 0.582855 -0.11473
C_ C_ 0.033026 0.498588 0.751073 0.05793
C_ C_ 0.280895 0.505473 0.755723 0.05793
C_ C_ 0.221513 0.00450921 0.760834 0.05793
C_ C_ 0.466029 0.995523 0.758778 0.05793
Br Br 0.0753073 0.494616 0.737278 -0.17191
Br Br 0.32297 0.510908 0.754366 -0.17191
Br Br 0.179788 0.00861183 0.767207 -0.17191
Br Br 0.422213 0.991544 0.755826 -0.17191
N_ N_ 0.126192 0.249112 0.855655 -0.272
N_ N_ 0.37879 0.256458 0.858297 -0.272
N_ N_ 0.129768 0.259084 0.987953 -0.12501
N_ N_ 0.378996 0.266361 0.987791 -0.12501
N_ N_ 0.124458 0.255618 0.64184 -0.272
N_ N_ 0.374331 0.245609 0.648011 -0.272
N_ N_ 0.122925 0.26768 0.511699 -0.12501
N_ N_ 0.37566 0.235939 0.518214 -0.12501
O_ O_ 0.09426 0.295785 0.714944 -0.60745
O_ O_ 0.348305 0.298516 0.719803 -0.60745
O_ O_ 0.0953298 0.293401 0.78332 -0.60745
O_ O_ 0.34453 0.29485 0.787858 -0.60745
O_ O_ 0.156783 0.294608 0.781938 -0.60745
O_ O_ 0.40557 0.299753 0.785695 -0.60745
O_ O_ 0.158852 0.293375 0.714847 -0.60745
O_ O_ 0.409443 0.291524 0.718538 -0.60745
O_ O_ 0.159097 0.211079 0.781289 -0.60745
O_ O_ 0.408382 0.209493 0.787066 -0.60745
O_ O_ 0.156974 0.20471 0.714115 -0.60745
O_ O_ 0.407001 0.206895 0.717699 -0.60745
O_ O_ 0.0935839 0.208918 0.710729 -0.60745
O_ O_ 0.340475 0.214375 0.722191 -0.60745
O_ O_ 0.099662 0.205034 0.778514 -0.60745
O_ O_ 0.348798 0.205917 0.791091 -0.60745
Zn Zn 0.125231 0.750452 0.288153 0.9476
Zn Zn 0.375936 0.750042 0.279747 0.9476
Zn Zn 0.122002 0.74987 0.217091 0.9476
Zn Zn 0.375749 0.75109 0.212664 0.9476
H_ H_ 0.0371834 0.924521 0.177012 0.10932
H_ H_ 0.275794 0.909781 0.176931 0.10932
H_ H_ 0.0538011 0.843837 0.312452 0.10932
H_ H_ 0.311624 0.846641 0.310033 0.10932
H_ H_ 0.0589001 0.848796 0.177753 0.10932
H_ H_ 0.305071 0.847031 0.176381 0.10932
H_ H_ 0.0233902 0.909261 0.306937 0.10932
H_ H_ 0.284351 0.914277 0.313251 0.10932
H_ H_ 0.22997 0.90371 0.31919 0.10932
H_ H_ 0.451636 0.936388 0.308503 0.10932
H_ H_ 0.172021 0.866571 0.188332 0.10932
H_ H_ 0.457463 0.836966 0.186692 0.10932
H_ H_ 0.202195 0.838161 0.313377 0.10932
H_ H_ 0.422431 0.869224 0.312337 0.10932
H_ H_ 0.204568 0.9317 0.191583 0.10932
H_ H_ 0.485065 0.905061 0.187958 0.10932
H_ H_ 0.238787 0.599302 0.30572 0.10932
H_ H_ 0.474112 0.589327 0.316022 0.10932
H_ H_ 0.161923 0.625755 0.191165 0.10932
H_ H_ 0.42921 0.643861 0.183441 0.10932
H_ H_ 0.205964 0.660291 0.308001 0.10932
H_ H_ 0.444004 0.654346 0.316133 0.10932
H_ H_ 0.19125 0.5613 0.190326 0.10932
H_ H_ 0.459924 0.579948 0.181366 0.10932
H_ H_ 0.0334235 0.578647 0.187255 0.10932
H_ H_ 0.267722 0.596482 0.178425 0.10932
H_ H_ 0.0673703 0.646328 0.317652 0.10932
H_ H_ 0.322219 0.639645 0.308957 0.10932
H_ H_ 0.0691102 0.637475 0.183672 0.10932
H_ H_ 0.304085 0.658398 0.175077 0.10932
H_ H_ 0.0330464 0.585692 0.319893 0.10932
H_ H_ 0.300167 0.569649 0.302101 0.10932
H_ H_ 0.116129 0.815508 0.359736 0.10932
H_ H_ 0.374259 0.685161 0.350251 0.10932
H_ H_ 0.139391 0.688966 0.371243 0.10932
H_ H_ 0.379559 0.813794 0.357244 0.10932
H_ H_ 0.138455 0.693317 0.446278 0.10932
H_ H_ 0.375866 0.812235 0.436943 0.10932
H_ H_ 0.109171 0.818805 0.435465 0.10932
H_ H_ 0.38279 0.678897 0.42875 0.10932
H_ H_ 0.167987 0.760669 0.142713 0.10932
H_ H_ 0.390042 0.687186 0.142072 0.10932
H_ H_ 0.073484 0.735955 0.140318 0.10932
H_ H_ 0.371764 0.815713 0.143114 0.10932
H_ H_ 0.0724245 0.733998 0.0656989 0.10932
H_ H_ 0.370197 0.817328 0.0659113 0.10932
H_ H_ 0.169759 0.752951 0.0688105 0.10932
H_ H_ 0.40038 0.692489 0.0633018 0.10932
C_ C_ 0.0629559 0.845216 0.243423 -0.02249
C_ C_ 0.316267 0.846662 0.244049 -0.02249
C_ C_ 0.0122873 0.959313 0.245081 -0.02249
C_ C_ 0.266773 0.960905 0.248214 -0.02249
C_ C_ 0.0395968 0.9036 0.204394 -0.11473
C_ C_ 0.286347 0.899726 0.206022 -0.11473
C_ C_ 0.0509724 0.859643 0.281509 -0.11473
C_ C_ 0.303734 0.861352 0.281808 -0.11473
C_ C_ 0.0549925 0.865301 0.205788 -0.11473
C_ C_ 0.304766 0.864105 0.205723 -0.11473
C_ C_ 0.0276701 0.917482 0.243231 -0.02249
C_ C_ 0.281481 0.920509 0.245683 -0.02249
C_ C_ 0.0829542 0.808219 0.245649 0.6875
C_ C_ 0.335325 0.806536 0.242693 0.6875
C_ C_ 0.03143 0.895441 0.279893 -0.11473
C_ C_ 0.290154 0.900905 0.283687 -0.11473
C_ C_ 0.181071 0.850467 0.253431 -0.02249
C_ C_ 0.436207 0.850239 0.247666 -0.02249
C_ C_ 0.23528 0.962634 0.257503 -0.02249
C_ C_ 0.487345 0.963704 0.248041 -0.02249
C_ C_ 0.2167 0.896948 0.290723 -0.11473
C_ C_ 0.45325 0.91126 0.282434 -0.11473
C_ C_ 0.18353 0.876538 0.217235 -0.11473
C_ C_ 0.455552 0.858206 0.21345 -0.11473
C_ C_ 0.199503 0.859144 0.289468 -0.11473
C_ C_ 0.437801 0.874014 0.284143 -0.11473
C_ C_ 0.217684 0.923616 0.255926 -0.02249
C_ C_ 0.470354 0.922326 0.247804 -0.02249
C_ C_ 0.163176 0.811571 0.252666 0.6875
C_ C_ 0.415338 0.813291 0.24766 0.6875
C_ C_ 0.201797 0.912939 0.218164 -0.11473
C_ C_ 0.472445 0.896615 0.214523 -0.11473
C_ C_ 0.179232 0.64698 0.252488 -0.02249
C_ C_ 0.434378 0.651795 0.249684 -0.02249
C_ C_ 0.23389 0.535947 0.246193 -0.02249
C_ C_ 0.483195 0.537232 0.249692 -0.02249
C_ C_ 0.219321 0.602322 0.282249 -0.11473
C_ C_ 0.466866 0.603932 0.28601 -0.11473
C_ C_ 0.176552 0.620597 0.218699 -0.11473
C_ C_ 0.43874 0.631588 0.211244 -0.11473
C_ C_ 0.201368 0.63701 0.284139 -0.11473
C_ C_ 0.448265 0.638749 0.287201 -0.11473
C_ C_ 0.215591 0.574772 0.248236 -0.02249
C_ C_ 0.469147 0.580966 0.248297 -0.02249
C_ C_ 0.161781 0.686443 0.254624 0.6875
C_ C_ 0.414028 0.688913 0.248196 0.6875
C_ C_ 0.194495 0.584219 0.214981 -0.11473
C_ C_ 0.457447 0.598163 0.210964 -0.11473
C_ C_ 0.0647979 0.650798 0.250074 -0.02249
C_ C_ 0.315181 0.652173 0.241548 -0.02249
C_ C_ 0.0142212 0.536333 0.255642 -0.02249
C_ C_ 0.265019 0.538097 0.241789 -0.02249
C_ C_ 0.0390045 0.594122 0.215318 -0.11473
C_ C_ 0.279475 0.606019 0.206497 -0.11473
C_ C_ 0.0588788 0.633255 0.289216 -0.11473
C_ C_ 0.31416 0.627973 0.277758 -0.11473
C_ C_ 0.0586122 0.627684 0.213712 -0.11473
C_ C_ 0.300845 0.6394 0.204932 -0.11473
C_ C_ 0.0305561 0.576368 0.253739 -0.02249
C_ C_ 0.27968 0.580388 0.241537 -0.02249
C_ C_ 0.0810637 0.692406 0.249861 0.6875
C_ C_ 0.337316 0.687616 0.241533 0.6875
C_ C_ 0.040799 0.596506 0.291056 -0.11473
C_ C_ 0.296848 0.591855 0.2775 -0.11473
C_ C_ 0.118273 0.788685 0.37848 0.17695
C_ C_ 0.374208 0.712182 0.369662 0.17695
C_ C_ 0.132331 0.718459 0.384644 0.17695
C_ C_ 0.375439 0.784521 0.373382 0.17695
C_ C_ 0.13421 0.720391 0.427816 -0.11473
C_ C_ 0.374745 0.783526 0.417496 -0.11473
C_ C_ 0.122493 0.755866 0.446363 0.23465
C_ C_ 0.377896 0.745661 0.43843 0.23465
C_ C_ 0.114782 0.790586 0.421101 -0.11473
C_ C_ 0.377337 0.708561 0.414519 -0.11473
C_ C_ 0.147823 0.750019 0.125567 0.17695
C_ C_ 0.388692 0.716708 0.123898 0.17695
C_ C_ 0.0950564 0.738489 0.125638 0.17695
C_ C_ 0.373952 0.787278 0.124602 0.17695
C_ C_ 0.0939305 0.738759 0.0809351 -0.11473
C_ C_ 0.374832 0.789445 0.0799443 -0.11473
C_ C_ 0.120619 0.745481 0.0583818 0.23465
C_ C_ 0.38394 0.753907 0.0568385 0.23465
C_ C_ 0.147986 0.749588 0.0810737 -0.11473
C_ C_ 0.39337 0.717946 0.080235 -0.11473
C_ C_ 0.0298592 0.996505 0.239413 0.05793
C_ C_ 0.281499 0.999441 0.243118 0.05793
C_ C_ 0.220271 0.496817 0.255002 0.05793
C_ C_ 0.465511 0.501321 0.249612 0.05793
Br Br 0.0742962 -0.006672000000000011 0.24171 -0.17191
Br Br 0.325913 0.998528 0.242586 -0.17191
Br Br 0.176564 0.496609 0.252828 -0.17191
Br Br 0.422339 0.503445 0.242582 -0.17191
N_ N_ 0.126245 0.752122 0.360622 -0.272
N_ N_ 0.375589 0.748307 0.349853 -0.272
N_ N_ 0.117855 0.758238 0.490408 -0.12501
N_ N_ 0.379392 0.744039 0.483361 -0.12501
N_ N_ 0.121557 0.744087 0.147193 -0.272
N_ N_ 0.377174 0.750433 0.144866 -0.272
N_ N_ 0.120285 0.741377 0.0153165 -0.12501
N_ N_ 0.383241 0.754909 0.0113142 -0.12501
O_ O_ 0.0899165 0.789146 0.211456 -0.60745
O_ O_ 0.339793 0.785964 0.209441 -0.60745
O_ O_ 0.0965879 0.796631 0.278702 -0.60745
O_ O_ 0.346118 0.792878 0.275518 -0.60745
O_ O_ 0.156691 0.793481 0.286572 -0.60745
O_ O_ 0.409855 0.794442 0.281031 -0.60745
O_ O_ 0.151674 0.79865 0.217989 -0.60745
O_ O_ 0.403103 0.800985 0.213086 -0.60745
O_ O_ 0.156588 0.703957 0.28981 -0.60745
O_ O_ 0.404958 0.703353 0.28268 -0.60745
O_ O_ 0.153955 0.70434 0.221643 -0.60745
O_ O_ 0.411609 0.710283 0.215017 -0.60745
O_ O_ 0.0949135 0.702728 0.216913 -0.60745
O_ O_ 0.347805 0.701912 0.208306 -0.60745
O_ O_ 0.0902703 0.708415 0.284072 -0.60745
O_ O_ 0.345887 0.702746 0.27632 -0.60745
Zn Zn 0.123719 0.753606 0.791045 0.9476
Zn Zn 0.375255 0.747874 0.785915 0.9476
Zn Zn 0.126084 0.752051 0.720094 0.9476
Zn Zn 0.374895 0.750345 0.712107 0.9476
H_ H_ 0.0362428 0.925689 0.683768 0.10932
H_ H_ 0.282292 0.916313 0.694621 0.10932
H_ H_ 0.0552698 0.842757 0.814344 0.10932
H_ H_ 0.312816 0.847784 0.825528 0.10932
H_ H_ 0.0713004 0.867004 0.681779 0.10932
H_ H_ 0.313436 0.8525 0.69067 0.10932
H_ H_ 0.0292813 0.910871 0.815871 0.10932
H_ H_ 0.289683 0.915214 0.832272 0.10932
H_ H_ 0.232229 0.905618 0.824179 0.10932
H_ H_ 0.46253 0.919659 0.819866 0.10932
H_ H_ 0.176008 0.871397 0.69268 0.10932
H_ H_ 0.439565 0.854877 0.681536 0.10932
H_ H_ 0.202131 0.841692 0.819737 0.10932
H_ H_ 0.435613 0.850283 0.815785 0.10932
H_ H_ 0.196935 0.937709 0.702959 0.10932
H_ H_ 0.463854 0.917571 0.685233 0.10932
H_ H_ 0.202332 0.577279 0.82419 0.10932
H_ H_ 0.464442 0.577269 0.81198 0.10932
H_ H_ 0.189723 0.650834 0.687095 0.10932
H_ H_ 0.435761 0.651182 0.680783 0.10932
H_ H_ 0.187754 0.649636 0.82609 0.10932
H_ H_ 0.438388 0.641126 0.817786 0.10932
H_ H_ 0.216629 0.586567 0.690734 0.10932
H_ H_ 0.469155 0.590922 0.676859 0.10932
H_ H_ 0.0374898 0.580862 0.685785 0.10932
H_ H_ 0.280684 0.583062 0.682988 0.10932
H_ H_ 0.0735234 0.641183 0.820787 0.10932
H_ H_ 0.309789 0.655765 0.813788 0.10932
H_ H_ 0.0606666 0.646794 0.687013 0.10932
H_ H_ 0.307638 0.648451 0.681619 0.10932
H_ H_ 0.0446092 0.573642 0.821417 0.10932
H_ H_ 0.276611 0.595946 0.815564 0.10932
H_ H_ 0.116637 0.818656 0.857543 0.10932
H_ H_ 0.37043 0.806194 0.865529 0.10932
H_ H_ 0.124859 0.689935 0.866998 0.10932
H_ H_ 0.380637 0.677418 0.856686 0.10932
H_ H_ 0.113022 0.688428 0.941754 0.10932
H_ H_ 0.383658 0.670702 0.93073 0.10932
H_ H_ 0.101991 0.82231 0.937398 0.10932
H_ H_ 0.365063 0.800142 0.944245 0.10932
H_ H_ 0.133127 0.684249 0.649478 0.10932
H_ H_ 0.377582 0.819674 0.645854 0.10932
H_ H_ 0.125215 0.813495 0.643039 0.10932
H_ H_ 0.369283 0.690548 0.625415 0.10932
H_ H_ 0.124279 0.809395 0.561451 0.10932
H_ H_ 0.370974 0.695744 0.550209 0.10932
H_ H_ 0.127839 0.678156 0.569742 0.10932
H_ H_ 0.371737 0.829262 0.56518 0.10932
C_ C_ 0.0674675 0.850046 0.749111 -0.02249
C_ C_ 0.316986 0.847237 0.759973 -0.02249
C_ C_ 0.0145832 0.963148 0.753167 -0.02249
C_ C_ 0.269558 0.964822 0.763703 -0.02249
C_ C_ 0.0431719 0.909204 0.712853 -0.11473
C_ C_ 0.290745 0.90519 0.72408 -0.11473
C_ C_ 0.0532209 0.861161 0.78665 -0.11473
C_ C_ 0.309921 0.865426 0.798132 -0.11473
C_ C_ 0.0625196 0.873967 0.712257 -0.11473
C_ C_ 0.306089 0.866354 0.722242 -0.11473
C_ C_ 0.0299235 0.922305 0.750071 -0.02249
C_ C_ 0.284817 0.923966 0.763724 -0.02249
C_ C_ 0.0870147 0.813612 0.74975 0.6875
C_ C_ 0.334955 0.807778 0.75666 0.6875
C_ C_ 0.0355869 0.89701 0.787488 -0.11473
C_ C_ 0.29281 0.902176 0.801499 -0.11473
C_ C_ 0.186363 0.850785 0.755571 -0.02249
C_ C_ 0.435115 0.846752 0.749072 -0.02249
C_ C_ 0.236789 0.966526 0.764423 -0.02249
C_ C_ 0.483289 0.959176 0.75477 -0.02249
C_ C_ 0.218935 0.898568 0.795564 -0.11473
C_ C_ 0.457527 0.902206 0.789572 -0.11473
C_ C_ 0.18918 0.876676 0.720064 -0.11473
C_ C_ 0.442375 0.867343 0.711868 -0.11473
C_ C_ 0.201619 0.86139 0.793386 -0.11473
C_ C_ 0.442661 0.86468 0.787734 -0.11473
C_ C_ 0.219926 0.92666 0.76184 -0.02249
C_ C_ 0.467419 0.91979 0.751916 -0.02249
C_ C_ 0.165575 0.813399 0.754094 0.6875
C_ C_ 0.413904 0.8106 0.747906 0.6875
C_ C_ 0.204382 0.915245 0.725131 -0.11473
C_ C_ 0.459578 0.902675 0.713105 -0.11473
C_ C_ 0.185605 0.657452 0.757279 -0.02249
C_ C_ 0.436259 0.654236 0.749988 -0.02249
C_ C_ 0.231653 0.538831 0.758868 -0.02249
C_ C_ 0.486705 0.539236 0.743413 -0.02249
C_ C_ 0.20278 0.595504 0.79536 -0.11473
C_ C_ 0.461819 0.595405 0.784438 -0.11473
C_ C_ 0.195208 0.640447 0.718998 -0.11473
C_ C_ 0.443333 0.636483 0.711138 -0.11473
C_ C_ 0.19233 0.636565 0.795411 -0.11473
C_ C_ 0.445239 0.633522 0.787563 -0.11473
C_ C_ 0.214172 0.577541 0.75797 -0.02249
C_ C_ 0.468021 0.578093 0.745862 -0.02249
C_ C_ 0.166357 0.695224 0.757173 0.6875
C_ C_ 0.413405 0.687547 0.750044 0.6875
C_ C_ 0.209612 0.600685 0.720294 -0.11473
C_ C_ 0.460419 0.599832 0.709135 -0.11473
C_ C_ 0.0667607 0.652174 0.754294 -0.02249
C_ C_ 0.310065 0.657258 0.746081 -0.02249
C_ C_ 0.0175928 0.536613 0.755988 -0.02249
C_ C_ 0.263463 0.541963 0.755213 -0.02249
C_ C_ 0.0417101 0.595162 0.715794 -0.11473
C_ C_ 0.286054 0.598108 0.713043 -0.11473
C_ C_ 0.0637617 0.628612 0.791115 -0.11473
C_ C_ 0.30085 0.641789 0.785156 -0.11473
C_ C_ 0.0560373 0.634057 0.716512 -0.11473
C_ C_ 0.301083 0.635237 0.710712 -0.11473
C_ C_ 0.0351553 0.576447 0.753711 -0.02249
C_ C_ 0.278827 0.582022 0.750467 -0.02249
C_ C_ 0.0863847 0.690202 0.755473 0.6875
C_ C_ 0.33408 0.689773 0.747203 0.6875
C_ C_ 0.0488032 0.590029 0.791201 -0.11473
C_ C_ 0.284977 0.605441 0.786643 -0.11473
C_ C_ 0.115675 0.791716 0.878888 0.17695
C_ C_ 0.372857 0.776519 0.881162 0.17695
C_ C_ 0.118044 0.718322 0.881098 0.17695
C_ C_ 0.379601 0.705197 0.875084 0.17695
C_ C_ 0.111312 0.71832 0.925121 -0.11473
C_ C_ 0.37994 0.700529 0.917973 -0.11473
C_ C_ 0.108999 0.756789 0.945739 0.23465
C_ C_ 0.372185 0.732867 0.94476 0.23465
C_ C_ 0.109453 0.794422 0.92194 -0.11473
C_ C_ 0.370688 0.77278 0.924288 -0.11473
C_ C_ 0.130847 0.711694 0.630626 0.17695
C_ C_ 0.375714 0.792855 0.623531 0.17695
C_ C_ 0.126432 0.785197 0.624959 0.17695
C_ C_ 0.373207 0.721247 0.61361 0.17695
C_ C_ 0.124398 0.781728 0.579748 -0.11473
C_ C_ 0.370543 0.724927 0.570237 -0.11473
C_ C_ 0.127818 0.743332 0.559351 0.23465
C_ C_ 0.369863 0.764058 0.551885 0.23465
C_ C_ 0.128486 0.709236 0.585341 -0.11473
C_ C_ 0.371955 0.798136 0.578991 -0.11473
C_ C_ 0.0305946 0.000938986 0.750257 0.05793
C_ C_ 0.2852 0.00209315 0.760268 0.05793
C_ C_ 0.217686 0.500965 0.75659 0.05793
C_ C_ 0.471964 0.500064 0.742654 0.05793
Br Br 0.074295 -0.000498778 0.743476 -0.17191
Br Br 0.32815 0.000883092 0.752645 -0.17191
Br Br 0.175357 0.498136 0.768308 -0.17191
Br Br 0.429058 0.499392 0.747446 -0.17191
N_ N_ 0.120945 0.753639 0.860755 -0.272
N_ N_ 0.376191 0.742692 0.857156 -0.272
N_ N_ 0.10183 0.758513 0.989814 -0.12501
N_ N_ 0.373438 0.726987 0.989014 -0.12501
N_ N_ 0.127411 0.749015 0.648896 -0.272
N_ N_ 0.372935 0.754224 0.640051 -0.272
N_ N_ 0.134833 0.739426 0.51635 -0.12501
N_ N_ 0.368558 0.769842 0.507304 -0.12501
O_ O_ 0.0955896 0.798618 0.716101 -0.60745
O_ O_ 0.345867 0.798067 0.721576 -0.60745
O_ O_ 0.0932452 0.794575 0.783756 -0.60745
O_ O_ 0.342519 0.788925 0.789296 -0.60745
O_ O_ 0.154597 0.799774 0.78725 -0.60745
O_ O_ 0.405277 0.793595 0.781622 -0.60745
O_ O_ 0.15715 0.797642 0.719191 -0.60745
O_ O_ 0.407311 0.793197 0.713423 -0.60745
O_ O_ 0.155871 0.708591 0.790887 -0.60745
O_ O_ 0.407668 0.706915 0.783701 -0.60745
O_ O_ 0.155952 0.706298 0.721214 -0.60745
O_ O_ 0.405379 0.703967 0.714965 -0.60745
O_ O_ 0.0981229 0.70391 0.722015 -0.60745
O_ O_ 0.344724 0.704521 0.713894 -0.60745
O_ O_ 0.0941583 0.70815 0.789572 -0.60745
O_ O_ 0.345936 0.701276 0.781694 -0.60745
Zn Zn 0.61962 0.251985 0.278266 0.9476
Zn Zn 0.874878 0.251311 0.276575 0.9476
Zn Zn 0.621828 0.248181 0.209253 0.9476
Zn Zn 0.874145 0.247943 0.207366 0.9476
H_ H_ 0.525514 0.411144 0.180501 0.10932
H_ H_ 0.768908 0.40161 0.186602 0.10932
H_ H_ 0.561026 0.351084 0.31338 0.10932
H_ H_ 0.836247 0.370928 0.308389 0.10932
H_ H_ 0.553609 0.347862 0.179843 0.10932
H_ H_ 0.797484 0.334686 0.185587 0.10932
H_ H_ 0.540095 0.419532 0.312629 0.10932
H_ H_ 0.800736 0.430955 0.308958 0.10932
H_ H_ 0.734994 0.391432 0.303247 0.10932
H_ H_ 0.967937 0.417139 0.314253 0.10932
H_ H_ 0.653673 0.386268 0.195855 0.10932
H_ H_ 0.923083 0.360795 0.181438 0.10932
H_ H_ 0.703117 0.328584 0.294953 0.10932
H_ H_ 0.940428 0.350044 0.312695 0.10932
H_ H_ 0.688284 0.444069 0.193976 0.10932
H_ H_ 0.95281 0.422038 0.180355 0.10932
H_ H_ 0.723846 0.0932469 0.313946 0.10932
H_ H_ 0.980564 0.0946285 0.310456 0.10932
H_ H_ 0.682014 0.141167 0.177572 0.10932
H_ H_ 0.930387 0.142389 0.175343 0.10932
H_ H_ 0.697044 0.160885 0.313017 0.10932
H_ H_ 0.953731 0.162981 0.307325 0.10932
H_ H_ 0.711101 0.0815988 0.182413 0.10932
H_ H_ 0.95102 0.0731373 0.181262 0.10932
H_ H_ 0.52655 0.0874742 0.189343 0.10932
H_ H_ 0.793211 0.0699298 0.183175 0.10932
H_ H_ 0.561291 0.156136 0.321709 0.10932
H_ H_ 0.815817 0.154539 0.308301 0.10932
H_ H_ 0.549951 0.152785 0.186743 0.10932
H_ H_ 0.821446 0.134971 0.175573 0.10932
H_ H_ 0.542064 0.0848175 0.323767 0.10932
H_ H_ 0.787872 0.0896788 0.312708 0.10932
H_ H_ 0.622561 0.181582 0.348959 0.10932
H_ H_ 0.873405 0.187088 0.352318 0.10932
H_ H_ 0.619791 0.311483 0.358845 0.10932
H_ H_ 0.87994 0.313345 0.349764 0.10932
H_ H_ 0.624669 0.304632 0.438854 0.10932
H_ H_ 0.883042 0.318461 0.426526 0.10932
H_ H_ 0.623125 0.173571 0.424072 0.10932
H_ H_ 0.874771 0.184571 0.428835 0.10932
H_ H_ 0.62058 0.189938 0.132627 0.10932
H_ H_ 0.873299 0.312324 0.134552 0.10932
H_ H_ 0.601645 0.318363 0.140349 0.10932
H_ H_ 0.869893 0.181356 0.128152 0.10932
H_ H_ 0.602973 0.322039 0.0631566 0.10932
H_ H_ 0.870094 0.185799 0.0493056 0.10932
H_ H_ 0.615542 0.189561 0.0554641 0.10932
H_ H_ 0.881491 0.31635 0.0589002 0.10932
C_ C_ 0.564618 0.347631 0.247045 -0.02249
C_ C_ 0.819129 0.348036 0.24498 -0.02249
C_ C_ 0.512457 0.459689 0.246931 -0.02249
C_ C_ 0.76806 0.460877 0.247422 -0.02249
C_ C_ 0.533406 0.398761 0.209605 -0.11473
C_ C_ 0.784039 0.395634 0.211567 -0.11473
C_ C_ 0.557944 0.367766 0.284857 -0.11473
C_ C_ 0.819663 0.374569 0.280642 -0.11473
C_ C_ 0.550791 0.362477 0.20993 -0.11473
C_ C_ 0.801086 0.358136 0.210393 -0.11473
C_ C_ 0.528134 0.419574 0.246677 -0.02249
C_ C_ 0.784604 0.42153 0.246413 -0.02249
C_ C_ 0.582729 0.308372 0.247221 0.6875
C_ C_ 0.83874 0.31125 0.24447 0.6875
C_ C_ 0.540858 0.403975 0.284367 -0.11473
C_ C_ 0.798309 0.407851 0.283418 -0.11473
C_ C_ 0.678155 0.349916 0.241777 -0.02249
C_ C_ 0.934168 0.345729 0.245802 -0.02249
C_ C_ 0.735994 0.460381 0.250924 -0.02249
C_ C_ 0.980852 0.461997 0.247065 -0.02249
C_ C_ 0.722092 0.387134 0.274246 -0.11473
C_ C_ 0.961206 0.400371 0.284514 -0.11473
C_ C_ 0.673397 0.384061 0.214788 -0.11473
C_ C_ 0.936317 0.36863 0.208152 -0.11473
C_ C_ 0.702197 0.353016 0.271285 -0.11473
C_ C_ 0.944896 0.363875 0.283925 -0.11473
C_ C_ 0.717425 0.420021 0.247612 -0.02249
C_ C_ 0.963759 0.422744 0.246286 -0.02249
C_ C_ 0.656661 0.3139 0.240493 0.6875
C_ C_ 0.91361 0.309164 0.248103 0.6875
C_ C_ 0.694317 0.417612 0.215422 -0.11473
C_ C_ 0.951808 0.404845 0.20815 -0.11473
C_ C_ 0.680859 0.153743 0.247713 -0.02249
C_ C_ 0.936023 0.153258 0.243655 -0.02249
C_ C_ 0.735091 0.041057 0.249114 -0.02249
C_ C_ 0.985187 0.0368596 0.24355 -0.02249
C_ C_ 0.715023 0.104444 0.285536 -0.11473
C_ C_ 0.969815 0.103944 0.280767 -0.11473
C_ C_ 0.690237 0.133495 0.210268 -0.11473
C_ C_ 0.939134 0.129787 0.207095 -0.11473
C_ C_ 0.695324 0.138888 0.283988 -0.11473
C_ C_ 0.953459 0.141928 0.279725 -0.11473
C_ C_ 0.719392 0.0820197 0.2484 -0.02249
C_ C_ 0.968447 0.0767351 0.245027 -0.02249
C_ C_ 0.66157 0.192676 0.24568 0.6875
C_ C_ 0.917052 0.191468 0.243663 0.6875
C_ C_ 0.706245 0.0957954 0.21242 -0.11473
C_ C_ 0.953488 0.092031 0.2086 -0.11473
C_ C_ 0.55619 0.162925 0.252482 -0.02249
C_ C_ 0.819813 0.151581 0.240809 -0.02249
C_ C_ 0.514219 0.0435348 0.259767 -0.02249
C_ C_ 0.765683 0.0403619 0.25186 -0.02249
C_ C_ 0.532665 0.103483 0.218757 -0.11473
C_ C_ 0.79662 0.0918272 0.209117 -0.11473
C_ C_ 0.551576 0.144122 0.29257 -0.11473
C_ C_ 0.808804 0.137797 0.280818 -0.11473
C_ C_ 0.549371 0.139758 0.2159 -0.11473
C_ C_ 0.81385 0.126818 0.205238 -0.11473
C_ C_ 0.528802 0.083777 0.258503 -0.02249
C_ C_ 0.784226 0.079693 0.248406 -0.02249
C_ C_ 0.58009 0.193377 0.251185 0.6875
C_ C_ 0.837182 0.190118 0.239172 0.6875
C_ C_ 0.539895 0.103705 0.295444 -0.11473
C_ C_ 0.790094 0.104701 0.283804 -0.11473
C_ C_ 0.624496 0.20948 0.366637 0.17695
C_ C_ 0.879707 0.212906 0.368323 0.17695
C_ C_ 0.622429 0.283007 0.374502 0.17695
C_ C_ 0.879079 0.285892 0.369079 0.17695
C_ C_ 0.623041 0.279213 0.418486 -0.11473
C_ C_ 0.881079 0.288568 0.412302 -0.11473
C_ C_ 0.623577 0.238534 0.437334 0.23465
C_ C_ 0.88292 0.251277 0.433049 0.23465
C_ C_ 0.623072 0.203471 0.409153 -0.11473
C_ C_ 0.882134 0.212198 0.411903 -0.11473
C_ C_ 0.618762 0.218491 0.116621 0.17695
C_ C_ 0.874529 0.284326 0.116191 0.17695
C_ C_ 0.60972 0.290721 0.121967 0.17695
C_ C_ 0.8716 0.211015 0.113031 0.17695
C_ C_ 0.605694 0.292711 0.0791653 -0.11473
C_ C_ 0.872271 0.213422 0.067641 -0.11473
C_ C_ 0.61138 0.25827 0.0539982 0.23465
C_ C_ 0.879283 0.25169 0.0476174 0.23465
C_ C_ 0.617912 0.219636 0.0727701 -0.11473
C_ C_ 0.880142 0.286664 0.0735095 -0.11473
C_ C_ 0.530279 0.49567 0.251565 0.05793
C_ C_ 0.784145 0.499351 0.243288 0.05793
C_ C_ 0.717642 1.00284234 0.249424 0.05793
C_ C_ 0.967161 0.999648649 0.248104 0.05793
Br Br 0.571682 0.490981 0.239519 -0.17191
Br Br 0.828131 0.497442 0.237744 -0.17191
Br Br 0.675102 0.00808188 0.240434 -0.17191
Br Br 0.924981 0.00494424 0.245599 -0.17191
N_ N_ 0.625247 0.247215 0.349866 -0.272
N_ N_ 0.877998 0.250017 0.348077 -0.272
N_ N_ 0.622294 0.23349 0.481305 -0.12501
N_ N_ 0.88838 0.251726 0.477787 -0.12501
N_ N_ 0.618004 0.25422 0.139731 -0.272
N_ N_ 0.874359 0.246551 0.135857 -0.272
N_ N_ 0.608191 0.262471 0.0089201 -0.12501
N_ N_ 0.873475 0.257339 0.00241478 -0.12501
O_ O_ 0.589072 0.291604 0.215142 -0.60745
O_ O_ 0.841585 0.290714 0.210671 -0.60745
O_ O_ 0.592027 0.295786 0.28223 -0.60745
O_ O_ 0.844691 0.292533 0.279057 -0.60745
O_ O_ 0.653619 0.292626 0.272845 -0.60745
O_ O_ 0.905988 0.291662 0.281642 -0.60745
O_ O_ 0.649327 0.298942 0.20514 -0.60745
O_ O_ 0.901841 0.295894 0.213896 -0.60745
O_ O_ 0.649527 0.205946 0.277219 -0.60745
O_ O_ 0.906481 0.205045 0.278514 -0.60745
O_ O_ 0.65448 0.2086 0.211905 -0.60745
O_ O_ 0.907092 0.207636 0.208271 -0.60745
O_ O_ 0.589706 0.205858 0.215809 -0.60745
O_ O_ 0.845803 0.203483 0.204272 -0.60745
O_ O_ 0.587981 0.210057 0.285956 -0.60745
O_ O_ 0.842996 0.210055 0.271287 -0.60745
Zn Zn 0.625985 0.246031 0.780238 0.9476
Zn Zn 0.877578 0.25112 0.77588 0.9476
Zn Zn 0.624362 0.247095 0.709092 0.9476
Zn Zn 0.874175 0.247095 0.705422 0.9476
H_ H_ 0.542793 0.425732 0.683687 0.10932
H_ H_ 0.791288 0.423108 0.675287 0.10932
H_ H_ 0.570182 0.356036 0.815847 0.10932
H_ H_ 0.807025 0.347285 0.807203 0.10932
H_ H_ 0.567985 0.359627 0.677308 0.10932
H_ H_ 0.817522 0.354518 0.674447 0.10932
H_ H_ 0.536798 0.415634 0.817003 0.10932
H_ H_ 0.782052 0.415033 0.807693 0.10932
H_ H_ 0.70792 0.426613 0.807613 0.10932
H_ H_ 0.980498 0.4012 0.809002 0.10932
H_ H_ 0.697154 0.345078 0.678256 0.10932
H_ H_ 0.930424 0.360482 0.674561 0.10932
H_ H_ 0.67191 0.366394 0.807147 0.10932
H_ H_ 0.949656 0.338249 0.809869 0.10932
H_ H_ 0.728601 0.404285 0.679796 0.10932
H_ H_ 0.951199 0.428013 0.68194 0.10932
H_ H_ 0.704937 0.0748847 0.811075 0.10932
H_ H_ 0.957771 0.0823825 0.823417 0.10932
H_ H_ 0.683447 0.147038 0.677966 0.10932
H_ H_ 0.937561 0.145161 0.68197 0.10932
H_ H_ 0.680428 0.141978 0.812413 0.10932
H_ H_ 0.929202 0.145879 0.816177 0.10932
H_ H_ 0.716272 0.0814199 0.677392 0.10932
H_ H_ 0.967489 0.0777678 0.690178 0.10932
H_ H_ 0.522669 0.0853692 0.687872 0.10932
H_ H_ 0.765474 0.0987501 0.683367 0.10932
H_ H_ 0.56789 0.148565 0.815157 0.10932
H_ H_ 0.827841 0.135958 0.803917 0.10932
H_ H_ 0.554406 0.145152 0.682557 0.10932
H_ H_ 0.803146 0.15656 0.676833 0.10932
H_ H_ 0.540648 0.0823328 0.820579 0.10932
H_ H_ 0.799757 0.0720843 0.80663 0.10932
H_ H_ 0.628199 0.311769 0.860445 0.10932
H_ H_ 0.925423 0.24105 0.852473 0.10932
H_ H_ 0.620788 0.182439 0.854108 0.10932
H_ H_ 0.832499 0.26271 0.850491 0.10932
H_ H_ 0.619808 0.176571 0.930762 0.10932
H_ H_ 0.829213 0.246083 0.925706 0.10932
H_ H_ 0.617045 0.310565 0.93545 0.10932
H_ H_ 0.925904 0.228471 0.926078 0.10932
H_ H_ 0.625954 0.181638 0.626772 0.10932
H_ H_ 0.856974 0.31288 0.631395 0.10932
H_ H_ 0.614239 0.308891 0.643793 0.10932
H_ H_ 0.890089 0.189279 0.628231 0.10932
H_ H_ 0.608394 0.323527 0.568044 0.10932
H_ H_ 0.888303 0.18994 0.552142 0.10932
H_ H_ 0.621968 0.19183 0.54916 0.10932
H_ H_ 0.858022 0.316791 0.55812 0.10932
C_ C_ 0.570475 0.351221 0.747346 -0.02249
C_ C_ 0.816272 0.348466 0.741449 -0.02249
C_ C_ 0.518953 0.465187 0.749621 -0.02249
C_ C_ 0.767431 0.460429 0.739357 -0.02249
C_ C_ 0.546408 0.408538 0.711023 -0.11473
C_ C_ 0.795534 0.406473 0.70368 -0.11473
C_ C_ 0.562393 0.369455 0.786121 -0.11473
C_ C_ 0.807165 0.365813 0.778835 -0.11473
C_ C_ 0.561307 0.369546 0.70873 -0.11473
C_ C_ 0.809885 0.369776 0.703399 -0.11473
C_ C_ 0.536175 0.425327 0.74966 -0.02249
C_ C_ 0.783534 0.420986 0.740964 -0.02249
C_ C_ 0.590076 0.313503 0.747048 0.6875
C_ C_ 0.833581 0.307811 0.740317 0.6875
C_ C_ 0.541999 0.403108 0.78659 -0.11473
C_ C_ 0.789972 0.401937 0.77853 -0.11473
C_ C_ 0.686277 0.345404 0.744109 -0.02249
C_ C_ 0.938656 0.340989 0.7412 -0.02249
C_ C_ 0.736052 0.460753 0.74128 -0.02249
C_ C_ 0.984216 0.461288 0.751188 -0.02249
C_ C_ 0.706315 0.405773 0.780064 -0.11473
C_ C_ 0.968853 0.392523 0.780625 -0.11473
C_ C_ 0.701556 0.356417 0.708151 -0.11473
C_ C_ 0.940704 0.368413 0.70555 -0.11473
C_ C_ 0.686476 0.371695 0.779866 -0.11473
C_ C_ 0.952499 0.355233 0.780254 -0.11473
C_ C_ 0.717957 0.42035 0.742268 -0.02249
C_ C_ 0.968988 0.419397 0.746778 -0.02249
C_ C_ 0.666169 0.306887 0.744768 0.6875
C_ C_ 0.914753 0.308601 0.742272 0.6875
C_ C_ 0.717437 0.393924 0.707646 -0.11473
C_ C_ 0.954054 0.407353 0.708534 -0.11473
C_ C_ 0.680921 0.147766 0.744622 -0.02249
C_ C_ 0.937947 0.155782 0.748285 -0.02249
C_ C_ 0.735 0.0372532 0.746348 -0.02249
C_ C_ 0.983954 0.0405885 0.760704 -0.02249
C_ C_ 0.702287 0.0902107 0.782859 -0.11473
C_ C_ 0.958438 0.100538 0.79367 -0.11473
C_ C_ 0.69099 0.132245 0.706542 -0.11473
C_ C_ 0.947183 0.133698 0.712432 -0.11473
C_ C_ 0.688242 0.128657 0.781768 -0.11473
C_ C_ 0.941299 0.136379 0.788365 -0.11473
C_ C_ 0.715516 0.0757948 0.746012 -0.02249
C_ C_ 0.969156 0.0806579 0.757766 -0.02249
C_ C_ 0.661912 0.185288 0.743495 0.6875
C_ C_ 0.918741 0.1937 0.744839 0.6875
C_ C_ 0.708853 0.0960234 0.707307 -0.11473
C_ C_ 0.960058 0.0937319 0.717461 -0.11473
C_ C_ 0.559467 0.155567 0.749184 -0.02249
C_ C_ 0.817921 0.152185 0.740335 -0.02249
C_ C_ 0.512174 0.0382174 0.755151 -0.02249
C_ C_ 0.766738 0.0380563 0.741803 -0.02249
C_ C_ 0.527129 0.101717 0.717399 -0.11473
C_ C_ 0.783357 0.103325 0.705824 -0.11473
C_ C_ 0.556997 0.134024 0.788069 -0.11473
C_ C_ 0.816105 0.127947 0.77679 -0.11473
C_ C_ 0.54779 0.135123 0.71305 -0.11473
C_ C_ 0.80142 0.138522 0.704666 -0.11473
C_ C_ 0.529409 0.0778262 0.752733 -0.02249
C_ C_ 0.782935 0.078295 0.741724 -0.02249
C_ C_ 0.58222 0.187578 0.74682 0.6875
C_ C_ 0.83774 0.188495 0.738182 0.6875
C_ C_ 0.540369 0.0964753 0.789868 -0.11473
C_ C_ 0.799286 0.0916554 0.778276 -0.11473
C_ C_ 0.62568 0.282905 0.876164 0.17695
C_ C_ 0.9041 0.235962 0.865512 0.17695
C_ C_ 0.621356 0.210456 0.873141 0.17695
C_ C_ 0.851691 0.248112 0.865539 0.17695
C_ C_ 0.617971 0.20788 0.916557 -0.11473
C_ C_ 0.850495 0.240153 0.909438 -0.11473
C_ C_ 0.616637 0.243196 0.939994 0.23465
C_ C_ 0.877701 0.235049 0.931892 0.23465
C_ C_ 0.620133 0.282363 0.919248 -0.11473
C_ C_ 0.904518 0.234427 0.910388 -0.11473
C_ C_ 0.62573 0.213576 0.614118 0.17695
C_ C_ 0.865786 0.286881 0.615297 0.17695
C_ C_ 0.615935 0.283547 0.623329 0.17695
C_ C_ 0.881678 0.216673 0.613169 0.17695
C_ C_ 0.614703 0.290699 0.578491 -0.11473
C_ C_ 0.882413 0.216858 0.568075 -0.11473
C_ C_ 0.619904 0.25608 0.550629 0.23465
C_ C_ 0.872645 0.252085 0.548108 0.23465
C_ C_ 0.627001 0.216929 0.568633 -0.11473
C_ C_ 0.868442 0.289094 0.572068 -0.11473
C_ C_ 0.535427 0.502501 0.747662 0.05793
C_ C_ 0.7833 0.497803 0.742562 0.05793
C_ C_ 0.71949 -0.0010679999999999579 0.750095 0.05793
C_ C_ 0.969895 0.0028246 0.768701 0.05793
Br Br 0.575291 0.502518 0.723602 -0.17191
Br Br 0.827049 0.497663 0.744375 -0.17191
Br Br 0.676428 -0.00499000000000005 0.753507 -0.17191
Br Br 0.928999 0.000203051 0.786342 -0.17191
N_ N_ 0.625684 0.2476 0.853679 -0.272
N_ N_ 0.877596 0.242931 0.844449 -0.272
N_ N_ 0.621812 0.24024 0.984443 -0.12501
N_ N_ 0.878802 0.2293 0.976964 -0.12501
N_ N_ 0.62116 0.245863 0.639277 -0.272
N_ N_ 0.874232 0.251484 0.635558 -0.272
N_ N_ 0.619464 0.262102 0.505951 -0.12501
N_ N_ 0.866987 0.255162 0.503519 -0.12501
O_ O_ 0.593112 0.294578 0.712627 -0.60745
O_ O_ 0.843817 0.293929 0.707123 -0.60745
O_ O_ 0.601962 0.29755 0.780429 -0.60745
O_ O_ 0.842074 0.290521 0.775423 -0.60745
O_ O_ 0.660475 0.287866 0.778663 -0.60745
O_ O_ 0.905339 0.297985 0.777525 -0.60745
O_ O_ 0.657205 0.289932 0.711365 -0.60745
O_ O_ 0.902746 0.29188 0.709427 -0.60745
O_ O_ 0.656445 0.204363 0.777118 -0.60745
O_ O_ 0.912195 0.213789 0.778197 -0.60745
O_ O_ 0.652926 0.200136 0.708588 -0.60745
O_ O_ 0.909277 0.205572 0.709124 -0.60745
O_ O_ 0.590019 0.203462 0.710974 -0.60745
O_ O_ 0.845549 0.202835 0.702784 -0.60745
O_ O_ 0.592423 0.205756 0.781138 -0.60745
O_ O_ 0.850153 0.201255 0.772484 -0.60745
Zn Zn 0.624808 0.750445 0.284891 0.9476
Zn Zn 0.873155 0.750704 0.290101 0.9476
Zn Zn 0.623686 0.751505 0.213266 0.9476
Zn Zn 0.873886 0.752013 0.2178 0.9476
H_ H_ 0.556691 0.9372 0.194571 0.10932
H_ H_ 0.810271 0.942519 0.199804 0.10932
H_ H_ 0.549356 0.848758 0.319291 0.10932
H_ H_ 0.792783 0.842084 0.313489 0.10932
H_ H_ 0.581041 0.869683 0.192968 0.10932
H_ H_ 0.839547 0.880115 0.202202 0.10932
H_ H_ 0.518752 0.913962 0.313697 0.10932
H_ H_ 0.754778 0.897498 0.298374 0.10932
H_ H_ 0.69216 0.940305 0.303387 0.10932
H_ H_ 0.959202 0.919015 0.316394 0.10932
H_ H_ 0.706953 0.841301 0.187408 0.10932
H_ H_ 0.926587 0.853835 0.186752 0.10932
H_ H_ 0.660553 0.878341 0.302241 0.10932
H_ H_ 0.92607 0.861435 0.320718 0.10932
H_ H_ 0.729543 0.907041 0.186367 0.10932
H_ H_ 0.953581 0.921945 0.183917 0.10932
H_ H_ 0.738975 0.605514 0.300831 0.10932
H_ H_ 0.951018 0.569746 0.323491 0.10932
H_ H_ 0.66958 0.62721 0.181569 0.10932
H_ H_ 0.949417 0.662952 0.197397 0.10932
H_ H_ 0.708447 0.666082 0.298851 0.10932
H_ H_ 0.917821 0.628358 0.323139 0.10932
H_ H_ 0.703274 0.566171 0.183314 0.10932
H_ H_ 0.977158 0.593039 0.195563 0.10932
H_ H_ 0.536027 0.581081 0.183552 0.10932
H_ H_ 0.768907 0.599689 0.187731 0.10932
H_ H_ 0.572749 0.640656 0.317837 0.10932
H_ H_ 0.829097 0.634645 0.312904 0.10932
H_ H_ 0.564164 0.648616 0.183542 0.10932
H_ H_ 0.807304 0.657691 0.184826 0.10932
H_ H_ 0.532617 0.586264 0.317101 0.10932
H_ H_ 0.802316 0.564558 0.309497 0.10932
H_ H_ 0.614097 0.68687 0.358299 0.10932
H_ H_ 0.866163 0.822078 0.359739 0.10932
H_ H_ 0.63922 0.81291 0.366258 0.10932
H_ H_ 0.884196 0.695645 0.368232 0.10932
H_ H_ 0.634529 0.81172 0.441715 0.10932
H_ H_ 0.887698 0.699993 0.445795 0.10932
H_ H_ 0.605053 0.686326 0.433009 0.10932
H_ H_ 0.86179 0.825991 0.441104 0.10932
H_ H_ 0.568902 0.752181 0.131512 0.10932
H_ H_ 0.868284 0.684576 0.151139 0.10932
H_ H_ 0.664303 0.749752 0.147727 0.10932
H_ H_ 0.884485 0.811928 0.139732 0.10932
H_ H_ 0.668889 0.733013 0.0714042 0.10932
H_ H_ 0.879884 0.807303 0.0606228 0.10932
H_ H_ 0.575272 0.744452 0.0504242 0.10932
H_ H_ 0.871357 0.675276 0.0778941 0.10932
C_ C_ 0.568484 0.853266 0.257595 -0.02249
C_ C_ 0.815093 0.849257 0.253914 -0.02249
C_ C_ 0.51846 0.967734 0.252199 -0.02249
C_ C_ 0.765005 0.964234 0.250239 -0.02249
C_ C_ 0.553613 0.917108 0.221471 -0.11473
C_ C_ 0.804582 0.917993 0.222261 -0.11473
C_ C_ 0.551109 0.866722 0.291565 -0.11473
C_ C_ 0.791957 0.857899 0.282669 -0.11473
C_ C_ 0.569944 0.879917 0.221325 -0.11473
C_ C_ 0.822182 0.881205 0.224209 -0.11473
C_ C_ 0.536672 0.929436 0.25509 -0.02249
C_ C_ 0.782149 0.924822 0.251257 -0.02249
C_ C_ 0.585548 0.812849 0.25801 0.6875
C_ C_ 0.832422 0.809387 0.254881 0.6875
C_ C_ 0.536209 0.90487 0.289945 -0.11473
C_ C_ 0.774374 0.893399 0.2783 -0.11473
C_ C_ 0.679433 0.853714 0.24508 -0.02249
C_ C_ 0.926552 0.850016 0.253024 -0.02249
C_ C_ 0.732773 0.965171 0.246505 -0.02249
C_ C_ 0.981603 0.961074 0.250315 -0.02249
C_ C_ 0.696298 0.915855 0.279986 -0.11473
C_ C_ 0.953829 0.904671 0.288017 -0.11473
C_ C_ 0.70034 0.863151 0.21134 -0.11473
C_ C_ 0.935742 0.86872 0.215217 -0.11473
C_ C_ 0.67531 0.883885 0.275619 -0.11473
C_ C_ 0.937225 0.867771 0.290055 -0.11473
C_ C_ 0.714766 0.925876 0.246127 -0.02249
C_ C_ 0.962327 0.922318 0.250576 -0.02249
C_ C_ 0.663493 0.813866 0.245105 0.6875
C_ C_ 0.908752 0.811787 0.251781 0.6875
C_ C_ 0.717551 0.897566 0.214331 -0.11473
C_ C_ 0.953011 0.90363 0.213312 -0.11473
C_ C_ 0.684979 0.650826 0.240755 -0.02249
C_ C_ 0.93172 0.651414 0.261078 -0.02249
C_ C_ 0.737075 0.536205 0.248493 -0.02249
C_ C_ 0.982549 0.536225 0.257311 -0.02249
C_ C_ 0.724044 0.60981 0.273485 -0.11473
C_ C_ 0.948656 0.587775 0.294365 -0.11473
C_ C_ 0.681496 0.620644 0.210074 -0.11473
C_ C_ 0.949364 0.64145 0.224909 -0.11473
C_ C_ 0.704345 0.643656 0.274443 -0.11473
C_ C_ 0.931384 0.623611 0.294014 -0.11473
C_ C_ 0.71849 0.576757 0.246851 -0.02249
C_ C_ 0.965225 0.575738 0.258504 -0.02249
C_ C_ 0.664213 0.688697 0.240161 0.6875
C_ C_ 0.913005 0.689499 0.261056 0.6875
C_ C_ 0.699 0.584352 0.212701 -0.11473
C_ C_ 0.965369 0.603258 0.223951 -0.11473
C_ C_ 0.566647 0.651335 0.251198 -0.02249
C_ C_ 0.815827 0.653691 0.252381 -0.02249
C_ C_ 0.516095 0.535228 0.253478 -0.02249
C_ C_ 0.769197 0.536361 0.245425 -0.02249
C_ C_ 0.542419 0.594578 0.213755 -0.11473
C_ C_ 0.784879 0.604047 0.212463 -0.11473
C_ C_ 0.562867 0.628854 0.288696 -0.11473
C_ C_ 0.816156 0.625981 0.287376 -0.11473
C_ C_ 0.559158 0.630394 0.212578 -0.11473
C_ C_ 0.802932 0.640035 0.212755 -0.11473
C_ C_ 0.534727 0.575425 0.252933 -0.02249
C_ C_ 0.786173 0.57633 0.246803 -0.02249
C_ C_ 0.581494 0.69194 0.25132 0.6875
C_ C_ 0.8331 0.694466 0.252735 0.6875
C_ C_ 0.543928 0.595381 0.289487 -0.11473
C_ C_ 0.803252 0.585778 0.283746 -0.11473
C_ C_ 0.619553 0.714139 0.378094 0.17695
C_ C_ 0.865962 0.794666 0.379544 0.17695
C_ C_ 0.632518 0.784792 0.382747 0.17695
C_ C_ 0.877547 0.723813 0.384411 0.17695
C_ C_ 0.629677 0.784305 0.426028 -0.11473
C_ C_ 0.880481 0.725711 0.427471 -0.11473
C_ C_ 0.619978 0.748028 0.445437 0.23465
C_ C_ 0.872766 0.762489 0.448319 0.23465
C_ C_ 0.616725 0.712238 0.422489 -0.11473
C_ C_ 0.865916 0.797525 0.424043 -0.11473
C_ C_ 0.591064 0.752983 0.116913 0.17695
C_ C_ 0.869888 0.711904 0.131791 0.17695
C_ C_ 0.643885 0.746325 0.126132 0.17695
C_ C_ 0.877019 0.784782 0.125339 0.17695
C_ C_ 0.646776 0.741233 0.0833315 -0.11473
C_ C_ 0.877902 0.780127 0.0803385 -0.11473
C_ C_ 0.621378 0.737579 0.0574195 0.23465
C_ C_ 0.872543 0.74019 0.0620633 0.23465
C_ C_ 0.59347 0.747444 0.0729119 -0.11473
C_ C_ 0.873381 0.705986 0.0887952 -0.11473
C_ C_ 0.531424 1.00739365 0.258743 0.05793
C_ C_ 0.780796 1.00252811 0.254951 0.05793
C_ C_ 0.721244 0.498906 0.25586 0.05793
C_ C_ 0.966091 0.499505 0.253571 0.05793
Br Br 0.574027 1.0103103 0.268734 -0.17191
Br Br 0.821612 1.00419587 0.276303 -0.17191
Br Br 0.679439 0.502874 0.274482 -0.17191
Br Br 0.921359 0.498576 0.252939 -0.17191
N_ N_ 0.627197 0.750107 0.359649 -0.272
N_ N_ 0.871538 0.757701 0.360509 -0.272
N_ N_ 0.613449 0.745768 0.48799 -0.12501
N_ N_ 0.868039 0.763721 0.493545 -0.12501
N_ N_ 0.616792 0.753845 0.141878 -0.272
N_ N_ 0.874437 0.750332 0.148758 -0.272
N_ N_ 0.62312 0.72967 0.012802 -0.12501
N_ N_ 0.873226 0.732101 0.0171491 -0.12501
O_ O_ 0.597281 0.80221 0.223783 -0.60745
O_ O_ 0.844998 0.797579 0.221511 -0.60745
O_ O_ 0.589691 0.790536 0.291364 -0.60745
O_ O_ 0.840038 0.792493 0.289069 -0.60745
O_ O_ 0.652956 0.799975 0.2791 -0.60745
O_ O_ 0.899675 0.79796 0.285577 -0.60745
O_ O_ 0.658999 0.792894 0.211457 -0.60745
O_ O_ 0.907088 0.79054 0.218358 -0.60745
O_ O_ 0.658271 0.703912 0.276501 -0.60745
O_ O_ 0.904042 0.706081 0.294495 -0.60745
O_ O_ 0.653285 0.701589 0.206375 -0.60745
O_ O_ 0.901235 0.701188 0.22639 -0.60745
O_ O_ 0.586738 0.711245 0.216208 -0.60745
O_ O_ 0.840311 0.711132 0.218692 -0.60745
O_ O_ 0.596515 0.704479 0.283469 -0.60745
O_ O_ 0.846039 0.704389 0.286069 -0.60745
Zn Zn 0.629654 0.747897 0.783363 0.9476
Zn Zn 0.875652 0.745268 0.790186 0.9476
Zn Zn 0.627258 0.747182 0.71329 0.9476
Zn Zn 0.877847 0.750202 0.721008 0.9476
H_ H_ 0.541274 0.926174 0.683838 0.10932
H_ H_ 0.792453 0.917488 0.679233 0.10932
H_ H_ 0.560753 0.83848 0.811131 0.10932
H_ H_ 0.820148 0.858691 0.818399 0.10932
H_ H_ 0.571955 0.863687 0.679516 0.10932
H_ H_ 0.816679 0.852965 0.682713 0.10932
H_ H_ 0.530263 0.905729 0.817667 0.10932
H_ H_ 0.782413 0.918383 0.811756 0.10932
H_ H_ 0.729031 0.909664 0.819605 0.10932
H_ H_ 0.968937 0.920821 0.82855 0.10932
H_ H_ 0.679264 0.856762 0.687471 0.10932
H_ H_ 0.928688 0.859777 0.692981 0.10932
H_ H_ 0.700867 0.8423 0.819789 0.10932
H_ H_ 0.942598 0.848689 0.826887 0.10932
H_ H_ 0.705968 0.922152 0.686332 0.10932
H_ H_ 0.958639 0.921659 0.690156 0.10932
H_ H_ 0.724596 0.584352 0.817631 0.10932
H_ H_ 0.980092 0.589272 0.822608 0.10932
H_ H_ 0.676715 0.636253 0.682854 0.10932
H_ H_ 0.929814 0.641809 0.689454 0.10932
H_ H_ 0.700161 0.651946 0.816648 0.10932
H_ H_ 0.959121 0.660633 0.819679 0.10932
H_ H_ 0.710046 0.575192 0.685044 0.10932
H_ H_ 0.948815 0.571597 0.696098 0.10932
H_ H_ 0.520818 0.598127 0.677954 0.10932
H_ H_ 0.791937 0.576946 0.674003 0.10932
H_ H_ 0.563875 0.649564 0.81034 0.10932
H_ H_ 0.818594 0.640017 0.810944 0.10932
H_ H_ 0.5579 0.65516 0.67537 0.10932
H_ H_ 0.81336 0.648161 0.675771 0.10932
H_ H_ 0.539687 0.584108 0.811096 0.10932
H_ H_ 0.782078 0.585303 0.80961 0.10932
H_ H_ 0.627464 0.682966 0.861208 0.10932
H_ H_ 0.870401 0.680094 0.872947 0.10932
H_ H_ 0.633735 0.811551 0.856755 0.10932
H_ H_ 0.868643 0.812509 0.860113 0.10932
H_ H_ 0.640904 0.812915 0.933978 0.10932
H_ H_ 0.859072 0.817619 0.93583 0.10932
H_ H_ 0.63537 0.68132 0.938382 0.10932
H_ H_ 0.856434 0.683333 0.943838 0.10932
H_ H_ 0.615947 0.692129 0.632297 0.10932
H_ H_ 0.858465 0.806149 0.638817 0.10932
H_ H_ 0.640152 0.818447 0.646704 0.10932
H_ H_ 0.891495 0.685619 0.649979 0.10932
H_ H_ 0.633545 0.828958 0.570471 0.10932
H_ H_ 0.892293 0.67707 0.577001 0.10932
H_ H_ 0.615361 0.698806 0.557765 0.10932
H_ H_ 0.851592 0.79637 0.561828 0.10932
C_ C_ 0.568738 0.847026 0.745836 -0.02249
C_ C_ 0.819521 0.848087 0.751679 -0.02249
C_ C_ 0.515075 0.961882 0.753422 -0.02249
C_ C_ 0.76751 0.961881 0.74227 -0.02249
C_ C_ 0.546944 0.909753 0.712928 -0.11473
C_ C_ 0.796943 0.904611 0.709407 -0.11473
C_ C_ 0.554462 0.858233 0.783501 -0.11473
C_ C_ 0.812639 0.87016 0.78773 -0.11473
C_ C_ 0.564731 0.872831 0.711018 -0.11473
C_ C_ 0.809338 0.864866 0.71207 -0.11473
C_ C_ 0.534522 0.922944 0.751584 -0.02249
C_ C_ 0.786435 0.923946 0.745418 -0.02249
C_ C_ 0.590146 0.810003 0.747685 0.6875
C_ C_ 0.835525 0.806191 0.752723 0.6875
C_ C_ 0.539722 0.89692 0.786983 -0.11473
C_ C_ 0.792904 0.905367 0.784121 -0.11473
C_ C_ 0.68826 0.844389 0.753441 -0.02249
C_ C_ 0.934964 0.847117 0.761136 -0.02249
C_ C_ 0.736037 0.960028 0.748745 -0.02249
C_ C_ 0.982655 0.965647 0.760725 -0.02249
C_ C_ 0.720692 0.895859 0.789452 -0.11473
C_ C_ 0.959641 0.905623 0.799058 -0.11473
C_ C_ 0.69241 0.865604 0.715664 -0.11473
C_ C_ 0.941473 0.86815 0.723419 -0.11473
C_ C_ 0.704027 0.858719 0.790861 -0.11473
C_ C_ 0.944784 0.865515 0.79851 -0.11473
C_ C_ 0.720937 0.919639 0.751693 -0.02249
C_ C_ 0.963611 0.927219 0.761093 -0.02249
C_ C_ 0.669329 0.804556 0.753258 0.6875
C_ C_ 0.917939 0.806433 0.760637 0.6875
C_ C_ 0.708353 0.90298 0.715093 -0.11473
C_ C_ 0.95536 0.907526 0.722667 -0.11473
C_ C_ 0.684487 0.648003 0.751671 -0.02249
C_ C_ 0.938581 0.654207 0.756718 -0.02249
C_ C_ 0.736013 0.535512 0.745841 -0.02249
C_ C_ 0.984709 0.537444 0.759202 -0.02249
C_ C_ 0.717278 0.597416 0.787639 -0.11473
C_ C_ 0.967813 0.600266 0.795058 -0.11473
C_ C_ 0.68784 0.626199 0.713832 -0.11473
C_ C_ 0.940496 0.630732 0.719099 -0.11473
C_ C_ 0.697175 0.631831 0.789519 -0.11473
C_ C_ 0.956968 0.642062 0.791765 -0.11473
C_ C_ 0.719906 0.576494 0.749183 -0.02249
C_ C_ 0.965773 0.576562 0.75791 -0.02249
C_ C_ 0.667248 0.687673 0.750111 0.6875
C_ C_ 0.920822 0.693446 0.758583 0.6875
C_ C_ 0.706957 0.592712 0.712616 -0.11473
C_ C_ 0.953065 0.591847 0.720427 -0.11473
C_ C_ 0.567236 0.65546 0.742087 -0.02249
C_ C_ 0.815417 0.653326 0.743964 -0.02249
C_ C_ 0.519405 0.539397 0.7425 -0.02249
C_ C_ 0.76796 0.535187 0.738714 -0.02249
C_ C_ 0.535621 0.604391 0.705309 -0.11473
C_ C_ 0.795774 0.594896 0.703039 -0.11473
C_ C_ 0.561009 0.636261 0.780309 -0.11473
C_ C_ 0.80653 0.6327 0.780724 -0.11473
C_ C_ 0.553172 0.639936 0.704772 -0.11473
C_ C_ 0.81029 0.632207 0.705254 -0.11473
C_ C_ 0.535123 0.580192 0.741762 -0.02249
C_ C_ 0.785472 0.576029 0.741135 -0.02249
C_ C_ 0.584201 0.695019 0.741488 0.6875
C_ C_ 0.839317 0.687035 0.747294 0.6875
C_ C_ 0.544451 0.598862 0.780929 -0.11473
C_ C_ 0.792043 0.594988 0.780263 -0.11473
C_ C_ 0.629386 0.710844 0.877025 0.17695
C_ C_ 0.866696 0.710569 0.884946 0.17695
C_ C_ 0.63094 0.783366 0.874892 0.17695
C_ C_ 0.868877 0.783551 0.87852 0.17695
C_ C_ 0.63517 0.784257 0.919089 -0.11473
C_ C_ 0.863588 0.786623 0.921473 -0.11473
C_ C_ 0.637232 0.748329 0.943036 0.23465
C_ C_ 0.859783 0.751388 0.946063 0.23465
C_ C_ 0.633868 0.710652 0.921379 -0.11473
C_ C_ 0.860643 0.712356 0.928052 -0.11473
C_ C_ 0.620781 0.721727 0.620044 0.17695
C_ C_ 0.869278 0.781359 0.623403 0.17695
C_ C_ 0.632601 0.792722 0.627921 0.17695
C_ C_ 0.883957 0.71137 0.631323 0.17695
C_ C_ 0.629797 0.79815 0.58379 -0.11473
C_ C_ 0.883306 0.705584 0.587836 -0.11473
C_ C_ 0.624855 0.76362 0.557661 0.23465
C_ C_ 0.872905 0.736379 0.561753 0.23465
C_ C_ 0.621215 0.726409 0.5759 -0.11473
C_ C_ 0.861615 0.772503 0.580135 -0.11473
C_ C_ 0.530239 0.0019719 0.757711 0.05793
C_ C_ 0.782992 0.000297369 0.743045 0.05793
C_ C_ 0.720217 0.498809 0.749272 0.05793
C_ C_ 0.968006 0.498412 0.754155 0.05793
Br Br 0.574208 0.00361969 0.758788 -0.17191
Br Br 0.823891 1.00122903 0.72606 -0.17191
Br Br 0.67774 0.498458 0.762225 -0.17191
Br Br 0.926994 0.495555 0.76751 -0.17191
N_ N_ 0.630881 0.746366 0.854418 -0.272
N_ N_ 0.869513 0.745661 0.859902 -0.272
N_ N_ 0.639001 0.751079 0.98855 -0.12501
N_ N_ 0.857793 0.754405 0.992583 -0.12501
N_ N_ 0.628686 0.754684 0.645306 -0.272
N_ N_ 0.878364 0.749614 0.648398 -0.272
N_ N_ 0.626687 0.768407 0.513097 -0.12501
N_ N_ 0.872292 0.732638 0.516884 -0.12501
O_ O_ 0.596588 0.79198 0.712988 -0.60745
O_ O_ 0.847286 0.793719 0.718843 -0.60745
O_ O_ 0.601458 0.796237 0.781245 -0.60745
O_ O_ 0.844127 0.792545 0.78783 -0.60745
O_ O_ 0.666465 0.782509 0.786771 -0.60745
O_ O_ 0.908578 0.789241 0.793693 -0.60745
O_ O_ 0.655494 0.793701 0.719591 -0.60745
O_ O_ 0.906723 0.794645 0.724597 -0.60745
O_ O_ 0.654639 0.698693 0.782951 -0.60745
O_ O_ 0.908164 0.702596 0.793 -0.60745
O_ O_ 0.660805 0.705752 0.71566 -0.60745
O_ O_ 0.91109 0.709268 0.724799 -0.60745
O_ O_ 0.596801 0.70414 0.706766 -0.60745
O_ O_ 0.847438 0.708634 0.71594 -0.60745
O_ O_ 0.594691 0.707872 0.775817 -0.60745
O_ O_ 0.84802 0.697782 0.783445 -0.60745
_cell_length_a 44.444
_cell_length_b 32.3360000049186
_cell_length_c 31.843999878906452
_cell_angle_alpha 89.99799923859553
_cell_angle_beta 91.13600050494348
_cell_angle_gamma 89.9990006550086
_symmetry_space_group_name_H-M         'P 1'
_symmetry_Int_Tables_number            1
loop_
_symmetry_equiv_pos_as_xyz
   'x, y, z'
                         
loop_
_atom_site_label
_atom_site_type_symbol
_atom_site_fract_x 
_atom_site_fract_y
_atom_site_fract_z
_atom_site_charge
Zn Zn 0.123936 0.250286 0.2839 0.9476
Zn Zn 0.375915 0.252158 0.287755 0.9476
Zn Zn 0.12507 0.246998 0.214818 0.9476
Zn Zn 0.374544 0.247239 0.217729 0.9476
H_ H_ 0.0384196 0.42142 0.184455 0.10932
H_ H_ 0.273979 0.406229 0.178577 0.10932
H_ H_ 0.0512089 0.340524 0.315807 0.10932
H_ H_ 0.318846 0.361243 0.31556 0.10932
H_ H_ 0.0716878 0.36106 0.184309 0.10932
H_ H_ 0.303097 0.338748 0.183717 0.10932
H_ H_ 0.0252091 0.405248 0.314088 0.10932
H_ H_ 0.289136 0.425406 0.308381 0.10932
H_ H_ 0.220259 0.410856 0.316007 0.10932
H_ H_ 0.476979 0.407573 0.311017 0.10932
H_ H_ 0.182278 0.353358 0.1811 0.10932
H_ H_ 0.414959 0.362283 0.191078 0.10932
H_ H_ 0.194231 0.345638 0.313989 0.10932
H_ H_ 0.454452 0.337335 0.312315 0.10932
H_ H_ 0.207328 0.420145 0.181005 0.10932
H_ H_ 0.44652 0.424972 0.185699 0.10932
H_ H_ 0.22528 0.0898522 0.3204 0.10932
H_ H_ 0.460319 0.0742489 0.316156 0.10932
H_ H_ 0.174145 0.13294 0.18961 0.10932
H_ H_ 0.439515 0.155323 0.187045 0.10932
H_ H_ 0.195587 0.154712 0.320362 0.10932
H_ H_ 0.436869 0.14411 0.322905 0.10932
H_ H_ 0.209245 0.0735742 0.192428 0.10932
H_ H_ 0.461856 0.0834366 0.182161 0.10932
H_ H_ 0.0306754 0.0881356 0.177586 0.10932
H_ H_ 0.269586 0.0921561 0.186047 0.10932
H_ H_ 0.0563792 0.149338 0.316705 0.10932
H_ H_ 0.329305 0.136703 0.313312 0.10932
H_ H_ 0.0638746 0.15172 0.181131 0.10932
H_ H_ 0.295125 0.159398 0.185887 0.10932
H_ H_ 0.0346391 0.0764645 0.310615 0.10932
H_ H_ 0.30378 0.0687608 0.311855 0.10932
H_ H_ 0.113534 0.310923 0.362093 0.10932
H_ H_ 0.378389 0.314329 0.358741 0.10932
H_ H_ 0.135829 0.185754 0.353249 0.10932
H_ H_ 0.372935 0.187302 0.365384 0.10932
H_ H_ 0.132697 0.179055 0.428953 0.10932
H_ H_ 0.370854 0.189629 0.445199 0.10932
H_ H_ 0.115916 0.30912 0.440447 0.10932
H_ H_ 0.373922 0.323313 0.431773 0.10932
H_ H_ 0.139814 0.306272 0.13919 0.10932
H_ H_ 0.367944 0.31151 0.136307 0.10932
H_ H_ 0.105369 0.18496 0.145405 0.10932
H_ H_ 0.388471 0.185497 0.143628 0.10932
H_ H_ 0.103422 0.179113 0.0675039 0.10932
H_ H_ 0.385414 0.182161 0.0623495 0.10932
H_ H_ 0.135309 0.302895 0.0617841 0.10932
H_ H_ 0.360041 0.309237 0.0609974 0.10932
C_ C_ 0.0653415 0.346306 0.249968 -0.02249
C_ C_ 0.317856 0.347652 0.249183 -0.02249
C_ C_ 0.0126586 0.460117 0.24822 -0.02249
C_ C_ 0.26914 0.462045 0.245071 -0.02249
C_ C_ 0.0421341 0.403075 0.212108 -0.11473
C_ C_ 0.288758 0.398264 0.206133 -0.11473
C_ C_ 0.0517622 0.360427 0.287136 -0.11473
C_ C_ 0.311406 0.372402 0.285593 -0.11473
C_ C_ 0.0616878 0.369548 0.213095 -0.11473
C_ C_ 0.304569 0.359284 0.210372 -0.11473
C_ C_ 0.0281294 0.41769 0.247124 -0.02249
C_ C_ 0.286576 0.423018 0.243392 -0.02249
C_ C_ 0.0865589 0.308504 0.2488 0.6875
C_ C_ 0.336839 0.310197 0.250944 0.6875
C_ C_ 0.0352967 0.397506 0.284904 -0.11473
C_ C_ 0.296808 0.409904 0.281406 -0.11473
C_ C_ 0.184019 0.345229 0.249158 -0.02249
C_ C_ 0.431574 0.344959 0.252546 -0.02249
C_ C_ 0.236949 0.461346 0.248329 -0.02249
C_ C_ 0.479689 0.460818 0.24775 -0.02249
C_ C_ 0.212857 0.400083 0.28582 -0.11473
C_ C_ 0.464165 0.396727 0.285275 -0.11473
C_ C_ 0.191244 0.365318 0.210184 -0.11473
C_ C_ 0.427145 0.371271 0.217149 -0.11473
C_ C_ 0.194877 0.363691 0.28671 -0.11473
C_ C_ 0.451865 0.357658 0.285153 -0.11473
C_ C_ 0.220158 0.419243 0.247863 -0.02249
C_ C_ 0.461121 0.421841 0.25011 -0.02249
C_ C_ 0.16432 0.30778 0.250866 0.6875
C_ C_ 0.415235 0.305011 0.255328 0.6875
C_ C_ 0.207812 0.402035 0.210103 -0.11473
C_ C_ 0.444897 0.406554 0.214 -0.11473
C_ C_ 0.182638 0.150592 0.254937 -0.02249
C_ C_ 0.432391 0.152406 0.255245 -0.02249
C_ C_ 0.23651 0.0392106 0.257436 -0.02249
C_ C_ 0.483036 0.039921 0.253149 -0.02249
C_ C_ 0.215901 0.100535 0.292898 -0.11473
C_ C_ 0.453343 0.0913246 0.289642 -0.11473
C_ C_ 0.18873 0.128117 0.21823 -0.11473
C_ C_ 0.444923 0.139476 0.216319 -0.11473
C_ C_ 0.197753 0.13728 0.292307 -0.11473
C_ C_ 0.439659 0.129301 0.292627 -0.11473
C_ C_ 0.219184 0.0776905 0.256899 -0.02249
C_ C_ 0.463625 0.0766733 0.251747 -0.02249
C_ C_ 0.164618 0.188987 0.253533 0.6875
C_ C_ 0.411656 0.188209 0.254763 0.6875
C_ C_ 0.206831 0.0918776 0.21949 -0.11473
C_ C_ 0.461429 0.101023 0.213547 -0.11473
C_ C_ 0.0620794 0.154809 0.248689 -0.02249
C_ C_ 0.314589 0.151376 0.250692 -0.02249
C_ C_ 0.0158678 0.0360376 0.24166 -0.02249
C_ C_ 0.267012 0.0380449 0.249649 -0.02249
C_ C_ 0.0397214 0.0986641 0.207082 -0.11473
C_ C_ 0.282077 0.102239 0.213998 -0.11473
C_ C_ 0.0533062 0.134061 0.285325 -0.11473
C_ C_ 0.314526 0.128174 0.286253 -0.11473
C_ C_ 0.0559108 0.13637 0.208345 -0.11473
C_ C_ 0.297564 0.139325 0.21488 -0.11473
C_ C_ 0.0336465 0.0767924 0.243911 -0.02249
C_ C_ 0.28366 0.0764746 0.250443 -0.02249
C_ C_ 0.0814942 0.193015 0.250362 0.6875
C_ C_ 0.335225 0.188126 0.248175 0.6875
C_ C_ 0.0423099 0.0943778 0.283437 -0.11473
C_ C_ 0.3008 0.0892231 0.286297 -0.11473
C_ C_ 0.117041 0.282466 0.378681 0.17695
C_ C_ 0.371209 0.287752 0.377768 0.17695
C_ C_ 0.128979 0.212809 0.373548 0.17695
C_ C_ 0.37278 0.216116 0.383424 0.17695
C_ C_ 0.128764 0.209152 0.417326 -0.11473
C_ C_ 0.369803 0.218498 0.426194 -0.11473
C_ C_ 0.123378 0.243082 0.44276 0.23465
C_ C_ 0.372134 0.256435 0.447311 0.23465
C_ C_ 0.120348 0.281728 0.422704 -0.11473
C_ C_ 0.374275 0.292078 0.420188 -0.11473
C_ C_ 0.132314 0.278441 0.122002 0.17695
C_ C_ 0.36923 0.281716 0.121351 0.17695
C_ C_ 0.110653 0.211659 0.126636 0.17695
C_ C_ 0.380649 0.210696 0.125525 0.17695
C_ C_ 0.107865 0.207562 0.0826974 -0.11473
C_ C_ 0.378914 0.207964 0.0806493 -0.11473
C_ C_ 0.117854 0.239405 0.0578008 0.23465
C_ C_ 0.371372 0.243907 0.057307 0.23465
C_ C_ 0.128027 0.276489 0.0785275 -0.11473
C_ C_ 0.368329 0.28155 0.0780408 -0.11473
C_ C_ 0.0296843 0.497647 0.254199 0.05793
C_ C_ 0.283597 0.502037 0.241544 0.05793
C_ C_ 0.220914 0.0013000000000000789 0.259385 0.05793
C_ C_ 0.469561 1.000986979 0.246663 0.05793
Br Br 0.0703767 0.493978 0.269162 -0.17191
Br Br 0.32659 0.504435 0.230248 -0.17191
Br Br 0.180075 -0.004916999999999949 0.274509 -0.17191
Br Br 0.427921 0.997425 0.227754 -0.17191
N_ N_ 0.123699 0.248918 0.355692 -0.272
N_ N_ 0.369847 0.250305 0.358772 -0.272
N_ N_ 0.129763 0.239698 0.486392 -0.12501
N_ N_ 0.366467 0.261797 0.491272 -0.12501
N_ N_ 0.12336 0.246677 0.146097 -0.272
N_ N_ 0.373281 0.247538 0.14512 -0.272
N_ N_ 0.113258 0.239577 0.0126996 -0.12501
N_ N_ 0.367583 0.241802 0.0126415 -0.12501
O_ O_ 0.0951152 0.292119 0.2149 -0.60745
O_ O_ 0.349209 0.296386 0.218166 -0.60745
O_ O_ 0.0937034 0.292122 0.282857 -0.60745
O_ O_ 0.344746 0.297993 0.286562 -0.60745
O_ O_ 0.153738 0.297367 0.285084 -0.60745
O_ O_ 0.404318 0.295686 0.290723 -0.60745
O_ O_ 0.160314 0.284647 0.218262 -0.60745
O_ O_ 0.40825 0.285458 0.22305 -0.60745
O_ O_ 0.159201 0.208294 0.286012 -0.60745
O_ O_ 0.408641 0.210477 0.286954 -0.60745
O_ O_ 0.152811 0.200501 0.218589 -0.60745
O_ O_ 0.398755 0.197372 0.220155 -0.60745
O_ O_ 0.0908592 0.207308 0.216023 -0.60745
O_ O_ 0.338313 0.208994 0.215282 -0.60745
O_ O_ 0.0941821 0.202615 0.285456 -0.60745
O_ O_ 0.345951 0.204782 0.282577 -0.60745
Zn Zn 0.127156 0.250355 0.784381 0.9476
Zn Zn 0.377664 0.252709 0.789234 0.9476
Zn Zn 0.127122 0.250728 0.711614 0.9476
Zn Zn 0.376102 0.251589 0.720779 0.9476
H_ H_ 0.0193961 0.400142 0.687554 0.10932
H_ H_ 0.281908 0.414133 0.684621 0.10932
H_ H_ 0.0779146 0.361644 0.814994 0.10932
H_ H_ 0.322436 0.363392 0.820626 0.10932
H_ H_ 0.0481663 0.340057 0.686668 0.10932
H_ H_ 0.309476 0.35136 0.686005 0.10932
H_ H_ 0.0490088 0.429682 0.815583 0.10932
H_ H_ 0.289741 0.420589 0.823012 0.10932
H_ H_ 0.230117 0.408546 0.816564 0.10932
H_ H_ 0.476579 0.416525 0.813084 0.10932
H_ H_ 0.175325 0.368765 0.68667 0.10932
H_ H_ 0.44073 0.347822 0.681745 0.10932
H_ H_ 0.198588 0.34623 0.814999 0.10932
H_ H_ 0.447741 0.35131 0.814566 0.10932
H_ H_ 0.206692 0.4265 0.684778 0.10932
H_ H_ 0.466399 0.415394 0.678531 0.10932
H_ H_ 0.22634 0.0987953 0.820763 0.10932
H_ H_ 0.458082 0.0769019 0.824558 0.10932
H_ H_ 0.17741 0.136137 0.685236 0.10932
H_ H_ 0.428815 0.141497 0.688521 0.10932
H_ H_ 0.19717 0.161078 0.817302 0.10932
H_ H_ 0.435048 0.145 0.82103 0.10932
H_ H_ 0.206521 0.0740073 0.691733 0.10932
H_ H_ 0.460475 0.0802633 0.690123 0.10932
H_ H_ 0.0298499 0.0864526 0.688131 0.10932
H_ H_ 0.279486 0.0917941 0.693322 0.10932
H_ H_ 0.0858214 0.137708 0.810891 0.10932
H_ H_ 0.315878 0.149539 0.82805 0.10932
H_ H_ 0.0546836 0.153297 0.684008 0.10932
H_ H_ 0.307926 0.156835 0.690781 0.10932
H_ H_ 0.0531342 0.0769749 0.819182 0.10932
H_ H_ 0.302721 0.0775047 0.821855 0.10932
H_ H_ 0.148748 0.308263 0.857105 0.10932
H_ H_ 0.332681 0.243316 0.861926 0.10932
H_ H_ 0.116594 0.186749 0.865291 0.10932
H_ H_ 0.420249 0.288513 0.859758 0.10932
H_ H_ 0.118763 0.189711 0.943236 0.10932
H_ H_ 0.421337 0.290044 0.93989 0.10932
H_ H_ 0.139676 0.317624 0.934503 0.10932
H_ H_ 0.332656 0.237644 0.939575 0.10932
H_ H_ 0.133032 0.193786 0.634988 0.10932
H_ H_ 0.423214 0.251275 0.646162 0.10932
H_ H_ 0.110595 0.319185 0.646286 0.10932
H_ H_ 0.328 0.240071 0.643139 0.10932
H_ H_ 0.120411 0.328829 0.566813 0.10932
H_ H_ 0.328388 0.222329 0.567488 0.10932
H_ H_ 0.128117 0.194328 0.557667 0.10932
H_ H_ 0.421889 0.256484 0.56389 0.10932
C_ C_ 0.0646889 0.344851 0.752272 -0.02249
C_ C_ 0.319871 0.352825 0.754684 -0.02249
C_ C_ 0.0163603 0.460973 0.750951 -0.02249
C_ C_ 0.267866 0.46607 0.754719 -0.02249
C_ C_ 0.0318684 0.394577 0.715719 -0.11473
C_ C_ 0.293328 0.407552 0.715363 -0.11473
C_ C_ 0.0656279 0.370908 0.78744 -0.11473
C_ C_ 0.315217 0.375293 0.791797 -0.11473
C_ C_ 0.0491037 0.358558 0.717245 -0.11473
C_ C_ 0.308196 0.369309 0.717065 -0.11473
C_ C_ 0.0320526 0.420529 0.751251 -0.02249
C_ C_ 0.287875 0.428812 0.753531 -0.02249
C_ C_ 0.0868563 0.309575 0.750486 0.6875
C_ C_ 0.337981 0.313243 0.753379 0.6875
C_ C_ 0.0481938 0.408701 0.787865 -0.11473
C_ C_ 0.297051 0.412191 0.791406 -0.11473
C_ C_ 0.184888 0.350575 0.750295 -0.02249
C_ C_ 0.435459 0.349336 0.748727 -0.02249
C_ C_ 0.234807 0.464439 0.754069 -0.02249
C_ C_ 0.487127 0.462759 0.744603 -0.02249
C_ C_ 0.216782 0.399616 0.78807 -0.11473
C_ C_ 0.46406 0.404633 0.783903 -0.11473
C_ C_ 0.185784 0.377445 0.715721 -0.11473
C_ C_ 0.443555 0.36676 0.710644 -0.11473
C_ C_ 0.199803 0.363628 0.786921 -0.11473
C_ C_ 0.448871 0.367312 0.786493 -0.11473
C_ C_ 0.218653 0.423711 0.752576 -0.02249
C_ C_ 0.471152 0.421278 0.74557 -0.02249
C_ C_ 0.164072 0.312608 0.748833 0.6875
C_ C_ 0.416049 0.311109 0.751065 0.6875
C_ C_ 0.205278 0.41126 0.71403 -0.11473
C_ C_ 0.461148 0.402249 0.708111 -0.11473
C_ C_ 0.188698 0.157257 0.749416 -0.02249
C_ C_ 0.431866 0.150651 0.754227 -0.02249
C_ C_ 0.237313 0.0432005 0.758704 -0.02249
C_ C_ 0.480037 0.0364142 0.75593 -0.02249
C_ C_ 0.216017 0.106592 0.791222 -0.11473
C_ C_ 0.454746 0.0926128 0.794623 -0.11473
C_ C_ 0.193564 0.133189 0.713109 -0.11473
C_ C_ 0.436735 0.129372 0.718302 -0.11473
C_ C_ 0.20297 0.144233 0.787613 -0.11473
C_ C_ 0.440615 0.131091 0.793384 -0.11473
C_ C_ 0.219762 0.0815435 0.755918 -0.02249
C_ C_ 0.461178 0.0732588 0.756283 -0.02249
C_ C_ 0.168012 0.19444 0.7479 0.6875
C_ C_ 0.413296 0.190114 0.753509 0.6875
C_ C_ 0.209403 0.0957383 0.716622 -0.11473
C_ C_ 0.451234 0.0919204 0.719598 -0.11473
C_ C_ 0.0728198 0.151489 0.747828 -0.02249
C_ C_ 0.318829 0.155439 0.757217 -0.02249
C_ C_ 0.0170737 0.0391903 0.757848 -0.02249
C_ C_ 0.269196 0.0398988 0.75712 -0.02249
C_ C_ 0.0376197 0.0996773 0.715642 -0.11473
C_ C_ 0.290542 0.10197 0.719644 -0.11473
C_ C_ 0.0730852 0.127817 0.786456 -0.11473
C_ C_ 0.314732 0.133654 0.795774 -0.11473
C_ C_ 0.056081 0.13603 0.712379 -0.11473
C_ C_ 0.306429 0.138609 0.719822 -0.11473
C_ C_ 0.0354649 0.0784122 0.75627 -0.02249
C_ C_ 0.285595 0.079676 0.756996 -0.02249
C_ C_ 0.0893708 0.190072 0.745067 0.6875
C_ C_ 0.335982 0.194912 0.757182 0.6875
C_ C_ 0.0550378 0.0920448 0.790143 -0.11473
C_ C_ 0.300052 0.0954841 0.792093 -0.11473
C_ C_ 0.138213 0.283263 0.875216 0.17695
C_ C_ 0.353255 0.246149 0.879127 0.17695
C_ C_ 0.120055 0.215589 0.880632 0.17695
C_ C_ 0.402534 0.275073 0.87872 0.17695
C_ C_ 0.119039 0.218553 0.924432 -0.11473
C_ C_ 0.403484 0.272087 0.922454 -0.11473
C_ C_ 0.126002 0.256446 0.944026 0.23465
C_ C_ 0.379528 0.257218 0.944765 0.23465
C_ C_ 0.135203 0.288827 0.917879 -0.11473
C_ C_ 0.353147 0.245817 0.922991 -0.11473
C_ C_ 0.131071 0.222544 0.618097 0.17695
C_ C_ 0.401598 0.248585 0.627904 0.17695
C_ C_ 0.118038 0.293452 0.624896 0.17695
C_ C_ 0.348145 0.241034 0.626396 0.17695
C_ C_ 0.119959 0.298728 0.581044 -0.11473
C_ C_ 0.347929 0.233688 0.584158 -0.11473
C_ C_ 0.124389 0.263494 0.555378 0.23465
C_ C_ 0.374109 0.242352 0.561674 0.23465
C_ C_ 0.12679 0.223907 0.575216 -0.11473
C_ C_ 0.40195 0.248418 0.582855 -0.11473
C_ C_ 0.033026 0.498588 0.751073 0.05793
C_ C_ 0.280895 0.505473 0.755723 0.05793
C_ C_ 0.221513 0.00450921 0.760834 0.05793
C_ C_ 0.466029 0.995523 0.758778 0.05793
Br Br 0.0753073 0.494616 0.737278 -0.17191
Br Br 0.32297 0.510908 0.754366 -0.17191
Br Br 0.179788 0.00861183 0.767207 -0.17191
Br Br 0.422213 0.991544 0.755826 -0.17191
N_ N_ 0.126192 0.249112 0.855655 -0.272
N_ N_ 0.37879 0.256458 0.858297 -0.272
N_ N_ 0.129768 0.259084 0.987953 -0.12501
N_ N_ 0.378996 0.266361 0.987791 -0.12501
N_ N_ 0.124458 0.255618 0.64184 -0.272
N_ N_ 0.374331 0.245609 0.648011 -0.272
N_ N_ 0.122925 0.26768 0.511699 -0.12501
N_ N_ 0.37566 0.235939 0.518214 -0.12501
O_ O_ 0.09426 0.295785 0.714944 -0.60745
O_ O_ 0.348305 0.298516 0.719803 -0.60745
O_ O_ 0.0953298 0.293401 0.78332 -0.60745
O_ O_ 0.34453 0.29485 0.787858 -0.60745
O_ O_ 0.156783 0.294608 0.781938 -0.60745
O_ O_ 0.40557 0.299753 0.785695 -0.60745
O_ O_ 0.158852 0.293375 0.714847 -0.60745
O_ O_ 0.409443 0.291524 0.718538 -0.60745
O_ O_ 0.159097 0.211079 0.781289 -0.60745
O_ O_ 0.408382 0.209493 0.787066 -0.60745
O_ O_ 0.156974 0.20471 0.714115 -0.60745
O_ O_ 0.407001 0.206895 0.717699 -0.60745
O_ O_ 0.0935839 0.208918 0.710729 -0.60745
O_ O_ 0.340475 0.214375 0.722191 -0.60745
O_ O_ 0.099662 0.205034 0.778514 -0.60745
O_ O_ 0.348798 0.205917 0.791091 -0.60745
Zn Zn 0.125231 0.750452 0.288153 0.9476
Zn Zn 0.375936 0.750042 0.279747 0.9476
Zn Zn 0.122002 0.74987 0.217091 0.9476
Zn Zn 0.375749 0.75109 0.212664 0.9476
H_ H_ 0.0371834 0.924521 0.177012 0.10932
H_ H_ 0.275794 0.909781 0.176931 0.10932
H_ H_ 0.0538011 0.843837 0.312452 0.10932
H_ H_ 0.311624 0.846641 0.310033 0.10932
H_ H_ 0.0589001 0.848796 0.177753 0.10932
H_ H_ 0.305071 0.847031 0.176381 0.10932
H_ H_ 0.0233902 0.909261 0.306937 0.10932
H_ H_ 0.284351 0.914277 0.313251 0.10932
H_ H_ 0.22997 0.90371 0.31919 0.10932
H_ H_ 0.451636 0.936388 0.308503 0.10932
H_ H_ 0.172021 0.866571 0.188332 0.10932
H_ H_ 0.457463 0.836966 0.186692 0.10932
H_ H_ 0.202195 0.838161 0.313377 0.10932
H_ H_ 0.422431 0.869224 0.312337 0.10932
H_ H_ 0.204568 0.9317 0.191583 0.10932
H_ H_ 0.485065 0.905061 0.187958 0.10932
H_ H_ 0.238787 0.599302 0.30572 0.10932
H_ H_ 0.474112 0.589327 0.316022 0.10932
H_ H_ 0.161923 0.625755 0.191165 0.10932
H_ H_ 0.42921 0.643861 0.183441 0.10932
H_ H_ 0.205964 0.660291 0.308001 0.10932
H_ H_ 0.444004 0.654346 0.316133 0.10932
H_ H_ 0.19125 0.5613 0.190326 0.10932
H_ H_ 0.459924 0.579948 0.181366 0.10932
H_ H_ 0.0334235 0.578647 0.187255 0.10932
H_ H_ 0.267722 0.596482 0.178425 0.10932
H_ H_ 0.0673703 0.646328 0.317652 0.10932
H_ H_ 0.322219 0.639645 0.308957 0.10932
H_ H_ 0.0691102 0.637475 0.183672 0.10932
H_ H_ 0.304085 0.658398 0.175077 0.10932
H_ H_ 0.0330464 0.585692 0.319893 0.10932
H_ H_ 0.300167 0.569649 0.302101 0.10932
H_ H_ 0.116129 0.815508 0.359736 0.10932
H_ H_ 0.374259 0.685161 0.350251 0.10932
H_ H_ 0.139391 0.688966 0.371243 0.10932
H_ H_ 0.379559 0.813794 0.357244 0.10932
H_ H_ 0.138455 0.693317 0.446278 0.10932
H_ H_ 0.375866 0.812235 0.436943 0.10932
H_ H_ 0.109171 0.818805 0.435465 0.10932
H_ H_ 0.38279 0.678897 0.42875 0.10932
H_ H_ 0.167987 0.760669 0.142713 0.10932
H_ H_ 0.390042 0.687186 0.142072 0.10932
H_ H_ 0.073484 0.735955 0.140318 0.10932
H_ H_ 0.371764 0.815713 0.143114 0.10932
H_ H_ 0.0724245 0.733998 0.0656989 0.10932
H_ H_ 0.370197 0.817328 0.0659113 0.10932
H_ H_ 0.169759 0.752951 0.0688105 0.10932
H_ H_ 0.40038 0.692489 0.0633018 0.10932
C_ C_ 0.0629559 0.845216 0.243423 -0.02249
C_ C_ 0.316267 0.846662 0.244049 -0.02249
C_ C_ 0.0122873 0.959313 0.245081 -0.02249
C_ C_ 0.266773 0.960905 0.248214 -0.02249
C_ C_ 0.0395968 0.9036 0.204394 -0.11473
C_ C_ 0.286347 0.899726 0.206022 -0.11473
C_ C_ 0.0509724 0.859643 0.281509 -0.11473
C_ C_ 0.303734 0.861352 0.281808 -0.11473
C_ C_ 0.0549925 0.865301 0.205788 -0.11473
C_ C_ 0.304766 0.864105 0.205723 -0.11473
C_ C_ 0.0276701 0.917482 0.243231 -0.02249
C_ C_ 0.281481 0.920509 0.245683 -0.02249
C_ C_ 0.0829542 0.808219 0.245649 0.6875
C_ C_ 0.335325 0.806536 0.242693 0.6875
C_ C_ 0.03143 0.895441 0.279893 -0.11473
C_ C_ 0.290154 0.900905 0.283687 -0.11473
C_ C_ 0.181071 0.850467 0.253431 -0.02249
C_ C_ 0.436207 0.850239 0.247666 -0.02249
C_ C_ 0.23528 0.962634 0.257503 -0.02249
C_ C_ 0.487345 0.963704 0.248041 -0.02249
C_ C_ 0.2167 0.896948 0.290723 -0.11473
C_ C_ 0.45325 0.91126 0.282434 -0.11473
C_ C_ 0.18353 0.876538 0.217235 -0.11473
C_ C_ 0.455552 0.858206 0.21345 -0.11473
C_ C_ 0.199503 0.859144 0.289468 -0.11473
C_ C_ 0.437801 0.874014 0.284143 -0.11473
C_ C_ 0.217684 0.923616 0.255926 -0.02249
C_ C_ 0.470354 0.922326 0.247804 -0.02249
C_ C_ 0.163176 0.811571 0.252666 0.6875
C_ C_ 0.415338 0.813291 0.24766 0.6875
C_ C_ 0.201797 0.912939 0.218164 -0.11473
C_ C_ 0.472445 0.896615 0.214523 -0.11473
C_ C_ 0.179232 0.64698 0.252488 -0.02249
C_ C_ 0.434378 0.651795 0.249684 -0.02249
C_ C_ 0.23389 0.535947 0.246193 -0.02249
C_ C_ 0.483195 0.537232 0.249692 -0.02249
C_ C_ 0.219321 0.602322 0.282249 -0.11473
C_ C_ 0.466866 0.603932 0.28601 -0.11473
C_ C_ 0.176552 0.620597 0.218699 -0.11473
C_ C_ 0.43874 0.631588 0.211244 -0.11473
C_ C_ 0.201368 0.63701 0.284139 -0.11473
C_ C_ 0.448265 0.638749 0.287201 -0.11473
C_ C_ 0.215591 0.574772 0.248236 -0.02249
C_ C_ 0.469147 0.580966 0.248297 -0.02249
C_ C_ 0.161781 0.686443 0.254624 0.6875
C_ C_ 0.414028 0.688913 0.248196 0.6875
C_ C_ 0.194495 0.584219 0.214981 -0.11473
C_ C_ 0.457447 0.598163 0.210964 -0.11473
C_ C_ 0.0647979 0.650798 0.250074 -0.02249
C_ C_ 0.315181 0.652173 0.241548 -0.02249
C_ C_ 0.0142212 0.536333 0.255642 -0.02249
C_ C_ 0.265019 0.538097 0.241789 -0.02249
C_ C_ 0.0390045 0.594122 0.215318 -0.11473
C_ C_ 0.279475 0.606019 0.206497 -0.11473
C_ C_ 0.0588788 0.633255 0.289216 -0.11473
C_ C_ 0.31416 0.627973 0.277758 -0.11473
C_ C_ 0.0586122 0.627684 0.213712 -0.11473
C_ C_ 0.300845 0.6394 0.204932 -0.11473
C_ C_ 0.0305561 0.576368 0.253739 -0.02249
C_ C_ 0.27968 0.580388 0.241537 -0.02249
C_ C_ 0.0810637 0.692406 0.249861 0.6875
C_ C_ 0.337316 0.687616 0.241533 0.6875
C_ C_ 0.040799 0.596506 0.291056 -0.11473
C_ C_ 0.296848 0.591855 0.2775 -0.11473
C_ C_ 0.118273 0.788685 0.37848 0.17695
C_ C_ 0.374208 0.712182 0.369662 0.17695
C_ C_ 0.132331 0.718459 0.384644 0.17695
C_ C_ 0.375439 0.784521 0.373382 0.17695
C_ C_ 0.13421 0.720391 0.427816 -0.11473
C_ C_ 0.374745 0.783526 0.417496 -0.11473
C_ C_ 0.122493 0.755866 0.446363 0.23465
C_ C_ 0.377896 0.745661 0.43843 0.23465
C_ C_ 0.114782 0.790586 0.421101 -0.11473
C_ C_ 0.377337 0.708561 0.414519 -0.11473
C_ C_ 0.147823 0.750019 0.125567 0.17695
C_ C_ 0.388692 0.716708 0.123898 0.17695
C_ C_ 0.0950564 0.738489 0.125638 0.17695
C_ C_ 0.373952 0.787278 0.124602 0.17695
C_ C_ 0.0939305 0.738759 0.0809351 -0.11473
C_ C_ 0.374832 0.789445 0.0799443 -0.11473
C_ C_ 0.120619 0.745481 0.0583818 0.23465
C_ C_ 0.38394 0.753907 0.0568385 0.23465
C_ C_ 0.147986 0.749588 0.0810737 -0.11473
C_ C_ 0.39337 0.717946 0.080235 -0.11473
C_ C_ 0.0298592 0.996505 0.239413 0.05793
C_ C_ 0.281499 0.999441 0.243118 0.05793
C_ C_ 0.220271 0.496817 0.255002 0.05793
C_ C_ 0.465511 0.501321 0.249612 0.05793
Br Br 0.0742962 -0.006672000000000011 0.24171 -0.17191
Br Br 0.325913 0.998528 0.242586 -0.17191
Br Br 0.176564 0.496609 0.252828 -0.17191
Br Br 0.422339 0.503445 0.242582 -0.17191
N_ N_ 0.126245 0.752122 0.360622 -0.272
N_ N_ 0.375589 0.748307 0.349853 -0.272
N_ N_ 0.117855 0.758238 0.490408 -0.12501
N_ N_ 0.379392 0.744039 0.483361 -0.12501
N_ N_ 0.121557 0.744087 0.147193 -0.272
N_ N_ 0.377174 0.750433 0.144866 -0.272
N_ N_ 0.120285 0.741377 0.0153165 -0.12501
N_ N_ 0.383241 0.754909 0.0113142 -0.12501
O_ O_ 0.0899165 0.789146 0.211456 -0.60745
O_ O_ 0.339793 0.785964 0.209441 -0.60745
O_ O_ 0.0965879 0.796631 0.278702 -0.60745
O_ O_ 0.346118 0.792878 0.275518 -0.60745
O_ O_ 0.156691 0.793481 0.286572 -0.60745
O_ O_ 0.409855 0.794442 0.281031 -0.60745
O_ O_ 0.151674 0.79865 0.217989 -0.60745
O_ O_ 0.403103 0.800985 0.213086 -0.60745
O_ O_ 0.156588 0.703957 0.28981 -0.60745
O_ O_ 0.404958 0.703353 0.28268 -0.60745
O_ O_ 0.153955 0.70434 0.221643 -0.60745
O_ O_ 0.411609 0.710283 0.215017 -0.60745
O_ O_ 0.0949135 0.702728 0.216913 -0.60745
O_ O_ 0.347805 0.701912 0.208306 -0.60745
O_ O_ 0.0902703 0.708415 0.284072 -0.60745
O_ O_ 0.345887 0.702746 0.27632 -0.60745
Zn Zn 0.123719 0.753606 0.791045 0.9476
Zn Zn 0.375255 0.747874 0.785915 0.9476
Zn Zn 0.126084 0.752051 0.720094 0.9476
Zn Zn 0.374895 0.750345 0.712107 0.9476
H_ H_ 0.0362428 0.925689 0.683768 0.10932
H_ H_ 0.282292 0.916313 0.694621 0.10932
H_ H_ 0.0552698 0.842757 0.814344 0.10932
H_ H_ 0.312816 0.847784 0.825528 0.10932
H_ H_ 0.0713004 0.867004 0.681779 0.10932
H_ H_ 0.313436 0.8525 0.69067 0.10932
H_ H_ 0.0292813 0.910871 0.815871 0.10932
H_ H_ 0.289683 0.915214 0.832272 0.10932
H_ H_ 0.232229 0.905618 0.824179 0.10932
H_ H_ 0.46253 0.919659 0.819866 0.10932
H_ H_ 0.176008 0.871397 0.69268 0.10932
H_ H_ 0.439565 0.854877 0.681536 0.10932
H_ H_ 0.202131 0.841692 0.819737 0.10932
H_ H_ 0.435613 0.850283 0.815785 0.10932
H_ H_ 0.196935 0.937709 0.702959 0.10932
H_ H_ 0.463854 0.917571 0.685233 0.10932
H_ H_ 0.202332 0.577279 0.82419 0.10932
H_ H_ 0.464442 0.577269 0.81198 0.10932
H_ H_ 0.189723 0.650834 0.687095 0.10932
H_ H_ 0.435761 0.651182 0.680783 0.10932
H_ H_ 0.187754 0.649636 0.82609 0.10932
H_ H_ 0.438388 0.641126 0.817786 0.10932
H_ H_ 0.216629 0.586567 0.690734 0.10932
H_ H_ 0.469155 0.590922 0.676859 0.10932
H_ H_ 0.0374898 0.580862 0.685785 0.10932
H_ H_ 0.280684 0.583062 0.682988 0.10932
H_ H_ 0.0735234 0.641183 0.820787 0.10932
H_ H_ 0.309789 0.655765 0.813788 0.10932
H_ H_ 0.0606666 0.646794 0.687013 0.10932
H_ H_ 0.307638 0.648451 0.681619 0.10932
H_ H_ 0.0446092 0.573642 0.821417 0.10932
H_ H_ 0.276611 0.595946 0.815564 0.10932
H_ H_ 0.116637 0.818656 0.857543 0.10932
H_ H_ 0.37043 0.806194 0.865529 0.10932
H_ H_ 0.124859 0.689935 0.866998 0.10932
H_ H_ 0.380637 0.677418 0.856686 0.10932
H_ H_ 0.113022 0.688428 0.941754 0.10932
H_ H_ 0.383658 0.670702 0.93073 0.10932
H_ H_ 0.101991 0.82231 0.937398 0.10932
H_ H_ 0.365063 0.800142 0.944245 0.10932
H_ H_ 0.133127 0.684249 0.649478 0.10932
H_ H_ 0.377582 0.819674 0.645854 0.10932
H_ H_ 0.125215 0.813495 0.643039 0.10932
H_ H_ 0.369283 0.690548 0.625415 0.10932
H_ H_ 0.124279 0.809395 0.561451 0.10932
H_ H_ 0.370974 0.695744 0.550209 0.10932
H_ H_ 0.127839 0.678156 0.569742 0.10932
H_ H_ 0.371737 0.829262 0.56518 0.10932
C_ C_ 0.0674675 0.850046 0.749111 -0.02249
C_ C_ 0.316986 0.847237 0.759973 -0.02249
C_ C_ 0.0145832 0.963148 0.753167 -0.02249
C_ C_ 0.269558 0.964822 0.763703 -0.02249
C_ C_ 0.0431719 0.909204 0.712853 -0.11473
C_ C_ 0.290745 0.90519 0.72408 -0.11473
C_ C_ 0.0532209 0.861161 0.78665 -0.11473
C_ C_ 0.309921 0.865426 0.798132 -0.11473
C_ C_ 0.0625196 0.873967 0.712257 -0.11473
C_ C_ 0.306089 0.866354 0.722242 -0.11473
C_ C_ 0.0299235 0.922305 0.750071 -0.02249
C_ C_ 0.284817 0.923966 0.763724 -0.02249
C_ C_ 0.0870147 0.813612 0.74975 0.6875
C_ C_ 0.334955 0.807778 0.75666 0.6875
C_ C_ 0.0355869 0.89701 0.787488 -0.11473
C_ C_ 0.29281 0.902176 0.801499 -0.11473
C_ C_ 0.186363 0.850785 0.755571 -0.02249
C_ C_ 0.435115 0.846752 0.749072 -0.02249
C_ C_ 0.236789 0.966526 0.764423 -0.02249
C_ C_ 0.483289 0.959176 0.75477 -0.02249
C_ C_ 0.218935 0.898568 0.795564 -0.11473
C_ C_ 0.457527 0.902206 0.789572 -0.11473
C_ C_ 0.18918 0.876676 0.720064 -0.11473
C_ C_ 0.442375 0.867343 0.711868 -0.11473
C_ C_ 0.201619 0.86139 0.793386 -0.11473
C_ C_ 0.442661 0.86468 0.787734 -0.11473
C_ C_ 0.219926 0.92666 0.76184 -0.02249
C_ C_ 0.467419 0.91979 0.751916 -0.02249
C_ C_ 0.165575 0.813399 0.754094 0.6875
C_ C_ 0.413904 0.8106 0.747906 0.6875
C_ C_ 0.204382 0.915245 0.725131 -0.11473
C_ C_ 0.459578 0.902675 0.713105 -0.11473
C_ C_ 0.185605 0.657452 0.757279 -0.02249
C_ C_ 0.436259 0.654236 0.749988 -0.02249
C_ C_ 0.231653 0.538831 0.758868 -0.02249
C_ C_ 0.486705 0.539236 0.743413 -0.02249
C_ C_ 0.20278 0.595504 0.79536 -0.11473
C_ C_ 0.461819 0.595405 0.784438 -0.11473
C_ C_ 0.195208 0.640447 0.718998 -0.11473
C_ C_ 0.443333 0.636483 0.711138 -0.11473
C_ C_ 0.19233 0.636565 0.795411 -0.11473
C_ C_ 0.445239 0.633522 0.787563 -0.11473
C_ C_ 0.214172 0.577541 0.75797 -0.02249
C_ C_ 0.468021 0.578093 0.745862 -0.02249
C_ C_ 0.166357 0.695224 0.757173 0.6875
C_ C_ 0.413405 0.687547 0.750044 0.6875
C_ C_ 0.209612 0.600685 0.720294 -0.11473
C_ C_ 0.460419 0.599832 0.709135 -0.11473
C_ C_ 0.0667607 0.652174 0.754294 -0.02249
C_ C_ 0.310065 0.657258 0.746081 -0.02249
C_ C_ 0.0175928 0.536613 0.755988 -0.02249
C_ C_ 0.263463 0.541963 0.755213 -0.02249
C_ C_ 0.0417101 0.595162 0.715794 -0.11473
C_ C_ 0.286054 0.598108 0.713043 -0.11473
C_ C_ 0.0637617 0.628612 0.791115 -0.11473
C_ C_ 0.30085 0.641789 0.785156 -0.11473
C_ C_ 0.0560373 0.634057 0.716512 -0.11473
C_ C_ 0.301083 0.635237 0.710712 -0.11473
C_ C_ 0.0351553 0.576447 0.753711 -0.02249
C_ C_ 0.278827 0.582022 0.750467 -0.02249
C_ C_ 0.0863847 0.690202 0.755473 0.6875
C_ C_ 0.33408 0.689773 0.747203 0.6875
C_ C_ 0.0488032 0.590029 0.791201 -0.11473
C_ C_ 0.284977 0.605441 0.786643 -0.11473
C_ C_ 0.115675 0.791716 0.878888 0.17695
C_ C_ 0.372857 0.776519 0.881162 0.17695
C_ C_ 0.118044 0.718322 0.881098 0.17695
C_ C_ 0.379601 0.705197 0.875084 0.17695
C_ C_ 0.111312 0.71832 0.925121 -0.11473
C_ C_ 0.37994 0.700529 0.917973 -0.11473
C_ C_ 0.108999 0.756789 0.945739 0.23465
C_ C_ 0.372185 0.732867 0.94476 0.23465
C_ C_ 0.109453 0.794422 0.92194 -0.11473
C_ C_ 0.370688 0.77278 0.924288 -0.11473
C_ C_ 0.130847 0.711694 0.630626 0.17695
C_ C_ 0.375714 0.792855 0.623531 0.17695
C_ C_ 0.126432 0.785197 0.624959 0.17695
C_ C_ 0.373207 0.721247 0.61361 0.17695
C_ C_ 0.124398 0.781728 0.579748 -0.11473
C_ C_ 0.370543 0.724927 0.570237 -0.11473
C_ C_ 0.127818 0.743332 0.559351 0.23465
C_ C_ 0.369863 0.764058 0.551885 0.23465
C_ C_ 0.128486 0.709236 0.585341 -0.11473
C_ C_ 0.371955 0.798136 0.578991 -0.11473
C_ C_ 0.0305946 0.000938986 0.750257 0.05793
C_ C_ 0.2852 0.00209315 0.760268 0.05793
C_ C_ 0.217686 0.500965 0.75659 0.05793
C_ C_ 0.471964 0.500064 0.742654 0.05793
Br Br 0.074295 -0.000498778 0.743476 -0.17191
Br Br 0.32815 0.000883092 0.752645 -0.17191
Br Br 0.175357 0.498136 0.768308 -0.17191
Br Br 0.429058 0.499392 0.747446 -0.17191
N_ N_ 0.120945 0.753639 0.860755 -0.272
N_ N_ 0.376191 0.742692 0.857156 -0.272
N_ N_ 0.10183 0.758513 0.989814 -0.12501
N_ N_ 0.373438 0.726987 0.989014 -0.12501
N_ N_ 0.127411 0.749015 0.648896 -0.272
N_ N_ 0.372935 0.754224 0.640051 -0.272
N_ N_ 0.134833 0.739426 0.51635 -0.12501
N_ N_ 0.368558 0.769842 0.507304 -0.12501
O_ O_ 0.0955896 0.798618 0.716101 -0.60745
O_ O_ 0.345867 0.798067 0.721576 -0.60745
O_ O_ 0.0932452 0.794575 0.783756 -0.60745
O_ O_ 0.342519 0.788925 0.789296 -0.60745
O_ O_ 0.154597 0.799774 0.78725 -0.60745
O_ O_ 0.405277 0.793595 0.781622 -0.60745
O_ O_ 0.15715 0.797642 0.719191 -0.60745
O_ O_ 0.407311 0.793197 0.713423 -0.60745
O_ O_ 0.155871 0.708591 0.790887 -0.60745
O_ O_ 0.407668 0.706915 0.783701 -0.60745
O_ O_ 0.155952 0.706298 0.721214 -0.60745
O_ O_ 0.405379 0.703967 0.714965 -0.60745
O_ O_ 0.0981229 0.70391 0.722015 -0.60745
O_ O_ 0.344724 0.704521 0.713894 -0.60745
O_ O_ 0.0941583 0.70815 0.789572 -0.60745
O_ O_ 0.345936 0.701276 0.781694 -0.60745
Zn Zn 0.61962 0.251985 0.278266 0.9476
Zn Zn 0.874878 0.251311 0.276575 0.9476
Zn Zn 0.621828 0.248181 0.209253 0.9476
Zn Zn 0.874145 0.247943 0.207366 0.9476
H_ H_ 0.525514 0.411144 0.180501 0.10932
H_ H_ 0.768908 0.40161 0.186602 0.10932
H_ H_ 0.561026 0.351084 0.31338 0.10932
H_ H_ 0.836247 0.370928 0.308389 0.10932
H_ H_ 0.553609 0.347862 0.179843 0.10932
H_ H_ 0.797484 0.334686 0.185587 0.10932
H_ H_ 0.540095 0.419532 0.312629 0.10932
H_ H_ 0.800736 0.430955 0.308958 0.10932
H_ H_ 0.734994 0.391432 0.303247 0.10932
H_ H_ 0.967937 0.417139 0.314253 0.10932
H_ H_ 0.653673 0.386268 0.195855 0.10932
H_ H_ 0.923083 0.360795 0.181438 0.10932
H_ H_ 0.703117 0.328584 0.294953 0.10932
H_ H_ 0.940428 0.350044 0.312695 0.10932
H_ H_ 0.688284 0.444069 0.193976 0.10932
H_ H_ 0.95281 0.422038 0.180355 0.10932
H_ H_ 0.723846 0.0932469 0.313946 0.10932
H_ H_ 0.980564 0.0946285 0.310456 0.10932
H_ H_ 0.682014 0.141167 0.177572 0.10932
H_ H_ 0.930387 0.142389 0.175343 0.10932
H_ H_ 0.697044 0.160885 0.313017 0.10932
H_ H_ 0.953731 0.162981 0.307325 0.10932
H_ H_ 0.711101 0.0815988 0.182413 0.10932
H_ H_ 0.95102 0.0731373 0.181262 0.10932
H_ H_ 0.52655 0.0874742 0.189343 0.10932
H_ H_ 0.793211 0.0699298 0.183175 0.10932
H_ H_ 0.561291 0.156136 0.321709 0.10932
H_ H_ 0.815817 0.154539 0.308301 0.10932
H_ H_ 0.549951 0.152785 0.186743 0.10932
H_ H_ 0.821446 0.134971 0.175573 0.10932
H_ H_ 0.542064 0.0848175 0.323767 0.10932
H_ H_ 0.787872 0.0896788 0.312708 0.10932
H_ H_ 0.622561 0.181582 0.348959 0.10932
H_ H_ 0.873405 0.187088 0.352318 0.10932
H_ H_ 0.619791 0.311483 0.358845 0.10932
H_ H_ 0.87994 0.313345 0.349764 0.10932
H_ H_ 0.624669 0.304632 0.438854 0.10932
H_ H_ 0.883042 0.318461 0.426526 0.10932
H_ H_ 0.623125 0.173571 0.424072 0.10932
H_ H_ 0.874771 0.184571 0.428835 0.10932
H_ H_ 0.62058 0.189938 0.132627 0.10932
H_ H_ 0.873299 0.312324 0.134552 0.10932
H_ H_ 0.601645 0.318363 0.140349 0.10932
H_ H_ 0.869893 0.181356 0.128152 0.10932
H_ H_ 0.602973 0.322039 0.0631566 0.10932
H_ H_ 0.870094 0.185799 0.0493056 0.10932
H_ H_ 0.615542 0.189561 0.0554641 0.10932
H_ H_ 0.881491 0.31635 0.0589002 0.10932
C_ C_ 0.564618 0.347631 0.247045 -0.02249
C_ C_ 0.819129 0.348036 0.24498 -0.02249
C_ C_ 0.512457 0.459689 0.246931 -0.02249
C_ C_ 0.76806 0.460877 0.247422 -0.02249
C_ C_ 0.533406 0.398761 0.209605 -0.11473
C_ C_ 0.784039 0.395634 0.211567 -0.11473
C_ C_ 0.557944 0.367766 0.284857 -0.11473
C_ C_ 0.819663 0.374569 0.280642 -0.11473
C_ C_ 0.550791 0.362477 0.20993 -0.11473
C_ C_ 0.801086 0.358136 0.210393 -0.11473
C_ C_ 0.528134 0.419574 0.246677 -0.02249
C_ C_ 0.784604 0.42153 0.246413 -0.02249
C_ C_ 0.582729 0.308372 0.247221 0.6875
C_ C_ 0.83874 0.31125 0.24447 0.6875
C_ C_ 0.540858 0.403975 0.284367 -0.11473
C_ C_ 0.798309 0.407851 0.283418 -0.11473
C_ C_ 0.678155 0.349916 0.241777 -0.02249
C_ C_ 0.934168 0.345729 0.245802 -0.02249
C_ C_ 0.735994 0.460381 0.250924 -0.02249
C_ C_ 0.980852 0.461997 0.247065 -0.02249
C_ C_ 0.722092 0.387134 0.274246 -0.11473
C_ C_ 0.961206 0.400371 0.284514 -0.11473
C_ C_ 0.673397 0.384061 0.214788 -0.11473
C_ C_ 0.936317 0.36863 0.208152 -0.11473
C_ C_ 0.702197 0.353016 0.271285 -0.11473
C_ C_ 0.944896 0.363875 0.283925 -0.11473
C_ C_ 0.717425 0.420021 0.247612 -0.02249
C_ C_ 0.963759 0.422744 0.246286 -0.02249
C_ C_ 0.656661 0.3139 0.240493 0.6875
C_ C_ 0.91361 0.309164 0.248103 0.6875
C_ C_ 0.694317 0.417612 0.215422 -0.11473
C_ C_ 0.951808 0.404845 0.20815 -0.11473
C_ C_ 0.680859 0.153743 0.247713 -0.02249
C_ C_ 0.936023 0.153258 0.243655 -0.02249
C_ C_ 0.735091 0.041057 0.249114 -0.02249
C_ C_ 0.985187 0.0368596 0.24355 -0.02249
C_ C_ 0.715023 0.104444 0.285536 -0.11473
C_ C_ 0.969815 0.103944 0.280767 -0.11473
C_ C_ 0.690237 0.133495 0.210268 -0.11473
C_ C_ 0.939134 0.129787 0.207095 -0.11473
C_ C_ 0.695324 0.138888 0.283988 -0.11473
C_ C_ 0.953459 0.141928 0.279725 -0.11473
C_ C_ 0.719392 0.0820197 0.2484 -0.02249
C_ C_ 0.968447 0.0767351 0.245027 -0.02249
C_ C_ 0.66157 0.192676 0.24568 0.6875
C_ C_ 0.917052 0.191468 0.243663 0.6875
C_ C_ 0.706245 0.0957954 0.21242 -0.11473
C_ C_ 0.953488 0.092031 0.2086 -0.11473
C_ C_ 0.55619 0.162925 0.252482 -0.02249
C_ C_ 0.819813 0.151581 0.240809 -0.02249
C_ C_ 0.514219 0.0435348 0.259767 -0.02249
C_ C_ 0.765683 0.0403619 0.25186 -0.02249
C_ C_ 0.532665 0.103483 0.218757 -0.11473
C_ C_ 0.79662 0.0918272 0.209117 -0.11473
C_ C_ 0.551576 0.144122 0.29257 -0.11473
C_ C_ 0.808804 0.137797 0.280818 -0.11473
C_ C_ 0.549371 0.139758 0.2159 -0.11473
C_ C_ 0.81385 0.126818 0.205238 -0.11473
C_ C_ 0.528802 0.083777 0.258503 -0.02249
C_ C_ 0.784226 0.079693 0.248406 -0.02249
C_ C_ 0.58009 0.193377 0.251185 0.6875
C_ C_ 0.837182 0.190118 0.239172 0.6875
C_ C_ 0.539895 0.103705 0.295444 -0.11473
C_ C_ 0.790094 0.104701 0.283804 -0.11473
C_ C_ 0.624496 0.20948 0.366637 0.17695
C_ C_ 0.879707 0.212906 0.368323 0.17695
C_ C_ 0.622429 0.283007 0.374502 0.17695
C_ C_ 0.879079 0.285892 0.369079 0.17695
C_ C_ 0.623041 0.279213 0.418486 -0.11473
C_ C_ 0.881079 0.288568 0.412302 -0.11473
C_ C_ 0.623577 0.238534 0.437334 0.23465
C_ C_ 0.88292 0.251277 0.433049 0.23465
C_ C_ 0.623072 0.203471 0.409153 -0.11473
C_ C_ 0.882134 0.212198 0.411903 -0.11473
C_ C_ 0.618762 0.218491 0.116621 0.17695
C_ C_ 0.874529 0.284326 0.116191 0.17695
C_ C_ 0.60972 0.290721 0.121967 0.17695
C_ C_ 0.8716 0.211015 0.113031 0.17695
C_ C_ 0.605694 0.292711 0.0791653 -0.11473
C_ C_ 0.872271 0.213422 0.067641 -0.11473
C_ C_ 0.61138 0.25827 0.0539982 0.23465
C_ C_ 0.879283 0.25169 0.0476174 0.23465
C_ C_ 0.617912 0.219636 0.0727701 -0.11473
C_ C_ 0.880142 0.286664 0.0735095 -0.11473
C_ C_ 0.530279 0.49567 0.251565 0.05793
C_ C_ 0.784145 0.499351 0.243288 0.05793
C_ C_ 0.717642 1.00284234 0.249424 0.05793
C_ C_ 0.967161 0.999648649 0.248104 0.05793
Br Br 0.571682 0.490981 0.239519 -0.17191
Br Br 0.828131 0.497442 0.237744 -0.17191
Br Br 0.675102 0.00808188 0.240434 -0.17191
Br Br 0.924981 0.00494424 0.245599 -0.17191
N_ N_ 0.625247 0.247215 0.349866 -0.272
N_ N_ 0.877998 0.250017 0.348077 -0.272
N_ N_ 0.622294 0.23349 0.481305 -0.12501
N_ N_ 0.88838 0.251726 0.477787 -0.12501
N_ N_ 0.618004 0.25422 0.139731 -0.272
N_ N_ 0.874359 0.246551 0.135857 -0.272
N_ N_ 0.608191 0.262471 0.0089201 -0.12501
N_ N_ 0.873475 0.257339 0.00241478 -0.12501
O_ O_ 0.589072 0.291604 0.215142 -0.60745
O_ O_ 0.841585 0.290714 0.210671 -0.60745
O_ O_ 0.592027 0.295786 0.28223 -0.60745
O_ O_ 0.844691 0.292533 0.279057 -0.60745
O_ O_ 0.653619 0.292626 0.272845 -0.60745
O_ O_ 0.905988 0.291662 0.281642 -0.60745
O_ O_ 0.649327 0.298942 0.20514 -0.60745
O_ O_ 0.901841 0.295894 0.213896 -0.60745
O_ O_ 0.649527 0.205946 0.277219 -0.60745
O_ O_ 0.906481 0.205045 0.278514 -0.60745
O_ O_ 0.65448 0.2086 0.211905 -0.60745
O_ O_ 0.907092 0.207636 0.208271 -0.60745
O_ O_ 0.589706 0.205858 0.215809 -0.60745
O_ O_ 0.845803 0.203483 0.204272 -0.60745
O_ O_ 0.587981 0.210057 0.285956 -0.60745
O_ O_ 0.842996 0.210055 0.271287 -0.60745
Zn Zn 0.625985 0.246031 0.780238 0.9476
Zn Zn 0.877578 0.25112 0.77588 0.9476
Zn Zn 0.624362 0.247095 0.709092 0.9476
Zn Zn 0.874175 0.247095 0.705422 0.9476
H_ H_ 0.542793 0.425732 0.683687 0.10932
H_ H_ 0.791288 0.423108 0.675287 0.10932
H_ H_ 0.570182 0.356036 0.815847 0.10932
H_ H_ 0.807025 0.347285 0.807203 0.10932
H_ H_ 0.567985 0.359627 0.677308 0.10932
H_ H_ 0.817522 0.354518 0.674447 0.10932
H_ H_ 0.536798 0.415634 0.817003 0.10932
H_ H_ 0.782052 0.415033 0.807693 0.10932
H_ H_ 0.70792 0.426613 0.807613 0.10932
H_ H_ 0.980498 0.4012 0.809002 0.10932
H_ H_ 0.697154 0.345078 0.678256 0.10932
H_ H_ 0.930424 0.360482 0.674561 0.10932
H_ H_ 0.67191 0.366394 0.807147 0.10932
H_ H_ 0.949656 0.338249 0.809869 0.10932
H_ H_ 0.728601 0.404285 0.679796 0.10932
H_ H_ 0.951199 0.428013 0.68194 0.10932
H_ H_ 0.704937 0.0748847 0.811075 0.10932
H_ H_ 0.957771 0.0823825 0.823417 0.10932
H_ H_ 0.683447 0.147038 0.677966 0.10932
H_ H_ 0.937561 0.145161 0.68197 0.10932
H_ H_ 0.680428 0.141978 0.812413 0.10932
H_ H_ 0.929202 0.145879 0.816177 0.10932
H_ H_ 0.716272 0.0814199 0.677392 0.10932
H_ H_ 0.967489 0.0777678 0.690178 0.10932
H_ H_ 0.522669 0.0853692 0.687872 0.10932
H_ H_ 0.765474 0.0987501 0.683367 0.10932
H_ H_ 0.56789 0.148565 0.815157 0.10932
H_ H_ 0.827841 0.135958 0.803917 0.10932
H_ H_ 0.554406 0.145152 0.682557 0.10932
H_ H_ 0.803146 0.15656 0.676833 0.10932
H_ H_ 0.540648 0.0823328 0.820579 0.10932
H_ H_ 0.799757 0.0720843 0.80663 0.10932
H_ H_ 0.628199 0.311769 0.860445 0.10932
H_ H_ 0.925423 0.24105 0.852473 0.10932
H_ H_ 0.620788 0.182439 0.854108 0.10932
H_ H_ 0.832499 0.26271 0.850491 0.10932
H_ H_ 0.619808 0.176571 0.930762 0.10932
H_ H_ 0.829213 0.246083 0.925706 0.10932
H_ H_ 0.617045 0.310565 0.93545 0.10932
H_ H_ 0.925904 0.228471 0.926078 0.10932
H_ H_ 0.625954 0.181638 0.626772 0.10932
H_ H_ 0.856974 0.31288 0.631395 0.10932
H_ H_ 0.614239 0.308891 0.643793 0.10932
H_ H_ 0.890089 0.189279 0.628231 0.10932
H_ H_ 0.608394 0.323527 0.568044 0.10932
H_ H_ 0.888303 0.18994 0.552142 0.10932
H_ H_ 0.621968 0.19183 0.54916 0.10932
H_ H_ 0.858022 0.316791 0.55812 0.10932
C_ C_ 0.570475 0.351221 0.747346 -0.02249
C_ C_ 0.816272 0.348466 0.741449 -0.02249
C_ C_ 0.518953 0.465187 0.749621 -0.02249
C_ C_ 0.767431 0.460429 0.739357 -0.02249
C_ C_ 0.546408 0.408538 0.711023 -0.11473
C_ C_ 0.795534 0.406473 0.70368 -0.11473
C_ C_ 0.562393 0.369455 0.786121 -0.11473
C_ C_ 0.807165 0.365813 0.778835 -0.11473
C_ C_ 0.561307 0.369546 0.70873 -0.11473
C_ C_ 0.809885 0.369776 0.703399 -0.11473
C_ C_ 0.536175 0.425327 0.74966 -0.02249
C_ C_ 0.783534 0.420986 0.740964 -0.02249
C_ C_ 0.590076 0.313503 0.747048 0.6875
C_ C_ 0.833581 0.307811 0.740317 0.6875
C_ C_ 0.541999 0.403108 0.78659 -0.11473
C_ C_ 0.789972 0.401937 0.77853 -0.11473
C_ C_ 0.686277 0.345404 0.744109 -0.02249
C_ C_ 0.938656 0.340989 0.7412 -0.02249
C_ C_ 0.736052 0.460753 0.74128 -0.02249
C_ C_ 0.984216 0.461288 0.751188 -0.02249
C_ C_ 0.706315 0.405773 0.780064 -0.11473
C_ C_ 0.968853 0.392523 0.780625 -0.11473
C_ C_ 0.701556 0.356417 0.708151 -0.11473
C_ C_ 0.940704 0.368413 0.70555 -0.11473
C_ C_ 0.686476 0.371695 0.779866 -0.11473
C_ C_ 0.952499 0.355233 0.780254 -0.11473
C_ C_ 0.717957 0.42035 0.742268 -0.02249
C_ C_ 0.968988 0.419397 0.746778 -0.02249
C_ C_ 0.666169 0.306887 0.744768 0.6875
C_ C_ 0.914753 0.308601 0.742272 0.6875
C_ C_ 0.717437 0.393924 0.707646 -0.11473
C_ C_ 0.954054 0.407353 0.708534 -0.11473
C_ C_ 0.680921 0.147766 0.744622 -0.02249
C_ C_ 0.937947 0.155782 0.748285 -0.02249
C_ C_ 0.735 0.0372532 0.746348 -0.02249
C_ C_ 0.983954 0.0405885 0.760704 -0.02249
C_ C_ 0.702287 0.0902107 0.782859 -0.11473
C_ C_ 0.958438 0.100538 0.79367 -0.11473
C_ C_ 0.69099 0.132245 0.706542 -0.11473
C_ C_ 0.947183 0.133698 0.712432 -0.11473
C_ C_ 0.688242 0.128657 0.781768 -0.11473
C_ C_ 0.941299 0.136379 0.788365 -0.11473
C_ C_ 0.715516 0.0757948 0.746012 -0.02249
C_ C_ 0.969156 0.0806579 0.757766 -0.02249
C_ C_ 0.661912 0.185288 0.743495 0.6875
C_ C_ 0.918741 0.1937 0.744839 0.6875
C_ C_ 0.708853 0.0960234 0.707307 -0.11473
C_ C_ 0.960058 0.0937319 0.717461 -0.11473
C_ C_ 0.559467 0.155567 0.749184 -0.02249
C_ C_ 0.817921 0.152185 0.740335 -0.02249
C_ C_ 0.512174 0.0382174 0.755151 -0.02249
C_ C_ 0.766738 0.0380563 0.741803 -0.02249
C_ C_ 0.527129 0.101717 0.717399 -0.11473
C_ C_ 0.783357 0.103325 0.705824 -0.11473
C_ C_ 0.556997 0.134024 0.788069 -0.11473
C_ C_ 0.816105 0.127947 0.77679 -0.11473
C_ C_ 0.54779 0.135123 0.71305 -0.11473
C_ C_ 0.80142 0.138522 0.704666 -0.11473
C_ C_ 0.529409 0.0778262 0.752733 -0.02249
C_ C_ 0.782935 0.078295 0.741724 -0.02249
C_ C_ 0.58222 0.187578 0.74682 0.6875
C_ C_ 0.83774 0.188495 0.738182 0.6875
C_ C_ 0.540369 0.0964753 0.789868 -0.11473
C_ C_ 0.799286 0.0916554 0.778276 -0.11473
C_ C_ 0.62568 0.282905 0.876164 0.17695
C_ C_ 0.9041 0.235962 0.865512 0.17695
C_ C_ 0.621356 0.210456 0.873141 0.17695
C_ C_ 0.851691 0.248112 0.865539 0.17695
C_ C_ 0.617971 0.20788 0.916557 -0.11473
C_ C_ 0.850495 0.240153 0.909438 -0.11473
C_ C_ 0.616637 0.243196 0.939994 0.23465
C_ C_ 0.877701 0.235049 0.931892 0.23465
C_ C_ 0.620133 0.282363 0.919248 -0.11473
C_ C_ 0.904518 0.234427 0.910388 -0.11473
C_ C_ 0.62573 0.213576 0.614118 0.17695
C_ C_ 0.865786 0.286881 0.615297 0.17695
C_ C_ 0.615935 0.283547 0.623329 0.17695
C_ C_ 0.881678 0.216673 0.613169 0.17695
C_ C_ 0.614703 0.290699 0.578491 -0.11473
C_ C_ 0.882413 0.216858 0.568075 -0.11473
C_ C_ 0.619904 0.25608 0.550629 0.23465
C_ C_ 0.872645 0.252085 0.548108 0.23465
C_ C_ 0.627001 0.216929 0.568633 -0.11473
C_ C_ 0.868442 0.289094 0.572068 -0.11473
C_ C_ 0.535427 0.502501 0.747662 0.05793
C_ C_ 0.7833 0.497803 0.742562 0.05793
C_ C_ 0.71949 -0.0010679999999999579 0.750095 0.05793
C_ C_ 0.969895 0.0028246 0.768701 0.05793
Br Br 0.575291 0.502518 0.723602 -0.17191
Br Br 0.827049 0.497663 0.744375 -0.17191
Br Br 0.676428 -0.00499000000000005 0.753507 -0.17191
Br Br 0.928999 0.000203051 0.786342 -0.17191
N_ N_ 0.625684 0.2476 0.853679 -0.272
N_ N_ 0.877596 0.242931 0.844449 -0.272
N_ N_ 0.621812 0.24024 0.984443 -0.12501
N_ N_ 0.878802 0.2293 0.976964 -0.12501
N_ N_ 0.62116 0.245863 0.639277 -0.272
N_ N_ 0.874232 0.251484 0.635558 -0.272
N_ N_ 0.619464 0.262102 0.505951 -0.12501
N_ N_ 0.866987 0.255162 0.503519 -0.12501
O_ O_ 0.593112 0.294578 0.712627 -0.60745
O_ O_ 0.843817 0.293929 0.707123 -0.60745
O_ O_ 0.601962 0.29755 0.780429 -0.60745
O_ O_ 0.842074 0.290521 0.775423 -0.60745
O_ O_ 0.660475 0.287866 0.778663 -0.60745
O_ O_ 0.905339 0.297985 0.777525 -0.60745
O_ O_ 0.657205 0.289932 0.711365 -0.60745
O_ O_ 0.902746 0.29188 0.709427 -0.60745
O_ O_ 0.656445 0.204363 0.777118 -0.60745
O_ O_ 0.912195 0.213789 0.778197 -0.60745
O_ O_ 0.652926 0.200136 0.708588 -0.60745
O_ O_ 0.909277 0.205572 0.709124 -0.60745
O_ O_ 0.590019 0.203462 0.710974 -0.60745
O_ O_ 0.845549 0.202835 0.702784 -0.60745
O_ O_ 0.592423 0.205756 0.781138 -0.60745
O_ O_ 0.850153 0.201255 0.772484 -0.60745
Zn Zn 0.624808 0.750445 0.284891 0.9476
Zn Zn 0.873155 0.750704 0.290101 0.9476
Zn Zn 0.623686 0.751505 0.213266 0.9476
Zn Zn 0.873886 0.752013 0.2178 0.9476
H_ H_ 0.556691 0.9372 0.194571 0.10932
H_ H_ 0.810271 0.942519 0.199804 0.10932
H_ H_ 0.549356 0.848758 0.319291 0.10932
H_ H_ 0.792783 0.842084 0.313489 0.10932
H_ H_ 0.581041 0.869683 0.192968 0.10932
H_ H_ 0.839547 0.880115 0.202202 0.10932
H_ H_ 0.518752 0.913962 0.313697 0.10932
H_ H_ 0.754778 0.897498 0.298374 0.10932
H_ H_ 0.69216 0.940305 0.303387 0.10932
H_ H_ 0.959202 0.919015 0.316394 0.10932
H_ H_ 0.706953 0.841301 0.187408 0.10932
H_ H_ 0.926587 0.853835 0.186752 0.10932
H_ H_ 0.660553 0.878341 0.302241 0.10932
H_ H_ 0.92607 0.861435 0.320718 0.10932
H_ H_ 0.729543 0.907041 0.186367 0.10932
H_ H_ 0.953581 0.921945 0.183917 0.10932
H_ H_ 0.738975 0.605514 0.300831 0.10932
H_ H_ 0.951018 0.569746 0.323491 0.10932
H_ H_ 0.66958 0.62721 0.181569 0.10932
H_ H_ 0.949417 0.662952 0.197397 0.10932
H_ H_ 0.708447 0.666082 0.298851 0.10932
H_ H_ 0.917821 0.628358 0.323139 0.10932
H_ H_ 0.703274 0.566171 0.183314 0.10932
H_ H_ 0.977158 0.593039 0.195563 0.10932
H_ H_ 0.536027 0.581081 0.183552 0.10932
H_ H_ 0.768907 0.599689 0.187731 0.10932
H_ H_ 0.572749 0.640656 0.317837 0.10932
H_ H_ 0.829097 0.634645 0.312904 0.10932
H_ H_ 0.564164 0.648616 0.183542 0.10932
H_ H_ 0.807304 0.657691 0.184826 0.10932
H_ H_ 0.532617 0.586264 0.317101 0.10932
H_ H_ 0.802316 0.564558 0.309497 0.10932
H_ H_ 0.614097 0.68687 0.358299 0.10932
H_ H_ 0.866163 0.822078 0.359739 0.10932
H_ H_ 0.63922 0.81291 0.366258 0.10932
H_ H_ 0.884196 0.695645 0.368232 0.10932
H_ H_ 0.634529 0.81172 0.441715 0.10932
H_ H_ 0.887698 0.699993 0.445795 0.10932
H_ H_ 0.605053 0.686326 0.433009 0.10932
H_ H_ 0.86179 0.825991 0.441104 0.10932
H_ H_ 0.568902 0.752181 0.131512 0.10932
H_ H_ 0.868284 0.684576 0.151139 0.10932
H_ H_ 0.664303 0.749752 0.147727 0.10932
H_ H_ 0.884485 0.811928 0.139732 0.10932
H_ H_ 0.668889 0.733013 0.0714042 0.10932
H_ H_ 0.879884 0.807303 0.0606228 0.10932
H_ H_ 0.575272 0.744452 0.0504242 0.10932
H_ H_ 0.871357 0.675276 0.0778941 0.10932
C_ C_ 0.568484 0.853266 0.257595 -0.02249
C_ C_ 0.815093 0.849257 0.253914 -0.02249
C_ C_ 0.51846 0.967734 0.252199 -0.02249
C_ C_ 0.765005 0.964234 0.250239 -0.02249
C_ C_ 0.553613 0.917108 0.221471 -0.11473
C_ C_ 0.804582 0.917993 0.222261 -0.11473
C_ C_ 0.551109 0.866722 0.291565 -0.11473
C_ C_ 0.791957 0.857899 0.282669 -0.11473
C_ C_ 0.569944 0.879917 0.221325 -0.11473
C_ C_ 0.822182 0.881205 0.224209 -0.11473
C_ C_ 0.536672 0.929436 0.25509 -0.02249
C_ C_ 0.782149 0.924822 0.251257 -0.02249
C_ C_ 0.585548 0.812849 0.25801 0.6875
C_ C_ 0.832422 0.809387 0.254881 0.6875
C_ C_ 0.536209 0.90487 0.289945 -0.11473
C_ C_ 0.774374 0.893399 0.2783 -0.11473
C_ C_ 0.679433 0.853714 0.24508 -0.02249
C_ C_ 0.926552 0.850016 0.253024 -0.02249
C_ C_ 0.732773 0.965171 0.246505 -0.02249
C_ C_ 0.981603 0.961074 0.250315 -0.02249
C_ C_ 0.696298 0.915855 0.279986 -0.11473
C_ C_ 0.953829 0.904671 0.288017 -0.11473
C_ C_ 0.70034 0.863151 0.21134 -0.11473
C_ C_ 0.935742 0.86872 0.215217 -0.11473
C_ C_ 0.67531 0.883885 0.275619 -0.11473
C_ C_ 0.937225 0.867771 0.290055 -0.11473
C_ C_ 0.714766 0.925876 0.246127 -0.02249
C_ C_ 0.962327 0.922318 0.250576 -0.02249
C_ C_ 0.663493 0.813866 0.245105 0.6875
C_ C_ 0.908752 0.811787 0.251781 0.6875
C_ C_ 0.717551 0.897566 0.214331 -0.11473
C_ C_ 0.953011 0.90363 0.213312 -0.11473
C_ C_ 0.684979 0.650826 0.240755 -0.02249
C_ C_ 0.93172 0.651414 0.261078 -0.02249
C_ C_ 0.737075 0.536205 0.248493 -0.02249
C_ C_ 0.982549 0.536225 0.257311 -0.02249
C_ C_ 0.724044 0.60981 0.273485 -0.11473
C_ C_ 0.948656 0.587775 0.294365 -0.11473
C_ C_ 0.681496 0.620644 0.210074 -0.11473
C_ C_ 0.949364 0.64145 0.224909 -0.11473
C_ C_ 0.704345 0.643656 0.274443 -0.11473
C_ C_ 0.931384 0.623611 0.294014 -0.11473
C_ C_ 0.71849 0.576757 0.246851 -0.02249
C_ C_ 0.965225 0.575738 0.258504 -0.02249
C_ C_ 0.664213 0.688697 0.240161 0.6875
C_ C_ 0.913005 0.689499 0.261056 0.6875
C_ C_ 0.699 0.584352 0.212701 -0.11473
C_ C_ 0.965369 0.603258 0.223951 -0.11473
C_ C_ 0.566647 0.651335 0.251198 -0.02249
C_ C_ 0.815827 0.653691 0.252381 -0.02249
C_ C_ 0.516095 0.535228 0.253478 -0.02249
C_ C_ 0.769197 0.536361 0.245425 -0.02249
C_ C_ 0.542419 0.594578 0.213755 -0.11473
C_ C_ 0.784879 0.604047 0.212463 -0.11473
C_ C_ 0.562867 0.628854 0.288696 -0.11473
C_ C_ 0.816156 0.625981 0.287376 -0.11473
C_ C_ 0.559158 0.630394 0.212578 -0.11473
C_ C_ 0.802932 0.640035 0.212755 -0.11473
C_ C_ 0.534727 0.575425 0.252933 -0.02249
C_ C_ 0.786173 0.57633 0.246803 -0.02249
C_ C_ 0.581494 0.69194 0.25132 0.6875
C_ C_ 0.8331 0.694466 0.252735 0.6875
C_ C_ 0.543928 0.595381 0.289487 -0.11473
C_ C_ 0.803252 0.585778 0.283746 -0.11473
C_ C_ 0.619553 0.714139 0.378094 0.17695
C_ C_ 0.865962 0.794666 0.379544 0.17695
C_ C_ 0.632518 0.784792 0.382747 0.17695
C_ C_ 0.877547 0.723813 0.384411 0.17695
C_ C_ 0.629677 0.784305 0.426028 -0.11473
C_ C_ 0.880481 0.725711 0.427471 -0.11473
C_ C_ 0.619978 0.748028 0.445437 0.23465
C_ C_ 0.872766 0.762489 0.448319 0.23465
C_ C_ 0.616725 0.712238 0.422489 -0.11473
C_ C_ 0.865916 0.797525 0.424043 -0.11473
C_ C_ 0.591064 0.752983 0.116913 0.17695
C_ C_ 0.869888 0.711904 0.131791 0.17695
C_ C_ 0.643885 0.746325 0.126132 0.17695
C_ C_ 0.877019 0.784782 0.125339 0.17695
C_ C_ 0.646776 0.741233 0.0833315 -0.11473
C_ C_ 0.877902 0.780127 0.0803385 -0.11473
C_ C_ 0.621378 0.737579 0.0574195 0.23465
C_ C_ 0.872543 0.74019 0.0620633 0.23465
C_ C_ 0.59347 0.747444 0.0729119 -0.11473
C_ C_ 0.873381 0.705986 0.0887952 -0.11473
C_ C_ 0.531424 1.00739365 0.258743 0.05793
C_ C_ 0.780796 1.00252811 0.254951 0.05793
C_ C_ 0.721244 0.498906 0.25586 0.05793
C_ C_ 0.966091 0.499505 0.253571 0.05793
Br Br 0.574027 1.0103103 0.268734 -0.17191
Br Br 0.821612 1.00419587 0.276303 -0.17191
Br Br 0.679439 0.502874 0.274482 -0.17191
Br Br 0.921359 0.498576 0.252939 -0.17191
N_ N_ 0.627197 0.750107 0.359649 -0.272
N_ N_ 0.871538 0.757701 0.360509 -0.272
N_ N_ 0.613449 0.745768 0.48799 -0.12501
N_ N_ 0.868039 0.763721 0.493545 -0.12501
N_ N_ 0.616792 0.753845 0.141878 -0.272
N_ N_ 0.874437 0.750332 0.148758 -0.272
N_ N_ 0.62312 0.72967 0.012802 -0.12501
N_ N_ 0.873226 0.732101 0.0171491 -0.12501
O_ O_ 0.597281 0.80221 0.223783 -0.60745
O_ O_ 0.844998 0.797579 0.221511 -0.60745
O_ O_ 0.589691 0.790536 0.291364 -0.60745
O_ O_ 0.840038 0.792493 0.289069 -0.60745
O_ O_ 0.652956 0.799975 0.2791 -0.60745
O_ O_ 0.899675 0.79796 0.285577 -0.60745
O_ O_ 0.658999 0.792894 0.211457 -0.60745
O_ O_ 0.907088 0.79054 0.218358 -0.60745
O_ O_ 0.658271 0.703912 0.276501 -0.60745
O_ O_ 0.904042 0.706081 0.294495 -0.60745
O_ O_ 0.653285 0.701589 0.206375 -0.60745
O_ O_ 0.901235 0.701188 0.22639 -0.60745
O_ O_ 0.586738 0.711245 0.216208 -0.60745
O_ O_ 0.840311 0.711132 0.218692 -0.60745
O_ O_ 0.596515 0.704479 0.283469 -0.60745
O_ O_ 0.846039 0.704389 0.286069 -0.60745
Zn Zn 0.629654 0.747897 0.783363 0.9476
Zn Zn 0.875652 0.745268 0.790186 0.9476
Zn Zn 0.627258 0.747182 0.71329 0.9476
Zn Zn 0.877847 0.750202 0.721008 0.9476
H_ H_ 0.541274 0.926174 0.683838 0.10932
H_ H_ 0.792453 0.917488 0.679233 0.10932
H_ H_ 0.560753 0.83848 0.811131 0.10932
H_ H_ 0.820148 0.858691 0.818399 0.10932
H_ H_ 0.571955 0.863687 0.679516 0.10932
H_ H_ 0.816679 0.852965 0.682713 0.10932
H_ H_ 0.530263 0.905729 0.817667 0.10932
H_ H_ 0.782413 0.918383 0.811756 0.10932
H_ H_ 0.729031 0.909664 0.819605 0.10932
H_ H_ 0.968937 0.920821 0.82855 0.10932
H_ H_ 0.679264 0.856762 0.687471 0.10932
H_ H_ 0.928688 0.859777 0.692981 0.10932
H_ H_ 0.700867 0.8423 0.819789 0.10932
H_ H_ 0.942598 0.848689 0.826887 0.10932
H_ H_ 0.705968 0.922152 0.686332 0.10932
H_ H_ 0.958639 0.921659 0.690156 0.10932
H_ H_ 0.724596 0.584352 0.817631 0.10932
H_ H_ 0.980092 0.589272 0.822608 0.10932
H_ H_ 0.676715 0.636253 0.682854 0.10932
H_ H_ 0.929814 0.641809 0.689454 0.10932
H_ H_ 0.700161 0.651946 0.816648 0.10932
H_ H_ 0.959121 0.660633 0.819679 0.10932
H_ H_ 0.710046 0.575192 0.685044 0.10932
H_ H_ 0.948815 0.571597 0.696098 0.10932
H_ H_ 0.520818 0.598127 0.677954 0.10932
H_ H_ 0.791937 0.576946 0.674003 0.10932
H_ H_ 0.563875 0.649564 0.81034 0.10932
H_ H_ 0.818594 0.640017 0.810944 0.10932
H_ H_ 0.5579 0.65516 0.67537 0.10932
H_ H_ 0.81336 0.648161 0.675771 0.10932
H_ H_ 0.539687 0.584108 0.811096 0.10932
H_ H_ 0.782078 0.585303 0.80961 0.10932
H_ H_ 0.627464 0.682966 0.861208 0.10932
H_ H_ 0.870401 0.680094 0.872947 0.10932
H_ H_ 0.633735 0.811551 0.856755 0.10932
H_ H_ 0.868643 0.812509 0.860113 0.10932
H_ H_ 0.640904 0.812915 0.933978 0.10932
H_ H_ 0.859072 0.817619 0.93583 0.10932
H_ H_ 0.63537 0.68132 0.938382 0.10932
H_ H_ 0.856434 0.683333 0.943838 0.10932
H_ H_ 0.615947 0.692129 0.632297 0.10932
H_ H_ 0.858465 0.806149 0.638817 0.10932
H_ H_ 0.640152 0.818447 0.646704 0.10932
H_ H_ 0.891495 0.685619 0.649979 0.10932
H_ H_ 0.633545 0.828958 0.570471 0.10932
H_ H_ 0.892293 0.67707 0.577001 0.10932
H_ H_ 0.615361 0.698806 0.557765 0.10932
H_ H_ 0.851592 0.79637 0.561828 0.10932
C_ C_ 0.568738 0.847026 0.745836 -0.02249
C_ C_ 0.819521 0.848087 0.751679 -0.02249
C_ C_ 0.515075 0.961882 0.753422 -0.02249
C_ C_ 0.76751 0.961881 0.74227 -0.02249
C_ C_ 0.546944 0.909753 0.712928 -0.11473
C_ C_ 0.796943 0.904611 0.709407 -0.11473
C_ C_ 0.554462 0.858233 0.783501 -0.11473
C_ C_ 0.812639 0.87016 0.78773 -0.11473
C_ C_ 0.564731 0.872831 0.711018 -0.11473
C_ C_ 0.809338 0.864866 0.71207 -0.11473
C_ C_ 0.534522 0.922944 0.751584 -0.02249
C_ C_ 0.786435 0.923946 0.745418 -0.02249
C_ C_ 0.590146 0.810003 0.747685 0.6875
C_ C_ 0.835525 0.806191 0.752723 0.6875
C_ C_ 0.539722 0.89692 0.786983 -0.11473
C_ C_ 0.792904 0.905367 0.784121 -0.11473
C_ C_ 0.68826 0.844389 0.753441 -0.02249
C_ C_ 0.934964 0.847117 0.761136 -0.02249
C_ C_ 0.736037 0.960028 0.748745 -0.02249
C_ C_ 0.982655 0.965647 0.760725 -0.02249
C_ C_ 0.720692 0.895859 0.789452 -0.11473
C_ C_ 0.959641 0.905623 0.799058 -0.11473
C_ C_ 0.69241 0.865604 0.715664 -0.11473
C_ C_ 0.941473 0.86815 0.723419 -0.11473
C_ C_ 0.704027 0.858719 0.790861 -0.11473
C_ C_ 0.944784 0.865515 0.79851 -0.11473
C_ C_ 0.720937 0.919639 0.751693 -0.02249
C_ C_ 0.963611 0.927219 0.761093 -0.02249
C_ C_ 0.669329 0.804556 0.753258 0.6875
C_ C_ 0.917939 0.806433 0.760637 0.6875
C_ C_ 0.708353 0.90298 0.715093 -0.11473
C_ C_ 0.95536 0.907526 0.722667 -0.11473
C_ C_ 0.684487 0.648003 0.751671 -0.02249
C_ C_ 0.938581 0.654207 0.756718 -0.02249
C_ C_ 0.736013 0.535512 0.745841 -0.02249
C_ C_ 0.984709 0.537444 0.759202 -0.02249
C_ C_ 0.717278 0.597416 0.787639 -0.11473
C_ C_ 0.967813 0.600266 0.795058 -0.11473
C_ C_ 0.68784 0.626199 0.713832 -0.11473
C_ C_ 0.940496 0.630732 0.719099 -0.11473
C_ C_ 0.697175 0.631831 0.789519 -0.11473
C_ C_ 0.956968 0.642062 0.791765 -0.11473
C_ C_ 0.719906 0.576494 0.749183 -0.02249
C_ C_ 0.965773 0.576562 0.75791 -0.02249
C_ C_ 0.667248 0.687673 0.750111 0.6875
C_ C_ 0.920822 0.693446 0.758583 0.6875
C_ C_ 0.706957 0.592712 0.712616 -0.11473
C_ C_ 0.953065 0.591847 0.720427 -0.11473
C_ C_ 0.567236 0.65546 0.742087 -0.02249
C_ C_ 0.815417 0.653326 0.743964 -0.02249
C_ C_ 0.519405 0.539397 0.7425 -0.02249
C_ C_ 0.76796 0.535187 0.738714 -0.02249
C_ C_ 0.535621 0.604391 0.705309 -0.11473
C_ C_ 0.795774 0.594896 0.703039 -0.11473
C_ C_ 0.561009 0.636261 0.780309 -0.11473
C_ C_ 0.80653 0.6327 0.780724 -0.11473
C_ C_ 0.553172 0.639936 0.704772 -0.11473
C_ C_ 0.81029 0.632207 0.705254 -0.11473
C_ C_ 0.535123 0.580192 0.741762 -0.02249
C_ C_ 0.785472 0.576029 0.741135 -0.02249
C_ C_ 0.584201 0.695019 0.741488 0.6875
C_ C_ 0.839317 0.687035 0.747294 0.6875
C_ C_ 0.544451 0.598862 0.780929 -0.11473
C_ C_ 0.792043 0.594988 0.780263 -0.11473
C_ C_ 0.629386 0.710844 0.877025 0.17695
C_ C_ 0.866696 0.710569 0.884946 0.17695
C_ C_ 0.63094 0.783366 0.874892 0.17695
C_ C_ 0.868877 0.783551 0.87852 0.17695
C_ C_ 0.63517 0.784257 0.919089 -0.11473
C_ C_ 0.863588 0.786623 0.921473 -0.11473
C_ C_ 0.637232 0.748329 0.943036 0.23465
C_ C_ 0.859783 0.751388 0.946063 0.23465
C_ C_ 0.633868 0.710652 0.921379 -0.11473
C_ C_ 0.860643 0.712356 0.928052 -0.11473
C_ C_ 0.620781 0.721727 0.620044 0.17695
C_ C_ 0.869278 0.781359 0.623403 0.17695
C_ C_ 0.632601 0.792722 0.627921 0.17695
C_ C_ 0.883957 0.71137 0.631323 0.17695
C_ C_ 0.629797 0.79815 0.58379 -0.11473
C_ C_ 0.883306 0.705584 0.587836 -0.11473
C_ C_ 0.624855 0.76362 0.557661 0.23465
C_ C_ 0.872905 0.736379 0.561753 0.23465
C_ C_ 0.621215 0.726409 0.5759 -0.11473
C_ C_ 0.861615 0.772503 0.580135 -0.11473
C_ C_ 0.530239 0.0019719 0.757711 0.05793
C_ C_ 0.782992 0.000297369 0.743045 0.05793
C_ C_ 0.720217 0.498809 0.749272 0.05793
C_ C_ 0.968006 0.498412 0.754155 0.05793
Br Br 0.574208 0.00361969 0.758788 -0.17191
Br Br 0.823891 1.00122903 0.72606 -0.17191
Br Br 0.67774 0.498458 0.762225 -0.17191
Br Br 0.926994 0.495555 0.76751 -0.17191
N_ N_ 0.630881 0.746366 0.854418 -0.272
N_ N_ 0.869513 0.745661 0.859902 -0.272
N_ N_ 0.639001 0.751079 0.98855 -0.12501
N_ N_ 0.857793 0.754405 0.992583 -0.12501
N_ N_ 0.628686 0.754684 0.645306 -0.272
N_ N_ 0.878364 0.749614 0.648398 -0.272
N_ N_ 0.626687 0.768407 0.513097 -0.12501
N_ N_ 0.872292 0.732638 0.516884 -0.12501
O_ O_ 0.596588 0.79198 0.712988 -0.60745
O_ O_ 0.847286 0.793719 0.718843 -0.60745
O_ O_ 0.601458 0.796237 0.781245 -0.60745
O_ O_ 0.844127 0.792545 0.78783 -0.60745
O_ O_ 0.666465 0.782509 0.786771 -0.60745
O_ O_ 0.908578 0.789241 0.793693 -0.60745
O_ O_ 0.655494 0.793701 0.719591 -0.60745
O_ O_ 0.906723 0.794645 0.724597 -0.60745
O_ O_ 0.654639 0.698693 0.782951 -0.60745
O_ O_ 0.908164 0.702596 0.793 -0.60745
O_ O_ 0.660805 0.705752 0.71566 -0.60745
O_ O_ 0.91109 0.709268 0.724799 -0.60745
O_ O_ 0.596801 0.70414 0.706766 -0.60745
O_ O_ 0.847438 0.708634 0.71594 -0.60745
O_ O_ 0.594691 0.707872 0.775817 -0.60745
O_ O_ 0.84802 0.697782 0.783445 -0.60745
