_cell_length_a 44.444
_cell_length_b 32.3360000049186
_cell_length_c 31.843999878906452
_cell_angle_alpha 89.99799923859553
_cell_angle_beta 91.13600050494348
_cell_angle_gamma 89.9990006550086
_symmetry_space_group_name_H-M         'P 1'
_symmetry_Int_Tables_number            1
loop_
_symmetry_equiv_pos_as_xyz
   'x, y, z'
                         
loop_
_atom_site_label
_atom_site_type_symbol
_atom_site_fract_x 
_atom_site_fract_y
_atom_site_fract_z
_atom_site_charge
Zn Zn 0.127296 0.248595 0.291486 0.9476
Zn Zn 0.375553 0.246559 0.28186 0.9476
Zn Zn 0.125646 0.249438 0.221074 0.9476
Zn Zn 0.373395 0.250587 0.212354 0.9476
H_ H_ 0.0118276 0.393511 0.201599 0.10932
H_ H_ 0.301213 0.436655 0.198681 0.10932
H_ H_ 0.0778384 0.360098 0.322898 0.10932
H_ H_ 0.295809 0.328994 0.311608 0.10932
H_ H_ 0.0418251 0.332746 0.198361 0.10932
H_ H_ 0.327986 0.368623 0.191568 0.10932
H_ H_ 0.0489479 0.42695 0.323175 0.10932
H_ H_ 0.261107 0.393617 0.312769 0.10932
H_ H_ 0.191006 0.434034 0.306888 0.10932
H_ H_ 0.455974 0.428744 0.319765 0.10932
H_ H_ 0.202845 0.332224 0.190861 0.10932
H_ H_ 0.437528 0.349618 0.184564 0.10932
H_ H_ 0.165109 0.36582 0.310446 0.10932
H_ H_ 0.429188 0.360527 0.318994 0.10932
H_ H_ 0.226886 0.4041 0.186779 0.10932
H_ H_ 0.473916 0.409364 0.187742 0.10932
H_ H_ 0.215561 0.0725824 0.316168 0.10932
H_ H_ 0.483984 0.0905387 0.309315 0.10932
H_ H_ 0.192923 0.154261 0.18827 0.10932
H_ H_ 0.421433 0.134406 0.187091 0.10932
H_ H_ 0.180724 0.133809 0.320341 0.10932
H_ H_ 0.447429 0.15 0.31624 0.10932
H_ H_ 0.223439 0.0940928 0.181229 0.10932
H_ H_ 0.449454 0.0723727 0.183989 0.10932
H_ H_ 0.0288064 0.0861349 0.191181 0.10932
H_ H_ 0.2889 0.0759499 0.177611 0.10932
H_ H_ 0.0704477 0.136257 0.327353 0.10932
H_ H_ 0.302439 0.155188 0.30965 0.10932
H_ H_ 0.0669295 0.146451 0.194554 0.10932
H_ H_ 0.319252 0.140684 0.177531 0.10932
H_ H_ 0.0326903 0.077879 0.325665 0.10932
H_ H_ 0.276481 0.0896795 0.312649 0.10932
H_ H_ 0.118061 0.309954 0.372124 0.10932
H_ H_ 0.366944 0.311163 0.36501 0.10932
H_ H_ 0.13939 0.182446 0.364617 0.10932
H_ H_ 0.371285 0.182688 0.349476 0.10932
H_ H_ 0.14868 0.180306 0.443224 0.10932
H_ H_ 0.380505 0.171011 0.42724 0.10932
H_ H_ 0.123847 0.310174 0.449603 0.10932
H_ H_ 0.36103 0.300774 0.440575 0.10932
H_ H_ 0.146372 0.304697 0.148816 0.10932
H_ H_ 0.346098 0.311544 0.141125 0.10932
H_ H_ 0.110203 0.184733 0.153058 0.10932
H_ H_ 0.404713 0.21082 0.134826 0.10932
H_ H_ 0.105734 0.185054 0.0712246 0.10932
H_ H_ 0.402399 0.213051 0.0546062 0.10932
H_ H_ 0.155505 0.299494 0.0726435 0.10932
H_ H_ 0.335039 0.309791 0.0668208 0.10932
C_ C_ 0.0647439 0.343331 0.260661 -0.02249
C_ C_ 0.311958 0.344514 0.249857 -0.02249
C_ C_ 0.0124312 0.456829 0.261136 -0.02249
C_ C_ 0.260664 0.460435 0.258058 -0.02249
C_ C_ 0.0281455 0.389593 0.227141 -0.11473
C_ C_ 0.29637 0.411779 0.219645 -0.11473
C_ C_ 0.0639469 0.367881 0.296462 -0.11473
C_ C_ 0.295231 0.352709 0.286926 -0.11473
C_ C_ 0.0442251 0.352344 0.226854 -0.11473
C_ C_ 0.311821 0.374012 0.217459 -0.11473
C_ C_ 0.0305045 0.417084 0.260332 -0.02249
C_ C_ 0.278402 0.420048 0.254778 -0.02249
C_ C_ 0.0866739 0.30741 0.260686 0.6875
C_ C_ 0.332358 0.306033 0.249532 0.6875
C_ C_ 0.0475898 0.405266 0.296475 -0.11473
C_ C_ 0.277625 0.389453 0.287904 -0.11473
C_ C_ 0.183417 0.347067 0.251246 -0.02249
C_ C_ 0.43098 0.350799 0.252642 -0.02249
C_ C_ 0.228744 0.461675 0.249552 -0.02249
C_ C_ 0.486232 0.460432 0.254818 -0.02249
C_ C_ 0.193209 0.412101 0.28075 -0.11473
C_ C_ 0.453998 0.408643 0.291241 -0.11473
C_ C_ 0.201016 0.355822 0.216459 -0.11473
C_ C_ 0.443282 0.36558 0.215413 -0.11473
C_ C_ 0.180144 0.373807 0.284969 -0.11473
C_ C_ 0.437514 0.371643 0.290575 -0.11473
C_ C_ 0.211407 0.4216 0.247237 -0.02249
C_ C_ 0.467551 0.421695 0.253068 -0.02249
C_ C_ 0.167652 0.307417 0.252709 0.6875
C_ C_ 0.409445 0.314887 0.251413 0.6875
C_ C_ 0.215437 0.394661 0.214934 -0.11473
C_ C_ 0.463046 0.399642 0.215741 -0.11473
C_ C_ 0.183785 0.150014 0.254421 -0.02249
C_ C_ 0.433266 0.149389 0.249088 -0.02249
C_ C_ 0.235292 0.0348377 0.24418 -0.02249
C_ C_ 0.484252 0.036948 0.243211 -0.02249
C_ C_ 0.207102 0.0888468 0.287294 -0.11473
C_ C_ 0.466637 0.0982776 0.284098 -0.11473
C_ C_ 0.197311 0.138407 0.216613 -0.11473
C_ C_ 0.433809 0.124021 0.214938 -0.11473
C_ C_ 0.190224 0.12454 0.290373 -0.11473
C_ C_ 0.448608 0.134171 0.286355 -0.11473
C_ C_ 0.217381 0.0754718 0.247901 -0.02249
C_ C_ 0.467004 0.075102 0.245867 -0.02249
C_ C_ 0.162387 0.187551 0.255403 0.6875
C_ C_ 0.415114 0.189672 0.252156 0.6875
C_ C_ 0.214419 0.102314 0.212562 -0.11473
C_ C_ 0.451748 0.0902486 0.210865 -0.11473
C_ C_ 0.0695682 0.149145 0.261472 -0.02249
C_ C_ 0.316172 0.150301 0.244259 -0.02249
C_ C_ 0.0132068 0.0380459 0.256348 -0.02249
C_ C_ 0.267548 0.0368658 0.246631 -0.02249
C_ C_ 0.0393119 0.0983841 0.220614 -0.11473
C_ C_ 0.29248 0.0939523 0.207032 -0.11473
C_ C_ 0.061322 0.127665 0.297986 -0.11473
C_ C_ 0.301952 0.138483 0.281657 -0.11473
C_ C_ 0.0592097 0.131384 0.222905 -0.11473
C_ C_ 0.310539 0.129488 0.206251 -0.11473
C_ C_ 0.0298725 0.0793427 0.257937 -0.02249
C_ C_ 0.282949 0.0770385 0.24573 -0.02249
C_ C_ 0.0851391 0.19015 0.262963 0.6875
C_ C_ 0.333045 0.191391 0.244432 0.6875
C_ C_ 0.0397366 0.093642 0.296746 -0.11473
C_ C_ 0.285826 0.10165 0.283246 -0.11473
C_ C_ 0.128225 0.283419 0.387383 0.17695
C_ C_ 0.36791 0.279606 0.377432 0.17695
C_ C_ 0.137514 0.211045 0.383281 0.17695
C_ C_ 0.373145 0.208146 0.370105 0.17695
C_ C_ 0.143643 0.209838 0.42712 -0.11473
C_ C_ 0.378021 0.201846 0.414673 -0.11473
C_ C_ 0.13594 0.243136 0.452721 0.23465
C_ C_ 0.373777 0.236073 0.440432 0.23465
C_ C_ 0.126987 0.281146 0.432087 -0.11473
C_ C_ 0.370821 0.27555 0.422687 -0.11473
C_ C_ 0.136905 0.279132 0.130602 0.17695
C_ C_ 0.357761 0.288899 0.124096 0.17695
C_ C_ 0.115694 0.212394 0.133893 0.17695
C_ C_ 0.390903 0.232316 0.118248 0.17695
C_ C_ 0.117771 0.208652 0.0901196 -0.11473
C_ C_ 0.38839 0.232727 0.0742922 -0.11473
C_ C_ 0.131364 0.240904 0.0668068 0.23465
C_ C_ 0.371685 0.265317 0.0541923 0.23465
C_ C_ 0.140082 0.2772 0.0874036 -0.11473
C_ C_ 0.351847 0.288506 0.0793315 -0.11473
C_ C_ 0.0289651 0.493354 0.256 0.05793
C_ C_ 0.277807 0.496928 0.259471 0.05793
C_ C_ 0.22085 -0.005040999999999962 0.245 0.05793
C_ C_ 0.467246 0.999574 0.244256 0.05793
Br Br 0.0722661 0.49425 0.245071 -0.17191
Br Br 0.316875 0.49718 0.28891 -0.17191
Br Br 0.177438 -0.009757000000000016 0.242374 -0.17191
Br Br 0.424171 0.99858739 0.241532 -0.17191
N_ N_ 0.130275 0.248608 0.364486 -0.272
N_ N_ 0.372364 0.246375 0.352754 -0.272
N_ N_ 0.134285 0.23611 0.496782 -0.12501
N_ N_ 0.367914 0.232057 0.484962 -0.12501
N_ N_ 0.122454 0.248331 0.152697 -0.272
N_ N_ 0.373824 0.257603 0.142284 -0.272
N_ N_ 0.136876 0.236325 0.0227928 -0.12501
N_ N_ 0.36771 0.265171 0.0096248 -0.12501
O_ O_ 0.0974749 0.296822 0.225402 -0.60745
O_ O_ 0.337085 0.28697 0.215094 -0.60745
O_ O_ 0.0974697 0.292473 0.29413 -0.60745
O_ O_ 0.346062 0.292995 0.282784 -0.60745
O_ O_ 0.160714 0.291192 0.288515 -0.60745
O_ O_ 0.411637 0.287824 0.27986 -0.60745
O_ O_ 0.159092 0.289891 0.220262 -0.60745
O_ O_ 0.398096 0.304145 0.216238 -0.60745
O_ O_ 0.158319 0.206402 0.290762 -0.60745
O_ O_ 0.400908 0.19728 0.285317 -0.60745
O_ O_ 0.156761 0.205319 0.221057 -0.60745
O_ O_ 0.409746 0.212456 0.218051 -0.60745
O_ O_ 0.090083 0.207715 0.229046 -0.60745
O_ O_ 0.349154 0.199043 0.212617 -0.60745
O_ O_ 0.0962408 0.204309 0.297184 -0.60745
O_ O_ 0.339147 0.208338 0.278366 -0.60745
Zn Zn 0.126592 0.255068 0.79421 0.9476
Zn Zn 0.37494 0.250921 0.777511 0.9476
Zn Zn 0.124974 0.250962 0.723366 0.9476
Zn Zn 0.375647 0.252069 0.709191 0.9476
H_ H_ 0.0383778 0.424822 0.689673 0.10932
H_ H_ 0.279235 0.414011 0.676946 0.10932
H_ H_ 0.067547 0.362359 0.828276 0.10932
H_ H_ 0.322955 0.3648 0.811248 0.10932
H_ H_ 0.0630387 0.356528 0.691982 0.10932
H_ H_ 0.309294 0.351585 0.680127 0.10932
H_ H_ 0.0317005 0.416379 0.82534 0.10932
H_ H_ 0.298317 0.429183 0.808157 0.10932
H_ H_ 0.21047 0.428197 0.819577 0.10932
H_ H_ 0.456574 0.424987 0.80817 0.10932
H_ H_ 0.186937 0.342835 0.691775 0.10932
H_ H_ 0.447524 0.341055 0.681367 0.10932
H_ H_ 0.190058 0.360546 0.827054 0.10932
H_ H_ 0.422736 0.368429 0.808848 0.10932
H_ H_ 0.212114 0.413807 0.684034 0.10932
H_ H_ 0.476221 0.406776 0.677164 0.10932
H_ H_ 0.222545 0.0856673 0.819912 0.10932
H_ H_ 0.457637 0.0687978 0.80296 0.10932
H_ H_ 0.188391 0.157743 0.690558 0.10932
H_ H_ 0.439868 0.156467 0.678013 0.10932
H_ H_ 0.204265 0.161525 0.818784 0.10932
H_ H_ 0.42911 0.132069 0.811226 0.10932
H_ H_ 0.210771 0.087398 0.684208 0.10932
H_ H_ 0.468673 0.0920878 0.672106 0.10932
H_ H_ 0.0421801 0.0856726 0.680298 0.10932
H_ H_ 0.27769 0.090279 0.673456 0.10932
H_ H_ 0.0582559 0.155347 0.820935 0.10932
H_ H_ 0.334724 0.129985 0.803554 0.10932
H_ H_ 0.0646709 0.155839 0.683583 0.10932
H_ H_ 0.301942 0.156787 0.67822 0.10932
H_ H_ 0.0316558 0.0859284 0.816022 0.10932
H_ H_ 0.298094 0.0696834 0.804504 0.10932
H_ H_ 0.124308 0.318926 0.867939 0.10932
H_ H_ 0.326729 0.247929 0.86356 0.10932
H_ H_ 0.133983 0.189344 0.869802 0.10932
H_ H_ 0.420796 0.245643 0.850617 0.10932
H_ H_ 0.129162 0.191938 0.94741 0.10932
H_ H_ 0.427049 0.249867 0.929338 0.10932
H_ H_ 0.11946 0.320599 0.943382 0.10932
H_ H_ 0.332673 0.250184 0.941629 0.10932
H_ H_ 0.137337 0.189242 0.648546 0.10932
H_ H_ 0.423357 0.249955 0.638878 0.10932
H_ H_ 0.112865 0.314933 0.657636 0.10932
H_ H_ 0.327283 0.259116 0.636016 0.10932
H_ H_ 0.104412 0.314849 0.578316 0.10932
H_ H_ 0.326546 0.266039 0.562106 0.10932
H_ H_ 0.14129 0.193432 0.569457 0.10932
H_ H_ 0.421106 0.239316 0.561668 0.10932
C_ C_ 0.0676275 0.353171 0.759118 -0.02249
C_ C_ 0.317615 0.351731 0.743334 -0.02249
C_ C_ 0.0136572 0.464893 0.752522 -0.02249
C_ C_ 0.265581 0.464185 0.744486 -0.02249
C_ C_ 0.0408436 0.407342 0.719047 -0.11473
C_ C_ 0.287495 0.403409 0.707577 -0.11473
C_ C_ 0.0592719 0.372536 0.796478 -0.11473
C_ C_ 0.31449 0.375337 0.780516 -0.11473
C_ C_ 0.0579339 0.370113 0.720098 -0.11473
C_ C_ 0.30722 0.368254 0.706452 -0.11473
C_ C_ 0.0300921 0.424521 0.756725 -0.02249
C_ C_ 0.28174 0.423666 0.744645 -0.02249
C_ C_ 0.0846918 0.313398 0.758448 0.6875
C_ C_ 0.335063 0.310921 0.743371 0.6875
C_ C_ 0.0398366 0.406211 0.795489 -0.11473
C_ C_ 0.298347 0.411321 0.779504 -0.11473
C_ C_ 0.183404 0.34883 0.759236 -0.02249
C_ C_ 0.436879 0.346829 0.745806 -0.02249
C_ C_ 0.233598 0.464424 0.746717 -0.02249
C_ C_ 0.484472 0.46244 0.74684 -0.02249
C_ C_ 0.208206 0.410414 0.791301 -0.11473
C_ C_ 0.456275 0.406216 0.781935 -0.11473
C_ C_ 0.194648 0.361143 0.72069 -0.11473
C_ C_ 0.451263 0.35949 0.708694 -0.11473
C_ C_ 0.192486 0.371558 0.795438 -0.11473
C_ C_ 0.438291 0.371728 0.781396 -0.11473
C_ C_ 0.218055 0.424226 0.751782 -0.02249
C_ C_ 0.470689 0.420512 0.746046 -0.02249
C_ C_ 0.164682 0.31028 0.76211 0.6875
C_ C_ 0.414439 0.312109 0.744024 0.6875
C_ C_ 0.207658 0.401508 0.716042 -0.11473
C_ C_ 0.468565 0.396373 0.708339 -0.11473
C_ C_ 0.188029 0.160405 0.757091 -0.02249
C_ C_ 0.434246 0.150748 0.74628 -0.02249
C_ C_ 0.232617 0.0389473 0.749893 -0.02249
C_ C_ 0.483625 0.0375938 0.733621 -0.02249
C_ C_ 0.214064 0.100938 0.791042 -0.11473
C_ C_ 0.455664 0.0886448 0.776597 -0.11473
C_ C_ 0.191576 0.13986 0.717667 -0.11473
C_ C_ 0.443389 0.13752 0.706307 -0.11473
C_ C_ 0.200555 0.142423 0.792343 -0.11473
C_ C_ 0.439178 0.12478 0.780373 -0.11473
C_ C_ 0.216008 0.0798168 0.751862 -0.02249
C_ C_ 0.468198 0.077319 0.73834 -0.02249
C_ C_ 0.16888 0.197597 0.759405 0.6875
C_ C_ 0.413824 0.18821 0.747395 0.6875
C_ C_ 0.20648 0.101804 0.715379 -0.11473
C_ C_ 0.462468 0.102758 0.70249 -0.11473
C_ C_ 0.0637195 0.158739 0.751279 -0.02249
C_ C_ 0.31746 0.15091 0.745692 -0.02249
C_ C_ 0.0180789 0.0417222 0.745585 -0.02249
C_ C_ 0.264708 0.0394623 0.741233 -0.02249
C_ C_ 0.0452616 0.101019 0.711701 -0.11473
C_ C_ 0.28406 0.102965 0.70672 -0.11473
C_ C_ 0.0542428 0.13899 0.789067 -0.11473
C_ C_ 0.318085 0.124989 0.780755 -0.11473
C_ C_ 0.057423 0.140109 0.712536 -0.11473
C_ C_ 0.301715 0.13918 0.708217 -0.11473
C_ C_ 0.0332678 0.0816977 0.746971 -0.02249
C_ C_ 0.281688 0.0789955 0.742432 -0.02249
C_ C_ 0.0865432 0.192986 0.755205 0.6875
C_ C_ 0.335882 0.189422 0.745227 0.6875
C_ C_ 0.037912 0.102542 0.786281 -0.11473
C_ C_ 0.299243 0.0892829 0.77936 -0.11473
C_ C_ 0.122274 0.2888 0.884462 0.17695
C_ C_ 0.348531 0.249803 0.878573 0.17695
C_ C_ 0.132631 0.218705 0.886871 0.17695
C_ C_ 0.401954 0.246749 0.870587 0.17695
C_ C_ 0.132388 0.220172 0.930489 -0.11473
C_ C_ 0.405911 0.247768 0.915873 -0.11473
C_ C_ 0.129378 0.257669 0.952964 0.23465
C_ C_ 0.381674 0.252717 0.941041 0.23465
C_ C_ 0.12212 0.291838 0.927689 -0.11473
C_ C_ 0.352451 0.252229 0.922771 -0.11473
C_ C_ 0.135157 0.218309 0.631186 0.17695
C_ C_ 0.401819 0.250286 0.621091 0.17695
C_ C_ 0.120034 0.288196 0.635543 0.17695
C_ C_ 0.34865 0.252754 0.620009 0.17695
C_ C_ 0.117367 0.289475 0.591373 -0.11473
C_ C_ 0.348075 0.256322 0.577666 -0.11473
C_ C_ 0.126911 0.256928 0.566452 0.23465
C_ C_ 0.374687 0.2527 0.555656 0.23465
C_ C_ 0.134631 0.219054 0.587503 -0.11473
C_ C_ 0.40208 0.250429 0.577152 -0.11473
C_ C_ 0.0290705 0.501019 0.760993 0.05793
C_ C_ 0.281132 0.502048 0.744759 0.05793
C_ C_ 0.215937 0.00364989 0.748335 0.05793
C_ C_ 0.469283 1.00068 0.74148 0.05793
Br Br 0.0684094 0.50231 0.784791 -0.17191
Br Br 0.325668 0.502889 0.737256 -0.17191
Br Br 0.171373 0.00531602 0.753393 -0.17191
Br Br 0.425565 0.99708943 0.748522 -0.17191
N_ N_ 0.128037 0.252363 0.863347 -0.272
N_ N_ 0.373531 0.248653 0.853043 -0.272
N_ N_ 0.124322 0.25954 0.997241 -0.12501
N_ N_ 0.386837 0.252575 0.985094 -0.12501
N_ N_ 0.126922 0.252253 0.654297 -0.272
N_ N_ 0.374827 0.252527 0.641785 -0.272
N_ N_ 0.123067 0.261335 0.521785 -0.12501
N_ N_ 0.375307 0.260806 0.511366 -0.12501
O_ O_ 0.0943282 0.299408 0.724066 -0.60745
O_ O_ 0.348504 0.301467 0.711683 -0.60745
O_ O_ 0.0946581 0.298191 0.79304 -0.60745
O_ O_ 0.340723 0.292798 0.77878 -0.60745
O_ O_ 0.156287 0.299114 0.798051 -0.60745
O_ O_ 0.404892 0.298035 0.77705 -0.60745
O_ O_ 0.157004 0.291354 0.730206 -0.60745
O_ O_ 0.410627 0.290617 0.710132 -0.60745
O_ O_ 0.160157 0.210619 0.794262 -0.60745
O_ O_ 0.408911 0.207775 0.781238 -0.60745
O_ O_ 0.156149 0.209557 0.726365 -0.60745
O_ O_ 0.40309 0.202376 0.712671 -0.60745
O_ O_ 0.0936429 0.210821 0.720501 -0.60745
O_ O_ 0.342188 0.209496 0.712484 -0.60745
O_ O_ 0.0967945 0.206456 0.789842 -0.60745
O_ O_ 0.346608 0.202959 0.7802 -0.60745
Zn Zn 0.123202 0.749043 0.281633 0.9476
Zn Zn 0.375041 0.747183 0.288228 0.9476
Zn Zn 0.118374 0.748481 0.212914 0.9476
Zn Zn 0.376704 0.744774 0.216413 0.9476
H_ H_ 0.0349364 0.927003 0.189558 0.10932
H_ H_ 0.300872 0.922509 0.180649 0.10932
H_ H_ 0.0536222 0.842656 0.315685 0.10932
H_ H_ 0.301731 0.842673 0.31572 0.10932
H_ H_ 0.0627578 0.862933 0.185087 0.10932
H_ H_ 0.33344 0.86017 0.18935 0.10932
H_ H_ 0.023325 0.906736 0.323251 0.10932
H_ H_ 0.279229 0.910571 0.31267 0.10932
H_ H_ 0.215366 0.916122 0.316146 0.10932
H_ H_ 0.455038 0.924683 0.311913 0.10932
H_ H_ 0.190057 0.846456 0.182968 0.10932
H_ H_ 0.435954 0.848311 0.183973 0.10932
H_ H_ 0.186208 0.850252 0.319577 0.10932
H_ H_ 0.428328 0.861319 0.315095 0.10932
H_ H_ 0.224842 0.904665 0.183434 0.10932
H_ H_ 0.465089 0.911093 0.178628 0.10932
H_ H_ 0.221093 0.587416 0.308785 0.10932
H_ H_ 0.459031 0.573096 0.318398 0.10932
H_ H_ 0.175967 0.638296 0.17702 0.10932
H_ H_ 0.452243 0.652922 0.184947 0.10932
H_ H_ 0.189328 0.651239 0.311328 0.10932
H_ H_ 0.424965 0.632572 0.314746 0.10932
H_ H_ 0.205946 0.572548 0.178724 0.10932
H_ H_ 0.482051 0.590909 0.189997 0.10932
H_ H_ 0.0276796 0.577693 0.187532 0.10932
H_ H_ 0.284804 0.576604 0.183966 0.10932
H_ H_ 0.075855 0.637718 0.317039 0.10932
H_ H_ 0.317049 0.644092 0.316153 0.10932
H_ H_ 0.0507939 0.649111 0.186728 0.10932
H_ H_ 0.328945 0.621627 0.187993 0.10932
H_ H_ 0.0479913 0.57155 0.319311 0.10932
H_ H_ 0.289388 0.57923 0.322648 0.10932
H_ H_ 0.108552 0.812482 0.358885 0.10932
H_ H_ 0.385929 0.6791 0.357065 0.10932
H_ H_ 0.136517 0.688996 0.359822 0.10932
H_ H_ 0.367042 0.804337 0.360635 0.10932
H_ H_ 0.128782 0.686923 0.437717 0.10932
H_ H_ 0.369638 0.806823 0.438252 0.10932
H_ H_ 0.10775 0.816162 0.43525 0.10932
H_ H_ 0.3859 0.676119 0.435862 0.10932
H_ H_ 0.165901 0.764141 0.142303 0.10932
H_ H_ 0.417097 0.789148 0.148185 0.10932
H_ H_ 0.0727293 0.738541 0.134614 0.10932
H_ H_ 0.348366 0.701313 0.134937 0.10932
H_ H_ 0.0730714 0.737889 0.0567062 0.10932
H_ H_ 0.347071 0.706953 0.0582054 0.10932
H_ H_ 0.16772 0.768623 0.0662257 0.10932
H_ H_ 0.421872 0.795431 0.0692141 0.10932
C_ C_ 0.0615756 0.847624 0.251481 -0.02249
C_ C_ 0.317928 0.843698 0.251326 -0.02249
C_ C_ 0.0145251 0.963019 0.261707 -0.02249
C_ C_ 0.270224 0.960321 0.242113 -0.02249
C_ C_ 0.0406866 0.909574 0.21854 -0.11473
C_ C_ 0.301701 0.904287 0.209855 -0.11473
C_ C_ 0.0502497 0.860854 0.290616 -0.11473
C_ C_ 0.305161 0.862503 0.287389 -0.11473
C_ C_ 0.0560451 0.871181 0.216209 -0.11473
C_ C_ 0.318466 0.867205 0.214896 -0.11473
C_ C_ 0.0308903 0.923776 0.2584 -0.02249
C_ C_ 0.289701 0.922354 0.245253 -0.02249
C_ C_ 0.0811102 0.811343 0.248504 0.6875
C_ C_ 0.338066 0.806455 0.254637 0.6875
C_ C_ 0.0352551 0.897696 0.293841 -0.11473
C_ C_ 0.293086 0.90213 0.285136 -0.11473
C_ C_ 0.184433 0.844367 0.24856 -0.02249
C_ C_ 0.43464 0.844816 0.24977 -0.02249
C_ C_ 0.238023 0.957605 0.2477 -0.02249
C_ C_ 0.481696 0.960489 0.24272 -0.02249
C_ C_ 0.209498 0.8998 0.287965 -0.11473
C_ C_ 0.453238 0.907331 0.283916 -0.11473
C_ C_ 0.194422 0.861708 0.211452 -0.11473
C_ C_ 0.444545 0.861169 0.211525 -0.11473
C_ C_ 0.194503 0.862863 0.288408 -0.11473
C_ C_ 0.43597 0.870552 0.285344 -0.11473
C_ C_ 0.222189 0.915869 0.249852 -0.02249
C_ C_ 0.465191 0.920574 0.245055 -0.02249
C_ C_ 0.161485 0.808991 0.247815 0.6875
C_ C_ 0.415908 0.804905 0.252583 0.6875
C_ C_ 0.213869 0.895868 0.212926 -0.11473
C_ C_ 0.457966 0.899253 0.208359 -0.11473
C_ C_ 0.180994 0.651972 0.243403 -0.02249
C_ C_ 0.438026 0.650877 0.252424 -0.02249
C_ C_ 0.231621 0.536788 0.247943 -0.02249
C_ C_ 0.487762 0.533587 0.251427 -0.02249
C_ C_ 0.212826 0.600897 0.281559 -0.11473
C_ C_ 0.453943 0.585639 0.288684 -0.11473
C_ C_ 0.186831 0.629291 0.206355 -0.11473
C_ C_ 0.454801 0.637392 0.217085 -0.11473
C_ C_ 0.193324 0.636364 0.281558 -0.11473
C_ C_ 0.43992 0.624885 0.287986 -0.11473
C_ C_ 0.216755 0.577874 0.245212 -0.02249
C_ C_ 0.47075 0.5721 0.252118 -0.02249
C_ C_ 0.15754 0.68712 0.245219 0.6875
C_ C_ 0.420301 0.691572 0.250785 0.6875
C_ C_ 0.203635 0.591996 0.207173 -0.11473
C_ C_ 0.468769 0.597396 0.215005 -0.11473
C_ C_ 0.062219 0.651852 0.252731 -0.02249
C_ C_ 0.318989 0.645152 0.248892 -0.02249
C_ C_ 0.0152716 0.533269 0.261304 -0.02249
C_ C_ 0.263323 0.535791 0.252981 -0.02249
C_ C_ 0.0351562 0.593584 0.216994 -0.11473
C_ C_ 0.293539 0.587686 0.213606 -0.11473
C_ C_ 0.0604195 0.629751 0.290095 -0.11473
C_ C_ 0.310048 0.629625 0.28747 -0.11473
C_ C_ 0.0505515 0.632233 0.214993 -0.11473
C_ C_ 0.314076 0.620941 0.21273 -0.11473
C_ C_ 0.0321027 0.574012 0.2575 -0.02249
C_ C_ 0.281217 0.575366 0.253038 -0.02249
C_ C_ 0.0798487 0.69196 0.249531 0.6875
C_ C_ 0.339234 0.682187 0.247749 0.6875
C_ C_ 0.0453665 0.592529 0.292055 -0.11473
C_ C_ 0.293989 0.5924 0.290218 -0.11473
C_ C_ 0.113443 0.785439 0.37523 0.17695
C_ C_ 0.383658 0.706772 0.375947 0.17695
C_ C_ 0.129831 0.717578 0.375456 0.17695
C_ C_ 0.373551 0.777978 0.379787 0.17695
C_ C_ 0.127955 0.71553 0.420237 -0.11473
C_ C_ 0.377239 0.779199 0.422768 -0.11473
C_ C_ 0.123159 0.751864 0.441693 0.23465
C_ C_ 0.382848 0.741226 0.44408 0.23465
C_ C_ 0.111838 0.78584 0.418611 -0.11473
C_ C_ 0.384709 0.704804 0.419376 -0.11473
C_ C_ 0.144584 0.761967 0.123445 0.17695
C_ C_ 0.402514 0.772825 0.127693 0.17695
C_ C_ 0.0940192 0.741285 0.120046 0.17695
C_ C_ 0.36215 0.7253 0.121692 0.17695
C_ C_ 0.094363 0.742843 0.0760285 -0.11473
C_ C_ 0.363002 0.727432 0.077468 -0.11473
C_ C_ 0.120059 0.752009 0.0551167 0.23465
C_ C_ 0.384441 0.751979 0.0578342 0.23465
C_ C_ 0.145767 0.761848 0.0792177 -0.11473
C_ C_ 0.405002 0.773664 0.0835205 -0.11473
C_ C_ 0.0299986 1.00114236 0.257313 0.05793
C_ C_ 0.283995 0.999583 0.246156 0.05793
C_ C_ 0.215379 0.500281 0.241441 0.05793
C_ C_ 0.471051 0.497179 0.246732 0.05793
Br Br 0.0730592 0.00266382 0.257206 -0.17191
Br Br 0.327458 1.00220125 0.250903 -0.17191
Br Br 0.17182 0.500562 0.233773 -0.17191
Br Br 0.429702 0.498103 0.226064 -0.17191
N_ N_ 0.121211 0.750781 0.352877 -0.272
N_ N_ 0.37655 0.742949 0.357992 -0.272
N_ N_ 0.119518 0.753512 0.486892 -0.12501
N_ N_ 0.382624 0.736712 0.489141 -0.12501
N_ N_ 0.11882 0.750359 0.14289 -0.272
N_ N_ 0.380998 0.747777 0.146395 -0.272
N_ N_ 0.120965 0.743252 0.011333 -0.12501
N_ N_ 0.384903 0.762733 0.012698 -0.12501
O_ O_ 0.0829165 0.791028 0.215023 -0.60745
O_ O_ 0.34365 0.785473 0.220953 -0.60745
O_ O_ 0.0941327 0.797492 0.282171 -0.60745
O_ O_ 0.343237 0.790605 0.289493 -0.60745
O_ O_ 0.154387 0.792788 0.281747 -0.60745
O_ O_ 0.407443 0.790974 0.287527 -0.60745
O_ O_ 0.14857 0.795548 0.213154 -0.60745
O_ O_ 0.404823 0.789418 0.219399 -0.60745
O_ O_ 0.151082 0.700223 0.280738 -0.60745
O_ O_ 0.40619 0.701855 0.283028 -0.60745
O_ O_ 0.151373 0.708213 0.212588 -0.60745
O_ O_ 0.414107 0.706904 0.21486 -0.60745
O_ O_ 0.0902268 0.703676 0.214726 -0.60745
O_ O_ 0.350856 0.695054 0.214775 -0.60745
O_ O_ 0.0900278 0.706847 0.283924 -0.60745
O_ O_ 0.342998 0.703991 0.280698 -0.60745
Zn Zn 0.123981 0.752613 0.783154 0.9476
Zn Zn 0.373791 0.755149 0.786058 0.9476
Zn Zn 0.122569 0.751408 0.716198 0.9476
Zn Zn 0.374408 0.750638 0.715069 0.9476
H_ H_ 0.0378814 0.928539 0.678914 0.10932
H_ H_ 0.2752 0.907589 0.675146 0.10932
H_ H_ 0.0510964 0.844941 0.808353 0.10932
H_ H_ 0.316956 0.865221 0.815281 0.10932
H_ H_ 0.0735571 0.868554 0.678091 0.10932
H_ H_ 0.301718 0.845015 0.683039 0.10932
H_ H_ 0.0212299 0.908235 0.808782 0.10932
H_ H_ 0.293257 0.934155 0.806907 0.10932
H_ H_ 0.227554 0.903387 0.810117 0.10932
H_ H_ 0.465556 0.915351 0.812613 0.10932
H_ H_ 0.172023 0.863725 0.679721 0.10932
H_ H_ 0.434006 0.852559 0.676961 0.10932
H_ H_ 0.198571 0.840166 0.808013 0.10932
H_ H_ 0.445224 0.846032 0.813211 0.10932
H_ H_ 0.194874 0.934745 0.686658 0.10932
H_ H_ 0.45245 0.927906 0.678728 0.10932
H_ H_ 0.217255 0.576661 0.816844 0.10932
H_ H_ 0.447999 0.57254 0.817665 0.10932
H_ H_ 0.179007 0.647304 0.688293 0.10932
H_ H_ 0.433323 0.641491 0.682208 0.10932
H_ H_ 0.188958 0.645411 0.824177 0.10932
H_ H_ 0.426524 0.646084 0.815258 0.10932
H_ H_ 0.214589 0.592239 0.684615 0.10932
H_ H_ 0.464459 0.584339 0.685209 0.10932
H_ H_ 0.0430445 0.572216 0.69241 0.10932
H_ H_ 0.288335 0.58785 0.679813 0.10932
H_ H_ 0.0523612 0.657582 0.819654 0.10932
H_ H_ 0.31811 0.642763 0.816094 0.10932
H_ H_ 0.0732544 0.639729 0.69021 0.10932
H_ H_ 0.305365 0.656626 0.681334 0.10932
H_ H_ 0.022691 0.597295 0.819983 0.10932
H_ H_ 0.286932 0.583033 0.814986 0.10932
H_ H_ 0.134222 0.822805 0.853046 0.10932
H_ H_ 0.383569 0.815341 0.865167 0.10932
H_ H_ 0.118721 0.695823 0.860408 0.10932
H_ H_ 0.370054 0.686476 0.852705 0.10932
H_ H_ 0.125781 0.698232 0.940182 0.10932
H_ H_ 0.374447 0.679296 0.929449 0.10932
H_ H_ 0.125807 0.828936 0.932629 0.10932
H_ H_ 0.387324 0.80922 0.943719 0.10932
H_ H_ 0.139135 0.683601 0.651779 0.10932
H_ H_ 0.389804 0.815896 0.64368 0.10932
H_ H_ 0.103914 0.802896 0.630623 0.10932
H_ H_ 0.343767 0.700793 0.632591 0.10932
H_ H_ 0.11363 0.798425 0.555864 0.10932
H_ H_ 0.349803 0.701899 0.557898 0.10932
H_ H_ 0.145392 0.675463 0.575551 0.10932
H_ H_ 0.393361 0.819328 0.567437 0.10932
C_ C_ 0.0638897 0.84896 0.741373 -0.02249
C_ C_ 0.315941 0.852444 0.748528 -0.02249
C_ C_ 0.0183826 0.965955 0.749217 -0.02249
C_ C_ 0.263186 0.964391 0.736969 -0.02249
C_ C_ 0.0435129 0.909977 0.706282 -0.11473
C_ C_ 0.283721 0.899453 0.706775 -0.11473
C_ C_ 0.0484588 0.860837 0.777787 -0.11473
C_ C_ 0.309399 0.875011 0.783965 -0.11473
C_ C_ 0.0607882 0.873541 0.705515 -0.11473
C_ C_ 0.301474 0.86431 0.71 -0.11473
C_ C_ 0.0328678 0.925469 0.745856 -0.02249
C_ C_ 0.280455 0.925807 0.739108 -0.02249
C_ C_ 0.0845496 0.812885 0.740976 0.6875
C_ C_ 0.336751 0.816161 0.751227 0.6875
C_ C_ 0.0327756 0.898234 0.77992 -0.11473
C_ C_ 0.293531 0.912406 0.778987 -0.11473
C_ C_ 0.178719 0.851486 0.746968 -0.02249
C_ C_ 0.433763 0.84767 0.746195 -0.02249
C_ C_ 0.230894 0.96515 0.743368 -0.02249
C_ C_ 0.484564 0.961721 0.74127 -0.02249
C_ C_ 0.217189 0.894732 0.780171 -0.11473
C_ C_ 0.459726 0.904113 0.783451 -0.11473
C_ C_ 0.178078 0.877132 0.711404 -0.11473
C_ C_ 0.438729 0.868323 0.707552 -0.11473
C_ C_ 0.196888 0.862109 0.780999 -0.11473
C_ C_ 0.447356 0.863132 0.78301 -0.11473
C_ C_ 0.212744 0.924919 0.747793 -0.02249
C_ C_ 0.466363 0.924529 0.745174 -0.02249
C_ C_ 0.161765 0.81093 0.747323 0.6875
C_ C_ 0.413602 0.810694 0.746319 0.6875
C_ C_ 0.19492 0.913779 0.713447 -0.11473
C_ C_ 0.452482 0.90817 0.708468 -0.11473
C_ C_ 0.184264 0.655202 0.756195 -0.02249
C_ C_ 0.426669 0.649649 0.747939 -0.02249
C_ C_ 0.233543 0.542431 0.745636 -0.02249
C_ C_ 0.481574 0.537966 0.75322 -0.02249
C_ C_ 0.21166 0.596165 0.789662 -0.11473
C_ C_ 0.447809 0.591374 0.788429 -0.11473
C_ C_ 0.189677 0.636401 0.717571 -0.11473
C_ C_ 0.438698 0.631862 0.711811 -0.11473
C_ C_ 0.194427 0.63383 0.792586 -0.11473
C_ C_ 0.432037 0.629789 0.786066 -0.11473
C_ C_ 0.2177 0.581897 0.750155 -0.02249
C_ C_ 0.460916 0.575393 0.751728 -0.02249
C_ C_ 0.159955 0.688147 0.756482 0.6875
C_ C_ 0.411867 0.690641 0.74525 0.6875
C_ C_ 0.207873 0.602501 0.714398 -0.11473
C_ C_ 0.456323 0.596011 0.712624 -0.11473
C_ C_ 0.0617904 0.65617 0.754874 -0.02249
C_ C_ 0.316902 0.655166 0.748556 -0.02249
C_ C_ 0.0135362 0.538622 0.756738 -0.02249
C_ C_ 0.265793 0.539804 0.742789 -0.02249
C_ C_ 0.0443052 0.592736 0.71952 -0.11473
C_ C_ 0.290823 0.600888 0.709687 -0.11473
C_ C_ 0.0483708 0.640919 0.79189 -0.11473
C_ C_ 0.311106 0.631749 0.785615 -0.11473
C_ C_ 0.0588285 0.630576 0.717338 -0.11473
C_ C_ 0.302949 0.64067 0.710174 -0.11473
C_ C_ 0.0305808 0.57933 0.756029 -0.02249
C_ C_ 0.282603 0.580055 0.745906 -0.02249
C_ C_ 0.082557 0.693677 0.75237 0.6875
C_ C_ 0.336365 0.692169 0.748342 0.6875
C_ C_ 0.0318638 0.605551 0.791425 -0.11473
C_ C_ 0.292017 0.596614 0.783037 -0.11473
C_ C_ 0.127246 0.795344 0.871138 0.17695
C_ C_ 0.382916 0.785878 0.880426 0.17695
C_ C_ 0.124139 0.724406 0.87845 0.17695
C_ C_ 0.375074 0.714327 0.872472 0.17695
C_ C_ 0.124428 0.726767 0.921602 -0.11473
C_ C_ 0.378317 0.708574 0.91537 -0.11473
C_ C_ 0.124338 0.766458 0.940555 0.23465
C_ C_ 0.381249 0.742389 0.942181 0.23465
C_ C_ 0.125674 0.800649 0.914984 -0.11473
C_ C_ 0.386649 0.781836 0.923819 -0.11473
C_ C_ 0.13254 0.708541 0.630444 0.17695
C_ C_ 0.383347 0.788542 0.624963 0.17695
C_ C_ 0.11647 0.77638 0.619592 0.17695
C_ C_ 0.357002 0.724134 0.618781 0.17695
C_ C_ 0.120824 0.773265 0.576476 -0.11473
C_ C_ 0.363351 0.722879 0.575169 -0.11473
C_ C_ 0.131783 0.736328 0.558694 0.23465
C_ C_ 0.372515 0.760356 0.556724 0.23465
C_ C_ 0.136566 0.702758 0.586653 -0.11473
C_ C_ 0.38535 0.791705 0.580841 -0.11473
C_ C_ 0.0337501 0.00386345 0.745904 0.05793
C_ C_ 0.278569 0.00161382 0.731109 0.05793
C_ C_ 0.218429 0.503559 0.744988 0.05793
C_ C_ 0.467258 0.499479 0.750827 0.05793
Br Br 0.077062 0.00495041 0.74026 -0.17191
Br Br 0.320089 0.000544134 0.721149 -0.17191
Br Br 0.17497 0.506804 0.752079 -0.17191
Br Br 0.423313 0.492032 0.744879 -0.17191
N_ N_ 0.126703 0.757589 0.853854 -0.272
N_ N_ 0.377499 0.75283 0.855836 -0.272
N_ N_ 0.12614 0.771566 0.985974 -0.12501
N_ N_ 0.37375 0.738883 0.985713 -0.12501
N_ N_ 0.123556 0.744391 0.645004 -0.272
N_ N_ 0.370955 0.754971 0.642642 -0.272
N_ N_ 0.13444 0.732599 0.513847 -0.12501
N_ N_ 0.373985 0.765329 0.51222 -0.12501
O_ O_ 0.0909516 0.791969 0.708483 -0.60745
O_ O_ 0.348846 0.802421 0.717888 -0.60745
O_ O_ 0.0926993 0.798506 0.776102 -0.60745
O_ O_ 0.339294 0.79605 0.784815 -0.60745
O_ O_ 0.157349 0.791936 0.78147 -0.60745
O_ O_ 0.403104 0.797866 0.780634 -0.60745
O_ O_ 0.152201 0.795239 0.711773 -0.60745
O_ O_ 0.40567 0.794817 0.710821 -0.60745
O_ O_ 0.147644 0.702033 0.788941 -0.60745
O_ O_ 0.406559 0.712167 0.777513 -0.60745
O_ O_ 0.155292 0.706591 0.722945 -0.60745
O_ O_ 0.401323 0.702905 0.710324 -0.60745
O_ O_ 0.0916033 0.706514 0.716466 -0.60745
O_ O_ 0.342165 0.711663 0.714669 -0.60745
O_ O_ 0.0909517 0.712443 0.785394 -0.60745
O_ O_ 0.345516 0.705835 0.784402 -0.60745
Zn Zn 0.623985 0.245781 0.286475 0.9476
Zn Zn 0.872438 0.248318 0.289819 0.9476
Zn Zn 0.626687 0.24912 0.216649 0.9476
Zn Zn 0.874968 0.249643 0.22157 0.9476
H_ H_ 0.543603 0.423339 0.186787 0.10932
H_ H_ 0.797501 0.434002 0.196243 0.10932
H_ H_ 0.542751 0.334318 0.315339 0.10932
H_ H_ 0.797483 0.33806 0.315536 0.10932
H_ H_ 0.571095 0.356334 0.187066 0.10932
H_ H_ 0.835243 0.377787 0.197923 0.10932
H_ H_ 0.524252 0.405095 0.32076 0.10932
H_ H_ 0.768686 0.402989 0.319616 0.10932
H_ H_ 0.704598 0.429347 0.313192 0.10932
H_ H_ 0.963256 0.409792 0.327097 0.10932
H_ H_ 0.686538 0.347491 0.182882 0.10932
H_ H_ 0.937519 0.349833 0.189169 0.10932
H_ H_ 0.67292 0.364508 0.315443 0.10932
H_ H_ 0.937047 0.344009 0.324601 0.10932
H_ H_ 0.721153 0.41087 0.184224 0.10932
H_ H_ 0.961032 0.423561 0.193537 0.10932
H_ H_ 0.728363 0.0853037 0.31505 0.10932
H_ H_ 0.979163 0.0945191 0.3189 0.10932
H_ H_ 0.669116 0.136594 0.191598 0.10932
H_ H_ 0.922836 0.133862 0.190497 0.10932
H_ H_ 0.71281 0.15752 0.310827 0.10932
H_ H_ 0.954587 0.16193 0.315479 0.10932
H_ H_ 0.696974 0.0711335 0.185237 0.10932
H_ H_ 0.955655 0.0695861 0.19178 0.10932
H_ H_ 0.520301 0.0986846 0.182701 0.10932
H_ H_ 0.764185 0.0968328 0.188059 0.10932
H_ H_ 0.581769 0.126444 0.312348 0.10932
H_ H_ 0.830184 0.126263 0.310772 0.10932
H_ H_ 0.552868 0.160028 0.186718 0.10932
H_ H_ 0.794783 0.160576 0.184922 0.10932
H_ H_ 0.554582 0.0605823 0.303046 0.10932
H_ H_ 0.798124 0.0656705 0.310167 0.10932
H_ H_ 0.636646 0.180415 0.35242 0.10932
H_ H_ 0.86404 0.185835 0.356974 0.10932
H_ H_ 0.616942 0.307642 0.363103 0.10932
H_ H_ 0.880964 0.313567 0.371231 0.10932
H_ H_ 0.615824 0.301923 0.439339 0.10932
H_ H_ 0.887204 0.309274 0.446993 0.10932
H_ H_ 0.640853 0.174465 0.432795 0.10932
H_ H_ 0.859001 0.178541 0.434611 0.10932
H_ H_ 0.620663 0.188732 0.136534 0.10932
H_ H_ 0.885512 0.316849 0.142831 0.10932
H_ H_ 0.631189 0.316131 0.144916 0.10932
H_ H_ 0.871037 0.185104 0.147347 0.10932
H_ H_ 0.634352 0.319403 0.0674541 0.10932
H_ H_ 0.869899 0.186006 0.0681218 0.10932
H_ H_ 0.622013 0.187578 0.0627195 0.10932
H_ H_ 0.886974 0.316618 0.0703075 0.10932
C_ C_ 0.564003 0.345089 0.25323 -0.02249
C_ C_ 0.817682 0.351222 0.2572 -0.02249
C_ C_ 0.517973 0.45878 0.254985 -0.02249
C_ C_ 0.764179 0.462728 0.262966 -0.02249
C_ C_ 0.54674 0.40546 0.21553 -0.11473
C_ C_ 0.800694 0.416127 0.225714 -0.11473
C_ C_ 0.545436 0.355143 0.288103 -0.11473
C_ C_ 0.798818 0.359541 0.290418 -0.11473
C_ C_ 0.563067 0.368849 0.216061 -0.11473
C_ C_ 0.819975 0.381273 0.224908 -0.11473
C_ C_ 0.533833 0.420106 0.253324 -0.02249
C_ C_ 0.781443 0.424071 0.259916 -0.02249
C_ C_ 0.584158 0.306847 0.253957 0.6875
C_ C_ 0.835509 0.312459 0.255494 0.6875
C_ C_ 0.531787 0.393932 0.289207 -0.11473
C_ C_ 0.780764 0.394263 0.292155 -0.11473
C_ C_ 0.681593 0.349792 0.250926 -0.02249
C_ C_ 0.932233 0.34567 0.25695 -0.02249
C_ C_ 0.734483 0.463237 0.25088 -0.02249
C_ C_ 0.980492 0.459123 0.266368 -0.02249
C_ C_ 0.702177 0.410215 0.285236 -0.11473
C_ C_ 0.95665 0.398419 0.298682 -0.11473
C_ C_ 0.693088 0.364125 0.212659 -0.11473
C_ C_ 0.941483 0.364908 0.220452 -0.11473
C_ C_ 0.683241 0.37439 0.287 -0.11473
C_ C_ 0.944282 0.359427 0.2954 -0.11473
C_ C_ 0.716335 0.421799 0.247926 -0.02249
C_ C_ 0.964764 0.420502 0.262324 -0.02249
C_ C_ 0.663639 0.309682 0.252291 0.6875
C_ C_ 0.916539 0.305589 0.255218 0.6875
C_ C_ 0.708347 0.402818 0.21146 -0.11473
C_ C_ 0.956585 0.403323 0.221718 -0.11473
C_ C_ 0.688261 0.153545 0.249623 -0.02249
C_ C_ 0.93568 0.152233 0.254062 -0.02249
C_ C_ 0.731861 0.0356254 0.242758 -0.02249
C_ C_ 0.981471 0.0369261 0.257098 -0.02249
C_ C_ 0.718212 0.0984897 0.284488 -0.11473
C_ C_ 0.964759 0.10159 0.293264 -0.11473
C_ C_ 0.681304 0.125777 0.216831 -0.11473
C_ C_ 0.934292 0.125464 0.218497 -0.11473
C_ C_ 0.706767 0.13974 0.285141 -0.11473
C_ C_ 0.95167 0.14044 0.290464 -0.11473
C_ C_ 0.714028 0.0743886 0.248656 -0.02249
C_ C_ 0.965042 0.076431 0.257344 -0.02249
C_ C_ 0.669426 0.193614 0.251227 0.6875
C_ C_ 0.915034 0.188275 0.253921 0.6875
C_ C_ 0.696358 0.0882791 0.214191 -0.11473
C_ C_ 0.950203 0.087864 0.220156 -0.11473
C_ C_ 0.56604 0.149878 0.251618 -0.02249
C_ C_ 0.8167 0.149467 0.249556 -0.02249
C_ C_ 0.51585 0.0365936 0.240769 -0.02249
C_ C_ 0.763534 0.0362226 0.241753 -0.02249
C_ C_ 0.531104 0.107043 0.212021 -0.11473
C_ C_ 0.778018 0.105041 0.214077 -0.11473
C_ C_ 0.56779 0.121597 0.284111 -0.11473
C_ C_ 0.815931 0.121113 0.283639 -0.11473
C_ C_ 0.550124 0.140915 0.215294 -0.11473
C_ C_ 0.795616 0.141165 0.213764 -0.11473
C_ C_ 0.533665 0.0759322 0.243874 -0.02249
C_ C_ 0.778551 0.0774196 0.248409 -0.02249
C_ C_ 0.586376 0.186078 0.253118 0.6875
C_ C_ 0.834807 0.188457 0.251452 0.6875
C_ C_ 0.552386 0.084366 0.279098 -0.11473
C_ C_ 0.797964 0.0865037 0.28287 -0.11473
C_ C_ 0.636134 0.206854 0.373621 0.17695
C_ C_ 0.871573 0.210525 0.378108 0.17695
C_ C_ 0.621669 0.277836 0.377274 0.17695
C_ C_ 0.878425 0.282747 0.385171 0.17695
C_ C_ 0.624613 0.276167 0.420501 -0.11473
C_ C_ 0.882006 0.280837 0.428579 -0.11473
C_ C_ 0.631762 0.238862 0.441675 0.23465
C_ C_ 0.876455 0.240977 0.446248 0.23465
C_ C_ 0.639929 0.203834 0.41702 -0.11473
C_ C_ 0.870252 0.20568 0.42101 -0.11473
C_ C_ 0.619012 0.217302 0.122645 0.17695
C_ C_ 0.881383 0.286665 0.128291 0.17695
C_ C_ 0.628784 0.289115 0.125811 0.17695
C_ C_ 0.872532 0.214805 0.1281 0.17695
C_ C_ 0.63029 0.290721 0.0816493 -0.11473
C_ C_ 0.86941 0.214649 0.0856379 -0.11473
C_ C_ 0.624782 0.255627 0.0570238 0.23465
C_ C_ 0.873702 0.252017 0.0632834 0.23465
C_ C_ 0.622076 0.217585 0.0787025 -0.11473
C_ C_ 0.878734 0.288295 0.0857914 -0.11473
C_ C_ 0.53525 0.494499 0.255148 0.05793
C_ C_ 0.779412 0.500376 0.26797 0.05793
C_ C_ 0.716598 0.99753115 0.245728 0.05793
C_ C_ 0.965876 0.99892518 0.262653 0.05793
Br Br 0.57827 0.494735 0.263457 -0.17191
Br Br 0.823341 0.501541 0.274654 -0.17191
Br Br 0.672623 -0.00373499 0.244642 -0.17191
Br Br 0.922774 0.0023500000000000743 0.268095 -0.17191
N_ N_ 0.630477 0.244264 0.35533 -0.272
N_ N_ 0.875752 0.248295 0.360873 -0.272
N_ N_ 0.630523 0.235652 0.486468 -0.12501
N_ N_ 0.872821 0.236497 0.491664 -0.12501
N_ N_ 0.62431 0.251834 0.145309 -0.272
N_ N_ 0.877277 0.25083 0.149258 -0.272
N_ N_ 0.632114 0.256201 0.0126217 -0.12501
N_ N_ 0.870212 0.252085 0.018839 -0.12501
O_ O_ 0.592422 0.291775 0.217941 -0.60745
O_ O_ 0.844307 0.297765 0.221746 -0.60745
O_ O_ 0.588972 0.287575 0.287916 -0.60745
O_ O_ 0.844436 0.293927 0.288444 -0.60745
O_ O_ 0.654253 0.294941 0.285923 -0.60745
O_ O_ 0.904833 0.291426 0.288357 -0.60745
O_ O_ 0.65799 0.291063 0.218563 -0.60745
O_ O_ 0.906632 0.293353 0.220122 -0.60745
O_ O_ 0.656162 0.202709 0.284678 -0.60745
O_ O_ 0.904149 0.203422 0.288459 -0.60745
O_ O_ 0.660512 0.207625 0.216131 -0.60745
O_ O_ 0.906045 0.203649 0.21887 -0.60745
O_ O_ 0.595066 0.203217 0.218652 -0.60745
O_ O_ 0.843879 0.204455 0.217556 -0.60745
O_ O_ 0.59652 0.199409 0.287652 -0.60745
O_ O_ 0.839876 0.205993 0.288091 -0.60745
Zn Zn 0.624742 0.25097 0.784848 0.9476
Zn Zn 0.877828 0.248876 0.787073 0.9476
Zn Zn 0.625235 0.252678 0.715988 0.9476
Zn Zn 0.870627 0.250289 0.717681 0.9476
H_ H_ 0.556483 0.437796 0.689552 0.10932
H_ H_ 0.779646 0.4147 0.691209 0.10932
H_ H_ 0.548953 0.343212 0.811034 0.10932
H_ H_ 0.817673 0.354816 0.82459 0.10932
H_ H_ 0.587905 0.373448 0.690966 0.10932
H_ H_ 0.809726 0.347936 0.690213 0.10932
H_ H_ 0.518993 0.408033 0.80835 0.10932
H_ H_ 0.789179 0.417449 0.8255 0.10932
H_ H_ 0.719142 0.416487 0.822862 0.10932
H_ H_ 0.975914 0.411265 0.817903 0.10932
H_ H_ 0.682286 0.357773 0.684468 0.10932
H_ H_ 0.929913 0.351669 0.690123 0.10932
H_ H_ 0.697556 0.346275 0.819536 0.10932
H_ H_ 0.938037 0.353684 0.822333 0.10932
H_ H_ 0.710736 0.425546 0.688907 0.10932
H_ H_ 0.95614 0.422325 0.685499 0.10932
H_ H_ 0.698842 0.0669183 0.814367 0.10932
H_ H_ 0.941766 0.061017 0.807763 0.10932
H_ H_ 0.689463 0.151179 0.68208 0.10932
H_ H_ 0.950988 0.165977 0.693508 0.10932
H_ H_ 0.674514 0.136898 0.816511 0.10932
H_ H_ 0.906831 0.120638 0.800352 0.10932
H_ H_ 0.723548 0.0944626 0.685626 0.10932
H_ H_ 0.977015 0.0979797 0.688828 0.10932
H_ H_ 0.536339 0.0895057 0.666834 0.10932
H_ H_ 0.794633 0.0679438 0.689157 0.10932
H_ H_ 0.559988 0.148191 0.807016 0.10932
H_ H_ 0.813544 0.153187 0.815835 0.10932
H_ H_ 0.556674 0.159596 0.675723 0.10932
H_ H_ 0.823471 0.132715 0.682698 0.10932
H_ H_ 0.530418 0.0815787 0.801936 0.10932
H_ H_ 0.777165 0.0923165 0.8174 0.10932
H_ H_ 0.626613 0.310716 0.860219 0.10932
H_ H_ 0.927714 0.231757 0.860327 0.10932
H_ H_ 0.619128 0.181526 0.852745 0.10932
H_ H_ 0.837675 0.273535 0.870336 0.10932
H_ H_ 0.610704 0.176555 0.928713 0.10932
H_ H_ 0.84305 0.268128 0.946399 0.10932
H_ H_ 0.627557 0.306434 0.936506 0.10932
H_ H_ 0.931615 0.220144 0.935727 0.10932
H_ H_ 0.613947 0.194528 0.637291 0.10932
H_ H_ 0.878213 0.320948 0.64913 0.10932
H_ H_ 0.63637 0.318919 0.646216 0.10932
H_ H_ 0.884028 0.191361 0.641503 0.10932
H_ H_ 0.644727 0.323653 0.572172 0.10932
H_ H_ 0.877759 0.193384 0.563406 0.10932
H_ H_ 0.620149 0.199325 0.556142 0.10932
H_ H_ 0.881946 0.328158 0.571814 0.10932
C_ C_ 0.569299 0.351739 0.750408 -0.02249
C_ C_ 0.816663 0.345603 0.755873 -0.02249
C_ C_ 0.516794 0.465688 0.750079 -0.02249
C_ C_ 0.766816 0.462311 0.757482 -0.02249
C_ C_ 0.557174 0.417429 0.717276 -0.11473
C_ C_ 0.786416 0.398862 0.720028 -0.11473
C_ C_ 0.551232 0.363542 0.784337 -0.11473
C_ C_ 0.812561 0.367385 0.793991 -0.11473
C_ C_ 0.573548 0.380073 0.717672 -0.11473
C_ C_ 0.805966 0.364435 0.717841 -0.11473
C_ C_ 0.536697 0.427268 0.749811 -0.02249
C_ C_ 0.782668 0.421598 0.75737 -0.02249
C_ C_ 0.586405 0.312604 0.750379 0.6875
C_ C_ 0.835388 0.308663 0.753941 0.6875
C_ C_ 0.536027 0.401427 0.785308 -0.11473
C_ C_ 0.793326 0.40259 0.796101 -0.11473
C_ C_ 0.683784 0.349054 0.75395 -0.02249
C_ C_ 0.932048 0.348071 0.755968 -0.02249
C_ C_ 0.735671 0.464896 0.758508 -0.02249
C_ C_ 0.982296 0.463969 0.748383 -0.02249
C_ C_ 0.712308 0.40178 0.793829 -0.11473
C_ C_ 0.963606 0.400189 0.790049 -0.11473
C_ C_ 0.686733 0.372793 0.717279 -0.11473
C_ C_ 0.937203 0.368069 0.717161 -0.11473
C_ C_ 0.695376 0.364594 0.792287 -0.11473
C_ C_ 0.9438 0.36653 0.793196 -0.11473
C_ C_ 0.715732 0.425599 0.757982 -0.02249
C_ C_ 0.966117 0.42186 0.750894 -0.02249
C_ C_ 0.665222 0.310967 0.752924 0.6875
C_ C_ 0.913573 0.310171 0.756233 0.6875
C_ C_ 0.704043 0.411421 0.717844 -0.11473
C_ C_ 0.9525 0.406071 0.715132 -0.11473
C_ C_ 0.67938 0.150431 0.750829 -0.02249
C_ C_ 0.931984 0.152538 0.750991 -0.02249
C_ C_ 0.73189 0.0380509 0.750535 -0.02249
C_ C_ 0.985232 0.0409356 0.749054 -0.02249
C_ C_ 0.698854 0.0878972 0.786173 -0.11473
C_ C_ 0.944714 0.0834847 0.783262 -0.11473
C_ C_ 0.692797 0.135606 0.713101 -0.11473
C_ C_ 0.949804 0.144457 0.717082 -0.11473
C_ C_ 0.683309 0.126477 0.787906 -0.11473
C_ C_ 0.926634 0.11972 0.779877 -0.11473
C_ C_ 0.714852 0.0768738 0.750343 -0.02249
C_ C_ 0.966514 0.0791087 0.752236 -0.02249
C_ C_ 0.661064 0.189766 0.751907 0.6875
C_ C_ 0.913541 0.189508 0.754256 0.6875
C_ C_ 0.711499 0.100455 0.713083 -0.11473
C_ C_ 0.966214 0.1072 0.7181 -0.11473
C_ C_ 0.561656 0.15617 0.741316 -0.02249
C_ C_ 0.818658 0.147766 0.74989 -0.02249
C_ C_ 0.515737 0.0365033 0.7272 -0.02249
C_ C_ 0.763395 0.0384575 0.75511 -0.02249
C_ C_ 0.542552 0.100612 0.698231 -0.11473
C_ C_ 0.794137 0.0896788 0.714964 -0.11473
C_ C_ 0.550698 0.135473 0.77748 -0.11473
C_ C_ 0.806496 0.135979 0.78738 -0.11473
C_ C_ 0.556231 0.138957 0.702147 -0.11473
C_ C_ 0.813709 0.124019 0.713682 -0.11473
C_ C_ 0.532126 0.079148 0.73283 -0.02249
C_ C_ 0.781208 0.0775989 0.753279 -0.02249
C_ C_ 0.583829 0.194132 0.743804 0.6875
C_ C_ 0.838197 0.186306 0.747762 0.6875
C_ C_ 0.535955 0.0978491 0.77341 -0.11473
C_ C_ 0.786277 0.102593 0.78779 -0.11473
C_ C_ 0.625698 0.279357 0.875177 0.17695
C_ C_ 0.907324 0.236294 0.878806 0.17695
C_ C_ 0.624709 0.207131 0.871718 0.17695
C_ C_ 0.859649 0.262891 0.883767 0.17695
C_ C_ 0.621121 0.20321 0.914941 -0.11473
C_ C_ 0.862082 0.260184 0.928495 -0.11473
C_ C_ 0.623434 0.239061 0.940235 0.23465
C_ C_ 0.888516 0.246608 0.948504 0.23465
C_ C_ 0.626416 0.277457 0.919352 -0.11473
C_ C_ 0.910923 0.233847 0.922973 -0.11473
C_ C_ 0.62425 0.220676 0.620941 0.17695
C_ C_ 0.874995 0.294131 0.631868 0.17695
C_ C_ 0.634997 0.290933 0.628263 0.17695
C_ C_ 0.876005 0.220309 0.626391 0.17695
C_ C_ 0.640784 0.29394 0.584171 -0.11473
C_ C_ 0.877076 0.222833 0.582108 -0.11473
C_ C_ 0.63445 0.26043 0.557934 0.23465
C_ C_ 0.877532 0.261912 0.561118 0.23465
C_ C_ 0.625932 0.224035 0.57657 -0.11473
C_ C_ 0.876744 0.297931 0.586298 -0.11473
C_ C_ 0.530657 0.504594 0.75227 0.05793
C_ C_ 0.784208 0.499452 0.755467 0.05793
C_ C_ 0.718264 -0.0013729999999999576 0.746902 0.05793
C_ C_ 0.969679 0.0037199999999999456 0.743978 0.05793
Br Br 0.574245 0.507224 0.75961 -0.17191
Br Br 0.829943 0.495304 0.755118 -0.17191
Br Br 0.677298 -0.00357799999999997 0.737187 -0.17191
Br Br 0.926285 -0.0012959999999999638 0.729999 -0.17191
N_ N_ 0.624278 0.244659 0.851946 -0.272
N_ N_ 0.881458 0.248697 0.860142 -0.272
N_ N_ 0.617797 0.235186 0.985263 -0.12501
N_ N_ 0.890801 0.242877 0.993959 -0.12501
N_ N_ 0.628776 0.253248 0.645696 -0.272
N_ N_ 0.874285 0.255213 0.650755 -0.272
N_ N_ 0.632003 0.265538 0.511542 -0.12501
N_ N_ 0.878214 0.265815 0.515945 -0.12501
O_ O_ 0.597351 0.300461 0.71585 -0.60745
O_ O_ 0.838961 0.288781 0.72145 -0.60745
O_ O_ 0.593292 0.293786 0.784152 -0.60745
O_ O_ 0.849099 0.295956 0.78599 -0.60745
O_ O_ 0.656807 0.294902 0.786966 -0.60745
O_ O_ 0.91178 0.289569 0.789344 -0.60745
O_ O_ 0.657839 0.295654 0.717151 -0.60745
O_ O_ 0.89919 0.297906 0.724091 -0.60745
O_ O_ 0.656616 0.208412 0.786162 -0.60745
O_ O_ 0.906475 0.199873 0.791009 -0.60745
O_ O_ 0.65352 0.206966 0.718039 -0.60745
O_ O_ 0.902691 0.206539 0.721048 -0.60745
O_ O_ 0.591278 0.213393 0.710601 -0.60745
O_ O_ 0.843315 0.201947 0.711983 -0.60745
O_ O_ 0.596197 0.202542 0.779287 -0.60745
O_ O_ 0.845526 0.206245 0.780536 -0.60745
Zn Zn 0.622066 0.746964 0.282206 0.9476
Zn Zn 0.873113 0.750976 0.283754 0.9476
Zn Zn 0.623929 0.748319 0.213269 0.9476
Zn Zn 0.874996 0.748792 0.213405 0.9476
H_ H_ 0.532966 0.918337 0.174602 0.10932
H_ H_ 0.7679 0.90398 0.177671 0.10932
H_ H_ 0.550664 0.841024 0.308245 0.10932
H_ H_ 0.829449 0.870261 0.303721 0.10932
H_ H_ 0.565018 0.852429 0.171237 0.10932
H_ H_ 0.795252 0.840297 0.176812 0.10932
H_ H_ 0.524725 0.906742 0.305863 0.10932
H_ H_ 0.798045 0.929753 0.303245 0.10932
H_ H_ 0.721714 0.910044 0.310645 0.10932
H_ H_ 0.96021 0.91098 0.330838 0.10932
H_ H_ 0.681823 0.845148 0.179908 0.10932
H_ H_ 0.925866 0.864635 0.191334 0.10932
H_ H_ 0.690533 0.848784 0.313259 0.10932
H_ H_ 0.931307 0.842991 0.322907 0.10932
H_ H_ 0.708918 0.911388 0.174846 0.10932
H_ H_ 0.963565 0.918431 0.197036 0.10932
H_ H_ 0.698003 0.566624 0.309175 0.10932
H_ H_ 0.966818 0.583792 0.32675 0.10932
H_ H_ 0.71021 0.664323 0.192729 0.10932
H_ H_ 0.938967 0.643791 0.18684 0.10932
H_ H_ 0.669214 0.630232 0.311382 0.10932
H_ H_ 0.94103 0.654267 0.321962 0.10932
H_ H_ 0.731625 0.597065 0.189911 0.10932
H_ H_ 0.96735 0.580672 0.19428 0.10932
H_ H_ 0.552542 0.560249 0.187418 0.10932
H_ H_ 0.80244 0.558653 0.198317 0.10932
H_ H_ 0.54664 0.66375 0.301395 0.10932
H_ H_ 0.804622 0.666046 0.309762 0.10932
H_ H_ 0.58051 0.629056 0.183642 0.10932
H_ H_ 0.826832 0.626124 0.185465 0.10932
H_ H_ 0.518838 0.597973 0.307496 0.10932
H_ H_ 0.773936 0.604075 0.316793 0.10932
H_ H_ 0.615308 0.6802 0.351748 0.10932
H_ H_ 0.865431 0.815538 0.352405 0.10932
H_ H_ 0.622091 0.809101 0.36127 0.10932
H_ H_ 0.879225 0.686656 0.360476 0.10932
H_ H_ 0.632151 0.805313 0.435807 0.10932
H_ H_ 0.876619 0.692624 0.442055 0.10932
H_ H_ 0.623724 0.672642 0.429798 0.10932
H_ H_ 0.870804 0.825663 0.425823 0.10932
H_ H_ 0.624914 0.683332 0.1346 0.10932
H_ H_ 0.873931 0.684889 0.139129 0.10932
H_ H_ 0.633734 0.813279 0.140919 0.10932
H_ H_ 0.880533 0.81369 0.135465 0.10932
H_ H_ 0.63816 0.818822 0.0615294 0.10932
H_ H_ 0.888068 0.815733 0.0590027 0.10932
H_ H_ 0.627019 0.687977 0.0551233 0.10932
H_ H_ 0.879655 0.681554 0.0636333 0.10932
C_ C_ 0.562723 0.844007 0.239458 -0.02249
C_ C_ 0.817263 0.848187 0.239831 -0.02249
C_ C_ 0.513622 0.959554 0.239579 -0.02249
C_ C_ 0.764014 0.960008 0.236645 -0.02249
C_ C_ 0.53968 0.902024 0.201685 -0.11473
C_ C_ 0.78338 0.897306 0.203829 -0.11473
C_ C_ 0.547823 0.858053 0.276307 -0.11473
C_ C_ 0.817152 0.875783 0.275143 -0.11473
C_ C_ 0.555953 0.865401 0.200349 -0.11473
C_ C_ 0.797458 0.858671 0.20538 -0.11473
C_ C_ 0.530061 0.918719 0.239392 -0.02249
C_ C_ 0.781188 0.922293 0.238976 -0.02249
C_ C_ 0.580688 0.805552 0.240931 0.6875
C_ C_ 0.836655 0.809735 0.242208 0.6875
C_ C_ 0.53124 0.894632 0.276304 -0.11473
C_ C_ 0.798366 0.910887 0.275165 -0.11473
C_ C_ 0.682272 0.84325 0.247381 -0.02249
C_ C_ 0.929832 0.847553 0.255515 -0.02249
C_ C_ 0.732593 0.958893 0.242016 -0.02249
C_ C_ 0.982547 0.961363 0.267182 -0.02249
C_ C_ 0.709665 0.901032 0.281903 -0.11473
C_ C_ 0.953216 0.899591 0.29969 -0.11473
C_ C_ 0.686295 0.863481 0.209138 -0.11473
C_ C_ 0.936926 0.870141 0.220676 -0.11473
C_ C_ 0.693986 0.863469 0.283454 -0.11473
C_ C_ 0.936427 0.862898 0.297022 -0.11473
C_ C_ 0.715714 0.917894 0.241454 -0.02249
C_ C_ 0.964171 0.92027 0.264522 -0.02249
C_ C_ 0.661378 0.808318 0.249115 0.6875
C_ C_ 0.911778 0.810161 0.252116 0.6875
C_ C_ 0.703362 0.899494 0.205698 -0.11473
C_ C_ 0.956178 0.905119 0.225085 -0.11473
C_ C_ 0.681917 0.649063 0.247484 -0.02249
C_ C_ 0.935764 0.653319 0.254955 -0.02249
C_ C_ 0.732614 0.538151 0.251782 -0.02249
C_ C_ 0.983308 0.534797 0.263021 -0.02249
C_ C_ 0.697132 0.586335 0.283442 -0.11473
C_ C_ 0.960834 0.598954 0.296569 -0.11473
C_ C_ 0.702358 0.641478 0.216241 -0.11473
C_ C_ 0.943891 0.631893 0.218167 -0.11473
C_ C_ 0.679498 0.622687 0.28236 -0.11473
C_ C_ 0.945897 0.638631 0.293894 -0.11473
C_ C_ 0.716423 0.577445 0.250545 -0.02249
C_ C_ 0.968017 0.576942 0.259959 -0.02249
C_ C_ 0.663799 0.687999 0.247399 0.6875
C_ C_ 0.914119 0.689998 0.252379 0.6875
C_ C_ 0.719317 0.603909 0.216223 -0.11473
C_ C_ 0.960761 0.594645 0.222751 -0.11473
C_ C_ 0.56378 0.649611 0.240948 -0.02249
C_ C_ 0.815294 0.654153 0.244214 -0.02249
C_ C_ 0.520436 0.532874 0.252308 -0.02249
C_ C_ 0.764442 0.538814 0.261092 -0.02249
C_ C_ 0.553417 0.580577 0.213669 -0.11473
C_ C_ 0.797382 0.585095 0.218116 -0.11473
C_ C_ 0.544977 0.642589 0.274999 -0.11473
C_ C_ 0.800349 0.645593 0.280882 -0.11473
C_ C_ 0.565163 0.619506 0.207922 -0.11473
C_ C_ 0.813246 0.622235 0.212897 -0.11473
C_ C_ 0.536938 0.572302 0.250334 -0.02249
C_ C_ 0.782437 0.57704 0.255687 -0.02249
C_ C_ 0.582164 0.688737 0.242637 0.6875
C_ C_ 0.835452 0.688702 0.241234 0.6875
C_ C_ 0.532884 0.603702 0.280641 -0.11473
C_ C_ 0.782683 0.609669 0.285717 -0.11473
C_ C_ 0.62178 0.705869 0.370551 0.17695
C_ C_ 0.869385 0.788902 0.37032 0.17695
C_ C_ 0.622916 0.779404 0.374788 0.17695
C_ C_ 0.874611 0.715802 0.377269 0.17695
C_ C_ 0.626655 0.776059 0.419559 -0.11473
C_ C_ 0.87494 0.719093 0.421212 -0.11473
C_ C_ 0.626188 0.737736 0.438236 0.23465
C_ C_ 0.873202 0.759992 0.439825 0.23465
C_ C_ 0.62348 0.702328 0.414584 -0.11473
C_ C_ 0.870146 0.793835 0.413077 -0.11473
C_ C_ 0.629255 0.713845 0.118904 0.17695
C_ C_ 0.875456 0.712707 0.12284 0.17695
C_ C_ 0.632919 0.786525 0.122094 0.17695
C_ C_ 0.881431 0.785902 0.11932 0.17695
C_ C_ 0.636991 0.790164 0.0776869 -0.11473
C_ C_ 0.883273 0.785801 0.0753146 -0.11473
C_ C_ 0.632485 0.754415 0.0539606 0.23465
C_ C_ 0.880557 0.74634 0.0548401 0.23465
C_ C_ 0.628345 0.716223 0.0744577 -0.11473
C_ C_ 0.877946 0.711162 0.0788495 -0.11473
C_ C_ 0.529425 0.997483 0.237982 0.05793
C_ C_ 0.779651 0.99878144 0.233606 0.05793
C_ C_ 0.719162 0.500113 0.242441 0.05793
C_ C_ 0.965799 0.49773 0.267661 0.05793
Br Br 0.573591 0.993327 0.236578 -0.17191
Br Br 0.823334 1.00000103967 0.233109 -0.17191
Br Br 0.681483 0.504186 0.216245 -0.17191
Br Br 0.922712 0.499532 0.260832 -0.17191
N_ N_ 0.621474 0.743603 0.352127 -0.272
N_ N_ 0.870853 0.750457 0.352967 -0.272
N_ N_ 0.624464 0.733809 0.482029 -0.12501
N_ N_ 0.874006 0.766705 0.485249 -0.12501
N_ N_ 0.627872 0.749812 0.140885 -0.272
N_ N_ 0.879151 0.749661 0.141219 -0.272
N_ N_ 0.639816 0.754376 0.00961906 -0.12501
N_ N_ 0.881325 0.742591 0.0104439 -0.12501
O_ O_ 0.592274 0.790674 0.206855 -0.60745
O_ O_ 0.843613 0.792172 0.209236 -0.60745
O_ O_ 0.59121 0.792182 0.277137 -0.60745
O_ O_ 0.843917 0.797094 0.278185 -0.60745
O_ O_ 0.654987 0.792662 0.284363 -0.60745
O_ O_ 0.905619 0.790366 0.286277 -0.60745
O_ O_ 0.653185 0.790757 0.215271 -0.60745
O_ O_ 0.905719 0.793592 0.217351 -0.60745
O_ O_ 0.655264 0.703752 0.28091 -0.60745
O_ O_ 0.903426 0.70617 0.286089 -0.60745
O_ O_ 0.653929 0.703881 0.213857 -0.60745
O_ O_ 0.909138 0.706536 0.217362 -0.60745
O_ O_ 0.59182 0.70237 0.208135 -0.60745
O_ O_ 0.843363 0.703476 0.205887 -0.60745
O_ O_ 0.591513 0.702573 0.2779 -0.60745
O_ O_ 0.841853 0.709878 0.275049 -0.60745
Zn Zn 0.62507 0.750154 0.779922 0.9476
Zn Zn 0.881077 0.753681 0.782788 0.9476
Zn Zn 0.625135 0.751395 0.711974 0.9476
Zn Zn 0.876491 0.752963 0.71433 0.9476
H_ H_ 0.524318 0.905745 0.673333 0.10932
H_ H_ 0.805885 0.941058 0.69382 0.10932
H_ H_ 0.56836 0.857505 0.809268 0.10932
H_ H_ 0.79959 0.839215 0.810272 0.10932
H_ H_ 0.55338 0.843095 0.676761 0.10932
H_ H_ 0.828943 0.867453 0.685237 0.10932
H_ H_ 0.540773 0.923619 0.806496 0.10932
H_ H_ 0.773429 0.903513 0.814519 0.10932
H_ H_ 0.710067 0.924128 0.815673 0.10932
H_ H_ 0.953707 0.928674 0.816354 0.10932
H_ H_ 0.70302 0.83783 0.68883 0.10932
H_ H_ 0.946796 0.850705 0.682058 0.10932
H_ H_ 0.677302 0.862601 0.816832 0.10932
H_ H_ 0.923961 0.868239 0.813417 0.10932
H_ H_ 0.731916 0.900703 0.688148 0.10932
H_ H_ 0.974135 0.916371 0.684675 0.10932
H_ H_ 0.705953 0.576233 0.817428 0.10932
H_ H_ 0.954245 0.580269 0.817536 0.10932
H_ H_ 0.691942 0.648661 0.684941 0.10932
H_ H_ 0.949074 0.659343 0.683451 0.10932
H_ H_ 0.67996 0.64403 0.818104 0.10932
H_ H_ 0.932506 0.646757 0.816352 0.10932
H_ H_ 0.720107 0.587416 0.685956 0.10932
H_ H_ 0.968893 0.585421 0.684494 0.10932
H_ H_ 0.54284 0.570633 0.686562 0.10932
H_ H_ 0.798654 0.570014 0.689747 0.10932
H_ H_ 0.549111 0.665199 0.808019 0.10932
H_ H_ 0.825758 0.645224 0.820578 0.10932
H_ H_ 0.574609 0.629706 0.682081 0.10932
H_ H_ 0.82854 0.637024 0.687509 0.10932
H_ H_ 0.516358 0.604282 0.809944 0.10932
H_ H_ 0.789084 0.583529 0.820567 0.10932
H_ H_ 0.611066 0.687695 0.857049 0.10932
H_ H_ 0.877491 0.696927 0.863413 0.10932
H_ H_ 0.643932 0.810803 0.851107 0.10932
H_ H_ 0.869291 0.823865 0.852776 0.10932
H_ H_ 0.642044 0.815937 0.929337 0.10932
H_ H_ 0.864122 0.826903 0.926804 0.10932
H_ H_ 0.61123 0.690136 0.933843 0.10932
H_ H_ 0.882701 0.700294 0.939906 0.10932
H_ H_ 0.610199 0.693381 0.631004 0.10932
H_ H_ 0.877378 0.816413 0.633093 0.10932
H_ H_ 0.64624 0.815712 0.639112 0.10932
H_ H_ 0.891144 0.687517 0.642166 0.10932
H_ H_ 0.644524 0.819486 0.560637 0.10932
H_ H_ 0.870935 0.676523 0.567012 0.10932
H_ H_ 0.615631 0.694074 0.556475 0.10932
H_ H_ 0.873479 0.809182 0.553364 0.10932
C_ C_ 0.563499 0.845996 0.742867 -0.02249
C_ C_ 0.81863 0.851523 0.749563 -0.02249
C_ C_ 0.515807 0.959843 0.737715 -0.02249
C_ C_ 0.765889 0.963413 0.752757 -0.02249
C_ C_ 0.534522 0.89583 0.703357 -0.11473
C_ C_ 0.803059 0.916892 0.717319 -0.11473
C_ C_ 0.558077 0.868819 0.780474 -0.11473
C_ C_ 0.801579 0.86114 0.783954 -0.11473
C_ C_ 0.552495 0.860868 0.705081 -0.11473
C_ C_ 0.816425 0.876069 0.71378 -0.11473
C_ C_ 0.532373 0.920606 0.740084 -0.02249
C_ C_ 0.784041 0.924513 0.750162 -0.02249
C_ C_ 0.584157 0.808556 0.743894 0.6875
C_ C_ 0.837238 0.813048 0.748106 0.6875
C_ C_ 0.544323 0.907484 0.778365 -0.11473
C_ C_ 0.786647 0.898381 0.786458 -0.11473
C_ C_ 0.686113 0.845628 0.751636 -0.02249
C_ C_ 0.936953 0.850024 0.747998 -0.02249
C_ C_ 0.735118 0.961639 0.746653 -0.02249
C_ C_ 0.985134 0.965869 0.748455 -0.02249
C_ C_ 0.707825 0.907354 0.788064 -0.11473
C_ C_ 0.953054 0.913527 0.787258 -0.11473
C_ C_ 0.699728 0.859087 0.714228 -0.11473
C_ C_ 0.949636 0.865769 0.710849 -0.11473
C_ C_ 0.687844 0.87256 0.787324 -0.11473
C_ C_ 0.936956 0.876247 0.785315 -0.11473
C_ C_ 0.719779 0.92033 0.750349 -0.02249
C_ C_ 0.968457 0.925761 0.74975 -0.02249
C_ C_ 0.665988 0.80811 0.749512 0.6875
C_ C_ 0.918237 0.811091 0.7475 0.6875
C_ C_ 0.717727 0.894525 0.714666 -0.11473
C_ C_ 0.963613 0.90501 0.711421 -0.11473
C_ C_ 0.684557 0.654332 0.752445 -0.02249
C_ C_ 0.938566 0.660125 0.749999 -0.02249
C_ C_ 0.737462 0.540321 0.754638 -0.02249
C_ C_ 0.982662 0.538977 0.750625 -0.02249
C_ C_ 0.70768 0.596573 0.790941 -0.11473
C_ C_ 0.952336 0.595838 0.787598 -0.11473
C_ C_ 0.695666 0.636407 0.715155 -0.11473
C_ C_ 0.949645 0.642145 0.71185 -0.11473
C_ C_ 0.690505 0.633929 0.790388 -0.11473
C_ C_ 0.939805 0.634787 0.786879 -0.11473
C_ C_ 0.720578 0.579931 0.753908 -0.02249
C_ C_ 0.965374 0.57953 0.751055 -0.02249
C_ C_ 0.661447 0.689018 0.750466 0.6875
C_ C_ 0.920452 0.698045 0.748574 0.6875
C_ C_ 0.714637 0.601556 0.716792 -0.11473
C_ C_ 0.962502 0.600834 0.713869 -0.11473
C_ C_ 0.56438 0.655165 0.744584 -0.02249
C_ C_ 0.822383 0.651266 0.753359 -0.02249
C_ C_ 0.513713 0.540558 0.754921 -0.02249
C_ C_ 0.769695 0.539061 0.755479 -0.02249
C_ C_ 0.542033 0.592083 0.712017 -0.11473
C_ C_ 0.798462 0.592906 0.71519 -0.11473
C_ C_ 0.547501 0.64648 0.779775 -0.11473
C_ C_ 0.81732 0.630164 0.791658 -0.11473
C_ C_ 0.56039 0.628868 0.709092 -0.11473
C_ C_ 0.815836 0.629007 0.715753 -0.11473
C_ C_ 0.529178 0.581234 0.749718 -0.02249
C_ C_ 0.78779 0.578257 0.753125 -0.02249
C_ C_ 0.585048 0.691322 0.744915 0.6875
C_ C_ 0.838182 0.694088 0.750818 0.6875
C_ C_ 0.531286 0.608758 0.783926 -0.11473
C_ C_ 0.796033 0.597356 0.790949 -0.11473
C_ C_ 0.616965 0.7165 0.872497 0.17695
C_ C_ 0.88301 0.726928 0.878037 0.17695
C_ C_ 0.638056 0.783531 0.870075 0.17695
C_ C_ 0.87866 0.79837 0.871339 0.17695
C_ C_ 0.636865 0.786495 0.914422 -0.11473
C_ C_ 0.871968 0.799676 0.913579 -0.11473
C_ C_ 0.626484 0.754199 0.938544 0.23465
C_ C_ 0.878917 0.76649 0.939982 0.23465
C_ C_ 0.615837 0.718441 0.917439 -0.11473
C_ C_ 0.884136 0.72881 0.922171 -0.11473
C_ C_ 0.621363 0.720382 0.616715 0.17695
C_ C_ 0.87468 0.785145 0.617603 0.17695
C_ C_ 0.636423 0.79077 0.621343 0.17695
C_ C_ 0.879828 0.712532 0.624597 0.17695
C_ C_ 0.636963 0.792561 0.576739 -0.11473
C_ C_ 0.874104 0.707259 0.580479 -0.11473
C_ C_ 0.629747 0.75867 0.552305 0.23465
C_ C_ 0.875038 0.742321 0.55477 0.23465
C_ C_ 0.619846 0.721651 0.573453 -0.11473
C_ C_ 0.874604 0.781425 0.573757 -0.11473
C_ C_ 0.531958 -0.0024969999999999715 0.732564 0.05793
C_ C_ 0.78078 0.0009600000000000719 0.757519 0.05793
C_ C_ 0.720869 0.502662 0.75705 0.05793
C_ C_ 0.96688 0.501711 0.743937 0.05793
Br Br 0.574102 0.0015400000000000968 0.727543 -0.17191
Br Br 0.819375 1.00205585 0.785053 -0.17191
Br Br 0.679748 0.503248 0.761959 -0.17191
Br Br 0.923732 0.497489 0.736241 -0.17191
N_ N_ 0.626297 0.749585 0.849562 -0.272
N_ N_ 0.883746 0.760609 0.851838 -0.272
N_ N_ 0.621062 0.761371 0.981232 -0.12501
N_ N_ 0.872958 0.77062 0.985806 -0.12501
N_ N_ 0.630442 0.753984 0.640011 -0.272
N_ N_ 0.877617 0.751142 0.642625 -0.272
N_ N_ 0.635051 0.760171 0.506274 -0.12501
N_ N_ 0.874808 0.7365 0.510511 -0.12501
O_ O_ 0.593359 0.79375 0.709518 -0.60745
O_ O_ 0.847678 0.799641 0.713518 -0.60745
O_ O_ 0.595693 0.797325 0.778283 -0.60745
O_ O_ 0.847468 0.797039 0.781908 -0.60745
O_ O_ 0.658954 0.790509 0.781371 -0.60745
O_ O_ 0.908357 0.800495 0.782453 -0.60745
O_ O_ 0.655696 0.795186 0.714328 -0.60745
O_ O_ 0.908742 0.794106 0.713003 -0.60745
O_ O_ 0.65116 0.704368 0.784461 -0.60745
O_ O_ 0.914122 0.71471 0.783392 -0.60745
O_ O_ 0.656002 0.708433 0.71593 -0.60745
O_ O_ 0.906723 0.705674 0.713894 -0.60745
O_ O_ 0.595261 0.706695 0.7118 -0.60745
O_ O_ 0.842635 0.712062 0.71681 -0.60745
O_ O_ 0.592083 0.709547 0.779671 -0.60745
O_ O_ 0.852062 0.708127 0.783996 -0.60745
_cell_length_a 44.444
_cell_length_b 32.3360000049186
_cell_length_c 31.843999878906452
_cell_angle_alpha 89.99799923859553
_cell_angle_beta 91.13600050494348
_cell_angle_gamma 89.9990006550086
_symmetry_space_group_name_H-M         'P 1'
_symmetry_Int_Tables_number            1
loop_
_symmetry_equiv_pos_as_xyz
   'x, y, z'
                         
loop_
_atom_site_label
_atom_site_type_symbol
_atom_site_fract_x 
_atom_site_fract_y
_atom_site_fract_z
_atom_site_charge
Zn Zn 0.127296 0.248595 0.291486 0.9476
Zn Zn 0.375553 0.246559 0.28186 0.9476
Zn Zn 0.125646 0.249438 0.221074 0.9476
Zn Zn 0.373395 0.250587 0.212354 0.9476
H_ H_ 0.0118276 0.393511 0.201599 0.10932
H_ H_ 0.301213 0.436655 0.198681 0.10932
H_ H_ 0.0778384 0.360098 0.322898 0.10932
H_ H_ 0.295809 0.328994 0.311608 0.10932
H_ H_ 0.0418251 0.332746 0.198361 0.10932
H_ H_ 0.327986 0.368623 0.191568 0.10932
H_ H_ 0.0489479 0.42695 0.323175 0.10932
H_ H_ 0.261107 0.393617 0.312769 0.10932
H_ H_ 0.191006 0.434034 0.306888 0.10932
H_ H_ 0.455974 0.428744 0.319765 0.10932
H_ H_ 0.202845 0.332224 0.190861 0.10932
H_ H_ 0.437528 0.349618 0.184564 0.10932
H_ H_ 0.165109 0.36582 0.310446 0.10932
H_ H_ 0.429188 0.360527 0.318994 0.10932
H_ H_ 0.226886 0.4041 0.186779 0.10932
H_ H_ 0.473916 0.409364 0.187742 0.10932
H_ H_ 0.215561 0.0725824 0.316168 0.10932
H_ H_ 0.483984 0.0905387 0.309315 0.10932
H_ H_ 0.192923 0.154261 0.18827 0.10932
H_ H_ 0.421433 0.134406 0.187091 0.10932
H_ H_ 0.180724 0.133809 0.320341 0.10932
H_ H_ 0.447429 0.15 0.31624 0.10932
H_ H_ 0.223439 0.0940928 0.181229 0.10932
H_ H_ 0.449454 0.0723727 0.183989 0.10932
H_ H_ 0.0288064 0.0861349 0.191181 0.10932
H_ H_ 0.2889 0.0759499 0.177611 0.10932
H_ H_ 0.0704477 0.136257 0.327353 0.10932
H_ H_ 0.302439 0.155188 0.30965 0.10932
H_ H_ 0.0669295 0.146451 0.194554 0.10932
H_ H_ 0.319252 0.140684 0.177531 0.10932
H_ H_ 0.0326903 0.077879 0.325665 0.10932
H_ H_ 0.276481 0.0896795 0.312649 0.10932
H_ H_ 0.118061 0.309954 0.372124 0.10932
H_ H_ 0.366944 0.311163 0.36501 0.10932
H_ H_ 0.13939 0.182446 0.364617 0.10932
H_ H_ 0.371285 0.182688 0.349476 0.10932
H_ H_ 0.14868 0.180306 0.443224 0.10932
H_ H_ 0.380505 0.171011 0.42724 0.10932
H_ H_ 0.123847 0.310174 0.449603 0.10932
H_ H_ 0.36103 0.300774 0.440575 0.10932
H_ H_ 0.146372 0.304697 0.148816 0.10932
H_ H_ 0.346098 0.311544 0.141125 0.10932
H_ H_ 0.110203 0.184733 0.153058 0.10932
H_ H_ 0.404713 0.21082 0.134826 0.10932
H_ H_ 0.105734 0.185054 0.0712246 0.10932
H_ H_ 0.402399 0.213051 0.0546062 0.10932
H_ H_ 0.155505 0.299494 0.0726435 0.10932
H_ H_ 0.335039 0.309791 0.0668208 0.10932
C_ C_ 0.0647439 0.343331 0.260661 -0.02249
C_ C_ 0.311958 0.344514 0.249857 -0.02249
C_ C_ 0.0124312 0.456829 0.261136 -0.02249
C_ C_ 0.260664 0.460435 0.258058 -0.02249
C_ C_ 0.0281455 0.389593 0.227141 -0.11473
C_ C_ 0.29637 0.411779 0.219645 -0.11473
C_ C_ 0.0639469 0.367881 0.296462 -0.11473
C_ C_ 0.295231 0.352709 0.286926 -0.11473
C_ C_ 0.0442251 0.352344 0.226854 -0.11473
C_ C_ 0.311821 0.374012 0.217459 -0.11473
C_ C_ 0.0305045 0.417084 0.260332 -0.02249
C_ C_ 0.278402 0.420048 0.254778 -0.02249
C_ C_ 0.0866739 0.30741 0.260686 0.6875
C_ C_ 0.332358 0.306033 0.249532 0.6875
C_ C_ 0.0475898 0.405266 0.296475 -0.11473
C_ C_ 0.277625 0.389453 0.287904 -0.11473
C_ C_ 0.183417 0.347067 0.251246 -0.02249
C_ C_ 0.43098 0.350799 0.252642 -0.02249
C_ C_ 0.228744 0.461675 0.249552 -0.02249
C_ C_ 0.486232 0.460432 0.254818 -0.02249
C_ C_ 0.193209 0.412101 0.28075 -0.11473
C_ C_ 0.453998 0.408643 0.291241 -0.11473
C_ C_ 0.201016 0.355822 0.216459 -0.11473
C_ C_ 0.443282 0.36558 0.215413 -0.11473
C_ C_ 0.180144 0.373807 0.284969 -0.11473
C_ C_ 0.437514 0.371643 0.290575 -0.11473
C_ C_ 0.211407 0.4216 0.247237 -0.02249
C_ C_ 0.467551 0.421695 0.253068 -0.02249
C_ C_ 0.167652 0.307417 0.252709 0.6875
C_ C_ 0.409445 0.314887 0.251413 0.6875
C_ C_ 0.215437 0.394661 0.214934 -0.11473
C_ C_ 0.463046 0.399642 0.215741 -0.11473
C_ C_ 0.183785 0.150014 0.254421 -0.02249
C_ C_ 0.433266 0.149389 0.249088 -0.02249
C_ C_ 0.235292 0.0348377 0.24418 -0.02249
C_ C_ 0.484252 0.036948 0.243211 -0.02249
C_ C_ 0.207102 0.0888468 0.287294 -0.11473
C_ C_ 0.466637 0.0982776 0.284098 -0.11473
C_ C_ 0.197311 0.138407 0.216613 -0.11473
C_ C_ 0.433809 0.124021 0.214938 -0.11473
C_ C_ 0.190224 0.12454 0.290373 -0.11473
C_ C_ 0.448608 0.134171 0.286355 -0.11473
C_ C_ 0.217381 0.0754718 0.247901 -0.02249
C_ C_ 0.467004 0.075102 0.245867 -0.02249
C_ C_ 0.162387 0.187551 0.255403 0.6875
C_ C_ 0.415114 0.189672 0.252156 0.6875
C_ C_ 0.214419 0.102314 0.212562 -0.11473
C_ C_ 0.451748 0.0902486 0.210865 -0.11473
C_ C_ 0.0695682 0.149145 0.261472 -0.02249
C_ C_ 0.316172 0.150301 0.244259 -0.02249
C_ C_ 0.0132068 0.0380459 0.256348 -0.02249
C_ C_ 0.267548 0.0368658 0.246631 -0.02249
C_ C_ 0.0393119 0.0983841 0.220614 -0.11473
C_ C_ 0.29248 0.0939523 0.207032 -0.11473
C_ C_ 0.061322 0.127665 0.297986 -0.11473
C_ C_ 0.301952 0.138483 0.281657 -0.11473
C_ C_ 0.0592097 0.131384 0.222905 -0.11473
C_ C_ 0.310539 0.129488 0.206251 -0.11473
C_ C_ 0.0298725 0.0793427 0.257937 -0.02249
C_ C_ 0.282949 0.0770385 0.24573 -0.02249
C_ C_ 0.0851391 0.19015 0.262963 0.6875
C_ C_ 0.333045 0.191391 0.244432 0.6875
C_ C_ 0.0397366 0.093642 0.296746 -0.11473
C_ C_ 0.285826 0.10165 0.283246 -0.11473
C_ C_ 0.128225 0.283419 0.387383 0.17695
C_ C_ 0.36791 0.279606 0.377432 0.17695
C_ C_ 0.137514 0.211045 0.383281 0.17695
C_ C_ 0.373145 0.208146 0.370105 0.17695
C_ C_ 0.143643 0.209838 0.42712 -0.11473
C_ C_ 0.378021 0.201846 0.414673 -0.11473
C_ C_ 0.13594 0.243136 0.452721 0.23465
C_ C_ 0.373777 0.236073 0.440432 0.23465
C_ C_ 0.126987 0.281146 0.432087 -0.11473
C_ C_ 0.370821 0.27555 0.422687 -0.11473
C_ C_ 0.136905 0.279132 0.130602 0.17695
C_ C_ 0.357761 0.288899 0.124096 0.17695
C_ C_ 0.115694 0.212394 0.133893 0.17695
C_ C_ 0.390903 0.232316 0.118248 0.17695
C_ C_ 0.117771 0.208652 0.0901196 -0.11473
C_ C_ 0.38839 0.232727 0.0742922 -0.11473
C_ C_ 0.131364 0.240904 0.0668068 0.23465
C_ C_ 0.371685 0.265317 0.0541923 0.23465
C_ C_ 0.140082 0.2772 0.0874036 -0.11473
C_ C_ 0.351847 0.288506 0.0793315 -0.11473
C_ C_ 0.0289651 0.493354 0.256 0.05793
C_ C_ 0.277807 0.496928 0.259471 0.05793
C_ C_ 0.22085 -0.005040999999999962 0.245 0.05793
C_ C_ 0.467246 0.999574 0.244256 0.05793
Br Br 0.0722661 0.49425 0.245071 -0.17191
Br Br 0.316875 0.49718 0.28891 -0.17191
Br Br 0.177438 -0.009757000000000016 0.242374 -0.17191
Br Br 0.424171 0.99858739 0.241532 -0.17191
N_ N_ 0.130275 0.248608 0.364486 -0.272
N_ N_ 0.372364 0.246375 0.352754 -0.272
N_ N_ 0.134285 0.23611 0.496782 -0.12501
N_ N_ 0.367914 0.232057 0.484962 -0.12501
N_ N_ 0.122454 0.248331 0.152697 -0.272
N_ N_ 0.373824 0.257603 0.142284 -0.272
N_ N_ 0.136876 0.236325 0.0227928 -0.12501
N_ N_ 0.36771 0.265171 0.0096248 -0.12501
O_ O_ 0.0974749 0.296822 0.225402 -0.60745
O_ O_ 0.337085 0.28697 0.215094 -0.60745
O_ O_ 0.0974697 0.292473 0.29413 -0.60745
O_ O_ 0.346062 0.292995 0.282784 -0.60745
O_ O_ 0.160714 0.291192 0.288515 -0.60745
O_ O_ 0.411637 0.287824 0.27986 -0.60745
O_ O_ 0.159092 0.289891 0.220262 -0.60745
O_ O_ 0.398096 0.304145 0.216238 -0.60745
O_ O_ 0.158319 0.206402 0.290762 -0.60745
O_ O_ 0.400908 0.19728 0.285317 -0.60745
O_ O_ 0.156761 0.205319 0.221057 -0.60745
O_ O_ 0.409746 0.212456 0.218051 -0.60745
O_ O_ 0.090083 0.207715 0.229046 -0.60745
O_ O_ 0.349154 0.199043 0.212617 -0.60745
O_ O_ 0.0962408 0.204309 0.297184 -0.60745
O_ O_ 0.339147 0.208338 0.278366 -0.60745
Zn Zn 0.126592 0.255068 0.79421 0.9476
Zn Zn 0.37494 0.250921 0.777511 0.9476
Zn Zn 0.124974 0.250962 0.723366 0.9476
Zn Zn 0.375647 0.252069 0.709191 0.9476
H_ H_ 0.0383778 0.424822 0.689673 0.10932
H_ H_ 0.279235 0.414011 0.676946 0.10932
H_ H_ 0.067547 0.362359 0.828276 0.10932
H_ H_ 0.322955 0.3648 0.811248 0.10932
H_ H_ 0.0630387 0.356528 0.691982 0.10932
H_ H_ 0.309294 0.351585 0.680127 0.10932
H_ H_ 0.0317005 0.416379 0.82534 0.10932
H_ H_ 0.298317 0.429183 0.808157 0.10932
H_ H_ 0.21047 0.428197 0.819577 0.10932
H_ H_ 0.456574 0.424987 0.80817 0.10932
H_ H_ 0.186937 0.342835 0.691775 0.10932
H_ H_ 0.447524 0.341055 0.681367 0.10932
H_ H_ 0.190058 0.360546 0.827054 0.10932
H_ H_ 0.422736 0.368429 0.808848 0.10932
H_ H_ 0.212114 0.413807 0.684034 0.10932
H_ H_ 0.476221 0.406776 0.677164 0.10932
H_ H_ 0.222545 0.0856673 0.819912 0.10932
H_ H_ 0.457637 0.0687978 0.80296 0.10932
H_ H_ 0.188391 0.157743 0.690558 0.10932
H_ H_ 0.439868 0.156467 0.678013 0.10932
H_ H_ 0.204265 0.161525 0.818784 0.10932
H_ H_ 0.42911 0.132069 0.811226 0.10932
H_ H_ 0.210771 0.087398 0.684208 0.10932
H_ H_ 0.468673 0.0920878 0.672106 0.10932
H_ H_ 0.0421801 0.0856726 0.680298 0.10932
H_ H_ 0.27769 0.090279 0.673456 0.10932
H_ H_ 0.0582559 0.155347 0.820935 0.10932
H_ H_ 0.334724 0.129985 0.803554 0.10932
H_ H_ 0.0646709 0.155839 0.683583 0.10932
H_ H_ 0.301942 0.156787 0.67822 0.10932
H_ H_ 0.0316558 0.0859284 0.816022 0.10932
H_ H_ 0.298094 0.0696834 0.804504 0.10932
H_ H_ 0.124308 0.318926 0.867939 0.10932
H_ H_ 0.326729 0.247929 0.86356 0.10932
H_ H_ 0.133983 0.189344 0.869802 0.10932
H_ H_ 0.420796 0.245643 0.850617 0.10932
H_ H_ 0.129162 0.191938 0.94741 0.10932
H_ H_ 0.427049 0.249867 0.929338 0.10932
H_ H_ 0.11946 0.320599 0.943382 0.10932
H_ H_ 0.332673 0.250184 0.941629 0.10932
H_ H_ 0.137337 0.189242 0.648546 0.10932
H_ H_ 0.423357 0.249955 0.638878 0.10932
H_ H_ 0.112865 0.314933 0.657636 0.10932
H_ H_ 0.327283 0.259116 0.636016 0.10932
H_ H_ 0.104412 0.314849 0.578316 0.10932
H_ H_ 0.326546 0.266039 0.562106 0.10932
H_ H_ 0.14129 0.193432 0.569457 0.10932
H_ H_ 0.421106 0.239316 0.561668 0.10932
C_ C_ 0.0676275 0.353171 0.759118 -0.02249
C_ C_ 0.317615 0.351731 0.743334 -0.02249
C_ C_ 0.0136572 0.464893 0.752522 -0.02249
C_ C_ 0.265581 0.464185 0.744486 -0.02249
C_ C_ 0.0408436 0.407342 0.719047 -0.11473
C_ C_ 0.287495 0.403409 0.707577 -0.11473
C_ C_ 0.0592719 0.372536 0.796478 -0.11473
C_ C_ 0.31449 0.375337 0.780516 -0.11473
C_ C_ 0.0579339 0.370113 0.720098 -0.11473
C_ C_ 0.30722 0.368254 0.706452 -0.11473
C_ C_ 0.0300921 0.424521 0.756725 -0.02249
C_ C_ 0.28174 0.423666 0.744645 -0.02249
C_ C_ 0.0846918 0.313398 0.758448 0.6875
C_ C_ 0.335063 0.310921 0.743371 0.6875
C_ C_ 0.0398366 0.406211 0.795489 -0.11473
C_ C_ 0.298347 0.411321 0.779504 -0.11473
C_ C_ 0.183404 0.34883 0.759236 -0.02249
C_ C_ 0.436879 0.346829 0.745806 -0.02249
C_ C_ 0.233598 0.464424 0.746717 -0.02249
C_ C_ 0.484472 0.46244 0.74684 -0.02249
C_ C_ 0.208206 0.410414 0.791301 -0.11473
C_ C_ 0.456275 0.406216 0.781935 -0.11473
C_ C_ 0.194648 0.361143 0.72069 -0.11473
C_ C_ 0.451263 0.35949 0.708694 -0.11473
C_ C_ 0.192486 0.371558 0.795438 -0.11473
C_ C_ 0.438291 0.371728 0.781396 -0.11473
C_ C_ 0.218055 0.424226 0.751782 -0.02249
C_ C_ 0.470689 0.420512 0.746046 -0.02249
C_ C_ 0.164682 0.31028 0.76211 0.6875
C_ C_ 0.414439 0.312109 0.744024 0.6875
C_ C_ 0.207658 0.401508 0.716042 -0.11473
C_ C_ 0.468565 0.396373 0.708339 -0.11473
C_ C_ 0.188029 0.160405 0.757091 -0.02249
C_ C_ 0.434246 0.150748 0.74628 -0.02249
C_ C_ 0.232617 0.0389473 0.749893 -0.02249
C_ C_ 0.483625 0.0375938 0.733621 -0.02249
C_ C_ 0.214064 0.100938 0.791042 -0.11473
C_ C_ 0.455664 0.0886448 0.776597 -0.11473
C_ C_ 0.191576 0.13986 0.717667 -0.11473
C_ C_ 0.443389 0.13752 0.706307 -0.11473
C_ C_ 0.200555 0.142423 0.792343 -0.11473
C_ C_ 0.439178 0.12478 0.780373 -0.11473
C_ C_ 0.216008 0.0798168 0.751862 -0.02249
C_ C_ 0.468198 0.077319 0.73834 -0.02249
C_ C_ 0.16888 0.197597 0.759405 0.6875
C_ C_ 0.413824 0.18821 0.747395 0.6875
C_ C_ 0.20648 0.101804 0.715379 -0.11473
C_ C_ 0.462468 0.102758 0.70249 -0.11473
C_ C_ 0.0637195 0.158739 0.751279 -0.02249
C_ C_ 0.31746 0.15091 0.745692 -0.02249
C_ C_ 0.0180789 0.0417222 0.745585 -0.02249
C_ C_ 0.264708 0.0394623 0.741233 -0.02249
C_ C_ 0.0452616 0.101019 0.711701 -0.11473
C_ C_ 0.28406 0.102965 0.70672 -0.11473
C_ C_ 0.0542428 0.13899 0.789067 -0.11473
C_ C_ 0.318085 0.124989 0.780755 -0.11473
C_ C_ 0.057423 0.140109 0.712536 -0.11473
C_ C_ 0.301715 0.13918 0.708217 -0.11473
C_ C_ 0.0332678 0.0816977 0.746971 -0.02249
C_ C_ 0.281688 0.0789955 0.742432 -0.02249
C_ C_ 0.0865432 0.192986 0.755205 0.6875
C_ C_ 0.335882 0.189422 0.745227 0.6875
C_ C_ 0.037912 0.102542 0.786281 -0.11473
C_ C_ 0.299243 0.0892829 0.77936 -0.11473
C_ C_ 0.122274 0.2888 0.884462 0.17695
C_ C_ 0.348531 0.249803 0.878573 0.17695
C_ C_ 0.132631 0.218705 0.886871 0.17695
C_ C_ 0.401954 0.246749 0.870587 0.17695
C_ C_ 0.132388 0.220172 0.930489 -0.11473
C_ C_ 0.405911 0.247768 0.915873 -0.11473
C_ C_ 0.129378 0.257669 0.952964 0.23465
C_ C_ 0.381674 0.252717 0.941041 0.23465
C_ C_ 0.12212 0.291838 0.927689 -0.11473
C_ C_ 0.352451 0.252229 0.922771 -0.11473
C_ C_ 0.135157 0.218309 0.631186 0.17695
C_ C_ 0.401819 0.250286 0.621091 0.17695
C_ C_ 0.120034 0.288196 0.635543 0.17695
C_ C_ 0.34865 0.252754 0.620009 0.17695
C_ C_ 0.117367 0.289475 0.591373 -0.11473
C_ C_ 0.348075 0.256322 0.577666 -0.11473
C_ C_ 0.126911 0.256928 0.566452 0.23465
C_ C_ 0.374687 0.2527 0.555656 0.23465
C_ C_ 0.134631 0.219054 0.587503 -0.11473
C_ C_ 0.40208 0.250429 0.577152 -0.11473
C_ C_ 0.0290705 0.501019 0.760993 0.05793
C_ C_ 0.281132 0.502048 0.744759 0.05793
C_ C_ 0.215937 0.00364989 0.748335 0.05793
C_ C_ 0.469283 1.00068 0.74148 0.05793
Br Br 0.0684094 0.50231 0.784791 -0.17191
Br Br 0.325668 0.502889 0.737256 -0.17191
Br Br 0.171373 0.00531602 0.753393 -0.17191
Br Br 0.425565 0.99708943 0.748522 -0.17191
N_ N_ 0.128037 0.252363 0.863347 -0.272
N_ N_ 0.373531 0.248653 0.853043 -0.272
N_ N_ 0.124322 0.25954 0.997241 -0.12501
N_ N_ 0.386837 0.252575 0.985094 -0.12501
N_ N_ 0.126922 0.252253 0.654297 -0.272
N_ N_ 0.374827 0.252527 0.641785 -0.272
N_ N_ 0.123067 0.261335 0.521785 -0.12501
N_ N_ 0.375307 0.260806 0.511366 -0.12501
O_ O_ 0.0943282 0.299408 0.724066 -0.60745
O_ O_ 0.348504 0.301467 0.711683 -0.60745
O_ O_ 0.0946581 0.298191 0.79304 -0.60745
O_ O_ 0.340723 0.292798 0.77878 -0.60745
O_ O_ 0.156287 0.299114 0.798051 -0.60745
O_ O_ 0.404892 0.298035 0.77705 -0.60745
O_ O_ 0.157004 0.291354 0.730206 -0.60745
O_ O_ 0.410627 0.290617 0.710132 -0.60745
O_ O_ 0.160157 0.210619 0.794262 -0.60745
O_ O_ 0.408911 0.207775 0.781238 -0.60745
O_ O_ 0.156149 0.209557 0.726365 -0.60745
O_ O_ 0.40309 0.202376 0.712671 -0.60745
O_ O_ 0.0936429 0.210821 0.720501 -0.60745
O_ O_ 0.342188 0.209496 0.712484 -0.60745
O_ O_ 0.0967945 0.206456 0.789842 -0.60745
O_ O_ 0.346608 0.202959 0.7802 -0.60745
Zn Zn 0.123202 0.749043 0.281633 0.9476
Zn Zn 0.375041 0.747183 0.288228 0.9476
Zn Zn 0.118374 0.748481 0.212914 0.9476
Zn Zn 0.376704 0.744774 0.216413 0.9476
H_ H_ 0.0349364 0.927003 0.189558 0.10932
H_ H_ 0.300872 0.922509 0.180649 0.10932
H_ H_ 0.0536222 0.842656 0.315685 0.10932
H_ H_ 0.301731 0.842673 0.31572 0.10932
H_ H_ 0.0627578 0.862933 0.185087 0.10932
H_ H_ 0.33344 0.86017 0.18935 0.10932
H_ H_ 0.023325 0.906736 0.323251 0.10932
H_ H_ 0.279229 0.910571 0.31267 0.10932
H_ H_ 0.215366 0.916122 0.316146 0.10932
H_ H_ 0.455038 0.924683 0.311913 0.10932
H_ H_ 0.190057 0.846456 0.182968 0.10932
H_ H_ 0.435954 0.848311 0.183973 0.10932
H_ H_ 0.186208 0.850252 0.319577 0.10932
H_ H_ 0.428328 0.861319 0.315095 0.10932
H_ H_ 0.224842 0.904665 0.183434 0.10932
H_ H_ 0.465089 0.911093 0.178628 0.10932
H_ H_ 0.221093 0.587416 0.308785 0.10932
H_ H_ 0.459031 0.573096 0.318398 0.10932
H_ H_ 0.175967 0.638296 0.17702 0.10932
H_ H_ 0.452243 0.652922 0.184947 0.10932
H_ H_ 0.189328 0.651239 0.311328 0.10932
H_ H_ 0.424965 0.632572 0.314746 0.10932
H_ H_ 0.205946 0.572548 0.178724 0.10932
H_ H_ 0.482051 0.590909 0.189997 0.10932
H_ H_ 0.0276796 0.577693 0.187532 0.10932
H_ H_ 0.284804 0.576604 0.183966 0.10932
H_ H_ 0.075855 0.637718 0.317039 0.10932
H_ H_ 0.317049 0.644092 0.316153 0.10932
H_ H_ 0.0507939 0.649111 0.186728 0.10932
H_ H_ 0.328945 0.621627 0.187993 0.10932
H_ H_ 0.0479913 0.57155 0.319311 0.10932
H_ H_ 0.289388 0.57923 0.322648 0.10932
H_ H_ 0.108552 0.812482 0.358885 0.10932
H_ H_ 0.385929 0.6791 0.357065 0.10932
H_ H_ 0.136517 0.688996 0.359822 0.10932
H_ H_ 0.367042 0.804337 0.360635 0.10932
H_ H_ 0.128782 0.686923 0.437717 0.10932
H_ H_ 0.369638 0.806823 0.438252 0.10932
H_ H_ 0.10775 0.816162 0.43525 0.10932
H_ H_ 0.3859 0.676119 0.435862 0.10932
H_ H_ 0.165901 0.764141 0.142303 0.10932
H_ H_ 0.417097 0.789148 0.148185 0.10932
H_ H_ 0.0727293 0.738541 0.134614 0.10932
H_ H_ 0.348366 0.701313 0.134937 0.10932
H_ H_ 0.0730714 0.737889 0.0567062 0.10932
H_ H_ 0.347071 0.706953 0.0582054 0.10932
H_ H_ 0.16772 0.768623 0.0662257 0.10932
H_ H_ 0.421872 0.795431 0.0692141 0.10932
C_ C_ 0.0615756 0.847624 0.251481 -0.02249
C_ C_ 0.317928 0.843698 0.251326 -0.02249
C_ C_ 0.0145251 0.963019 0.261707 -0.02249
C_ C_ 0.270224 0.960321 0.242113 -0.02249
C_ C_ 0.0406866 0.909574 0.21854 -0.11473
C_ C_ 0.301701 0.904287 0.209855 -0.11473
C_ C_ 0.0502497 0.860854 0.290616 -0.11473
C_ C_ 0.305161 0.862503 0.287389 -0.11473
C_ C_ 0.0560451 0.871181 0.216209 -0.11473
C_ C_ 0.318466 0.867205 0.214896 -0.11473
C_ C_ 0.0308903 0.923776 0.2584 -0.02249
C_ C_ 0.289701 0.922354 0.245253 -0.02249
C_ C_ 0.0811102 0.811343 0.248504 0.6875
C_ C_ 0.338066 0.806455 0.254637 0.6875
C_ C_ 0.0352551 0.897696 0.293841 -0.11473
C_ C_ 0.293086 0.90213 0.285136 -0.11473
C_ C_ 0.184433 0.844367 0.24856 -0.02249
C_ C_ 0.43464 0.844816 0.24977 -0.02249
C_ C_ 0.238023 0.957605 0.2477 -0.02249
C_ C_ 0.481696 0.960489 0.24272 -0.02249
C_ C_ 0.209498 0.8998 0.287965 -0.11473
C_ C_ 0.453238 0.907331 0.283916 -0.11473
C_ C_ 0.194422 0.861708 0.211452 -0.11473
C_ C_ 0.444545 0.861169 0.211525 -0.11473
C_ C_ 0.194503 0.862863 0.288408 -0.11473
C_ C_ 0.43597 0.870552 0.285344 -0.11473
C_ C_ 0.222189 0.915869 0.249852 -0.02249
C_ C_ 0.465191 0.920574 0.245055 -0.02249
C_ C_ 0.161485 0.808991 0.247815 0.6875
C_ C_ 0.415908 0.804905 0.252583 0.6875
C_ C_ 0.213869 0.895868 0.212926 -0.11473
C_ C_ 0.457966 0.899253 0.208359 -0.11473
C_ C_ 0.180994 0.651972 0.243403 -0.02249
C_ C_ 0.438026 0.650877 0.252424 -0.02249
C_ C_ 0.231621 0.536788 0.247943 -0.02249
C_ C_ 0.487762 0.533587 0.251427 -0.02249
C_ C_ 0.212826 0.600897 0.281559 -0.11473
C_ C_ 0.453943 0.585639 0.288684 -0.11473
C_ C_ 0.186831 0.629291 0.206355 -0.11473
C_ C_ 0.454801 0.637392 0.217085 -0.11473
C_ C_ 0.193324 0.636364 0.281558 -0.11473
C_ C_ 0.43992 0.624885 0.287986 -0.11473
C_ C_ 0.216755 0.577874 0.245212 -0.02249
C_ C_ 0.47075 0.5721 0.252118 -0.02249
C_ C_ 0.15754 0.68712 0.245219 0.6875
C_ C_ 0.420301 0.691572 0.250785 0.6875
C_ C_ 0.203635 0.591996 0.207173 -0.11473
C_ C_ 0.468769 0.597396 0.215005 -0.11473
C_ C_ 0.062219 0.651852 0.252731 -0.02249
C_ C_ 0.318989 0.645152 0.248892 -0.02249
C_ C_ 0.0152716 0.533269 0.261304 -0.02249
C_ C_ 0.263323 0.535791 0.252981 -0.02249
C_ C_ 0.0351562 0.593584 0.216994 -0.11473
C_ C_ 0.293539 0.587686 0.213606 -0.11473
C_ C_ 0.0604195 0.629751 0.290095 -0.11473
C_ C_ 0.310048 0.629625 0.28747 -0.11473
C_ C_ 0.0505515 0.632233 0.214993 -0.11473
C_ C_ 0.314076 0.620941 0.21273 -0.11473
C_ C_ 0.0321027 0.574012 0.2575 -0.02249
C_ C_ 0.281217 0.575366 0.253038 -0.02249
C_ C_ 0.0798487 0.69196 0.249531 0.6875
C_ C_ 0.339234 0.682187 0.247749 0.6875
C_ C_ 0.0453665 0.592529 0.292055 -0.11473
C_ C_ 0.293989 0.5924 0.290218 -0.11473
C_ C_ 0.113443 0.785439 0.37523 0.17695
C_ C_ 0.383658 0.706772 0.375947 0.17695
C_ C_ 0.129831 0.717578 0.375456 0.17695
C_ C_ 0.373551 0.777978 0.379787 0.17695
C_ C_ 0.127955 0.71553 0.420237 -0.11473
C_ C_ 0.377239 0.779199 0.422768 -0.11473
C_ C_ 0.123159 0.751864 0.441693 0.23465
C_ C_ 0.382848 0.741226 0.44408 0.23465
C_ C_ 0.111838 0.78584 0.418611 -0.11473
C_ C_ 0.384709 0.704804 0.419376 -0.11473
C_ C_ 0.144584 0.761967 0.123445 0.17695
C_ C_ 0.402514 0.772825 0.127693 0.17695
C_ C_ 0.0940192 0.741285 0.120046 0.17695
C_ C_ 0.36215 0.7253 0.121692 0.17695
C_ C_ 0.094363 0.742843 0.0760285 -0.11473
C_ C_ 0.363002 0.727432 0.077468 -0.11473
C_ C_ 0.120059 0.752009 0.0551167 0.23465
C_ C_ 0.384441 0.751979 0.0578342 0.23465
C_ C_ 0.145767 0.761848 0.0792177 -0.11473
C_ C_ 0.405002 0.773664 0.0835205 -0.11473
C_ C_ 0.0299986 1.00114236 0.257313 0.05793
C_ C_ 0.283995 0.999583 0.246156 0.05793
C_ C_ 0.215379 0.500281 0.241441 0.05793
C_ C_ 0.471051 0.497179 0.246732 0.05793
Br Br 0.0730592 0.00266382 0.257206 -0.17191
Br Br 0.327458 1.00220125 0.250903 -0.17191
Br Br 0.17182 0.500562 0.233773 -0.17191
Br Br 0.429702 0.498103 0.226064 -0.17191
N_ N_ 0.121211 0.750781 0.352877 -0.272
N_ N_ 0.37655 0.742949 0.357992 -0.272
N_ N_ 0.119518 0.753512 0.486892 -0.12501
N_ N_ 0.382624 0.736712 0.489141 -0.12501
N_ N_ 0.11882 0.750359 0.14289 -0.272
N_ N_ 0.380998 0.747777 0.146395 -0.272
N_ N_ 0.120965 0.743252 0.011333 -0.12501
N_ N_ 0.384903 0.762733 0.012698 -0.12501
O_ O_ 0.0829165 0.791028 0.215023 -0.60745
O_ O_ 0.34365 0.785473 0.220953 -0.60745
O_ O_ 0.0941327 0.797492 0.282171 -0.60745
O_ O_ 0.343237 0.790605 0.289493 -0.60745
O_ O_ 0.154387 0.792788 0.281747 -0.60745
O_ O_ 0.407443 0.790974 0.287527 -0.60745
O_ O_ 0.14857 0.795548 0.213154 -0.60745
O_ O_ 0.404823 0.789418 0.219399 -0.60745
O_ O_ 0.151082 0.700223 0.280738 -0.60745
O_ O_ 0.40619 0.701855 0.283028 -0.60745
O_ O_ 0.151373 0.708213 0.212588 -0.60745
O_ O_ 0.414107 0.706904 0.21486 -0.60745
O_ O_ 0.0902268 0.703676 0.214726 -0.60745
O_ O_ 0.350856 0.695054 0.214775 -0.60745
O_ O_ 0.0900278 0.706847 0.283924 -0.60745
O_ O_ 0.342998 0.703991 0.280698 -0.60745
Zn Zn 0.123981 0.752613 0.783154 0.9476
Zn Zn 0.373791 0.755149 0.786058 0.9476
Zn Zn 0.122569 0.751408 0.716198 0.9476
Zn Zn 0.374408 0.750638 0.715069 0.9476
H_ H_ 0.0378814 0.928539 0.678914 0.10932
H_ H_ 0.2752 0.907589 0.675146 0.10932
H_ H_ 0.0510964 0.844941 0.808353 0.10932
H_ H_ 0.316956 0.865221 0.815281 0.10932
H_ H_ 0.0735571 0.868554 0.678091 0.10932
H_ H_ 0.301718 0.845015 0.683039 0.10932
H_ H_ 0.0212299 0.908235 0.808782 0.10932
H_ H_ 0.293257 0.934155 0.806907 0.10932
H_ H_ 0.227554 0.903387 0.810117 0.10932
H_ H_ 0.465556 0.915351 0.812613 0.10932
H_ H_ 0.172023 0.863725 0.679721 0.10932
H_ H_ 0.434006 0.852559 0.676961 0.10932
H_ H_ 0.198571 0.840166 0.808013 0.10932
H_ H_ 0.445224 0.846032 0.813211 0.10932
H_ H_ 0.194874 0.934745 0.686658 0.10932
H_ H_ 0.45245 0.927906 0.678728 0.10932
H_ H_ 0.217255 0.576661 0.816844 0.10932
H_ H_ 0.447999 0.57254 0.817665 0.10932
H_ H_ 0.179007 0.647304 0.688293 0.10932
H_ H_ 0.433323 0.641491 0.682208 0.10932
H_ H_ 0.188958 0.645411 0.824177 0.10932
H_ H_ 0.426524 0.646084 0.815258 0.10932
H_ H_ 0.214589 0.592239 0.684615 0.10932
H_ H_ 0.464459 0.584339 0.685209 0.10932
H_ H_ 0.0430445 0.572216 0.69241 0.10932
H_ H_ 0.288335 0.58785 0.679813 0.10932
H_ H_ 0.0523612 0.657582 0.819654 0.10932
H_ H_ 0.31811 0.642763 0.816094 0.10932
H_ H_ 0.0732544 0.639729 0.69021 0.10932
H_ H_ 0.305365 0.656626 0.681334 0.10932
H_ H_ 0.022691 0.597295 0.819983 0.10932
H_ H_ 0.286932 0.583033 0.814986 0.10932
H_ H_ 0.134222 0.822805 0.853046 0.10932
H_ H_ 0.383569 0.815341 0.865167 0.10932
H_ H_ 0.118721 0.695823 0.860408 0.10932
H_ H_ 0.370054 0.686476 0.852705 0.10932
H_ H_ 0.125781 0.698232 0.940182 0.10932
H_ H_ 0.374447 0.679296 0.929449 0.10932
H_ H_ 0.125807 0.828936 0.932629 0.10932
H_ H_ 0.387324 0.80922 0.943719 0.10932
H_ H_ 0.139135 0.683601 0.651779 0.10932
H_ H_ 0.389804 0.815896 0.64368 0.10932
H_ H_ 0.103914 0.802896 0.630623 0.10932
H_ H_ 0.343767 0.700793 0.632591 0.10932
H_ H_ 0.11363 0.798425 0.555864 0.10932
H_ H_ 0.349803 0.701899 0.557898 0.10932
H_ H_ 0.145392 0.675463 0.575551 0.10932
H_ H_ 0.393361 0.819328 0.567437 0.10932
C_ C_ 0.0638897 0.84896 0.741373 -0.02249
C_ C_ 0.315941 0.852444 0.748528 -0.02249
C_ C_ 0.0183826 0.965955 0.749217 -0.02249
C_ C_ 0.263186 0.964391 0.736969 -0.02249
C_ C_ 0.0435129 0.909977 0.706282 -0.11473
C_ C_ 0.283721 0.899453 0.706775 -0.11473
C_ C_ 0.0484588 0.860837 0.777787 -0.11473
C_ C_ 0.309399 0.875011 0.783965 -0.11473
C_ C_ 0.0607882 0.873541 0.705515 -0.11473
C_ C_ 0.301474 0.86431 0.71 -0.11473
C_ C_ 0.0328678 0.925469 0.745856 -0.02249
C_ C_ 0.280455 0.925807 0.739108 -0.02249
C_ C_ 0.0845496 0.812885 0.740976 0.6875
C_ C_ 0.336751 0.816161 0.751227 0.6875
C_ C_ 0.0327756 0.898234 0.77992 -0.11473
C_ C_ 0.293531 0.912406 0.778987 -0.11473
C_ C_ 0.178719 0.851486 0.746968 -0.02249
C_ C_ 0.433763 0.84767 0.746195 -0.02249
C_ C_ 0.230894 0.96515 0.743368 -0.02249
C_ C_ 0.484564 0.961721 0.74127 -0.02249
C_ C_ 0.217189 0.894732 0.780171 -0.11473
C_ C_ 0.459726 0.904113 0.783451 -0.11473
C_ C_ 0.178078 0.877132 0.711404 -0.11473
C_ C_ 0.438729 0.868323 0.707552 -0.11473
C_ C_ 0.196888 0.862109 0.780999 -0.11473
C_ C_ 0.447356 0.863132 0.78301 -0.11473
C_ C_ 0.212744 0.924919 0.747793 -0.02249
C_ C_ 0.466363 0.924529 0.745174 -0.02249
C_ C_ 0.161765 0.81093 0.747323 0.6875
C_ C_ 0.413602 0.810694 0.746319 0.6875
C_ C_ 0.19492 0.913779 0.713447 -0.11473
C_ C_ 0.452482 0.90817 0.708468 -0.11473
C_ C_ 0.184264 0.655202 0.756195 -0.02249
C_ C_ 0.426669 0.649649 0.747939 -0.02249
C_ C_ 0.233543 0.542431 0.745636 -0.02249
C_ C_ 0.481574 0.537966 0.75322 -0.02249
C_ C_ 0.21166 0.596165 0.789662 -0.11473
C_ C_ 0.447809 0.591374 0.788429 -0.11473
C_ C_ 0.189677 0.636401 0.717571 -0.11473
C_ C_ 0.438698 0.631862 0.711811 -0.11473
C_ C_ 0.194427 0.63383 0.792586 -0.11473
C_ C_ 0.432037 0.629789 0.786066 -0.11473
C_ C_ 0.2177 0.581897 0.750155 -0.02249
C_ C_ 0.460916 0.575393 0.751728 -0.02249
C_ C_ 0.159955 0.688147 0.756482 0.6875
C_ C_ 0.411867 0.690641 0.74525 0.6875
C_ C_ 0.207873 0.602501 0.714398 -0.11473
C_ C_ 0.456323 0.596011 0.712624 -0.11473
C_ C_ 0.0617904 0.65617 0.754874 -0.02249
C_ C_ 0.316902 0.655166 0.748556 -0.02249
C_ C_ 0.0135362 0.538622 0.756738 -0.02249
C_ C_ 0.265793 0.539804 0.742789 -0.02249
C_ C_ 0.0443052 0.592736 0.71952 -0.11473
C_ C_ 0.290823 0.600888 0.709687 -0.11473
C_ C_ 0.0483708 0.640919 0.79189 -0.11473
C_ C_ 0.311106 0.631749 0.785615 -0.11473
C_ C_ 0.0588285 0.630576 0.717338 -0.11473
C_ C_ 0.302949 0.64067 0.710174 -0.11473
C_ C_ 0.0305808 0.57933 0.756029 -0.02249
C_ C_ 0.282603 0.580055 0.745906 -0.02249
C_ C_ 0.082557 0.693677 0.75237 0.6875
C_ C_ 0.336365 0.692169 0.748342 0.6875
C_ C_ 0.0318638 0.605551 0.791425 -0.11473
C_ C_ 0.292017 0.596614 0.783037 -0.11473
C_ C_ 0.127246 0.795344 0.871138 0.17695
C_ C_ 0.382916 0.785878 0.880426 0.17695
C_ C_ 0.124139 0.724406 0.87845 0.17695
C_ C_ 0.375074 0.714327 0.872472 0.17695
C_ C_ 0.124428 0.726767 0.921602 -0.11473
C_ C_ 0.378317 0.708574 0.91537 -0.11473
C_ C_ 0.124338 0.766458 0.940555 0.23465
C_ C_ 0.381249 0.742389 0.942181 0.23465
C_ C_ 0.125674 0.800649 0.914984 -0.11473
C_ C_ 0.386649 0.781836 0.923819 -0.11473
C_ C_ 0.13254 0.708541 0.630444 0.17695
C_ C_ 0.383347 0.788542 0.624963 0.17695
C_ C_ 0.11647 0.77638 0.619592 0.17695
C_ C_ 0.357002 0.724134 0.618781 0.17695
C_ C_ 0.120824 0.773265 0.576476 -0.11473
C_ C_ 0.363351 0.722879 0.575169 -0.11473
C_ C_ 0.131783 0.736328 0.558694 0.23465
C_ C_ 0.372515 0.760356 0.556724 0.23465
C_ C_ 0.136566 0.702758 0.586653 -0.11473
C_ C_ 0.38535 0.791705 0.580841 -0.11473
C_ C_ 0.0337501 0.00386345 0.745904 0.05793
C_ C_ 0.278569 0.00161382 0.731109 0.05793
C_ C_ 0.218429 0.503559 0.744988 0.05793
C_ C_ 0.467258 0.499479 0.750827 0.05793
Br Br 0.077062 0.00495041 0.74026 -0.17191
Br Br 0.320089 0.000544134 0.721149 -0.17191
Br Br 0.17497 0.506804 0.752079 -0.17191
Br Br 0.423313 0.492032 0.744879 -0.17191
N_ N_ 0.126703 0.757589 0.853854 -0.272
N_ N_ 0.377499 0.75283 0.855836 -0.272
N_ N_ 0.12614 0.771566 0.985974 -0.12501
N_ N_ 0.37375 0.738883 0.985713 -0.12501
N_ N_ 0.123556 0.744391 0.645004 -0.272
N_ N_ 0.370955 0.754971 0.642642 -0.272
N_ N_ 0.13444 0.732599 0.513847 -0.12501
N_ N_ 0.373985 0.765329 0.51222 -0.12501
O_ O_ 0.0909516 0.791969 0.708483 -0.60745
O_ O_ 0.348846 0.802421 0.717888 -0.60745
O_ O_ 0.0926993 0.798506 0.776102 -0.60745
O_ O_ 0.339294 0.79605 0.784815 -0.60745
O_ O_ 0.157349 0.791936 0.78147 -0.60745
O_ O_ 0.403104 0.797866 0.780634 -0.60745
O_ O_ 0.152201 0.795239 0.711773 -0.60745
O_ O_ 0.40567 0.794817 0.710821 -0.60745
O_ O_ 0.147644 0.702033 0.788941 -0.60745
O_ O_ 0.406559 0.712167 0.777513 -0.60745
O_ O_ 0.155292 0.706591 0.722945 -0.60745
O_ O_ 0.401323 0.702905 0.710324 -0.60745
O_ O_ 0.0916033 0.706514 0.716466 -0.60745
O_ O_ 0.342165 0.711663 0.714669 -0.60745
O_ O_ 0.0909517 0.712443 0.785394 -0.60745
O_ O_ 0.345516 0.705835 0.784402 -0.60745
Zn Zn 0.623985 0.245781 0.286475 0.9476
Zn Zn 0.872438 0.248318 0.289819 0.9476
Zn Zn 0.626687 0.24912 0.216649 0.9476
Zn Zn 0.874968 0.249643 0.22157 0.9476
H_ H_ 0.543603 0.423339 0.186787 0.10932
H_ H_ 0.797501 0.434002 0.196243 0.10932
H_ H_ 0.542751 0.334318 0.315339 0.10932
H_ H_ 0.797483 0.33806 0.315536 0.10932
H_ H_ 0.571095 0.356334 0.187066 0.10932
H_ H_ 0.835243 0.377787 0.197923 0.10932
H_ H_ 0.524252 0.405095 0.32076 0.10932
H_ H_ 0.768686 0.402989 0.319616 0.10932
H_ H_ 0.704598 0.429347 0.313192 0.10932
H_ H_ 0.963256 0.409792 0.327097 0.10932
H_ H_ 0.686538 0.347491 0.182882 0.10932
H_ H_ 0.937519 0.349833 0.189169 0.10932
H_ H_ 0.67292 0.364508 0.315443 0.10932
H_ H_ 0.937047 0.344009 0.324601 0.10932
H_ H_ 0.721153 0.41087 0.184224 0.10932
H_ H_ 0.961032 0.423561 0.193537 0.10932
H_ H_ 0.728363 0.0853037 0.31505 0.10932
H_ H_ 0.979163 0.0945191 0.3189 0.10932
H_ H_ 0.669116 0.136594 0.191598 0.10932
H_ H_ 0.922836 0.133862 0.190497 0.10932
H_ H_ 0.71281 0.15752 0.310827 0.10932
H_ H_ 0.954587 0.16193 0.315479 0.10932
H_ H_ 0.696974 0.0711335 0.185237 0.10932
H_ H_ 0.955655 0.0695861 0.19178 0.10932
H_ H_ 0.520301 0.0986846 0.182701 0.10932
H_ H_ 0.764185 0.0968328 0.188059 0.10932
H_ H_ 0.581769 0.126444 0.312348 0.10932
H_ H_ 0.830184 0.126263 0.310772 0.10932
H_ H_ 0.552868 0.160028 0.186718 0.10932
H_ H_ 0.794783 0.160576 0.184922 0.10932
H_ H_ 0.554582 0.0605823 0.303046 0.10932
H_ H_ 0.798124 0.0656705 0.310167 0.10932
H_ H_ 0.636646 0.180415 0.35242 0.10932
H_ H_ 0.86404 0.185835 0.356974 0.10932
H_ H_ 0.616942 0.307642 0.363103 0.10932
H_ H_ 0.880964 0.313567 0.371231 0.10932
H_ H_ 0.615824 0.301923 0.439339 0.10932
H_ H_ 0.887204 0.309274 0.446993 0.10932
H_ H_ 0.640853 0.174465 0.432795 0.10932
H_ H_ 0.859001 0.178541 0.434611 0.10932
H_ H_ 0.620663 0.188732 0.136534 0.10932
H_ H_ 0.885512 0.316849 0.142831 0.10932
H_ H_ 0.631189 0.316131 0.144916 0.10932
H_ H_ 0.871037 0.185104 0.147347 0.10932
H_ H_ 0.634352 0.319403 0.0674541 0.10932
H_ H_ 0.869899 0.186006 0.0681218 0.10932
H_ H_ 0.622013 0.187578 0.0627195 0.10932
H_ H_ 0.886974 0.316618 0.0703075 0.10932
C_ C_ 0.564003 0.345089 0.25323 -0.02249
C_ C_ 0.817682 0.351222 0.2572 -0.02249
C_ C_ 0.517973 0.45878 0.254985 -0.02249
C_ C_ 0.764179 0.462728 0.262966 -0.02249
C_ C_ 0.54674 0.40546 0.21553 -0.11473
C_ C_ 0.800694 0.416127 0.225714 -0.11473
C_ C_ 0.545436 0.355143 0.288103 -0.11473
C_ C_ 0.798818 0.359541 0.290418 -0.11473
C_ C_ 0.563067 0.368849 0.216061 -0.11473
C_ C_ 0.819975 0.381273 0.224908 -0.11473
C_ C_ 0.533833 0.420106 0.253324 -0.02249
C_ C_ 0.781443 0.424071 0.259916 -0.02249
C_ C_ 0.584158 0.306847 0.253957 0.6875
C_ C_ 0.835509 0.312459 0.255494 0.6875
C_ C_ 0.531787 0.393932 0.289207 -0.11473
C_ C_ 0.780764 0.394263 0.292155 -0.11473
C_ C_ 0.681593 0.349792 0.250926 -0.02249
C_ C_ 0.932233 0.34567 0.25695 -0.02249
C_ C_ 0.734483 0.463237 0.25088 -0.02249
C_ C_ 0.980492 0.459123 0.266368 -0.02249
C_ C_ 0.702177 0.410215 0.285236 -0.11473
C_ C_ 0.95665 0.398419 0.298682 -0.11473
C_ C_ 0.693088 0.364125 0.212659 -0.11473
C_ C_ 0.941483 0.364908 0.220452 -0.11473
C_ C_ 0.683241 0.37439 0.287 -0.11473
C_ C_ 0.944282 0.359427 0.2954 -0.11473
C_ C_ 0.716335 0.421799 0.247926 -0.02249
C_ C_ 0.964764 0.420502 0.262324 -0.02249
C_ C_ 0.663639 0.309682 0.252291 0.6875
C_ C_ 0.916539 0.305589 0.255218 0.6875
C_ C_ 0.708347 0.402818 0.21146 -0.11473
C_ C_ 0.956585 0.403323 0.221718 -0.11473
C_ C_ 0.688261 0.153545 0.249623 -0.02249
C_ C_ 0.93568 0.152233 0.254062 -0.02249
C_ C_ 0.731861 0.0356254 0.242758 -0.02249
C_ C_ 0.981471 0.0369261 0.257098 -0.02249
C_ C_ 0.718212 0.0984897 0.284488 -0.11473
C_ C_ 0.964759 0.10159 0.293264 -0.11473
C_ C_ 0.681304 0.125777 0.216831 -0.11473
C_ C_ 0.934292 0.125464 0.218497 -0.11473
C_ C_ 0.706767 0.13974 0.285141 -0.11473
C_ C_ 0.95167 0.14044 0.290464 -0.11473
C_ C_ 0.714028 0.0743886 0.248656 -0.02249
C_ C_ 0.965042 0.076431 0.257344 -0.02249
C_ C_ 0.669426 0.193614 0.251227 0.6875
C_ C_ 0.915034 0.188275 0.253921 0.6875
C_ C_ 0.696358 0.0882791 0.214191 -0.11473
C_ C_ 0.950203 0.087864 0.220156 -0.11473
C_ C_ 0.56604 0.149878 0.251618 -0.02249
C_ C_ 0.8167 0.149467 0.249556 -0.02249
C_ C_ 0.51585 0.0365936 0.240769 -0.02249
C_ C_ 0.763534 0.0362226 0.241753 -0.02249
C_ C_ 0.531104 0.107043 0.212021 -0.11473
C_ C_ 0.778018 0.105041 0.214077 -0.11473
C_ C_ 0.56779 0.121597 0.284111 -0.11473
C_ C_ 0.815931 0.121113 0.283639 -0.11473
C_ C_ 0.550124 0.140915 0.215294 -0.11473
C_ C_ 0.795616 0.141165 0.213764 -0.11473
C_ C_ 0.533665 0.0759322 0.243874 -0.02249
C_ C_ 0.778551 0.0774196 0.248409 -0.02249
C_ C_ 0.586376 0.186078 0.253118 0.6875
C_ C_ 0.834807 0.188457 0.251452 0.6875
C_ C_ 0.552386 0.084366 0.279098 -0.11473
C_ C_ 0.797964 0.0865037 0.28287 -0.11473
C_ C_ 0.636134 0.206854 0.373621 0.17695
C_ C_ 0.871573 0.210525 0.378108 0.17695
C_ C_ 0.621669 0.277836 0.377274 0.17695
C_ C_ 0.878425 0.282747 0.385171 0.17695
C_ C_ 0.624613 0.276167 0.420501 -0.11473
C_ C_ 0.882006 0.280837 0.428579 -0.11473
C_ C_ 0.631762 0.238862 0.441675 0.23465
C_ C_ 0.876455 0.240977 0.446248 0.23465
C_ C_ 0.639929 0.203834 0.41702 -0.11473
C_ C_ 0.870252 0.20568 0.42101 -0.11473
C_ C_ 0.619012 0.217302 0.122645 0.17695
C_ C_ 0.881383 0.286665 0.128291 0.17695
C_ C_ 0.628784 0.289115 0.125811 0.17695
C_ C_ 0.872532 0.214805 0.1281 0.17695
C_ C_ 0.63029 0.290721 0.0816493 -0.11473
C_ C_ 0.86941 0.214649 0.0856379 -0.11473
C_ C_ 0.624782 0.255627 0.0570238 0.23465
C_ C_ 0.873702 0.252017 0.0632834 0.23465
C_ C_ 0.622076 0.217585 0.0787025 -0.11473
C_ C_ 0.878734 0.288295 0.0857914 -0.11473
C_ C_ 0.53525 0.494499 0.255148 0.05793
C_ C_ 0.779412 0.500376 0.26797 0.05793
C_ C_ 0.716598 0.99753115 0.245728 0.05793
C_ C_ 0.965876 0.99892518 0.262653 0.05793
Br Br 0.57827 0.494735 0.263457 -0.17191
Br Br 0.823341 0.501541 0.274654 -0.17191
Br Br 0.672623 -0.00373499 0.244642 -0.17191
Br Br 0.922774 0.0023500000000000743 0.268095 -0.17191
N_ N_ 0.630477 0.244264 0.35533 -0.272
N_ N_ 0.875752 0.248295 0.360873 -0.272
N_ N_ 0.630523 0.235652 0.486468 -0.12501
N_ N_ 0.872821 0.236497 0.491664 -0.12501
N_ N_ 0.62431 0.251834 0.145309 -0.272
N_ N_ 0.877277 0.25083 0.149258 -0.272
N_ N_ 0.632114 0.256201 0.0126217 -0.12501
N_ N_ 0.870212 0.252085 0.018839 -0.12501
O_ O_ 0.592422 0.291775 0.217941 -0.60745
O_ O_ 0.844307 0.297765 0.221746 -0.60745
O_ O_ 0.588972 0.287575 0.287916 -0.60745
O_ O_ 0.844436 0.293927 0.288444 -0.60745
O_ O_ 0.654253 0.294941 0.285923 -0.60745
O_ O_ 0.904833 0.291426 0.288357 -0.60745
O_ O_ 0.65799 0.291063 0.218563 -0.60745
O_ O_ 0.906632 0.293353 0.220122 -0.60745
O_ O_ 0.656162 0.202709 0.284678 -0.60745
O_ O_ 0.904149 0.203422 0.288459 -0.60745
O_ O_ 0.660512 0.207625 0.216131 -0.60745
O_ O_ 0.906045 0.203649 0.21887 -0.60745
O_ O_ 0.595066 0.203217 0.218652 -0.60745
O_ O_ 0.843879 0.204455 0.217556 -0.60745
O_ O_ 0.59652 0.199409 0.287652 -0.60745
O_ O_ 0.839876 0.205993 0.288091 -0.60745
Zn Zn 0.624742 0.25097 0.784848 0.9476
Zn Zn 0.877828 0.248876 0.787073 0.9476
Zn Zn 0.625235 0.252678 0.715988 0.9476
Zn Zn 0.870627 0.250289 0.717681 0.9476
H_ H_ 0.556483 0.437796 0.689552 0.10932
H_ H_ 0.779646 0.4147 0.691209 0.10932
H_ H_ 0.548953 0.343212 0.811034 0.10932
H_ H_ 0.817673 0.354816 0.82459 0.10932
H_ H_ 0.587905 0.373448 0.690966 0.10932
H_ H_ 0.809726 0.347936 0.690213 0.10932
H_ H_ 0.518993 0.408033 0.80835 0.10932
H_ H_ 0.789179 0.417449 0.8255 0.10932
H_ H_ 0.719142 0.416487 0.822862 0.10932
H_ H_ 0.975914 0.411265 0.817903 0.10932
H_ H_ 0.682286 0.357773 0.684468 0.10932
H_ H_ 0.929913 0.351669 0.690123 0.10932
H_ H_ 0.697556 0.346275 0.819536 0.10932
H_ H_ 0.938037 0.353684 0.822333 0.10932
H_ H_ 0.710736 0.425546 0.688907 0.10932
H_ H_ 0.95614 0.422325 0.685499 0.10932
H_ H_ 0.698842 0.0669183 0.814367 0.10932
H_ H_ 0.941766 0.061017 0.807763 0.10932
H_ H_ 0.689463 0.151179 0.68208 0.10932
H_ H_ 0.950988 0.165977 0.693508 0.10932
H_ H_ 0.674514 0.136898 0.816511 0.10932
H_ H_ 0.906831 0.120638 0.800352 0.10932
H_ H_ 0.723548 0.0944626 0.685626 0.10932
H_ H_ 0.977015 0.0979797 0.688828 0.10932
H_ H_ 0.536339 0.0895057 0.666834 0.10932
H_ H_ 0.794633 0.0679438 0.689157 0.10932
H_ H_ 0.559988 0.148191 0.807016 0.10932
H_ H_ 0.813544 0.153187 0.815835 0.10932
H_ H_ 0.556674 0.159596 0.675723 0.10932
H_ H_ 0.823471 0.132715 0.682698 0.10932
H_ H_ 0.530418 0.0815787 0.801936 0.10932
H_ H_ 0.777165 0.0923165 0.8174 0.10932
H_ H_ 0.626613 0.310716 0.860219 0.10932
H_ H_ 0.927714 0.231757 0.860327 0.10932
H_ H_ 0.619128 0.181526 0.852745 0.10932
H_ H_ 0.837675 0.273535 0.870336 0.10932
H_ H_ 0.610704 0.176555 0.928713 0.10932
H_ H_ 0.84305 0.268128 0.946399 0.10932
H_ H_ 0.627557 0.306434 0.936506 0.10932
H_ H_ 0.931615 0.220144 0.935727 0.10932
H_ H_ 0.613947 0.194528 0.637291 0.10932
H_ H_ 0.878213 0.320948 0.64913 0.10932
H_ H_ 0.63637 0.318919 0.646216 0.10932
H_ H_ 0.884028 0.191361 0.641503 0.10932
H_ H_ 0.644727 0.323653 0.572172 0.10932
H_ H_ 0.877759 0.193384 0.563406 0.10932
H_ H_ 0.620149 0.199325 0.556142 0.10932
H_ H_ 0.881946 0.328158 0.571814 0.10932
C_ C_ 0.569299 0.351739 0.750408 -0.02249
C_ C_ 0.816663 0.345603 0.755873 -0.02249
C_ C_ 0.516794 0.465688 0.750079 -0.02249
C_ C_ 0.766816 0.462311 0.757482 -0.02249
C_ C_ 0.557174 0.417429 0.717276 -0.11473
C_ C_ 0.786416 0.398862 0.720028 -0.11473
C_ C_ 0.551232 0.363542 0.784337 -0.11473
C_ C_ 0.812561 0.367385 0.793991 -0.11473
C_ C_ 0.573548 0.380073 0.717672 -0.11473
C_ C_ 0.805966 0.364435 0.717841 -0.11473
C_ C_ 0.536697 0.427268 0.749811 -0.02249
C_ C_ 0.782668 0.421598 0.75737 -0.02249
C_ C_ 0.586405 0.312604 0.750379 0.6875
C_ C_ 0.835388 0.308663 0.753941 0.6875
C_ C_ 0.536027 0.401427 0.785308 -0.11473
C_ C_ 0.793326 0.40259 0.796101 -0.11473
C_ C_ 0.683784 0.349054 0.75395 -0.02249
C_ C_ 0.932048 0.348071 0.755968 -0.02249
C_ C_ 0.735671 0.464896 0.758508 -0.02249
C_ C_ 0.982296 0.463969 0.748383 -0.02249
C_ C_ 0.712308 0.40178 0.793829 -0.11473
C_ C_ 0.963606 0.400189 0.790049 -0.11473
C_ C_ 0.686733 0.372793 0.717279 -0.11473
C_ C_ 0.937203 0.368069 0.717161 -0.11473
C_ C_ 0.695376 0.364594 0.792287 -0.11473
C_ C_ 0.9438 0.36653 0.793196 -0.11473
C_ C_ 0.715732 0.425599 0.757982 -0.02249
C_ C_ 0.966117 0.42186 0.750894 -0.02249
C_ C_ 0.665222 0.310967 0.752924 0.6875
C_ C_ 0.913573 0.310171 0.756233 0.6875
C_ C_ 0.704043 0.411421 0.717844 -0.11473
C_ C_ 0.9525 0.406071 0.715132 -0.11473
C_ C_ 0.67938 0.150431 0.750829 -0.02249
C_ C_ 0.931984 0.152538 0.750991 -0.02249
C_ C_ 0.73189 0.0380509 0.750535 -0.02249
C_ C_ 0.985232 0.0409356 0.749054 -0.02249
C_ C_ 0.698854 0.0878972 0.786173 -0.11473
C_ C_ 0.944714 0.0834847 0.783262 -0.11473
C_ C_ 0.692797 0.135606 0.713101 -0.11473
C_ C_ 0.949804 0.144457 0.717082 -0.11473
C_ C_ 0.683309 0.126477 0.787906 -0.11473
C_ C_ 0.926634 0.11972 0.779877 -0.11473
C_ C_ 0.714852 0.0768738 0.750343 -0.02249
C_ C_ 0.966514 0.0791087 0.752236 -0.02249
C_ C_ 0.661064 0.189766 0.751907 0.6875
C_ C_ 0.913541 0.189508 0.754256 0.6875
C_ C_ 0.711499 0.100455 0.713083 -0.11473
C_ C_ 0.966214 0.1072 0.7181 -0.11473
C_ C_ 0.561656 0.15617 0.741316 -0.02249
C_ C_ 0.818658 0.147766 0.74989 -0.02249
C_ C_ 0.515737 0.0365033 0.7272 -0.02249
C_ C_ 0.763395 0.0384575 0.75511 -0.02249
C_ C_ 0.542552 0.100612 0.698231 -0.11473
C_ C_ 0.794137 0.0896788 0.714964 -0.11473
C_ C_ 0.550698 0.135473 0.77748 -0.11473
C_ C_ 0.806496 0.135979 0.78738 -0.11473
C_ C_ 0.556231 0.138957 0.702147 -0.11473
C_ C_ 0.813709 0.124019 0.713682 -0.11473
C_ C_ 0.532126 0.079148 0.73283 -0.02249
C_ C_ 0.781208 0.0775989 0.753279 -0.02249
C_ C_ 0.583829 0.194132 0.743804 0.6875
C_ C_ 0.838197 0.186306 0.747762 0.6875
C_ C_ 0.535955 0.0978491 0.77341 -0.11473
C_ C_ 0.786277 0.102593 0.78779 -0.11473
C_ C_ 0.625698 0.279357 0.875177 0.17695
C_ C_ 0.907324 0.236294 0.878806 0.17695
C_ C_ 0.624709 0.207131 0.871718 0.17695
C_ C_ 0.859649 0.262891 0.883767 0.17695
C_ C_ 0.621121 0.20321 0.914941 -0.11473
C_ C_ 0.862082 0.260184 0.928495 -0.11473
C_ C_ 0.623434 0.239061 0.940235 0.23465
C_ C_ 0.888516 0.246608 0.948504 0.23465
C_ C_ 0.626416 0.277457 0.919352 -0.11473
C_ C_ 0.910923 0.233847 0.922973 -0.11473
C_ C_ 0.62425 0.220676 0.620941 0.17695
C_ C_ 0.874995 0.294131 0.631868 0.17695
C_ C_ 0.634997 0.290933 0.628263 0.17695
C_ C_ 0.876005 0.220309 0.626391 0.17695
C_ C_ 0.640784 0.29394 0.584171 -0.11473
C_ C_ 0.877076 0.222833 0.582108 -0.11473
C_ C_ 0.63445 0.26043 0.557934 0.23465
C_ C_ 0.877532 0.261912 0.561118 0.23465
C_ C_ 0.625932 0.224035 0.57657 -0.11473
C_ C_ 0.876744 0.297931 0.586298 -0.11473
C_ C_ 0.530657 0.504594 0.75227 0.05793
C_ C_ 0.784208 0.499452 0.755467 0.05793
C_ C_ 0.718264 -0.0013729999999999576 0.746902 0.05793
C_ C_ 0.969679 0.0037199999999999456 0.743978 0.05793
Br Br 0.574245 0.507224 0.75961 -0.17191
Br Br 0.829943 0.495304 0.755118 -0.17191
Br Br 0.677298 -0.00357799999999997 0.737187 -0.17191
Br Br 0.926285 -0.0012959999999999638 0.729999 -0.17191
N_ N_ 0.624278 0.244659 0.851946 -0.272
N_ N_ 0.881458 0.248697 0.860142 -0.272
N_ N_ 0.617797 0.235186 0.985263 -0.12501
N_ N_ 0.890801 0.242877 0.993959 -0.12501
N_ N_ 0.628776 0.253248 0.645696 -0.272
N_ N_ 0.874285 0.255213 0.650755 -0.272
N_ N_ 0.632003 0.265538 0.511542 -0.12501
N_ N_ 0.878214 0.265815 0.515945 -0.12501
O_ O_ 0.597351 0.300461 0.71585 -0.60745
O_ O_ 0.838961 0.288781 0.72145 -0.60745
O_ O_ 0.593292 0.293786 0.784152 -0.60745
O_ O_ 0.849099 0.295956 0.78599 -0.60745
O_ O_ 0.656807 0.294902 0.786966 -0.60745
O_ O_ 0.91178 0.289569 0.789344 -0.60745
O_ O_ 0.657839 0.295654 0.717151 -0.60745
O_ O_ 0.89919 0.297906 0.724091 -0.60745
O_ O_ 0.656616 0.208412 0.786162 -0.60745
O_ O_ 0.906475 0.199873 0.791009 -0.60745
O_ O_ 0.65352 0.206966 0.718039 -0.60745
O_ O_ 0.902691 0.206539 0.721048 -0.60745
O_ O_ 0.591278 0.213393 0.710601 -0.60745
O_ O_ 0.843315 0.201947 0.711983 -0.60745
O_ O_ 0.596197 0.202542 0.779287 -0.60745
O_ O_ 0.845526 0.206245 0.780536 -0.60745
Zn Zn 0.622066 0.746964 0.282206 0.9476
Zn Zn 0.873113 0.750976 0.283754 0.9476
Zn Zn 0.623929 0.748319 0.213269 0.9476
Zn Zn 0.874996 0.748792 0.213405 0.9476
H_ H_ 0.532966 0.918337 0.174602 0.10932
H_ H_ 0.7679 0.90398 0.177671 0.10932
H_ H_ 0.550664 0.841024 0.308245 0.10932
H_ H_ 0.829449 0.870261 0.303721 0.10932
H_ H_ 0.565018 0.852429 0.171237 0.10932
H_ H_ 0.795252 0.840297 0.176812 0.10932
H_ H_ 0.524725 0.906742 0.305863 0.10932
H_ H_ 0.798045 0.929753 0.303245 0.10932
H_ H_ 0.721714 0.910044 0.310645 0.10932
H_ H_ 0.96021 0.91098 0.330838 0.10932
H_ H_ 0.681823 0.845148 0.179908 0.10932
H_ H_ 0.925866 0.864635 0.191334 0.10932
H_ H_ 0.690533 0.848784 0.313259 0.10932
H_ H_ 0.931307 0.842991 0.322907 0.10932
H_ H_ 0.708918 0.911388 0.174846 0.10932
H_ H_ 0.963565 0.918431 0.197036 0.10932
H_ H_ 0.698003 0.566624 0.309175 0.10932
H_ H_ 0.966818 0.583792 0.32675 0.10932
H_ H_ 0.71021 0.664323 0.192729 0.10932
H_ H_ 0.938967 0.643791 0.18684 0.10932
H_ H_ 0.669214 0.630232 0.311382 0.10932
H_ H_ 0.94103 0.654267 0.321962 0.10932
H_ H_ 0.731625 0.597065 0.189911 0.10932
H_ H_ 0.96735 0.580672 0.19428 0.10932
H_ H_ 0.552542 0.560249 0.187418 0.10932
H_ H_ 0.80244 0.558653 0.198317 0.10932
H_ H_ 0.54664 0.66375 0.301395 0.10932
H_ H_ 0.804622 0.666046 0.309762 0.10932
H_ H_ 0.58051 0.629056 0.183642 0.10932
H_ H_ 0.826832 0.626124 0.185465 0.10932
H_ H_ 0.518838 0.597973 0.307496 0.10932
H_ H_ 0.773936 0.604075 0.316793 0.10932
H_ H_ 0.615308 0.6802 0.351748 0.10932
H_ H_ 0.865431 0.815538 0.352405 0.10932
H_ H_ 0.622091 0.809101 0.36127 0.10932
H_ H_ 0.879225 0.686656 0.360476 0.10932
H_ H_ 0.632151 0.805313 0.435807 0.10932
H_ H_ 0.876619 0.692624 0.442055 0.10932
H_ H_ 0.623724 0.672642 0.429798 0.10932
H_ H_ 0.870804 0.825663 0.425823 0.10932
H_ H_ 0.624914 0.683332 0.1346 0.10932
H_ H_ 0.873931 0.684889 0.139129 0.10932
H_ H_ 0.633734 0.813279 0.140919 0.10932
H_ H_ 0.880533 0.81369 0.135465 0.10932
H_ H_ 0.63816 0.818822 0.0615294 0.10932
H_ H_ 0.888068 0.815733 0.0590027 0.10932
H_ H_ 0.627019 0.687977 0.0551233 0.10932
H_ H_ 0.879655 0.681554 0.0636333 0.10932
C_ C_ 0.562723 0.844007 0.239458 -0.02249
C_ C_ 0.817263 0.848187 0.239831 -0.02249
C_ C_ 0.513622 0.959554 0.239579 -0.02249
C_ C_ 0.764014 0.960008 0.236645 -0.02249
C_ C_ 0.53968 0.902024 0.201685 -0.11473
C_ C_ 0.78338 0.897306 0.203829 -0.11473
C_ C_ 0.547823 0.858053 0.276307 -0.11473
C_ C_ 0.817152 0.875783 0.275143 -0.11473
C_ C_ 0.555953 0.865401 0.200349 -0.11473
C_ C_ 0.797458 0.858671 0.20538 -0.11473
C_ C_ 0.530061 0.918719 0.239392 -0.02249
C_ C_ 0.781188 0.922293 0.238976 -0.02249
C_ C_ 0.580688 0.805552 0.240931 0.6875
C_ C_ 0.836655 0.809735 0.242208 0.6875
C_ C_ 0.53124 0.894632 0.276304 -0.11473
C_ C_ 0.798366 0.910887 0.275165 -0.11473
C_ C_ 0.682272 0.84325 0.247381 -0.02249
C_ C_ 0.929832 0.847553 0.255515 -0.02249
C_ C_ 0.732593 0.958893 0.242016 -0.02249
C_ C_ 0.982547 0.961363 0.267182 -0.02249
C_ C_ 0.709665 0.901032 0.281903 -0.11473
C_ C_ 0.953216 0.899591 0.29969 -0.11473
C_ C_ 0.686295 0.863481 0.209138 -0.11473
C_ C_ 0.936926 0.870141 0.220676 -0.11473
C_ C_ 0.693986 0.863469 0.283454 -0.11473
C_ C_ 0.936427 0.862898 0.297022 -0.11473
C_ C_ 0.715714 0.917894 0.241454 -0.02249
C_ C_ 0.964171 0.92027 0.264522 -0.02249
C_ C_ 0.661378 0.808318 0.249115 0.6875
C_ C_ 0.911778 0.810161 0.252116 0.6875
C_ C_ 0.703362 0.899494 0.205698 -0.11473
C_ C_ 0.956178 0.905119 0.225085 -0.11473
C_ C_ 0.681917 0.649063 0.247484 -0.02249
C_ C_ 0.935764 0.653319 0.254955 -0.02249
C_ C_ 0.732614 0.538151 0.251782 -0.02249
C_ C_ 0.983308 0.534797 0.263021 -0.02249
C_ C_ 0.697132 0.586335 0.283442 -0.11473
C_ C_ 0.960834 0.598954 0.296569 -0.11473
C_ C_ 0.702358 0.641478 0.216241 -0.11473
C_ C_ 0.943891 0.631893 0.218167 -0.11473
C_ C_ 0.679498 0.622687 0.28236 -0.11473
C_ C_ 0.945897 0.638631 0.293894 -0.11473
C_ C_ 0.716423 0.577445 0.250545 -0.02249
C_ C_ 0.968017 0.576942 0.259959 -0.02249
C_ C_ 0.663799 0.687999 0.247399 0.6875
C_ C_ 0.914119 0.689998 0.252379 0.6875
C_ C_ 0.719317 0.603909 0.216223 -0.11473
C_ C_ 0.960761 0.594645 0.222751 -0.11473
C_ C_ 0.56378 0.649611 0.240948 -0.02249
C_ C_ 0.815294 0.654153 0.244214 -0.02249
C_ C_ 0.520436 0.532874 0.252308 -0.02249
C_ C_ 0.764442 0.538814 0.261092 -0.02249
C_ C_ 0.553417 0.580577 0.213669 -0.11473
C_ C_ 0.797382 0.585095 0.218116 -0.11473
C_ C_ 0.544977 0.642589 0.274999 -0.11473
C_ C_ 0.800349 0.645593 0.280882 -0.11473
C_ C_ 0.565163 0.619506 0.207922 -0.11473
C_ C_ 0.813246 0.622235 0.212897 -0.11473
C_ C_ 0.536938 0.572302 0.250334 -0.02249
C_ C_ 0.782437 0.57704 0.255687 -0.02249
C_ C_ 0.582164 0.688737 0.242637 0.6875
C_ C_ 0.835452 0.688702 0.241234 0.6875
C_ C_ 0.532884 0.603702 0.280641 -0.11473
C_ C_ 0.782683 0.609669 0.285717 -0.11473
C_ C_ 0.62178 0.705869 0.370551 0.17695
C_ C_ 0.869385 0.788902 0.37032 0.17695
C_ C_ 0.622916 0.779404 0.374788 0.17695
C_ C_ 0.874611 0.715802 0.377269 0.17695
C_ C_ 0.626655 0.776059 0.419559 -0.11473
C_ C_ 0.87494 0.719093 0.421212 -0.11473
C_ C_ 0.626188 0.737736 0.438236 0.23465
C_ C_ 0.873202 0.759992 0.439825 0.23465
C_ C_ 0.62348 0.702328 0.414584 -0.11473
C_ C_ 0.870146 0.793835 0.413077 -0.11473
C_ C_ 0.629255 0.713845 0.118904 0.17695
C_ C_ 0.875456 0.712707 0.12284 0.17695
C_ C_ 0.632919 0.786525 0.122094 0.17695
C_ C_ 0.881431 0.785902 0.11932 0.17695
C_ C_ 0.636991 0.790164 0.0776869 -0.11473
C_ C_ 0.883273 0.785801 0.0753146 -0.11473
C_ C_ 0.632485 0.754415 0.0539606 0.23465
C_ C_ 0.880557 0.74634 0.0548401 0.23465
C_ C_ 0.628345 0.716223 0.0744577 -0.11473
C_ C_ 0.877946 0.711162 0.0788495 -0.11473
C_ C_ 0.529425 0.997483 0.237982 0.05793
C_ C_ 0.779651 0.99878144 0.233606 0.05793
C_ C_ 0.719162 0.500113 0.242441 0.05793
C_ C_ 0.965799 0.49773 0.267661 0.05793
Br Br 0.573591 0.993327 0.236578 -0.17191
Br Br 0.823334 1.00000103967 0.233109 -0.17191
Br Br 0.681483 0.504186 0.216245 -0.17191
Br Br 0.922712 0.499532 0.260832 -0.17191
N_ N_ 0.621474 0.743603 0.352127 -0.272
N_ N_ 0.870853 0.750457 0.352967 -0.272
N_ N_ 0.624464 0.733809 0.482029 -0.12501
N_ N_ 0.874006 0.766705 0.485249 -0.12501
N_ N_ 0.627872 0.749812 0.140885 -0.272
N_ N_ 0.879151 0.749661 0.141219 -0.272
N_ N_ 0.639816 0.754376 0.00961906 -0.12501
N_ N_ 0.881325 0.742591 0.0104439 -0.12501
O_ O_ 0.592274 0.790674 0.206855 -0.60745
O_ O_ 0.843613 0.792172 0.209236 -0.60745
O_ O_ 0.59121 0.792182 0.277137 -0.60745
O_ O_ 0.843917 0.797094 0.278185 -0.60745
O_ O_ 0.654987 0.792662 0.284363 -0.60745
O_ O_ 0.905619 0.790366 0.286277 -0.60745
O_ O_ 0.653185 0.790757 0.215271 -0.60745
O_ O_ 0.905719 0.793592 0.217351 -0.60745
O_ O_ 0.655264 0.703752 0.28091 -0.60745
O_ O_ 0.903426 0.70617 0.286089 -0.60745
O_ O_ 0.653929 0.703881 0.213857 -0.60745
O_ O_ 0.909138 0.706536 0.217362 -0.60745
O_ O_ 0.59182 0.70237 0.208135 -0.60745
O_ O_ 0.843363 0.703476 0.205887 -0.60745
O_ O_ 0.591513 0.702573 0.2779 -0.60745
O_ O_ 0.841853 0.709878 0.275049 -0.60745
Zn Zn 0.62507 0.750154 0.779922 0.9476
Zn Zn 0.881077 0.753681 0.782788 0.9476
Zn Zn 0.625135 0.751395 0.711974 0.9476
Zn Zn 0.876491 0.752963 0.71433 0.9476
H_ H_ 0.524318 0.905745 0.673333 0.10932
H_ H_ 0.805885 0.941058 0.69382 0.10932
H_ H_ 0.56836 0.857505 0.809268 0.10932
H_ H_ 0.79959 0.839215 0.810272 0.10932
H_ H_ 0.55338 0.843095 0.676761 0.10932
H_ H_ 0.828943 0.867453 0.685237 0.10932
H_ H_ 0.540773 0.923619 0.806496 0.10932
H_ H_ 0.773429 0.903513 0.814519 0.10932
H_ H_ 0.710067 0.924128 0.815673 0.10932
H_ H_ 0.953707 0.928674 0.816354 0.10932
H_ H_ 0.70302 0.83783 0.68883 0.10932
H_ H_ 0.946796 0.850705 0.682058 0.10932
H_ H_ 0.677302 0.862601 0.816832 0.10932
H_ H_ 0.923961 0.868239 0.813417 0.10932
H_ H_ 0.731916 0.900703 0.688148 0.10932
H_ H_ 0.974135 0.916371 0.684675 0.10932
H_ H_ 0.705953 0.576233 0.817428 0.10932
H_ H_ 0.954245 0.580269 0.817536 0.10932
H_ H_ 0.691942 0.648661 0.684941 0.10932
H_ H_ 0.949074 0.659343 0.683451 0.10932
H_ H_ 0.67996 0.64403 0.818104 0.10932
H_ H_ 0.932506 0.646757 0.816352 0.10932
H_ H_ 0.720107 0.587416 0.685956 0.10932
H_ H_ 0.968893 0.585421 0.684494 0.10932
H_ H_ 0.54284 0.570633 0.686562 0.10932
H_ H_ 0.798654 0.570014 0.689747 0.10932
H_ H_ 0.549111 0.665199 0.808019 0.10932
H_ H_ 0.825758 0.645224 0.820578 0.10932
H_ H_ 0.574609 0.629706 0.682081 0.10932
H_ H_ 0.82854 0.637024 0.687509 0.10932
H_ H_ 0.516358 0.604282 0.809944 0.10932
H_ H_ 0.789084 0.583529 0.820567 0.10932
H_ H_ 0.611066 0.687695 0.857049 0.10932
H_ H_ 0.877491 0.696927 0.863413 0.10932
H_ H_ 0.643932 0.810803 0.851107 0.10932
H_ H_ 0.869291 0.823865 0.852776 0.10932
H_ H_ 0.642044 0.815937 0.929337 0.10932
H_ H_ 0.864122 0.826903 0.926804 0.10932
H_ H_ 0.61123 0.690136 0.933843 0.10932
H_ H_ 0.882701 0.700294 0.939906 0.10932
H_ H_ 0.610199 0.693381 0.631004 0.10932
H_ H_ 0.877378 0.816413 0.633093 0.10932
H_ H_ 0.64624 0.815712 0.639112 0.10932
H_ H_ 0.891144 0.687517 0.642166 0.10932
H_ H_ 0.644524 0.819486 0.560637 0.10932
H_ H_ 0.870935 0.676523 0.567012 0.10932
H_ H_ 0.615631 0.694074 0.556475 0.10932
H_ H_ 0.873479 0.809182 0.553364 0.10932
C_ C_ 0.563499 0.845996 0.742867 -0.02249
C_ C_ 0.81863 0.851523 0.749563 -0.02249
C_ C_ 0.515807 0.959843 0.737715 -0.02249
C_ C_ 0.765889 0.963413 0.752757 -0.02249
C_ C_ 0.534522 0.89583 0.703357 -0.11473
C_ C_ 0.803059 0.916892 0.717319 -0.11473
C_ C_ 0.558077 0.868819 0.780474 -0.11473
C_ C_ 0.801579 0.86114 0.783954 -0.11473
C_ C_ 0.552495 0.860868 0.705081 -0.11473
C_ C_ 0.816425 0.876069 0.71378 -0.11473
C_ C_ 0.532373 0.920606 0.740084 -0.02249
C_ C_ 0.784041 0.924513 0.750162 -0.02249
C_ C_ 0.584157 0.808556 0.743894 0.6875
C_ C_ 0.837238 0.813048 0.748106 0.6875
C_ C_ 0.544323 0.907484 0.778365 -0.11473
C_ C_ 0.786647 0.898381 0.786458 -0.11473
C_ C_ 0.686113 0.845628 0.751636 -0.02249
C_ C_ 0.936953 0.850024 0.747998 -0.02249
C_ C_ 0.735118 0.961639 0.746653 -0.02249
C_ C_ 0.985134 0.965869 0.748455 -0.02249
C_ C_ 0.707825 0.907354 0.788064 -0.11473
C_ C_ 0.953054 0.913527 0.787258 -0.11473
C_ C_ 0.699728 0.859087 0.714228 -0.11473
C_ C_ 0.949636 0.865769 0.710849 -0.11473
C_ C_ 0.687844 0.87256 0.787324 -0.11473
C_ C_ 0.936956 0.876247 0.785315 -0.11473
C_ C_ 0.719779 0.92033 0.750349 -0.02249
C_ C_ 0.968457 0.925761 0.74975 -0.02249
C_ C_ 0.665988 0.80811 0.749512 0.6875
C_ C_ 0.918237 0.811091 0.7475 0.6875
C_ C_ 0.717727 0.894525 0.714666 -0.11473
C_ C_ 0.963613 0.90501 0.711421 -0.11473
C_ C_ 0.684557 0.654332 0.752445 -0.02249
C_ C_ 0.938566 0.660125 0.749999 -0.02249
C_ C_ 0.737462 0.540321 0.754638 -0.02249
C_ C_ 0.982662 0.538977 0.750625 -0.02249
C_ C_ 0.70768 0.596573 0.790941 -0.11473
C_ C_ 0.952336 0.595838 0.787598 -0.11473
C_ C_ 0.695666 0.636407 0.715155 -0.11473
C_ C_ 0.949645 0.642145 0.71185 -0.11473
C_ C_ 0.690505 0.633929 0.790388 -0.11473
C_ C_ 0.939805 0.634787 0.786879 -0.11473
C_ C_ 0.720578 0.579931 0.753908 -0.02249
C_ C_ 0.965374 0.57953 0.751055 -0.02249
C_ C_ 0.661447 0.689018 0.750466 0.6875
C_ C_ 0.920452 0.698045 0.748574 0.6875
C_ C_ 0.714637 0.601556 0.716792 -0.11473
C_ C_ 0.962502 0.600834 0.713869 -0.11473
C_ C_ 0.56438 0.655165 0.744584 -0.02249
C_ C_ 0.822383 0.651266 0.753359 -0.02249
C_ C_ 0.513713 0.540558 0.754921 -0.02249
C_ C_ 0.769695 0.539061 0.755479 -0.02249
C_ C_ 0.542033 0.592083 0.712017 -0.11473
C_ C_ 0.798462 0.592906 0.71519 -0.11473
C_ C_ 0.547501 0.64648 0.779775 -0.11473
C_ C_ 0.81732 0.630164 0.791658 -0.11473
C_ C_ 0.56039 0.628868 0.709092 -0.11473
C_ C_ 0.815836 0.629007 0.715753 -0.11473
C_ C_ 0.529178 0.581234 0.749718 -0.02249
C_ C_ 0.78779 0.578257 0.753125 -0.02249
C_ C_ 0.585048 0.691322 0.744915 0.6875
C_ C_ 0.838182 0.694088 0.750818 0.6875
C_ C_ 0.531286 0.608758 0.783926 -0.11473
C_ C_ 0.796033 0.597356 0.790949 -0.11473
C_ C_ 0.616965 0.7165 0.872497 0.17695
C_ C_ 0.88301 0.726928 0.878037 0.17695
C_ C_ 0.638056 0.783531 0.870075 0.17695
C_ C_ 0.87866 0.79837 0.871339 0.17695
C_ C_ 0.636865 0.786495 0.914422 -0.11473
C_ C_ 0.871968 0.799676 0.913579 -0.11473
C_ C_ 0.626484 0.754199 0.938544 0.23465
C_ C_ 0.878917 0.76649 0.939982 0.23465
C_ C_ 0.615837 0.718441 0.917439 -0.11473
C_ C_ 0.884136 0.72881 0.922171 -0.11473
C_ C_ 0.621363 0.720382 0.616715 0.17695
C_ C_ 0.87468 0.785145 0.617603 0.17695
C_ C_ 0.636423 0.79077 0.621343 0.17695
C_ C_ 0.879828 0.712532 0.624597 0.17695
C_ C_ 0.636963 0.792561 0.576739 -0.11473
C_ C_ 0.874104 0.707259 0.580479 -0.11473
C_ C_ 0.629747 0.75867 0.552305 0.23465
C_ C_ 0.875038 0.742321 0.55477 0.23465
C_ C_ 0.619846 0.721651 0.573453 -0.11473
C_ C_ 0.874604 0.781425 0.573757 -0.11473
C_ C_ 0.531958 -0.0024969999999999715 0.732564 0.05793
C_ C_ 0.78078 0.0009600000000000719 0.757519 0.05793
C_ C_ 0.720869 0.502662 0.75705 0.05793
C_ C_ 0.96688 0.501711 0.743937 0.05793
Br Br 0.574102 0.0015400000000000968 0.727543 -0.17191
Br Br 0.819375 1.00205585 0.785053 -0.17191
Br Br 0.679748 0.503248 0.761959 -0.17191
Br Br 0.923732 0.497489 0.736241 -0.17191
N_ N_ 0.626297 0.749585 0.849562 -0.272
N_ N_ 0.883746 0.760609 0.851838 -0.272
N_ N_ 0.621062 0.761371 0.981232 -0.12501
N_ N_ 0.872958 0.77062 0.985806 -0.12501
N_ N_ 0.630442 0.753984 0.640011 -0.272
N_ N_ 0.877617 0.751142 0.642625 -0.272
N_ N_ 0.635051 0.760171 0.506274 -0.12501
N_ N_ 0.874808 0.7365 0.510511 -0.12501
O_ O_ 0.593359 0.79375 0.709518 -0.60745
O_ O_ 0.847678 0.799641 0.713518 -0.60745
O_ O_ 0.595693 0.797325 0.778283 -0.60745
O_ O_ 0.847468 0.797039 0.781908 -0.60745
O_ O_ 0.658954 0.790509 0.781371 -0.60745
O_ O_ 0.908357 0.800495 0.782453 -0.60745
O_ O_ 0.655696 0.795186 0.714328 -0.60745
O_ O_ 0.908742 0.794106 0.713003 -0.60745
O_ O_ 0.65116 0.704368 0.784461 -0.60745
O_ O_ 0.914122 0.71471 0.783392 -0.60745
O_ O_ 0.656002 0.708433 0.71593 -0.60745
O_ O_ 0.906723 0.705674 0.713894 -0.60745
O_ O_ 0.595261 0.706695 0.7118 -0.60745
O_ O_ 0.842635 0.712062 0.71681 -0.60745
O_ O_ 0.592083 0.709547 0.779671 -0.60745
O_ O_ 0.852062 0.708127 0.783996 -0.60745
