_cell_length_a 44.444
_cell_length_b 32.3360000049186
_cell_length_c 31.843999878906452
_cell_angle_alpha 89.99799923859553
_cell_angle_beta 91.13600050494348
_cell_angle_gamma 89.9990006550086
_symmetry_space_group_name_H-M         'P 1'
_symmetry_Int_Tables_number            1
loop_
_symmetry_equiv_pos_as_xyz
   'x, y, z'
                         
loop_
_atom_site_label
_atom_site_type_symbol
_atom_site_fract_x 
_atom_site_fract_y
_atom_site_fract_z
_atom_site_charge
Zn Zn 0.123907 0.250364 0.279691 0.9476
Zn Zn 0.37911 0.248012 0.280947 0.9476
Zn Zn 0.120851 0.250094 0.208881 0.9476
Zn Zn 0.377829 0.247299 0.211657 0.9476
H_ H_ 0.0441338 0.4263 0.177782 0.10932
H_ H_ 0.265298 0.390636 0.179964 0.10932
H_ H_ 0.0611033 0.349963 0.310533 0.10932
H_ H_ 0.321896 0.365004 0.313181 0.10932
H_ H_ 0.0709685 0.357498 0.179303 0.10932
H_ H_ 0.305188 0.339546 0.184067 0.10932
H_ H_ 0.0366631 0.416595 0.311504 0.10932
H_ H_ 0.287679 0.425588 0.306931 0.10932
H_ H_ 0.210516 0.419305 0.31449 0.10932
H_ H_ 0.472003 0.407393 0.322323 0.10932
H_ H_ 0.1766 0.359812 0.180871 0.10932
H_ H_ 0.437404 0.358911 0.182576 0.10932
H_ H_ 0.184802 0.350745 0.313284 0.10932
H_ H_ 0.441618 0.345715 0.321558 0.10932
H_ H_ 0.211949 0.420834 0.180065 0.10932
H_ H_ 0.46433 0.422371 0.187113 0.10932
H_ H_ 0.225417 0.0963263 0.31064 0.10932
H_ H_ 0.476585 0.0894067 0.320676 0.10932
H_ H_ 0.17368 0.132789 0.178253 0.10932
H_ H_ 0.422461 0.126691 0.191863 0.10932
H_ H_ 0.20128 0.161085 0.305329 0.10932
H_ H_ 0.45573 0.159842 0.317598 0.10932
H_ H_ 0.201886 0.0684897 0.183322 0.10932
H_ H_ 0.456404 0.0673486 0.191543 0.10932
H_ H_ 0.0334442 0.0775507 0.172055 0.10932
H_ H_ 0.287155 0.0808846 0.172388 0.10932
H_ H_ 0.0564596 0.151902 0.306782 0.10932
H_ H_ 0.312728 0.146133 0.30994 0.10932
H_ H_ 0.0630395 0.144071 0.172274 0.10932
H_ H_ 0.313665 0.146778 0.171711 0.10932
H_ H_ 0.027489 0.085553 0.304242 0.10932
H_ H_ 0.282143 0.0804871 0.303659 0.10932
H_ H_ 0.103457 0.304822 0.358136 0.10932
H_ H_ 0.383772 0.308723 0.363501 0.10932
H_ H_ 0.144723 0.187841 0.349829 0.10932
H_ H_ 0.371379 0.182354 0.34812 0.10932
H_ H_ 0.147641 0.182637 0.42737 0.10932
H_ H_ 0.374493 0.172676 0.427854 0.10932
H_ H_ 0.111328 0.303735 0.436965 0.10932
H_ H_ 0.380252 0.302688 0.443376 0.10932
H_ H_ 0.119858 0.314823 0.126443 0.10932
H_ H_ 0.356964 0.313428 0.142986 0.10932
H_ H_ 0.122722 0.183498 0.139358 0.10932
H_ H_ 0.392874 0.193412 0.135011 0.10932
H_ H_ 0.124062 0.176013 0.0595918 0.10932
H_ H_ 0.398849 0.203326 0.0592342 0.10932
H_ H_ 0.110314 0.306632 0.0517196 0.10932
H_ H_ 0.3538 0.318132 0.0631092 0.10932
C_ C_ 0.0691709 0.349365 0.245116 -0.02249
C_ C_ 0.315553 0.347946 0.249431 -0.02249
C_ C_ 0.0176722 0.464171 0.244898 -0.02249
C_ C_ 0.26231 0.457583 0.239996 -0.02249
C_ C_ 0.0463975 0.407617 0.205982 -0.11473
C_ C_ 0.279316 0.388951 0.208553 -0.11473
C_ C_ 0.0580937 0.365959 0.280734 -0.11473
C_ C_ 0.308962 0.371784 0.284345 -0.11473
C_ C_ 0.0609661 0.368623 0.206848 -0.11473
C_ C_ 0.300209 0.356325 0.210713 -0.11473
C_ C_ 0.0367356 0.425434 0.24354 -0.02249
C_ C_ 0.276424 0.416366 0.243091 -0.02249
C_ C_ 0.0820116 0.307873 0.246278 0.6875
C_ C_ 0.33821 0.312228 0.250332 0.6875
C_ C_ 0.0445489 0.405608 0.282106 -0.11473
C_ C_ 0.288643 0.404503 0.280951 -0.11473
C_ C_ 0.179236 0.349017 0.245477 -0.02249
C_ C_ 0.435849 0.34592 0.251978 -0.02249
C_ C_ 0.232133 0.462079 0.251394 -0.02249
C_ C_ 0.48712 0.460849 0.257095 -0.02249
C_ C_ 0.204725 0.405308 0.284374 -0.11473
C_ C_ 0.46415 0.398254 0.292474 -0.11473
C_ C_ 0.184766 0.373398 0.208391 -0.11473
C_ C_ 0.443771 0.367751 0.213246 -0.11473
C_ C_ 0.190563 0.36474 0.282769 -0.11473
C_ C_ 0.445988 0.36212 0.291278 -0.11473
C_ C_ 0.212575 0.424742 0.247803 -0.02249
C_ C_ 0.469501 0.421599 0.255198 -0.02249
C_ C_ 0.159417 0.311228 0.246361 0.6875
C_ C_ 0.41781 0.306313 0.251173 0.6875
C_ C_ 0.204055 0.40895 0.20904 -0.11473
C_ C_ 0.461714 0.404037 0.216261 -0.11473
C_ C_ 0.184561 0.152884 0.240288 -0.02249
C_ C_ 0.437875 0.149759 0.253265 -0.02249
C_ C_ 0.234615 0.0358952 0.247894 -0.02249
C_ C_ 0.487743 0.0359467 0.255546 -0.02249
C_ C_ 0.216045 0.104224 0.280781 -0.11473
C_ C_ 0.470148 0.101964 0.291867 -0.11473
C_ C_ 0.184146 0.123617 0.207444 -0.11473
C_ C_ 0.437386 0.123075 0.21847 -0.11473
C_ C_ 0.201692 0.142757 0.276477 -0.11473
C_ C_ 0.454449 0.139037 0.289571 -0.11473
C_ C_ 0.216586 0.0761777 0.247476 -0.02249
C_ C_ 0.472906 0.0777982 0.255333 -0.02249
C_ C_ 0.163067 0.189627 0.239984 0.6875
C_ C_ 0.419565 0.188451 0.249145 0.6875
C_ C_ 0.201493 0.0883139 0.209397 -0.11473
C_ C_ 0.455658 0.0881361 0.219483 -0.11473
C_ C_ 0.0635121 0.150156 0.239701 -0.02249
C_ C_ 0.318252 0.15248 0.241178 -0.02249
C_ C_ 0.0136459 0.0344787 0.241556 -0.02249
C_ C_ 0.265557 0.0375953 0.238085 -0.02249
C_ C_ 0.0387534 0.0925099 0.2019 -0.11473
C_ C_ 0.291416 0.0977429 0.200937 -0.11473
C_ C_ 0.0536523 0.133209 0.277831 -0.11473
C_ C_ 0.307186 0.132625 0.278694 -0.11473
C_ C_ 0.0583167 0.12839 0.201835 -0.11473
C_ C_ 0.309405 0.133906 0.201856 -0.11473
C_ C_ 0.0292645 0.0758402 0.240362 -0.02249
C_ C_ 0.281456 0.078185 0.23792 -0.02249
C_ C_ 0.0825038 0.188684 0.242239 0.6875
C_ C_ 0.338192 0.189652 0.241176 0.6875
C_ C_ 0.0357183 0.0982647 0.276728 -0.11473
C_ C_ 0.28847 0.0971164 0.275517 -0.11473
C_ C_ 0.114819 0.27807 0.373207 0.17695
C_ C_ 0.378648 0.281481 0.379513 0.17695
C_ C_ 0.136791 0.212153 0.367728 0.17695
C_ C_ 0.373809 0.208663 0.369652 0.17695
C_ C_ 0.138349 0.209293 0.412491 -0.11473
C_ C_ 0.372952 0.203297 0.414695 -0.11473
C_ C_ 0.130764 0.245369 0.4368 0.23465
C_ C_ 0.373732 0.237978 0.441589 0.23465
C_ C_ 0.119795 0.279648 0.416702 -0.11473
C_ C_ 0.377611 0.277051 0.423212 -0.11473
C_ C_ 0.115938 0.284484 0.113472 0.17695
C_ C_ 0.3629 0.286199 0.12492 0.17695
C_ C_ 0.120195 0.210828 0.120038 0.17695
C_ C_ 0.383281 0.219492 0.11824 0.17695
C_ C_ 0.120264 0.204767 0.0754484 -0.11473
C_ C_ 0.383496 0.222815 0.075281 -0.11473
C_ C_ 0.115158 0.239507 0.0498565 0.23465
C_ C_ 0.370701 0.2565 0.0552752 0.23465
C_ C_ 0.113019 0.279363 0.0693145 -0.11473
C_ C_ 0.361426 0.290779 0.0797852 -0.11473
C_ C_ 0.0312906 0.502834 0.252937 0.05793
C_ C_ 0.279277 0.493967 0.232005 0.05793
C_ C_ 0.219896 -0.0033079999999999776 0.245913 0.05793
C_ C_ 0.470453 0.997694 0.259068 0.05793
Br Br 0.0730481 0.505457 0.261505 -0.17191
Br Br 0.320442 0.489656 0.216083 -0.17191
Br Br 0.176377 -0.005875999999999992 0.243073 -0.17191
Br Br 0.429027 1.00458628 0.27464 -0.17191
N_ N_ 0.127951 0.248383 0.349522 -0.272
N_ N_ 0.375988 0.247812 0.352549 -0.272
N_ N_ 0.133287 0.241488 0.482159 -0.12501
N_ N_ 0.372623 0.232421 0.485979 -0.12501
N_ N_ 0.119982 0.249592 0.137305 -0.272
N_ N_ 0.37537 0.251793 0.142054 -0.272
N_ N_ 0.119488 0.235711 0.00514619 -0.12501
N_ N_ 0.374091 0.263627 0.0122238 -0.12501
O_ O_ 0.0907888 0.29449 0.21147 -0.60745
O_ O_ 0.34606 0.295892 0.214597 -0.60745
O_ O_ 0.0917827 0.291194 0.279458 -0.60745
O_ O_ 0.346396 0.294611 0.284596 -0.60745
O_ O_ 0.152855 0.294496 0.280601 -0.60745
O_ O_ 0.407358 0.293485 0.285112 -0.60745
O_ O_ 0.149796 0.296248 0.212472 -0.60745
O_ O_ 0.412339 0.286874 0.216542 -0.60745
O_ O_ 0.154955 0.204618 0.27448 -0.60745
O_ O_ 0.411542 0.204535 0.281978 -0.60745
O_ O_ 0.149724 0.201563 0.206841 -0.60745
O_ O_ 0.406873 0.19856 0.213364 -0.60745
O_ O_ 0.0885569 0.208397 0.208517 -0.60745
O_ O_ 0.344143 0.207538 0.206422 -0.60745
O_ O_ 0.0946207 0.199989 0.277871 -0.60745
O_ O_ 0.35186 0.201994 0.27539 -0.60745
Zn Zn 0.122199 0.255852 0.7785 0.9476
Zn Zn 0.377577 0.249806 0.78002 0.9476
Zn Zn 0.123025 0.24989 0.709716 0.9476
Zn Zn 0.378679 0.248381 0.712568 0.9476
H_ H_ 0.0265282 0.413298 0.675762 0.10932
H_ H_ 0.287809 0.418379 0.680433 0.10932
H_ H_ 0.0785097 0.368529 0.804327 0.10932
H_ H_ 0.311329 0.346309 0.814025 0.10932
H_ H_ 0.0489721 0.345122 0.676057 0.10932
H_ H_ 0.316648 0.355979 0.676462 0.10932
H_ H_ 0.0509763 0.43377 0.803734 0.10932
H_ H_ 0.286166 0.415878 0.813933 0.10932
H_ H_ 0.215642 0.419203 0.809573 0.10932
H_ H_ 0.465776 0.424199 0.812172 0.10932
H_ H_ 0.194007 0.346076 0.678501 0.10932
H_ H_ 0.436859 0.350053 0.679101 0.10932
H_ H_ 0.1845 0.355105 0.810705 0.10932
H_ H_ 0.438899 0.354924 0.813725 0.10932
H_ H_ 0.215991 0.414492 0.67456 0.10932
H_ H_ 0.455359 0.422407 0.677141 0.10932
H_ H_ 0.204539 0.0774481 0.804329 0.10932
H_ H_ 0.443397 0.0628381 0.811654 0.10932
H_ H_ 0.184116 0.153782 0.675041 0.10932
H_ H_ 0.455049 0.16001 0.693436 0.10932
H_ H_ 0.174152 0.140877 0.808032 0.10932
H_ H_ 0.415496 0.131895 0.812418 0.10932
H_ H_ 0.209752 0.083605 0.674728 0.10932
H_ H_ 0.477077 0.0936385 0.693134 0.10932
H_ H_ 0.0339798 0.076753 0.688112 0.10932
H_ H_ 0.297541 0.0689211 0.688916 0.10932
H_ H_ 0.0563313 0.163969 0.808026 0.10932
H_ H_ 0.303169 0.15897 0.813215 0.10932
H_ H_ 0.0677656 0.137687 0.680819 0.10932
H_ H_ 0.331248 0.132338 0.690245 0.10932
H_ H_ 0.0299886 0.0972667 0.817003 0.10932
H_ H_ 0.271187 0.0973954 0.816555 0.10932
H_ H_ 0.125146 0.315215 0.849004 0.10932
H_ H_ 0.327026 0.237993 0.845349 0.10932
H_ H_ 0.105036 0.191205 0.851297 0.10932
H_ H_ 0.419229 0.273918 0.86787 0.10932
H_ H_ 0.105516 0.188722 0.926985 0.10932
H_ H_ 0.410344 0.272468 0.946569 0.10932
H_ H_ 0.124763 0.31952 0.928146 0.10932
H_ H_ 0.318915 0.232248 0.924608 0.10932
H_ H_ 0.120108 0.19171 0.62863 0.10932
H_ H_ 0.42487 0.252536 0.630763 0.10932
H_ H_ 0.119828 0.319133 0.643148 0.10932
H_ H_ 0.329851 0.237822 0.64175 0.10932
H_ H_ 0.115003 0.327536 0.560328 0.10932
H_ H_ 0.323359 0.244234 0.566493 0.10932
H_ H_ 0.118368 0.196953 0.550396 0.10932
H_ H_ 0.420297 0.264428 0.557195 0.10932
C_ C_ 0.0627017 0.348201 0.743714 -0.02249
C_ C_ 0.316532 0.345311 0.745366 -0.02249
C_ C_ 0.0172259 0.464647 0.742866 -0.02249
C_ C_ 0.2683 0.460359 0.746911 -0.02249
C_ C_ 0.038331 0.403574 0.704283 -0.11473
C_ C_ 0.292992 0.403401 0.709136 -0.11473
C_ C_ 0.0642933 0.374448 0.778654 -0.11473
C_ C_ 0.308439 0.36348 0.784641 -0.11473
C_ C_ 0.0488168 0.364786 0.705639 -0.11473
C_ C_ 0.309144 0.368302 0.707903 -0.11473
C_ C_ 0.0351444 0.425378 0.740188 -0.02249
C_ C_ 0.282631 0.418935 0.747468 -0.02249
C_ C_ 0.0813561 0.310646 0.746139 0.6875
C_ C_ 0.335776 0.306954 0.746763 0.6875
C_ C_ 0.0494135 0.412211 0.777512 -0.11473
C_ C_ 0.290891 0.400122 0.784225 -0.11473
C_ C_ 0.183618 0.346678 0.743788 -0.02249
C_ C_ 0.433511 0.349835 0.747354 -0.02249
C_ C_ 0.236446 0.461376 0.742522 -0.02249
C_ C_ 0.482587 0.466452 0.741577 -0.02249
C_ C_ 0.208714 0.404835 0.78085 -0.11473
C_ C_ 0.460055 0.407025 0.782658 -0.11473
C_ C_ 0.194637 0.363498 0.705299 -0.11473
C_ C_ 0.442671 0.365726 0.708424 -0.11473
C_ C_ 0.191624 0.367357 0.780681 -0.11473
C_ C_ 0.443955 0.368078 0.784137 -0.11473
C_ C_ 0.216761 0.424344 0.742425 -0.02249
C_ C_ 0.464979 0.426217 0.743135 -0.02249
C_ C_ 0.162762 0.310022 0.743797 0.6875
C_ C_ 0.414391 0.311765 0.748291 0.6875
C_ C_ 0.21035 0.40267 0.705073 -0.11473
C_ C_ 0.45364 0.405987 0.706785 -0.11473
C_ C_ 0.177904 0.154476 0.741994 -0.02249
C_ C_ 0.434138 0.153127 0.7539 -0.02249
C_ C_ 0.231629 0.0384187 0.740148 -0.02249
C_ C_ 0.482923 0.036663 0.754681 -0.02249
C_ C_ 0.202001 0.0960126 0.776786 -0.11473
C_ C_ 0.449563 0.087687 0.789654 -0.11473
C_ C_ 0.189238 0.136981 0.704424 -0.11473
C_ C_ 0.451969 0.140816 0.720063 -0.11473
C_ C_ 0.185388 0.133191 0.778632 -0.11473
C_ C_ 0.432424 0.126686 0.788535 -0.11473
C_ C_ 0.21327 0.078541 0.739047 -0.02249
C_ C_ 0.466991 0.0759692 0.75536 -0.02249
C_ C_ 0.159567 0.192826 0.741533 0.6875
C_ C_ 0.415048 0.189849 0.752283 0.6875
C_ C_ 0.206956 0.0992848 0.702767 -0.11473
C_ C_ 0.467371 0.1034 0.72162 -0.11473
C_ C_ 0.066709 0.154399 0.746132 -0.02249
C_ C_ 0.317924 0.150974 0.749168 -0.02249
C_ C_ 0.0167315 0.0391973 0.757868 -0.02249
C_ C_ 0.263025 0.0396983 0.749293 -0.02249
C_ C_ 0.0448002 0.0908953 0.714794 -0.11473
C_ C_ 0.298213 0.0876349 0.714156 -0.11473
C_ C_ 0.0567665 0.140581 0.78496 -0.11473
C_ C_ 0.30197 0.139948 0.784841 -0.11473
C_ C_ 0.0610315 0.127946 0.71172 -0.11473
C_ C_ 0.316304 0.12547 0.71456 -0.11473
C_ C_ 0.0341974 0.0775559 0.754246 -0.02249
C_ C_ 0.279967 0.0792218 0.749164 -0.02249
C_ C_ 0.0844943 0.193941 0.741391 0.6875
C_ C_ 0.338471 0.187535 0.749037 0.6875
C_ C_ 0.0396027 0.104711 0.789321 -0.11473
C_ C_ 0.283883 0.102874 0.786273 -0.11473
C_ C_ 0.125511 0.288243 0.867449 0.17695
C_ C_ 0.345896 0.239126 0.867828 0.17695
C_ C_ 0.113684 0.21716 0.86914 0.17695
C_ C_ 0.397664 0.259694 0.879729 0.17695
C_ C_ 0.108385 0.218608 0.911144 -0.11473
C_ C_ 0.39165 0.262751 0.923947 -0.11473
C_ C_ 0.114729 0.254244 0.934811 0.23465
C_ C_ 0.36384 0.246868 0.940166 0.23465
C_ C_ 0.123422 0.289712 0.911479 -0.11473
C_ C_ 0.341355 0.234899 0.911699 -0.11473
C_ C_ 0.121654 0.221735 0.613694 0.17695
C_ C_ 0.402173 0.254436 0.616318 0.17695
C_ C_ 0.120082 0.294503 0.621828 0.17695
C_ C_ 0.348206 0.248713 0.624415 0.17695
C_ C_ 0.120079 0.299344 0.577427 -0.11473
C_ C_ 0.345022 0.247256 0.580764 -0.11473
C_ C_ 0.122255 0.263956 0.551655 0.23465
C_ C_ 0.371592 0.251737 0.55488 0.23465
C_ C_ 0.120342 0.225787 0.569875 -0.11473
C_ C_ 0.399301 0.26051 0.574938 -0.11473
C_ C_ 0.0318665 0.503211 0.740662 0.05793
C_ C_ 0.285498 0.49639 0.752429 0.05793
C_ C_ 0.216823 0.000744271 0.731064 0.05793
C_ C_ 0.467911 0.998858 0.749783 0.05793
Br Br 0.0759011 0.501003 0.729457 -0.17191
Br Br 0.329869 0.496173 0.751194 -0.17191
Br Br 0.176096 0.00038289 0.71804 -0.17191
Br Br 0.424951 0.99891 0.737444 -0.17191
N_ N_ 0.123599 0.251301 0.847355 -0.272
N_ N_ 0.374193 0.250926 0.854012 -0.272
N_ N_ 0.106971 0.257299 0.97778 -0.12501
N_ N_ 0.359238 0.242803 0.984564 -0.12501
N_ N_ 0.122239 0.255998 0.639453 -0.272
N_ N_ 0.376458 0.250984 0.641022 -0.272
N_ N_ 0.119956 0.26611 0.506252 -0.12501
N_ N_ 0.368711 0.260188 0.511634 -0.12501
O_ O_ 0.0915538 0.291965 0.714543 -0.60745
O_ O_ 0.348944 0.29539 0.712556 -0.60745
O_ O_ 0.0915919 0.299676 0.782649 -0.60745
O_ O_ 0.343182 0.290057 0.779401 -0.60745
O_ O_ 0.157566 0.291679 0.777913 -0.60745
O_ O_ 0.403534 0.299 0.783424 -0.60745
O_ O_ 0.153175 0.296694 0.709305 -0.60745
O_ O_ 0.409632 0.291193 0.715473 -0.60745
O_ O_ 0.150434 0.210025 0.774511 -0.60745
O_ O_ 0.408635 0.207681 0.786835 -0.60745
O_ O_ 0.153721 0.210833 0.706865 -0.60745
O_ O_ 0.407995 0.204477 0.716632 -0.60745
O_ O_ 0.0947039 0.203657 0.706326 -0.60745
O_ O_ 0.345616 0.204731 0.715098 -0.60745
O_ O_ 0.0887343 0.21699 0.772986 -0.60745
O_ O_ 0.34716 0.202838 0.783279 -0.60745
Zn Zn 0.130621 0.750772 0.291674 0.9476
Zn Zn 0.369361 0.74505 0.285895 0.9476
Zn Zn 0.129447 0.750047 0.220012 0.9476
Zn Zn 0.374268 0.748198 0.214205 0.9476
H_ H_ 0.0344591 0.915873 0.180507 0.10932
H_ H_ 0.298513 0.926613 0.17919 0.10932
H_ H_ 0.0657176 0.850755 0.319045 0.10932
H_ H_ 0.303056 0.847728 0.310629 0.10932
H_ H_ 0.0704634 0.853157 0.180004 0.10932
H_ H_ 0.323956 0.862535 0.178708 0.10932
H_ H_ 0.0362055 0.916566 0.312633 0.10932
H_ H_ 0.285775 0.919318 0.311437 0.10932
H_ H_ 0.215126 0.924678 0.317049 0.10932
H_ H_ 0.461593 0.915203 0.323659 0.10932
H_ H_ 0.205963 0.831901 0.192691 0.10932
H_ H_ 0.43811 0.846135 0.187438 0.10932
H_ H_ 0.183772 0.860766 0.316654 0.10932
H_ H_ 0.430959 0.851595 0.321554 0.10932
H_ H_ 0.234682 0.898136 0.188409 0.10932
H_ H_ 0.461515 0.916488 0.188258 0.10932
H_ H_ 0.243701 0.598604 0.309123 0.10932
H_ H_ 0.470891 0.581823 0.319806 0.10932
H_ H_ 0.170852 0.638715 0.194393 0.10932
H_ H_ 0.434843 0.639511 0.186178 0.10932
H_ H_ 0.217062 0.666042 0.31241 0.10932
H_ H_ 0.435625 0.643423 0.318413 0.10932
H_ H_ 0.198416 0.569503 0.192505 0.10932
H_ H_ 0.459904 0.570619 0.18814 0.10932
H_ H_ 0.0305412 0.588127 0.186113 0.10932
H_ H_ 0.266172 0.59387 0.17855 0.10932
H_ H_ 0.0699411 0.645952 0.320323 0.10932
H_ H_ 0.335816 0.625177 0.297817 0.10932
H_ H_ 0.0642838 0.649651 0.183486 0.10932
H_ H_ 0.308998 0.650341 0.170392 0.10932
H_ H_ 0.0371325 0.583381 0.319856 0.10932
H_ H_ 0.302131 0.563905 0.29544 0.10932
H_ H_ 0.140113 0.820943 0.360458 0.10932
H_ H_ 0.381402 0.681255 0.354894 0.10932
H_ H_ 0.120338 0.692601 0.373329 0.10932
H_ H_ 0.349363 0.802666 0.363021 0.10932
H_ H_ 0.113134 0.699066 0.445999 0.10932
H_ H_ 0.350672 0.800152 0.442305 0.10932
H_ H_ 0.132958 0.828205 0.43915 0.10932
H_ H_ 0.388909 0.676916 0.436112 0.10932
H_ H_ 0.174458 0.763856 0.148235 0.10932
H_ H_ 0.3947 0.808955 0.147843 0.10932
H_ H_ 0.0802423 0.741813 0.14465 0.10932
H_ H_ 0.354662 0.69401 0.137016 0.10932
H_ H_ 0.0828764 0.727574 0.0680418 0.10932
H_ H_ 0.36025 0.694689 0.0589629 0.10932
H_ H_ 0.176265 0.760045 0.0719191 0.10932
H_ H_ 0.401621 0.813318 0.0732259 0.10932
C_ C_ 0.0692837 0.846574 0.247817 -0.02249
C_ C_ 0.317989 0.848474 0.246129 -0.02249
C_ C_ 0.0150058 0.957945 0.245055 -0.02249
C_ C_ 0.269699 0.96399 0.242465 -0.02249
C_ C_ 0.0398174 0.898519 0.207627 -0.11473
C_ C_ 0.300845 0.909596 0.208396 -0.11473
C_ C_ 0.0598478 0.864906 0.285229 -0.11473
C_ C_ 0.303743 0.864366 0.282446 -0.11473
C_ C_ 0.0603688 0.865282 0.208877 -0.11473
C_ C_ 0.317587 0.873459 0.209029 -0.11473
C_ C_ 0.0331359 0.918738 0.245466 -0.02249
C_ C_ 0.289011 0.926235 0.244905 -0.02249
C_ C_ 0.0905852 0.809398 0.250826 0.6875
C_ C_ 0.333072 0.808531 0.247898 0.6875
C_ C_ 0.0416506 0.901812 0.284529 -0.11473
C_ C_ 0.292884 0.905046 0.283427 -0.11473
C_ C_ 0.191601 0.843977 0.256867 -0.02249
C_ C_ 0.431154 0.844709 0.2566 -0.02249
C_ C_ 0.238806 0.960566 0.243369 -0.02249
C_ C_ 0.48335 0.958265 0.257183 -0.02249
C_ C_ 0.212335 0.905956 0.2884 -0.11473
C_ C_ 0.457656 0.89903 0.294697 -0.11473
C_ C_ 0.209516 0.851202 0.220657 -0.11473
C_ C_ 0.439579 0.863042 0.21806 -0.11473
C_ C_ 0.194488 0.869418 0.289758 -0.11473
C_ C_ 0.439728 0.864518 0.293988 -0.11473
C_ C_ 0.223993 0.917888 0.249458 -0.02249
C_ C_ 0.462514 0.921439 0.257402 -0.02249
C_ C_ 0.16956 0.811195 0.25688 0.6875
C_ C_ 0.411068 0.808844 0.254577 0.6875
C_ C_ 0.226046 0.887489 0.217179 -0.11473
C_ C_ 0.453074 0.90296 0.21893 -0.11473
C_ C_ 0.188886 0.653337 0.254737 -0.02249
C_ C_ 0.435054 0.651313 0.250243 -0.02249
C_ C_ 0.237212 0.538085 0.251212 -0.02249
C_ C_ 0.488833 0.537134 0.255363 -0.02249
C_ C_ 0.229699 0.609992 0.281627 -0.11473
C_ C_ 0.464981 0.599663 0.290456 -0.11473
C_ C_ 0.186148 0.627915 0.219891 -0.11473
C_ C_ 0.442132 0.629599 0.214721 -0.11473
C_ C_ 0.211849 0.645858 0.285719 -0.11473
C_ C_ 0.443118 0.632486 0.289952 -0.11473
C_ C_ 0.22219 0.580051 0.249847 -0.02249
C_ C_ 0.47076 0.577928 0.253653 -0.02249
C_ C_ 0.168259 0.690818 0.256793 0.6875
C_ C_ 0.4135 0.687891 0.250848 0.6875
C_ C_ 0.203799 0.591718 0.216839 -0.11473
C_ C_ 0.460268 0.594113 0.215887 -0.11473
C_ C_ 0.0699253 0.654894 0.251659 -0.02249
C_ C_ 0.319744 0.646106 0.237072 -0.02249
C_ C_ 0.0157168 0.540237 0.249241 -0.02249
C_ C_ 0.267783 0.533391 0.239293 -0.02249
C_ C_ 0.0370608 0.603938 0.214051 -0.11473
C_ C_ 0.286574 0.596326 0.199327 -0.11473
C_ C_ 0.0602465 0.636611 0.291113 -0.11473
C_ C_ 0.321584 0.618375 0.269907 -0.11473
C_ C_ 0.056169 0.638865 0.214332 -0.11473
C_ C_ 0.304748 0.633734 0.199378 -0.11473
C_ C_ 0.0322108 0.581535 0.250765 -0.02249
C_ C_ 0.287615 0.569827 0.234638 -0.02249
C_ C_ 0.0881772 0.693012 0.251818 0.6875
C_ C_ 0.332497 0.688581 0.242033 0.6875
C_ C_ 0.0406421 0.600099 0.290174 -0.11473
C_ C_ 0.303751 0.581934 0.269393 -0.11473
C_ C_ 0.135645 0.793707 0.381158 0.17695
C_ C_ 0.378027 0.708247 0.37473 0.17695
C_ C_ 0.121771 0.723534 0.386107 0.17695
C_ C_ 0.359064 0.776264 0.378611 0.17695
C_ C_ 0.117034 0.727534 0.429304 -0.11473
C_ C_ 0.358665 0.77411 0.423295 -0.11473
C_ C_ 0.12495 0.764125 0.450221 0.23465
C_ C_ 0.370926 0.738844 0.444245 0.23465
C_ C_ 0.129715 0.799109 0.425173 -0.11473
C_ C_ 0.379065 0.704679 0.419681 -0.11473
C_ C_ 0.153886 0.757561 0.130087 0.17695
C_ C_ 0.388331 0.78448 0.127255 0.17695
C_ C_ 0.101108 0.744683 0.127524 0.17695
C_ C_ 0.367059 0.717843 0.121281 0.17695
C_ C_ 0.101285 0.740293 0.0836064 -0.11473
C_ C_ 0.367999 0.718579 0.0771525 -0.11473
C_ C_ 0.128946 0.745736 0.0621418 0.23465
C_ C_ 0.381498 0.756205 0.0574995 0.23465
C_ C_ 0.155478 0.753327 0.0867688 -0.11473
C_ C_ 0.390888 0.787981 0.0851549 -0.11473
C_ C_ 0.0295035 0.996826 0.244245 0.05793
C_ C_ 0.283336 1.00185271 0.239783 0.05793
C_ C_ 0.220168 0.503118 0.257187 0.05793
C_ C_ 0.472967 0.499096 0.26338 0.05793
Br Br 0.0727955 0.000933647 0.244862 -0.17191
Br Br 0.327651 1.00438249 0.234324 -0.17191
Br Br 0.177766 0.508541 0.265996 -0.17191
Br Br 0.430256 0.502336 0.266507 -0.17191
N_ N_ 0.129867 0.756249 0.362255 -0.272
N_ N_ 0.367859 0.743638 0.355035 -0.272
N_ N_ 0.125077 0.768362 0.494931 -0.12501
N_ N_ 0.376643 0.739215 0.487614 -0.12501
N_ N_ 0.127914 0.749459 0.149035 -0.272
N_ N_ 0.378103 0.748547 0.143924 -0.272
N_ N_ 0.129176 0.739875 0.0179361 -0.12501
N_ N_ 0.383397 0.759901 0.0126968 -0.12501
O_ O_ 0.0969748 0.791025 0.218156 -0.60745
O_ O_ 0.343195 0.794315 0.214437 -0.60745
O_ O_ 0.100127 0.796344 0.285582 -0.60745
O_ O_ 0.338276 0.791022 0.283044 -0.60745
O_ O_ 0.160455 0.79683 0.291863 -0.60745
O_ O_ 0.403421 0.789704 0.287528 -0.60745
O_ O_ 0.159637 0.796469 0.222624 -0.60745
O_ O_ 0.40449 0.792156 0.219397 -0.60745
O_ O_ 0.160803 0.705318 0.292604 -0.60745
O_ O_ 0.398248 0.696823 0.282329 -0.60745
O_ O_ 0.163717 0.710772 0.221675 -0.60745
O_ O_ 0.408157 0.708419 0.217577 -0.60745
O_ O_ 0.0974791 0.70602 0.217881 -0.60745
O_ O_ 0.343848 0.705578 0.210784 -0.60745
O_ O_ 0.0971808 0.709588 0.286679 -0.60745
O_ O_ 0.339966 0.700319 0.279312 -0.60745
Zn Zn 0.129293 0.750317 0.790458 0.9476
Zn Zn 0.370967 0.753121 0.787499 0.9476
Zn Zn 0.127851 0.749837 0.720113 0.9476
Zn Zn 0.36965 0.752652 0.718322 0.9476
H_ H_ 0.0414842 0.92306 0.690152 0.10932
H_ H_ 0.290065 0.925998 0.693849 0.10932
H_ H_ 0.0624024 0.846861 0.820296 0.10932
H_ H_ 0.304996 0.846376 0.825869 0.10932
H_ H_ 0.0673031 0.854303 0.684223 0.10932
H_ H_ 0.320078 0.860318 0.691628 0.10932
H_ H_ 0.0391865 0.91864 0.821097 0.10932
H_ H_ 0.27325 0.908935 0.82196 0.10932
H_ H_ 0.204853 0.93479 0.807154 0.10932
H_ H_ 0.455187 0.9219 0.821515 0.10932
H_ H_ 0.204054 0.834843 0.689356 0.10932
H_ H_ 0.443424 0.839746 0.688622 0.10932
H_ H_ 0.169677 0.873818 0.805209 0.10932
H_ H_ 0.418594 0.86343 0.814161 0.10932
H_ H_ 0.231123 0.899387 0.682322 0.10932
H_ H_ 0.473595 0.90219 0.689887 0.10932
H_ H_ 0.207708 0.568714 0.815003 0.10932
H_ H_ 0.475349 0.597327 0.80444 0.10932
H_ H_ 0.205859 0.667911 0.699874 0.10932
H_ H_ 0.410982 0.635021 0.681382 0.10932
H_ H_ 0.173547 0.621711 0.815801 0.10932
H_ H_ 0.45765 0.670664 0.798897 0.10932
H_ H_ 0.238874 0.606631 0.694523 0.10932
H_ H_ 0.436885 0.564768 0.684559 0.10932
H_ H_ 0.027611 0.596592 0.686835 0.10932
H_ H_ 0.299399 0.573071 0.690015 0.10932
H_ H_ 0.0832723 0.633954 0.818779 0.10932
H_ H_ 0.299035 0.658914 0.817633 0.10932
H_ H_ 0.0583331 0.657564 0.689646 0.10932
H_ H_ 0.320544 0.641177 0.684749 0.10932
H_ H_ 0.0546735 0.565006 0.810948 0.10932
H_ H_ 0.271381 0.59372 0.813232 0.10932
H_ H_ 0.124745 0.822648 0.858781 0.10932
H_ H_ 0.388015 0.808341 0.864007 0.10932
H_ H_ 0.132472 0.692832 0.872557 0.10932
H_ H_ 0.363531 0.682918 0.853584 0.10932
H_ H_ 0.131161 0.698107 0.948295 0.10932
H_ H_ 0.357475 0.678037 0.93271 0.10932
H_ H_ 0.116537 0.830259 0.939416 0.10932
H_ H_ 0.390792 0.803666 0.943695 0.10932
H_ H_ 0.137192 0.678247 0.653751 0.10932
H_ H_ 0.320719 0.734615 0.644381 0.10932
H_ H_ 0.116204 0.809902 0.642692 0.10932
H_ H_ 0.412171 0.766025 0.631604 0.10932
H_ H_ 0.113964 0.805646 0.566019 0.10932
H_ H_ 0.409495 0.749369 0.555079 0.10932
H_ H_ 0.144 0.677216 0.574374 0.10932
H_ H_ 0.313178 0.738179 0.568396 0.10932
C_ C_ 0.068486 0.847822 0.753154 -0.02249
C_ C_ 0.313753 0.849563 0.759815 -0.02249
C_ C_ 0.0170468 0.964482 0.757793 -0.02249
C_ C_ 0.263608 0.96311 0.7574 -0.02249
C_ C_ 0.0417286 0.902996 0.717409 -0.11473
C_ C_ 0.293585 0.908609 0.721064 -0.11473
C_ C_ 0.0577982 0.862873 0.791807 -0.11473
C_ C_ 0.300086 0.863237 0.795663 -0.11473
C_ C_ 0.058972 0.866996 0.71505 -0.11473
C_ C_ 0.311481 0.871538 0.721671 -0.11473
C_ C_ 0.0352113 0.924266 0.756054 -0.02249
C_ C_ 0.281369 0.922942 0.757338 -0.02249
C_ C_ 0.0893899 0.810536 0.752464 0.6875
C_ C_ 0.331921 0.812 0.760564 0.6875
C_ C_ 0.0418396 0.901405 0.792999 -0.11473
C_ C_ 0.283497 0.900151 0.794408 -0.11473
C_ C_ 0.18507 0.848937 0.748965 -0.02249
C_ C_ 0.431228 0.846259 0.752399 -0.02249
C_ C_ 0.232426 0.96381 0.739802 -0.02249
C_ C_ 0.48155 0.960663 0.753324 -0.02249
C_ C_ 0.200929 0.914756 0.778912 -0.11473
C_ C_ 0.449612 0.906896 0.790018 -0.11473
C_ C_ 0.203305 0.855446 0.714473 -0.11473
C_ C_ 0.445219 0.859357 0.716361 -0.11473
C_ C_ 0.187994 0.87618 0.783848 -0.11473
C_ C_ 0.431078 0.871262 0.787802 -0.11473
C_ C_ 0.216965 0.92213 0.741851 -0.02249
C_ C_ 0.464539 0.919916 0.753643 -0.02249
C_ C_ 0.164956 0.811799 0.751145 0.6875
C_ C_ 0.410651 0.808592 0.750239 0.6875
C_ C_ 0.21699 0.893012 0.709356 -0.11473
C_ C_ 0.462289 0.894902 0.717457 -0.11473
C_ C_ 0.186939 0.651999 0.758576 -0.02249
C_ C_ 0.431839 0.658291 0.740222 -0.02249
C_ C_ 0.238837 0.53866 0.751344 -0.02249
C_ C_ 0.479453 0.540838 0.7399 -0.02249
C_ C_ 0.203368 0.585481 0.786207 -0.11473
C_ C_ 0.462643 0.606919 0.777596 -0.11473
C_ C_ 0.204297 0.643878 0.723116 -0.11473
C_ C_ 0.427645 0.628274 0.708236 -0.11473
C_ C_ 0.187646 0.620996 0.789482 -0.11473
C_ C_ 0.452543 0.648153 0.774417 -0.11473
C_ C_ 0.223501 0.579464 0.754378 -0.02249
C_ C_ 0.460627 0.578789 0.742553 -0.02249
C_ C_ 0.167213 0.690976 0.75939 0.6875
C_ C_ 0.408211 0.693316 0.743582 0.6875
C_ C_ 0.221834 0.607991 0.72021 -0.11473
C_ C_ 0.44176 0.589661 0.709328 -0.11473
C_ C_ 0.0709481 0.652837 0.75429 -0.02249
C_ C_ 0.31281 0.653431 0.751995 -0.02249
C_ C_ 0.0160818 0.540046 0.75008 -0.02249
C_ C_ 0.270829 0.535576 0.753688 -0.02249
C_ C_ 0.0378764 0.605013 0.716231 -0.11473
C_ C_ 0.304065 0.587023 0.721067 -0.11473
C_ C_ 0.0685479 0.626307 0.790809 -0.11473
C_ C_ 0.302094 0.637737 0.790659 -0.11473
C_ C_ 0.0564068 0.639114 0.717363 -0.11473
C_ C_ 0.314271 0.628468 0.716127 -0.11473
C_ C_ 0.0329443 0.580367 0.751476 -0.02249
C_ C_ 0.288822 0.574428 0.756129 -0.02249
C_ C_ 0.088905 0.691586 0.754697 0.6875
C_ C_ 0.332535 0.691611 0.751376 0.6875
C_ C_ 0.0503965 0.590088 0.787766 -0.11473
C_ C_ 0.287331 0.599116 0.791138 -0.11473
C_ C_ 0.125488 0.795492 0.878901 0.17695
C_ C_ 0.381375 0.780497 0.87997 0.17695
C_ C_ 0.130794 0.723442 0.885791 0.17695
C_ C_ 0.367992 0.710715 0.873196 0.17695
C_ C_ 0.127775 0.725829 0.929778 -0.11473
C_ C_ 0.367338 0.706 0.918329 -0.11473
C_ C_ 0.121958 0.764137 0.947981 0.23465
C_ C_ 0.375437 0.739809 0.943592 0.23465
C_ C_ 0.120172 0.80033 0.922091 -0.11473
C_ C_ 0.383576 0.777579 0.924259 -0.11473
C_ C_ 0.134451 0.707369 0.633845 0.17695
C_ C_ 0.339598 0.743367 0.626938 0.17695
C_ C_ 0.121092 0.779198 0.629535 0.17695
C_ C_ 0.391163 0.755205 0.61809 0.17695
C_ C_ 0.120514 0.777287 0.583537 -0.11473
C_ C_ 0.388962 0.74771 0.575145 -0.11473
C_ C_ 0.130143 0.740932 0.563445 0.23465
C_ C_ 0.360671 0.745459 0.556646 0.23465
C_ C_ 0.137605 0.707003 0.588951 -0.11473
C_ C_ 0.335888 0.74314 0.582305 -0.11473
C_ C_ 0.0323114 0.00216025 0.759671 0.05793
C_ C_ 0.278384 0.00134303 0.76135 0.05793
C_ C_ 0.222363 0.501493 0.741043 0.05793
C_ C_ 0.465097 0.501482 0.743616 0.05793
Br Br 0.0763781 0.0049123 0.76002 -0.17191
Br Br 0.319509 0.00108762 0.778525 -0.17191
Br Br 0.179416 0.503124 0.72897 -0.17191
Br Br 0.424065 0.498433 0.757274 -0.17191
N_ N_ 0.128991 0.758252 0.860862 -0.272
N_ N_ 0.373742 0.748102 0.855651 -0.272
N_ N_ 0.122836 0.767742 0.993065 -0.12501
N_ N_ 0.370316 0.736422 0.986868 -0.12501
N_ N_ 0.13073 0.744766 0.651981 -0.272
N_ N_ 0.366867 0.751702 0.643936 -0.272
N_ N_ 0.131839 0.738525 0.518811 -0.12501
N_ N_ 0.355543 0.744169 0.512424 -0.12501
O_ O_ 0.0972577 0.796557 0.718144 -0.60745
O_ O_ 0.338082 0.793365 0.725955 -0.60745
O_ O_ 0.0957626 0.791855 0.786542 -0.60745
O_ O_ 0.344198 0.79972 0.793419 -0.60745
O_ O_ 0.158214 0.796857 0.786506 -0.60745
O_ O_ 0.405718 0.790003 0.78463 -0.60745
O_ O_ 0.157231 0.793859 0.717989 -0.60745
O_ O_ 0.400043 0.794897 0.71543 -0.60745
O_ O_ 0.160641 0.705469 0.795895 -0.60745
O_ O_ 0.399495 0.703575 0.778682 -0.60745
O_ O_ 0.159761 0.709076 0.725275 -0.60745
O_ O_ 0.401145 0.714033 0.711449 -0.60745
O_ O_ 0.0958405 0.709001 0.721403 -0.60745
O_ O_ 0.34234 0.705281 0.718052 -0.60745
O_ O_ 0.101857 0.702866 0.788358 -0.60745
O_ O_ 0.336727 0.714382 0.782861 -0.60745
Zn Zn 0.6249 0.246935 0.28816 0.9476
Zn Zn 0.875634 0.251277 0.288405 0.9476
Zn Zn 0.627662 0.245284 0.218313 0.9476
Zn Zn 0.874583 0.246766 0.217222 0.9476
H_ H_ 0.535659 0.410103 0.183098 0.10932
H_ H_ 0.784367 0.421521 0.189395 0.10932
H_ H_ 0.558983 0.346425 0.320912 0.10932
H_ H_ 0.799689 0.341707 0.317495 0.10932
H_ H_ 0.567887 0.349884 0.186522 0.10932
H_ H_ 0.816247 0.359467 0.187657 0.10932
H_ H_ 0.530542 0.412564 0.315015 0.10932
H_ H_ 0.772001 0.4076 0.319309 0.10932
H_ H_ 0.715496 0.413766 0.326055 0.10932
H_ H_ 0.951732 0.438347 0.302164 0.10932
H_ H_ 0.688644 0.350956 0.189473 0.10932
H_ H_ 0.949011 0.336828 0.187624 0.10932
H_ H_ 0.681198 0.359521 0.324775 0.10932
H_ H_ 0.937924 0.359276 0.316471 0.10932
H_ H_ 0.715067 0.415654 0.189712 0.10932
H_ H_ 0.97939 0.400705 0.181145 0.10932
H_ H_ 0.728203 0.0920377 0.316394 0.10932
H_ H_ 0.973813 0.0776275 0.306612 0.10932
H_ H_ 0.671641 0.128331 0.188973 0.10932
H_ H_ 0.921114 0.136928 0.183267 0.10932
H_ H_ 0.701597 0.157156 0.31513 0.10932
H_ H_ 0.948273 0.148589 0.311069 0.10932
H_ H_ 0.698936 0.064586 0.192592 0.10932
H_ H_ 0.948507 0.0741528 0.175765 0.10932
H_ H_ 0.53637 0.0769822 0.179733 0.10932
H_ H_ 0.776261 0.0925353 0.192702 0.10932
H_ H_ 0.580283 0.132219 0.314215 0.10932
H_ H_ 0.827265 0.131348 0.328846 0.10932
H_ H_ 0.562711 0.144725 0.181567 0.10932
H_ H_ 0.813117 0.146708 0.193747 0.10932
H_ H_ 0.552304 0.0626247 0.312135 0.10932
H_ H_ 0.792008 0.074552 0.327611 0.10932
H_ H_ 0.63586 0.18099 0.360132 0.10932
H_ H_ 0.887294 0.185369 0.356812 0.10932
H_ H_ 0.620661 0.307615 0.365063 0.10932
H_ H_ 0.8728 0.316044 0.362743 0.10932
H_ H_ 0.626613 0.306016 0.445958 0.10932
H_ H_ 0.865242 0.311028 0.438102 0.10932
H_ H_ 0.632421 0.175728 0.435275 0.10932
H_ H_ 0.889173 0.183545 0.435816 0.10932
H_ H_ 0.625765 0.184699 0.136974 0.10932
H_ H_ 0.872529 0.317962 0.14208 0.10932
H_ H_ 0.629494 0.315361 0.153035 0.10932
H_ H_ 0.854096 0.189028 0.143621 0.10932
H_ H_ 0.637275 0.326211 0.0735368 0.10932
H_ H_ 0.841886 0.19133 0.0681891 0.10932
H_ H_ 0.626675 0.19333 0.0621834 0.10932
H_ H_ 0.869206 0.318542 0.0655305 0.10932
C_ C_ 0.566414 0.341061 0.254806 -0.02249
C_ C_ 0.811446 0.345819 0.25226 -0.02249
C_ C_ 0.518118 0.459412 0.249849 -0.02249
C_ C_ 0.763571 0.462017 0.254986 -0.02249
C_ C_ 0.54131 0.398251 0.213808 -0.11473
C_ C_ 0.792626 0.408516 0.217313 -0.11473
C_ C_ 0.556822 0.360307 0.290799 -0.11473
C_ C_ 0.798111 0.359847 0.288319 -0.11473
C_ C_ 0.559086 0.361531 0.216025 -0.11473
C_ C_ 0.806081 0.370123 0.215519 -0.11473
C_ C_ 0.534755 0.419143 0.249962 -0.02249
C_ C_ 0.779228 0.42249 0.253563 -0.02249
C_ C_ 0.584903 0.303046 0.258075 0.6875
C_ C_ 0.833427 0.30933 0.252648 0.6875
C_ C_ 0.539869 0.397345 0.288385 -0.11473
C_ C_ 0.781878 0.397934 0.290105 -0.11473
C_ C_ 0.683754 0.346946 0.25676 -0.02249
C_ C_ 0.936291 0.346141 0.251229 -0.02249
C_ C_ 0.731418 0.462665 0.256453 -0.02249
C_ C_ 0.985174 0.461564 0.240323 -0.02249
C_ C_ 0.711221 0.400964 0.294469 -0.11473
C_ C_ 0.953824 0.411599 0.278642 -0.11473
C_ C_ 0.695009 0.363579 0.218715 -0.11473
C_ C_ 0.94837 0.357956 0.212145 -0.11473
C_ C_ 0.691319 0.367657 0.294597 -0.11473
C_ C_ 0.940256 0.372371 0.285459 -0.11473
C_ C_ 0.715656 0.422725 0.25595 -0.02249
C_ C_ 0.970931 0.419862 0.243259 -0.02249
C_ C_ 0.662517 0.309153 0.254019 0.6875
C_ C_ 0.914291 0.310762 0.253122 0.6875
C_ C_ 0.709406 0.402335 0.219032 -0.11473
C_ C_ 0.967781 0.392518 0.208834 -0.11473
C_ C_ 0.684302 0.149007 0.251524 -0.02249
C_ C_ 0.934913 0.150018 0.245769 -0.02249
C_ C_ 0.735402 0.0375226 0.260254 -0.02249
C_ C_ 0.981392 0.0323826 0.235275 -0.02249
C_ C_ 0.716012 0.100856 0.289823 -0.11473
C_ C_ 0.964732 0.0946607 0.27759 -0.11473
C_ C_ 0.68876 0.124335 0.216051 -0.11473
C_ C_ 0.935277 0.12729 0.209216 -0.11473
C_ C_ 0.703513 0.138737 0.285921 -0.11473
C_ C_ 0.950929 0.133984 0.280354 -0.11473
C_ C_ 0.717734 0.0751357 0.25559 -0.02249
C_ C_ 0.964032 0.0715449 0.23993 -0.02249
C_ C_ 0.666733 0.189765 0.248741 0.6875
C_ C_ 0.915524 0.18968 0.249217 0.6875
C_ C_ 0.704263 0.0863873 0.217285 -0.11473
C_ C_ 0.950273 0.0897366 0.20496 -0.11473
C_ C_ 0.574042 0.141683 0.249461 -0.02249
C_ C_ 0.818212 0.151496 0.261185 -0.02249
C_ C_ 0.519839 0.0310611 0.250584 -0.02249
C_ C_ 0.767309 0.0390598 0.258898 -0.02249
C_ C_ 0.545729 0.0896035 0.209666 -0.11473
C_ C_ 0.787325 0.100107 0.223259 -0.11473
C_ C_ 0.568725 0.120063 0.286561 -0.11473
C_ C_ 0.81456 0.127219 0.298431 -0.11473
C_ C_ 0.559734 0.128118 0.211661 -0.11473
C_ C_ 0.806791 0.133163 0.22312 -0.11473
C_ C_ 0.540105 0.0690241 0.248259 -0.02249
C_ C_ 0.784 0.0772776 0.260561 -0.02249
C_ C_ 0.592985 0.18179 0.250148 0.6875
C_ C_ 0.839641 0.18574 0.259879 0.6875
C_ C_ 0.553414 0.0827115 0.285376 -0.11473
C_ C_ 0.793703 0.093461 0.299072 -0.11473
C_ C_ 0.636258 0.211433 0.378388 0.17695
C_ C_ 0.882172 0.214037 0.375676 0.17695
C_ C_ 0.62805 0.281056 0.382075 0.17695
C_ C_ 0.875775 0.286036 0.378496 0.17695
C_ C_ 0.623992 0.278471 0.427109 -0.11473
C_ C_ 0.875652 0.284306 0.42297 -0.11473
C_ C_ 0.62742 0.239706 0.447065 0.23465
C_ C_ 0.877027 0.245763 0.442675 0.23465
C_ C_ 0.632236 0.206612 0.421514 -0.11473
C_ C_ 0.879962 0.209672 0.418716 -0.11473
C_ C_ 0.623108 0.217213 0.12291 0.17695
C_ C_ 0.868345 0.289941 0.125294 0.17695
C_ C_ 0.62899 0.290359 0.131055 0.17695
C_ C_ 0.857571 0.217349 0.126605 0.17695
C_ C_ 0.63027 0.295564 0.0870308 -0.11473
C_ C_ 0.853938 0.216651 0.0829936 -0.11473
C_ C_ 0.626669 0.2612 0.0612466 0.23465
C_ C_ 0.858909 0.253006 0.0604122 0.23465
C_ C_ 0.623803 0.221371 0.0790393 -0.11473
C_ C_ 0.862876 0.29074 0.0818788 -0.11473
C_ C_ 0.534056 0.497372 0.240254 0.05793
C_ C_ 0.778293 0.500402 0.246882 0.05793
C_ C_ 0.720837 0.999887 0.260927 0.05793
C_ C_ 0.966282 0.993321 0.233705 0.05793
Br Br 0.574094 0.495294 0.21709 -0.17191
Br Br 0.822394 0.498672 0.236273 -0.17191
Br Br 0.677292 0.000311977 0.265524 -0.17191
Br Br 0.925923 -0.01102599999999998 0.210043 -0.17191
N_ N_ 0.631559 0.247492 0.358825 -0.272
N_ N_ 0.877073 0.251242 0.356318 -0.272
N_ N_ 0.630406 0.235287 0.490291 -0.12501
N_ N_ 0.8682 0.24126 0.485527 -0.12501
N_ N_ 0.62688 0.25149 0.14804 -0.272
N_ N_ 0.866957 0.252612 0.147085 -0.272
N_ N_ 0.62844 0.266454 0.016973 -0.12501
N_ N_ 0.854191 0.252375 0.0170504 -0.12501
O_ O_ 0.594597 0.285964 0.224875 -0.60745
O_ O_ 0.840783 0.291043 0.218787 -0.60745
O_ O_ 0.589156 0.284683 0.292638 -0.60745
O_ O_ 0.843912 0.297074 0.288071 -0.60745
O_ O_ 0.649729 0.297299 0.287275 -0.60745
O_ O_ 0.904883 0.299239 0.288403 -0.60745
O_ O_ 0.657503 0.28899 0.220716 -0.60745
O_ O_ 0.905338 0.292718 0.219104 -0.60745
O_ O_ 0.661094 0.209906 0.281797 -0.60745
O_ O_ 0.908666 0.205562 0.28523 -0.60745
O_ O_ 0.65682 0.201469 0.214767 -0.60745
O_ O_ 0.904451 0.204079 0.214576 -0.60745
O_ O_ 0.597846 0.201177 0.217168 -0.60745
O_ O_ 0.84511 0.201407 0.224311 -0.60745
O_ O_ 0.603409 0.194544 0.285048 -0.60745
O_ O_ 0.846289 0.207415 0.293389 -0.60745
Zn Zn 0.624346 0.253909 0.786573 0.9476
Zn Zn 0.875919 0.247702 0.788463 0.9476
Zn Zn 0.62298 0.253243 0.716916 0.9476
Zn Zn 0.873095 0.251614 0.717462 0.9476
H_ H_ 0.537569 0.425015 0.675182 0.10932
H_ H_ 0.779601 0.408799 0.68242 0.10932
H_ H_ 0.557757 0.358942 0.812405 0.10932
H_ H_ 0.820869 0.361175 0.817001 0.10932
H_ H_ 0.564415 0.356633 0.678085 0.10932
H_ H_ 0.800904 0.339377 0.68524 0.10932
H_ H_ 0.528105 0.423047 0.807004 0.10932
H_ H_ 0.791287 0.428819 0.814263 0.10932
H_ H_ 0.725031 0.414255 0.812665 0.10932
H_ H_ 0.975739 0.414319 0.814643 0.10932
H_ H_ 0.684013 0.354783 0.681799 0.10932
H_ H_ 0.932691 0.354767 0.684437 0.10932
H_ H_ 0.695236 0.35122 0.814965 0.10932
H_ H_ 0.946855 0.347558 0.818635 0.10932
H_ H_ 0.70896 0.421949 0.674725 0.10932
H_ H_ 0.956131 0.421784 0.68247 0.10932
H_ H_ 0.716124 0.0882231 0.815522 0.10932
H_ H_ 0.96459 0.085266 0.829483 0.10932
H_ H_ 0.676342 0.145576 0.685126 0.10932
H_ H_ 0.950306 0.158032 0.692076 0.10932
H_ H_ 0.689323 0.155268 0.815725 0.10932
H_ H_ 0.930463 0.141703 0.825829 0.10932
H_ H_ 0.710126 0.0802683 0.68296 0.10932
H_ H_ 0.977228 0.0915467 0.696537 0.10932
H_ H_ 0.548046 0.0720681 0.695089 0.10932
H_ H_ 0.782648 0.0831388 0.682647 0.10932
H_ H_ 0.547136 0.160292 0.821885 0.10932
H_ H_ 0.81935 0.138297 0.819183 0.10932
H_ H_ 0.576179 0.134067 0.693391 0.10932
H_ H_ 0.798065 0.156066 0.687394 0.10932
H_ H_ 0.52437 0.0899474 0.822783 0.10932
H_ H_ 0.786965 0.0774653 0.817677 0.10932
H_ H_ 0.613084 0.315391 0.871788 0.10932
H_ H_ 0.92327 0.252961 0.869901 0.10932
H_ H_ 0.625452 0.187662 0.857802 0.10932
H_ H_ 0.828419 0.246565 0.862077 0.10932
H_ H_ 0.630229 0.182549 0.938168 0.10932
H_ H_ 0.825463 0.258739 0.939567 0.10932
H_ H_ 0.604504 0.308424 0.945687 0.10932
H_ H_ 0.922514 0.265875 0.946251 0.10932
H_ H_ 0.625646 0.192189 0.643442 0.10932
H_ H_ 0.87852 0.317009 0.64937 0.10932
H_ H_ 0.618574 0.322062 0.646292 0.10932
H_ H_ 0.865559 0.188285 0.637402 0.10932
H_ H_ 0.631347 0.326206 0.567646 0.10932
H_ H_ 0.86542 0.194307 0.564536 0.10932
H_ H_ 0.635711 0.193125 0.567597 0.10932
H_ H_ 0.880108 0.321454 0.570167 0.10932
C_ C_ 0.56728 0.35476 0.745347 -0.02249
C_ C_ 0.814839 0.347541 0.751449 -0.02249
C_ C_ 0.513935 0.466947 0.73677 -0.02249
C_ C_ 0.769017 0.463803 0.74788 -0.02249
C_ C_ 0.543035 0.409888 0.704921 -0.11473
C_ C_ 0.78822 0.398533 0.711838 -0.11473
C_ C_ 0.55556 0.372804 0.782354 -0.11473
C_ C_ 0.812413 0.372939 0.787137 -0.11473
C_ C_ 0.559602 0.373932 0.706051 -0.11473
C_ C_ 0.801925 0.360354 0.713333 -0.11473
C_ C_ 0.532216 0.427971 0.741119 -0.02249
C_ C_ 0.782678 0.422669 0.748688 -0.02249
C_ C_ 0.584304 0.313396 0.746487 0.6875
C_ C_ 0.834099 0.310082 0.7491 0.6875
C_ C_ 0.537963 0.408577 0.780501 -0.11473
C_ C_ 0.795083 0.408432 0.786136 -0.11473
C_ C_ 0.684737 0.350429 0.74673 -0.02249
C_ C_ 0.934439 0.347806 0.752172 -0.02249
C_ C_ 0.737029 0.464985 0.744724 -0.02249
C_ C_ 0.985949 0.462465 0.748061 -0.02249
C_ C_ 0.713053 0.40571 0.783032 -0.11473
C_ C_ 0.966509 0.39989 0.787193 -0.11473
C_ C_ 0.692354 0.368527 0.708686 -0.11473
C_ C_ 0.941763 0.367624 0.71411 -0.11473
C_ C_ 0.696923 0.366874 0.783354 -0.11473
C_ C_ 0.946516 0.367259 0.789372 -0.11473
C_ C_ 0.719598 0.425566 0.743167 -0.02249
C_ C_ 0.969415 0.421795 0.748427 -0.02249
C_ C_ 0.66533 0.310525 0.749924 0.6875
C_ C_ 0.914417 0.310232 0.751505 0.6875
C_ C_ 0.707983 0.405939 0.706257 -0.11473
C_ C_ 0.955406 0.405798 0.71181 -0.11473
C_ C_ 0.682879 0.157424 0.748958 -0.02249
C_ C_ 0.935322 0.154941 0.760892 -0.02249
C_ C_ 0.732442 0.0394602 0.749096 -0.02249
C_ C_ 0.985208 0.0407319 0.761692 -0.02249
C_ C_ 0.708982 0.100771 0.786007 -0.11473
C_ C_ 0.956532 0.0954456 0.799203 -0.11473
C_ C_ 0.688775 0.136209 0.711516 -0.11473
C_ C_ 0.950452 0.141615 0.72427 -0.11473
C_ C_ 0.694346 0.140206 0.785277 -0.11473
C_ C_ 0.941591 0.133266 0.798372 -0.11473
C_ C_ 0.716802 0.0807268 0.748795 -0.02249
C_ C_ 0.96883 0.0804554 0.7622 -0.02249
C_ C_ 0.662058 0.193245 0.750339 0.6875
C_ C_ 0.914709 0.192074 0.762441 0.6875
C_ C_ 0.706128 0.0983308 0.711842 -0.11473
C_ C_ 0.965238 0.102732 0.723409 -0.11473
C_ C_ 0.565075 0.153641 0.758063 -0.02249
C_ C_ 0.813458 0.151285 0.75171 -0.02249
C_ C_ 0.515207 0.0371738 0.759916 -0.02249
C_ C_ 0.764153 0.0366362 0.745038 -0.02249
C_ C_ 0.548493 0.0917618 0.72299 -0.11473
C_ C_ 0.789193 0.0971853 0.712433 -0.11473
C_ C_ 0.550418 0.140125 0.79485 -0.11473
C_ C_ 0.809102 0.127709 0.790155 -0.11473
C_ C_ 0.564599 0.127953 0.723882 -0.11473
C_ C_ 0.801297 0.136916 0.71365 -0.11473
C_ C_ 0.533767 0.0764998 0.760044 -0.02249
C_ C_ 0.782096 0.0763934 0.749229 -0.02249
C_ C_ 0.582782 0.193869 0.754 0.6875
C_ C_ 0.833932 0.188872 0.7527 0.6875
C_ C_ 0.533724 0.103143 0.794985 -0.11473
C_ C_ 0.792398 0.0911412 0.78845 -0.11473
C_ C_ 0.619621 0.287059 0.885083 0.17695
C_ C_ 0.901863 0.252077 0.885833 0.17695
C_ C_ 0.623149 0.215189 0.877657 0.17695
C_ C_ 0.848648 0.247199 0.881573 0.17695
C_ C_ 0.624719 0.210781 0.92084 -0.11473
C_ C_ 0.847632 0.252735 0.926394 -0.11473
C_ C_ 0.621879 0.245229 0.947122 0.23465
C_ C_ 0.874194 0.259081 0.950708 0.23465
C_ C_ 0.613712 0.28285 0.928242 -0.11473
C_ C_ 0.90162 0.259491 0.929687 -0.11473
C_ C_ 0.624444 0.219882 0.626425 0.17695
C_ C_ 0.87858 0.28982 0.629734 0.17695
C_ C_ 0.623702 0.292712 0.627739 0.17695
C_ C_ 0.872436 0.217828 0.623213 0.17695
C_ C_ 0.629527 0.296114 0.58376 -0.11473
C_ C_ 0.868909 0.22099 0.580494 -0.11473
C_ C_ 0.630608 0.260314 0.560746 0.23465
C_ C_ 0.873978 0.258803 0.558732 0.23465
C_ C_ 0.627695 0.22266 0.582587 -0.11473
C_ C_ 0.875461 0.29271 0.58604 -0.11473
C_ C_ 0.527591 0.50618 0.736154 0.05793
C_ C_ 0.786043 0.501961 0.75123 0.05793
C_ C_ 0.71739 0.00168799 0.751791 0.05793
C_ C_ 0.968763 0.0029246 0.761989 0.05793
Br Br 0.569931 0.507283 0.731432 -0.17191
Br Br 0.830618 0.500959 0.757476 -0.17191
Br Br 0.673314 0.00230868 0.758348 -0.17191
Br Br 0.9261 0.00358805 0.766987 -0.17191
N_ N_ 0.62191 0.253028 0.859621 -0.272
N_ N_ 0.876105 0.245407 0.862773 -0.272
N_ N_ 0.62092 0.238363 0.991584 -0.12501
N_ N_ 0.872636 0.269993 0.994418 -0.12501
N_ N_ 0.617927 0.255688 0.646589 -0.272
N_ N_ 0.874765 0.253473 0.647483 -0.272
N_ N_ 0.627408 0.265907 0.514914 -0.12501
N_ N_ 0.882864 0.259173 0.515233 -0.12501
O_ O_ 0.597444 0.302073 0.713852 -0.60745
O_ O_ 0.842899 0.29873 0.715137 -0.60745
O_ O_ 0.592148 0.300385 0.782609 -0.60745
O_ O_ 0.842896 0.290414 0.782167 -0.60745
O_ O_ 0.654975 0.299312 0.785577 -0.60745
O_ O_ 0.907914 0.290744 0.785601 -0.60745
O_ O_ 0.655921 0.29401 0.715553 -0.60745
O_ O_ 0.904024 0.296547 0.716839 -0.60745
O_ O_ 0.652932 0.206809 0.784297 -0.60745
O_ O_ 0.907043 0.206179 0.799127 -0.60745
O_ O_ 0.652655 0.208619 0.716807 -0.60745
O_ O_ 0.90241 0.206476 0.728827 -0.60745
O_ O_ 0.58884 0.208449 0.718561 -0.60745
O_ O_ 0.841294 0.205942 0.718657 -0.60745
O_ O_ 0.59363 0.212453 0.784774 -0.60745
O_ O_ 0.842491 0.205194 0.786693 -0.60745
Zn Zn 0.626127 0.749279 0.290248 0.9476
Zn Zn 0.873701 0.747644 0.2855 0.9476
Zn Zn 0.627171 0.748873 0.217948 0.9476
Zn Zn 0.871137 0.748881 0.216122 0.9476
H_ H_ 0.53954 0.917586 0.180241 0.10932
H_ H_ 0.789174 0.924476 0.193025 0.10932
H_ H_ 0.545162 0.834081 0.30965 0.10932
H_ H_ 0.809342 0.843914 0.32342 0.10932
H_ H_ 0.570784 0.855845 0.184288 0.10932
H_ H_ 0.803637 0.850988 0.187017 0.10932
H_ H_ 0.517516 0.901517 0.311303 0.10932
H_ H_ 0.788907 0.91315 0.328855 0.10932
H_ H_ 0.715747 0.919235 0.328695 0.10932
H_ H_ 0.949592 0.92877 0.307182 0.10932
H_ H_ 0.695084 0.848845 0.193344 0.10932
H_ H_ 0.951937 0.829077 0.185958 0.10932
H_ H_ 0.689631 0.853786 0.327565 0.10932
H_ H_ 0.921032 0.865391 0.308256 0.10932
H_ H_ 0.714536 0.918183 0.190388 0.10932
H_ H_ 0.970275 0.902535 0.174602 0.10932
H_ H_ 0.710886 0.57814 0.322937 0.10932
H_ H_ 0.972967 0.589743 0.31285 0.10932
H_ H_ 0.679352 0.642351 0.187764 0.10932
H_ H_ 0.930553 0.645528 0.181409 0.10932
H_ H_ 0.690807 0.649357 0.324876 0.10932
H_ H_ 0.948653 0.654749 0.315366 0.10932
H_ H_ 0.708165 0.5782 0.18506 0.10932
H_ H_ 0.958569 0.579762 0.178371 0.10932
H_ H_ 0.550537 0.571798 0.179102 0.10932
H_ H_ 0.780822 0.585537 0.182327 0.10932
H_ H_ 0.557519 0.64777 0.309396 0.10932
H_ H_ 0.821363 0.639324 0.318089 0.10932
H_ H_ 0.575825 0.635968 0.179472 0.10932
H_ H_ 0.807759 0.654151 0.186052 0.10932
H_ H_ 0.535007 0.581916 0.311443 0.10932
H_ H_ 0.785474 0.577825 0.31815 0.10932
H_ H_ 0.62978 0.681159 0.359862 0.10932
H_ H_ 0.87256 0.81876 0.358109 0.10932
H_ H_ 0.613898 0.808352 0.368866 0.10932
H_ H_ 0.862352 0.69017 0.367745 0.10932
H_ H_ 0.611057 0.803873 0.44586 0.10932
H_ H_ 0.868654 0.694227 0.444376 0.10932
H_ H_ 0.627643 0.673869 0.440983 0.10932
H_ H_ 0.882396 0.823006 0.433273 0.10932
H_ H_ 0.633374 0.691714 0.142771 0.10932
H_ H_ 0.86859 0.680581 0.150073 0.10932
H_ H_ 0.634299 0.8198 0.150266 0.10932
H_ H_ 0.866206 0.813015 0.132011 0.10932
H_ H_ 0.630607 0.826129 0.0703896 0.10932
H_ H_ 0.865248 0.804235 0.0592855 0.10932
H_ H_ 0.636352 0.693994 0.0648554 0.10932
H_ H_ 0.874838 0.673035 0.0722551 0.10932
C_ C_ 0.561524 0.838658 0.249487 -0.02249
C_ C_ 0.811147 0.845558 0.255828 -0.02249
C_ C_ 0.513978 0.954794 0.246511 -0.02249
C_ C_ 0.768004 0.961502 0.265747 -0.02249
C_ C_ 0.540539 0.898939 0.210419 -0.11473
C_ C_ 0.790559 0.905517 0.220994 -0.11473
C_ C_ 0.54413 0.851532 0.284354 -0.11473
C_ C_ 0.805995 0.862025 0.293981 -0.11473
C_ C_ 0.557759 0.861993 0.21172 -0.11473
C_ C_ 0.801205 0.865592 0.219099 -0.11473
C_ C_ 0.528713 0.91426 0.2463 -0.02249
C_ C_ 0.785477 0.922567 0.261343 -0.02249
C_ C_ 0.586119 0.806025 0.253326 0.6875
C_ C_ 0.832454 0.808474 0.253016 0.6875
C_ C_ 0.528996 0.889751 0.283859 -0.11473
C_ C_ 0.792579 0.899426 0.298098 -0.11473
C_ C_ 0.686733 0.848179 0.261185 -0.02249
C_ C_ 0.93162 0.844355 0.246255 -0.02249
C_ C_ 0.736334 0.962849 0.260161 -0.02249
C_ C_ 0.982598 0.957159 0.240823 -0.02249
C_ C_ 0.711401 0.905288 0.298376 -0.11473
C_ C_ 0.952238 0.908095 0.280076 -0.11473
C_ C_ 0.69879 0.86422 0.222309 -0.11473
C_ C_ 0.948509 0.85343 0.209747 -0.11473
C_ C_ 0.694553 0.869301 0.298575 -0.11473
C_ C_ 0.935564 0.87053 0.281587 -0.11473
C_ C_ 0.718571 0.924007 0.260059 -0.02249
C_ C_ 0.966883 0.917429 0.243751 -0.02249
C_ C_ 0.669659 0.808515 0.261718 0.6875
C_ C_ 0.913311 0.806316 0.24919 0.6875
C_ C_ 0.710569 0.904752 0.220827 -0.11473
C_ C_ 0.963945 0.892071 0.206509 -0.11473
C_ C_ 0.684143 0.653002 0.254829 -0.02249
C_ C_ 0.933648 0.652543 0.248246 -0.02249
C_ C_ 0.731354 0.537062 0.255105 -0.02249
C_ C_ 0.984343 0.538964 0.247156 -0.02249
C_ C_ 0.708334 0.596676 0.291569 -0.11473
C_ C_ 0.965489 0.601947 0.28331 -0.11473
C_ C_ 0.689085 0.633184 0.216961 -0.11473
C_ C_ 0.94066 0.632927 0.209648 -0.11473
C_ C_ 0.694087 0.635491 0.2927 -0.11473
C_ C_ 0.948367 0.63845 0.284577 -0.11473
C_ C_ 0.71602 0.577894 0.254848 -0.02249
C_ C_ 0.967429 0.578734 0.247056 -0.02249
C_ C_ 0.666881 0.692011 0.25462 0.6875
C_ C_ 0.91483 0.692415 0.24947 0.6875
C_ C_ 0.704964 0.594774 0.216317 -0.11473
C_ C_ 0.955329 0.595368 0.208544 -0.11473
C_ C_ 0.572603 0.647555 0.246584 -0.02249
C_ C_ 0.819305 0.647397 0.251275 -0.02249
C_ C_ 0.519726 0.534037 0.243707 -0.02249
C_ C_ 0.762135 0.537414 0.250683 -0.02249
C_ C_ 0.55271 0.588203 0.209437 -0.11473
C_ C_ 0.789562 0.596502 0.212211 -0.11473
C_ C_ 0.560166 0.62902 0.282828 -0.11473
C_ C_ 0.812202 0.627047 0.290117 -0.11473
C_ C_ 0.566615 0.626238 0.207989 -0.11473
C_ C_ 0.804902 0.634519 0.213769 -0.11473
C_ C_ 0.539834 0.570529 0.244738 -0.02249
C_ C_ 0.780225 0.577452 0.249827 -0.02249
C_ C_ 0.587998 0.686342 0.246913 0.6875
C_ C_ 0.835977 0.685982 0.24949 0.6875
C_ C_ 0.543989 0.592616 0.28201 -0.11473
C_ C_ 0.790558 0.595039 0.289159 -0.11473
C_ C_ 0.627382 0.706753 0.379694 0.17695
C_ C_ 0.878635 0.790878 0.374425 0.17695
C_ C_ 0.61938 0.778861 0.383569 0.17695
C_ C_ 0.868919 0.718334 0.382338 0.17695
C_ C_ 0.61808 0.777164 0.427755 -0.11473
C_ C_ 0.869864 0.722601 0.426561 -0.11473
C_ C_ 0.621941 0.738347 0.448217 0.23465
C_ C_ 0.875905 0.760387 0.44482 0.23465
C_ C_ 0.62696 0.703455 0.42445 -0.11473
C_ C_ 0.880552 0.793823 0.418804 -0.11473
C_ C_ 0.628696 0.719588 0.126817 0.17695
C_ C_ 0.866858 0.708201 0.128383 0.17695
C_ C_ 0.632776 0.792688 0.131449 0.17695
C_ C_ 0.867719 0.780146 0.119866 0.17695
C_ C_ 0.63146 0.795814 0.0870318 -0.11473
C_ C_ 0.867275 0.777493 0.0762454 -0.11473
C_ C_ 0.629882 0.759802 0.0612491 0.23465
C_ C_ 0.867201 0.737714 0.058884 0.23465
C_ C_ 0.630588 0.720899 0.0816822 -0.11473
C_ C_ 0.869041 0.7027 0.0864044 -0.11473
C_ C_ 0.531789 0.990601 0.247717 0.05793
C_ C_ 0.782869 0.999505 0.264347 0.05793
C_ C_ 0.714284 0.50056 0.254711 0.05793
C_ C_ 0.968278 0.500375 0.243056 0.05793
Br Br 0.575178 0.984523 0.239496 -0.17191
Br Br 0.827206 1.00191384 0.261429 -0.17191
Br Br 0.675159 0.498258 0.276141 -0.17191
Br Br 0.92504 0.502271 0.228849 -0.17191
N_ N_ 0.623607 0.744013 0.360674 -0.272
N_ N_ 0.874819 0.752942 0.356698 -0.272
N_ N_ 0.621761 0.73296 0.492054 -0.12501
N_ N_ 0.877883 0.766408 0.489315 -0.12501
N_ N_ 0.629173 0.755909 0.149582 -0.272
N_ N_ 0.868313 0.746637 0.145251 -0.272
N_ N_ 0.633163 0.763429 0.0161505 -0.12501
N_ N_ 0.867233 0.732455 0.0155172 -0.12501
O_ O_ 0.597195 0.794046 0.218177 -0.60745
O_ O_ 0.838114 0.791231 0.217653 -0.60745
O_ O_ 0.595993 0.792546 0.28934 -0.60745
O_ O_ 0.841439 0.789111 0.285019 -0.60745
O_ O_ 0.658838 0.795676 0.29543 -0.60745
O_ O_ 0.905736 0.791078 0.282975 -0.60745
O_ O_ 0.661421 0.792039 0.226473 -0.60745
O_ O_ 0.899469 0.795003 0.216002 -0.60745
O_ O_ 0.65621 0.707399 0.285855 -0.60745
O_ O_ 0.905281 0.705927 0.283828 -0.60745
O_ O_ 0.658529 0.706301 0.219002 -0.60745
O_ O_ 0.904232 0.708713 0.216038 -0.60745
O_ O_ 0.594601 0.707101 0.214404 -0.60745
O_ O_ 0.845172 0.701224 0.216109 -0.60745
O_ O_ 0.593584 0.703713 0.281968 -0.60745
O_ O_ 0.840699 0.704864 0.281919 -0.60745
Zn Zn 0.625659 0.752482 0.788203 0.9476
Zn Zn 0.878714 0.751415 0.788993 0.9476
Zn Zn 0.625298 0.752387 0.717957 0.9476
Zn Zn 0.87512 0.753741 0.719835 0.9476
H_ H_ 0.534593 0.925747 0.691248 0.10932
H_ H_ 0.771092 0.901881 0.684801 0.10932
H_ H_ 0.559027 0.845295 0.819862 0.10932
H_ H_ 0.83088 0.870999 0.812551 0.10932
H_ H_ 0.565238 0.85875 0.686319 0.10932
H_ H_ 0.799773 0.839962 0.688242 0.10932
H_ H_ 0.528836 0.908967 0.824794 0.10932
H_ H_ 0.795815 0.930628 0.812816 0.10932
H_ H_ 0.710973 0.92853 0.8194 0.10932
H_ H_ 0.956822 0.927358 0.822078 0.10932
H_ H_ 0.698453 0.839844 0.691919 0.10932
H_ H_ 0.95023 0.847491 0.68808 0.10932
H_ H_ 0.68782 0.857176 0.823807 0.10932
H_ H_ 0.927496 0.861983 0.819516 0.10932
H_ H_ 0.716937 0.91182 0.686714 0.10932
H_ H_ 0.969836 0.919686 0.688422 0.10932
H_ H_ 0.709192 0.575634 0.819317 0.10932
H_ H_ 0.956966 0.568057 0.816942 0.10932
H_ H_ 0.700075 0.665768 0.692157 0.10932
H_ H_ 0.945973 0.659192 0.692291 0.10932
H_ H_ 0.673709 0.632652 0.818574 0.10932
H_ H_ 0.92701 0.634002 0.820625 0.10932
H_ H_ 0.728915 0.59527 0.689005 0.10932
H_ H_ 0.972002 0.592861 0.686874 0.10932
H_ H_ 0.509754 0.609392 0.683452 0.10932
H_ H_ 0.796746 0.580515 0.689097 0.10932
H_ H_ 0.579768 0.630372 0.806855 0.10932
H_ H_ 0.812874 0.646102 0.828422 0.10932
H_ H_ 0.544679 0.669658 0.684004 0.10932
H_ H_ 0.812665 0.649878 0.692822 0.10932
H_ H_ 0.543514 0.573231 0.804769 0.10932
H_ H_ 0.77911 0.586162 0.820742 0.10932
H_ H_ 0.619708 0.686077 0.85821 0.10932
H_ H_ 0.884486 0.689435 0.866805 0.10932
H_ H_ 0.626762 0.816453 0.86495 0.10932
H_ H_ 0.869893 0.817839 0.859103 0.10932
H_ H_ 0.621824 0.813913 0.941424 0.10932
H_ H_ 0.879393 0.824963 0.940059 0.10932
H_ H_ 0.615905 0.682599 0.936469 0.10932
H_ H_ 0.872774 0.691285 0.941572 0.10932
H_ H_ 0.625448 0.68629 0.640504 0.10932
H_ H_ 0.867514 0.81424 0.642624 0.10932
H_ H_ 0.626129 0.818285 0.649178 0.10932
H_ H_ 0.859783 0.68508 0.650724 0.10932
H_ H_ 0.621274 0.824143 0.571091 0.10932
H_ H_ 0.863723 0.678683 0.573668 0.10932
H_ H_ 0.620595 0.692285 0.564104 0.10932
H_ H_ 0.871116 0.809594 0.561876 0.10932
C_ C_ 0.565766 0.849082 0.752796 -0.02249
C_ C_ 0.818677 0.851938 0.750141 -0.02249
C_ C_ 0.513375 0.961041 0.760633 -0.02249
C_ C_ 0.764325 0.962376 0.744806 -0.02249
C_ C_ 0.537671 0.904984 0.717547 -0.11473
C_ C_ 0.783946 0.896254 0.712559 -0.11473
C_ C_ 0.555197 0.862704 0.7912 -0.11473
C_ C_ 0.81628 0.876851 0.786201 -0.11473
C_ C_ 0.557091 0.869391 0.715588 -0.11473
C_ C_ 0.799397 0.86056 0.714573 -0.11473
C_ C_ 0.530762 0.920871 0.756424 -0.02249
C_ C_ 0.780915 0.921959 0.747394 -0.02249
C_ C_ 0.587085 0.814237 0.752545 0.6875
C_ C_ 0.83909 0.815668 0.749646 0.6875
C_ C_ 0.538174 0.89923 0.793342 -0.11473
C_ C_ 0.797433 0.912446 0.784824 -0.11473
C_ C_ 0.687961 0.846129 0.758347 -0.02249
C_ C_ 0.935261 0.851228 0.754088 -0.02249
C_ C_ 0.732714 0.96258 0.748605 -0.02249
C_ C_ 0.984672 0.965651 0.75677 -0.02249
C_ C_ 0.706761 0.908286 0.790514 -0.11473
C_ C_ 0.954647 0.908568 0.791769 -0.11473
C_ C_ 0.700131 0.85917 0.719532 -0.11473
C_ C_ 0.947972 0.866787 0.716741 -0.11473
C_ C_ 0.692336 0.869621 0.794242 -0.11473
C_ C_ 0.938177 0.873034 0.790842 -0.11473
C_ C_ 0.716915 0.922008 0.751037 -0.02249
C_ C_ 0.96738 0.926219 0.755536 -0.02249
C_ C_ 0.666085 0.811488 0.757529 0.6875
C_ C_ 0.916298 0.813115 0.754368 0.6875
C_ C_ 0.711008 0.899374 0.716478 -0.11473
C_ C_ 0.962899 0.90524 0.718459 -0.11473
C_ C_ 0.683589 0.651083 0.75318 -0.02249
C_ C_ 0.931299 0.650257 0.7568 -0.02249
C_ C_ 0.739028 0.540839 0.752023 -0.02249
C_ C_ 0.983877 0.538153 0.751528 -0.02249
C_ C_ 0.704343 0.59176 0.789672 -0.11473
C_ C_ 0.954542 0.587754 0.789446 -0.11473
C_ C_ 0.700627 0.643203 0.717904 -0.11473
C_ C_ 0.945693 0.637468 0.719061 -0.11473
C_ C_ 0.685843 0.625806 0.788947 -0.11473
C_ C_ 0.937669 0.625422 0.79165 -0.11473
C_ C_ 0.720578 0.581317 0.753119 -0.02249
C_ C_ 0.966814 0.577046 0.752381 -0.02249
C_ C_ 0.666122 0.690695 0.754636 0.6875
C_ C_ 0.912892 0.688691 0.759678 0.6875
C_ C_ 0.718337 0.606496 0.716512 -0.11473
C_ C_ 0.961216 0.600863 0.716168 -0.11473
C_ C_ 0.566494 0.653405 0.745165 -0.02249
C_ C_ 0.814059 0.657647 0.759939 -0.02249
C_ C_ 0.511237 0.543597 0.738002 -0.02249
C_ C_ 0.769936 0.54008 0.756031 -0.02249
C_ C_ 0.528541 0.611959 0.707297 -0.11473
C_ C_ 0.798653 0.594002 0.719972 -0.11473
C_ C_ 0.565544 0.625939 0.77851 -0.11473
C_ C_ 0.805811 0.635595 0.798424 -0.11473
C_ C_ 0.547748 0.646132 0.709101 -0.11473
C_ C_ 0.810439 0.634222 0.721705 -0.11473
C_ C_ 0.527084 0.584866 0.742232 -0.02249
C_ C_ 0.785264 0.578685 0.755885 -0.02249
C_ C_ 0.585966 0.692886 0.747478 0.6875
C_ C_ 0.837029 0.692356 0.758018 0.6875
C_ C_ 0.544271 0.592756 0.777191 -0.11473
C_ C_ 0.789522 0.599322 0.793403 -0.11473
C_ C_ 0.622122 0.715326 0.877321 0.17695
C_ C_ 0.878306 0.718364 0.881328 0.17695
C_ C_ 0.62311 0.787541 0.880411 0.17695
C_ C_ 0.877052 0.791791 0.878807 0.17695
C_ C_ 0.619504 0.786035 0.924253 -0.11473
C_ C_ 0.881362 0.794301 0.923277 -0.11473
C_ C_ 0.61822 0.74911 0.946628 0.23465
C_ C_ 0.877213 0.758577 0.946637 0.23465
C_ C_ 0.617618 0.712797 0.920971 -0.11473
C_ C_ 0.876351 0.719428 0.924579 -0.11473
C_ C_ 0.624973 0.718208 0.627004 0.17695
C_ C_ 0.871618 0.785153 0.626355 0.17695
C_ C_ 0.625932 0.790471 0.630779 0.17695
C_ C_ 0.865107 0.712957 0.630785 0.17695
C_ C_ 0.621172 0.793799 0.587945 -0.11473
C_ C_ 0.866376 0.709029 0.587522 -0.11473
C_ C_ 0.621737 0.758503 0.563276 0.23465
C_ C_ 0.871161 0.743666 0.56129 0.23465
C_ C_ 0.622099 0.720338 0.583303 -0.11473
C_ C_ 0.87028 0.7837 0.581928 -0.11473
C_ C_ 0.529178 -0.0019879999999999898 0.764746 0.05793
C_ C_ 0.778765 -0.0009449999999999736 0.733409 0.05793
C_ C_ 0.723013 0.504397 0.74023 0.05793
C_ C_ 0.968992 0.499971 0.753349 0.05793
Br Br 0.572527 -0.00245799999999996 0.775792 -0.17191
Br Br 0.818448 0.995848 0.710533 -0.17191
Br Br 0.682427 0.50735 0.726604 -0.17191
Br Br 0.926901 0.496779 0.752779 -0.17191
N_ N_ 0.62374 0.752104 0.85843 -0.272
N_ N_ 0.878257 0.754969 0.85902 -0.272
N_ N_ 0.614591 0.74839 0.990502 -0.12501
N_ N_ 0.878938 0.760402 0.992609 -0.12501
N_ N_ 0.627884 0.752878 0.65 -0.272
N_ N_ 0.871676 0.749567 0.650113 -0.272
N_ N_ 0.618778 0.762074 0.517604 -0.12501
N_ N_ 0.869208 0.73938 0.515649 -0.12501
O_ O_ 0.59783 0.801626 0.719594 -0.60745
O_ O_ 0.846811 0.80058 0.715542 -0.60745
O_ O_ 0.594213 0.793704 0.785835 -0.60745
O_ O_ 0.849063 0.798998 0.782304 -0.60745
O_ O_ 0.656179 0.797817 0.792931 -0.60745
O_ O_ 0.910016 0.796543 0.79002 -0.60745
O_ O_ 0.65651 0.795537 0.723162 -0.60745
O_ O_ 0.907949 0.797945 0.720625 -0.60745
O_ O_ 0.659387 0.707615 0.789052 -0.60745
O_ O_ 0.908929 0.706394 0.793791 -0.60745
O_ O_ 0.654863 0.704525 0.720057 -0.60745
O_ O_ 0.902958 0.704869 0.72549 -0.60745
O_ O_ 0.592916 0.711149 0.714253 -0.60745
O_ O_ 0.842468 0.710304 0.72351 -0.60745
O_ O_ 0.596508 0.705061 0.783181 -0.60745
O_ O_ 0.845016 0.709025 0.791856 -0.60745
_cell_length_a 44.444
_cell_length_b 32.3360000049186
_cell_length_c 31.843999878906452
_cell_angle_alpha 89.99799923859553
_cell_angle_beta 91.13600050494348
_cell_angle_gamma 89.9990006550086
_symmetry_space_group_name_H-M         'P 1'
_symmetry_Int_Tables_number            1
loop_
_symmetry_equiv_pos_as_xyz
   'x, y, z'
                         
loop_
_atom_site_label
_atom_site_type_symbol
_atom_site_fract_x 
_atom_site_fract_y
_atom_site_fract_z
_atom_site_charge
Zn Zn 0.123907 0.250364 0.279691 0.9476
Zn Zn 0.37911 0.248012 0.280947 0.9476
Zn Zn 0.120851 0.250094 0.208881 0.9476
Zn Zn 0.377829 0.247299 0.211657 0.9476
H_ H_ 0.0441338 0.4263 0.177782 0.10932
H_ H_ 0.265298 0.390636 0.179964 0.10932
H_ H_ 0.0611033 0.349963 0.310533 0.10932
H_ H_ 0.321896 0.365004 0.313181 0.10932
H_ H_ 0.0709685 0.357498 0.179303 0.10932
H_ H_ 0.305188 0.339546 0.184067 0.10932
H_ H_ 0.0366631 0.416595 0.311504 0.10932
H_ H_ 0.287679 0.425588 0.306931 0.10932
H_ H_ 0.210516 0.419305 0.31449 0.10932
H_ H_ 0.472003 0.407393 0.322323 0.10932
H_ H_ 0.1766 0.359812 0.180871 0.10932
H_ H_ 0.437404 0.358911 0.182576 0.10932
H_ H_ 0.184802 0.350745 0.313284 0.10932
H_ H_ 0.441618 0.345715 0.321558 0.10932
H_ H_ 0.211949 0.420834 0.180065 0.10932
H_ H_ 0.46433 0.422371 0.187113 0.10932
H_ H_ 0.225417 0.0963263 0.31064 0.10932
H_ H_ 0.476585 0.0894067 0.320676 0.10932
H_ H_ 0.17368 0.132789 0.178253 0.10932
H_ H_ 0.422461 0.126691 0.191863 0.10932
H_ H_ 0.20128 0.161085 0.305329 0.10932
H_ H_ 0.45573 0.159842 0.317598 0.10932
H_ H_ 0.201886 0.0684897 0.183322 0.10932
H_ H_ 0.456404 0.0673486 0.191543 0.10932
H_ H_ 0.0334442 0.0775507 0.172055 0.10932
H_ H_ 0.287155 0.0808846 0.172388 0.10932
H_ H_ 0.0564596 0.151902 0.306782 0.10932
H_ H_ 0.312728 0.146133 0.30994 0.10932
H_ H_ 0.0630395 0.144071 0.172274 0.10932
H_ H_ 0.313665 0.146778 0.171711 0.10932
H_ H_ 0.027489 0.085553 0.304242 0.10932
H_ H_ 0.282143 0.0804871 0.303659 0.10932
H_ H_ 0.103457 0.304822 0.358136 0.10932
H_ H_ 0.383772 0.308723 0.363501 0.10932
H_ H_ 0.144723 0.187841 0.349829 0.10932
H_ H_ 0.371379 0.182354 0.34812 0.10932
H_ H_ 0.147641 0.182637 0.42737 0.10932
H_ H_ 0.374493 0.172676 0.427854 0.10932
H_ H_ 0.111328 0.303735 0.436965 0.10932
H_ H_ 0.380252 0.302688 0.443376 0.10932
H_ H_ 0.119858 0.314823 0.126443 0.10932
H_ H_ 0.356964 0.313428 0.142986 0.10932
H_ H_ 0.122722 0.183498 0.139358 0.10932
H_ H_ 0.392874 0.193412 0.135011 0.10932
H_ H_ 0.124062 0.176013 0.0595918 0.10932
H_ H_ 0.398849 0.203326 0.0592342 0.10932
H_ H_ 0.110314 0.306632 0.0517196 0.10932
H_ H_ 0.3538 0.318132 0.0631092 0.10932
C_ C_ 0.0691709 0.349365 0.245116 -0.02249
C_ C_ 0.315553 0.347946 0.249431 -0.02249
C_ C_ 0.0176722 0.464171 0.244898 -0.02249
C_ C_ 0.26231 0.457583 0.239996 -0.02249
C_ C_ 0.0463975 0.407617 0.205982 -0.11473
C_ C_ 0.279316 0.388951 0.208553 -0.11473
C_ C_ 0.0580937 0.365959 0.280734 -0.11473
C_ C_ 0.308962 0.371784 0.284345 -0.11473
C_ C_ 0.0609661 0.368623 0.206848 -0.11473
C_ C_ 0.300209 0.356325 0.210713 -0.11473
C_ C_ 0.0367356 0.425434 0.24354 -0.02249
C_ C_ 0.276424 0.416366 0.243091 -0.02249
C_ C_ 0.0820116 0.307873 0.246278 0.6875
C_ C_ 0.33821 0.312228 0.250332 0.6875
C_ C_ 0.0445489 0.405608 0.282106 -0.11473
C_ C_ 0.288643 0.404503 0.280951 -0.11473
C_ C_ 0.179236 0.349017 0.245477 -0.02249
C_ C_ 0.435849 0.34592 0.251978 -0.02249
C_ C_ 0.232133 0.462079 0.251394 -0.02249
C_ C_ 0.48712 0.460849 0.257095 -0.02249
C_ C_ 0.204725 0.405308 0.284374 -0.11473
C_ C_ 0.46415 0.398254 0.292474 -0.11473
C_ C_ 0.184766 0.373398 0.208391 -0.11473
C_ C_ 0.443771 0.367751 0.213246 -0.11473
C_ C_ 0.190563 0.36474 0.282769 -0.11473
C_ C_ 0.445988 0.36212 0.291278 -0.11473
C_ C_ 0.212575 0.424742 0.247803 -0.02249
C_ C_ 0.469501 0.421599 0.255198 -0.02249
C_ C_ 0.159417 0.311228 0.246361 0.6875
C_ C_ 0.41781 0.306313 0.251173 0.6875
C_ C_ 0.204055 0.40895 0.20904 -0.11473
C_ C_ 0.461714 0.404037 0.216261 -0.11473
C_ C_ 0.184561 0.152884 0.240288 -0.02249
C_ C_ 0.437875 0.149759 0.253265 -0.02249
C_ C_ 0.234615 0.0358952 0.247894 -0.02249
C_ C_ 0.487743 0.0359467 0.255546 -0.02249
C_ C_ 0.216045 0.104224 0.280781 -0.11473
C_ C_ 0.470148 0.101964 0.291867 -0.11473
C_ C_ 0.184146 0.123617 0.207444 -0.11473
C_ C_ 0.437386 0.123075 0.21847 -0.11473
C_ C_ 0.201692 0.142757 0.276477 -0.11473
C_ C_ 0.454449 0.139037 0.289571 -0.11473
C_ C_ 0.216586 0.0761777 0.247476 -0.02249
C_ C_ 0.472906 0.0777982 0.255333 -0.02249
C_ C_ 0.163067 0.189627 0.239984 0.6875
C_ C_ 0.419565 0.188451 0.249145 0.6875
C_ C_ 0.201493 0.0883139 0.209397 -0.11473
C_ C_ 0.455658 0.0881361 0.219483 -0.11473
C_ C_ 0.0635121 0.150156 0.239701 -0.02249
C_ C_ 0.318252 0.15248 0.241178 -0.02249
C_ C_ 0.0136459 0.0344787 0.241556 -0.02249
C_ C_ 0.265557 0.0375953 0.238085 -0.02249
C_ C_ 0.0387534 0.0925099 0.2019 -0.11473
C_ C_ 0.291416 0.0977429 0.200937 -0.11473
C_ C_ 0.0536523 0.133209 0.277831 -0.11473
C_ C_ 0.307186 0.132625 0.278694 -0.11473
C_ C_ 0.0583167 0.12839 0.201835 -0.11473
C_ C_ 0.309405 0.133906 0.201856 -0.11473
C_ C_ 0.0292645 0.0758402 0.240362 -0.02249
C_ C_ 0.281456 0.078185 0.23792 -0.02249
C_ C_ 0.0825038 0.188684 0.242239 0.6875
C_ C_ 0.338192 0.189652 0.241176 0.6875
C_ C_ 0.0357183 0.0982647 0.276728 -0.11473
C_ C_ 0.28847 0.0971164 0.275517 -0.11473
C_ C_ 0.114819 0.27807 0.373207 0.17695
C_ C_ 0.378648 0.281481 0.379513 0.17695
C_ C_ 0.136791 0.212153 0.367728 0.17695
C_ C_ 0.373809 0.208663 0.369652 0.17695
C_ C_ 0.138349 0.209293 0.412491 -0.11473
C_ C_ 0.372952 0.203297 0.414695 -0.11473
C_ C_ 0.130764 0.245369 0.4368 0.23465
C_ C_ 0.373732 0.237978 0.441589 0.23465
C_ C_ 0.119795 0.279648 0.416702 -0.11473
C_ C_ 0.377611 0.277051 0.423212 -0.11473
C_ C_ 0.115938 0.284484 0.113472 0.17695
C_ C_ 0.3629 0.286199 0.12492 0.17695
C_ C_ 0.120195 0.210828 0.120038 0.17695
C_ C_ 0.383281 0.219492 0.11824 0.17695
C_ C_ 0.120264 0.204767 0.0754484 -0.11473
C_ C_ 0.383496 0.222815 0.075281 -0.11473
C_ C_ 0.115158 0.239507 0.0498565 0.23465
C_ C_ 0.370701 0.2565 0.0552752 0.23465
C_ C_ 0.113019 0.279363 0.0693145 -0.11473
C_ C_ 0.361426 0.290779 0.0797852 -0.11473
C_ C_ 0.0312906 0.502834 0.252937 0.05793
C_ C_ 0.279277 0.493967 0.232005 0.05793
C_ C_ 0.219896 -0.0033079999999999776 0.245913 0.05793
C_ C_ 0.470453 0.997694 0.259068 0.05793
Br Br 0.0730481 0.505457 0.261505 -0.17191
Br Br 0.320442 0.489656 0.216083 -0.17191
Br Br 0.176377 -0.005875999999999992 0.243073 -0.17191
Br Br 0.429027 1.00458628 0.27464 -0.17191
N_ N_ 0.127951 0.248383 0.349522 -0.272
N_ N_ 0.375988 0.247812 0.352549 -0.272
N_ N_ 0.133287 0.241488 0.482159 -0.12501
N_ N_ 0.372623 0.232421 0.485979 -0.12501
N_ N_ 0.119982 0.249592 0.137305 -0.272
N_ N_ 0.37537 0.251793 0.142054 -0.272
N_ N_ 0.119488 0.235711 0.00514619 -0.12501
N_ N_ 0.374091 0.263627 0.0122238 -0.12501
O_ O_ 0.0907888 0.29449 0.21147 -0.60745
O_ O_ 0.34606 0.295892 0.214597 -0.60745
O_ O_ 0.0917827 0.291194 0.279458 -0.60745
O_ O_ 0.346396 0.294611 0.284596 -0.60745
O_ O_ 0.152855 0.294496 0.280601 -0.60745
O_ O_ 0.407358 0.293485 0.285112 -0.60745
O_ O_ 0.149796 0.296248 0.212472 -0.60745
O_ O_ 0.412339 0.286874 0.216542 -0.60745
O_ O_ 0.154955 0.204618 0.27448 -0.60745
O_ O_ 0.411542 0.204535 0.281978 -0.60745
O_ O_ 0.149724 0.201563 0.206841 -0.60745
O_ O_ 0.406873 0.19856 0.213364 -0.60745
O_ O_ 0.0885569 0.208397 0.208517 -0.60745
O_ O_ 0.344143 0.207538 0.206422 -0.60745
O_ O_ 0.0946207 0.199989 0.277871 -0.60745
O_ O_ 0.35186 0.201994 0.27539 -0.60745
Zn Zn 0.122199 0.255852 0.7785 0.9476
Zn Zn 0.377577 0.249806 0.78002 0.9476
Zn Zn 0.123025 0.24989 0.709716 0.9476
Zn Zn 0.378679 0.248381 0.712568 0.9476
H_ H_ 0.0265282 0.413298 0.675762 0.10932
H_ H_ 0.287809 0.418379 0.680433 0.10932
H_ H_ 0.0785097 0.368529 0.804327 0.10932
H_ H_ 0.311329 0.346309 0.814025 0.10932
H_ H_ 0.0489721 0.345122 0.676057 0.10932
H_ H_ 0.316648 0.355979 0.676462 0.10932
H_ H_ 0.0509763 0.43377 0.803734 0.10932
H_ H_ 0.286166 0.415878 0.813933 0.10932
H_ H_ 0.215642 0.419203 0.809573 0.10932
H_ H_ 0.465776 0.424199 0.812172 0.10932
H_ H_ 0.194007 0.346076 0.678501 0.10932
H_ H_ 0.436859 0.350053 0.679101 0.10932
H_ H_ 0.1845 0.355105 0.810705 0.10932
H_ H_ 0.438899 0.354924 0.813725 0.10932
H_ H_ 0.215991 0.414492 0.67456 0.10932
H_ H_ 0.455359 0.422407 0.677141 0.10932
H_ H_ 0.204539 0.0774481 0.804329 0.10932
H_ H_ 0.443397 0.0628381 0.811654 0.10932
H_ H_ 0.184116 0.153782 0.675041 0.10932
H_ H_ 0.455049 0.16001 0.693436 0.10932
H_ H_ 0.174152 0.140877 0.808032 0.10932
H_ H_ 0.415496 0.131895 0.812418 0.10932
H_ H_ 0.209752 0.083605 0.674728 0.10932
H_ H_ 0.477077 0.0936385 0.693134 0.10932
H_ H_ 0.0339798 0.076753 0.688112 0.10932
H_ H_ 0.297541 0.0689211 0.688916 0.10932
H_ H_ 0.0563313 0.163969 0.808026 0.10932
H_ H_ 0.303169 0.15897 0.813215 0.10932
H_ H_ 0.0677656 0.137687 0.680819 0.10932
H_ H_ 0.331248 0.132338 0.690245 0.10932
H_ H_ 0.0299886 0.0972667 0.817003 0.10932
H_ H_ 0.271187 0.0973954 0.816555 0.10932
H_ H_ 0.125146 0.315215 0.849004 0.10932
H_ H_ 0.327026 0.237993 0.845349 0.10932
H_ H_ 0.105036 0.191205 0.851297 0.10932
H_ H_ 0.419229 0.273918 0.86787 0.10932
H_ H_ 0.105516 0.188722 0.926985 0.10932
H_ H_ 0.410344 0.272468 0.946569 0.10932
H_ H_ 0.124763 0.31952 0.928146 0.10932
H_ H_ 0.318915 0.232248 0.924608 0.10932
H_ H_ 0.120108 0.19171 0.62863 0.10932
H_ H_ 0.42487 0.252536 0.630763 0.10932
H_ H_ 0.119828 0.319133 0.643148 0.10932
H_ H_ 0.329851 0.237822 0.64175 0.10932
H_ H_ 0.115003 0.327536 0.560328 0.10932
H_ H_ 0.323359 0.244234 0.566493 0.10932
H_ H_ 0.118368 0.196953 0.550396 0.10932
H_ H_ 0.420297 0.264428 0.557195 0.10932
C_ C_ 0.0627017 0.348201 0.743714 -0.02249
C_ C_ 0.316532 0.345311 0.745366 -0.02249
C_ C_ 0.0172259 0.464647 0.742866 -0.02249
C_ C_ 0.2683 0.460359 0.746911 -0.02249
C_ C_ 0.038331 0.403574 0.704283 -0.11473
C_ C_ 0.292992 0.403401 0.709136 -0.11473
C_ C_ 0.0642933 0.374448 0.778654 -0.11473
C_ C_ 0.308439 0.36348 0.784641 -0.11473
C_ C_ 0.0488168 0.364786 0.705639 -0.11473
C_ C_ 0.309144 0.368302 0.707903 -0.11473
C_ C_ 0.0351444 0.425378 0.740188 -0.02249
C_ C_ 0.282631 0.418935 0.747468 -0.02249
C_ C_ 0.0813561 0.310646 0.746139 0.6875
C_ C_ 0.335776 0.306954 0.746763 0.6875
C_ C_ 0.0494135 0.412211 0.777512 -0.11473
C_ C_ 0.290891 0.400122 0.784225 -0.11473
C_ C_ 0.183618 0.346678 0.743788 -0.02249
C_ C_ 0.433511 0.349835 0.747354 -0.02249
C_ C_ 0.236446 0.461376 0.742522 -0.02249
C_ C_ 0.482587 0.466452 0.741577 -0.02249
C_ C_ 0.208714 0.404835 0.78085 -0.11473
C_ C_ 0.460055 0.407025 0.782658 -0.11473
C_ C_ 0.194637 0.363498 0.705299 -0.11473
C_ C_ 0.442671 0.365726 0.708424 -0.11473
C_ C_ 0.191624 0.367357 0.780681 -0.11473
C_ C_ 0.443955 0.368078 0.784137 -0.11473
C_ C_ 0.216761 0.424344 0.742425 -0.02249
C_ C_ 0.464979 0.426217 0.743135 -0.02249
C_ C_ 0.162762 0.310022 0.743797 0.6875
C_ C_ 0.414391 0.311765 0.748291 0.6875
C_ C_ 0.21035 0.40267 0.705073 -0.11473
C_ C_ 0.45364 0.405987 0.706785 -0.11473
C_ C_ 0.177904 0.154476 0.741994 -0.02249
C_ C_ 0.434138 0.153127 0.7539 -0.02249
C_ C_ 0.231629 0.0384187 0.740148 -0.02249
C_ C_ 0.482923 0.036663 0.754681 -0.02249
C_ C_ 0.202001 0.0960126 0.776786 -0.11473
C_ C_ 0.449563 0.087687 0.789654 -0.11473
C_ C_ 0.189238 0.136981 0.704424 -0.11473
C_ C_ 0.451969 0.140816 0.720063 -0.11473
C_ C_ 0.185388 0.133191 0.778632 -0.11473
C_ C_ 0.432424 0.126686 0.788535 -0.11473
C_ C_ 0.21327 0.078541 0.739047 -0.02249
C_ C_ 0.466991 0.0759692 0.75536 -0.02249
C_ C_ 0.159567 0.192826 0.741533 0.6875
C_ C_ 0.415048 0.189849 0.752283 0.6875
C_ C_ 0.206956 0.0992848 0.702767 -0.11473
C_ C_ 0.467371 0.1034 0.72162 -0.11473
C_ C_ 0.066709 0.154399 0.746132 -0.02249
C_ C_ 0.317924 0.150974 0.749168 -0.02249
C_ C_ 0.0167315 0.0391973 0.757868 -0.02249
C_ C_ 0.263025 0.0396983 0.749293 -0.02249
C_ C_ 0.0448002 0.0908953 0.714794 -0.11473
C_ C_ 0.298213 0.0876349 0.714156 -0.11473
C_ C_ 0.0567665 0.140581 0.78496 -0.11473
C_ C_ 0.30197 0.139948 0.784841 -0.11473
C_ C_ 0.0610315 0.127946 0.71172 -0.11473
C_ C_ 0.316304 0.12547 0.71456 -0.11473
C_ C_ 0.0341974 0.0775559 0.754246 -0.02249
C_ C_ 0.279967 0.0792218 0.749164 -0.02249
C_ C_ 0.0844943 0.193941 0.741391 0.6875
C_ C_ 0.338471 0.187535 0.749037 0.6875
C_ C_ 0.0396027 0.104711 0.789321 -0.11473
C_ C_ 0.283883 0.102874 0.786273 -0.11473
C_ C_ 0.125511 0.288243 0.867449 0.17695
C_ C_ 0.345896 0.239126 0.867828 0.17695
C_ C_ 0.113684 0.21716 0.86914 0.17695
C_ C_ 0.397664 0.259694 0.879729 0.17695
C_ C_ 0.108385 0.218608 0.911144 -0.11473
C_ C_ 0.39165 0.262751 0.923947 -0.11473
C_ C_ 0.114729 0.254244 0.934811 0.23465
C_ C_ 0.36384 0.246868 0.940166 0.23465
C_ C_ 0.123422 0.289712 0.911479 -0.11473
C_ C_ 0.341355 0.234899 0.911699 -0.11473
C_ C_ 0.121654 0.221735 0.613694 0.17695
C_ C_ 0.402173 0.254436 0.616318 0.17695
C_ C_ 0.120082 0.294503 0.621828 0.17695
C_ C_ 0.348206 0.248713 0.624415 0.17695
C_ C_ 0.120079 0.299344 0.577427 -0.11473
C_ C_ 0.345022 0.247256 0.580764 -0.11473
C_ C_ 0.122255 0.263956 0.551655 0.23465
C_ C_ 0.371592 0.251737 0.55488 0.23465
C_ C_ 0.120342 0.225787 0.569875 -0.11473
C_ C_ 0.399301 0.26051 0.574938 -0.11473
C_ C_ 0.0318665 0.503211 0.740662 0.05793
C_ C_ 0.285498 0.49639 0.752429 0.05793
C_ C_ 0.216823 0.000744271 0.731064 0.05793
C_ C_ 0.467911 0.998858 0.749783 0.05793
Br Br 0.0759011 0.501003 0.729457 -0.17191
Br Br 0.329869 0.496173 0.751194 -0.17191
Br Br 0.176096 0.00038289 0.71804 -0.17191
Br Br 0.424951 0.99891 0.737444 -0.17191
N_ N_ 0.123599 0.251301 0.847355 -0.272
N_ N_ 0.374193 0.250926 0.854012 -0.272
N_ N_ 0.106971 0.257299 0.97778 -0.12501
N_ N_ 0.359238 0.242803 0.984564 -0.12501
N_ N_ 0.122239 0.255998 0.639453 -0.272
N_ N_ 0.376458 0.250984 0.641022 -0.272
N_ N_ 0.119956 0.26611 0.506252 -0.12501
N_ N_ 0.368711 0.260188 0.511634 -0.12501
O_ O_ 0.0915538 0.291965 0.714543 -0.60745
O_ O_ 0.348944 0.29539 0.712556 -0.60745
O_ O_ 0.0915919 0.299676 0.782649 -0.60745
O_ O_ 0.343182 0.290057 0.779401 -0.60745
O_ O_ 0.157566 0.291679 0.777913 -0.60745
O_ O_ 0.403534 0.299 0.783424 -0.60745
O_ O_ 0.153175 0.296694 0.709305 -0.60745
O_ O_ 0.409632 0.291193 0.715473 -0.60745
O_ O_ 0.150434 0.210025 0.774511 -0.60745
O_ O_ 0.408635 0.207681 0.786835 -0.60745
O_ O_ 0.153721 0.210833 0.706865 -0.60745
O_ O_ 0.407995 0.204477 0.716632 -0.60745
O_ O_ 0.0947039 0.203657 0.706326 -0.60745
O_ O_ 0.345616 0.204731 0.715098 -0.60745
O_ O_ 0.0887343 0.21699 0.772986 -0.60745
O_ O_ 0.34716 0.202838 0.783279 -0.60745
Zn Zn 0.130621 0.750772 0.291674 0.9476
Zn Zn 0.369361 0.74505 0.285895 0.9476
Zn Zn 0.129447 0.750047 0.220012 0.9476
Zn Zn 0.374268 0.748198 0.214205 0.9476
H_ H_ 0.0344591 0.915873 0.180507 0.10932
H_ H_ 0.298513 0.926613 0.17919 0.10932
H_ H_ 0.0657176 0.850755 0.319045 0.10932
H_ H_ 0.303056 0.847728 0.310629 0.10932
H_ H_ 0.0704634 0.853157 0.180004 0.10932
H_ H_ 0.323956 0.862535 0.178708 0.10932
H_ H_ 0.0362055 0.916566 0.312633 0.10932
H_ H_ 0.285775 0.919318 0.311437 0.10932
H_ H_ 0.215126 0.924678 0.317049 0.10932
H_ H_ 0.461593 0.915203 0.323659 0.10932
H_ H_ 0.205963 0.831901 0.192691 0.10932
H_ H_ 0.43811 0.846135 0.187438 0.10932
H_ H_ 0.183772 0.860766 0.316654 0.10932
H_ H_ 0.430959 0.851595 0.321554 0.10932
H_ H_ 0.234682 0.898136 0.188409 0.10932
H_ H_ 0.461515 0.916488 0.188258 0.10932
H_ H_ 0.243701 0.598604 0.309123 0.10932
H_ H_ 0.470891 0.581823 0.319806 0.10932
H_ H_ 0.170852 0.638715 0.194393 0.10932
H_ H_ 0.434843 0.639511 0.186178 0.10932
H_ H_ 0.217062 0.666042 0.31241 0.10932
H_ H_ 0.435625 0.643423 0.318413 0.10932
H_ H_ 0.198416 0.569503 0.192505 0.10932
H_ H_ 0.459904 0.570619 0.18814 0.10932
H_ H_ 0.0305412 0.588127 0.186113 0.10932
H_ H_ 0.266172 0.59387 0.17855 0.10932
H_ H_ 0.0699411 0.645952 0.320323 0.10932
H_ H_ 0.335816 0.625177 0.297817 0.10932
H_ H_ 0.0642838 0.649651 0.183486 0.10932
H_ H_ 0.308998 0.650341 0.170392 0.10932
H_ H_ 0.0371325 0.583381 0.319856 0.10932
H_ H_ 0.302131 0.563905 0.29544 0.10932
H_ H_ 0.140113 0.820943 0.360458 0.10932
H_ H_ 0.381402 0.681255 0.354894 0.10932
H_ H_ 0.120338 0.692601 0.373329 0.10932
H_ H_ 0.349363 0.802666 0.363021 0.10932
H_ H_ 0.113134 0.699066 0.445999 0.10932
H_ H_ 0.350672 0.800152 0.442305 0.10932
H_ H_ 0.132958 0.828205 0.43915 0.10932
H_ H_ 0.388909 0.676916 0.436112 0.10932
H_ H_ 0.174458 0.763856 0.148235 0.10932
H_ H_ 0.3947 0.808955 0.147843 0.10932
H_ H_ 0.0802423 0.741813 0.14465 0.10932
H_ H_ 0.354662 0.69401 0.137016 0.10932
H_ H_ 0.0828764 0.727574 0.0680418 0.10932
H_ H_ 0.36025 0.694689 0.0589629 0.10932
H_ H_ 0.176265 0.760045 0.0719191 0.10932
H_ H_ 0.401621 0.813318 0.0732259 0.10932
C_ C_ 0.0692837 0.846574 0.247817 -0.02249
C_ C_ 0.317989 0.848474 0.246129 -0.02249
C_ C_ 0.0150058 0.957945 0.245055 -0.02249
C_ C_ 0.269699 0.96399 0.242465 -0.02249
C_ C_ 0.0398174 0.898519 0.207627 -0.11473
C_ C_ 0.300845 0.909596 0.208396 -0.11473
C_ C_ 0.0598478 0.864906 0.285229 -0.11473
C_ C_ 0.303743 0.864366 0.282446 -0.11473
C_ C_ 0.0603688 0.865282 0.208877 -0.11473
C_ C_ 0.317587 0.873459 0.209029 -0.11473
C_ C_ 0.0331359 0.918738 0.245466 -0.02249
C_ C_ 0.289011 0.926235 0.244905 -0.02249
C_ C_ 0.0905852 0.809398 0.250826 0.6875
C_ C_ 0.333072 0.808531 0.247898 0.6875
C_ C_ 0.0416506 0.901812 0.284529 -0.11473
C_ C_ 0.292884 0.905046 0.283427 -0.11473
C_ C_ 0.191601 0.843977 0.256867 -0.02249
C_ C_ 0.431154 0.844709 0.2566 -0.02249
C_ C_ 0.238806 0.960566 0.243369 -0.02249
C_ C_ 0.48335 0.958265 0.257183 -0.02249
C_ C_ 0.212335 0.905956 0.2884 -0.11473
C_ C_ 0.457656 0.89903 0.294697 -0.11473
C_ C_ 0.209516 0.851202 0.220657 -0.11473
C_ C_ 0.439579 0.863042 0.21806 -0.11473
C_ C_ 0.194488 0.869418 0.289758 -0.11473
C_ C_ 0.439728 0.864518 0.293988 -0.11473
C_ C_ 0.223993 0.917888 0.249458 -0.02249
C_ C_ 0.462514 0.921439 0.257402 -0.02249
C_ C_ 0.16956 0.811195 0.25688 0.6875
C_ C_ 0.411068 0.808844 0.254577 0.6875
C_ C_ 0.226046 0.887489 0.217179 -0.11473
C_ C_ 0.453074 0.90296 0.21893 -0.11473
C_ C_ 0.188886 0.653337 0.254737 -0.02249
C_ C_ 0.435054 0.651313 0.250243 -0.02249
C_ C_ 0.237212 0.538085 0.251212 -0.02249
C_ C_ 0.488833 0.537134 0.255363 -0.02249
C_ C_ 0.229699 0.609992 0.281627 -0.11473
C_ C_ 0.464981 0.599663 0.290456 -0.11473
C_ C_ 0.186148 0.627915 0.219891 -0.11473
C_ C_ 0.442132 0.629599 0.214721 -0.11473
C_ C_ 0.211849 0.645858 0.285719 -0.11473
C_ C_ 0.443118 0.632486 0.289952 -0.11473
C_ C_ 0.22219 0.580051 0.249847 -0.02249
C_ C_ 0.47076 0.577928 0.253653 -0.02249
C_ C_ 0.168259 0.690818 0.256793 0.6875
C_ C_ 0.4135 0.687891 0.250848 0.6875
C_ C_ 0.203799 0.591718 0.216839 -0.11473
C_ C_ 0.460268 0.594113 0.215887 -0.11473
C_ C_ 0.0699253 0.654894 0.251659 -0.02249
C_ C_ 0.319744 0.646106 0.237072 -0.02249
C_ C_ 0.0157168 0.540237 0.249241 -0.02249
C_ C_ 0.267783 0.533391 0.239293 -0.02249
C_ C_ 0.0370608 0.603938 0.214051 -0.11473
C_ C_ 0.286574 0.596326 0.199327 -0.11473
C_ C_ 0.0602465 0.636611 0.291113 -0.11473
C_ C_ 0.321584 0.618375 0.269907 -0.11473
C_ C_ 0.056169 0.638865 0.214332 -0.11473
C_ C_ 0.304748 0.633734 0.199378 -0.11473
C_ C_ 0.0322108 0.581535 0.250765 -0.02249
C_ C_ 0.287615 0.569827 0.234638 -0.02249
C_ C_ 0.0881772 0.693012 0.251818 0.6875
C_ C_ 0.332497 0.688581 0.242033 0.6875
C_ C_ 0.0406421 0.600099 0.290174 -0.11473
C_ C_ 0.303751 0.581934 0.269393 -0.11473
C_ C_ 0.135645 0.793707 0.381158 0.17695
C_ C_ 0.378027 0.708247 0.37473 0.17695
C_ C_ 0.121771 0.723534 0.386107 0.17695
C_ C_ 0.359064 0.776264 0.378611 0.17695
C_ C_ 0.117034 0.727534 0.429304 -0.11473
C_ C_ 0.358665 0.77411 0.423295 -0.11473
C_ C_ 0.12495 0.764125 0.450221 0.23465
C_ C_ 0.370926 0.738844 0.444245 0.23465
C_ C_ 0.129715 0.799109 0.425173 -0.11473
C_ C_ 0.379065 0.704679 0.419681 -0.11473
C_ C_ 0.153886 0.757561 0.130087 0.17695
C_ C_ 0.388331 0.78448 0.127255 0.17695
C_ C_ 0.101108 0.744683 0.127524 0.17695
C_ C_ 0.367059 0.717843 0.121281 0.17695
C_ C_ 0.101285 0.740293 0.0836064 -0.11473
C_ C_ 0.367999 0.718579 0.0771525 -0.11473
C_ C_ 0.128946 0.745736 0.0621418 0.23465
C_ C_ 0.381498 0.756205 0.0574995 0.23465
C_ C_ 0.155478 0.753327 0.0867688 -0.11473
C_ C_ 0.390888 0.787981 0.0851549 -0.11473
C_ C_ 0.0295035 0.996826 0.244245 0.05793
C_ C_ 0.283336 1.00185271 0.239783 0.05793
C_ C_ 0.220168 0.503118 0.257187 0.05793
C_ C_ 0.472967 0.499096 0.26338 0.05793
Br Br 0.0727955 0.000933647 0.244862 -0.17191
Br Br 0.327651 1.00438249 0.234324 -0.17191
Br Br 0.177766 0.508541 0.265996 -0.17191
Br Br 0.430256 0.502336 0.266507 -0.17191
N_ N_ 0.129867 0.756249 0.362255 -0.272
N_ N_ 0.367859 0.743638 0.355035 -0.272
N_ N_ 0.125077 0.768362 0.494931 -0.12501
N_ N_ 0.376643 0.739215 0.487614 -0.12501
N_ N_ 0.127914 0.749459 0.149035 -0.272
N_ N_ 0.378103 0.748547 0.143924 -0.272
N_ N_ 0.129176 0.739875 0.0179361 -0.12501
N_ N_ 0.383397 0.759901 0.0126968 -0.12501
O_ O_ 0.0969748 0.791025 0.218156 -0.60745
O_ O_ 0.343195 0.794315 0.214437 -0.60745
O_ O_ 0.100127 0.796344 0.285582 -0.60745
O_ O_ 0.338276 0.791022 0.283044 -0.60745
O_ O_ 0.160455 0.79683 0.291863 -0.60745
O_ O_ 0.403421 0.789704 0.287528 -0.60745
O_ O_ 0.159637 0.796469 0.222624 -0.60745
O_ O_ 0.40449 0.792156 0.219397 -0.60745
O_ O_ 0.160803 0.705318 0.292604 -0.60745
O_ O_ 0.398248 0.696823 0.282329 -0.60745
O_ O_ 0.163717 0.710772 0.221675 -0.60745
O_ O_ 0.408157 0.708419 0.217577 -0.60745
O_ O_ 0.0974791 0.70602 0.217881 -0.60745
O_ O_ 0.343848 0.705578 0.210784 -0.60745
O_ O_ 0.0971808 0.709588 0.286679 -0.60745
O_ O_ 0.339966 0.700319 0.279312 -0.60745
Zn Zn 0.129293 0.750317 0.790458 0.9476
Zn Zn 0.370967 0.753121 0.787499 0.9476
Zn Zn 0.127851 0.749837 0.720113 0.9476
Zn Zn 0.36965 0.752652 0.718322 0.9476
H_ H_ 0.0414842 0.92306 0.690152 0.10932
H_ H_ 0.290065 0.925998 0.693849 0.10932
H_ H_ 0.0624024 0.846861 0.820296 0.10932
H_ H_ 0.304996 0.846376 0.825869 0.10932
H_ H_ 0.0673031 0.854303 0.684223 0.10932
H_ H_ 0.320078 0.860318 0.691628 0.10932
H_ H_ 0.0391865 0.91864 0.821097 0.10932
H_ H_ 0.27325 0.908935 0.82196 0.10932
H_ H_ 0.204853 0.93479 0.807154 0.10932
H_ H_ 0.455187 0.9219 0.821515 0.10932
H_ H_ 0.204054 0.834843 0.689356 0.10932
H_ H_ 0.443424 0.839746 0.688622 0.10932
H_ H_ 0.169677 0.873818 0.805209 0.10932
H_ H_ 0.418594 0.86343 0.814161 0.10932
H_ H_ 0.231123 0.899387 0.682322 0.10932
H_ H_ 0.473595 0.90219 0.689887 0.10932
H_ H_ 0.207708 0.568714 0.815003 0.10932
H_ H_ 0.475349 0.597327 0.80444 0.10932
H_ H_ 0.205859 0.667911 0.699874 0.10932
H_ H_ 0.410982 0.635021 0.681382 0.10932
H_ H_ 0.173547 0.621711 0.815801 0.10932
H_ H_ 0.45765 0.670664 0.798897 0.10932
H_ H_ 0.238874 0.606631 0.694523 0.10932
H_ H_ 0.436885 0.564768 0.684559 0.10932
H_ H_ 0.027611 0.596592 0.686835 0.10932
H_ H_ 0.299399 0.573071 0.690015 0.10932
H_ H_ 0.0832723 0.633954 0.818779 0.10932
H_ H_ 0.299035 0.658914 0.817633 0.10932
H_ H_ 0.0583331 0.657564 0.689646 0.10932
H_ H_ 0.320544 0.641177 0.684749 0.10932
H_ H_ 0.0546735 0.565006 0.810948 0.10932
H_ H_ 0.271381 0.59372 0.813232 0.10932
H_ H_ 0.124745 0.822648 0.858781 0.10932
H_ H_ 0.388015 0.808341 0.864007 0.10932
H_ H_ 0.132472 0.692832 0.872557 0.10932
H_ H_ 0.363531 0.682918 0.853584 0.10932
H_ H_ 0.131161 0.698107 0.948295 0.10932
H_ H_ 0.357475 0.678037 0.93271 0.10932
H_ H_ 0.116537 0.830259 0.939416 0.10932
H_ H_ 0.390792 0.803666 0.943695 0.10932
H_ H_ 0.137192 0.678247 0.653751 0.10932
H_ H_ 0.320719 0.734615 0.644381 0.10932
H_ H_ 0.116204 0.809902 0.642692 0.10932
H_ H_ 0.412171 0.766025 0.631604 0.10932
H_ H_ 0.113964 0.805646 0.566019 0.10932
H_ H_ 0.409495 0.749369 0.555079 0.10932
H_ H_ 0.144 0.677216 0.574374 0.10932
H_ H_ 0.313178 0.738179 0.568396 0.10932
C_ C_ 0.068486 0.847822 0.753154 -0.02249
C_ C_ 0.313753 0.849563 0.759815 -0.02249
C_ C_ 0.0170468 0.964482 0.757793 -0.02249
C_ C_ 0.263608 0.96311 0.7574 -0.02249
C_ C_ 0.0417286 0.902996 0.717409 -0.11473
C_ C_ 0.293585 0.908609 0.721064 -0.11473
C_ C_ 0.0577982 0.862873 0.791807 -0.11473
C_ C_ 0.300086 0.863237 0.795663 -0.11473
C_ C_ 0.058972 0.866996 0.71505 -0.11473
C_ C_ 0.311481 0.871538 0.721671 -0.11473
C_ C_ 0.0352113 0.924266 0.756054 -0.02249
C_ C_ 0.281369 0.922942 0.757338 -0.02249
C_ C_ 0.0893899 0.810536 0.752464 0.6875
C_ C_ 0.331921 0.812 0.760564 0.6875
C_ C_ 0.0418396 0.901405 0.792999 -0.11473
C_ C_ 0.283497 0.900151 0.794408 -0.11473
C_ C_ 0.18507 0.848937 0.748965 -0.02249
C_ C_ 0.431228 0.846259 0.752399 -0.02249
C_ C_ 0.232426 0.96381 0.739802 -0.02249
C_ C_ 0.48155 0.960663 0.753324 -0.02249
C_ C_ 0.200929 0.914756 0.778912 -0.11473
C_ C_ 0.449612 0.906896 0.790018 -0.11473
C_ C_ 0.203305 0.855446 0.714473 -0.11473
C_ C_ 0.445219 0.859357 0.716361 -0.11473
C_ C_ 0.187994 0.87618 0.783848 -0.11473
C_ C_ 0.431078 0.871262 0.787802 -0.11473
C_ C_ 0.216965 0.92213 0.741851 -0.02249
C_ C_ 0.464539 0.919916 0.753643 -0.02249
C_ C_ 0.164956 0.811799 0.751145 0.6875
C_ C_ 0.410651 0.808592 0.750239 0.6875
C_ C_ 0.21699 0.893012 0.709356 -0.11473
C_ C_ 0.462289 0.894902 0.717457 -0.11473
C_ C_ 0.186939 0.651999 0.758576 -0.02249
C_ C_ 0.431839 0.658291 0.740222 -0.02249
C_ C_ 0.238837 0.53866 0.751344 -0.02249
C_ C_ 0.479453 0.540838 0.7399 -0.02249
C_ C_ 0.203368 0.585481 0.786207 -0.11473
C_ C_ 0.462643 0.606919 0.777596 -0.11473
C_ C_ 0.204297 0.643878 0.723116 -0.11473
C_ C_ 0.427645 0.628274 0.708236 -0.11473
C_ C_ 0.187646 0.620996 0.789482 -0.11473
C_ C_ 0.452543 0.648153 0.774417 -0.11473
C_ C_ 0.223501 0.579464 0.754378 -0.02249
C_ C_ 0.460627 0.578789 0.742553 -0.02249
C_ C_ 0.167213 0.690976 0.75939 0.6875
C_ C_ 0.408211 0.693316 0.743582 0.6875
C_ C_ 0.221834 0.607991 0.72021 -0.11473
C_ C_ 0.44176 0.589661 0.709328 -0.11473
C_ C_ 0.0709481 0.652837 0.75429 -0.02249
C_ C_ 0.31281 0.653431 0.751995 -0.02249
C_ C_ 0.0160818 0.540046 0.75008 -0.02249
C_ C_ 0.270829 0.535576 0.753688 -0.02249
C_ C_ 0.0378764 0.605013 0.716231 -0.11473
C_ C_ 0.304065 0.587023 0.721067 -0.11473
C_ C_ 0.0685479 0.626307 0.790809 -0.11473
C_ C_ 0.302094 0.637737 0.790659 -0.11473
C_ C_ 0.0564068 0.639114 0.717363 -0.11473
C_ C_ 0.314271 0.628468 0.716127 -0.11473
C_ C_ 0.0329443 0.580367 0.751476 -0.02249
C_ C_ 0.288822 0.574428 0.756129 -0.02249
C_ C_ 0.088905 0.691586 0.754697 0.6875
C_ C_ 0.332535 0.691611 0.751376 0.6875
C_ C_ 0.0503965 0.590088 0.787766 -0.11473
C_ C_ 0.287331 0.599116 0.791138 -0.11473
C_ C_ 0.125488 0.795492 0.878901 0.17695
C_ C_ 0.381375 0.780497 0.87997 0.17695
C_ C_ 0.130794 0.723442 0.885791 0.17695
C_ C_ 0.367992 0.710715 0.873196 0.17695
C_ C_ 0.127775 0.725829 0.929778 -0.11473
C_ C_ 0.367338 0.706 0.918329 -0.11473
C_ C_ 0.121958 0.764137 0.947981 0.23465
C_ C_ 0.375437 0.739809 0.943592 0.23465
C_ C_ 0.120172 0.80033 0.922091 -0.11473
C_ C_ 0.383576 0.777579 0.924259 -0.11473
C_ C_ 0.134451 0.707369 0.633845 0.17695
C_ C_ 0.339598 0.743367 0.626938 0.17695
C_ C_ 0.121092 0.779198 0.629535 0.17695
C_ C_ 0.391163 0.755205 0.61809 0.17695
C_ C_ 0.120514 0.777287 0.583537 -0.11473
C_ C_ 0.388962 0.74771 0.575145 -0.11473
C_ C_ 0.130143 0.740932 0.563445 0.23465
C_ C_ 0.360671 0.745459 0.556646 0.23465
C_ C_ 0.137605 0.707003 0.588951 -0.11473
C_ C_ 0.335888 0.74314 0.582305 -0.11473
C_ C_ 0.0323114 0.00216025 0.759671 0.05793
C_ C_ 0.278384 0.00134303 0.76135 0.05793
C_ C_ 0.222363 0.501493 0.741043 0.05793
C_ C_ 0.465097 0.501482 0.743616 0.05793
Br Br 0.0763781 0.0049123 0.76002 -0.17191
Br Br 0.319509 0.00108762 0.778525 -0.17191
Br Br 0.179416 0.503124 0.72897 -0.17191
Br Br 0.424065 0.498433 0.757274 -0.17191
N_ N_ 0.128991 0.758252 0.860862 -0.272
N_ N_ 0.373742 0.748102 0.855651 -0.272
N_ N_ 0.122836 0.767742 0.993065 -0.12501
N_ N_ 0.370316 0.736422 0.986868 -0.12501
N_ N_ 0.13073 0.744766 0.651981 -0.272
N_ N_ 0.366867 0.751702 0.643936 -0.272
N_ N_ 0.131839 0.738525 0.518811 -0.12501
N_ N_ 0.355543 0.744169 0.512424 -0.12501
O_ O_ 0.0972577 0.796557 0.718144 -0.60745
O_ O_ 0.338082 0.793365 0.725955 -0.60745
O_ O_ 0.0957626 0.791855 0.786542 -0.60745
O_ O_ 0.344198 0.79972 0.793419 -0.60745
O_ O_ 0.158214 0.796857 0.786506 -0.60745
O_ O_ 0.405718 0.790003 0.78463 -0.60745
O_ O_ 0.157231 0.793859 0.717989 -0.60745
O_ O_ 0.400043 0.794897 0.71543 -0.60745
O_ O_ 0.160641 0.705469 0.795895 -0.60745
O_ O_ 0.399495 0.703575 0.778682 -0.60745
O_ O_ 0.159761 0.709076 0.725275 -0.60745
O_ O_ 0.401145 0.714033 0.711449 -0.60745
O_ O_ 0.0958405 0.709001 0.721403 -0.60745
O_ O_ 0.34234 0.705281 0.718052 -0.60745
O_ O_ 0.101857 0.702866 0.788358 -0.60745
O_ O_ 0.336727 0.714382 0.782861 -0.60745
Zn Zn 0.6249 0.246935 0.28816 0.9476
Zn Zn 0.875634 0.251277 0.288405 0.9476
Zn Zn 0.627662 0.245284 0.218313 0.9476
Zn Zn 0.874583 0.246766 0.217222 0.9476
H_ H_ 0.535659 0.410103 0.183098 0.10932
H_ H_ 0.784367 0.421521 0.189395 0.10932
H_ H_ 0.558983 0.346425 0.320912 0.10932
H_ H_ 0.799689 0.341707 0.317495 0.10932
H_ H_ 0.567887 0.349884 0.186522 0.10932
H_ H_ 0.816247 0.359467 0.187657 0.10932
H_ H_ 0.530542 0.412564 0.315015 0.10932
H_ H_ 0.772001 0.4076 0.319309 0.10932
H_ H_ 0.715496 0.413766 0.326055 0.10932
H_ H_ 0.951732 0.438347 0.302164 0.10932
H_ H_ 0.688644 0.350956 0.189473 0.10932
H_ H_ 0.949011 0.336828 0.187624 0.10932
H_ H_ 0.681198 0.359521 0.324775 0.10932
H_ H_ 0.937924 0.359276 0.316471 0.10932
H_ H_ 0.715067 0.415654 0.189712 0.10932
H_ H_ 0.97939 0.400705 0.181145 0.10932
H_ H_ 0.728203 0.0920377 0.316394 0.10932
H_ H_ 0.973813 0.0776275 0.306612 0.10932
H_ H_ 0.671641 0.128331 0.188973 0.10932
H_ H_ 0.921114 0.136928 0.183267 0.10932
H_ H_ 0.701597 0.157156 0.31513 0.10932
H_ H_ 0.948273 0.148589 0.311069 0.10932
H_ H_ 0.698936 0.064586 0.192592 0.10932
H_ H_ 0.948507 0.0741528 0.175765 0.10932
H_ H_ 0.53637 0.0769822 0.179733 0.10932
H_ H_ 0.776261 0.0925353 0.192702 0.10932
H_ H_ 0.580283 0.132219 0.314215 0.10932
H_ H_ 0.827265 0.131348 0.328846 0.10932
H_ H_ 0.562711 0.144725 0.181567 0.10932
H_ H_ 0.813117 0.146708 0.193747 0.10932
H_ H_ 0.552304 0.0626247 0.312135 0.10932
H_ H_ 0.792008 0.074552 0.327611 0.10932
H_ H_ 0.63586 0.18099 0.360132 0.10932
H_ H_ 0.887294 0.185369 0.356812 0.10932
H_ H_ 0.620661 0.307615 0.365063 0.10932
H_ H_ 0.8728 0.316044 0.362743 0.10932
H_ H_ 0.626613 0.306016 0.445958 0.10932
H_ H_ 0.865242 0.311028 0.438102 0.10932
H_ H_ 0.632421 0.175728 0.435275 0.10932
H_ H_ 0.889173 0.183545 0.435816 0.10932
H_ H_ 0.625765 0.184699 0.136974 0.10932
H_ H_ 0.872529 0.317962 0.14208 0.10932
H_ H_ 0.629494 0.315361 0.153035 0.10932
H_ H_ 0.854096 0.189028 0.143621 0.10932
H_ H_ 0.637275 0.326211 0.0735368 0.10932
H_ H_ 0.841886 0.19133 0.0681891 0.10932
H_ H_ 0.626675 0.19333 0.0621834 0.10932
H_ H_ 0.869206 0.318542 0.0655305 0.10932
C_ C_ 0.566414 0.341061 0.254806 -0.02249
C_ C_ 0.811446 0.345819 0.25226 -0.02249
C_ C_ 0.518118 0.459412 0.249849 -0.02249
C_ C_ 0.763571 0.462017 0.254986 -0.02249
C_ C_ 0.54131 0.398251 0.213808 -0.11473
C_ C_ 0.792626 0.408516 0.217313 -0.11473
C_ C_ 0.556822 0.360307 0.290799 -0.11473
C_ C_ 0.798111 0.359847 0.288319 -0.11473
C_ C_ 0.559086 0.361531 0.216025 -0.11473
C_ C_ 0.806081 0.370123 0.215519 -0.11473
C_ C_ 0.534755 0.419143 0.249962 -0.02249
C_ C_ 0.779228 0.42249 0.253563 -0.02249
C_ C_ 0.584903 0.303046 0.258075 0.6875
C_ C_ 0.833427 0.30933 0.252648 0.6875
C_ C_ 0.539869 0.397345 0.288385 -0.11473
C_ C_ 0.781878 0.397934 0.290105 -0.11473
C_ C_ 0.683754 0.346946 0.25676 -0.02249
C_ C_ 0.936291 0.346141 0.251229 -0.02249
C_ C_ 0.731418 0.462665 0.256453 -0.02249
C_ C_ 0.985174 0.461564 0.240323 -0.02249
C_ C_ 0.711221 0.400964 0.294469 -0.11473
C_ C_ 0.953824 0.411599 0.278642 -0.11473
C_ C_ 0.695009 0.363579 0.218715 -0.11473
C_ C_ 0.94837 0.357956 0.212145 -0.11473
C_ C_ 0.691319 0.367657 0.294597 -0.11473
C_ C_ 0.940256 0.372371 0.285459 -0.11473
C_ C_ 0.715656 0.422725 0.25595 -0.02249
C_ C_ 0.970931 0.419862 0.243259 -0.02249
C_ C_ 0.662517 0.309153 0.254019 0.6875
C_ C_ 0.914291 0.310762 0.253122 0.6875
C_ C_ 0.709406 0.402335 0.219032 -0.11473
C_ C_ 0.967781 0.392518 0.208834 -0.11473
C_ C_ 0.684302 0.149007 0.251524 -0.02249
C_ C_ 0.934913 0.150018 0.245769 -0.02249
C_ C_ 0.735402 0.0375226 0.260254 -0.02249
C_ C_ 0.981392 0.0323826 0.235275 -0.02249
C_ C_ 0.716012 0.100856 0.289823 -0.11473
C_ C_ 0.964732 0.0946607 0.27759 -0.11473
C_ C_ 0.68876 0.124335 0.216051 -0.11473
C_ C_ 0.935277 0.12729 0.209216 -0.11473
C_ C_ 0.703513 0.138737 0.285921 -0.11473
C_ C_ 0.950929 0.133984 0.280354 -0.11473
C_ C_ 0.717734 0.0751357 0.25559 -0.02249
C_ C_ 0.964032 0.0715449 0.23993 -0.02249
C_ C_ 0.666733 0.189765 0.248741 0.6875
C_ C_ 0.915524 0.18968 0.249217 0.6875
C_ C_ 0.704263 0.0863873 0.217285 -0.11473
C_ C_ 0.950273 0.0897366 0.20496 -0.11473
C_ C_ 0.574042 0.141683 0.249461 -0.02249
C_ C_ 0.818212 0.151496 0.261185 -0.02249
C_ C_ 0.519839 0.0310611 0.250584 -0.02249
C_ C_ 0.767309 0.0390598 0.258898 -0.02249
C_ C_ 0.545729 0.0896035 0.209666 -0.11473
C_ C_ 0.787325 0.100107 0.223259 -0.11473
C_ C_ 0.568725 0.120063 0.286561 -0.11473
C_ C_ 0.81456 0.127219 0.298431 -0.11473
C_ C_ 0.559734 0.128118 0.211661 -0.11473
C_ C_ 0.806791 0.133163 0.22312 -0.11473
C_ C_ 0.540105 0.0690241 0.248259 -0.02249
C_ C_ 0.784 0.0772776 0.260561 -0.02249
C_ C_ 0.592985 0.18179 0.250148 0.6875
C_ C_ 0.839641 0.18574 0.259879 0.6875
C_ C_ 0.553414 0.0827115 0.285376 -0.11473
C_ C_ 0.793703 0.093461 0.299072 -0.11473
C_ C_ 0.636258 0.211433 0.378388 0.17695
C_ C_ 0.882172 0.214037 0.375676 0.17695
C_ C_ 0.62805 0.281056 0.382075 0.17695
C_ C_ 0.875775 0.286036 0.378496 0.17695
C_ C_ 0.623992 0.278471 0.427109 -0.11473
C_ C_ 0.875652 0.284306 0.42297 -0.11473
C_ C_ 0.62742 0.239706 0.447065 0.23465
C_ C_ 0.877027 0.245763 0.442675 0.23465
C_ C_ 0.632236 0.206612 0.421514 -0.11473
C_ C_ 0.879962 0.209672 0.418716 -0.11473
C_ C_ 0.623108 0.217213 0.12291 0.17695
C_ C_ 0.868345 0.289941 0.125294 0.17695
C_ C_ 0.62899 0.290359 0.131055 0.17695
C_ C_ 0.857571 0.217349 0.126605 0.17695
C_ C_ 0.63027 0.295564 0.0870308 -0.11473
C_ C_ 0.853938 0.216651 0.0829936 -0.11473
C_ C_ 0.626669 0.2612 0.0612466 0.23465
C_ C_ 0.858909 0.253006 0.0604122 0.23465
C_ C_ 0.623803 0.221371 0.0790393 -0.11473
C_ C_ 0.862876 0.29074 0.0818788 -0.11473
C_ C_ 0.534056 0.497372 0.240254 0.05793
C_ C_ 0.778293 0.500402 0.246882 0.05793
C_ C_ 0.720837 0.999887 0.260927 0.05793
C_ C_ 0.966282 0.993321 0.233705 0.05793
Br Br 0.574094 0.495294 0.21709 -0.17191
Br Br 0.822394 0.498672 0.236273 -0.17191
Br Br 0.677292 0.000311977 0.265524 -0.17191
Br Br 0.925923 -0.01102599999999998 0.210043 -0.17191
N_ N_ 0.631559 0.247492 0.358825 -0.272
N_ N_ 0.877073 0.251242 0.356318 -0.272
N_ N_ 0.630406 0.235287 0.490291 -0.12501
N_ N_ 0.8682 0.24126 0.485527 -0.12501
N_ N_ 0.62688 0.25149 0.14804 -0.272
N_ N_ 0.866957 0.252612 0.147085 -0.272
N_ N_ 0.62844 0.266454 0.016973 -0.12501
N_ N_ 0.854191 0.252375 0.0170504 -0.12501
O_ O_ 0.594597 0.285964 0.224875 -0.60745
O_ O_ 0.840783 0.291043 0.218787 -0.60745
O_ O_ 0.589156 0.284683 0.292638 -0.60745
O_ O_ 0.843912 0.297074 0.288071 -0.60745
O_ O_ 0.649729 0.297299 0.287275 -0.60745
O_ O_ 0.904883 0.299239 0.288403 -0.60745
O_ O_ 0.657503 0.28899 0.220716 -0.60745
O_ O_ 0.905338 0.292718 0.219104 -0.60745
O_ O_ 0.661094 0.209906 0.281797 -0.60745
O_ O_ 0.908666 0.205562 0.28523 -0.60745
O_ O_ 0.65682 0.201469 0.214767 -0.60745
O_ O_ 0.904451 0.204079 0.214576 -0.60745
O_ O_ 0.597846 0.201177 0.217168 -0.60745
O_ O_ 0.84511 0.201407 0.224311 -0.60745
O_ O_ 0.603409 0.194544 0.285048 -0.60745
O_ O_ 0.846289 0.207415 0.293389 -0.60745
Zn Zn 0.624346 0.253909 0.786573 0.9476
Zn Zn 0.875919 0.247702 0.788463 0.9476
Zn Zn 0.62298 0.253243 0.716916 0.9476
Zn Zn 0.873095 0.251614 0.717462 0.9476
H_ H_ 0.537569 0.425015 0.675182 0.10932
H_ H_ 0.779601 0.408799 0.68242 0.10932
H_ H_ 0.557757 0.358942 0.812405 0.10932
H_ H_ 0.820869 0.361175 0.817001 0.10932
H_ H_ 0.564415 0.356633 0.678085 0.10932
H_ H_ 0.800904 0.339377 0.68524 0.10932
H_ H_ 0.528105 0.423047 0.807004 0.10932
H_ H_ 0.791287 0.428819 0.814263 0.10932
H_ H_ 0.725031 0.414255 0.812665 0.10932
H_ H_ 0.975739 0.414319 0.814643 0.10932
H_ H_ 0.684013 0.354783 0.681799 0.10932
H_ H_ 0.932691 0.354767 0.684437 0.10932
H_ H_ 0.695236 0.35122 0.814965 0.10932
H_ H_ 0.946855 0.347558 0.818635 0.10932
H_ H_ 0.70896 0.421949 0.674725 0.10932
H_ H_ 0.956131 0.421784 0.68247 0.10932
H_ H_ 0.716124 0.0882231 0.815522 0.10932
H_ H_ 0.96459 0.085266 0.829483 0.10932
H_ H_ 0.676342 0.145576 0.685126 0.10932
H_ H_ 0.950306 0.158032 0.692076 0.10932
H_ H_ 0.689323 0.155268 0.815725 0.10932
H_ H_ 0.930463 0.141703 0.825829 0.10932
H_ H_ 0.710126 0.0802683 0.68296 0.10932
H_ H_ 0.977228 0.0915467 0.696537 0.10932
H_ H_ 0.548046 0.0720681 0.695089 0.10932
H_ H_ 0.782648 0.0831388 0.682647 0.10932
H_ H_ 0.547136 0.160292 0.821885 0.10932
H_ H_ 0.81935 0.138297 0.819183 0.10932
H_ H_ 0.576179 0.134067 0.693391 0.10932
H_ H_ 0.798065 0.156066 0.687394 0.10932
H_ H_ 0.52437 0.0899474 0.822783 0.10932
H_ H_ 0.786965 0.0774653 0.817677 0.10932
H_ H_ 0.613084 0.315391 0.871788 0.10932
H_ H_ 0.92327 0.252961 0.869901 0.10932
H_ H_ 0.625452 0.187662 0.857802 0.10932
H_ H_ 0.828419 0.246565 0.862077 0.10932
H_ H_ 0.630229 0.182549 0.938168 0.10932
H_ H_ 0.825463 0.258739 0.939567 0.10932
H_ H_ 0.604504 0.308424 0.945687 0.10932
H_ H_ 0.922514 0.265875 0.946251 0.10932
H_ H_ 0.625646 0.192189 0.643442 0.10932
H_ H_ 0.87852 0.317009 0.64937 0.10932
H_ H_ 0.618574 0.322062 0.646292 0.10932
H_ H_ 0.865559 0.188285 0.637402 0.10932
H_ H_ 0.631347 0.326206 0.567646 0.10932
H_ H_ 0.86542 0.194307 0.564536 0.10932
H_ H_ 0.635711 0.193125 0.567597 0.10932
H_ H_ 0.880108 0.321454 0.570167 0.10932
C_ C_ 0.56728 0.35476 0.745347 -0.02249
C_ C_ 0.814839 0.347541 0.751449 -0.02249
C_ C_ 0.513935 0.466947 0.73677 -0.02249
C_ C_ 0.769017 0.463803 0.74788 -0.02249
C_ C_ 0.543035 0.409888 0.704921 -0.11473
C_ C_ 0.78822 0.398533 0.711838 -0.11473
C_ C_ 0.55556 0.372804 0.782354 -0.11473
C_ C_ 0.812413 0.372939 0.787137 -0.11473
C_ C_ 0.559602 0.373932 0.706051 -0.11473
C_ C_ 0.801925 0.360354 0.713333 -0.11473
C_ C_ 0.532216 0.427971 0.741119 -0.02249
C_ C_ 0.782678 0.422669 0.748688 -0.02249
C_ C_ 0.584304 0.313396 0.746487 0.6875
C_ C_ 0.834099 0.310082 0.7491 0.6875
C_ C_ 0.537963 0.408577 0.780501 -0.11473
C_ C_ 0.795083 0.408432 0.786136 -0.11473
C_ C_ 0.684737 0.350429 0.74673 -0.02249
C_ C_ 0.934439 0.347806 0.752172 -0.02249
C_ C_ 0.737029 0.464985 0.744724 -0.02249
C_ C_ 0.985949 0.462465 0.748061 -0.02249
C_ C_ 0.713053 0.40571 0.783032 -0.11473
C_ C_ 0.966509 0.39989 0.787193 -0.11473
C_ C_ 0.692354 0.368527 0.708686 -0.11473
C_ C_ 0.941763 0.367624 0.71411 -0.11473
C_ C_ 0.696923 0.366874 0.783354 -0.11473
C_ C_ 0.946516 0.367259 0.789372 -0.11473
C_ C_ 0.719598 0.425566 0.743167 -0.02249
C_ C_ 0.969415 0.421795 0.748427 -0.02249
C_ C_ 0.66533 0.310525 0.749924 0.6875
C_ C_ 0.914417 0.310232 0.751505 0.6875
C_ C_ 0.707983 0.405939 0.706257 -0.11473
C_ C_ 0.955406 0.405798 0.71181 -0.11473
C_ C_ 0.682879 0.157424 0.748958 -0.02249
C_ C_ 0.935322 0.154941 0.760892 -0.02249
C_ C_ 0.732442 0.0394602 0.749096 -0.02249
C_ C_ 0.985208 0.0407319 0.761692 -0.02249
C_ C_ 0.708982 0.100771 0.786007 -0.11473
C_ C_ 0.956532 0.0954456 0.799203 -0.11473
C_ C_ 0.688775 0.136209 0.711516 -0.11473
C_ C_ 0.950452 0.141615 0.72427 -0.11473
C_ C_ 0.694346 0.140206 0.785277 -0.11473
C_ C_ 0.941591 0.133266 0.798372 -0.11473
C_ C_ 0.716802 0.0807268 0.748795 -0.02249
C_ C_ 0.96883 0.0804554 0.7622 -0.02249
C_ C_ 0.662058 0.193245 0.750339 0.6875
C_ C_ 0.914709 0.192074 0.762441 0.6875
C_ C_ 0.706128 0.0983308 0.711842 -0.11473
C_ C_ 0.965238 0.102732 0.723409 -0.11473
C_ C_ 0.565075 0.153641 0.758063 -0.02249
C_ C_ 0.813458 0.151285 0.75171 -0.02249
C_ C_ 0.515207 0.0371738 0.759916 -0.02249
C_ C_ 0.764153 0.0366362 0.745038 -0.02249
C_ C_ 0.548493 0.0917618 0.72299 -0.11473
C_ C_ 0.789193 0.0971853 0.712433 -0.11473
C_ C_ 0.550418 0.140125 0.79485 -0.11473
C_ C_ 0.809102 0.127709 0.790155 -0.11473
C_ C_ 0.564599 0.127953 0.723882 -0.11473
C_ C_ 0.801297 0.136916 0.71365 -0.11473
C_ C_ 0.533767 0.0764998 0.760044 -0.02249
C_ C_ 0.782096 0.0763934 0.749229 -0.02249
C_ C_ 0.582782 0.193869 0.754 0.6875
C_ C_ 0.833932 0.188872 0.7527 0.6875
C_ C_ 0.533724 0.103143 0.794985 -0.11473
C_ C_ 0.792398 0.0911412 0.78845 -0.11473
C_ C_ 0.619621 0.287059 0.885083 0.17695
C_ C_ 0.901863 0.252077 0.885833 0.17695
C_ C_ 0.623149 0.215189 0.877657 0.17695
C_ C_ 0.848648 0.247199 0.881573 0.17695
C_ C_ 0.624719 0.210781 0.92084 -0.11473
C_ C_ 0.847632 0.252735 0.926394 -0.11473
C_ C_ 0.621879 0.245229 0.947122 0.23465
C_ C_ 0.874194 0.259081 0.950708 0.23465
C_ C_ 0.613712 0.28285 0.928242 -0.11473
C_ C_ 0.90162 0.259491 0.929687 -0.11473
C_ C_ 0.624444 0.219882 0.626425 0.17695
C_ C_ 0.87858 0.28982 0.629734 0.17695
C_ C_ 0.623702 0.292712 0.627739 0.17695
C_ C_ 0.872436 0.217828 0.623213 0.17695
C_ C_ 0.629527 0.296114 0.58376 -0.11473
C_ C_ 0.868909 0.22099 0.580494 -0.11473
C_ C_ 0.630608 0.260314 0.560746 0.23465
C_ C_ 0.873978 0.258803 0.558732 0.23465
C_ C_ 0.627695 0.22266 0.582587 -0.11473
C_ C_ 0.875461 0.29271 0.58604 -0.11473
C_ C_ 0.527591 0.50618 0.736154 0.05793
C_ C_ 0.786043 0.501961 0.75123 0.05793
C_ C_ 0.71739 0.00168799 0.751791 0.05793
C_ C_ 0.968763 0.0029246 0.761989 0.05793
Br Br 0.569931 0.507283 0.731432 -0.17191
Br Br 0.830618 0.500959 0.757476 -0.17191
Br Br 0.673314 0.00230868 0.758348 -0.17191
Br Br 0.9261 0.00358805 0.766987 -0.17191
N_ N_ 0.62191 0.253028 0.859621 -0.272
N_ N_ 0.876105 0.245407 0.862773 -0.272
N_ N_ 0.62092 0.238363 0.991584 -0.12501
N_ N_ 0.872636 0.269993 0.994418 -0.12501
N_ N_ 0.617927 0.255688 0.646589 -0.272
N_ N_ 0.874765 0.253473 0.647483 -0.272
N_ N_ 0.627408 0.265907 0.514914 -0.12501
N_ N_ 0.882864 0.259173 0.515233 -0.12501
O_ O_ 0.597444 0.302073 0.713852 -0.60745
O_ O_ 0.842899 0.29873 0.715137 -0.60745
O_ O_ 0.592148 0.300385 0.782609 -0.60745
O_ O_ 0.842896 0.290414 0.782167 -0.60745
O_ O_ 0.654975 0.299312 0.785577 -0.60745
O_ O_ 0.907914 0.290744 0.785601 -0.60745
O_ O_ 0.655921 0.29401 0.715553 -0.60745
O_ O_ 0.904024 0.296547 0.716839 -0.60745
O_ O_ 0.652932 0.206809 0.784297 -0.60745
O_ O_ 0.907043 0.206179 0.799127 -0.60745
O_ O_ 0.652655 0.208619 0.716807 -0.60745
O_ O_ 0.90241 0.206476 0.728827 -0.60745
O_ O_ 0.58884 0.208449 0.718561 -0.60745
O_ O_ 0.841294 0.205942 0.718657 -0.60745
O_ O_ 0.59363 0.212453 0.784774 -0.60745
O_ O_ 0.842491 0.205194 0.786693 -0.60745
Zn Zn 0.626127 0.749279 0.290248 0.9476
Zn Zn 0.873701 0.747644 0.2855 0.9476
Zn Zn 0.627171 0.748873 0.217948 0.9476
Zn Zn 0.871137 0.748881 0.216122 0.9476
H_ H_ 0.53954 0.917586 0.180241 0.10932
H_ H_ 0.789174 0.924476 0.193025 0.10932
H_ H_ 0.545162 0.834081 0.30965 0.10932
H_ H_ 0.809342 0.843914 0.32342 0.10932
H_ H_ 0.570784 0.855845 0.184288 0.10932
H_ H_ 0.803637 0.850988 0.187017 0.10932
H_ H_ 0.517516 0.901517 0.311303 0.10932
H_ H_ 0.788907 0.91315 0.328855 0.10932
H_ H_ 0.715747 0.919235 0.328695 0.10932
H_ H_ 0.949592 0.92877 0.307182 0.10932
H_ H_ 0.695084 0.848845 0.193344 0.10932
H_ H_ 0.951937 0.829077 0.185958 0.10932
H_ H_ 0.689631 0.853786 0.327565 0.10932
H_ H_ 0.921032 0.865391 0.308256 0.10932
H_ H_ 0.714536 0.918183 0.190388 0.10932
H_ H_ 0.970275 0.902535 0.174602 0.10932
H_ H_ 0.710886 0.57814 0.322937 0.10932
H_ H_ 0.972967 0.589743 0.31285 0.10932
H_ H_ 0.679352 0.642351 0.187764 0.10932
H_ H_ 0.930553 0.645528 0.181409 0.10932
H_ H_ 0.690807 0.649357 0.324876 0.10932
H_ H_ 0.948653 0.654749 0.315366 0.10932
H_ H_ 0.708165 0.5782 0.18506 0.10932
H_ H_ 0.958569 0.579762 0.178371 0.10932
H_ H_ 0.550537 0.571798 0.179102 0.10932
H_ H_ 0.780822 0.585537 0.182327 0.10932
H_ H_ 0.557519 0.64777 0.309396 0.10932
H_ H_ 0.821363 0.639324 0.318089 0.10932
H_ H_ 0.575825 0.635968 0.179472 0.10932
H_ H_ 0.807759 0.654151 0.186052 0.10932
H_ H_ 0.535007 0.581916 0.311443 0.10932
H_ H_ 0.785474 0.577825 0.31815 0.10932
H_ H_ 0.62978 0.681159 0.359862 0.10932
H_ H_ 0.87256 0.81876 0.358109 0.10932
H_ H_ 0.613898 0.808352 0.368866 0.10932
H_ H_ 0.862352 0.69017 0.367745 0.10932
H_ H_ 0.611057 0.803873 0.44586 0.10932
H_ H_ 0.868654 0.694227 0.444376 0.10932
H_ H_ 0.627643 0.673869 0.440983 0.10932
H_ H_ 0.882396 0.823006 0.433273 0.10932
H_ H_ 0.633374 0.691714 0.142771 0.10932
H_ H_ 0.86859 0.680581 0.150073 0.10932
H_ H_ 0.634299 0.8198 0.150266 0.10932
H_ H_ 0.866206 0.813015 0.132011 0.10932
H_ H_ 0.630607 0.826129 0.0703896 0.10932
H_ H_ 0.865248 0.804235 0.0592855 0.10932
H_ H_ 0.636352 0.693994 0.0648554 0.10932
H_ H_ 0.874838 0.673035 0.0722551 0.10932
C_ C_ 0.561524 0.838658 0.249487 -0.02249
C_ C_ 0.811147 0.845558 0.255828 -0.02249
C_ C_ 0.513978 0.954794 0.246511 -0.02249
C_ C_ 0.768004 0.961502 0.265747 -0.02249
C_ C_ 0.540539 0.898939 0.210419 -0.11473
C_ C_ 0.790559 0.905517 0.220994 -0.11473
C_ C_ 0.54413 0.851532 0.284354 -0.11473
C_ C_ 0.805995 0.862025 0.293981 -0.11473
C_ C_ 0.557759 0.861993 0.21172 -0.11473
C_ C_ 0.801205 0.865592 0.219099 -0.11473
C_ C_ 0.528713 0.91426 0.2463 -0.02249
C_ C_ 0.785477 0.922567 0.261343 -0.02249
C_ C_ 0.586119 0.806025 0.253326 0.6875
C_ C_ 0.832454 0.808474 0.253016 0.6875
C_ C_ 0.528996 0.889751 0.283859 -0.11473
C_ C_ 0.792579 0.899426 0.298098 -0.11473
C_ C_ 0.686733 0.848179 0.261185 -0.02249
C_ C_ 0.93162 0.844355 0.246255 -0.02249
C_ C_ 0.736334 0.962849 0.260161 -0.02249
C_ C_ 0.982598 0.957159 0.240823 -0.02249
C_ C_ 0.711401 0.905288 0.298376 -0.11473
C_ C_ 0.952238 0.908095 0.280076 -0.11473
C_ C_ 0.69879 0.86422 0.222309 -0.11473
C_ C_ 0.948509 0.85343 0.209747 -0.11473
C_ C_ 0.694553 0.869301 0.298575 -0.11473
C_ C_ 0.935564 0.87053 0.281587 -0.11473
C_ C_ 0.718571 0.924007 0.260059 -0.02249
C_ C_ 0.966883 0.917429 0.243751 -0.02249
C_ C_ 0.669659 0.808515 0.261718 0.6875
C_ C_ 0.913311 0.806316 0.24919 0.6875
C_ C_ 0.710569 0.904752 0.220827 -0.11473
C_ C_ 0.963945 0.892071 0.206509 -0.11473
C_ C_ 0.684143 0.653002 0.254829 -0.02249
C_ C_ 0.933648 0.652543 0.248246 -0.02249
C_ C_ 0.731354 0.537062 0.255105 -0.02249
C_ C_ 0.984343 0.538964 0.247156 -0.02249
C_ C_ 0.708334 0.596676 0.291569 -0.11473
C_ C_ 0.965489 0.601947 0.28331 -0.11473
C_ C_ 0.689085 0.633184 0.216961 -0.11473
C_ C_ 0.94066 0.632927 0.209648 -0.11473
C_ C_ 0.694087 0.635491 0.2927 -0.11473
C_ C_ 0.948367 0.63845 0.284577 -0.11473
C_ C_ 0.71602 0.577894 0.254848 -0.02249
C_ C_ 0.967429 0.578734 0.247056 -0.02249
C_ C_ 0.666881 0.692011 0.25462 0.6875
C_ C_ 0.91483 0.692415 0.24947 0.6875
C_ C_ 0.704964 0.594774 0.216317 -0.11473
C_ C_ 0.955329 0.595368 0.208544 -0.11473
C_ C_ 0.572603 0.647555 0.246584 -0.02249
C_ C_ 0.819305 0.647397 0.251275 -0.02249
C_ C_ 0.519726 0.534037 0.243707 -0.02249
C_ C_ 0.762135 0.537414 0.250683 -0.02249
C_ C_ 0.55271 0.588203 0.209437 -0.11473
C_ C_ 0.789562 0.596502 0.212211 -0.11473
C_ C_ 0.560166 0.62902 0.282828 -0.11473
C_ C_ 0.812202 0.627047 0.290117 -0.11473
C_ C_ 0.566615 0.626238 0.207989 -0.11473
C_ C_ 0.804902 0.634519 0.213769 -0.11473
C_ C_ 0.539834 0.570529 0.244738 -0.02249
C_ C_ 0.780225 0.577452 0.249827 -0.02249
C_ C_ 0.587998 0.686342 0.246913 0.6875
C_ C_ 0.835977 0.685982 0.24949 0.6875
C_ C_ 0.543989 0.592616 0.28201 -0.11473
C_ C_ 0.790558 0.595039 0.289159 -0.11473
C_ C_ 0.627382 0.706753 0.379694 0.17695
C_ C_ 0.878635 0.790878 0.374425 0.17695
C_ C_ 0.61938 0.778861 0.383569 0.17695
C_ C_ 0.868919 0.718334 0.382338 0.17695
C_ C_ 0.61808 0.777164 0.427755 -0.11473
C_ C_ 0.869864 0.722601 0.426561 -0.11473
C_ C_ 0.621941 0.738347 0.448217 0.23465
C_ C_ 0.875905 0.760387 0.44482 0.23465
C_ C_ 0.62696 0.703455 0.42445 -0.11473
C_ C_ 0.880552 0.793823 0.418804 -0.11473
C_ C_ 0.628696 0.719588 0.126817 0.17695
C_ C_ 0.866858 0.708201 0.128383 0.17695
C_ C_ 0.632776 0.792688 0.131449 0.17695
C_ C_ 0.867719 0.780146 0.119866 0.17695
C_ C_ 0.63146 0.795814 0.0870318 -0.11473
C_ C_ 0.867275 0.777493 0.0762454 -0.11473
C_ C_ 0.629882 0.759802 0.0612491 0.23465
C_ C_ 0.867201 0.737714 0.058884 0.23465
C_ C_ 0.630588 0.720899 0.0816822 -0.11473
C_ C_ 0.869041 0.7027 0.0864044 -0.11473
C_ C_ 0.531789 0.990601 0.247717 0.05793
C_ C_ 0.782869 0.999505 0.264347 0.05793
C_ C_ 0.714284 0.50056 0.254711 0.05793
C_ C_ 0.968278 0.500375 0.243056 0.05793
Br Br 0.575178 0.984523 0.239496 -0.17191
Br Br 0.827206 1.00191384 0.261429 -0.17191
Br Br 0.675159 0.498258 0.276141 -0.17191
Br Br 0.92504 0.502271 0.228849 -0.17191
N_ N_ 0.623607 0.744013 0.360674 -0.272
N_ N_ 0.874819 0.752942 0.356698 -0.272
N_ N_ 0.621761 0.73296 0.492054 -0.12501
N_ N_ 0.877883 0.766408 0.489315 -0.12501
N_ N_ 0.629173 0.755909 0.149582 -0.272
N_ N_ 0.868313 0.746637 0.145251 -0.272
N_ N_ 0.633163 0.763429 0.0161505 -0.12501
N_ N_ 0.867233 0.732455 0.0155172 -0.12501
O_ O_ 0.597195 0.794046 0.218177 -0.60745
O_ O_ 0.838114 0.791231 0.217653 -0.60745
O_ O_ 0.595993 0.792546 0.28934 -0.60745
O_ O_ 0.841439 0.789111 0.285019 -0.60745
O_ O_ 0.658838 0.795676 0.29543 -0.60745
O_ O_ 0.905736 0.791078 0.282975 -0.60745
O_ O_ 0.661421 0.792039 0.226473 -0.60745
O_ O_ 0.899469 0.795003 0.216002 -0.60745
O_ O_ 0.65621 0.707399 0.285855 -0.60745
O_ O_ 0.905281 0.705927 0.283828 -0.60745
O_ O_ 0.658529 0.706301 0.219002 -0.60745
O_ O_ 0.904232 0.708713 0.216038 -0.60745
O_ O_ 0.594601 0.707101 0.214404 -0.60745
O_ O_ 0.845172 0.701224 0.216109 -0.60745
O_ O_ 0.593584 0.703713 0.281968 -0.60745
O_ O_ 0.840699 0.704864 0.281919 -0.60745
Zn Zn 0.625659 0.752482 0.788203 0.9476
Zn Zn 0.878714 0.751415 0.788993 0.9476
Zn Zn 0.625298 0.752387 0.717957 0.9476
Zn Zn 0.87512 0.753741 0.719835 0.9476
H_ H_ 0.534593 0.925747 0.691248 0.10932
H_ H_ 0.771092 0.901881 0.684801 0.10932
H_ H_ 0.559027 0.845295 0.819862 0.10932
H_ H_ 0.83088 0.870999 0.812551 0.10932
H_ H_ 0.565238 0.85875 0.686319 0.10932
H_ H_ 0.799773 0.839962 0.688242 0.10932
H_ H_ 0.528836 0.908967 0.824794 0.10932
H_ H_ 0.795815 0.930628 0.812816 0.10932
H_ H_ 0.710973 0.92853 0.8194 0.10932
H_ H_ 0.956822 0.927358 0.822078 0.10932
H_ H_ 0.698453 0.839844 0.691919 0.10932
H_ H_ 0.95023 0.847491 0.68808 0.10932
H_ H_ 0.68782 0.857176 0.823807 0.10932
H_ H_ 0.927496 0.861983 0.819516 0.10932
H_ H_ 0.716937 0.91182 0.686714 0.10932
H_ H_ 0.969836 0.919686 0.688422 0.10932
H_ H_ 0.709192 0.575634 0.819317 0.10932
H_ H_ 0.956966 0.568057 0.816942 0.10932
H_ H_ 0.700075 0.665768 0.692157 0.10932
H_ H_ 0.945973 0.659192 0.692291 0.10932
H_ H_ 0.673709 0.632652 0.818574 0.10932
H_ H_ 0.92701 0.634002 0.820625 0.10932
H_ H_ 0.728915 0.59527 0.689005 0.10932
H_ H_ 0.972002 0.592861 0.686874 0.10932
H_ H_ 0.509754 0.609392 0.683452 0.10932
H_ H_ 0.796746 0.580515 0.689097 0.10932
H_ H_ 0.579768 0.630372 0.806855 0.10932
H_ H_ 0.812874 0.646102 0.828422 0.10932
H_ H_ 0.544679 0.669658 0.684004 0.10932
H_ H_ 0.812665 0.649878 0.692822 0.10932
H_ H_ 0.543514 0.573231 0.804769 0.10932
H_ H_ 0.77911 0.586162 0.820742 0.10932
H_ H_ 0.619708 0.686077 0.85821 0.10932
H_ H_ 0.884486 0.689435 0.866805 0.10932
H_ H_ 0.626762 0.816453 0.86495 0.10932
H_ H_ 0.869893 0.817839 0.859103 0.10932
H_ H_ 0.621824 0.813913 0.941424 0.10932
H_ H_ 0.879393 0.824963 0.940059 0.10932
H_ H_ 0.615905 0.682599 0.936469 0.10932
H_ H_ 0.872774 0.691285 0.941572 0.10932
H_ H_ 0.625448 0.68629 0.640504 0.10932
H_ H_ 0.867514 0.81424 0.642624 0.10932
H_ H_ 0.626129 0.818285 0.649178 0.10932
H_ H_ 0.859783 0.68508 0.650724 0.10932
H_ H_ 0.621274 0.824143 0.571091 0.10932
H_ H_ 0.863723 0.678683 0.573668 0.10932
H_ H_ 0.620595 0.692285 0.564104 0.10932
H_ H_ 0.871116 0.809594 0.561876 0.10932
C_ C_ 0.565766 0.849082 0.752796 -0.02249
C_ C_ 0.818677 0.851938 0.750141 -0.02249
C_ C_ 0.513375 0.961041 0.760633 -0.02249
C_ C_ 0.764325 0.962376 0.744806 -0.02249
C_ C_ 0.537671 0.904984 0.717547 -0.11473
C_ C_ 0.783946 0.896254 0.712559 -0.11473
C_ C_ 0.555197 0.862704 0.7912 -0.11473
C_ C_ 0.81628 0.876851 0.786201 -0.11473
C_ C_ 0.557091 0.869391 0.715588 -0.11473
C_ C_ 0.799397 0.86056 0.714573 -0.11473
C_ C_ 0.530762 0.920871 0.756424 -0.02249
C_ C_ 0.780915 0.921959 0.747394 -0.02249
C_ C_ 0.587085 0.814237 0.752545 0.6875
C_ C_ 0.83909 0.815668 0.749646 0.6875
C_ C_ 0.538174 0.89923 0.793342 -0.11473
C_ C_ 0.797433 0.912446 0.784824 -0.11473
C_ C_ 0.687961 0.846129 0.758347 -0.02249
C_ C_ 0.935261 0.851228 0.754088 -0.02249
C_ C_ 0.732714 0.96258 0.748605 -0.02249
C_ C_ 0.984672 0.965651 0.75677 -0.02249
C_ C_ 0.706761 0.908286 0.790514 -0.11473
C_ C_ 0.954647 0.908568 0.791769 -0.11473
C_ C_ 0.700131 0.85917 0.719532 -0.11473
C_ C_ 0.947972 0.866787 0.716741 -0.11473
C_ C_ 0.692336 0.869621 0.794242 -0.11473
C_ C_ 0.938177 0.873034 0.790842 -0.11473
C_ C_ 0.716915 0.922008 0.751037 -0.02249
C_ C_ 0.96738 0.926219 0.755536 -0.02249
C_ C_ 0.666085 0.811488 0.757529 0.6875
C_ C_ 0.916298 0.813115 0.754368 0.6875
C_ C_ 0.711008 0.899374 0.716478 -0.11473
C_ C_ 0.962899 0.90524 0.718459 -0.11473
C_ C_ 0.683589 0.651083 0.75318 -0.02249
C_ C_ 0.931299 0.650257 0.7568 -0.02249
C_ C_ 0.739028 0.540839 0.752023 -0.02249
C_ C_ 0.983877 0.538153 0.751528 -0.02249
C_ C_ 0.704343 0.59176 0.789672 -0.11473
C_ C_ 0.954542 0.587754 0.789446 -0.11473
C_ C_ 0.700627 0.643203 0.717904 -0.11473
C_ C_ 0.945693 0.637468 0.719061 -0.11473
C_ C_ 0.685843 0.625806 0.788947 -0.11473
C_ C_ 0.937669 0.625422 0.79165 -0.11473
C_ C_ 0.720578 0.581317 0.753119 -0.02249
C_ C_ 0.966814 0.577046 0.752381 -0.02249
C_ C_ 0.666122 0.690695 0.754636 0.6875
C_ C_ 0.912892 0.688691 0.759678 0.6875
C_ C_ 0.718337 0.606496 0.716512 -0.11473
C_ C_ 0.961216 0.600863 0.716168 -0.11473
C_ C_ 0.566494 0.653405 0.745165 -0.02249
C_ C_ 0.814059 0.657647 0.759939 -0.02249
C_ C_ 0.511237 0.543597 0.738002 -0.02249
C_ C_ 0.769936 0.54008 0.756031 -0.02249
C_ C_ 0.528541 0.611959 0.707297 -0.11473
C_ C_ 0.798653 0.594002 0.719972 -0.11473
C_ C_ 0.565544 0.625939 0.77851 -0.11473
C_ C_ 0.805811 0.635595 0.798424 -0.11473
C_ C_ 0.547748 0.646132 0.709101 -0.11473
C_ C_ 0.810439 0.634222 0.721705 -0.11473
C_ C_ 0.527084 0.584866 0.742232 -0.02249
C_ C_ 0.785264 0.578685 0.755885 -0.02249
C_ C_ 0.585966 0.692886 0.747478 0.6875
C_ C_ 0.837029 0.692356 0.758018 0.6875
C_ C_ 0.544271 0.592756 0.777191 -0.11473
C_ C_ 0.789522 0.599322 0.793403 -0.11473
C_ C_ 0.622122 0.715326 0.877321 0.17695
C_ C_ 0.878306 0.718364 0.881328 0.17695
C_ C_ 0.62311 0.787541 0.880411 0.17695
C_ C_ 0.877052 0.791791 0.878807 0.17695
C_ C_ 0.619504 0.786035 0.924253 -0.11473
C_ C_ 0.881362 0.794301 0.923277 -0.11473
C_ C_ 0.61822 0.74911 0.946628 0.23465
C_ C_ 0.877213 0.758577 0.946637 0.23465
C_ C_ 0.617618 0.712797 0.920971 -0.11473
C_ C_ 0.876351 0.719428 0.924579 -0.11473
C_ C_ 0.624973 0.718208 0.627004 0.17695
C_ C_ 0.871618 0.785153 0.626355 0.17695
C_ C_ 0.625932 0.790471 0.630779 0.17695
C_ C_ 0.865107 0.712957 0.630785 0.17695
C_ C_ 0.621172 0.793799 0.587945 -0.11473
C_ C_ 0.866376 0.709029 0.587522 -0.11473
C_ C_ 0.621737 0.758503 0.563276 0.23465
C_ C_ 0.871161 0.743666 0.56129 0.23465
C_ C_ 0.622099 0.720338 0.583303 -0.11473
C_ C_ 0.87028 0.7837 0.581928 -0.11473
C_ C_ 0.529178 -0.0019879999999999898 0.764746 0.05793
C_ C_ 0.778765 -0.0009449999999999736 0.733409 0.05793
C_ C_ 0.723013 0.504397 0.74023 0.05793
C_ C_ 0.968992 0.499971 0.753349 0.05793
Br Br 0.572527 -0.00245799999999996 0.775792 -0.17191
Br Br 0.818448 0.995848 0.710533 -0.17191
Br Br 0.682427 0.50735 0.726604 -0.17191
Br Br 0.926901 0.496779 0.752779 -0.17191
N_ N_ 0.62374 0.752104 0.85843 -0.272
N_ N_ 0.878257 0.754969 0.85902 -0.272
N_ N_ 0.614591 0.74839 0.990502 -0.12501
N_ N_ 0.878938 0.760402 0.992609 -0.12501
N_ N_ 0.627884 0.752878 0.65 -0.272
N_ N_ 0.871676 0.749567 0.650113 -0.272
N_ N_ 0.618778 0.762074 0.517604 -0.12501
N_ N_ 0.869208 0.73938 0.515649 -0.12501
O_ O_ 0.59783 0.801626 0.719594 -0.60745
O_ O_ 0.846811 0.80058 0.715542 -0.60745
O_ O_ 0.594213 0.793704 0.785835 -0.60745
O_ O_ 0.849063 0.798998 0.782304 -0.60745
O_ O_ 0.656179 0.797817 0.792931 -0.60745
O_ O_ 0.910016 0.796543 0.79002 -0.60745
O_ O_ 0.65651 0.795537 0.723162 -0.60745
O_ O_ 0.907949 0.797945 0.720625 -0.60745
O_ O_ 0.659387 0.707615 0.789052 -0.60745
O_ O_ 0.908929 0.706394 0.793791 -0.60745
O_ O_ 0.654863 0.704525 0.720057 -0.60745
O_ O_ 0.902958 0.704869 0.72549 -0.60745
O_ O_ 0.592916 0.711149 0.714253 -0.60745
O_ O_ 0.842468 0.710304 0.72351 -0.60745
O_ O_ 0.596508 0.705061 0.783181 -0.60745
O_ O_ 0.845016 0.709025 0.791856 -0.60745
