_cell_length_a 44.444
_cell_length_b 32.3360000049186
_cell_length_c 31.843999878906452
_cell_angle_alpha 89.99799923859553
_cell_angle_beta 91.13600050494348
_cell_angle_gamma 89.9990006550086
_symmetry_space_group_name_H-M         'P 1'
_symmetry_Int_Tables_number            1
loop_
_symmetry_equiv_pos_as_xyz
   'x, y, z'
                         
loop_
_atom_site_label
_atom_site_type_symbol
_atom_site_fract_x 
_atom_site_fract_y
_atom_site_fract_z
_atom_site_charge
Zn Zn 0.121268 0.249501 0.284937 0.9476
Zn Zn 0.375124 0.25168 0.292283 0.9476
Zn Zn 0.121911 0.250822 0.215776 0.9476
Zn Zn 0.3773 0.249622 0.221295 0.9476
H_ H_ 0.0358328 0.42117 0.182591 0.10932
H_ H_ 0.290226 0.417831 0.181544 0.10932
H_ H_ 0.0683447 0.35919 0.313473 0.10932
H_ H_ 0.304247 0.344992 0.317158 0.10932
H_ H_ 0.055342 0.348845 0.178682 0.10932
H_ H_ 0.323478 0.35253 0.18609 0.10932
H_ H_ 0.0361739 0.422614 0.315574 0.10932
H_ H_ 0.271748 0.406154 0.312055 0.10932
H_ H_ 0.205126 0.424015 0.313353 0.10932
H_ H_ 0.468489 0.417218 0.325321 0.10932
H_ H_ 0.200971 0.335981 0.182604 0.10932
H_ H_ 0.434363 0.353137 0.188156 0.10932
H_ H_ 0.174536 0.364294 0.309661 0.10932
H_ H_ 0.437368 0.353509 0.321939 0.10932
H_ H_ 0.230976 0.402134 0.183071 0.10932
H_ H_ 0.457477 0.423769 0.191585 0.10932
H_ H_ 0.219969 0.0881775 0.320869 0.10932
H_ H_ 0.466182 0.0789227 0.325562 0.10932
H_ H_ 0.179479 0.142206 0.186759 0.10932
H_ H_ 0.44695 0.159813 0.19476 0.10932
H_ H_ 0.187655 0.153215 0.320514 0.10932
H_ H_ 0.431734 0.141724 0.328078 0.10932
H_ H_ 0.205709 0.0743086 0.189853 0.10932
H_ H_ 0.479624 0.097466 0.195819 0.10932
H_ H_ 0.0189232 0.0979834 0.180608 0.10932
H_ H_ 0.293547 0.0697596 0.198135 0.10932
H_ H_ 0.0781286 0.133804 0.312962 0.10932
H_ H_ 0.302798 0.158071 0.323993 0.10932
H_ H_ 0.0451348 0.163443 0.186314 0.10932
H_ H_ 0.321418 0.137023 0.193848 0.10932
H_ H_ 0.0501509 0.0697746 0.310519 0.10932
H_ H_ 0.275962 0.0922633 0.327817 0.10932
H_ H_ 0.134433 0.313795 0.367517 0.10932
H_ H_ 0.390783 0.314437 0.364399 0.10932
H_ H_ 0.112271 0.186664 0.359567 0.10932
H_ H_ 0.38843 0.183926 0.36845 0.10932
H_ H_ 0.116113 0.178974 0.438026 0.10932
H_ H_ 0.381027 0.186991 0.443946 0.10932
H_ H_ 0.140959 0.307258 0.441778 0.10932
H_ H_ 0.395274 0.319267 0.439907 0.10932
H_ H_ 0.122887 0.30705 0.133082 0.10932
H_ H_ 0.352375 0.302266 0.136487 0.10932
H_ H_ 0.108679 0.179243 0.149111 0.10932
H_ H_ 0.402525 0.192162 0.149855 0.10932
H_ H_ 0.106948 0.170572 0.0718186 0.10932
H_ H_ 0.408182 0.187957 0.0731241 0.10932
H_ H_ 0.118774 0.30147 0.0572482 0.10932
H_ H_ 0.355129 0.302119 0.0608096 0.10932
C_ C_ 0.0624816 0.347036 0.248347 -0.02249
C_ C_ 0.314806 0.344568 0.251388 -0.02249
C_ C_ 0.0119022 0.46089 0.24763 -0.02249
C_ C_ 0.266402 0.460105 0.248213 -0.02249
C_ C_ 0.037559 0.402042 0.210009 -0.11473
C_ C_ 0.294726 0.402795 0.211171 -0.11473
C_ C_ 0.056879 0.369274 0.285838 -0.11473
C_ C_ 0.303559 0.362059 0.288796 -0.11473
C_ C_ 0.0523492 0.363764 0.209967 -0.11473
C_ C_ 0.309161 0.363733 0.213389 -0.11473
C_ C_ 0.0289337 0.421182 0.248203 -0.02249
C_ C_ 0.281526 0.417941 0.24704 -0.02249
C_ C_ 0.0825887 0.310103 0.248313 0.6875
C_ C_ 0.333857 0.307948 0.253508 0.6875
C_ C_ 0.0384342 0.403823 0.286358 -0.11473
C_ C_ 0.28363 0.396118 0.284278 -0.11473
C_ C_ 0.186026 0.343743 0.248193 -0.02249
C_ C_ 0.433375 0.347838 0.255804 -0.02249
C_ C_ 0.235209 0.460227 0.24932 -0.02249
C_ C_ 0.484748 0.462101 0.25563 -0.02249
C_ C_ 0.20588 0.404656 0.285778 -0.11473
C_ C_ 0.460747 0.402827 0.293887 -0.11473
C_ C_ 0.203226 0.355773 0.212445 -0.11473
C_ C_ 0.440139 0.368134 0.219114 -0.11473
C_ C_ 0.189646 0.368467 0.285001 -0.11473
C_ C_ 0.445081 0.364857 0.293151 -0.11473
C_ C_ 0.219288 0.418776 0.248291 -0.02249
C_ C_ 0.466227 0.423294 0.256399 -0.02249
C_ C_ 0.164055 0.308333 0.24641 0.6875
C_ C_ 0.415631 0.308421 0.256596 0.6875
C_ C_ 0.219314 0.393396 0.212107 -0.11473
C_ C_ 0.456002 0.405458 0.218825 -0.11473
C_ C_ 0.177749 0.15023 0.255153 -0.02249
C_ C_ 0.437241 0.157574 0.262675 -0.02249
C_ C_ 0.232051 0.0380961 0.255937 -0.02249
C_ C_ 0.487359 0.0423568 0.256131 -0.02249
C_ C_ 0.207176 0.098842 0.293921 -0.11473
C_ C_ 0.458827 0.0965121 0.29656 -0.11473
C_ C_ 0.187497 0.130387 0.217658 -0.11473
C_ C_ 0.448783 0.141653 0.224489 -0.11473
C_ C_ 0.189532 0.13483 0.293322 -0.11473
C_ C_ 0.440484 0.133871 0.298758 -0.11473
C_ C_ 0.214271 0.0779204 0.257205 -0.02249
C_ C_ 0.471318 0.0826797 0.258507 -0.02249
C_ C_ 0.160896 0.189309 0.252574 0.6875
C_ C_ 0.416205 0.193211 0.260591 0.6875
C_ C_ 0.20315 0.0929961 0.219087 -0.11473
C_ C_ 0.468246 0.107673 0.223684 -0.11473
C_ C_ 0.061857 0.155596 0.249704 -0.02249
C_ C_ 0.314754 0.15342 0.25853 -0.02249
C_ C_ 0.0124505 0.0385555 0.248827 -0.02249
C_ C_ 0.263437 0.0385571 0.262041 -0.02249
C_ C_ 0.0301715 0.105846 0.210044 -0.11473
C_ C_ 0.293177 0.0920367 0.224244 -0.11473
C_ C_ 0.0624965 0.129329 0.286478 -0.11473
C_ C_ 0.301345 0.138992 0.296492 -0.11473
C_ C_ 0.0457162 0.143826 0.212919 -0.11473
C_ C_ 0.308763 0.12955 0.222912 -0.11473
C_ C_ 0.028568 0.0799933 0.248449 -0.02249
C_ C_ 0.280198 0.0798946 0.261151 -0.02249
C_ C_ 0.0811259 0.192689 0.251728 0.6875
C_ C_ 0.335342 0.189575 0.257908 0.6875
C_ C_ 0.04599 0.0924094 0.283934 -0.11473
C_ C_ 0.285703 0.102154 0.298287 -0.11473
C_ C_ 0.12764 0.28555 0.38216 0.17695
C_ C_ 0.38582 0.286305 0.381014 0.17695
C_ C_ 0.114288 0.213925 0.378318 0.17695
C_ C_ 0.383056 0.21437 0.383703 0.17695
C_ C_ 0.117833 0.209875 0.422201 -0.11473
C_ C_ 0.38572 0.215933 0.427984 -0.11473
C_ C_ 0.125789 0.243249 0.446955 0.23465
C_ C_ 0.389335 0.254384 0.447777 0.23465
C_ C_ 0.130671 0.28157 0.42674 -0.11473
C_ C_ 0.392106 0.288657 0.423463 -0.11473
C_ C_ 0.121302 0.276039 0.121042 0.17695
C_ C_ 0.364768 0.276083 0.12344 0.17695
C_ C_ 0.116382 0.204225 0.12959 0.17695
C_ C_ 0.390489 0.213615 0.12898 0.17695
C_ C_ 0.11504 0.19998 0.0845396 -0.11473
C_ C_ 0.394978 0.213457 0.084821 -0.11473
C_ C_ 0.118208 0.234934 0.0586651 0.23465
C_ C_ 0.38163 0.242326 0.0591854 0.23465
C_ C_ 0.120501 0.273209 0.077193 -0.11473
C_ C_ 0.364646 0.275088 0.078794 -0.11473
C_ C_ 0.0284385 0.498076 0.246702 0.05793
C_ C_ 0.282189 0.497152 0.252987 0.05793
C_ C_ 0.216853 -0.0007620000000000404 0.257302 0.05793
C_ C_ 0.471929 1.00517933 0.248969 0.05793
Br Br 0.071197 0.492375 0.232502 -0.17191
Br Br 0.32588 0.49629 0.264753 -0.17191
Br Br 0.174282 -0.0026969999999999494 0.257342 -0.17191
Br Br 0.433676 1.00773061 0.219278 -0.17191
N_ N_ 0.118956 0.251091 0.359586 -0.272
N_ N_ 0.377912 0.249842 0.362803 -0.272
N_ N_ 0.132159 0.239981 0.491008 -0.12501
N_ N_ 0.388326 0.258684 0.492588 -0.12501
N_ N_ 0.120186 0.242273 0.146079 -0.272
N_ N_ 0.37784 0.246714 0.147828 -0.272
N_ N_ 0.119469 0.227174 0.0132914 -0.12501
N_ N_ 0.381399 0.236038 0.0145736 -0.12501
O_ O_ 0.088871 0.29183 0.214702 -0.60745
O_ O_ 0.342684 0.289694 0.220094 -0.60745
O_ O_ 0.0955318 0.299183 0.283839 -0.60745
O_ O_ 0.344196 0.297087 0.289621 -0.60745
O_ O_ 0.152614 0.294139 0.280153 -0.60745
O_ O_ 0.408402 0.291478 0.290961 -0.60745
O_ O_ 0.15461 0.293293 0.212088 -0.60745
O_ O_ 0.405677 0.294466 0.22233 -0.60745
O_ O_ 0.153168 0.206217 0.286279 -0.60745
O_ O_ 0.407025 0.209228 0.294938 -0.60745
O_ O_ 0.151573 0.202517 0.217437 -0.60745
O_ O_ 0.41134 0.212851 0.227272 -0.60745
O_ O_ 0.0890975 0.210127 0.21704 -0.60745
O_ O_ 0.34806 0.198798 0.224432 -0.60745
O_ O_ 0.0908863 0.20608 0.285896 -0.60745
O_ O_ 0.340728 0.210417 0.291136 -0.60745
Zn Zn 0.126472 0.246292 0.786773 0.9476
Zn Zn 0.375967 0.247078 0.790673 0.9476
Zn Zn 0.124668 0.248426 0.719301 0.9476
Zn Zn 0.372084 0.248605 0.720197 0.9476
H_ H_ 0.0293089 0.41259 0.687691 0.10932
H_ H_ 0.280847 0.417809 0.681359 0.10932
H_ H_ 0.0837957 0.365685 0.811371 0.10932
H_ H_ 0.317089 0.351577 0.814533 0.10932
H_ H_ 0.05364 0.34363 0.687399 0.10932
H_ H_ 0.303154 0.347311 0.680149 0.10932
H_ H_ 0.0484292 0.42282 0.817981 0.10932
H_ H_ 0.290273 0.418909 0.813741 0.10932
H_ H_ 0.224689 0.41034 0.825494 0.10932
H_ H_ 0.454485 0.424202 0.83102 0.10932
H_ H_ 0.177755 0.355422 0.690954 0.10932
H_ H_ 0.440241 0.347243 0.695872 0.10932
H_ H_ 0.193564 0.347601 0.826469 0.10932
H_ H_ 0.421621 0.363989 0.827188 0.10932
H_ H_ 0.196391 0.429072 0.696022 0.10932
H_ H_ 0.473552 0.410002 0.700587 0.10932
H_ H_ 0.230943 0.0877829 0.817633 0.10932
H_ H_ 0.469293 0.0871244 0.822271 0.10932
H_ H_ 0.184636 0.143778 0.687716 0.10932
H_ H_ 0.424713 0.147379 0.68835 0.10932
H_ H_ 0.200878 0.155784 0.81917 0.10932
H_ H_ 0.44095 0.148755 0.823739 0.10932
H_ H_ 0.207389 0.0719473 0.68697 0.10932
H_ H_ 0.457379 0.0787543 0.687407 0.10932
H_ H_ 0.0246894 0.0966757 0.665955 0.10932
H_ H_ 0.267466 0.0998643 0.684859 0.10932
H_ H_ 0.0673303 0.131841 0.807258 0.10932
H_ H_ 0.328238 0.127388 0.817346 0.10932
H_ H_ 0.0551304 0.158413 0.674214 0.10932
H_ H_ 0.298417 0.160105 0.690207 0.10932
H_ H_ 0.0307731 0.0716357 0.800521 0.10932
H_ H_ 0.298137 0.0634753 0.81109 0.10932
H_ H_ 0.122802 0.307409 0.855212 0.10932
H_ H_ 0.322874 0.235778 0.862366 0.10932
H_ H_ 0.123814 0.180219 0.866039 0.10932
H_ H_ 0.415714 0.267636 0.867457 0.10932
H_ H_ 0.130768 0.188906 0.941571 0.10932
H_ H_ 0.413194 0.273212 0.946184 0.10932
H_ H_ 0.114736 0.315808 0.931175 0.10932
H_ H_ 0.321261 0.246543 0.941463 0.10932
H_ H_ 0.131254 0.190839 0.641927 0.10932
H_ H_ 0.416974 0.255255 0.645338 0.10932
H_ H_ 0.122249 0.318777 0.652956 0.10932
H_ H_ 0.323098 0.238415 0.640843 0.10932
H_ H_ 0.119256 0.326426 0.573398 0.10932
H_ H_ 0.324205 0.239795 0.563167 0.10932
H_ H_ 0.131054 0.196304 0.5631 0.10932
H_ H_ 0.418859 0.253979 0.569175 0.10932
C_ C_ 0.068717 0.345374 0.75141 -0.02249
C_ C_ 0.312524 0.341236 0.748723 -0.02249
C_ C_ 0.0155258 0.458204 0.749893 -0.02249
C_ C_ 0.266737 0.460047 0.750068 -0.02249
C_ C_ 0.0356661 0.397473 0.716014 -0.11473
C_ C_ 0.287977 0.400865 0.711495 -0.11473
C_ C_ 0.0672351 0.370981 0.786886 -0.11473
C_ C_ 0.307588 0.364063 0.785938 -0.11473
C_ C_ 0.0493441 0.358039 0.716205 -0.11473
C_ C_ 0.303202 0.361787 0.710935 -0.11473
C_ C_ 0.0321449 0.418858 0.752409 -0.02249
C_ C_ 0.283363 0.419608 0.74897 -0.02249
C_ C_ 0.0851506 0.304665 0.749854 0.6875
C_ C_ 0.330581 0.303663 0.749949 0.6875
C_ C_ 0.0495252 0.40659 0.788732 -0.11473
C_ C_ 0.294494 0.401842 0.786292 -0.11473
C_ C_ 0.182916 0.348252 0.76062 -0.02249
C_ C_ 0.429769 0.349129 0.762494 -0.02249
C_ C_ 0.235715 0.45935 0.754946 -0.02249
C_ C_ 0.484379 0.459157 0.762609 -0.02249
C_ C_ 0.214826 0.397318 0.794683 -0.11473
C_ C_ 0.451952 0.407 0.801565 -0.11473
C_ C_ 0.185096 0.369894 0.722353 -0.11473
C_ C_ 0.444928 0.361375 0.726114 -0.11473
C_ C_ 0.195222 0.364064 0.797194 -0.11473
C_ C_ 0.434784 0.371173 0.80012 -0.11473
C_ C_ 0.218935 0.418817 0.7548 -0.02249
C_ C_ 0.466405 0.419895 0.764751 -0.02249
C_ C_ 0.165117 0.309209 0.760187 0.6875
C_ C_ 0.409394 0.311021 0.760415 0.6875
C_ C_ 0.200642 0.407453 0.720858 -0.11473
C_ C_ 0.461368 0.398933 0.726951 -0.11473
C_ C_ 0.186829 0.148939 0.754462 -0.02249
C_ C_ 0.43167 0.153247 0.755469 -0.02249
C_ C_ 0.234503 0.0338766 0.752491 -0.02249
C_ C_ 0.481982 0.0397612 0.753074 -0.02249
C_ C_ 0.216288 0.0980671 0.791139 -0.11473
C_ C_ 0.461758 0.101134 0.792903 -0.11473
C_ C_ 0.192878 0.130372 0.715636 -0.11473
C_ C_ 0.437693 0.135314 0.71634 -0.11473
C_ C_ 0.202019 0.136263 0.79186 -0.11473
C_ C_ 0.443785 0.13508 0.793865 -0.11473
C_ C_ 0.215193 0.074031 0.754439 -0.02249
C_ C_ 0.467385 0.0819435 0.753417 -0.02249
C_ C_ 0.165234 0.186357 0.756848 0.6875
C_ C_ 0.412951 0.191471 0.758879 0.6875
C_ C_ 0.20551 0.091508 0.715962 -0.11473
C_ C_ 0.453944 0.0965159 0.715797 -0.11473
C_ C_ 0.0633261 0.15145 0.742258 -0.02249
C_ C_ 0.314574 0.151201 0.755832 -0.02249
C_ C_ 0.0115144 0.0397382 0.724041 -0.02249
C_ C_ 0.265753 0.0355723 0.74682 -0.02249
C_ C_ 0.0323306 0.107538 0.696595 -0.11473
C_ C_ 0.281209 0.104682 0.716051 -0.11473
C_ C_ 0.0570301 0.125836 0.777161 -0.11473
C_ C_ 0.314697 0.12332 0.789273 -0.11473
C_ C_ 0.0498746 0.142416 0.702538 -0.11473
C_ C_ 0.299104 0.139332 0.718481 -0.11473
C_ C_ 0.0282661 0.0797255 0.730966 -0.02249
C_ C_ 0.280863 0.0772642 0.750434 -0.02249
C_ C_ 0.0830705 0.187622 0.745922 0.6875
C_ C_ 0.334818 0.186983 0.754873 0.6875
C_ C_ 0.0378856 0.0918531 0.771914 -0.11473
C_ C_ 0.295999 0.0875501 0.788073 -0.11473
C_ C_ 0.124347 0.281695 0.874997 0.17695
C_ C_ 0.343075 0.245062 0.880272 0.17695
C_ C_ 0.125053 0.210061 0.87973 0.17695
C_ C_ 0.39533 0.260693 0.882991 0.17695
C_ C_ 0.122616 0.213286 0.923832 -0.11473
C_ C_ 0.394474 0.264415 0.927604 -0.11473
C_ C_ 0.117931 0.250142 0.943501 0.23465
C_ C_ 0.368257 0.257849 0.946622 0.23465
C_ C_ 0.119632 0.285241 0.918585 -0.11473
C_ C_ 0.34188 0.24856 0.924527 -0.11473
C_ C_ 0.130567 0.22032 0.625581 0.17695
C_ C_ 0.397069 0.250135 0.627984 0.17695
C_ C_ 0.126138 0.293931 0.631799 0.17695
C_ C_ 0.344311 0.240724 0.624023 0.17695
C_ C_ 0.123886 0.296839 0.587919 -0.11473
C_ C_ 0.345287 0.238185 0.581197 -0.11473
C_ C_ 0.123037 0.261724 0.561967 0.23465
C_ C_ 0.371576 0.245778 0.559766 0.23465
C_ C_ 0.128031 0.222772 0.581407 -0.11473
C_ C_ 0.398325 0.249131 0.584763 -0.11473
C_ C_ 0.0322492 0.496132 0.744483 0.05793
C_ C_ 0.282646 0.498826 0.751112 0.05793
C_ C_ 0.219484 -0.003758000000000039 0.755335 0.05793
C_ C_ 0.46571 1.00308486 0.754933 0.05793
Br Br 0.0750346 0.492556 0.738891 -0.17191
Br Br 0.326102 0.500321 0.748777 -0.17191
Br Br 0.177185 -0.003932000000000047 0.76515 -0.17191
Br Br 0.421557 1.00775136 0.761044 -0.17191
N_ N_ 0.125859 0.244861 0.855416 -0.272
N_ N_ 0.37022 0.249173 0.861266 -0.272
N_ N_ 0.123236 0.255305 0.987359 -0.12501
N_ N_ 0.366522 0.25937 0.990871 -0.12501
N_ N_ 0.13029 0.255736 0.648686 -0.272
N_ N_ 0.370813 0.245754 0.646924 -0.272
N_ N_ 0.122203 0.2663 0.516939 -0.12501
N_ N_ 0.371937 0.237888 0.515968 -0.12501
O_ O_ 0.0937358 0.292612 0.713837 -0.60745
O_ O_ 0.339113 0.286006 0.716079 -0.60745
O_ O_ 0.0940484 0.287443 0.782457 -0.60745
O_ O_ 0.344974 0.293424 0.782992 -0.60745
O_ O_ 0.158083 0.290687 0.794204 -0.60745
O_ O_ 0.403882 0.292084 0.794877 -0.60745
O_ O_ 0.155265 0.293455 0.724728 -0.60745
O_ O_ 0.400406 0.296669 0.726373 -0.60745
O_ O_ 0.157836 0.200647 0.792501 -0.60745
O_ O_ 0.404282 0.202307 0.795014 -0.60745
O_ O_ 0.15445 0.202834 0.722814 -0.60745
O_ O_ 0.405456 0.211949 0.726241 -0.60745
O_ O_ 0.0908838 0.206198 0.713398 -0.60745
O_ O_ 0.345007 0.19733 0.720262 -0.60745
O_ O_ 0.0946965 0.200957 0.780839 -0.60745
O_ O_ 0.342273 0.20574 0.786419 -0.60745
Zn Zn 0.125847 0.747486 0.277196 0.9476
Zn Zn 0.374801 0.749412 0.284678 0.9476
Zn Zn 0.125722 0.74778 0.205527 0.9476
Zn Zn 0.375599 0.75204 0.215866 0.9476
H_ H_ 0.0212884 0.90392 0.184372 0.10932
H_ H_ 0.287577 0.928673 0.186114 0.10932
H_ H_ 0.0769142 0.860951 0.3093 0.10932
H_ H_ 0.310711 0.852972 0.318138 0.10932
H_ H_ 0.0540222 0.845305 0.181903 0.10932
H_ H_ 0.32189 0.865289 0.181749 0.10932
H_ H_ 0.040683 0.917883 0.318899 0.10932
H_ H_ 0.277695 0.913321 0.317267 0.10932
H_ H_ 0.202048 0.924497 0.312204 0.10932
H_ H_ 0.458087 0.930608 0.317285 0.10932
H_ H_ 0.208187 0.836851 0.187636 0.10932
H_ H_ 0.450653 0.843982 0.191208 0.10932
H_ H_ 0.177772 0.855956 0.311615 0.10932
H_ H_ 0.43034 0.860886 0.321638 0.10932
H_ H_ 0.230225 0.906638 0.185025 0.10932
H_ H_ 0.47702 0.908994 0.190147 0.10932
H_ H_ 0.221925 0.582169 0.311334 0.10932
H_ H_ 0.4739 0.59172 0.321377 0.10932
H_ H_ 0.186517 0.6405 0.176412 0.10932
H_ H_ 0.435572 0.644172 0.183362 0.10932
H_ H_ 0.185778 0.64081 0.311041 0.10932
H_ H_ 0.445864 0.654843 0.321713 0.10932
H_ H_ 0.208941 0.572221 0.17816 0.10932
H_ H_ 0.45995 0.575281 0.19054 0.10932
H_ H_ 0.027498 0.584277 0.178033 0.10932
H_ H_ 0.294079 0.57312 0.182687 0.10932
H_ H_ 0.0780437 0.635935 0.309566 0.10932
H_ H_ 0.310265 0.646677 0.315458 0.10932
H_ H_ 0.0577575 0.648372 0.17729 0.10932
H_ H_ 0.324837 0.638871 0.182814 0.10932
H_ H_ 0.0427152 0.575759 0.310086 0.10932
H_ H_ 0.276769 0.584915 0.313254 0.10932
H_ H_ 0.137019 0.814846 0.350587 0.10932
H_ H_ 0.377703 0.688577 0.355643 0.10932
H_ H_ 0.124769 0.685671 0.355194 0.10932
H_ H_ 0.360757 0.817643 0.358902 0.10932
H_ H_ 0.129595 0.685806 0.43374 0.10932
H_ H_ 0.358466 0.81323 0.438165 0.10932
H_ H_ 0.138289 0.817323 0.42657 0.10932
H_ H_ 0.385441 0.686005 0.431199 0.10932
H_ H_ 0.175215 0.738046 0.132474 0.10932
H_ H_ 0.385978 0.818325 0.146808 0.10932
H_ H_ 0.0808419 0.761428 0.129304 0.10932
H_ H_ 0.376531 0.689326 0.136838 0.10932
H_ H_ 0.0851865 0.77235 0.0491594 0.10932
H_ H_ 0.389097 0.69088 0.0617745 0.10932
H_ H_ 0.177261 0.736326 0.0549272 0.10932
H_ H_ 0.389016 0.825441 0.0666841 0.10932
C_ C_ 0.0680201 0.847405 0.246953 -0.02249
C_ C_ 0.321377 0.855598 0.249439 -0.02249
C_ C_ 0.0154983 0.961957 0.251744 -0.02249
C_ C_ 0.264287 0.963106 0.252065 -0.02249
C_ C_ 0.0348277 0.898488 0.213505 -0.11473
C_ C_ 0.294488 0.911886 0.213579 -0.11473
C_ C_ 0.0651186 0.868969 0.283251 -0.11473
C_ C_ 0.307172 0.868846 0.287537 -0.11473
C_ C_ 0.0541773 0.862939 0.210588 -0.11473
C_ C_ 0.313391 0.87682 0.2121 -0.11473
C_ C_ 0.0314997 0.920961 0.250887 -0.02249
C_ C_ 0.281745 0.924309 0.249995 -0.02249
C_ C_ 0.0842159 0.805898 0.245502 0.6875
C_ C_ 0.336805 0.813873 0.245531 0.6875
C_ C_ 0.0467242 0.904625 0.286733 -0.11473
C_ C_ 0.286564 0.901454 0.286908 -0.11473
C_ C_ 0.18671 0.843306 0.245835 -0.02249
C_ C_ 0.434787 0.850247 0.254019 -0.02249
C_ C_ 0.233373 0.961872 0.253566 -0.02249
C_ C_ 0.486679 0.965563 0.251804 -0.02249
C_ C_ 0.205456 0.904761 0.28594 -0.11473
C_ C_ 0.452324 0.915319 0.287447 -0.11473
C_ C_ 0.202162 0.859248 0.211973 -0.11473
C_ C_ 0.449802 0.863291 0.217275 -0.11473
C_ C_ 0.189472 0.866915 0.282626 -0.11473
C_ C_ 0.43823 0.875868 0.290978 -0.11473
C_ C_ 0.21884 0.920598 0.250276 -0.02249
C_ C_ 0.467794 0.925901 0.250781 -0.02249
C_ C_ 0.167178 0.805631 0.242516 0.6875
C_ C_ 0.415121 0.812322 0.253045 0.6875
C_ C_ 0.216727 0.897844 0.212702 -0.11473
C_ C_ 0.466014 0.900263 0.215761 -0.11473
C_ C_ 0.184793 0.647111 0.244055 -0.02249
C_ C_ 0.434966 0.653663 0.253968 -0.02249
C_ C_ 0.23508 0.534786 0.247385 -0.02249
C_ C_ 0.486104 0.539388 0.260393 -0.02249
C_ C_ 0.214432 0.595477 0.282228 -0.11473
C_ C_ 0.465579 0.603883 0.29253 -0.11473
C_ C_ 0.192929 0.627767 0.205624 -0.11473
C_ C_ 0.440875 0.631259 0.216725 -0.11473
C_ C_ 0.195181 0.630645 0.281676 -0.11473
C_ C_ 0.449549 0.639124 0.290361 -0.11473
C_ C_ 0.217625 0.572191 0.245921 -0.02249
C_ C_ 0.470874 0.579346 0.257086 -0.02249
C_ C_ 0.165242 0.684417 0.242115 0.6875
C_ C_ 0.415269 0.692371 0.251352 0.6875
C_ C_ 0.206681 0.588168 0.2075 -0.11473
C_ C_ 0.45778 0.593969 0.217583 -0.11473
C_ C_ 0.0685577 0.649348 0.244178 -0.02249
C_ C_ 0.321805 0.645984 0.25025 -0.02249
C_ C_ 0.0140968 0.53687 0.244727 -0.02249
C_ C_ 0.266947 0.535453 0.245441 -0.02249
C_ C_ 0.0404382 0.592851 0.206203 -0.11473
C_ C_ 0.299755 0.588061 0.211092 -0.11473
C_ C_ 0.0677707 0.624329 0.280798 -0.11473
C_ C_ 0.307858 0.631303 0.286048 -0.11473
C_ C_ 0.0572825 0.631257 0.205583 -0.11473
C_ C_ 0.316673 0.624471 0.212631 -0.11473
C_ C_ 0.0325912 0.576868 0.246196 -0.02249
C_ C_ 0.28437 0.57526 0.245535 -0.02249
C_ C_ 0.0870988 0.689193 0.243949 0.6875
C_ C_ 0.338048 0.688126 0.252124 0.6875
C_ C_ 0.0469486 0.59186 0.282257 -0.11473
C_ C_ 0.289246 0.596794 0.284075 -0.11473
C_ C_ 0.135703 0.785372 0.367954 0.17695
C_ C_ 0.37289 0.714819 0.373842 0.17695
C_ C_ 0.131343 0.714038 0.369838 0.17695
C_ C_ 0.36541 0.787757 0.37456 0.17695
C_ C_ 0.133001 0.714192 0.414213 -0.11473
C_ C_ 0.365072 0.786663 0.418783 -0.11473
C_ C_ 0.135507 0.751899 0.435866 0.23465
C_ C_ 0.373105 0.748842 0.440365 0.23465
C_ C_ 0.135628 0.78755 0.41182 -0.11473
C_ C_ 0.37897 0.713725 0.417461 -0.11473
C_ C_ 0.15534 0.746448 0.116184 0.17695
C_ C_ 0.384071 0.791567 0.127427 0.17695
C_ C_ 0.103095 0.758366 0.112209 0.17695
C_ C_ 0.382243 0.71833 0.122459 0.17695
C_ C_ 0.105608 0.762897 0.0672474 -0.11473
C_ C_ 0.384025 0.720199 0.0786409 -0.11473
C_ C_ 0.131782 0.75509 0.04661 0.23465
C_ C_ 0.385841 0.758995 0.0587054 0.23465
C_ C_ 0.156603 0.746282 0.0717622 -0.11473
C_ C_ 0.3852 0.793941 0.0834764 -0.11473
C_ C_ 0.0298201 1.00115397 0.249271 0.05793
C_ C_ 0.279451 1.00133838 0.257479 0.05793
C_ C_ 0.219909 0.496468 0.255068 0.05793
C_ C_ 0.469904 0.501883 0.254705 0.05793
Br Br 0.0728769 0.00120184 0.235463 -0.17191
Br Br 0.320967 1.00339371 0.264494 -0.17191
Br Br 0.178046 0.496107 0.270328 -0.17191
Br Br 0.427557 0.504161 0.255845 -0.17191
N_ N_ 0.131969 0.749997 0.347417 -0.272
N_ N_ 0.367673 0.751696 0.352517 -0.272
N_ N_ 0.129532 0.753931 0.478684 -0.12501
N_ N_ 0.376808 0.749338 0.484074 -0.12501
N_ N_ 0.128347 0.751545 0.135564 -0.272
N_ N_ 0.382564 0.754201 0.146215 -0.272
N_ N_ 0.132064 0.750257 0.00239042 -0.12501
N_ N_ 0.388807 0.76515 0.0143849 -0.12501
O_ O_ 0.0934078 0.790927 0.210377 -0.60745
O_ O_ 0.346543 0.800265 0.210227 -0.60745
O_ O_ 0.0975268 0.794097 0.278511 -0.60745
O_ O_ 0.339916 0.79107 0.278161 -0.60745
O_ O_ 0.160509 0.787125 0.275958 -0.60745
O_ O_ 0.402523 0.798713 0.285408 -0.60745
O_ O_ 0.158464 0.793575 0.207096 -0.60745
O_ O_ 0.410815 0.792978 0.218179 -0.60745
O_ O_ 0.158247 0.703489 0.276705 -0.60745
O_ O_ 0.40668 0.709089 0.283929 -0.60745
O_ O_ 0.154039 0.697262 0.207368 -0.60745
O_ O_ 0.404649 0.703772 0.21566 -0.60745
O_ O_ 0.0930619 0.707793 0.209346 -0.60745
O_ O_ 0.344482 0.708965 0.218245 -0.60745
O_ O_ 0.0918727 0.708186 0.277359 -0.60745
O_ O_ 0.347325 0.70112 0.288325 -0.60745
Zn Zn 0.124932 0.751301 0.774976 0.9476
Zn Zn 0.377276 0.74776 0.784814 0.9476
Zn Zn 0.125618 0.750611 0.703694 0.9476
Zn Zn 0.374057 0.746168 0.715825 0.9476
H_ H_ 0.0385978 0.917222 0.659288 0.10932
H_ H_ 0.274878 0.903561 0.686922 0.10932
H_ H_ 0.0632777 0.858324 0.797788 0.10932
H_ H_ 0.335566 0.869356 0.813276 0.10932
H_ H_ 0.0658224 0.850584 0.663975 0.10932
H_ H_ 0.303777 0.83757 0.691069 0.10932
H_ H_ 0.0288628 0.915519 0.793394 0.10932
H_ H_ 0.30853 0.937869 0.81261 0.10932
H_ H_ 0.208283 0.920945 0.813259 0.10932
H_ H_ 0.464689 0.916685 0.815087 0.10932
H_ H_ 0.183554 0.860439 0.675322 0.10932
H_ H_ 0.422667 0.865354 0.682838 0.10932
H_ H_ 0.175963 0.855253 0.810039 0.10932
H_ H_ 0.434307 0.852513 0.816062 0.10932
H_ H_ 0.222429 0.916621 0.68504 0.10932
H_ H_ 0.452718 0.929013 0.683979 0.10932
H_ H_ 0.212456 0.577618 0.819527 0.10932
H_ H_ 0.455015 0.574932 0.815994 0.10932
H_ H_ 0.182697 0.641999 0.684331 0.10932
H_ H_ 0.444343 0.645158 0.680211 0.10932
H_ H_ 0.182373 0.645279 0.818667 0.10932
H_ H_ 0.432259 0.645652 0.811874 0.10932
H_ H_ 0.210684 0.578654 0.6873 0.10932
H_ H_ 0.471514 0.580798 0.685579 0.10932
H_ H_ 0.0377579 0.576106 0.677424 0.10932
H_ H_ 0.291826 0.573904 0.687385 0.10932
H_ H_ 0.0597462 0.649647 0.80974 0.10932
H_ H_ 0.305991 0.648418 0.821001 0.10932
H_ H_ 0.0707015 0.636459 0.675538 0.10932
H_ H_ 0.317417 0.642107 0.685536 0.10932
H_ H_ 0.031066 0.586459 0.811905 0.10932
H_ H_ 0.271327 0.591662 0.819306 0.10932
H_ H_ 0.11273 0.820664 0.838612 0.10932
H_ H_ 0.391728 0.809941 0.863953 0.10932
H_ H_ 0.142524 0.699599 0.860039 0.10932
H_ H_ 0.367933 0.685482 0.857257 0.10932
H_ H_ 0.134341 0.704235 0.934471 0.10932
H_ H_ 0.367793 0.679913 0.934006 0.10932
H_ H_ 0.118951 0.833259 0.916229 0.10932
H_ H_ 0.39358 0.806872 0.942765 0.10932
H_ H_ 0.125957 0.679134 0.640219 0.10932
H_ H_ 0.32084 0.73279 0.643582 0.10932
H_ H_ 0.141532 0.804312 0.627093 0.10932
H_ H_ 0.411366 0.773302 0.631383 0.10932
H_ H_ 0.149584 0.794171 0.552413 0.10932
H_ H_ 0.402128 0.775305 0.552278 0.10932
H_ H_ 0.134071 0.667671 0.562591 0.10932
H_ H_ 0.316074 0.721604 0.565941 0.10932
C_ C_ 0.0673024 0.848234 0.730262 -0.02249
C_ C_ 0.318023 0.846719 0.757749 -0.02249
C_ C_ 0.0145158 0.962555 0.719763 -0.02249
C_ C_ 0.26813 0.960279 0.749548 -0.02249
C_ C_ 0.0447894 0.904581 0.689764 -0.11473
C_ C_ 0.285487 0.893517 0.71833 -0.11473
C_ C_ 0.0541585 0.865099 0.766364 -0.11473
C_ C_ 0.320252 0.875501 0.790954 -0.11473
C_ C_ 0.0602354 0.866551 0.691183 -0.11473
C_ C_ 0.302546 0.856831 0.719729 -0.11473
C_ C_ 0.0323836 0.922604 0.725629 -0.02249
C_ C_ 0.284615 0.920446 0.754089 -0.02249
C_ C_ 0.0862609 0.809341 0.732076 0.6875
C_ C_ 0.336323 0.807062 0.759509 0.6875
C_ C_ 0.0387114 0.902561 0.765965 -0.11473
C_ C_ 0.304529 0.913768 0.788506 -0.11473
C_ C_ 0.177865 0.852776 0.743341 -0.02249
C_ C_ 0.431878 0.847382 0.747495 -0.02249
C_ C_ 0.236296 0.960244 0.755235 -0.02249
C_ C_ 0.478776 0.963385 0.753153 -0.02249
C_ C_ 0.203441 0.906377 0.785751 -0.11473
C_ C_ 0.456396 0.903483 0.78651 -0.11473
C_ C_ 0.191586 0.868975 0.707862 -0.11473
C_ C_ 0.435501 0.871563 0.710138 -0.11473
C_ C_ 0.183943 0.870806 0.783122 -0.11473
C_ C_ 0.441827 0.865933 0.785594 -0.11473
C_ C_ 0.218678 0.921807 0.751001 -0.02249
C_ C_ 0.460148 0.925511 0.750918 -0.02249
C_ C_ 0.15878 0.814766 0.739922 0.6875
C_ C_ 0.414002 0.808721 0.747558 0.6875
C_ C_ 0.210939 0.904565 0.711092 -0.11473
C_ C_ 0.450376 0.910142 0.712274 -0.11473
C_ C_ 0.182121 0.651917 0.750414 -0.02249
C_ C_ 0.436755 0.652152 0.74669 -0.02249
C_ C_ 0.234693 0.537439 0.754923 -0.02249
C_ C_ 0.484513 0.534945 0.752625 -0.02249
C_ C_ 0.208514 0.59563 0.790616 -0.11473
C_ C_ 0.45622 0.594187 0.78753 -0.11473
C_ C_ 0.193462 0.631488 0.713901 -0.11473
C_ C_ 0.447892 0.632717 0.710932 -0.11473
C_ C_ 0.188484 0.631127 0.789324 -0.11473
C_ C_ 0.445298 0.6355 0.785704 -0.11473
C_ C_ 0.217222 0.576707 0.754235 -0.02249
C_ C_ 0.468045 0.575816 0.751367 -0.02249
C_ C_ 0.164658 0.690607 0.748527 0.6875
C_ C_ 0.416319 0.687759 0.746035 0.6875
C_ C_ 0.208174 0.594072 0.716406 -0.11473
C_ C_ 0.464239 0.595782 0.713264 -0.11473
C_ C_ 0.0692578 0.648636 0.742327 -0.02249
C_ C_ 0.316015 0.650764 0.7527 -0.02249
C_ C_ 0.0166179 0.535067 0.744477 -0.02249
C_ C_ 0.265959 0.535821 0.753355 -0.02249
C_ C_ 0.0426009 0.591175 0.706537 -0.11473
C_ C_ 0.292722 0.591956 0.716328 -0.11473
C_ C_ 0.056993 0.633749 0.780508 -0.11473
C_ C_ 0.302235 0.635338 0.789664 -0.11473
C_ C_ 0.06165 0.627855 0.704864 -0.11473
C_ C_ 0.308803 0.630449 0.715306 -0.11473
C_ C_ 0.0338062 0.575031 0.745699 -0.02249
C_ C_ 0.282501 0.575864 0.754151 -0.02249
C_ C_ 0.0855265 0.688782 0.740961 0.6875
C_ C_ 0.333587 0.690119 0.755812 0.6875
C_ C_ 0.0408004 0.595939 0.782759 -0.11473
C_ C_ 0.282937 0.600401 0.789619 -0.11473
C_ C_ 0.117829 0.795608 0.859689 0.17695
C_ C_ 0.385517 0.78173 0.880219 0.17695
C_ C_ 0.132671 0.727383 0.872329 0.17695
C_ C_ 0.372999 0.711817 0.875578 0.17695
C_ C_ 0.129234 0.732246 0.916412 -0.11473
C_ C_ 0.372762 0.708179 0.919495 -0.11473
C_ C_ 0.123218 0.771576 0.932992 0.23465
C_ C_ 0.382297 0.742256 0.943114 0.23465
C_ C_ 0.11523 0.803711 0.903534 -0.11473
C_ C_ 0.385991 0.779796 0.924593 -0.11473
C_ C_ 0.127846 0.704679 0.61879 0.17695
C_ C_ 0.339394 0.742461 0.624547 0.17695
C_ C_ 0.13438 0.776715 0.610808 0.17695
C_ C_ 0.389547 0.765594 0.616286 0.17695
C_ C_ 0.136432 0.772247 0.568819 -0.11473
C_ C_ 0.385943 0.765447 0.572517 -0.11473
C_ C_ 0.133811 0.733657 0.54939 0.23465
C_ C_ 0.360523 0.744925 0.553398 0.23465
C_ C_ 0.129518 0.69734 0.575323 -0.11473
C_ C_ 0.335796 0.736826 0.579427 -0.11473
C_ C_ 0.0295147 0.00274758 0.718054 0.05793
C_ C_ 0.283952 -0.0010259999999999714 0.745249 0.05793
C_ C_ 0.219012 0.498414 0.757422 0.05793
C_ C_ 0.468574 0.497914 0.759477 0.05793
Br Br 0.0712127 0.0048352 0.718459 -0.17191
Br Br 0.327592 -0.0018740000000000423 0.742129 -0.17191
Br Br 0.177354 0.497916 0.769352 -0.17191
Br Br 0.425835 0.501207 0.762861 -0.17191
N_ N_ 0.124811 0.757936 0.84428 -0.272
N_ N_ 0.380233 0.748216 0.857057 -0.272
N_ N_ 0.123464 0.779205 0.977945 -0.12501
N_ N_ 0.38167 0.737213 0.987467 -0.12501
N_ N_ 0.131642 0.743617 0.635252 -0.272
N_ N_ 0.367386 0.751437 0.642132 -0.272
N_ N_ 0.141079 0.730166 0.505396 -0.12501
N_ N_ 0.356365 0.740741 0.508773 -0.12501
O_ O_ 0.0959438 0.793544 0.698334 -0.60745
O_ O_ 0.341755 0.789104 0.725403 -0.60745
O_ O_ 0.092993 0.794045 0.766845 -0.60745
O_ O_ 0.347332 0.792241 0.792763 -0.60745
O_ O_ 0.152232 0.797034 0.77354 -0.60745
O_ O_ 0.405119 0.794161 0.782952 -0.60745
O_ O_ 0.152195 0.799641 0.70433 -0.60745
O_ O_ 0.406339 0.792308 0.712872 -0.60745
O_ O_ 0.156201 0.706591 0.782516 -0.60745
O_ O_ 0.406717 0.702351 0.779943 -0.60745
O_ O_ 0.157155 0.706988 0.714737 -0.60745
O_ O_ 0.407971 0.704973 0.710973 -0.60745
O_ O_ 0.0953785 0.700336 0.705715 -0.60745
O_ O_ 0.34055 0.705555 0.721329 -0.60745
O_ O_ 0.0937602 0.705885 0.773968 -0.60745
O_ O_ 0.347223 0.702887 0.788665 -0.60745
Zn Zn 0.628659 0.251821 0.289753 0.9476
Zn Zn 0.873214 0.252308 0.277101 0.9476
Zn Zn 0.628913 0.254062 0.219952 0.9476
Zn Zn 0.870349 0.254192 0.209296 0.9476
H_ H_ 0.5429 0.424139 0.191648 0.10932
H_ H_ 0.772532 0.415394 0.176641 0.10932
H_ H_ 0.552963 0.341423 0.32391 0.10932
H_ H_ 0.82639 0.370547 0.30903 0.10932
H_ H_ 0.573509 0.358983 0.193581 0.10932
H_ H_ 0.799165 0.346212 0.17872 0.10932
H_ H_ 0.527778 0.406554 0.324796 0.10932
H_ H_ 0.798 0.43275 0.306492 0.10932
H_ H_ 0.733541 0.408796 0.31327 0.10932
H_ H_ 0.952679 0.421048 0.309061 0.10932
H_ H_ 0.680467 0.358463 0.184602 0.10932
H_ H_ 0.941685 0.346382 0.176878 0.10932
H_ H_ 0.699249 0.349435 0.318046 0.10932
H_ H_ 0.92699 0.356176 0.310674 0.10932
H_ H_ 0.704874 0.423675 0.182995 0.10932
H_ H_ 0.966273 0.412702 0.178664 0.10932
H_ H_ 0.70007 0.0668418 0.29761 0.10932
H_ H_ 0.979736 0.102304 0.304921 0.10932
H_ H_ 0.707946 0.173921 0.189587 0.10932
H_ H_ 0.904258 0.118885 0.192862 0.10932
H_ H_ 0.671147 0.130338 0.302363 0.10932
H_ H_ 0.950329 0.165384 0.301758 0.10932
H_ H_ 0.735047 0.104892 0.178586 0.10932
H_ H_ 0.937233 0.0534114 0.19675 0.10932
H_ H_ 0.552608 0.0699026 0.197394 0.10932
H_ H_ 0.801771 0.0735934 0.172897 0.10932
H_ H_ 0.555262 0.163092 0.319674 0.10932
H_ H_ 0.794709 0.1573 0.302186 0.10932
H_ H_ 0.578122 0.137895 0.193528 0.10932
H_ H_ 0.82833 0.140756 0.177264 0.10932
H_ H_ 0.525071 0.101297 0.319465 0.10932
H_ H_ 0.779128 0.0877369 0.304274 0.10932
H_ H_ 0.625631 0.184946 0.352739 0.10932
H_ H_ 0.865783 0.182373 0.349889 0.10932
H_ H_ 0.635125 0.312693 0.374308 0.10932
H_ H_ 0.879685 0.310412 0.350382 0.10932
H_ H_ 0.636355 0.304827 0.453298 0.10932
H_ H_ 0.881435 0.310553 0.428022 0.10932
H_ H_ 0.624938 0.175597 0.433131 0.10932
H_ H_ 0.874862 0.177424 0.424737 0.10932
H_ H_ 0.629293 0.195817 0.141617 0.10932
H_ H_ 0.869555 0.314293 0.141454 0.10932
H_ H_ 0.615363 0.324399 0.154095 0.10932
H_ H_ 0.874217 0.187323 0.131901 0.10932
H_ H_ 0.61901 0.334607 0.0753191 0.10932
H_ H_ 0.876037 0.187453 0.0565374 0.10932
H_ H_ 0.635496 0.202456 0.0642038 0.10932
H_ H_ 0.878938 0.321859 0.0637429 0.10932
C_ C_ 0.567786 0.345687 0.259374 -0.02249
C_ C_ 0.815414 0.350398 0.244384 -0.02249
C_ C_ 0.516845 0.460709 0.255238 -0.02249
C_ C_ 0.764948 0.468632 0.245511 -0.02249
C_ C_ 0.545195 0.403448 0.219565 -0.11473
C_ C_ 0.782556 0.403415 0.206184 -0.11473
C_ C_ 0.549464 0.357071 0.293679 -0.11473
C_ C_ 0.812516 0.375499 0.281291 -0.11473
C_ C_ 0.56244 0.368516 0.221458 -0.11473
C_ C_ 0.798759 0.364754 0.206916 -0.11473
C_ C_ 0.532653 0.41992 0.255438 -0.02249
C_ C_ 0.780131 0.426955 0.243122 -0.02249
C_ C_ 0.587968 0.308454 0.25908 0.6875
C_ C_ 0.8347 0.314233 0.243815 0.6875
C_ C_ 0.535723 0.395708 0.293513 -0.11473
C_ C_ 0.794621 0.411886 0.280461 -0.11473
C_ C_ 0.687374 0.350763 0.252879 -0.02249
C_ C_ 0.931169 0.346154 0.244429 -0.02249
C_ C_ 0.733646 0.468415 0.251095 -0.02249
C_ C_ 0.980522 0.461716 0.245674 -0.02249
C_ C_ 0.717346 0.403508 0.28764 -0.11473
C_ C_ 0.94822 0.406641 0.280621 -0.11473
C_ C_ 0.688102 0.372699 0.214682 -0.11473
C_ C_ 0.945572 0.360388 0.208522 -0.11473
C_ C_ 0.699967 0.366497 0.288735 -0.11473
C_ C_ 0.937318 0.366401 0.282553 -0.11473
C_ C_ 0.716747 0.428588 0.250909 -0.02249
C_ C_ 0.961178 0.423755 0.243591 -0.02249
C_ C_ 0.668407 0.312515 0.25245 0.6875
C_ C_ 0.910843 0.310262 0.245478 0.6875
C_ C_ 0.702816 0.4111 0.214195 -0.11473
C_ C_ 0.959646 0.398947 0.208063 -0.11473
C_ C_ 0.689767 0.158267 0.247297 -0.02249
C_ C_ 0.928794 0.150885 0.240801 -0.02249
C_ C_ 0.73626 0.0414982 0.236429 -0.02249
C_ C_ 0.980635 0.0373856 0.24996 -0.02249
C_ C_ 0.701557 0.0907014 0.272256 -0.11473
C_ C_ 0.964381 0.105033 0.280789 -0.11473
C_ C_ 0.706022 0.150013 0.210048 -0.11473
C_ C_ 0.923409 0.116837 0.214042 -0.11473
C_ C_ 0.687755 0.128688 0.278428 -0.11473
C_ C_ 0.946792 0.141623 0.277275 -0.11473
C_ C_ 0.720529 0.0835616 0.239628 -0.02249
C_ C_ 0.96282 0.0764012 0.249179 -0.02249
C_ C_ 0.668317 0.19315 0.249457 0.6875
C_ C_ 0.911142 0.190539 0.239476 0.6875
C_ C_ 0.723098 0.114194 0.207977 -0.11473
C_ C_ 0.941674 0.0801472 0.216416 -0.11473
C_ C_ 0.567721 0.158298 0.253862 -0.02249
C_ C_ 0.813888 0.15485 0.238717 -0.02249
C_ C_ 0.518951 0.0414356 0.259906 -0.02249
C_ C_ 0.768341 0.0382228 0.237386 -0.02249
C_ C_ 0.5519 0.0918611 0.222234 -0.11473
C_ C_ 0.799872 0.0921555 0.201058 -0.11473
C_ C_ 0.552847 0.145363 0.290757 -0.11473
C_ C_ 0.799036 0.140332 0.275222 -0.11473
C_ C_ 0.567614 0.129744 0.220521 -0.11473
C_ C_ 0.812605 0.132088 0.200356 -0.11473
C_ C_ 0.536752 0.0809406 0.257423 -0.02249
C_ C_ 0.788035 0.0761237 0.238107 -0.02249
C_ C_ 0.588289 0.193259 0.254847 0.6875
C_ C_ 0.829638 0.196767 0.240234 0.6875
C_ C_ 0.537929 0.107284 0.292027 -0.11473
C_ C_ 0.789925 0.0984126 0.276854 -0.11473
C_ C_ 0.632008 0.210223 0.377237 0.17695
C_ C_ 0.868294 0.211811 0.366914 0.17695
C_ C_ 0.634455 0.282681 0.387384 0.17695
C_ C_ 0.882396 0.281869 0.366844 0.17695
C_ C_ 0.635477 0.278478 0.431815 -0.11473
C_ C_ 0.885049 0.282024 0.411142 -0.11473
C_ C_ 0.635588 0.237737 0.449899 0.23465
C_ C_ 0.87986 0.242694 0.433094 0.23465
C_ C_ 0.633036 0.203259 0.422185 -0.11473
C_ C_ 0.87393 0.207843 0.410522 -0.11473
C_ C_ 0.625773 0.225961 0.124475 0.17695
C_ C_ 0.875193 0.288127 0.122055 0.17695
C_ C_ 0.617474 0.298426 0.132557 0.17695
C_ C_ 0.872671 0.215079 0.116346 0.17695
C_ C_ 0.617756 0.30365 0.0885735 -0.11473
C_ C_ 0.876694 0.216586 0.0732302 -0.11473
C_ C_ 0.623723 0.268874 0.0619744 0.23465
C_ C_ 0.879054 0.255964 0.0533769 0.23465
C_ C_ 0.62975 0.230044 0.0809634 -0.11473
C_ C_ 0.876987 0.291682 0.0783451 -0.11473
C_ C_ 0.533409 0.498298 0.259186 0.05793
C_ C_ 0.780988 0.505022 0.238527 0.05793
C_ C_ 0.718074 1.00550881 0.235139 0.05793
C_ C_ 0.967593 0.998086 0.255928 0.05793
Br Br 0.576943 0.498735 0.264379 -0.17191
Br Br 0.823997 0.504232 0.238108 -0.17191
Br Br 0.674788 0.00863207 0.220089 -0.17191
Br Br 0.924627 -0.0045359999999999845 0.267761 -0.17191
N_ N_ 0.634664 0.248501 0.361967 -0.272
N_ N_ 0.873492 0.246965 0.345554 -0.272
N_ N_ 0.635441 0.230921 0.494016 -0.12501
N_ N_ 0.879528 0.238996 0.478442 -0.12501
N_ N_ 0.623898 0.26022 0.149423 -0.272
N_ N_ 0.870839 0.250105 0.139469 -0.272
N_ N_ 0.623233 0.273669 0.0164844 -0.12501
N_ N_ 0.880459 0.261303 0.00950713 -0.12501
O_ O_ 0.59834 0.295156 0.22554 -0.60745
O_ O_ 0.843011 0.300834 0.208439 -0.60745
O_ O_ 0.594369 0.292304 0.293819 -0.60745
O_ O_ 0.841153 0.293804 0.27617 -0.60745
O_ O_ 0.655809 0.299186 0.286512 -0.60745
O_ O_ 0.904151 0.292961 0.279582 -0.60745
O_ O_ 0.661478 0.296114 0.217303 -0.60745
O_ O_ 0.903583 0.29545 0.209838 -0.60745
O_ O_ 0.661146 0.209834 0.285469 -0.60745
O_ O_ 0.904161 0.205242 0.273721 -0.60745
O_ O_ 0.659969 0.210499 0.215872 -0.60745
O_ O_ 0.899454 0.204885 0.206473 -0.60745
O_ O_ 0.595057 0.212396 0.221249 -0.60745
O_ O_ 0.838712 0.211421 0.206472 -0.60745
O_ O_ 0.598634 0.207281 0.288967 -0.60745
O_ O_ 0.839889 0.209524 0.274335 -0.60745
Zn Zn 0.63011 0.246628 0.788454 0.9476
Zn Zn 0.873185 0.248725 0.777586 0.9476
Zn Zn 0.627418 0.249071 0.72049 0.9476
Zn Zn 0.870167 0.250494 0.708848 0.9476
H_ H_ 0.544724 0.427323 0.697324 0.10932
H_ H_ 0.769003 0.410537 0.683346 0.10932
H_ H_ 0.548482 0.329971 0.817749 0.10932
H_ H_ 0.835426 0.372681 0.803728 0.10932
H_ H_ 0.578851 0.366525 0.695818 0.10932
H_ H_ 0.791951 0.339611 0.687524 0.10932
H_ H_ 0.522146 0.399366 0.825577 0.10932
H_ H_ 0.801775 0.4331 0.806675 0.10932
H_ H_ 0.731338 0.402788 0.815764 0.10932
H_ H_ 0.970889 0.408221 0.817405 0.10932
H_ H_ 0.670997 0.36648 0.684749 0.10932
H_ H_ 0.932004 0.354574 0.682077 0.10932
H_ H_ 0.695316 0.349312 0.818183 0.10932
H_ H_ 0.941085 0.345582 0.812372 0.10932
H_ H_ 0.694531 0.433659 0.691465 0.10932
H_ H_ 0.952151 0.427929 0.686671 0.10932
H_ H_ 0.727365 0.0834775 0.81953 0.10932
H_ H_ 0.971243 0.09091 0.798187 0.10932
H_ H_ 0.673262 0.136008 0.690828 0.10932
H_ H_ 0.926615 0.143751 0.666011 0.10932
H_ H_ 0.69799 0.14893 0.821651 0.10932
H_ H_ 0.937977 0.154 0.801795 0.10932
H_ H_ 0.704125 0.0737858 0.689897 0.10932
H_ H_ 0.954023 0.0787864 0.666446 0.10932
H_ H_ 0.53112 0.0804534 0.680968 0.10932
H_ H_ 0.786565 0.0767839 0.680234 0.10932
H_ H_ 0.56626 0.144264 0.813851 0.10932
H_ H_ 0.806936 0.15546 0.811979 0.10932
H_ H_ 0.569093 0.13902 0.681002 0.10932
H_ H_ 0.824152 0.133022 0.680694 0.10932
H_ H_ 0.528779 0.0837195 0.814511 0.10932
H_ H_ 0.786686 0.0831352 0.817425 0.10932
H_ H_ 0.635589 0.308535 0.86463 0.10932
H_ H_ 0.918735 0.225266 0.854129 0.10932
H_ H_ 0.626554 0.17928 0.863628 0.10932
H_ H_ 0.831105 0.269777 0.855759 0.10932
H_ H_ 0.60833 0.182986 0.938647 0.10932
H_ H_ 0.82906 0.261827 0.935528 0.10932
H_ H_ 0.636627 0.308379 0.941219 0.10932
H_ H_ 0.921534 0.222271 0.929566 0.10932
H_ H_ 0.632791 0.185602 0.645227 0.10932
H_ H_ 0.863435 0.318599 0.642029 0.10932
H_ H_ 0.61583 0.31424 0.647515 0.10932
H_ H_ 0.870865 0.189311 0.624137 0.10932
H_ H_ 0.631035 0.317366 0.574073 0.10932
H_ H_ 0.872182 0.196607 0.545443 0.10932
H_ H_ 0.652567 0.190652 0.571384 0.10932
H_ H_ 0.870939 0.329368 0.564496 0.10932
C_ C_ 0.567657 0.345215 0.757498 -0.02249
C_ C_ 0.814866 0.350117 0.746164 -0.02249
C_ C_ 0.51619 0.45833 0.763384 -0.02249
C_ C_ 0.764166 0.464883 0.743575 -0.02249
C_ C_ 0.54581 0.406373 0.723344 -0.11473
C_ C_ 0.78105 0.399533 0.711708 -0.11473
C_ C_ 0.552496 0.355025 0.79441 -0.11473
C_ C_ 0.819605 0.378367 0.778612 -0.11473
C_ C_ 0.566156 0.372618 0.724432 -0.11473
C_ C_ 0.792217 0.359279 0.713958 -0.11473
C_ C_ 0.531919 0.41825 0.760646 -0.02249
C_ C_ 0.781692 0.426703 0.746085 -0.02249
C_ C_ 0.585942 0.307114 0.753418 0.6875
C_ C_ 0.833945 0.312463 0.743668 0.6875
C_ C_ 0.533719 0.391412 0.795625 -0.11473
C_ C_ 0.799353 0.413181 0.781374 -0.11473
C_ C_ 0.6817 0.350886 0.753809 -0.02249
C_ C_ 0.934922 0.342263 0.747251 -0.02249
C_ C_ 0.733778 0.463403 0.751947 -0.02249
C_ C_ 0.983827 0.460792 0.751982 -0.02249
C_ C_ 0.718908 0.395627 0.787214 -0.11473
C_ C_ 0.961269 0.398016 0.786852 -0.11473
C_ C_ 0.681264 0.376129 0.716909 -0.11473
C_ C_ 0.939337 0.366971 0.711313 -0.11473
C_ C_ 0.698732 0.363651 0.788287 -0.11473
C_ C_ 0.945761 0.359861 0.784333 -0.11473
C_ C_ 0.717699 0.423059 0.752423 -0.02249
C_ C_ 0.967019 0.420487 0.751252 -0.02249
C_ C_ 0.662957 0.31193 0.754463 0.6875
C_ C_ 0.913391 0.306289 0.746434 0.6875
C_ C_ 0.697804 0.413999 0.7173 -0.11473
C_ C_ 0.95408 0.405631 0.712789 -0.11473
C_ C_ 0.688189 0.151923 0.755893 -0.02249
C_ C_ 0.928405 0.152418 0.734338 -0.02249
C_ C_ 0.732934 0.0323787 0.754871 -0.02249
C_ C_ 0.980752 0.0375388 0.734213 -0.02249
C_ C_ 0.715962 0.096003 0.791678 -0.11473
C_ C_ 0.958528 0.101382 0.770288 -0.11473
C_ C_ 0.688048 0.127673 0.719422 -0.11473
C_ C_ 0.934173 0.13365 0.695087 -0.11473
C_ C_ 0.70146 0.134033 0.792035 -0.11473
C_ C_ 0.942762 0.138918 0.771282 -0.11473
C_ C_ 0.716071 0.0720663 0.755004 -0.02249
C_ C_ 0.961439 0.0767205 0.73247 -0.02249
C_ C_ 0.668537 0.190908 0.755701 0.6875
C_ C_ 0.907705 0.188725 0.736741 0.6875
C_ C_ 0.703415 0.0906792 0.718309 -0.11473
C_ C_ 0.9491 0.0944954 0.695378 -0.11473
C_ C_ 0.569202 0.148861 0.746857 -0.02249
C_ C_ 0.813522 0.1522 0.744796 -0.02249
C_ C_ 0.513903 0.0372465 0.747811 -0.02249
C_ C_ 0.765062 0.0348568 0.747368 -0.02249
C_ C_ 0.542481 0.0925739 0.710729 -0.11473
C_ C_ 0.79194 0.090805 0.709153 -0.11473
C_ C_ 0.558428 0.133534 0.784155 -0.11473
C_ C_ 0.802418 0.137012 0.783669 -0.11473
C_ C_ 0.562275 0.12744 0.710716 -0.11473
C_ C_ 0.808845 0.12891 0.707725 -0.11473
C_ C_ 0.532957 0.0756807 0.748813 -0.02249
C_ C_ 0.780791 0.0764644 0.747978 -0.02249
C_ C_ 0.590297 0.185756 0.746741 0.6875
C_ C_ 0.834106 0.187251 0.744612 0.6875
C_ C_ 0.541086 0.0953041 0.786074 -0.11473
C_ C_ 0.788313 0.0978868 0.785868 -0.11473
C_ C_ 0.63133 0.279601 0.880052 0.17695
C_ C_ 0.899228 0.232095 0.871437 0.17695
C_ C_ 0.62601 0.208647 0.880169 0.17695
C_ C_ 0.849095 0.256633 0.872733 0.17695
C_ C_ 0.619289 0.208155 0.923502 -0.11473
C_ C_ 0.848989 0.254058 0.917564 -0.11473
C_ C_ 0.622078 0.24408 0.946571 0.23465
C_ C_ 0.875267 0.240181 0.939616 0.23465
C_ C_ 0.628654 0.280493 0.923448 -0.11473
C_ C_ 0.901335 0.234053 0.915435 -0.11473
C_ C_ 0.636704 0.213963 0.630109 0.17695
C_ C_ 0.868652 0.293234 0.62015 0.17695
C_ C_ 0.62727 0.287437 0.630541 0.17695
C_ C_ 0.872152 0.220384 0.611116 0.17695
C_ C_ 0.628203 0.289313 0.588256 -0.11473
C_ C_ 0.873573 0.224843 0.566546 -0.11473
C_ C_ 0.63374 0.252723 0.565446 0.23465
C_ C_ 0.875978 0.264332 0.548128 0.23465
C_ C_ 0.641684 0.216478 0.587072 -0.11473
C_ C_ 0.874929 0.298984 0.576796 -0.11473
C_ C_ 0.531346 0.496782 0.762627 0.05793
C_ C_ 0.780144 0.503382 0.745687 0.05793
C_ C_ 0.717561 -0.00563899999999995 0.748575 0.05793
C_ C_ 0.965297 -0.0006730000000000347 0.729111 0.05793
Br Br 0.574283 0.495975 0.772541 -0.17191
Br Br 0.820688 0.505499 0.727471 -0.17191
Br Br 0.675186 -0.008535999999999988 0.759769 -0.17191
Br Br 0.921617 -0.003475000000000006 0.734021 -0.17191
N_ N_ 0.627476 0.243458 0.85804 -0.272
N_ N_ 0.873511 0.242833 0.850032 -0.272
N_ N_ 0.61913 0.243067 0.992694 -0.12501
N_ N_ 0.875983 0.232183 0.984086 -0.12501
N_ N_ 0.629098 0.249694 0.649985 -0.272
N_ N_ 0.8684 0.254323 0.63735 -0.272
N_ N_ 0.640252 0.257654 0.520776 -0.12501
N_ N_ 0.87858 0.269747 0.503456 -0.12501
O_ O_ 0.595534 0.296185 0.717879 -0.60745
O_ O_ 0.840117 0.296037 0.710529 -0.60745
O_ O_ 0.594145 0.287548 0.787112 -0.60745
O_ O_ 0.84304 0.294299 0.776795 -0.60745
O_ O_ 0.657715 0.296347 0.791558 -0.60745
O_ O_ 0.907647 0.286518 0.778688 -0.60745
O_ O_ 0.658295 0.291126 0.720743 -0.60745
O_ O_ 0.901127 0.295822 0.710842 -0.60745
O_ O_ 0.664184 0.209605 0.789773 -0.60745
O_ O_ 0.903253 0.204905 0.773056 -0.60745
O_ O_ 0.657714 0.20511 0.721105 -0.60745
O_ O_ 0.896431 0.203027 0.703154 -0.60745
O_ O_ 0.596166 0.203514 0.713439 -0.60745
O_ O_ 0.838116 0.206007 0.709349 -0.60745
O_ O_ 0.602429 0.197403 0.781278 -0.60745
O_ O_ 0.843656 0.203574 0.778182 -0.60745
Zn Zn 0.622889 0.756653 0.288502 0.9476
Zn Zn 0.87365 0.751161 0.284154 0.9476
Zn Zn 0.620849 0.752527 0.2178 0.9476
Zn Zn 0.87422 0.751598 0.214771 0.9476
H_ H_ 0.559245 0.940758 0.203901 0.10932
H_ H_ 0.798625 0.934636 0.181539 0.10932
H_ H_ 0.547507 0.84171 0.320897 0.10932
H_ H_ 0.800014 0.843493 0.30771 0.10932
H_ H_ 0.579698 0.869763 0.194175 0.10932
H_ H_ 0.824448 0.865684 0.180372 0.10932
H_ H_ 0.517344 0.907346 0.317972 0.10932
H_ H_ 0.767962 0.903901 0.304217 0.10932
H_ H_ 0.707379 0.932075 0.303601 0.10932
H_ H_ 0.972304 0.909741 0.321741 0.10932
H_ H_ 0.690251 0.850214 0.173137 0.10932
H_ H_ 0.928917 0.864728 0.184748 0.10932
H_ H_ 0.672196 0.872401 0.305211 0.10932
H_ H_ 0.938342 0.848328 0.318738 0.10932
H_ H_ 0.72285 0.910643 0.173457 0.10932
H_ H_ 0.963069 0.922524 0.188683 0.10932
H_ H_ 0.709603 0.586606 0.311436 0.10932
H_ H_ 0.975816 0.5937 0.319431 0.10932
H_ H_ 0.678363 0.647866 0.179265 0.10932
H_ H_ 0.934523 0.646913 0.18584 0.10932
H_ H_ 0.680022 0.644032 0.315903 0.10932
H_ H_ 0.940023 0.653973 0.319229 0.10932
H_ H_ 0.710461 0.590585 0.179425 0.10932
H_ H_ 0.957445 0.580891 0.18356 0.10932
H_ H_ 0.525952 0.591394 0.192172 0.10932
H_ H_ 0.769302 0.602302 0.181072 0.10932
H_ H_ 0.576404 0.641737 0.324459 0.10932
H_ H_ 0.817065 0.643599 0.314289 0.10932
H_ H_ 0.549566 0.664232 0.195524 0.10932
H_ H_ 0.795173 0.665221 0.18294 0.10932
H_ H_ 0.546527 0.572912 0.322212 0.10932
H_ H_ 0.787397 0.582149 0.309337 0.10932
H_ H_ 0.631425 0.691161 0.357258 0.10932
H_ H_ 0.886831 0.816114 0.357799 0.10932
H_ H_ 0.62231 0.820766 0.364461 0.10932
H_ H_ 0.868906 0.6847 0.356685 0.10932
H_ H_ 0.624535 0.815035 0.446584 0.10932
H_ H_ 0.875797 0.683674 0.435334 0.10932
H_ H_ 0.629747 0.683056 0.434598 0.10932
H_ H_ 0.891625 0.814655 0.433944 0.10932
H_ H_ 0.613432 0.687367 0.143341 0.10932
H_ H_ 0.873141 0.686687 0.13941 0.10932
H_ H_ 0.618593 0.817657 0.145045 0.10932
H_ H_ 0.875822 0.818029 0.136119 0.10932
H_ H_ 0.625475 0.819952 0.068708 0.10932
H_ H_ 0.886302 0.819041 0.0630578 0.10932
H_ H_ 0.615843 0.686629 0.0630201 0.10932
H_ H_ 0.875615 0.68311 0.0607318 0.10932
C_ C_ 0.563015 0.848931 0.255222 -0.02249
C_ C_ 0.81293 0.847821 0.240142 -0.02249
C_ C_ 0.518985 0.965979 0.256518 -0.02249
C_ C_ 0.764035 0.962899 0.243129 -0.02249
C_ C_ 0.554164 0.916727 0.224868 -0.11473
C_ C_ 0.79608 0.912331 0.206693 -0.11473
C_ C_ 0.544758 0.859907 0.289666 -0.11473
C_ C_ 0.79761 0.859321 0.277473 -0.11473
C_ C_ 0.565386 0.876209 0.221072 -0.11473
C_ C_ 0.811986 0.87398 0.206461 -0.11473
C_ C_ 0.535062 0.925629 0.256772 -0.02249
C_ C_ 0.779933 0.923426 0.242032 -0.02249
C_ C_ 0.583416 0.812531 0.257173 0.6875
C_ C_ 0.834487 0.811403 0.241578 0.6875
C_ C_ 0.530732 0.898864 0.291349 -0.11473
C_ C_ 0.781798 0.897329 0.277521 -0.11473
C_ C_ 0.681169 0.852903 0.239468 -0.02249
C_ C_ 0.93478 0.847521 0.250969 -0.02249
C_ C_ 0.731797 0.966529 0.236434 -0.02249
C_ C_ 0.983447 0.961121 0.256962 -0.02249
C_ C_ 0.70123 0.916739 0.27389 -0.11473
C_ C_ 0.963625 0.899468 0.292373 -0.11473
C_ C_ 0.695104 0.865614 0.202665 -0.11473
C_ C_ 0.941772 0.867764 0.213016 -0.11473
C_ C_ 0.682645 0.881141 0.274682 -0.11473
C_ C_ 0.947352 0.861675 0.290328 -0.11473
C_ C_ 0.713178 0.927504 0.235936 -0.02249
C_ C_ 0.967803 0.920604 0.255531 -0.02249
C_ C_ 0.666177 0.812131 0.244241 0.6875
C_ C_ 0.913487 0.810115 0.249961 0.6875
C_ C_ 0.709791 0.90342 0.201223 -0.11473
C_ C_ 0.957788 0.905219 0.217463 -0.11473
C_ C_ 0.680347 0.657537 0.248306 -0.02249
C_ C_ 0.931547 0.651188 0.253128 -0.02249
C_ C_ 0.732418 0.543481 0.245114 -0.02249
C_ C_ 0.982263 0.539013 0.250134 -0.02249
C_ C_ 0.704187 0.599109 0.283864 -0.11473
C_ C_ 0.961102 0.600217 0.292039 -0.11473
C_ C_ 0.686755 0.637695 0.210908 -0.11473
C_ C_ 0.939371 0.6322 0.215742 -0.11473
C_ C_ 0.687386 0.636863 0.285948 -0.11473
C_ C_ 0.94314 0.635783 0.291709 -0.11473
C_ C_ 0.714393 0.581963 0.245952 -0.02249
C_ C_ 0.967927 0.579629 0.253363 -0.02249
C_ C_ 0.661198 0.695308 0.248672 0.6875
C_ C_ 0.911535 0.688905 0.252552 0.6875
C_ C_ 0.704245 0.600678 0.209189 -0.11473
C_ C_ 0.957034 0.596351 0.213512 -0.11473
C_ C_ 0.566793 0.654088 0.26041 -0.02249
C_ C_ 0.81291 0.656642 0.248114 -0.02249
C_ C_ 0.518151 0.538096 0.256702 -0.02249
C_ C_ 0.764706 0.543036 0.239312 -0.02249
C_ C_ 0.535949 0.603016 0.220342 -0.11473
C_ C_ 0.784238 0.606492 0.207661 -0.11473
C_ C_ 0.563518 0.631028 0.296567 -0.11473
C_ C_ 0.809639 0.631915 0.283355 -0.11473
C_ C_ 0.55289 0.640863 0.221673 -0.11473
C_ C_ 0.797655 0.644222 0.209897 -0.11473
C_ C_ 0.535844 0.577469 0.255801 -0.02249
C_ C_ 0.781064 0.582166 0.242965 -0.02249
C_ C_ 0.584197 0.69331 0.261182 0.6875
C_ C_ 0.833506 0.692458 0.249314 0.6875
C_ C_ 0.54689 0.592651 0.294532 -0.11473
C_ C_ 0.790936 0.597959 0.281437 -0.11473
C_ C_ 0.63044 0.719039 0.37782 0.17695
C_ C_ 0.883625 0.785931 0.37554 0.17695
C_ C_ 0.625516 0.790864 0.382045 0.17695
C_ C_ 0.870398 0.7132 0.374039 0.17695
C_ C_ 0.624152 0.788698 0.426572 -0.11473
C_ C_ 0.875875 0.712523 0.418668 -0.11473
C_ C_ 0.627709 0.748751 0.446422 0.23465
C_ C_ 0.881327 0.748899 0.440902 0.23465
C_ C_ 0.631346 0.714581 0.420051 -0.11473
C_ C_ 0.884964 0.785437 0.418744 -0.11473
C_ C_ 0.616717 0.715977 0.124809 0.17695
C_ C_ 0.874215 0.715284 0.12135 0.17695
C_ C_ 0.616468 0.789427 0.126433 0.17695
C_ C_ 0.876012 0.787498 0.120573 0.17695
C_ C_ 0.619517 0.791183 0.0830388 -0.11473
C_ C_ 0.883633 0.787654 0.0793833 -0.11473
C_ C_ 0.620714 0.75369 0.0596711 0.23465
C_ C_ 0.88378 0.750638 0.0552624 0.23465
C_ C_ 0.617436 0.715631 0.0804218 -0.11473
C_ C_ 0.877085 0.713453 0.0769261 -0.11473
C_ C_ 0.533874 1.00415439 0.263285 0.05793
C_ C_ 0.781372 1.00136 0.244565 0.05793
C_ C_ 0.716346 0.504524 0.250859 0.05793
C_ C_ 0.965741 0.500852 0.251748 0.05793
Br Br 0.5761 1.00468 0.281613 -0.17191
Br Br 0.824919 0.99629 0.23931 -0.17191
Br Br 0.673417 0.503979 0.259914 -0.17191
Br Br 0.92294 0.504619 0.260452 -0.17191
N_ N_ 0.629131 0.75639 0.359226 -0.272
N_ N_ 0.875705 0.750588 0.353742 -0.272
N_ N_ 0.622768 0.742227 0.489679 -0.12501
N_ N_ 0.889017 0.748851 0.484544 -0.12501
N_ N_ 0.615941 0.752001 0.146159 -0.272
N_ N_ 0.876365 0.751094 0.144127 -0.272
N_ N_ 0.626986 0.758522 0.0163 -0.12501
N_ N_ 0.890956 0.748716 0.0125701 -0.12501
O_ O_ 0.592906 0.797967 0.221429 -0.60745
O_ O_ 0.839008 0.791308 0.207277 -0.60745
O_ O_ 0.591567 0.797952 0.292954 -0.60745
O_ O_ 0.842673 0.797409 0.277848 -0.60745
O_ O_ 0.655227 0.801701 0.279869 -0.60745
O_ O_ 0.90771 0.789664 0.282832 -0.60745
O_ O_ 0.654025 0.795272 0.211709 -0.60745
O_ O_ 0.900314 0.800383 0.215333 -0.60745
O_ O_ 0.653591 0.712672 0.282956 -0.60745
O_ O_ 0.903051 0.705561 0.285811 -0.60745
O_ O_ 0.646934 0.703709 0.214902 -0.60745
O_ O_ 0.909137 0.710397 0.220542 -0.60745
O_ O_ 0.587196 0.712218 0.227426 -0.60745
O_ O_ 0.84777 0.702305 0.21656 -0.60745
O_ O_ 0.596027 0.708784 0.2956 -0.60745
O_ O_ 0.838706 0.709949 0.282919 -0.60745
Zn Zn 0.623295 0.751585 0.789197 0.9476
Zn Zn 0.881399 0.748783 0.779976 0.9476
Zn Zn 0.622662 0.747184 0.721285 0.9476
Zn Zn 0.877008 0.751597 0.709528 0.9476
H_ H_ 0.517921 0.897867 0.685606 0.10932
H_ H_ 0.778167 0.912799 0.677114 0.10932
H_ H_ 0.575218 0.869045 0.817912 0.10932
H_ H_ 0.810523 0.844182 0.809593 0.10932
H_ H_ 0.544584 0.833286 0.691223 0.10932
H_ H_ 0.81206 0.848736 0.6742 0.10932
H_ H_ 0.542332 0.930035 0.811268 0.10932
H_ H_ 0.783661 0.914375 0.809313 0.10932
H_ H_ 0.723117 0.910294 0.814334 0.10932
H_ H_ 0.965652 0.923553 0.797632 0.10932
H_ H_ 0.671786 0.857543 0.686701 0.10932
H_ H_ 0.941458 0.841234 0.67314 0.10932
H_ H_ 0.688992 0.85146 0.822026 0.10932
H_ H_ 0.944513 0.856005 0.807191 0.10932
H_ H_ 0.703229 0.919271 0.683878 0.10932
H_ H_ 0.957788 0.913645 0.66534 0.10932
H_ H_ 0.722062 0.590119 0.82131 0.10932
H_ H_ 0.954753 0.571316 0.814727 0.10932
H_ H_ 0.671271 0.63906 0.691187 0.10932
H_ H_ 0.955506 0.663042 0.691143 0.10932
H_ H_ 0.694622 0.658033 0.81894 0.10932
H_ H_ 0.932044 0.640995 0.815901 0.10932
H_ H_ 0.697548 0.574149 0.689715 0.10932
H_ H_ 0.979159 0.593292 0.684481 0.10932
H_ H_ 0.538979 0.57392 0.68645 0.10932
H_ H_ 0.776763 0.595142 0.681738 0.10932
H_ H_ 0.557572 0.648904 0.815699 0.10932
H_ H_ 0.822123 0.644469 0.817052 0.10932
H_ H_ 0.566115 0.638521 0.684461 0.10932
H_ H_ 0.798241 0.664263 0.688182 0.10932
H_ H_ 0.533961 0.580047 0.817116 0.10932
H_ H_ 0.792276 0.57991 0.815767 0.10932
H_ H_ 0.621699 0.680948 0.855934 0.10932
H_ H_ 0.862042 0.692896 0.865751 0.10932
H_ H_ 0.627412 0.8094 0.867851 0.10932
H_ H_ 0.893011 0.812835 0.847405 0.10932
H_ H_ 0.629253 0.803588 0.948381 0.10932
H_ H_ 0.889978 0.826747 0.922926 0.10932
H_ H_ 0.617843 0.673046 0.933365 0.10932
H_ H_ 0.869293 0.698471 0.942557 0.10932
H_ H_ 0.628197 0.685553 0.635524 0.10932
H_ H_ 0.880839 0.813383 0.631963 0.10932
H_ H_ 0.614311 0.814326 0.651355 0.10932
H_ H_ 0.876972 0.686106 0.645566 0.10932
H_ H_ 0.620069 0.825714 0.574749 0.10932
H_ H_ 0.863759 0.67916 0.567727 0.10932
H_ H_ 0.630787 0.69604 0.558059 0.10932
H_ H_ 0.886402 0.809708 0.55754 0.10932
C_ C_ 0.560086 0.844596 0.756896 -0.02249
C_ C_ 0.814949 0.841682 0.742817 -0.02249
C_ C_ 0.51136 0.960044 0.746203 -0.02249
C_ C_ 0.765863 0.958397 0.744242 -0.02249
C_ C_ 0.529967 0.892964 0.714496 -0.11473
C_ C_ 0.785447 0.896828 0.706601 -0.11473
C_ C_ 0.559986 0.872021 0.789537 -0.11473
C_ C_ 0.804252 0.860457 0.780125 -0.11473
C_ C_ 0.54385 0.854584 0.718251 -0.11473
C_ C_ 0.804867 0.859963 0.704387 -0.11473
C_ C_ 0.528335 0.919911 0.748341 -0.02249
C_ C_ 0.782895 0.918075 0.743418 -0.02249
C_ C_ 0.58041 0.808144 0.756527 0.6875
C_ C_ 0.839277 0.808513 0.742767 0.6875
C_ C_ 0.542669 0.908531 0.786674 -0.11473
C_ C_ 0.78941 0.898288 0.780168 -0.11473
C_ C_ 0.677232 0.850292 0.75438 -0.02249
C_ C_ 0.93972 0.844294 0.740229 -0.02249
C_ C_ 0.73376 0.957534 0.744953 -0.02249
C_ C_ 0.983309 0.96182 0.727215 -0.02249
C_ C_ 0.712916 0.898357 0.78742 -0.11473
C_ C_ 0.956635 0.908844 0.771118 -0.11473
C_ C_ 0.68379 0.867135 0.714992 -0.11473
C_ C_ 0.946549 0.859801 0.700231 -0.11473
C_ C_ 0.692895 0.865357 0.789925 -0.11473
C_ C_ 0.944171 0.868364 0.775861 -0.11473
C_ C_ 0.717249 0.917758 0.748098 -0.02249
C_ C_ 0.966157 0.922589 0.731547 -0.02249
C_ C_ 0.659638 0.812359 0.756907 0.6875
C_ C_ 0.920001 0.807335 0.74177 0.6875
C_ C_ 0.702161 0.902205 0.713251 -0.11473
C_ C_ 0.956552 0.899866 0.695126 -0.11473
C_ C_ 0.686185 0.657896 0.751786 -0.02249
C_ C_ 0.939209 0.653165 0.750716 -0.02249
C_ C_ 0.732827 0.540212 0.753946 -0.02249
C_ C_ 0.983985 0.536114 0.74506 -0.02249
C_ C_ 0.714259 0.603653 0.791613 -0.11473
C_ C_ 0.954507 0.590592 0.786379 -0.11473
C_ C_ 0.687208 0.631921 0.716488 -0.11473
C_ C_ 0.956203 0.642743 0.717433 -0.11473
C_ C_ 0.699158 0.64314 0.79045 -0.11473
C_ C_ 0.939613 0.62736 0.787376 -0.11473
C_ C_ 0.714691 0.579349 0.754981 -0.02249
C_ C_ 0.967523 0.576349 0.747603 -0.02249
C_ C_ 0.666187 0.695819 0.750477 0.6875
C_ C_ 0.922208 0.693824 0.749373 0.6875
C_ C_ 0.69681 0.591505 0.719652 -0.11473
C_ C_ 0.968129 0.602284 0.713293 -0.11473
C_ C_ 0.566937 0.648244 0.750255 -0.02249
C_ C_ 0.816688 0.653288 0.749027 -0.02249
C_ C_ 0.516372 0.533853 0.753746 -0.02249
C_ C_ 0.764813 0.541373 0.747457 -0.02249
C_ C_ 0.544426 0.588362 0.714874 -0.11473
C_ C_ 0.780713 0.608193 0.713329 -0.11473
C_ C_ 0.557426 0.630525 0.788905 -0.11473
C_ C_ 0.81013 0.634716 0.787967 -0.11473
C_ C_ 0.560153 0.626321 0.713761 -0.11473
C_ C_ 0.79581 0.645347 0.715616 -0.11473
C_ C_ 0.534215 0.572018 0.751638 -0.02249
C_ C_ 0.77978 0.581948 0.748978 -0.02249
C_ C_ 0.584733 0.686429 0.751063 0.6875
C_ C_ 0.83926 0.689531 0.750505 0.6875
C_ C_ 0.54061 0.594509 0.788944 -0.11473
C_ C_ 0.793342 0.596756 0.786827 -0.11473
C_ C_ 0.621704 0.70744 0.875457 0.17695
C_ C_ 0.876011 0.718266 0.877817 0.17695
C_ C_ 0.629104 0.78004 0.883332 0.17695
C_ C_ 0.893402 0.787582 0.867608 0.17695
C_ C_ 0.626853 0.776269 0.927699 -0.11473
C_ C_ 0.889257 0.796106 0.911808 -0.11473
C_ C_ 0.624325 0.735989 0.94668 0.23465
C_ C_ 0.883002 0.763604 0.940445 0.23465
C_ C_ 0.62041 0.702365 0.919781 -0.11473
C_ C_ 0.876945 0.723848 0.922945 -0.11473
C_ C_ 0.628834 0.715846 0.622834 0.17695
C_ C_ 0.879049 0.784364 0.618257 0.17695
C_ C_ 0.620266 0.788469 0.631141 0.17695
C_ C_ 0.874225 0.7119 0.62569 0.17695
C_ C_ 0.620927 0.79528 0.586655 -0.11473
C_ C_ 0.868875 0.707791 0.582363 -0.11473
C_ C_ 0.625324 0.76261 0.560324 0.23465
C_ C_ 0.872955 0.743937 0.556121 0.23465
C_ C_ 0.629505 0.722354 0.57822 -0.11473
C_ C_ 0.878161 0.78239 0.575719 -0.11473
C_ C_ 0.52758 -0.0018439999999999568 0.743215 0.05793
C_ C_ 0.781205 -0.0027160000000000517 0.745609 0.05793
C_ C_ 0.717532 0.500531 0.75839 0.05793
C_ C_ 0.968344 0.497698 0.747512 0.05793
Br Br 0.571075 -0.0071069999999999744 0.744466 -0.17191
Br Br 0.824146 0.996126 0.751711 -0.17191
Br Br 0.68048 0.495972 0.788072 -0.17191
Br Br 0.925378 0.503157 0.754955 -0.17191
N_ N_ 0.626981 0.745356 0.859748 -0.272
N_ N_ 0.884158 0.751049 0.851951 -0.272
N_ N_ 0.622429 0.729255 0.990784 -0.12501
N_ N_ 0.878562 0.771304 0.984856 -0.12501
N_ N_ 0.626695 0.749622 0.648256 -0.272
N_ N_ 0.875208 0.749907 0.64294 -0.272
N_ N_ 0.628989 0.77065 0.516433 -0.12501
N_ N_ 0.869435 0.738847 0.510445 -0.12501
O_ O_ 0.589403 0.792996 0.722969 -0.60745
O_ O_ 0.845415 0.792973 0.707766 -0.60745
O_ O_ 0.59083 0.795307 0.790552 -0.60745
O_ O_ 0.85308 0.797051 0.776392 -0.60745
O_ O_ 0.65228 0.795688 0.791495 -0.60745
O_ O_ 0.91547 0.789168 0.775313 -0.60745
O_ O_ 0.651775 0.793825 0.722425 -0.60745
O_ O_ 0.907718 0.794787 0.707773 -0.60745
O_ O_ 0.655917 0.709597 0.784054 -0.60745
O_ O_ 0.908949 0.703517 0.78413 -0.60745
O_ O_ 0.654853 0.706242 0.715644 -0.60745
O_ O_ 0.910334 0.706409 0.713968 -0.60745
O_ O_ 0.593177 0.701036 0.715812 -0.60745
O_ O_ 0.843781 0.70674 0.713873 -0.60745
O_ O_ 0.595301 0.701449 0.784177 -0.60745
O_ O_ 0.849364 0.706353 0.783336 -0.60745
_cell_length_a 44.444
_cell_length_b 32.3360000049186
_cell_length_c 31.843999878906452
_cell_angle_alpha 89.99799923859553
_cell_angle_beta 91.13600050494348
_cell_angle_gamma 89.9990006550086
_symmetry_space_group_name_H-M         'P 1'
_symmetry_Int_Tables_number            1
loop_
_symmetry_equiv_pos_as_xyz
   'x, y, z'
                         
loop_
_atom_site_label
_atom_site_type_symbol
_atom_site_fract_x 
_atom_site_fract_y
_atom_site_fract_z
_atom_site_charge
Zn Zn 0.121268 0.249501 0.284937 0.9476
Zn Zn 0.375124 0.25168 0.292283 0.9476
Zn Zn 0.121911 0.250822 0.215776 0.9476
Zn Zn 0.3773 0.249622 0.221295 0.9476
H_ H_ 0.0358328 0.42117 0.182591 0.10932
H_ H_ 0.290226 0.417831 0.181544 0.10932
H_ H_ 0.0683447 0.35919 0.313473 0.10932
H_ H_ 0.304247 0.344992 0.317158 0.10932
H_ H_ 0.055342 0.348845 0.178682 0.10932
H_ H_ 0.323478 0.35253 0.18609 0.10932
H_ H_ 0.0361739 0.422614 0.315574 0.10932
H_ H_ 0.271748 0.406154 0.312055 0.10932
H_ H_ 0.205126 0.424015 0.313353 0.10932
H_ H_ 0.468489 0.417218 0.325321 0.10932
H_ H_ 0.200971 0.335981 0.182604 0.10932
H_ H_ 0.434363 0.353137 0.188156 0.10932
H_ H_ 0.174536 0.364294 0.309661 0.10932
H_ H_ 0.437368 0.353509 0.321939 0.10932
H_ H_ 0.230976 0.402134 0.183071 0.10932
H_ H_ 0.457477 0.423769 0.191585 0.10932
H_ H_ 0.219969 0.0881775 0.320869 0.10932
H_ H_ 0.466182 0.0789227 0.325562 0.10932
H_ H_ 0.179479 0.142206 0.186759 0.10932
H_ H_ 0.44695 0.159813 0.19476 0.10932
H_ H_ 0.187655 0.153215 0.320514 0.10932
H_ H_ 0.431734 0.141724 0.328078 0.10932
H_ H_ 0.205709 0.0743086 0.189853 0.10932
H_ H_ 0.479624 0.097466 0.195819 0.10932
H_ H_ 0.0189232 0.0979834 0.180608 0.10932
H_ H_ 0.293547 0.0697596 0.198135 0.10932
H_ H_ 0.0781286 0.133804 0.312962 0.10932
H_ H_ 0.302798 0.158071 0.323993 0.10932
H_ H_ 0.0451348 0.163443 0.186314 0.10932
H_ H_ 0.321418 0.137023 0.193848 0.10932
H_ H_ 0.0501509 0.0697746 0.310519 0.10932
H_ H_ 0.275962 0.0922633 0.327817 0.10932
H_ H_ 0.134433 0.313795 0.367517 0.10932
H_ H_ 0.390783 0.314437 0.364399 0.10932
H_ H_ 0.112271 0.186664 0.359567 0.10932
H_ H_ 0.38843 0.183926 0.36845 0.10932
H_ H_ 0.116113 0.178974 0.438026 0.10932
H_ H_ 0.381027 0.186991 0.443946 0.10932
H_ H_ 0.140959 0.307258 0.441778 0.10932
H_ H_ 0.395274 0.319267 0.439907 0.10932
H_ H_ 0.122887 0.30705 0.133082 0.10932
H_ H_ 0.352375 0.302266 0.136487 0.10932
H_ H_ 0.108679 0.179243 0.149111 0.10932
H_ H_ 0.402525 0.192162 0.149855 0.10932
H_ H_ 0.106948 0.170572 0.0718186 0.10932
H_ H_ 0.408182 0.187957 0.0731241 0.10932
H_ H_ 0.118774 0.30147 0.0572482 0.10932
H_ H_ 0.355129 0.302119 0.0608096 0.10932
C_ C_ 0.0624816 0.347036 0.248347 -0.02249
C_ C_ 0.314806 0.344568 0.251388 -0.02249
C_ C_ 0.0119022 0.46089 0.24763 -0.02249
C_ C_ 0.266402 0.460105 0.248213 -0.02249
C_ C_ 0.037559 0.402042 0.210009 -0.11473
C_ C_ 0.294726 0.402795 0.211171 -0.11473
C_ C_ 0.056879 0.369274 0.285838 -0.11473
C_ C_ 0.303559 0.362059 0.288796 -0.11473
C_ C_ 0.0523492 0.363764 0.209967 -0.11473
C_ C_ 0.309161 0.363733 0.213389 -0.11473
C_ C_ 0.0289337 0.421182 0.248203 -0.02249
C_ C_ 0.281526 0.417941 0.24704 -0.02249
C_ C_ 0.0825887 0.310103 0.248313 0.6875
C_ C_ 0.333857 0.307948 0.253508 0.6875
C_ C_ 0.0384342 0.403823 0.286358 -0.11473
C_ C_ 0.28363 0.396118 0.284278 -0.11473
C_ C_ 0.186026 0.343743 0.248193 -0.02249
C_ C_ 0.433375 0.347838 0.255804 -0.02249
C_ C_ 0.235209 0.460227 0.24932 -0.02249
C_ C_ 0.484748 0.462101 0.25563 -0.02249
C_ C_ 0.20588 0.404656 0.285778 -0.11473
C_ C_ 0.460747 0.402827 0.293887 -0.11473
C_ C_ 0.203226 0.355773 0.212445 -0.11473
C_ C_ 0.440139 0.368134 0.219114 -0.11473
C_ C_ 0.189646 0.368467 0.285001 -0.11473
C_ C_ 0.445081 0.364857 0.293151 -0.11473
C_ C_ 0.219288 0.418776 0.248291 -0.02249
C_ C_ 0.466227 0.423294 0.256399 -0.02249
C_ C_ 0.164055 0.308333 0.24641 0.6875
C_ C_ 0.415631 0.308421 0.256596 0.6875
C_ C_ 0.219314 0.393396 0.212107 -0.11473
C_ C_ 0.456002 0.405458 0.218825 -0.11473
C_ C_ 0.177749 0.15023 0.255153 -0.02249
C_ C_ 0.437241 0.157574 0.262675 -0.02249
C_ C_ 0.232051 0.0380961 0.255937 -0.02249
C_ C_ 0.487359 0.0423568 0.256131 -0.02249
C_ C_ 0.207176 0.098842 0.293921 -0.11473
C_ C_ 0.458827 0.0965121 0.29656 -0.11473
C_ C_ 0.187497 0.130387 0.217658 -0.11473
C_ C_ 0.448783 0.141653 0.224489 -0.11473
C_ C_ 0.189532 0.13483 0.293322 -0.11473
C_ C_ 0.440484 0.133871 0.298758 -0.11473
C_ C_ 0.214271 0.0779204 0.257205 -0.02249
C_ C_ 0.471318 0.0826797 0.258507 -0.02249
C_ C_ 0.160896 0.189309 0.252574 0.6875
C_ C_ 0.416205 0.193211 0.260591 0.6875
C_ C_ 0.20315 0.0929961 0.219087 -0.11473
C_ C_ 0.468246 0.107673 0.223684 -0.11473
C_ C_ 0.061857 0.155596 0.249704 -0.02249
C_ C_ 0.314754 0.15342 0.25853 -0.02249
C_ C_ 0.0124505 0.0385555 0.248827 -0.02249
C_ C_ 0.263437 0.0385571 0.262041 -0.02249
C_ C_ 0.0301715 0.105846 0.210044 -0.11473
C_ C_ 0.293177 0.0920367 0.224244 -0.11473
C_ C_ 0.0624965 0.129329 0.286478 -0.11473
C_ C_ 0.301345 0.138992 0.296492 -0.11473
C_ C_ 0.0457162 0.143826 0.212919 -0.11473
C_ C_ 0.308763 0.12955 0.222912 -0.11473
C_ C_ 0.028568 0.0799933 0.248449 -0.02249
C_ C_ 0.280198 0.0798946 0.261151 -0.02249
C_ C_ 0.0811259 0.192689 0.251728 0.6875
C_ C_ 0.335342 0.189575 0.257908 0.6875
C_ C_ 0.04599 0.0924094 0.283934 -0.11473
C_ C_ 0.285703 0.102154 0.298287 -0.11473
C_ C_ 0.12764 0.28555 0.38216 0.17695
C_ C_ 0.38582 0.286305 0.381014 0.17695
C_ C_ 0.114288 0.213925 0.378318 0.17695
C_ C_ 0.383056 0.21437 0.383703 0.17695
C_ C_ 0.117833 0.209875 0.422201 -0.11473
C_ C_ 0.38572 0.215933 0.427984 -0.11473
C_ C_ 0.125789 0.243249 0.446955 0.23465
C_ C_ 0.389335 0.254384 0.447777 0.23465
C_ C_ 0.130671 0.28157 0.42674 -0.11473
C_ C_ 0.392106 0.288657 0.423463 -0.11473
C_ C_ 0.121302 0.276039 0.121042 0.17695
C_ C_ 0.364768 0.276083 0.12344 0.17695
C_ C_ 0.116382 0.204225 0.12959 0.17695
C_ C_ 0.390489 0.213615 0.12898 0.17695
C_ C_ 0.11504 0.19998 0.0845396 -0.11473
C_ C_ 0.394978 0.213457 0.084821 -0.11473
C_ C_ 0.118208 0.234934 0.0586651 0.23465
C_ C_ 0.38163 0.242326 0.0591854 0.23465
C_ C_ 0.120501 0.273209 0.077193 -0.11473
C_ C_ 0.364646 0.275088 0.078794 -0.11473
C_ C_ 0.0284385 0.498076 0.246702 0.05793
C_ C_ 0.282189 0.497152 0.252987 0.05793
C_ C_ 0.216853 -0.0007620000000000404 0.257302 0.05793
C_ C_ 0.471929 1.00517933 0.248969 0.05793
Br Br 0.071197 0.492375 0.232502 -0.17191
Br Br 0.32588 0.49629 0.264753 -0.17191
Br Br 0.174282 -0.0026969999999999494 0.257342 -0.17191
Br Br 0.433676 1.00773061 0.219278 -0.17191
N_ N_ 0.118956 0.251091 0.359586 -0.272
N_ N_ 0.377912 0.249842 0.362803 -0.272
N_ N_ 0.132159 0.239981 0.491008 -0.12501
N_ N_ 0.388326 0.258684 0.492588 -0.12501
N_ N_ 0.120186 0.242273 0.146079 -0.272
N_ N_ 0.37784 0.246714 0.147828 -0.272
N_ N_ 0.119469 0.227174 0.0132914 -0.12501
N_ N_ 0.381399 0.236038 0.0145736 -0.12501
O_ O_ 0.088871 0.29183 0.214702 -0.60745
O_ O_ 0.342684 0.289694 0.220094 -0.60745
O_ O_ 0.0955318 0.299183 0.283839 -0.60745
O_ O_ 0.344196 0.297087 0.289621 -0.60745
O_ O_ 0.152614 0.294139 0.280153 -0.60745
O_ O_ 0.408402 0.291478 0.290961 -0.60745
O_ O_ 0.15461 0.293293 0.212088 -0.60745
O_ O_ 0.405677 0.294466 0.22233 -0.60745
O_ O_ 0.153168 0.206217 0.286279 -0.60745
O_ O_ 0.407025 0.209228 0.294938 -0.60745
O_ O_ 0.151573 0.202517 0.217437 -0.60745
O_ O_ 0.41134 0.212851 0.227272 -0.60745
O_ O_ 0.0890975 0.210127 0.21704 -0.60745
O_ O_ 0.34806 0.198798 0.224432 -0.60745
O_ O_ 0.0908863 0.20608 0.285896 -0.60745
O_ O_ 0.340728 0.210417 0.291136 -0.60745
Zn Zn 0.126472 0.246292 0.786773 0.9476
Zn Zn 0.375967 0.247078 0.790673 0.9476
Zn Zn 0.124668 0.248426 0.719301 0.9476
Zn Zn 0.372084 0.248605 0.720197 0.9476
H_ H_ 0.0293089 0.41259 0.687691 0.10932
H_ H_ 0.280847 0.417809 0.681359 0.10932
H_ H_ 0.0837957 0.365685 0.811371 0.10932
H_ H_ 0.317089 0.351577 0.814533 0.10932
H_ H_ 0.05364 0.34363 0.687399 0.10932
H_ H_ 0.303154 0.347311 0.680149 0.10932
H_ H_ 0.0484292 0.42282 0.817981 0.10932
H_ H_ 0.290273 0.418909 0.813741 0.10932
H_ H_ 0.224689 0.41034 0.825494 0.10932
H_ H_ 0.454485 0.424202 0.83102 0.10932
H_ H_ 0.177755 0.355422 0.690954 0.10932
H_ H_ 0.440241 0.347243 0.695872 0.10932
H_ H_ 0.193564 0.347601 0.826469 0.10932
H_ H_ 0.421621 0.363989 0.827188 0.10932
H_ H_ 0.196391 0.429072 0.696022 0.10932
H_ H_ 0.473552 0.410002 0.700587 0.10932
H_ H_ 0.230943 0.0877829 0.817633 0.10932
H_ H_ 0.469293 0.0871244 0.822271 0.10932
H_ H_ 0.184636 0.143778 0.687716 0.10932
H_ H_ 0.424713 0.147379 0.68835 0.10932
H_ H_ 0.200878 0.155784 0.81917 0.10932
H_ H_ 0.44095 0.148755 0.823739 0.10932
H_ H_ 0.207389 0.0719473 0.68697 0.10932
H_ H_ 0.457379 0.0787543 0.687407 0.10932
H_ H_ 0.0246894 0.0966757 0.665955 0.10932
H_ H_ 0.267466 0.0998643 0.684859 0.10932
H_ H_ 0.0673303 0.131841 0.807258 0.10932
H_ H_ 0.328238 0.127388 0.817346 0.10932
H_ H_ 0.0551304 0.158413 0.674214 0.10932
H_ H_ 0.298417 0.160105 0.690207 0.10932
H_ H_ 0.0307731 0.0716357 0.800521 0.10932
H_ H_ 0.298137 0.0634753 0.81109 0.10932
H_ H_ 0.122802 0.307409 0.855212 0.10932
H_ H_ 0.322874 0.235778 0.862366 0.10932
H_ H_ 0.123814 0.180219 0.866039 0.10932
H_ H_ 0.415714 0.267636 0.867457 0.10932
H_ H_ 0.130768 0.188906 0.941571 0.10932
H_ H_ 0.413194 0.273212 0.946184 0.10932
H_ H_ 0.114736 0.315808 0.931175 0.10932
H_ H_ 0.321261 0.246543 0.941463 0.10932
H_ H_ 0.131254 0.190839 0.641927 0.10932
H_ H_ 0.416974 0.255255 0.645338 0.10932
H_ H_ 0.122249 0.318777 0.652956 0.10932
H_ H_ 0.323098 0.238415 0.640843 0.10932
H_ H_ 0.119256 0.326426 0.573398 0.10932
H_ H_ 0.324205 0.239795 0.563167 0.10932
H_ H_ 0.131054 0.196304 0.5631 0.10932
H_ H_ 0.418859 0.253979 0.569175 0.10932
C_ C_ 0.068717 0.345374 0.75141 -0.02249
C_ C_ 0.312524 0.341236 0.748723 -0.02249
C_ C_ 0.0155258 0.458204 0.749893 -0.02249
C_ C_ 0.266737 0.460047 0.750068 -0.02249
C_ C_ 0.0356661 0.397473 0.716014 -0.11473
C_ C_ 0.287977 0.400865 0.711495 -0.11473
C_ C_ 0.0672351 0.370981 0.786886 -0.11473
C_ C_ 0.307588 0.364063 0.785938 -0.11473
C_ C_ 0.0493441 0.358039 0.716205 -0.11473
C_ C_ 0.303202 0.361787 0.710935 -0.11473
C_ C_ 0.0321449 0.418858 0.752409 -0.02249
C_ C_ 0.283363 0.419608 0.74897 -0.02249
C_ C_ 0.0851506 0.304665 0.749854 0.6875
C_ C_ 0.330581 0.303663 0.749949 0.6875
C_ C_ 0.0495252 0.40659 0.788732 -0.11473
C_ C_ 0.294494 0.401842 0.786292 -0.11473
C_ C_ 0.182916 0.348252 0.76062 -0.02249
C_ C_ 0.429769 0.349129 0.762494 -0.02249
C_ C_ 0.235715 0.45935 0.754946 -0.02249
C_ C_ 0.484379 0.459157 0.762609 -0.02249
C_ C_ 0.214826 0.397318 0.794683 -0.11473
C_ C_ 0.451952 0.407 0.801565 -0.11473
C_ C_ 0.185096 0.369894 0.722353 -0.11473
C_ C_ 0.444928 0.361375 0.726114 -0.11473
C_ C_ 0.195222 0.364064 0.797194 -0.11473
C_ C_ 0.434784 0.371173 0.80012 -0.11473
C_ C_ 0.218935 0.418817 0.7548 -0.02249
C_ C_ 0.466405 0.419895 0.764751 -0.02249
C_ C_ 0.165117 0.309209 0.760187 0.6875
C_ C_ 0.409394 0.311021 0.760415 0.6875
C_ C_ 0.200642 0.407453 0.720858 -0.11473
C_ C_ 0.461368 0.398933 0.726951 -0.11473
C_ C_ 0.186829 0.148939 0.754462 -0.02249
C_ C_ 0.43167 0.153247 0.755469 -0.02249
C_ C_ 0.234503 0.0338766 0.752491 -0.02249
C_ C_ 0.481982 0.0397612 0.753074 -0.02249
C_ C_ 0.216288 0.0980671 0.791139 -0.11473
C_ C_ 0.461758 0.101134 0.792903 -0.11473
C_ C_ 0.192878 0.130372 0.715636 -0.11473
C_ C_ 0.437693 0.135314 0.71634 -0.11473
C_ C_ 0.202019 0.136263 0.79186 -0.11473
C_ C_ 0.443785 0.13508 0.793865 -0.11473
C_ C_ 0.215193 0.074031 0.754439 -0.02249
C_ C_ 0.467385 0.0819435 0.753417 -0.02249
C_ C_ 0.165234 0.186357 0.756848 0.6875
C_ C_ 0.412951 0.191471 0.758879 0.6875
C_ C_ 0.20551 0.091508 0.715962 -0.11473
C_ C_ 0.453944 0.0965159 0.715797 -0.11473
C_ C_ 0.0633261 0.15145 0.742258 -0.02249
C_ C_ 0.314574 0.151201 0.755832 -0.02249
C_ C_ 0.0115144 0.0397382 0.724041 -0.02249
C_ C_ 0.265753 0.0355723 0.74682 -0.02249
C_ C_ 0.0323306 0.107538 0.696595 -0.11473
C_ C_ 0.281209 0.104682 0.716051 -0.11473
C_ C_ 0.0570301 0.125836 0.777161 -0.11473
C_ C_ 0.314697 0.12332 0.789273 -0.11473
C_ C_ 0.0498746 0.142416 0.702538 -0.11473
C_ C_ 0.299104 0.139332 0.718481 -0.11473
C_ C_ 0.0282661 0.0797255 0.730966 -0.02249
C_ C_ 0.280863 0.0772642 0.750434 -0.02249
C_ C_ 0.0830705 0.187622 0.745922 0.6875
C_ C_ 0.334818 0.186983 0.754873 0.6875
C_ C_ 0.0378856 0.0918531 0.771914 -0.11473
C_ C_ 0.295999 0.0875501 0.788073 -0.11473
C_ C_ 0.124347 0.281695 0.874997 0.17695
C_ C_ 0.343075 0.245062 0.880272 0.17695
C_ C_ 0.125053 0.210061 0.87973 0.17695
C_ C_ 0.39533 0.260693 0.882991 0.17695
C_ C_ 0.122616 0.213286 0.923832 -0.11473
C_ C_ 0.394474 0.264415 0.927604 -0.11473
C_ C_ 0.117931 0.250142 0.943501 0.23465
C_ C_ 0.368257 0.257849 0.946622 0.23465
C_ C_ 0.119632 0.285241 0.918585 -0.11473
C_ C_ 0.34188 0.24856 0.924527 -0.11473
C_ C_ 0.130567 0.22032 0.625581 0.17695
C_ C_ 0.397069 0.250135 0.627984 0.17695
C_ C_ 0.126138 0.293931 0.631799 0.17695
C_ C_ 0.344311 0.240724 0.624023 0.17695
C_ C_ 0.123886 0.296839 0.587919 -0.11473
C_ C_ 0.345287 0.238185 0.581197 -0.11473
C_ C_ 0.123037 0.261724 0.561967 0.23465
C_ C_ 0.371576 0.245778 0.559766 0.23465
C_ C_ 0.128031 0.222772 0.581407 -0.11473
C_ C_ 0.398325 0.249131 0.584763 -0.11473
C_ C_ 0.0322492 0.496132 0.744483 0.05793
C_ C_ 0.282646 0.498826 0.751112 0.05793
C_ C_ 0.219484 -0.003758000000000039 0.755335 0.05793
C_ C_ 0.46571 1.00308486 0.754933 0.05793
Br Br 0.0750346 0.492556 0.738891 -0.17191
Br Br 0.326102 0.500321 0.748777 -0.17191
Br Br 0.177185 -0.003932000000000047 0.76515 -0.17191
Br Br 0.421557 1.00775136 0.761044 -0.17191
N_ N_ 0.125859 0.244861 0.855416 -0.272
N_ N_ 0.37022 0.249173 0.861266 -0.272
N_ N_ 0.123236 0.255305 0.987359 -0.12501
N_ N_ 0.366522 0.25937 0.990871 -0.12501
N_ N_ 0.13029 0.255736 0.648686 -0.272
N_ N_ 0.370813 0.245754 0.646924 -0.272
N_ N_ 0.122203 0.2663 0.516939 -0.12501
N_ N_ 0.371937 0.237888 0.515968 -0.12501
O_ O_ 0.0937358 0.292612 0.713837 -0.60745
O_ O_ 0.339113 0.286006 0.716079 -0.60745
O_ O_ 0.0940484 0.287443 0.782457 -0.60745
O_ O_ 0.344974 0.293424 0.782992 -0.60745
O_ O_ 0.158083 0.290687 0.794204 -0.60745
O_ O_ 0.403882 0.292084 0.794877 -0.60745
O_ O_ 0.155265 0.293455 0.724728 -0.60745
O_ O_ 0.400406 0.296669 0.726373 -0.60745
O_ O_ 0.157836 0.200647 0.792501 -0.60745
O_ O_ 0.404282 0.202307 0.795014 -0.60745
O_ O_ 0.15445 0.202834 0.722814 -0.60745
O_ O_ 0.405456 0.211949 0.726241 -0.60745
O_ O_ 0.0908838 0.206198 0.713398 -0.60745
O_ O_ 0.345007 0.19733 0.720262 -0.60745
O_ O_ 0.0946965 0.200957 0.780839 -0.60745
O_ O_ 0.342273 0.20574 0.786419 -0.60745
Zn Zn 0.125847 0.747486 0.277196 0.9476
Zn Zn 0.374801 0.749412 0.284678 0.9476
Zn Zn 0.125722 0.74778 0.205527 0.9476
Zn Zn 0.375599 0.75204 0.215866 0.9476
H_ H_ 0.0212884 0.90392 0.184372 0.10932
H_ H_ 0.287577 0.928673 0.186114 0.10932
H_ H_ 0.0769142 0.860951 0.3093 0.10932
H_ H_ 0.310711 0.852972 0.318138 0.10932
H_ H_ 0.0540222 0.845305 0.181903 0.10932
H_ H_ 0.32189 0.865289 0.181749 0.10932
H_ H_ 0.040683 0.917883 0.318899 0.10932
H_ H_ 0.277695 0.913321 0.317267 0.10932
H_ H_ 0.202048 0.924497 0.312204 0.10932
H_ H_ 0.458087 0.930608 0.317285 0.10932
H_ H_ 0.208187 0.836851 0.187636 0.10932
H_ H_ 0.450653 0.843982 0.191208 0.10932
H_ H_ 0.177772 0.855956 0.311615 0.10932
H_ H_ 0.43034 0.860886 0.321638 0.10932
H_ H_ 0.230225 0.906638 0.185025 0.10932
H_ H_ 0.47702 0.908994 0.190147 0.10932
H_ H_ 0.221925 0.582169 0.311334 0.10932
H_ H_ 0.4739 0.59172 0.321377 0.10932
H_ H_ 0.186517 0.6405 0.176412 0.10932
H_ H_ 0.435572 0.644172 0.183362 0.10932
H_ H_ 0.185778 0.64081 0.311041 0.10932
H_ H_ 0.445864 0.654843 0.321713 0.10932
H_ H_ 0.208941 0.572221 0.17816 0.10932
H_ H_ 0.45995 0.575281 0.19054 0.10932
H_ H_ 0.027498 0.584277 0.178033 0.10932
H_ H_ 0.294079 0.57312 0.182687 0.10932
H_ H_ 0.0780437 0.635935 0.309566 0.10932
H_ H_ 0.310265 0.646677 0.315458 0.10932
H_ H_ 0.0577575 0.648372 0.17729 0.10932
H_ H_ 0.324837 0.638871 0.182814 0.10932
H_ H_ 0.0427152 0.575759 0.310086 0.10932
H_ H_ 0.276769 0.584915 0.313254 0.10932
H_ H_ 0.137019 0.814846 0.350587 0.10932
H_ H_ 0.377703 0.688577 0.355643 0.10932
H_ H_ 0.124769 0.685671 0.355194 0.10932
H_ H_ 0.360757 0.817643 0.358902 0.10932
H_ H_ 0.129595 0.685806 0.43374 0.10932
H_ H_ 0.358466 0.81323 0.438165 0.10932
H_ H_ 0.138289 0.817323 0.42657 0.10932
H_ H_ 0.385441 0.686005 0.431199 0.10932
H_ H_ 0.175215 0.738046 0.132474 0.10932
H_ H_ 0.385978 0.818325 0.146808 0.10932
H_ H_ 0.0808419 0.761428 0.129304 0.10932
H_ H_ 0.376531 0.689326 0.136838 0.10932
H_ H_ 0.0851865 0.77235 0.0491594 0.10932
H_ H_ 0.389097 0.69088 0.0617745 0.10932
H_ H_ 0.177261 0.736326 0.0549272 0.10932
H_ H_ 0.389016 0.825441 0.0666841 0.10932
C_ C_ 0.0680201 0.847405 0.246953 -0.02249
C_ C_ 0.321377 0.855598 0.249439 -0.02249
C_ C_ 0.0154983 0.961957 0.251744 -0.02249
C_ C_ 0.264287 0.963106 0.252065 -0.02249
C_ C_ 0.0348277 0.898488 0.213505 -0.11473
C_ C_ 0.294488 0.911886 0.213579 -0.11473
C_ C_ 0.0651186 0.868969 0.283251 -0.11473
C_ C_ 0.307172 0.868846 0.287537 -0.11473
C_ C_ 0.0541773 0.862939 0.210588 -0.11473
C_ C_ 0.313391 0.87682 0.2121 -0.11473
C_ C_ 0.0314997 0.920961 0.250887 -0.02249
C_ C_ 0.281745 0.924309 0.249995 -0.02249
C_ C_ 0.0842159 0.805898 0.245502 0.6875
C_ C_ 0.336805 0.813873 0.245531 0.6875
C_ C_ 0.0467242 0.904625 0.286733 -0.11473
C_ C_ 0.286564 0.901454 0.286908 -0.11473
C_ C_ 0.18671 0.843306 0.245835 -0.02249
C_ C_ 0.434787 0.850247 0.254019 -0.02249
C_ C_ 0.233373 0.961872 0.253566 -0.02249
C_ C_ 0.486679 0.965563 0.251804 -0.02249
C_ C_ 0.205456 0.904761 0.28594 -0.11473
C_ C_ 0.452324 0.915319 0.287447 -0.11473
C_ C_ 0.202162 0.859248 0.211973 -0.11473
C_ C_ 0.449802 0.863291 0.217275 -0.11473
C_ C_ 0.189472 0.866915 0.282626 -0.11473
C_ C_ 0.43823 0.875868 0.290978 -0.11473
C_ C_ 0.21884 0.920598 0.250276 -0.02249
C_ C_ 0.467794 0.925901 0.250781 -0.02249
C_ C_ 0.167178 0.805631 0.242516 0.6875
C_ C_ 0.415121 0.812322 0.253045 0.6875
C_ C_ 0.216727 0.897844 0.212702 -0.11473
C_ C_ 0.466014 0.900263 0.215761 -0.11473
C_ C_ 0.184793 0.647111 0.244055 -0.02249
C_ C_ 0.434966 0.653663 0.253968 -0.02249
C_ C_ 0.23508 0.534786 0.247385 -0.02249
C_ C_ 0.486104 0.539388 0.260393 -0.02249
C_ C_ 0.214432 0.595477 0.282228 -0.11473
C_ C_ 0.465579 0.603883 0.29253 -0.11473
C_ C_ 0.192929 0.627767 0.205624 -0.11473
C_ C_ 0.440875 0.631259 0.216725 -0.11473
C_ C_ 0.195181 0.630645 0.281676 -0.11473
C_ C_ 0.449549 0.639124 0.290361 -0.11473
C_ C_ 0.217625 0.572191 0.245921 -0.02249
C_ C_ 0.470874 0.579346 0.257086 -0.02249
C_ C_ 0.165242 0.684417 0.242115 0.6875
C_ C_ 0.415269 0.692371 0.251352 0.6875
C_ C_ 0.206681 0.588168 0.2075 -0.11473
C_ C_ 0.45778 0.593969 0.217583 -0.11473
C_ C_ 0.0685577 0.649348 0.244178 -0.02249
C_ C_ 0.321805 0.645984 0.25025 -0.02249
C_ C_ 0.0140968 0.53687 0.244727 -0.02249
C_ C_ 0.266947 0.535453 0.245441 -0.02249
C_ C_ 0.0404382 0.592851 0.206203 -0.11473
C_ C_ 0.299755 0.588061 0.211092 -0.11473
C_ C_ 0.0677707 0.624329 0.280798 -0.11473
C_ C_ 0.307858 0.631303 0.286048 -0.11473
C_ C_ 0.0572825 0.631257 0.205583 -0.11473
C_ C_ 0.316673 0.624471 0.212631 -0.11473
C_ C_ 0.0325912 0.576868 0.246196 -0.02249
C_ C_ 0.28437 0.57526 0.245535 -0.02249
C_ C_ 0.0870988 0.689193 0.243949 0.6875
C_ C_ 0.338048 0.688126 0.252124 0.6875
C_ C_ 0.0469486 0.59186 0.282257 -0.11473
C_ C_ 0.289246 0.596794 0.284075 -0.11473
C_ C_ 0.135703 0.785372 0.367954 0.17695
C_ C_ 0.37289 0.714819 0.373842 0.17695
C_ C_ 0.131343 0.714038 0.369838 0.17695
C_ C_ 0.36541 0.787757 0.37456 0.17695
C_ C_ 0.133001 0.714192 0.414213 -0.11473
C_ C_ 0.365072 0.786663 0.418783 -0.11473
C_ C_ 0.135507 0.751899 0.435866 0.23465
C_ C_ 0.373105 0.748842 0.440365 0.23465
C_ C_ 0.135628 0.78755 0.41182 -0.11473
C_ C_ 0.37897 0.713725 0.417461 -0.11473
C_ C_ 0.15534 0.746448 0.116184 0.17695
C_ C_ 0.384071 0.791567 0.127427 0.17695
C_ C_ 0.103095 0.758366 0.112209 0.17695
C_ C_ 0.382243 0.71833 0.122459 0.17695
C_ C_ 0.105608 0.762897 0.0672474 -0.11473
C_ C_ 0.384025 0.720199 0.0786409 -0.11473
C_ C_ 0.131782 0.75509 0.04661 0.23465
C_ C_ 0.385841 0.758995 0.0587054 0.23465
C_ C_ 0.156603 0.746282 0.0717622 -0.11473
C_ C_ 0.3852 0.793941 0.0834764 -0.11473
C_ C_ 0.0298201 1.00115397 0.249271 0.05793
C_ C_ 0.279451 1.00133838 0.257479 0.05793
C_ C_ 0.219909 0.496468 0.255068 0.05793
C_ C_ 0.469904 0.501883 0.254705 0.05793
Br Br 0.0728769 0.00120184 0.235463 -0.17191
Br Br 0.320967 1.00339371 0.264494 -0.17191
Br Br 0.178046 0.496107 0.270328 -0.17191
Br Br 0.427557 0.504161 0.255845 -0.17191
N_ N_ 0.131969 0.749997 0.347417 -0.272
N_ N_ 0.367673 0.751696 0.352517 -0.272
N_ N_ 0.129532 0.753931 0.478684 -0.12501
N_ N_ 0.376808 0.749338 0.484074 -0.12501
N_ N_ 0.128347 0.751545 0.135564 -0.272
N_ N_ 0.382564 0.754201 0.146215 -0.272
N_ N_ 0.132064 0.750257 0.00239042 -0.12501
N_ N_ 0.388807 0.76515 0.0143849 -0.12501
O_ O_ 0.0934078 0.790927 0.210377 -0.60745
O_ O_ 0.346543 0.800265 0.210227 -0.60745
O_ O_ 0.0975268 0.794097 0.278511 -0.60745
O_ O_ 0.339916 0.79107 0.278161 -0.60745
O_ O_ 0.160509 0.787125 0.275958 -0.60745
O_ O_ 0.402523 0.798713 0.285408 -0.60745
O_ O_ 0.158464 0.793575 0.207096 -0.60745
O_ O_ 0.410815 0.792978 0.218179 -0.60745
O_ O_ 0.158247 0.703489 0.276705 -0.60745
O_ O_ 0.40668 0.709089 0.283929 -0.60745
O_ O_ 0.154039 0.697262 0.207368 -0.60745
O_ O_ 0.404649 0.703772 0.21566 -0.60745
O_ O_ 0.0930619 0.707793 0.209346 -0.60745
O_ O_ 0.344482 0.708965 0.218245 -0.60745
O_ O_ 0.0918727 0.708186 0.277359 -0.60745
O_ O_ 0.347325 0.70112 0.288325 -0.60745
Zn Zn 0.124932 0.751301 0.774976 0.9476
Zn Zn 0.377276 0.74776 0.784814 0.9476
Zn Zn 0.125618 0.750611 0.703694 0.9476
Zn Zn 0.374057 0.746168 0.715825 0.9476
H_ H_ 0.0385978 0.917222 0.659288 0.10932
H_ H_ 0.274878 0.903561 0.686922 0.10932
H_ H_ 0.0632777 0.858324 0.797788 0.10932
H_ H_ 0.335566 0.869356 0.813276 0.10932
H_ H_ 0.0658224 0.850584 0.663975 0.10932
H_ H_ 0.303777 0.83757 0.691069 0.10932
H_ H_ 0.0288628 0.915519 0.793394 0.10932
H_ H_ 0.30853 0.937869 0.81261 0.10932
H_ H_ 0.208283 0.920945 0.813259 0.10932
H_ H_ 0.464689 0.916685 0.815087 0.10932
H_ H_ 0.183554 0.860439 0.675322 0.10932
H_ H_ 0.422667 0.865354 0.682838 0.10932
H_ H_ 0.175963 0.855253 0.810039 0.10932
H_ H_ 0.434307 0.852513 0.816062 0.10932
H_ H_ 0.222429 0.916621 0.68504 0.10932
H_ H_ 0.452718 0.929013 0.683979 0.10932
H_ H_ 0.212456 0.577618 0.819527 0.10932
H_ H_ 0.455015 0.574932 0.815994 0.10932
H_ H_ 0.182697 0.641999 0.684331 0.10932
H_ H_ 0.444343 0.645158 0.680211 0.10932
H_ H_ 0.182373 0.645279 0.818667 0.10932
H_ H_ 0.432259 0.645652 0.811874 0.10932
H_ H_ 0.210684 0.578654 0.6873 0.10932
H_ H_ 0.471514 0.580798 0.685579 0.10932
H_ H_ 0.0377579 0.576106 0.677424 0.10932
H_ H_ 0.291826 0.573904 0.687385 0.10932
H_ H_ 0.0597462 0.649647 0.80974 0.10932
H_ H_ 0.305991 0.648418 0.821001 0.10932
H_ H_ 0.0707015 0.636459 0.675538 0.10932
H_ H_ 0.317417 0.642107 0.685536 0.10932
H_ H_ 0.031066 0.586459 0.811905 0.10932
H_ H_ 0.271327 0.591662 0.819306 0.10932
H_ H_ 0.11273 0.820664 0.838612 0.10932
H_ H_ 0.391728 0.809941 0.863953 0.10932
H_ H_ 0.142524 0.699599 0.860039 0.10932
H_ H_ 0.367933 0.685482 0.857257 0.10932
H_ H_ 0.134341 0.704235 0.934471 0.10932
H_ H_ 0.367793 0.679913 0.934006 0.10932
H_ H_ 0.118951 0.833259 0.916229 0.10932
H_ H_ 0.39358 0.806872 0.942765 0.10932
H_ H_ 0.125957 0.679134 0.640219 0.10932
H_ H_ 0.32084 0.73279 0.643582 0.10932
H_ H_ 0.141532 0.804312 0.627093 0.10932
H_ H_ 0.411366 0.773302 0.631383 0.10932
H_ H_ 0.149584 0.794171 0.552413 0.10932
H_ H_ 0.402128 0.775305 0.552278 0.10932
H_ H_ 0.134071 0.667671 0.562591 0.10932
H_ H_ 0.316074 0.721604 0.565941 0.10932
C_ C_ 0.0673024 0.848234 0.730262 -0.02249
C_ C_ 0.318023 0.846719 0.757749 -0.02249
C_ C_ 0.0145158 0.962555 0.719763 -0.02249
C_ C_ 0.26813 0.960279 0.749548 -0.02249
C_ C_ 0.0447894 0.904581 0.689764 -0.11473
C_ C_ 0.285487 0.893517 0.71833 -0.11473
C_ C_ 0.0541585 0.865099 0.766364 -0.11473
C_ C_ 0.320252 0.875501 0.790954 -0.11473
C_ C_ 0.0602354 0.866551 0.691183 -0.11473
C_ C_ 0.302546 0.856831 0.719729 -0.11473
C_ C_ 0.0323836 0.922604 0.725629 -0.02249
C_ C_ 0.284615 0.920446 0.754089 -0.02249
C_ C_ 0.0862609 0.809341 0.732076 0.6875
C_ C_ 0.336323 0.807062 0.759509 0.6875
C_ C_ 0.0387114 0.902561 0.765965 -0.11473
C_ C_ 0.304529 0.913768 0.788506 -0.11473
C_ C_ 0.177865 0.852776 0.743341 -0.02249
C_ C_ 0.431878 0.847382 0.747495 -0.02249
C_ C_ 0.236296 0.960244 0.755235 -0.02249
C_ C_ 0.478776 0.963385 0.753153 -0.02249
C_ C_ 0.203441 0.906377 0.785751 -0.11473
C_ C_ 0.456396 0.903483 0.78651 -0.11473
C_ C_ 0.191586 0.868975 0.707862 -0.11473
C_ C_ 0.435501 0.871563 0.710138 -0.11473
C_ C_ 0.183943 0.870806 0.783122 -0.11473
C_ C_ 0.441827 0.865933 0.785594 -0.11473
C_ C_ 0.218678 0.921807 0.751001 -0.02249
C_ C_ 0.460148 0.925511 0.750918 -0.02249
C_ C_ 0.15878 0.814766 0.739922 0.6875
C_ C_ 0.414002 0.808721 0.747558 0.6875
C_ C_ 0.210939 0.904565 0.711092 -0.11473
C_ C_ 0.450376 0.910142 0.712274 -0.11473
C_ C_ 0.182121 0.651917 0.750414 -0.02249
C_ C_ 0.436755 0.652152 0.74669 -0.02249
C_ C_ 0.234693 0.537439 0.754923 -0.02249
C_ C_ 0.484513 0.534945 0.752625 -0.02249
C_ C_ 0.208514 0.59563 0.790616 -0.11473
C_ C_ 0.45622 0.594187 0.78753 -0.11473
C_ C_ 0.193462 0.631488 0.713901 -0.11473
C_ C_ 0.447892 0.632717 0.710932 -0.11473
C_ C_ 0.188484 0.631127 0.789324 -0.11473
C_ C_ 0.445298 0.6355 0.785704 -0.11473
C_ C_ 0.217222 0.576707 0.754235 -0.02249
C_ C_ 0.468045 0.575816 0.751367 -0.02249
C_ C_ 0.164658 0.690607 0.748527 0.6875
C_ C_ 0.416319 0.687759 0.746035 0.6875
C_ C_ 0.208174 0.594072 0.716406 -0.11473
C_ C_ 0.464239 0.595782 0.713264 -0.11473
C_ C_ 0.0692578 0.648636 0.742327 -0.02249
C_ C_ 0.316015 0.650764 0.7527 -0.02249
C_ C_ 0.0166179 0.535067 0.744477 -0.02249
C_ C_ 0.265959 0.535821 0.753355 -0.02249
C_ C_ 0.0426009 0.591175 0.706537 -0.11473
C_ C_ 0.292722 0.591956 0.716328 -0.11473
C_ C_ 0.056993 0.633749 0.780508 -0.11473
C_ C_ 0.302235 0.635338 0.789664 -0.11473
C_ C_ 0.06165 0.627855 0.704864 -0.11473
C_ C_ 0.308803 0.630449 0.715306 -0.11473
C_ C_ 0.0338062 0.575031 0.745699 -0.02249
C_ C_ 0.282501 0.575864 0.754151 -0.02249
C_ C_ 0.0855265 0.688782 0.740961 0.6875
C_ C_ 0.333587 0.690119 0.755812 0.6875
C_ C_ 0.0408004 0.595939 0.782759 -0.11473
C_ C_ 0.282937 0.600401 0.789619 -0.11473
C_ C_ 0.117829 0.795608 0.859689 0.17695
C_ C_ 0.385517 0.78173 0.880219 0.17695
C_ C_ 0.132671 0.727383 0.872329 0.17695
C_ C_ 0.372999 0.711817 0.875578 0.17695
C_ C_ 0.129234 0.732246 0.916412 -0.11473
C_ C_ 0.372762 0.708179 0.919495 -0.11473
C_ C_ 0.123218 0.771576 0.932992 0.23465
C_ C_ 0.382297 0.742256 0.943114 0.23465
C_ C_ 0.11523 0.803711 0.903534 -0.11473
C_ C_ 0.385991 0.779796 0.924593 -0.11473
C_ C_ 0.127846 0.704679 0.61879 0.17695
C_ C_ 0.339394 0.742461 0.624547 0.17695
C_ C_ 0.13438 0.776715 0.610808 0.17695
C_ C_ 0.389547 0.765594 0.616286 0.17695
C_ C_ 0.136432 0.772247 0.568819 -0.11473
C_ C_ 0.385943 0.765447 0.572517 -0.11473
C_ C_ 0.133811 0.733657 0.54939 0.23465
C_ C_ 0.360523 0.744925 0.553398 0.23465
C_ C_ 0.129518 0.69734 0.575323 -0.11473
C_ C_ 0.335796 0.736826 0.579427 -0.11473
C_ C_ 0.0295147 0.00274758 0.718054 0.05793
C_ C_ 0.283952 -0.0010259999999999714 0.745249 0.05793
C_ C_ 0.219012 0.498414 0.757422 0.05793
C_ C_ 0.468574 0.497914 0.759477 0.05793
Br Br 0.0712127 0.0048352 0.718459 -0.17191
Br Br 0.327592 -0.0018740000000000423 0.742129 -0.17191
Br Br 0.177354 0.497916 0.769352 -0.17191
Br Br 0.425835 0.501207 0.762861 -0.17191
N_ N_ 0.124811 0.757936 0.84428 -0.272
N_ N_ 0.380233 0.748216 0.857057 -0.272
N_ N_ 0.123464 0.779205 0.977945 -0.12501
N_ N_ 0.38167 0.737213 0.987467 -0.12501
N_ N_ 0.131642 0.743617 0.635252 -0.272
N_ N_ 0.367386 0.751437 0.642132 -0.272
N_ N_ 0.141079 0.730166 0.505396 -0.12501
N_ N_ 0.356365 0.740741 0.508773 -0.12501
O_ O_ 0.0959438 0.793544 0.698334 -0.60745
O_ O_ 0.341755 0.789104 0.725403 -0.60745
O_ O_ 0.092993 0.794045 0.766845 -0.60745
O_ O_ 0.347332 0.792241 0.792763 -0.60745
O_ O_ 0.152232 0.797034 0.77354 -0.60745
O_ O_ 0.405119 0.794161 0.782952 -0.60745
O_ O_ 0.152195 0.799641 0.70433 -0.60745
O_ O_ 0.406339 0.792308 0.712872 -0.60745
O_ O_ 0.156201 0.706591 0.782516 -0.60745
O_ O_ 0.406717 0.702351 0.779943 -0.60745
O_ O_ 0.157155 0.706988 0.714737 -0.60745
O_ O_ 0.407971 0.704973 0.710973 -0.60745
O_ O_ 0.0953785 0.700336 0.705715 -0.60745
O_ O_ 0.34055 0.705555 0.721329 -0.60745
O_ O_ 0.0937602 0.705885 0.773968 -0.60745
O_ O_ 0.347223 0.702887 0.788665 -0.60745
Zn Zn 0.628659 0.251821 0.289753 0.9476
Zn Zn 0.873214 0.252308 0.277101 0.9476
Zn Zn 0.628913 0.254062 0.219952 0.9476
Zn Zn 0.870349 0.254192 0.209296 0.9476
H_ H_ 0.5429 0.424139 0.191648 0.10932
H_ H_ 0.772532 0.415394 0.176641 0.10932
H_ H_ 0.552963 0.341423 0.32391 0.10932
H_ H_ 0.82639 0.370547 0.30903 0.10932
H_ H_ 0.573509 0.358983 0.193581 0.10932
H_ H_ 0.799165 0.346212 0.17872 0.10932
H_ H_ 0.527778 0.406554 0.324796 0.10932
H_ H_ 0.798 0.43275 0.306492 0.10932
H_ H_ 0.733541 0.408796 0.31327 0.10932
H_ H_ 0.952679 0.421048 0.309061 0.10932
H_ H_ 0.680467 0.358463 0.184602 0.10932
H_ H_ 0.941685 0.346382 0.176878 0.10932
H_ H_ 0.699249 0.349435 0.318046 0.10932
H_ H_ 0.92699 0.356176 0.310674 0.10932
H_ H_ 0.704874 0.423675 0.182995 0.10932
H_ H_ 0.966273 0.412702 0.178664 0.10932
H_ H_ 0.70007 0.0668418 0.29761 0.10932
H_ H_ 0.979736 0.102304 0.304921 0.10932
H_ H_ 0.707946 0.173921 0.189587 0.10932
H_ H_ 0.904258 0.118885 0.192862 0.10932
H_ H_ 0.671147 0.130338 0.302363 0.10932
H_ H_ 0.950329 0.165384 0.301758 0.10932
H_ H_ 0.735047 0.104892 0.178586 0.10932
H_ H_ 0.937233 0.0534114 0.19675 0.10932
H_ H_ 0.552608 0.0699026 0.197394 0.10932
H_ H_ 0.801771 0.0735934 0.172897 0.10932
H_ H_ 0.555262 0.163092 0.319674 0.10932
H_ H_ 0.794709 0.1573 0.302186 0.10932
H_ H_ 0.578122 0.137895 0.193528 0.10932
H_ H_ 0.82833 0.140756 0.177264 0.10932
H_ H_ 0.525071 0.101297 0.319465 0.10932
H_ H_ 0.779128 0.0877369 0.304274 0.10932
H_ H_ 0.625631 0.184946 0.352739 0.10932
H_ H_ 0.865783 0.182373 0.349889 0.10932
H_ H_ 0.635125 0.312693 0.374308 0.10932
H_ H_ 0.879685 0.310412 0.350382 0.10932
H_ H_ 0.636355 0.304827 0.453298 0.10932
H_ H_ 0.881435 0.310553 0.428022 0.10932
H_ H_ 0.624938 0.175597 0.433131 0.10932
H_ H_ 0.874862 0.177424 0.424737 0.10932
H_ H_ 0.629293 0.195817 0.141617 0.10932
H_ H_ 0.869555 0.314293 0.141454 0.10932
H_ H_ 0.615363 0.324399 0.154095 0.10932
H_ H_ 0.874217 0.187323 0.131901 0.10932
H_ H_ 0.61901 0.334607 0.0753191 0.10932
H_ H_ 0.876037 0.187453 0.0565374 0.10932
H_ H_ 0.635496 0.202456 0.0642038 0.10932
H_ H_ 0.878938 0.321859 0.0637429 0.10932
C_ C_ 0.567786 0.345687 0.259374 -0.02249
C_ C_ 0.815414 0.350398 0.244384 -0.02249
C_ C_ 0.516845 0.460709 0.255238 -0.02249
C_ C_ 0.764948 0.468632 0.245511 -0.02249
C_ C_ 0.545195 0.403448 0.219565 -0.11473
C_ C_ 0.782556 0.403415 0.206184 -0.11473
C_ C_ 0.549464 0.357071 0.293679 -0.11473
C_ C_ 0.812516 0.375499 0.281291 -0.11473
C_ C_ 0.56244 0.368516 0.221458 -0.11473
C_ C_ 0.798759 0.364754 0.206916 -0.11473
C_ C_ 0.532653 0.41992 0.255438 -0.02249
C_ C_ 0.780131 0.426955 0.243122 -0.02249
C_ C_ 0.587968 0.308454 0.25908 0.6875
C_ C_ 0.8347 0.314233 0.243815 0.6875
C_ C_ 0.535723 0.395708 0.293513 -0.11473
C_ C_ 0.794621 0.411886 0.280461 -0.11473
C_ C_ 0.687374 0.350763 0.252879 -0.02249
C_ C_ 0.931169 0.346154 0.244429 -0.02249
C_ C_ 0.733646 0.468415 0.251095 -0.02249
C_ C_ 0.980522 0.461716 0.245674 -0.02249
C_ C_ 0.717346 0.403508 0.28764 -0.11473
C_ C_ 0.94822 0.406641 0.280621 -0.11473
C_ C_ 0.688102 0.372699 0.214682 -0.11473
C_ C_ 0.945572 0.360388 0.208522 -0.11473
C_ C_ 0.699967 0.366497 0.288735 -0.11473
C_ C_ 0.937318 0.366401 0.282553 -0.11473
C_ C_ 0.716747 0.428588 0.250909 -0.02249
C_ C_ 0.961178 0.423755 0.243591 -0.02249
C_ C_ 0.668407 0.312515 0.25245 0.6875
C_ C_ 0.910843 0.310262 0.245478 0.6875
C_ C_ 0.702816 0.4111 0.214195 -0.11473
C_ C_ 0.959646 0.398947 0.208063 -0.11473
C_ C_ 0.689767 0.158267 0.247297 -0.02249
C_ C_ 0.928794 0.150885 0.240801 -0.02249
C_ C_ 0.73626 0.0414982 0.236429 -0.02249
C_ C_ 0.980635 0.0373856 0.24996 -0.02249
C_ C_ 0.701557 0.0907014 0.272256 -0.11473
C_ C_ 0.964381 0.105033 0.280789 -0.11473
C_ C_ 0.706022 0.150013 0.210048 -0.11473
C_ C_ 0.923409 0.116837 0.214042 -0.11473
C_ C_ 0.687755 0.128688 0.278428 -0.11473
C_ C_ 0.946792 0.141623 0.277275 -0.11473
C_ C_ 0.720529 0.0835616 0.239628 -0.02249
C_ C_ 0.96282 0.0764012 0.249179 -0.02249
C_ C_ 0.668317 0.19315 0.249457 0.6875
C_ C_ 0.911142 0.190539 0.239476 0.6875
C_ C_ 0.723098 0.114194 0.207977 -0.11473
C_ C_ 0.941674 0.0801472 0.216416 -0.11473
C_ C_ 0.567721 0.158298 0.253862 -0.02249
C_ C_ 0.813888 0.15485 0.238717 -0.02249
C_ C_ 0.518951 0.0414356 0.259906 -0.02249
C_ C_ 0.768341 0.0382228 0.237386 -0.02249
C_ C_ 0.5519 0.0918611 0.222234 -0.11473
C_ C_ 0.799872 0.0921555 0.201058 -0.11473
C_ C_ 0.552847 0.145363 0.290757 -0.11473
C_ C_ 0.799036 0.140332 0.275222 -0.11473
C_ C_ 0.567614 0.129744 0.220521 -0.11473
C_ C_ 0.812605 0.132088 0.200356 -0.11473
C_ C_ 0.536752 0.0809406 0.257423 -0.02249
C_ C_ 0.788035 0.0761237 0.238107 -0.02249
C_ C_ 0.588289 0.193259 0.254847 0.6875
C_ C_ 0.829638 0.196767 0.240234 0.6875
C_ C_ 0.537929 0.107284 0.292027 -0.11473
C_ C_ 0.789925 0.0984126 0.276854 -0.11473
C_ C_ 0.632008 0.210223 0.377237 0.17695
C_ C_ 0.868294 0.211811 0.366914 0.17695
C_ C_ 0.634455 0.282681 0.387384 0.17695
C_ C_ 0.882396 0.281869 0.366844 0.17695
C_ C_ 0.635477 0.278478 0.431815 -0.11473
C_ C_ 0.885049 0.282024 0.411142 -0.11473
C_ C_ 0.635588 0.237737 0.449899 0.23465
C_ C_ 0.87986 0.242694 0.433094 0.23465
C_ C_ 0.633036 0.203259 0.422185 -0.11473
C_ C_ 0.87393 0.207843 0.410522 -0.11473
C_ C_ 0.625773 0.225961 0.124475 0.17695
C_ C_ 0.875193 0.288127 0.122055 0.17695
C_ C_ 0.617474 0.298426 0.132557 0.17695
C_ C_ 0.872671 0.215079 0.116346 0.17695
C_ C_ 0.617756 0.30365 0.0885735 -0.11473
C_ C_ 0.876694 0.216586 0.0732302 -0.11473
C_ C_ 0.623723 0.268874 0.0619744 0.23465
C_ C_ 0.879054 0.255964 0.0533769 0.23465
C_ C_ 0.62975 0.230044 0.0809634 -0.11473
C_ C_ 0.876987 0.291682 0.0783451 -0.11473
C_ C_ 0.533409 0.498298 0.259186 0.05793
C_ C_ 0.780988 0.505022 0.238527 0.05793
C_ C_ 0.718074 1.00550881 0.235139 0.05793
C_ C_ 0.967593 0.998086 0.255928 0.05793
Br Br 0.576943 0.498735 0.264379 -0.17191
Br Br 0.823997 0.504232 0.238108 -0.17191
Br Br 0.674788 0.00863207 0.220089 -0.17191
Br Br 0.924627 -0.0045359999999999845 0.267761 -0.17191
N_ N_ 0.634664 0.248501 0.361967 -0.272
N_ N_ 0.873492 0.246965 0.345554 -0.272
N_ N_ 0.635441 0.230921 0.494016 -0.12501
N_ N_ 0.879528 0.238996 0.478442 -0.12501
N_ N_ 0.623898 0.26022 0.149423 -0.272
N_ N_ 0.870839 0.250105 0.139469 -0.272
N_ N_ 0.623233 0.273669 0.0164844 -0.12501
N_ N_ 0.880459 0.261303 0.00950713 -0.12501
O_ O_ 0.59834 0.295156 0.22554 -0.60745
O_ O_ 0.843011 0.300834 0.208439 -0.60745
O_ O_ 0.594369 0.292304 0.293819 -0.60745
O_ O_ 0.841153 0.293804 0.27617 -0.60745
O_ O_ 0.655809 0.299186 0.286512 -0.60745
O_ O_ 0.904151 0.292961 0.279582 -0.60745
O_ O_ 0.661478 0.296114 0.217303 -0.60745
O_ O_ 0.903583 0.29545 0.209838 -0.60745
O_ O_ 0.661146 0.209834 0.285469 -0.60745
O_ O_ 0.904161 0.205242 0.273721 -0.60745
O_ O_ 0.659969 0.210499 0.215872 -0.60745
O_ O_ 0.899454 0.204885 0.206473 -0.60745
O_ O_ 0.595057 0.212396 0.221249 -0.60745
O_ O_ 0.838712 0.211421 0.206472 -0.60745
O_ O_ 0.598634 0.207281 0.288967 -0.60745
O_ O_ 0.839889 0.209524 0.274335 -0.60745
Zn Zn 0.63011 0.246628 0.788454 0.9476
Zn Zn 0.873185 0.248725 0.777586 0.9476
Zn Zn 0.627418 0.249071 0.72049 0.9476
Zn Zn 0.870167 0.250494 0.708848 0.9476
H_ H_ 0.544724 0.427323 0.697324 0.10932
H_ H_ 0.769003 0.410537 0.683346 0.10932
H_ H_ 0.548482 0.329971 0.817749 0.10932
H_ H_ 0.835426 0.372681 0.803728 0.10932
H_ H_ 0.578851 0.366525 0.695818 0.10932
H_ H_ 0.791951 0.339611 0.687524 0.10932
H_ H_ 0.522146 0.399366 0.825577 0.10932
H_ H_ 0.801775 0.4331 0.806675 0.10932
H_ H_ 0.731338 0.402788 0.815764 0.10932
H_ H_ 0.970889 0.408221 0.817405 0.10932
H_ H_ 0.670997 0.36648 0.684749 0.10932
H_ H_ 0.932004 0.354574 0.682077 0.10932
H_ H_ 0.695316 0.349312 0.818183 0.10932
H_ H_ 0.941085 0.345582 0.812372 0.10932
H_ H_ 0.694531 0.433659 0.691465 0.10932
H_ H_ 0.952151 0.427929 0.686671 0.10932
H_ H_ 0.727365 0.0834775 0.81953 0.10932
H_ H_ 0.971243 0.09091 0.798187 0.10932
H_ H_ 0.673262 0.136008 0.690828 0.10932
H_ H_ 0.926615 0.143751 0.666011 0.10932
H_ H_ 0.69799 0.14893 0.821651 0.10932
H_ H_ 0.937977 0.154 0.801795 0.10932
H_ H_ 0.704125 0.0737858 0.689897 0.10932
H_ H_ 0.954023 0.0787864 0.666446 0.10932
H_ H_ 0.53112 0.0804534 0.680968 0.10932
H_ H_ 0.786565 0.0767839 0.680234 0.10932
H_ H_ 0.56626 0.144264 0.813851 0.10932
H_ H_ 0.806936 0.15546 0.811979 0.10932
H_ H_ 0.569093 0.13902 0.681002 0.10932
H_ H_ 0.824152 0.133022 0.680694 0.10932
H_ H_ 0.528779 0.0837195 0.814511 0.10932
H_ H_ 0.786686 0.0831352 0.817425 0.10932
H_ H_ 0.635589 0.308535 0.86463 0.10932
H_ H_ 0.918735 0.225266 0.854129 0.10932
H_ H_ 0.626554 0.17928 0.863628 0.10932
H_ H_ 0.831105 0.269777 0.855759 0.10932
H_ H_ 0.60833 0.182986 0.938647 0.10932
H_ H_ 0.82906 0.261827 0.935528 0.10932
H_ H_ 0.636627 0.308379 0.941219 0.10932
H_ H_ 0.921534 0.222271 0.929566 0.10932
H_ H_ 0.632791 0.185602 0.645227 0.10932
H_ H_ 0.863435 0.318599 0.642029 0.10932
H_ H_ 0.61583 0.31424 0.647515 0.10932
H_ H_ 0.870865 0.189311 0.624137 0.10932
H_ H_ 0.631035 0.317366 0.574073 0.10932
H_ H_ 0.872182 0.196607 0.545443 0.10932
H_ H_ 0.652567 0.190652 0.571384 0.10932
H_ H_ 0.870939 0.329368 0.564496 0.10932
C_ C_ 0.567657 0.345215 0.757498 -0.02249
C_ C_ 0.814866 0.350117 0.746164 -0.02249
C_ C_ 0.51619 0.45833 0.763384 -0.02249
C_ C_ 0.764166 0.464883 0.743575 -0.02249
C_ C_ 0.54581 0.406373 0.723344 -0.11473
C_ C_ 0.78105 0.399533 0.711708 -0.11473
C_ C_ 0.552496 0.355025 0.79441 -0.11473
C_ C_ 0.819605 0.378367 0.778612 -0.11473
C_ C_ 0.566156 0.372618 0.724432 -0.11473
C_ C_ 0.792217 0.359279 0.713958 -0.11473
C_ C_ 0.531919 0.41825 0.760646 -0.02249
C_ C_ 0.781692 0.426703 0.746085 -0.02249
C_ C_ 0.585942 0.307114 0.753418 0.6875
C_ C_ 0.833945 0.312463 0.743668 0.6875
C_ C_ 0.533719 0.391412 0.795625 -0.11473
C_ C_ 0.799353 0.413181 0.781374 -0.11473
C_ C_ 0.6817 0.350886 0.753809 -0.02249
C_ C_ 0.934922 0.342263 0.747251 -0.02249
C_ C_ 0.733778 0.463403 0.751947 -0.02249
C_ C_ 0.983827 0.460792 0.751982 -0.02249
C_ C_ 0.718908 0.395627 0.787214 -0.11473
C_ C_ 0.961269 0.398016 0.786852 -0.11473
C_ C_ 0.681264 0.376129 0.716909 -0.11473
C_ C_ 0.939337 0.366971 0.711313 -0.11473
C_ C_ 0.698732 0.363651 0.788287 -0.11473
C_ C_ 0.945761 0.359861 0.784333 -0.11473
C_ C_ 0.717699 0.423059 0.752423 -0.02249
C_ C_ 0.967019 0.420487 0.751252 -0.02249
C_ C_ 0.662957 0.31193 0.754463 0.6875
C_ C_ 0.913391 0.306289 0.746434 0.6875
C_ C_ 0.697804 0.413999 0.7173 -0.11473
C_ C_ 0.95408 0.405631 0.712789 -0.11473
C_ C_ 0.688189 0.151923 0.755893 -0.02249
C_ C_ 0.928405 0.152418 0.734338 -0.02249
C_ C_ 0.732934 0.0323787 0.754871 -0.02249
C_ C_ 0.980752 0.0375388 0.734213 -0.02249
C_ C_ 0.715962 0.096003 0.791678 -0.11473
C_ C_ 0.958528 0.101382 0.770288 -0.11473
C_ C_ 0.688048 0.127673 0.719422 -0.11473
C_ C_ 0.934173 0.13365 0.695087 -0.11473
C_ C_ 0.70146 0.134033 0.792035 -0.11473
C_ C_ 0.942762 0.138918 0.771282 -0.11473
C_ C_ 0.716071 0.0720663 0.755004 -0.02249
C_ C_ 0.961439 0.0767205 0.73247 -0.02249
C_ C_ 0.668537 0.190908 0.755701 0.6875
C_ C_ 0.907705 0.188725 0.736741 0.6875
C_ C_ 0.703415 0.0906792 0.718309 -0.11473
C_ C_ 0.9491 0.0944954 0.695378 -0.11473
C_ C_ 0.569202 0.148861 0.746857 -0.02249
C_ C_ 0.813522 0.1522 0.744796 -0.02249
C_ C_ 0.513903 0.0372465 0.747811 -0.02249
C_ C_ 0.765062 0.0348568 0.747368 -0.02249
C_ C_ 0.542481 0.0925739 0.710729 -0.11473
C_ C_ 0.79194 0.090805 0.709153 -0.11473
C_ C_ 0.558428 0.133534 0.784155 -0.11473
C_ C_ 0.802418 0.137012 0.783669 -0.11473
C_ C_ 0.562275 0.12744 0.710716 -0.11473
C_ C_ 0.808845 0.12891 0.707725 -0.11473
C_ C_ 0.532957 0.0756807 0.748813 -0.02249
C_ C_ 0.780791 0.0764644 0.747978 -0.02249
C_ C_ 0.590297 0.185756 0.746741 0.6875
C_ C_ 0.834106 0.187251 0.744612 0.6875
C_ C_ 0.541086 0.0953041 0.786074 -0.11473
C_ C_ 0.788313 0.0978868 0.785868 -0.11473
C_ C_ 0.63133 0.279601 0.880052 0.17695
C_ C_ 0.899228 0.232095 0.871437 0.17695
C_ C_ 0.62601 0.208647 0.880169 0.17695
C_ C_ 0.849095 0.256633 0.872733 0.17695
C_ C_ 0.619289 0.208155 0.923502 -0.11473
C_ C_ 0.848989 0.254058 0.917564 -0.11473
C_ C_ 0.622078 0.24408 0.946571 0.23465
C_ C_ 0.875267 0.240181 0.939616 0.23465
C_ C_ 0.628654 0.280493 0.923448 -0.11473
C_ C_ 0.901335 0.234053 0.915435 -0.11473
C_ C_ 0.636704 0.213963 0.630109 0.17695
C_ C_ 0.868652 0.293234 0.62015 0.17695
C_ C_ 0.62727 0.287437 0.630541 0.17695
C_ C_ 0.872152 0.220384 0.611116 0.17695
C_ C_ 0.628203 0.289313 0.588256 -0.11473
C_ C_ 0.873573 0.224843 0.566546 -0.11473
C_ C_ 0.63374 0.252723 0.565446 0.23465
C_ C_ 0.875978 0.264332 0.548128 0.23465
C_ C_ 0.641684 0.216478 0.587072 -0.11473
C_ C_ 0.874929 0.298984 0.576796 -0.11473
C_ C_ 0.531346 0.496782 0.762627 0.05793
C_ C_ 0.780144 0.503382 0.745687 0.05793
C_ C_ 0.717561 -0.00563899999999995 0.748575 0.05793
C_ C_ 0.965297 -0.0006730000000000347 0.729111 0.05793
Br Br 0.574283 0.495975 0.772541 -0.17191
Br Br 0.820688 0.505499 0.727471 -0.17191
Br Br 0.675186 -0.008535999999999988 0.759769 -0.17191
Br Br 0.921617 -0.003475000000000006 0.734021 -0.17191
N_ N_ 0.627476 0.243458 0.85804 -0.272
N_ N_ 0.873511 0.242833 0.850032 -0.272
N_ N_ 0.61913 0.243067 0.992694 -0.12501
N_ N_ 0.875983 0.232183 0.984086 -0.12501
N_ N_ 0.629098 0.249694 0.649985 -0.272
N_ N_ 0.8684 0.254323 0.63735 -0.272
N_ N_ 0.640252 0.257654 0.520776 -0.12501
N_ N_ 0.87858 0.269747 0.503456 -0.12501
O_ O_ 0.595534 0.296185 0.717879 -0.60745
O_ O_ 0.840117 0.296037 0.710529 -0.60745
O_ O_ 0.594145 0.287548 0.787112 -0.60745
O_ O_ 0.84304 0.294299 0.776795 -0.60745
O_ O_ 0.657715 0.296347 0.791558 -0.60745
O_ O_ 0.907647 0.286518 0.778688 -0.60745
O_ O_ 0.658295 0.291126 0.720743 -0.60745
O_ O_ 0.901127 0.295822 0.710842 -0.60745
O_ O_ 0.664184 0.209605 0.789773 -0.60745
O_ O_ 0.903253 0.204905 0.773056 -0.60745
O_ O_ 0.657714 0.20511 0.721105 -0.60745
O_ O_ 0.896431 0.203027 0.703154 -0.60745
O_ O_ 0.596166 0.203514 0.713439 -0.60745
O_ O_ 0.838116 0.206007 0.709349 -0.60745
O_ O_ 0.602429 0.197403 0.781278 -0.60745
O_ O_ 0.843656 0.203574 0.778182 -0.60745
Zn Zn 0.622889 0.756653 0.288502 0.9476
Zn Zn 0.87365 0.751161 0.284154 0.9476
Zn Zn 0.620849 0.752527 0.2178 0.9476
Zn Zn 0.87422 0.751598 0.214771 0.9476
H_ H_ 0.559245 0.940758 0.203901 0.10932
H_ H_ 0.798625 0.934636 0.181539 0.10932
H_ H_ 0.547507 0.84171 0.320897 0.10932
H_ H_ 0.800014 0.843493 0.30771 0.10932
H_ H_ 0.579698 0.869763 0.194175 0.10932
H_ H_ 0.824448 0.865684 0.180372 0.10932
H_ H_ 0.517344 0.907346 0.317972 0.10932
H_ H_ 0.767962 0.903901 0.304217 0.10932
H_ H_ 0.707379 0.932075 0.303601 0.10932
H_ H_ 0.972304 0.909741 0.321741 0.10932
H_ H_ 0.690251 0.850214 0.173137 0.10932
H_ H_ 0.928917 0.864728 0.184748 0.10932
H_ H_ 0.672196 0.872401 0.305211 0.10932
H_ H_ 0.938342 0.848328 0.318738 0.10932
H_ H_ 0.72285 0.910643 0.173457 0.10932
H_ H_ 0.963069 0.922524 0.188683 0.10932
H_ H_ 0.709603 0.586606 0.311436 0.10932
H_ H_ 0.975816 0.5937 0.319431 0.10932
H_ H_ 0.678363 0.647866 0.179265 0.10932
H_ H_ 0.934523 0.646913 0.18584 0.10932
H_ H_ 0.680022 0.644032 0.315903 0.10932
H_ H_ 0.940023 0.653973 0.319229 0.10932
H_ H_ 0.710461 0.590585 0.179425 0.10932
H_ H_ 0.957445 0.580891 0.18356 0.10932
H_ H_ 0.525952 0.591394 0.192172 0.10932
H_ H_ 0.769302 0.602302 0.181072 0.10932
H_ H_ 0.576404 0.641737 0.324459 0.10932
H_ H_ 0.817065 0.643599 0.314289 0.10932
H_ H_ 0.549566 0.664232 0.195524 0.10932
H_ H_ 0.795173 0.665221 0.18294 0.10932
H_ H_ 0.546527 0.572912 0.322212 0.10932
H_ H_ 0.787397 0.582149 0.309337 0.10932
H_ H_ 0.631425 0.691161 0.357258 0.10932
H_ H_ 0.886831 0.816114 0.357799 0.10932
H_ H_ 0.62231 0.820766 0.364461 0.10932
H_ H_ 0.868906 0.6847 0.356685 0.10932
H_ H_ 0.624535 0.815035 0.446584 0.10932
H_ H_ 0.875797 0.683674 0.435334 0.10932
H_ H_ 0.629747 0.683056 0.434598 0.10932
H_ H_ 0.891625 0.814655 0.433944 0.10932
H_ H_ 0.613432 0.687367 0.143341 0.10932
H_ H_ 0.873141 0.686687 0.13941 0.10932
H_ H_ 0.618593 0.817657 0.145045 0.10932
H_ H_ 0.875822 0.818029 0.136119 0.10932
H_ H_ 0.625475 0.819952 0.068708 0.10932
H_ H_ 0.886302 0.819041 0.0630578 0.10932
H_ H_ 0.615843 0.686629 0.0630201 0.10932
H_ H_ 0.875615 0.68311 0.0607318 0.10932
C_ C_ 0.563015 0.848931 0.255222 -0.02249
C_ C_ 0.81293 0.847821 0.240142 -0.02249
C_ C_ 0.518985 0.965979 0.256518 -0.02249
C_ C_ 0.764035 0.962899 0.243129 -0.02249
C_ C_ 0.554164 0.916727 0.224868 -0.11473
C_ C_ 0.79608 0.912331 0.206693 -0.11473
C_ C_ 0.544758 0.859907 0.289666 -0.11473
C_ C_ 0.79761 0.859321 0.277473 -0.11473
C_ C_ 0.565386 0.876209 0.221072 -0.11473
C_ C_ 0.811986 0.87398 0.206461 -0.11473
C_ C_ 0.535062 0.925629 0.256772 -0.02249
C_ C_ 0.779933 0.923426 0.242032 -0.02249
C_ C_ 0.583416 0.812531 0.257173 0.6875
C_ C_ 0.834487 0.811403 0.241578 0.6875
C_ C_ 0.530732 0.898864 0.291349 -0.11473
C_ C_ 0.781798 0.897329 0.277521 -0.11473
C_ C_ 0.681169 0.852903 0.239468 -0.02249
C_ C_ 0.93478 0.847521 0.250969 -0.02249
C_ C_ 0.731797 0.966529 0.236434 -0.02249
C_ C_ 0.983447 0.961121 0.256962 -0.02249
C_ C_ 0.70123 0.916739 0.27389 -0.11473
C_ C_ 0.963625 0.899468 0.292373 -0.11473
C_ C_ 0.695104 0.865614 0.202665 -0.11473
C_ C_ 0.941772 0.867764 0.213016 -0.11473
C_ C_ 0.682645 0.881141 0.274682 -0.11473
C_ C_ 0.947352 0.861675 0.290328 -0.11473
C_ C_ 0.713178 0.927504 0.235936 -0.02249
C_ C_ 0.967803 0.920604 0.255531 -0.02249
C_ C_ 0.666177 0.812131 0.244241 0.6875
C_ C_ 0.913487 0.810115 0.249961 0.6875
C_ C_ 0.709791 0.90342 0.201223 -0.11473
C_ C_ 0.957788 0.905219 0.217463 -0.11473
C_ C_ 0.680347 0.657537 0.248306 -0.02249
C_ C_ 0.931547 0.651188 0.253128 -0.02249
C_ C_ 0.732418 0.543481 0.245114 -0.02249
C_ C_ 0.982263 0.539013 0.250134 -0.02249
C_ C_ 0.704187 0.599109 0.283864 -0.11473
C_ C_ 0.961102 0.600217 0.292039 -0.11473
C_ C_ 0.686755 0.637695 0.210908 -0.11473
C_ C_ 0.939371 0.6322 0.215742 -0.11473
C_ C_ 0.687386 0.636863 0.285948 -0.11473
C_ C_ 0.94314 0.635783 0.291709 -0.11473
C_ C_ 0.714393 0.581963 0.245952 -0.02249
C_ C_ 0.967927 0.579629 0.253363 -0.02249
C_ C_ 0.661198 0.695308 0.248672 0.6875
C_ C_ 0.911535 0.688905 0.252552 0.6875
C_ C_ 0.704245 0.600678 0.209189 -0.11473
C_ C_ 0.957034 0.596351 0.213512 -0.11473
C_ C_ 0.566793 0.654088 0.26041 -0.02249
C_ C_ 0.81291 0.656642 0.248114 -0.02249
C_ C_ 0.518151 0.538096 0.256702 -0.02249
C_ C_ 0.764706 0.543036 0.239312 -0.02249
C_ C_ 0.535949 0.603016 0.220342 -0.11473
C_ C_ 0.784238 0.606492 0.207661 -0.11473
C_ C_ 0.563518 0.631028 0.296567 -0.11473
C_ C_ 0.809639 0.631915 0.283355 -0.11473
C_ C_ 0.55289 0.640863 0.221673 -0.11473
C_ C_ 0.797655 0.644222 0.209897 -0.11473
C_ C_ 0.535844 0.577469 0.255801 -0.02249
C_ C_ 0.781064 0.582166 0.242965 -0.02249
C_ C_ 0.584197 0.69331 0.261182 0.6875
C_ C_ 0.833506 0.692458 0.249314 0.6875
C_ C_ 0.54689 0.592651 0.294532 -0.11473
C_ C_ 0.790936 0.597959 0.281437 -0.11473
C_ C_ 0.63044 0.719039 0.37782 0.17695
C_ C_ 0.883625 0.785931 0.37554 0.17695
C_ C_ 0.625516 0.790864 0.382045 0.17695
C_ C_ 0.870398 0.7132 0.374039 0.17695
C_ C_ 0.624152 0.788698 0.426572 -0.11473
C_ C_ 0.875875 0.712523 0.418668 -0.11473
C_ C_ 0.627709 0.748751 0.446422 0.23465
C_ C_ 0.881327 0.748899 0.440902 0.23465
C_ C_ 0.631346 0.714581 0.420051 -0.11473
C_ C_ 0.884964 0.785437 0.418744 -0.11473
C_ C_ 0.616717 0.715977 0.124809 0.17695
C_ C_ 0.874215 0.715284 0.12135 0.17695
C_ C_ 0.616468 0.789427 0.126433 0.17695
C_ C_ 0.876012 0.787498 0.120573 0.17695
C_ C_ 0.619517 0.791183 0.0830388 -0.11473
C_ C_ 0.883633 0.787654 0.0793833 -0.11473
C_ C_ 0.620714 0.75369 0.0596711 0.23465
C_ C_ 0.88378 0.750638 0.0552624 0.23465
C_ C_ 0.617436 0.715631 0.0804218 -0.11473
C_ C_ 0.877085 0.713453 0.0769261 -0.11473
C_ C_ 0.533874 1.00415439 0.263285 0.05793
C_ C_ 0.781372 1.00136 0.244565 0.05793
C_ C_ 0.716346 0.504524 0.250859 0.05793
C_ C_ 0.965741 0.500852 0.251748 0.05793
Br Br 0.5761 1.00468 0.281613 -0.17191
Br Br 0.824919 0.99629 0.23931 -0.17191
Br Br 0.673417 0.503979 0.259914 -0.17191
Br Br 0.92294 0.504619 0.260452 -0.17191
N_ N_ 0.629131 0.75639 0.359226 -0.272
N_ N_ 0.875705 0.750588 0.353742 -0.272
N_ N_ 0.622768 0.742227 0.489679 -0.12501
N_ N_ 0.889017 0.748851 0.484544 -0.12501
N_ N_ 0.615941 0.752001 0.146159 -0.272
N_ N_ 0.876365 0.751094 0.144127 -0.272
N_ N_ 0.626986 0.758522 0.0163 -0.12501
N_ N_ 0.890956 0.748716 0.0125701 -0.12501
O_ O_ 0.592906 0.797967 0.221429 -0.60745
O_ O_ 0.839008 0.791308 0.207277 -0.60745
O_ O_ 0.591567 0.797952 0.292954 -0.60745
O_ O_ 0.842673 0.797409 0.277848 -0.60745
O_ O_ 0.655227 0.801701 0.279869 -0.60745
O_ O_ 0.90771 0.789664 0.282832 -0.60745
O_ O_ 0.654025 0.795272 0.211709 -0.60745
O_ O_ 0.900314 0.800383 0.215333 -0.60745
O_ O_ 0.653591 0.712672 0.282956 -0.60745
O_ O_ 0.903051 0.705561 0.285811 -0.60745
O_ O_ 0.646934 0.703709 0.214902 -0.60745
O_ O_ 0.909137 0.710397 0.220542 -0.60745
O_ O_ 0.587196 0.712218 0.227426 -0.60745
O_ O_ 0.84777 0.702305 0.21656 -0.60745
O_ O_ 0.596027 0.708784 0.2956 -0.60745
O_ O_ 0.838706 0.709949 0.282919 -0.60745
Zn Zn 0.623295 0.751585 0.789197 0.9476
Zn Zn 0.881399 0.748783 0.779976 0.9476
Zn Zn 0.622662 0.747184 0.721285 0.9476
Zn Zn 0.877008 0.751597 0.709528 0.9476
H_ H_ 0.517921 0.897867 0.685606 0.10932
H_ H_ 0.778167 0.912799 0.677114 0.10932
H_ H_ 0.575218 0.869045 0.817912 0.10932
H_ H_ 0.810523 0.844182 0.809593 0.10932
H_ H_ 0.544584 0.833286 0.691223 0.10932
H_ H_ 0.81206 0.848736 0.6742 0.10932
H_ H_ 0.542332 0.930035 0.811268 0.10932
H_ H_ 0.783661 0.914375 0.809313 0.10932
H_ H_ 0.723117 0.910294 0.814334 0.10932
H_ H_ 0.965652 0.923553 0.797632 0.10932
H_ H_ 0.671786 0.857543 0.686701 0.10932
H_ H_ 0.941458 0.841234 0.67314 0.10932
H_ H_ 0.688992 0.85146 0.822026 0.10932
H_ H_ 0.944513 0.856005 0.807191 0.10932
H_ H_ 0.703229 0.919271 0.683878 0.10932
H_ H_ 0.957788 0.913645 0.66534 0.10932
H_ H_ 0.722062 0.590119 0.82131 0.10932
H_ H_ 0.954753 0.571316 0.814727 0.10932
H_ H_ 0.671271 0.63906 0.691187 0.10932
H_ H_ 0.955506 0.663042 0.691143 0.10932
H_ H_ 0.694622 0.658033 0.81894 0.10932
H_ H_ 0.932044 0.640995 0.815901 0.10932
H_ H_ 0.697548 0.574149 0.689715 0.10932
H_ H_ 0.979159 0.593292 0.684481 0.10932
H_ H_ 0.538979 0.57392 0.68645 0.10932
H_ H_ 0.776763 0.595142 0.681738 0.10932
H_ H_ 0.557572 0.648904 0.815699 0.10932
H_ H_ 0.822123 0.644469 0.817052 0.10932
H_ H_ 0.566115 0.638521 0.684461 0.10932
H_ H_ 0.798241 0.664263 0.688182 0.10932
H_ H_ 0.533961 0.580047 0.817116 0.10932
H_ H_ 0.792276 0.57991 0.815767 0.10932
H_ H_ 0.621699 0.680948 0.855934 0.10932
H_ H_ 0.862042 0.692896 0.865751 0.10932
H_ H_ 0.627412 0.8094 0.867851 0.10932
H_ H_ 0.893011 0.812835 0.847405 0.10932
H_ H_ 0.629253 0.803588 0.948381 0.10932
H_ H_ 0.889978 0.826747 0.922926 0.10932
H_ H_ 0.617843 0.673046 0.933365 0.10932
H_ H_ 0.869293 0.698471 0.942557 0.10932
H_ H_ 0.628197 0.685553 0.635524 0.10932
H_ H_ 0.880839 0.813383 0.631963 0.10932
H_ H_ 0.614311 0.814326 0.651355 0.10932
H_ H_ 0.876972 0.686106 0.645566 0.10932
H_ H_ 0.620069 0.825714 0.574749 0.10932
H_ H_ 0.863759 0.67916 0.567727 0.10932
H_ H_ 0.630787 0.69604 0.558059 0.10932
H_ H_ 0.886402 0.809708 0.55754 0.10932
C_ C_ 0.560086 0.844596 0.756896 -0.02249
C_ C_ 0.814949 0.841682 0.742817 -0.02249
C_ C_ 0.51136 0.960044 0.746203 -0.02249
C_ C_ 0.765863 0.958397 0.744242 -0.02249
C_ C_ 0.529967 0.892964 0.714496 -0.11473
C_ C_ 0.785447 0.896828 0.706601 -0.11473
C_ C_ 0.559986 0.872021 0.789537 -0.11473
C_ C_ 0.804252 0.860457 0.780125 -0.11473
C_ C_ 0.54385 0.854584 0.718251 -0.11473
C_ C_ 0.804867 0.859963 0.704387 -0.11473
C_ C_ 0.528335 0.919911 0.748341 -0.02249
C_ C_ 0.782895 0.918075 0.743418 -0.02249
C_ C_ 0.58041 0.808144 0.756527 0.6875
C_ C_ 0.839277 0.808513 0.742767 0.6875
C_ C_ 0.542669 0.908531 0.786674 -0.11473
C_ C_ 0.78941 0.898288 0.780168 -0.11473
C_ C_ 0.677232 0.850292 0.75438 -0.02249
C_ C_ 0.93972 0.844294 0.740229 -0.02249
C_ C_ 0.73376 0.957534 0.744953 -0.02249
C_ C_ 0.983309 0.96182 0.727215 -0.02249
C_ C_ 0.712916 0.898357 0.78742 -0.11473
C_ C_ 0.956635 0.908844 0.771118 -0.11473
C_ C_ 0.68379 0.867135 0.714992 -0.11473
C_ C_ 0.946549 0.859801 0.700231 -0.11473
C_ C_ 0.692895 0.865357 0.789925 -0.11473
C_ C_ 0.944171 0.868364 0.775861 -0.11473
C_ C_ 0.717249 0.917758 0.748098 -0.02249
C_ C_ 0.966157 0.922589 0.731547 -0.02249
C_ C_ 0.659638 0.812359 0.756907 0.6875
C_ C_ 0.920001 0.807335 0.74177 0.6875
C_ C_ 0.702161 0.902205 0.713251 -0.11473
C_ C_ 0.956552 0.899866 0.695126 -0.11473
C_ C_ 0.686185 0.657896 0.751786 -0.02249
C_ C_ 0.939209 0.653165 0.750716 -0.02249
C_ C_ 0.732827 0.540212 0.753946 -0.02249
C_ C_ 0.983985 0.536114 0.74506 -0.02249
C_ C_ 0.714259 0.603653 0.791613 -0.11473
C_ C_ 0.954507 0.590592 0.786379 -0.11473
C_ C_ 0.687208 0.631921 0.716488 -0.11473
C_ C_ 0.956203 0.642743 0.717433 -0.11473
C_ C_ 0.699158 0.64314 0.79045 -0.11473
C_ C_ 0.939613 0.62736 0.787376 -0.11473
C_ C_ 0.714691 0.579349 0.754981 -0.02249
C_ C_ 0.967523 0.576349 0.747603 -0.02249
C_ C_ 0.666187 0.695819 0.750477 0.6875
C_ C_ 0.922208 0.693824 0.749373 0.6875
C_ C_ 0.69681 0.591505 0.719652 -0.11473
C_ C_ 0.968129 0.602284 0.713293 -0.11473
C_ C_ 0.566937 0.648244 0.750255 -0.02249
C_ C_ 0.816688 0.653288 0.749027 -0.02249
C_ C_ 0.516372 0.533853 0.753746 -0.02249
C_ C_ 0.764813 0.541373 0.747457 -0.02249
C_ C_ 0.544426 0.588362 0.714874 -0.11473
C_ C_ 0.780713 0.608193 0.713329 -0.11473
C_ C_ 0.557426 0.630525 0.788905 -0.11473
C_ C_ 0.81013 0.634716 0.787967 -0.11473
C_ C_ 0.560153 0.626321 0.713761 -0.11473
C_ C_ 0.79581 0.645347 0.715616 -0.11473
C_ C_ 0.534215 0.572018 0.751638 -0.02249
C_ C_ 0.77978 0.581948 0.748978 -0.02249
C_ C_ 0.584733 0.686429 0.751063 0.6875
C_ C_ 0.83926 0.689531 0.750505 0.6875
C_ C_ 0.54061 0.594509 0.788944 -0.11473
C_ C_ 0.793342 0.596756 0.786827 -0.11473
C_ C_ 0.621704 0.70744 0.875457 0.17695
C_ C_ 0.876011 0.718266 0.877817 0.17695
C_ C_ 0.629104 0.78004 0.883332 0.17695
C_ C_ 0.893402 0.787582 0.867608 0.17695
C_ C_ 0.626853 0.776269 0.927699 -0.11473
C_ C_ 0.889257 0.796106 0.911808 -0.11473
C_ C_ 0.624325 0.735989 0.94668 0.23465
C_ C_ 0.883002 0.763604 0.940445 0.23465
C_ C_ 0.62041 0.702365 0.919781 -0.11473
C_ C_ 0.876945 0.723848 0.922945 -0.11473
C_ C_ 0.628834 0.715846 0.622834 0.17695
C_ C_ 0.879049 0.784364 0.618257 0.17695
C_ C_ 0.620266 0.788469 0.631141 0.17695
C_ C_ 0.874225 0.7119 0.62569 0.17695
C_ C_ 0.620927 0.79528 0.586655 -0.11473
C_ C_ 0.868875 0.707791 0.582363 -0.11473
C_ C_ 0.625324 0.76261 0.560324 0.23465
C_ C_ 0.872955 0.743937 0.556121 0.23465
C_ C_ 0.629505 0.722354 0.57822 -0.11473
C_ C_ 0.878161 0.78239 0.575719 -0.11473
C_ C_ 0.52758 -0.0018439999999999568 0.743215 0.05793
C_ C_ 0.781205 -0.0027160000000000517 0.745609 0.05793
C_ C_ 0.717532 0.500531 0.75839 0.05793
C_ C_ 0.968344 0.497698 0.747512 0.05793
Br Br 0.571075 -0.0071069999999999744 0.744466 -0.17191
Br Br 0.824146 0.996126 0.751711 -0.17191
Br Br 0.68048 0.495972 0.788072 -0.17191
Br Br 0.925378 0.503157 0.754955 -0.17191
N_ N_ 0.626981 0.745356 0.859748 -0.272
N_ N_ 0.884158 0.751049 0.851951 -0.272
N_ N_ 0.622429 0.729255 0.990784 -0.12501
N_ N_ 0.878562 0.771304 0.984856 -0.12501
N_ N_ 0.626695 0.749622 0.648256 -0.272
N_ N_ 0.875208 0.749907 0.64294 -0.272
N_ N_ 0.628989 0.77065 0.516433 -0.12501
N_ N_ 0.869435 0.738847 0.510445 -0.12501
O_ O_ 0.589403 0.792996 0.722969 -0.60745
O_ O_ 0.845415 0.792973 0.707766 -0.60745
O_ O_ 0.59083 0.795307 0.790552 -0.60745
O_ O_ 0.85308 0.797051 0.776392 -0.60745
O_ O_ 0.65228 0.795688 0.791495 -0.60745
O_ O_ 0.91547 0.789168 0.775313 -0.60745
O_ O_ 0.651775 0.793825 0.722425 -0.60745
O_ O_ 0.907718 0.794787 0.707773 -0.60745
O_ O_ 0.655917 0.709597 0.784054 -0.60745
O_ O_ 0.908949 0.703517 0.78413 -0.60745
O_ O_ 0.654853 0.706242 0.715644 -0.60745
O_ O_ 0.910334 0.706409 0.713968 -0.60745
O_ O_ 0.593177 0.701036 0.715812 -0.60745
O_ O_ 0.843781 0.70674 0.713873 -0.60745
O_ O_ 0.595301 0.701449 0.784177 -0.60745
O_ O_ 0.849364 0.706353 0.783336 -0.60745
