_cell_length_a 44.444
_cell_length_b 32.3360000049186
_cell_length_c 31.843999878906452
_cell_angle_alpha 89.99799923859553
_cell_angle_beta 91.13600050494348
_cell_angle_gamma 89.9990006550086
_symmetry_space_group_name_H-M         'P 1'
_symmetry_Int_Tables_number            1
loop_
_symmetry_equiv_pos_as_xyz
   'x, y, z'
                         
loop_
_atom_site_label
_atom_site_type_symbol
_atom_site_fract_x 
_atom_site_fract_y
_atom_site_fract_z
_atom_site_charge
Zn Zn 0.123532 0.250805 0.281216 0.9476
Zn Zn 0.375201 0.248699 0.280579 0.9476
Zn Zn 0.119849 0.252908 0.209591 0.9476
Zn Zn 0.377732 0.245556 0.210723 0.9476
H_ H_ 0.0339718 0.427004 0.173724 0.10932
H_ H_ 0.291916 0.421948 0.187399 0.10932
H_ H_ 0.0573506 0.356304 0.311654 0.10932
H_ H_ 0.313535 0.339591 0.319905 0.10932
H_ H_ 0.0624181 0.359998 0.175365 0.10932
H_ H_ 0.306561 0.350507 0.184404 0.10932
H_ H_ 0.0254839 0.418835 0.305837 0.10932
H_ H_ 0.289704 0.410415 0.322449 0.10932
H_ H_ 0.22235 0.407412 0.314842 0.10932
H_ H_ 0.470415 0.416011 0.311894 0.10932
H_ H_ 0.179936 0.355769 0.181234 0.10932
H_ H_ 0.43212 0.351911 0.182038 0.10932
H_ H_ 0.194744 0.340278 0.312327 0.10932
H_ H_ 0.436778 0.354295 0.317445 0.10932
H_ H_ 0.213921 0.414708 0.179617 0.10932
H_ H_ 0.462814 0.416977 0.178689 0.10932
H_ H_ 0.209107 0.0732032 0.305082 0.10932
H_ H_ 0.480352 0.0946354 0.321831 0.10932
H_ H_ 0.191669 0.155693 0.176745 0.10932
H_ H_ 0.435885 0.139501 0.188898 0.10932
H_ H_ 0.175315 0.13283 0.307576 0.10932
H_ H_ 0.45126 0.15775 0.320517 0.10932
H_ H_ 0.222112 0.0920087 0.174228 0.10932
H_ H_ 0.461351 0.0707094 0.193546 0.10932
H_ H_ 0.0377768 0.0774314 0.178352 0.10932
H_ H_ 0.27896 0.0902063 0.172874 0.10932
H_ H_ 0.0470233 0.161607 0.308609 0.10932
H_ H_ 0.313632 0.147551 0.307086 0.10932
H_ H_ 0.0626224 0.145029 0.175075 0.10932
H_ H_ 0.31009 0.148589 0.17409 0.10932
H_ H_ 0.0247749 0.09091 0.309739 0.10932
H_ H_ 0.292809 0.0772566 0.306442 0.10932
H_ H_ 0.135389 0.311458 0.364764 0.10932
H_ H_ 0.37021 0.309416 0.35529 0.10932
H_ H_ 0.111006 0.186444 0.348785 0.10932
H_ H_ 0.37563 0.180763 0.347989 0.10932
H_ H_ 0.107313 0.177085 0.423212 0.10932
H_ H_ 0.384499 0.175888 0.423879 0.10932
H_ H_ 0.134406 0.303831 0.444375 0.10932
H_ H_ 0.378764 0.308945 0.434767 0.10932
H_ H_ 0.136946 0.318173 0.137147 0.10932
H_ H_ 0.374851 0.311284 0.130992 0.10932
H_ H_ 0.0997664 0.19499 0.131366 0.10932
H_ H_ 0.38043 0.182713 0.143245 0.10932
H_ H_ 0.103602 0.195075 0.0527656 0.10932
H_ H_ 0.37269 0.174156 0.0637815 0.10932
H_ H_ 0.137595 0.319055 0.0584547 0.10932
H_ H_ 0.370005 0.305644 0.0529773 0.10932
C_ C_ 0.0629462 0.351404 0.243365 -0.02249
C_ C_ 0.316911 0.341238 0.251149 -0.02249
C_ C_ 0.0142038 0.465884 0.240565 -0.02249
C_ C_ 0.268731 0.460124 0.258851 -0.02249
C_ C_ 0.0379345 0.408422 0.202363 -0.11473
C_ C_ 0.29484 0.404568 0.216273 -0.11473
C_ C_ 0.0526525 0.36987 0.280761 -0.11473
C_ C_ 0.308176 0.357007 0.290741 -0.11473
C_ C_ 0.0534292 0.370864 0.203459 -0.11473
C_ C_ 0.307262 0.364094 0.214418 -0.11473
C_ C_ 0.0301145 0.426641 0.241694 -0.02249
C_ C_ 0.287792 0.420847 0.255838 -0.02249
C_ C_ 0.0827969 0.314827 0.24483 0.6875
C_ C_ 0.334627 0.302858 0.248933 0.6875
C_ C_ 0.0364397 0.406835 0.279654 -0.11473
C_ C_ 0.294262 0.397031 0.292456 -0.11473
C_ C_ 0.18525 0.34341 0.246221 -0.02249
C_ C_ 0.436145 0.344951 0.250217 -0.02249
C_ C_ 0.237837 0.457001 0.247915 -0.02249
C_ C_ 0.482871 0.460778 0.248748 -0.02249
C_ C_ 0.214829 0.396237 0.284881 -0.11473
C_ C_ 0.460698 0.401791 0.28601 -0.11473
C_ C_ 0.192535 0.362921 0.208059 -0.11473
C_ C_ 0.441844 0.364453 0.210343 -0.11473
C_ C_ 0.197682 0.359001 0.283685 -0.11473
C_ C_ 0.444022 0.365906 0.28691 -0.11473
C_ C_ 0.221259 0.416464 0.247126 -0.02249
C_ C_ 0.467272 0.420902 0.247242 -0.02249
C_ C_ 0.164113 0.308895 0.245624 0.6875
C_ C_ 0.415889 0.307526 0.252692 0.6875
C_ C_ 0.207943 0.400555 0.209228 -0.11473
C_ C_ 0.458099 0.401404 0.209717 -0.11473
C_ C_ 0.181843 0.150941 0.242146 -0.02249
C_ C_ 0.440915 0.155451 0.253174 -0.02249
C_ C_ 0.233593 0.036752 0.239075 -0.02249
C_ C_ 0.489958 0.0402243 0.259585 -0.02249
C_ C_ 0.206724 0.0917653 0.276593 -0.11473
C_ C_ 0.471943 0.106463 0.293047 -0.11473
C_ C_ 0.194797 0.138308 0.204344 -0.11473
C_ C_ 0.445301 0.129394 0.218188 -0.11473
C_ C_ 0.186986 0.125959 0.278177 -0.11473
C_ C_ 0.455644 0.142997 0.289702 -0.11473
C_ C_ 0.217084 0.0771845 0.238273 -0.02249
C_ C_ 0.473227 0.0791125 0.258012 -0.02249
C_ C_ 0.159916 0.186086 0.243878 0.6875
C_ C_ 0.419827 0.19307 0.24953 0.6875
C_ C_ 0.21289 0.102637 0.202679 -0.11473
C_ C_ 0.461852 0.0923513 0.219246 -0.11473
C_ C_ 0.0580988 0.157394 0.242963 -0.02249
C_ C_ 0.317492 0.151205 0.240108 -0.02249
C_ C_ 0.0167017 0.0379212 0.245623 -0.02249
C_ C_ 0.265958 0.0366336 0.240953 -0.02249
C_ C_ 0.0400558 0.0959827 0.207334 -0.11473
C_ C_ 0.289665 0.0962944 0.203081 -0.11473
C_ C_ 0.0471548 0.141905 0.281487 -0.11473
C_ C_ 0.30908 0.132674 0.277448 -0.11473
C_ C_ 0.0514174 0.136303 0.205288 -0.11473
C_ C_ 0.307409 0.131579 0.202306 -0.11473
C_ C_ 0.0306875 0.0796026 0.245434 -0.02249
C_ C_ 0.282066 0.0778325 0.240918 -0.02249
C_ C_ 0.0803589 0.194983 0.243794 0.6875
C_ C_ 0.336981 0.188977 0.240839 0.6875
C_ C_ 0.0340496 0.103003 0.282128 -0.11473
C_ C_ 0.294314 0.0941269 0.278313 -0.11473
C_ C_ 0.129872 0.281711 0.37914 0.17695
C_ C_ 0.373573 0.281322 0.372783 0.17695
C_ C_ 0.116471 0.211205 0.370576 0.17695
C_ C_ 0.376038 0.207392 0.369896 0.17695
C_ C_ 0.115193 0.206052 0.413757 -0.11473
C_ C_ 0.379179 0.206246 0.41313 -0.11473
C_ C_ 0.12232 0.238403 0.440364 0.23465
C_ C_ 0.375492 0.241733 0.438046 0.23465
C_ C_ 0.1301 0.277636 0.423322 -0.11473
C_ C_ 0.374298 0.281281 0.417437 -0.11473
C_ C_ 0.131221 0.289083 0.120284 0.17695
C_ C_ 0.374836 0.280724 0.115868 0.17695
C_ C_ 0.109579 0.221595 0.115594 0.17695
C_ C_ 0.378631 0.209769 0.122713 0.17695
C_ C_ 0.111033 0.221824 0.0712063 -0.11473
C_ C_ 0.374416 0.205056 0.0783758 -0.11473
C_ C_ 0.119966 0.258376 0.0504947 0.23465
C_ C_ 0.371905 0.240531 0.0513119 0.23465
C_ C_ 0.129722 0.29298 0.0757848 -0.11473
C_ C_ 0.372877 0.278888 0.0707294 -0.11473
C_ C_ 0.0294379 0.503052 0.246594 0.05793
C_ C_ 0.281557 0.498784 0.270236 0.05793
C_ C_ 0.21851 -0.0022330000000000405 0.239958 0.05793
C_ C_ 0.473983 1.00238316 0.265625 0.05793
Br Br 0.072337 0.504523 0.261978 -0.17191
Br Br 0.324385 0.500839 0.278264 -0.17191
Br Br 0.174404 -0.004817999999999989 0.240485 -0.17191
Br Br 0.434085 1.00501513 0.284799 -0.17191
N_ N_ 0.122414 0.248387 0.35469 -0.272
N_ N_ 0.3728 0.244791 0.349788 -0.272
N_ N_ 0.122628 0.231072 0.484569 -0.12501
N_ N_ 0.380013 0.23723 0.483705 -0.12501
N_ N_ 0.118894 0.25486 0.139031 -0.272
N_ N_ 0.378221 0.247147 0.141539 -0.272
N_ N_ 0.121663 0.262317 0.00439465 -0.12501
N_ N_ 0.366667 0.234194 0.0078849 -0.12501
O_ O_ 0.0867347 0.292708 0.212327 -0.60745
O_ O_ 0.348053 0.293513 0.214614 -0.60745
O_ O_ 0.0968359 0.304776 0.278138 -0.60745
O_ O_ 0.339911 0.28299 0.282954 -0.60745
O_ O_ 0.160576 0.288352 0.27969 -0.60745
O_ O_ 0.40512 0.294579 0.287063 -0.60745
O_ O_ 0.150395 0.297507 0.21176 -0.60745
O_ O_ 0.406223 0.290734 0.218312 -0.60745
O_ O_ 0.148834 0.198503 0.278374 -0.60745
O_ O_ 0.410531 0.21185 0.281884 -0.60745
O_ O_ 0.151797 0.205921 0.209827 -0.60745
O_ O_ 0.40852 0.203015 0.213873 -0.60745
O_ O_ 0.0936582 0.205677 0.210543 -0.60745
O_ O_ 0.344181 0.206722 0.206876 -0.60745
O_ O_ 0.0853895 0.217482 0.277896 -0.60745
O_ O_ 0.347867 0.200283 0.274674 -0.60745
Zn Zn 0.122746 0.245054 0.781052 0.9476
Zn Zn 0.375444 0.250846 0.780154 0.9476
Zn Zn 0.124232 0.24552 0.711378 0.9476
Zn Zn 0.374553 0.249893 0.710657 0.9476
H_ H_ 0.0198821 0.409507 0.691362 0.10932
H_ H_ 0.281463 0.416457 0.685499 0.10932
H_ H_ 0.0730155 0.354392 0.817944 0.10932
H_ H_ 0.323835 0.359185 0.813161 0.10932
H_ H_ 0.0498968 0.347924 0.684773 0.10932
H_ H_ 0.308848 0.348919 0.685227 0.10932
H_ H_ 0.0456672 0.425268 0.820763 0.10932
H_ H_ 0.291339 0.422737 0.820264 0.10932
H_ H_ 0.210866 0.413016 0.813165 0.10932
H_ H_ 0.459914 0.425518 0.810537 0.10932
H_ H_ 0.197034 0.337225 0.683055 0.10932
H_ H_ 0.440849 0.353026 0.676802 0.10932
H_ H_ 0.181218 0.3511 0.816466 0.10932
H_ H_ 0.425824 0.362669 0.811134 0.10932
H_ H_ 0.225357 0.404052 0.685715 0.10932
H_ H_ 0.475281 0.410238 0.680269 0.10932
H_ H_ 0.228033 0.0937126 0.803 0.10932
H_ H_ 0.470454 0.0949256 0.814023 0.10932
H_ H_ 0.177925 0.13431 0.668627 0.10932
H_ H_ 0.431033 0.138626 0.674169 0.10932
H_ H_ 0.184389 0.140583 0.807008 0.10932
H_ H_ 0.444741 0.166117 0.805563 0.10932
H_ H_ 0.208929 0.0718787 0.674637 0.10932
H_ H_ 0.458413 0.0758258 0.680374 0.10932
H_ H_ 0.0470643 0.063418 0.697116 0.10932
H_ H_ 0.275581 0.089832 0.680621 0.10932
H_ H_ 0.0499384 0.158009 0.820269 0.10932
H_ H_ 0.328849 0.131604 0.812462 0.10932
H_ H_ 0.0769296 0.129617 0.69245 0.10932
H_ H_ 0.302952 0.155631 0.678666 0.10932
H_ H_ 0.0231487 0.0939352 0.820532 0.10932
H_ H_ 0.292253 0.0751259 0.813686 0.10932
H_ H_ 0.1296 0.306416 0.856143 0.10932
H_ H_ 0.332674 0.243342 0.854605 0.10932
H_ H_ 0.135331 0.17477 0.852357 0.10932
H_ H_ 0.427619 0.232836 0.855515 0.10932
H_ H_ 0.121856 0.167874 0.928004 0.10932
H_ H_ 0.428226 0.230062 0.935058 0.10932
H_ H_ 0.118061 0.302958 0.93468 0.10932
H_ H_ 0.332639 0.244043 0.931099 0.10932
H_ H_ 0.121576 0.180156 0.633284 0.10932
H_ H_ 0.419241 0.250088 0.631179 0.10932
H_ H_ 0.111845 0.311391 0.644534 0.10932
H_ H_ 0.325535 0.268057 0.64124 0.10932
H_ H_ 0.12295 0.322793 0.568821 0.10932
H_ H_ 0.321738 0.279899 0.561623 0.10932
H_ H_ 0.123289 0.189578 0.552189 0.10932
H_ H_ 0.414276 0.251826 0.551721 0.10932
C_ C_ 0.0638082 0.347385 0.751897 -0.02249
C_ C_ 0.316912 0.348494 0.748764 -0.02249
C_ C_ 0.0142604 0.460542 0.757866 -0.02249
C_ C_ 0.264389 0.460302 0.749641 -0.02249
C_ C_ 0.0330678 0.399494 0.719276 -0.11473
C_ C_ 0.289927 0.401926 0.711269 -0.11473
C_ C_ 0.0612066 0.369187 0.79133 -0.11473
C_ C_ 0.311722 0.369566 0.786146 -0.11473
C_ C_ 0.0487428 0.362629 0.715811 -0.11473
C_ C_ 0.30318 0.363364 0.712584 -0.11473
C_ C_ 0.0293167 0.420252 0.757089 -0.02249
C_ C_ 0.282664 0.421856 0.749101 -0.02249
C_ C_ 0.0845349 0.310146 0.751929 0.6875
C_ C_ 0.335582 0.310814 0.74711 0.6875
C_ C_ 0.0433466 0.404555 0.794206 -0.11473
C_ C_ 0.294111 0.407121 0.788292 -0.11473
C_ C_ 0.185843 0.340107 0.749247 -0.02249
C_ C_ 0.432051 0.349477 0.74341 -0.02249
C_ C_ 0.232703 0.459158 0.747229 -0.02249
C_ C_ 0.48428 0.462558 0.748374 -0.02249
C_ C_ 0.206919 0.40021 0.785977 -0.11473
C_ C_ 0.45543 0.407076 0.783182 -0.11473
C_ C_ 0.198577 0.35477 0.711186 -0.11473
C_ C_ 0.445387 0.365463 0.707181 -0.11473
C_ C_ 0.190701 0.362923 0.787087 -0.11473
C_ C_ 0.438307 0.370545 0.781877 -0.11473
C_ C_ 0.215622 0.418987 0.748417 -0.02249
C_ C_ 0.467668 0.422165 0.74688 -0.02249
C_ C_ 0.165119 0.302411 0.748646 0.6875
C_ C_ 0.411049 0.314013 0.743427 0.6875
C_ C_ 0.212448 0.393452 0.712633 -0.11473
C_ C_ 0.464227 0.399422 0.709318 -0.11473
C_ C_ 0.18096 0.14681 0.7389 -0.02249
C_ C_ 0.435964 0.157152 0.739864 -0.02249
C_ C_ 0.235953 0.0358172 0.73922 -0.02249
C_ C_ 0.483564 0.0415595 0.754616 -0.02249
C_ C_ 0.214128 0.0991481 0.776288 -0.11473
C_ C_ 0.463472 0.106694 0.783497 -0.11473
C_ C_ 0.186948 0.125056 0.700363 -0.11473
C_ C_ 0.440008 0.130946 0.704286 -0.11473
C_ C_ 0.192122 0.129422 0.776738 -0.11473
C_ C_ 0.449585 0.145523 0.778015 -0.11473
C_ C_ 0.218853 0.0757542 0.738609 -0.02249
C_ C_ 0.466717 0.0823129 0.749057 -0.02249
C_ C_ 0.162269 0.184166 0.740375 0.6875
C_ C_ 0.413175 0.190397 0.739497 0.6875
C_ C_ 0.20565 0.089788 0.702237 -0.11473
C_ C_ 0.455194 0.0950323 0.708392 -0.11473
C_ C_ 0.0637204 0.151012 0.753217 -0.02249
C_ C_ 0.316071 0.150917 0.74675 -0.02249
C_ C_ 0.0129805 0.0381087 0.759249 -0.02249
C_ C_ 0.266918 0.0354976 0.745151 -0.02249
C_ C_ 0.0458151 0.0874237 0.721429 -0.11473
C_ C_ 0.28482 0.101453 0.709343 -0.11473
C_ C_ 0.0474692 0.140526 0.789736 -0.11473
C_ C_ 0.314991 0.126222 0.784142 -0.11473
C_ C_ 0.0659821 0.121555 0.722149 -0.11473
C_ C_ 0.301813 0.139013 0.708544 -0.11473
C_ C_ 0.0294271 0.0767836 0.757081 -0.02249
C_ C_ 0.283655 0.0760989 0.746879 -0.02249
C_ C_ 0.082782 0.189023 0.751239 0.6875
C_ C_ 0.33437 0.188391 0.745353 0.6875
C_ C_ 0.0330505 0.101841 0.79347 -0.11473
C_ C_ 0.295817 0.0907135 0.784628 -0.11473
C_ C_ 0.125301 0.276683 0.872052 0.17695
C_ C_ 0.354629 0.246869 0.869757 0.17695
C_ C_ 0.130381 0.203271 0.870549 0.17695
C_ C_ 0.406941 0.235159 0.871591 0.17695
C_ C_ 0.125792 0.199209 0.913303 -0.11473
C_ C_ 0.407923 0.238505 0.916421 -0.11473
C_ C_ 0.121819 0.23561 0.936889 0.23465
C_ C_ 0.380565 0.244477 0.937592 0.23465
C_ C_ 0.121752 0.274763 0.916347 -0.11473
C_ C_ 0.354064 0.246294 0.914519 -0.11473
C_ C_ 0.119569 0.211 0.617906 0.17695
C_ C_ 0.396713 0.252091 0.616174 0.17695
C_ C_ 0.118119 0.284462 0.624778 0.17695
C_ C_ 0.345226 0.267842 0.621968 0.17695
C_ C_ 0.119694 0.291076 0.581469 -0.11473
C_ C_ 0.342108 0.268259 0.576657 -0.11473
C_ C_ 0.121835 0.255963 0.555299 0.23465
C_ C_ 0.366277 0.254833 0.551696 0.23465
C_ C_ 0.122931 0.215321 0.573389 -0.11473
C_ C_ 0.394526 0.24977 0.571844 -0.11473
C_ C_ 0.0309134 0.49846 0.756975 0.05793
C_ C_ 0.27868 0.498283 0.745171 0.05793
C_ C_ 0.219537 -0.0009590000000000432 0.741855 0.05793
C_ C_ 0.466579 1.00478095 0.759463 0.05793
Br Br 0.0743139 0.496458 0.764898 -0.17191
Br Br 0.322975 0.499446 0.735637 -0.17191
Br Br 0.176973 -0.0018172 0.752252 -0.17191
Br Br 0.421963 1.00997435 0.76085 -0.17191
N_ N_ 0.128639 0.24017 0.850834 -0.272
N_ N_ 0.381105 0.241887 0.8494 -0.272
N_ N_ 0.124626 0.231806 0.981794 -0.12501
N_ N_ 0.381293 0.254573 0.981953 -0.12501
N_ N_ 0.12064 0.246129 0.640571 -0.272
N_ N_ 0.371851 0.257408 0.640422 -0.272
N_ N_ 0.122291 0.261198 0.510069 -0.12501
N_ N_ 0.366156 0.260822 0.507719 -0.12501
O_ O_ 0.0923746 0.292817 0.717706 -0.60745
O_ O_ 0.343555 0.295613 0.713625 -0.60745
O_ O_ 0.0980169 0.29732 0.784448 -0.60745
O_ O_ 0.344563 0.294995 0.78144 -0.60745
O_ O_ 0.156043 0.28734 0.782437 -0.60745
O_ O_ 0.407748 0.295296 0.777343 -0.60745
O_ O_ 0.1564 0.28804 0.713372 -0.60745
O_ O_ 0.403943 0.296582 0.707158 -0.60745
O_ O_ 0.148884 0.194898 0.774263 -0.60745
O_ O_ 0.406942 0.208355 0.773855 -0.60745
O_ O_ 0.15524 0.202875 0.706696 -0.60745
O_ O_ 0.40532 0.207798 0.705672 -0.60745
O_ O_ 0.092943 0.201527 0.716788 -0.60745
O_ O_ 0.341159 0.204208 0.709537 -0.60745
O_ O_ 0.0892955 0.208035 0.783755 -0.60745
O_ O_ 0.34597 0.205507 0.778258 -0.60745
Zn Zn 0.128257 0.746773 0.291827 0.9476
Zn Zn 0.375198 0.749532 0.294029 0.9476
Zn Zn 0.1255 0.744652 0.222028 0.9476
Zn Zn 0.376124 0.751044 0.224307 0.9476
H_ H_ 0.0580828 0.926786 0.182625 0.10932
H_ H_ 0.302478 0.926081 0.187254 0.10932
H_ H_ 0.0545079 0.847466 0.317197 0.10932
H_ H_ 0.299542 0.839978 0.312824 0.10932
H_ H_ 0.0845047 0.85967 0.185735 0.10932
H_ H_ 0.327699 0.858637 0.191071 0.10932
H_ H_ 0.0256833 0.905431 0.305958 0.10932
H_ H_ 0.26796 0.906532 0.307911 0.10932
H_ H_ 0.209204 0.922773 0.315381 0.10932
H_ H_ 0.475343 0.906837 0.328787 0.10932
H_ H_ 0.188952 0.8435 0.188137 0.10932
H_ H_ 0.431653 0.861899 0.191471 0.10932
H_ H_ 0.188358 0.856531 0.321802 0.10932
H_ H_ 0.446035 0.846308 0.32442 0.10932
H_ H_ 0.221878 0.904326 0.182943 0.10932
H_ H_ 0.459887 0.930467 0.194152 0.10932
H_ H_ 0.214677 0.573163 0.317036 0.10932
H_ H_ 0.469454 0.574805 0.311157 0.10932
H_ H_ 0.18502 0.647408 0.188061 0.10932
H_ H_ 0.441215 0.65706 0.187644 0.10932
H_ H_ 0.191338 0.639436 0.320534 0.10932
H_ H_ 0.433761 0.635371 0.316295 0.10932
H_ H_ 0.214468 0.579525 0.182861 0.10932
H_ H_ 0.468534 0.595022 0.177209 0.10932
H_ H_ 0.0386543 0.580899 0.18235 0.10932
H_ H_ 0.29038 0.572741 0.192954 0.10932
H_ H_ 0.0558519 0.652253 0.320944 0.10932
H_ H_ 0.299756 0.657084 0.322484 0.10932
H_ H_ 0.0655327 0.643791 0.183173 0.10932
H_ H_ 0.3156 0.6391 0.191242 0.10932
H_ H_ 0.0343529 0.581546 0.317244 0.10932
H_ H_ 0.273503 0.592214 0.322227 0.10932
H_ H_ 0.121914 0.812333 0.359623 0.10932
H_ H_ 0.374333 0.680048 0.366462 0.10932
H_ H_ 0.130675 0.68501 0.368739 0.10932
H_ H_ 0.370044 0.811969 0.365943 0.10932
H_ H_ 0.136416 0.687794 0.443885 0.10932
H_ H_ 0.382684 0.813184 0.440363 0.10932
H_ H_ 0.130141 0.821513 0.437276 0.10932
H_ H_ 0.374072 0.679378 0.444075 0.10932
H_ H_ 0.133571 0.676662 0.149732 0.10932
H_ H_ 0.376349 0.820749 0.157585 0.10932
H_ H_ 0.11253 0.805229 0.141936 0.10932
H_ H_ 0.38235 0.686799 0.144445 0.10932
H_ H_ 0.117315 0.803549 0.0670104 0.10932
H_ H_ 0.388201 0.697827 0.0702527 0.10932
H_ H_ 0.121665 0.671339 0.0698614 0.10932
H_ H_ 0.382565 0.825886 0.0806693 0.10932
C_ C_ 0.0691975 0.845064 0.249393 -0.02249
C_ C_ 0.317903 0.847103 0.255023 -0.02249
C_ C_ 0.02259 0.961854 0.241598 -0.02249
C_ C_ 0.26668 0.961972 0.244506 -0.02249
C_ C_ 0.0569633 0.907466 0.21015 -0.11473
C_ C_ 0.30039 0.905941 0.214937 -0.11473
C_ C_ 0.0560988 0.862074 0.285519 -0.11473
C_ C_ 0.302399 0.861994 0.288016 -0.11473
C_ C_ 0.0704317 0.869049 0.212189 -0.11473
C_ C_ 0.315382 0.86875 0.217144 -0.11473
C_ C_ 0.0430859 0.924426 0.245274 -0.02249
C_ C_ 0.28369 0.920571 0.2483 -0.02249
C_ C_ 0.08678 0.804919 0.25274 0.6875
C_ C_ 0.339076 0.810975 0.257078 0.6875
C_ C_ 0.0417421 0.901431 0.282471 -0.11473
C_ C_ 0.282296 0.895445 0.283478 -0.11473
C_ C_ 0.181457 0.846492 0.252636 -0.02249
C_ C_ 0.435908 0.84832 0.259165 -0.02249
C_ C_ 0.233745 0.960632 0.245248 -0.02249
C_ C_ 0.488978 0.962953 0.262634 -0.02249
C_ C_ 0.203562 0.907527 0.286663 -0.11473
C_ C_ 0.466598 0.898051 0.298441 -0.11473
C_ C_ 0.195684 0.858677 0.215832 -0.11473
C_ C_ 0.440925 0.87367 0.222134 -0.11473
C_ C_ 0.189321 0.869465 0.289927 -0.11473
C_ C_ 0.450218 0.8619 0.296447 -0.11473
C_ C_ 0.215967 0.920555 0.248956 -0.02249
C_ C_ 0.470648 0.922549 0.261694 -0.02249
C_ C_ 0.163693 0.808006 0.254717 0.6875
C_ C_ 0.415929 0.810082 0.258076 0.6875
C_ C_ 0.212454 0.895407 0.212836 -0.11473
C_ C_ 0.457378 0.911103 0.22438 -0.11473
C_ C_ 0.187122 0.648501 0.254582 -0.02249
C_ C_ 0.432919 0.651162 0.250907 -0.02249
C_ C_ 0.235309 0.53289 0.247539 -0.02249
C_ C_ 0.483775 0.536858 0.24069 -0.02249
C_ C_ 0.209466 0.587824 0.287657 -0.11473
C_ C_ 0.460866 0.591576 0.283136 -0.11473
C_ C_ 0.197037 0.633762 0.215837 -0.11473
C_ C_ 0.446982 0.641183 0.214014 -0.11473
C_ C_ 0.195976 0.626741 0.290333 -0.11473
C_ C_ 0.441257 0.627196 0.287004 -0.11473
C_ C_ 0.216779 0.572748 0.248937 -0.02249
C_ C_ 0.468892 0.577571 0.24282 -0.02249
C_ C_ 0.165742 0.686045 0.257193 0.6875
C_ C_ 0.413121 0.68986 0.254732 0.6875
C_ C_ 0.208063 0.593424 0.212956 -0.11473
C_ C_ 0.462496 0.604371 0.208645 -0.11473
C_ C_ 0.0700073 0.649949 0.251903 -0.02249
C_ C_ 0.315813 0.651927 0.258143 -0.02249
C_ C_ 0.013449 0.539951 0.250418 -0.02249
C_ C_ 0.266371 0.535031 0.2582 -0.02249
C_ C_ 0.0464524 0.593097 0.213363 -0.11473
C_ C_ 0.294131 0.591046 0.221631 -0.11473
C_ C_ 0.0572509 0.634089 0.291343 -0.11473
C_ C_ 0.299836 0.639034 0.293635 -0.11473
C_ C_ 0.0639473 0.628218 0.214339 -0.11473
C_ C_ 0.309727 0.628444 0.220766 -0.11473
C_ C_ 0.0321551 0.579338 0.249907 -0.02249
C_ C_ 0.281763 0.576312 0.257819 -0.02249
C_ C_ 0.0903685 0.687259 0.252069 0.6875
C_ C_ 0.335775 0.688525 0.258587 0.6875
C_ C_ 0.0425376 0.595998 0.287819 -0.11473
C_ C_ 0.282856 0.602709 0.294803 -0.11473
C_ C_ 0.12544 0.78562 0.378715 0.17695
C_ C_ 0.376966 0.710471 0.38355 0.17695
C_ C_ 0.129513 0.713958 0.38559 0.17695
C_ C_ 0.37575 0.783326 0.382072 0.17695
C_ C_ 0.132385 0.71645 0.428801 -0.11473
C_ C_ 0.379223 0.784154 0.42472 -0.11473
C_ C_ 0.13429 0.755488 0.449491 0.23465
C_ C_ 0.379025 0.748893 0.448215 0.23465
C_ C_ 0.130986 0.790771 0.422927 -0.11473
C_ C_ 0.375972 0.710687 0.427353 -0.11473
C_ C_ 0.12851 0.703626 0.132336 0.17695
C_ C_ 0.377499 0.792302 0.138268 0.17695
C_ C_ 0.120573 0.777503 0.126626 0.17695
C_ C_ 0.38388 0.718542 0.13086 0.17695
C_ C_ 0.120508 0.775514 0.0816471 -0.11473
C_ C_ 0.385274 0.724212 0.0880581 -0.11473
C_ C_ 0.119962 0.735996 0.0622309 0.23465
C_ C_ 0.387016 0.762824 0.0698984 0.23465
C_ C_ 0.125532 0.70055 0.0860513 -0.11473
C_ C_ 0.383166 0.797733 0.0944971 -0.11473
C_ C_ 0.0352873 1.00119383 0.247542 0.05793
C_ C_ 0.282043 0.999767 0.249328 0.05793
C_ C_ 0.22022 0.495044 0.24805 0.05793
C_ C_ 0.467836 0.498948 0.241433 0.05793
Br Br 0.0776925 0.00904992 0.255784 -0.17191
Br Br 0.323857 0.997148 0.26871 -0.17191
Br Br 0.176887 0.494246 0.246462 -0.17191
Br Br 0.424133 0.495692 0.230452 -0.17191
N_ N_ 0.129045 0.74761 0.362481 -0.272
N_ N_ 0.375169 0.746396 0.361567 -0.272
N_ N_ 0.135505 0.758789 0.49387 -0.12501
N_ N_ 0.38213 0.751898 0.493082 -0.12501
N_ N_ 0.126261 0.742532 0.150689 -0.272
N_ N_ 0.379214 0.753719 0.156233 -0.272
N_ N_ 0.121761 0.731995 0.0170969 -0.12501
N_ N_ 0.388582 0.767394 0.0238682 -0.12501
O_ O_ 0.0922259 0.784728 0.218512 -0.60745
O_ O_ 0.347153 0.794105 0.222889 -0.60745
O_ O_ 0.0935304 0.788006 0.288038 -0.60745
O_ O_ 0.345332 0.793997 0.29293 -0.60745
O_ O_ 0.15669 0.793638 0.289866 -0.60745
O_ O_ 0.409468 0.791222 0.291379 -0.60745
O_ O_ 0.152539 0.793593 0.220502 -0.60745
O_ O_ 0.404865 0.79787 0.223353 -0.60745
O_ O_ 0.163231 0.705684 0.292464 -0.60745
O_ O_ 0.404584 0.702398 0.290901 -0.60745
O_ O_ 0.157932 0.704761 0.224204 -0.60745
O_ O_ 0.408203 0.711403 0.223256 -0.60745
O_ O_ 0.0985462 0.70248 0.21674 -0.60745
O_ O_ 0.347956 0.700265 0.22484 -0.60745
O_ O_ 0.0993691 0.702274 0.28706 -0.60745
O_ O_ 0.340462 0.707834 0.292295 -0.60745
Zn Zn 0.128019 0.751965 0.791064 0.9476
Zn Zn 0.374004 0.746933 0.793554 0.9476
Zn Zn 0.124101 0.749951 0.721286 0.9476
Zn Zn 0.371974 0.746981 0.722493 0.9476
H_ H_ 0.0518959 0.933349 0.694557 0.10932
H_ H_ 0.271021 0.897457 0.68569 0.10932
H_ H_ 0.0505315 0.834204 0.812854 0.10932
H_ H_ 0.329808 0.86677 0.818971 0.10932
H_ H_ 0.0736288 0.863377 0.688162 0.10932
H_ H_ 0.30118 0.834605 0.691076 0.10932
H_ H_ 0.0245873 0.904165 0.818678 0.10932
H_ H_ 0.293565 0.923256 0.812594 0.10932
H_ H_ 0.222558 0.913705 0.814515 0.10932
H_ H_ 0.470943 0.919446 0.824072 0.10932
H_ H_ 0.173486 0.8612 0.686341 0.10932
H_ H_ 0.413166 0.874202 0.696582 0.10932
H_ H_ 0.198739 0.845403 0.815787 0.10932
H_ H_ 0.443537 0.851064 0.824118 0.10932
H_ H_ 0.211899 0.916741 0.676257 0.10932
H_ H_ 0.442466 0.942512 0.700704 0.10932
H_ H_ 0.210639 0.574433 0.822216 0.10932
H_ H_ 0.469123 0.581395 0.824149 0.10932
H_ H_ 0.18669 0.650387 0.689736 0.10932
H_ H_ 0.435389 0.650269 0.6911 0.10932
H_ H_ 0.188825 0.64346 0.823646 0.10932
H_ H_ 0.434623 0.641404 0.825485 0.10932
H_ H_ 0.210844 0.579427 0.68592 0.10932
H_ H_ 0.474012 0.593667 0.688471 0.10932
H_ H_ 0.0559954 0.568235 0.69169 0.10932
H_ H_ 0.287958 0.580888 0.684583 0.10932
H_ H_ 0.0580206 0.65262 0.820995 0.10932
H_ H_ 0.309395 0.643894 0.82134 0.10932
H_ H_ 0.0856609 0.629971 0.695587 0.10932
H_ H_ 0.311167 0.645866 0.689476 0.10932
H_ H_ 0.0323832 0.585744 0.819804 0.10932
H_ H_ 0.283995 0.577038 0.818022 0.10932
H_ H_ 0.123989 0.814966 0.859562 0.10932
H_ H_ 0.339563 0.709125 0.873356 0.10932
H_ H_ 0.112988 0.687219 0.868045 0.10932
H_ H_ 0.416479 0.785868 0.87238 0.10932
H_ H_ 0.111498 0.687888 0.942507 0.10932
H_ H_ 0.418693 0.784088 0.951185 0.10932
H_ H_ 0.119289 0.821307 0.936861 0.10932
H_ H_ 0.345774 0.696202 0.949899 0.10932
H_ H_ 0.116842 0.683102 0.652042 0.10932
H_ H_ 0.390023 0.802402 0.644716 0.10932
H_ H_ 0.146188 0.802762 0.641509 0.10932
H_ H_ 0.341514 0.689597 0.649941 0.10932
H_ H_ 0.146605 0.798776 0.561047 0.10932
H_ H_ 0.339034 0.688851 0.568947 0.10932
H_ H_ 0.110535 0.675334 0.574578 0.10932
H_ H_ 0.385087 0.805253 0.570399 0.10932
C_ C_ 0.0681249 0.847526 0.753372 -0.02249
C_ C_ 0.31537 0.844084 0.753536 -0.02249
C_ C_ 0.01583 0.961749 0.755707 -0.02249
C_ C_ 0.266498 0.960841 0.743647 -0.02249
C_ C_ 0.0492045 0.910301 0.7179 -0.11473
C_ C_ 0.284657 0.892472 0.711843 -0.11473
C_ C_ 0.051277 0.856708 0.787943 -0.11473
C_ C_ 0.316614 0.873448 0.786877 -0.11473
C_ C_ 0.0634128 0.871958 0.717129 -0.11473
C_ C_ 0.299501 0.854843 0.716764 -0.11473
C_ C_ 0.0350281 0.921989 0.754562 -0.02249
C_ C_ 0.284768 0.920687 0.744975 -0.02249
C_ C_ 0.0881427 0.810166 0.752193 0.6875
C_ C_ 0.330277 0.802714 0.757194 0.6875
C_ C_ 0.0346564 0.894266 0.788593 -0.11473
C_ C_ 0.299282 0.909142 0.784188 -0.11473
C_ C_ 0.184063 0.847336 0.748643 -0.02249
C_ C_ 0.427485 0.854301 0.759582 -0.02249
C_ C_ 0.23472 0.961532 0.741642 -0.02249
C_ C_ 0.480515 0.967002 0.757404 -0.02249
C_ C_ 0.211819 0.901144 0.784341 -0.11473
C_ C_ 0.461236 0.906079 0.796297 -0.11473
C_ C_ 0.189376 0.865164 0.709824 -0.11473
C_ C_ 0.430103 0.879449 0.722746 -0.11473
C_ C_ 0.196384 0.864546 0.786257 -0.11473
C_ C_ 0.443214 0.869175 0.797426 -0.11473
C_ C_ 0.217213 0.921932 0.744819 -0.02249
C_ C_ 0.462843 0.928454 0.759234 -0.02249
C_ C_ 0.164352 0.811126 0.751637 0.6875
C_ C_ 0.409589 0.814722 0.759793 0.6875
C_ C_ 0.207443 0.900368 0.706579 -0.11473
C_ C_ 0.445231 0.918018 0.723794 -0.11473
C_ C_ 0.185714 0.650909 0.756187 -0.02249
C_ C_ 0.432442 0.649514 0.758634 -0.02249
C_ C_ 0.232316 0.534181 0.752251 -0.02249
C_ C_ 0.485438 0.53829 0.750442 -0.02249
C_ C_ 0.206775 0.591508 0.7923 -0.11473
C_ C_ 0.461643 0.596054 0.794603 -0.11473
C_ C_ 0.193906 0.633724 0.716751 -0.11473
C_ C_ 0.442039 0.634357 0.719476 -0.11473
C_ C_ 0.193217 0.629398 0.792663 -0.11473
C_ C_ 0.441218 0.629029 0.795138 -0.11473
C_ C_ 0.214701 0.573964 0.754167 -0.02249
C_ C_ 0.469823 0.57949 0.754876 -0.02249
C_ C_ 0.164445 0.68922 0.757549 0.6875
C_ C_ 0.414715 0.688028 0.759546 0.6875
C_ C_ 0.206603 0.593803 0.715289 -0.11473
C_ C_ 0.463407 0.602328 0.717694 -0.11473
C_ C_ 0.0684267 0.651348 0.754912 -0.02249
C_ C_ 0.309636 0.652652 0.756226 -0.02249
C_ C_ 0.0180463 0.538296 0.752356 -0.02249
C_ C_ 0.262942 0.535485 0.748181 -0.02249
C_ C_ 0.0534884 0.589629 0.718918 -0.11473
C_ C_ 0.287492 0.59697 0.714014 -0.11473
C_ C_ 0.0570383 0.635251 0.792266 -0.11473
C_ C_ 0.301993 0.63225 0.791966 -0.11473
C_ C_ 0.0701366 0.62457 0.721497 -0.11473
C_ C_ 0.300375 0.636339 0.717069 -0.11473
C_ C_ 0.0374388 0.576107 0.754141 -0.02249
C_ C_ 0.279592 0.576488 0.751373 -0.02249
C_ C_ 0.0868895 0.690716 0.755514 0.6875
C_ C_ 0.331008 0.69015 0.758107 0.6875
C_ C_ 0.0408866 0.59776 0.791334 -0.11473
C_ C_ 0.286904 0.594399 0.790099 -0.11473
C_ C_ 0.125386 0.787946 0.879987 0.17695
C_ C_ 0.358514 0.721728 0.88919 0.17695
C_ C_ 0.118151 0.715617 0.883587 0.17695
C_ C_ 0.399361 0.768437 0.889932 0.17695
C_ C_ 0.114951 0.717392 0.92681 -0.11473
C_ C_ 0.402055 0.765052 0.933202 -0.11473
C_ C_ 0.117114 0.755602 0.946685 0.23465
C_ C_ 0.382997 0.738668 0.955671 0.23465
C_ C_ 0.121091 0.791524 0.921655 -0.11473
C_ C_ 0.360751 0.716649 0.933328 -0.11473
C_ C_ 0.117232 0.709961 0.632363 0.17695
C_ C_ 0.381526 0.774534 0.630276 0.17695
C_ C_ 0.138846 0.776252 0.624833 0.17695
C_ C_ 0.352712 0.712945 0.631761 0.17695
C_ C_ 0.139668 0.77235 0.581572 -0.11473
C_ C_ 0.351839 0.713275 0.586989 -0.11473
C_ C_ 0.128855 0.735734 0.562346 0.23465
C_ C_ 0.365923 0.743899 0.563247 0.23465
C_ C_ 0.118665 0.704134 0.588563 -0.11473
C_ C_ 0.380648 0.776214 0.58649 -0.11473
C_ C_ 0.0310332 -0.0003309999999999702 0.763048 0.05793
C_ C_ 0.28264 -0.0027880000000000127 0.749156 0.05793
C_ C_ 0.216475 0.49511 0.750082 0.05793
C_ C_ 0.469224 0.501392 0.747293 0.05793
Br Br 0.0715652 0.00176653 0.78979 -0.17191
Br Br 0.327561 -0.005400999999999989 0.755063 -0.17191
Br Br 0.174551 0.493001 0.750849 -0.17191
Br Br 0.426188 0.504976 0.755879 -0.17191
N_ N_ 0.122959 0.751103 0.861716 -0.272
N_ N_ 0.379086 0.745751 0.867934 -0.272
N_ N_ 0.111185 0.757799 0.991111 -0.12501
N_ N_ 0.385327 0.734685 1.00134 -0.12501
N_ N_ 0.126976 0.746188 0.650207 -0.272
N_ N_ 0.366433 0.745274 0.652297 -0.272
N_ N_ 0.131218 0.729444 0.518578 -0.12501
N_ N_ 0.362281 0.741693 0.517785 -0.12501
O_ O_ 0.096683 0.797896 0.717119 -0.60745
O_ O_ 0.336364 0.784209 0.722843 -0.60745
O_ O_ 0.0946716 0.789576 0.785423 -0.60745
O_ O_ 0.343549 0.79108 0.793048 -0.60745
O_ O_ 0.154124 0.799836 0.787226 -0.60745
O_ O_ 0.404215 0.796063 0.795013 -0.60745
O_ O_ 0.158218 0.791728 0.717928 -0.60745
O_ O_ 0.4006 0.798183 0.7252 -0.60745
O_ O_ 0.15848 0.708527 0.791515 -0.60745
O_ O_ 0.402048 0.69847 0.794737 -0.60745
O_ O_ 0.153825 0.704143 0.723537 -0.60745
O_ O_ 0.407281 0.707202 0.725294 -0.60745
O_ O_ 0.0917464 0.70854 0.722311 -0.60745
O_ O_ 0.343637 0.700255 0.724915 -0.60745
O_ O_ 0.0973368 0.705307 0.790058 -0.60745
O_ O_ 0.342251 0.701619 0.793357 -0.60745
Zn Zn 0.628267 0.254489 0.281736 0.9476
Zn Zn 0.875186 0.246203 0.28389 0.9476
Zn Zn 0.626066 0.248544 0.214395 0.9476
Zn Zn 0.872917 0.250784 0.214932 0.9476
H_ H_ 0.540169 0.417788 0.17854 0.10932
H_ H_ 0.787844 0.41646 0.182215 0.10932
H_ H_ 0.561981 0.346985 0.313927 0.10932
H_ H_ 0.819686 0.356694 0.320916 0.10932
H_ H_ 0.574678 0.3608 0.181988 0.10932
H_ H_ 0.814548 0.354411 0.18666 0.10932
H_ H_ 0.52556 0.407546 0.310907 0.10932
H_ H_ 0.793268 0.425311 0.318027 0.10932
H_ H_ 0.733555 0.407981 0.308177 0.10932
H_ H_ 0.957184 0.427379 0.312354 0.10932
H_ H_ 0.67811 0.361209 0.181118 0.10932
H_ H_ 0.946021 0.342757 0.185636 0.10932
H_ H_ 0.70192 0.349344 0.313581 0.10932
H_ H_ 0.924288 0.366616 0.31438 0.10932
H_ H_ 0.709563 0.425349 0.17883 0.10932
H_ H_ 0.96819 0.410895 0.180097 0.10932
H_ H_ 0.724678 0.0925885 0.322792 0.10932
H_ H_ 0.961873 0.0728967 0.311316 0.10932
H_ H_ 0.670723 0.138982 0.190923 0.10932
H_ H_ 0.931585 0.136303 0.173458 0.10932
H_ H_ 0.700552 0.164884 0.319373 0.10932
H_ H_ 0.936313 0.143175 0.309776 0.10932
H_ H_ 0.702003 0.0740346 0.193005 0.10932
H_ H_ 0.959516 0.0703267 0.176169 0.10932
H_ H_ 0.527487 0.0874481 0.183731 0.10932
H_ H_ 0.77763 0.0840683 0.182516 0.10932
H_ H_ 0.578736 0.145531 0.309579 0.10932
H_ H_ 0.824565 0.137523 0.31096 0.10932
H_ H_ 0.554705 0.154816 0.17772 0.10932
H_ H_ 0.804479 0.152558 0.18071 0.10932
H_ H_ 0.549437 0.0808597 0.318043 0.10932
H_ H_ 0.793998 0.0747817 0.313985 0.10932
H_ H_ 0.633035 0.189586 0.353068 0.10932
H_ H_ 0.87701 0.180722 0.356181 0.10932
H_ H_ 0.615601 0.31477 0.360893 0.10932
H_ H_ 0.872936 0.308821 0.363476 0.10932
H_ H_ 0.614094 0.313017 0.439405 0.10932
H_ H_ 0.867277 0.305842 0.439625 0.10932
H_ H_ 0.630038 0.183308 0.432523 0.10932
H_ H_ 0.8786 0.174843 0.431288 0.10932
H_ H_ 0.63281 0.194958 0.136898 0.10932
H_ H_ 0.877651 0.322259 0.143722 0.10932
H_ H_ 0.626066 0.321197 0.141739 0.10932
H_ H_ 0.867999 0.1937 0.140448 0.10932
H_ H_ 0.625389 0.325687 0.0658245 0.10932
H_ H_ 0.861766 0.193159 0.0621959 0.10932
H_ H_ 0.63192 0.193478 0.0579014 0.10932
H_ H_ 0.87646 0.326943 0.0674214 0.10932
C_ C_ 0.567215 0.346361 0.247924 -0.02249
C_ C_ 0.819071 0.349435 0.25419 -0.02249
C_ C_ 0.514652 0.459067 0.24992 -0.02249
C_ C_ 0.770052 0.466282 0.25097 -0.02249
C_ C_ 0.544154 0.404358 0.208602 -0.11473
C_ C_ 0.796239 0.408696 0.213521 -0.11473
C_ C_ 0.554356 0.362022 0.284407 -0.11473
C_ C_ 0.815513 0.372412 0.291828 -0.11473
C_ C_ 0.562506 0.368382 0.210955 -0.11473
C_ C_ 0.810914 0.370178 0.216112 -0.11473
C_ C_ 0.532749 0.420268 0.246392 -0.02249
C_ C_ 0.790052 0.428726 0.25064 -0.02249
C_ C_ 0.586326 0.308927 0.249744 0.6875
C_ C_ 0.840309 0.312307 0.253416 0.6875
C_ C_ 0.537695 0.398305 0.284101 -0.11473
C_ C_ 0.801113 0.411478 0.289674 -0.11473
C_ C_ 0.684958 0.351682 0.249562 -0.02249
C_ C_ 0.935011 0.347186 0.25066 -0.02249
C_ C_ 0.739298 0.462132 0.242588 -0.02249
C_ C_ 0.982601 0.465268 0.245012 -0.02249
C_ C_ 0.720844 0.400822 0.280264 -0.11473
C_ C_ 0.950045 0.414565 0.282317 -0.11473
C_ C_ 0.688502 0.373653 0.209406 -0.11473
C_ C_ 0.947173 0.360538 0.21308 -0.11473
C_ C_ 0.702363 0.364613 0.283294 -0.11473
C_ C_ 0.934496 0.376919 0.28395 -0.11473
C_ C_ 0.723489 0.423065 0.24314 -0.02249
C_ C_ 0.965048 0.425694 0.246395 -0.02249
C_ C_ 0.662821 0.315728 0.250873 0.6875
C_ C_ 0.914348 0.309694 0.253005 0.6875
C_ C_ 0.709267 0.408421 0.207663 -0.11473
C_ C_ 0.961809 0.399193 0.211164 -0.11473
C_ C_ 0.686026 0.156475 0.254169 -0.02249
C_ C_ 0.930141 0.145064 0.241255 -0.02249
C_ C_ 0.734105 0.0398921 0.258664 -0.02249
C_ C_ 0.984741 0.0346609 0.243986 -0.02249
C_ C_ 0.715365 0.104918 0.294474 -0.11473
C_ C_ 0.957614 0.0908445 0.28091 -0.11473
C_ C_ 0.685948 0.130727 0.219409 -0.11473
C_ C_ 0.937894 0.123787 0.204103 -0.11473
C_ C_ 0.699412 0.143501 0.292642 -0.11473
C_ C_ 0.941382 0.12892 0.280423 -0.11473
C_ C_ 0.718139 0.0800454 0.257276 -0.02249
C_ C_ 0.965756 0.0724097 0.242924 -0.02249
C_ C_ 0.667288 0.193579 0.250286 0.6875
C_ C_ 0.913316 0.185909 0.24049 0.6875
C_ C_ 0.702043 0.0933435 0.219187 -0.11473
C_ C_ 0.954224 0.087048 0.205176 -0.11473
C_ C_ 0.569379 0.153778 0.244724 -0.02249
C_ C_ 0.811774 0.153122 0.247608 -0.02249
C_ C_ 0.521569 0.0388537 0.253293 -0.02249
C_ C_ 0.765324 0.0387497 0.252125 -0.02249
C_ C_ 0.538608 0.0994808 0.211537 -0.11473
C_ C_ 0.785076 0.0978432 0.210647 -0.11473
C_ C_ 0.56852 0.131565 0.282488 -0.11473
C_ C_ 0.808139 0.132068 0.285124 -0.11473
C_ C_ 0.555534 0.136057 0.207749 -0.11473
C_ C_ 0.802848 0.13501 0.210476 -0.11473
C_ C_ 0.53847 0.0780778 0.250406 -0.02249
C_ C_ 0.781822 0.0781104 0.249135 -0.02249
C_ C_ 0.587328 0.193231 0.243711 0.6875
C_ C_ 0.835103 0.188344 0.246399 0.6875
C_ C_ 0.55144 0.0958863 0.287078 -0.11473
C_ C_ 0.790805 0.0955645 0.286421 -0.11473
C_ C_ 0.628586 0.214912 0.373321 0.17695
C_ C_ 0.872536 0.20696 0.374741 0.17695
C_ C_ 0.620875 0.286426 0.376763 0.17695
C_ C_ 0.877872 0.279794 0.3785 0.17695
C_ C_ 0.620792 0.286109 0.421277 -0.11473
C_ C_ 0.877812 0.278809 0.422677 -0.11473
C_ C_ 0.624954 0.24799 0.442145 0.23465
C_ C_ 0.872583 0.240246 0.442153 0.23465
C_ C_ 0.626606 0.212914 0.417221 -0.11473
C_ C_ 0.874455 0.205321 0.418123 -0.11473
C_ C_ 0.628828 0.220525 0.120451 0.17695
C_ C_ 0.874684 0.294279 0.125697 0.17695
C_ C_ 0.628856 0.293775 0.122636 0.17695
C_ C_ 0.865451 0.222027 0.122359 0.17695
C_ C_ 0.626854 0.296231 0.0792987 -0.11473
C_ C_ 0.864926 0.222609 0.0789921 -0.11473
C_ C_ 0.626652 0.260509 0.0557159 0.23465
C_ C_ 0.870272 0.260711 0.0582912 0.23465
C_ C_ 0.626811 0.221889 0.0769527 -0.11473
C_ C_ 0.873273 0.296926 0.0819221 -0.11473
C_ C_ 0.530355 0.496315 0.253908 0.05793
C_ C_ 0.783583 0.504565 0.258554 0.05793
C_ C_ 0.719147 1.00221498 0.266747 0.05793
C_ C_ 0.971871 0.996388 0.239914 0.05793
Br Br 0.574008 0.496902 0.260224 -0.17191
Br Br 0.824584 0.510183 0.279324 -0.17191
Br Br 0.679488 0.00171424 0.287632 -0.17191
Br Br 0.928958 -0.006639999999999979 0.229877 -0.17191
N_ N_ 0.623553 0.250456 0.354225 -0.272
N_ N_ 0.872476 0.24368 0.35481 -0.272
N_ N_ 0.62918 0.244856 0.486318 -0.12501
N_ N_ 0.87184 0.235336 0.487307 -0.12501
N_ N_ 0.628722 0.256498 0.142341 -0.272
N_ N_ 0.86959 0.25763 0.14403 -0.272
N_ N_ 0.621771 0.264137 0.0112605 -0.12501
N_ N_ 0.86686 0.263872 0.0141027 -0.12501
O_ O_ 0.597501 0.294955 0.21583 -0.60745
O_ O_ 0.849981 0.301021 0.217927 -0.60745
O_ O_ 0.59457 0.293773 0.284423 -0.60745
O_ O_ 0.845302 0.292049 0.286787 -0.60745
O_ O_ 0.655837 0.301259 0.286069 -0.60745
O_ O_ 0.906264 0.293088 0.287222 -0.60745
O_ O_ 0.657072 0.295328 0.216883 -0.60745
O_ O_ 0.90743 0.290573 0.218988 -0.60745
O_ O_ 0.662274 0.214998 0.28341 -0.60745
O_ O_ 0.907311 0.201626 0.275995 -0.60745
O_ O_ 0.658622 0.207775 0.213891 -0.60745
O_ O_ 0.898591 0.199085 0.209356 -0.60745
O_ O_ 0.592964 0.209156 0.208868 -0.60745
O_ O_ 0.838811 0.209805 0.213303 -0.60745
O_ O_ 0.5971 0.21015 0.276604 -0.60745
O_ O_ 0.843845 0.203512 0.281001 -0.60745
Zn Zn 0.628036 0.25494 0.781086 0.9476
Zn Zn 0.875485 0.254371 0.784432 0.9476
Zn Zn 0.624355 0.25029 0.710395 0.9476
Zn Zn 0.874903 0.251142 0.715399 0.9476
H_ H_ 0.531402 0.409699 0.678665 0.10932
H_ H_ 0.78367 0.41698 0.681226 0.10932
H_ H_ 0.568401 0.357331 0.817092 0.10932
H_ H_ 0.82602 0.3677 0.816729 0.10932
H_ H_ 0.560374 0.348912 0.683176 0.10932
H_ H_ 0.811002 0.354233 0.682685 0.10932
H_ H_ 0.545247 0.42495 0.810397 0.10932
H_ H_ 0.790372 0.422587 0.817885 0.10932
H_ H_ 0.700332 0.433897 0.807731 0.10932
H_ H_ 0.964433 0.417889 0.817186 0.10932
H_ H_ 0.695562 0.344769 0.684732 0.10932
H_ H_ 0.939479 0.350774 0.681423 0.10932
H_ H_ 0.670142 0.371238 0.80863 0.10932
H_ H_ 0.938468 0.348198 0.81817 0.10932
H_ H_ 0.717937 0.415856 0.681966 0.10932
H_ H_ 0.960995 0.418199 0.683901 0.10932
H_ H_ 0.707521 0.0717238 0.809614 0.10932
H_ H_ 0.952831 0.0785212 0.818252 0.10932
H_ H_ 0.686653 0.149842 0.680262 0.10932
H_ H_ 0.942441 0.151532 0.683659 0.10932
H_ H_ 0.683936 0.140416 0.81423 0.10932
H_ H_ 0.927938 0.144326 0.818198 0.10932
H_ H_ 0.71656 0.0840564 0.677795 0.10932
H_ H_ 0.967173 0.0847918 0.687541 0.10932
H_ H_ 0.524848 0.0876192 0.684605 0.10932
H_ H_ 0.792746 0.0824741 0.676412 0.10932
H_ H_ 0.575867 0.139057 0.813272 0.10932
H_ H_ 0.819531 0.145387 0.812387 0.10932
H_ H_ 0.554772 0.148886 0.676349 0.10932
H_ H_ 0.816544 0.15242 0.679284 0.10932
H_ H_ 0.545559 0.0790953 0.813933 0.10932
H_ H_ 0.790703 0.0809517 0.811202 0.10932
H_ H_ 0.627735 0.313567 0.862527 0.10932
H_ H_ 0.92236 0.253113 0.858768 0.10932
H_ H_ 0.628924 0.181263 0.852994 0.10932
H_ H_ 0.828844 0.229171 0.863671 0.10932
H_ H_ 0.621203 0.175456 0.929974 0.10932
H_ H_ 0.830193 0.241197 0.94056 0.10932
H_ H_ 0.623674 0.307704 0.940209 0.10932
H_ H_ 0.926106 0.241066 0.936895 0.10932
H_ H_ 0.648311 0.202507 0.630126 0.10932
H_ H_ 0.864589 0.317729 0.648059 0.10932
H_ H_ 0.601101 0.317186 0.646763 0.10932
H_ H_ 0.873769 0.189941 0.638073 0.10932
H_ H_ 0.595368 0.316159 0.563222 0.10932
H_ H_ 0.882524 0.195518 0.561531 0.10932
H_ H_ 0.637459 0.201253 0.55627 0.10932
H_ H_ 0.855722 0.324131 0.57125 0.10932
C_ C_ 0.568442 0.349233 0.750276 -0.02249
C_ C_ 0.819821 0.354003 0.749796 -0.02249
C_ C_ 0.516558 0.462692 0.745443 -0.02249
C_ C_ 0.764955 0.462796 0.74913 -0.02249
C_ C_ 0.539208 0.400213 0.710766 -0.11473
C_ C_ 0.792023 0.406034 0.710552 -0.11473
C_ C_ 0.561308 0.368949 0.787077 -0.11473
C_ C_ 0.815657 0.376675 0.787002 -0.11473
C_ C_ 0.556904 0.363714 0.713007 -0.11473
C_ C_ 0.809319 0.371691 0.711809 -0.11473
C_ C_ 0.533338 0.423237 0.746265 -0.02249
C_ C_ 0.781722 0.422338 0.749044 -0.02249
C_ C_ 0.588388 0.313051 0.751821 0.6875
C_ C_ 0.840078 0.317437 0.748528 0.6875
C_ C_ 0.545433 0.406819 0.783714 -0.11473
C_ C_ 0.794569 0.406535 0.787572 -0.11473
C_ C_ 0.685299 0.348876 0.749027 -0.02249
C_ C_ 0.935142 0.347193 0.749671 -0.02249
C_ C_ 0.732444 0.464373 0.746997 -0.02249
C_ C_ 0.982038 0.464288 0.752867 -0.02249
C_ C_ 0.701778 0.4132 0.78231 -0.11473
C_ C_ 0.955762 0.405369 0.788864 -0.11473
C_ C_ 0.698149 0.36321 0.711764 -0.11473
C_ C_ 0.942148 0.366233 0.71239 -0.11473
C_ C_ 0.685949 0.375524 0.784575 -0.11473
C_ C_ 0.944883 0.36459 0.788247 -0.11473
C_ C_ 0.713824 0.426393 0.7454 -0.02249
C_ C_ 0.963139 0.426169 0.750203 -0.02249
C_ C_ 0.666036 0.312773 0.750545 0.6875
C_ C_ 0.918436 0.306768 0.749909 0.6875
C_ C_ 0.712634 0.40079 0.711999 -0.11473
C_ C_ 0.953629 0.406845 0.713143 -0.11473
C_ C_ 0.68326 0.151078 0.74579 -0.02249
C_ C_ 0.931713 0.152821 0.750773 -0.02249
C_ C_ 0.735252 0.03967 0.7451 -0.02249
C_ C_ 0.981416 0.0375385 0.756535 -0.02249
C_ C_ 0.706367 0.0929342 0.782962 -0.11473
C_ C_ 0.95031 0.0943697 0.78866 -0.11473
C_ C_ 0.692285 0.134746 0.707678 -0.11473
C_ C_ 0.944144 0.135279 0.714533 -0.11473
C_ C_ 0.688787 0.128507 0.784018 -0.11473
C_ C_ 0.935277 0.132135 0.788362 -0.11473
C_ C_ 0.717661 0.0791856 0.745953 -0.02249
C_ C_ 0.963539 0.076751 0.753591 -0.02249
C_ C_ 0.666746 0.191725 0.746712 0.6875
C_ C_ 0.913283 0.191563 0.748171 0.6875
C_ C_ 0.710651 0.0996318 0.707445 -0.11473
C_ C_ 0.958995 0.0969363 0.716348 -0.11473
C_ C_ 0.569097 0.150368 0.742543 -0.02249
C_ C_ 0.818078 0.156182 0.746171 -0.02249
C_ C_ 0.515153 0.0419468 0.750717 -0.02249
C_ C_ 0.767422 0.04065 0.743657 -0.02249
C_ C_ 0.535731 0.100366 0.710094 -0.11473
C_ C_ 0.793758 0.100076 0.707123 -0.11473
C_ C_ 0.563929 0.132023 0.782831 -0.11473
C_ C_ 0.809987 0.135546 0.782751 -0.11473
C_ C_ 0.552415 0.137322 0.707196 -0.11473
C_ C_ 0.811015 0.136219 0.70762 -0.11473
C_ C_ 0.533363 0.0807023 0.749365 -0.02249
C_ C_ 0.784059 0.0813009 0.744294 -0.02249
C_ C_ 0.586269 0.190261 0.741404 0.6875
C_ C_ 0.837524 0.194004 0.747566 0.6875
C_ C_ 0.544655 0.0985865 0.786234 -0.11473
C_ C_ 0.796653 0.0951256 0.782231 -0.11473
C_ C_ 0.62607 0.283234 0.877941 0.17695
C_ C_ 0.902344 0.246249 0.876968 0.17695
C_ C_ 0.627002 0.209969 0.871653 0.17695
C_ C_ 0.849605 0.239844 0.879947 0.17695
C_ C_ 0.625603 0.205292 0.915931 -0.11473
C_ C_ 0.850803 0.24194 0.923662 -0.11473
C_ C_ 0.625416 0.240135 0.940937 0.23465
C_ C_ 0.878668 0.244695 0.945506 0.23465
C_ C_ 0.623538 0.279929 0.921773 -0.11473
C_ C_ 0.904216 0.240455 0.920284 -0.11473
C_ C_ 0.636564 0.228975 0.617505 0.17695
C_ C_ 0.864756 0.290265 0.627215 0.17695
C_ C_ 0.612314 0.294763 0.624906 0.17695
C_ C_ 0.87193 0.217407 0.620745 0.17695
C_ C_ 0.610854 0.295775 0.580363 -0.11473
C_ C_ 0.875084 0.222083 0.577875 -0.11473
C_ C_ 0.624668 0.26541 0.557168 0.23465
C_ C_ 0.866461 0.259362 0.55748 0.23465
C_ C_ 0.635442 0.230188 0.573736 -0.11473
C_ C_ 0.86231 0.293497 0.582655 -0.11473
C_ C_ 0.532041 0.499919 0.743595 0.05793
C_ C_ 0.781226 0.501763 0.749399 0.05793
C_ C_ 0.720171 0.00104203 0.743133 0.05793
C_ C_ 0.967392 -0.0016279999999999628 0.757058 0.05793
Br Br 0.576572 0.50143 0.739459 -0.17191
Br Br 0.825026 0.498967 0.751654 -0.17191
Br Br 0.677321 0.000686696 0.734483 -0.17191
Br Br 0.925667 -0.005471000000000004 0.762274 -0.17191
N_ N_ 0.629476 0.248805 0.853749 -0.272
N_ N_ 0.874683 0.247425 0.855201 -0.272
N_ N_ 0.631146 0.237115 0.986192 -0.12501
N_ N_ 0.880867 0.240727 0.989992 -0.12501
N_ N_ 0.624559 0.260012 0.642305 -0.272
N_ N_ 0.869132 0.251522 0.644249 -0.272
N_ N_ 0.623651 0.272262 0.512838 -0.12501
N_ N_ 0.867508 0.265358 0.512135 -0.12501
O_ O_ 0.593669 0.291804 0.719467 -0.60745
O_ O_ 0.844604 0.298212 0.714923 -0.60745
O_ O_ 0.600276 0.300987 0.784865 -0.60745
O_ O_ 0.847792 0.300937 0.78274 -0.60745
O_ O_ 0.660524 0.294209 0.78414 -0.60745
O_ O_ 0.908868 0.293398 0.784657 -0.60745
O_ O_ 0.655952 0.299212 0.71666 -0.60745
O_ O_ 0.906179 0.293245 0.717555 -0.60745
O_ O_ 0.657548 0.206526 0.781849 -0.60745
O_ O_ 0.903786 0.206464 0.780246 -0.60745
O_ O_ 0.658397 0.209827 0.71207 -0.60745
O_ O_ 0.905518 0.208201 0.712545 -0.60745
O_ O_ 0.596092 0.202346 0.70674 -0.60745
O_ O_ 0.844281 0.211375 0.714223 -0.60745
O_ O_ 0.595725 0.207455 0.774595 -0.60745
O_ O_ 0.84199 0.211788 0.783188 -0.60745
Zn Zn 0.625064 0.748343 0.284332 0.9476
Zn Zn 0.876027 0.7526 0.27838 0.9476
Zn Zn 0.624125 0.749069 0.214783 0.9476
Zn Zn 0.873265 0.752294 0.208594 0.9476
H_ H_ 0.535087 0.91623 0.183313 0.10932
H_ H_ 0.776863 0.91736 0.180344 0.10932
H_ H_ 0.562501 0.848064 0.316591 0.10932
H_ H_ 0.811229 0.851188 0.315438 0.10932
H_ H_ 0.552954 0.843164 0.183657 0.10932
H_ H_ 0.811542 0.859433 0.17546 0.10932
H_ H_ 0.539328 0.915239 0.317087 0.10932
H_ H_ 0.777988 0.917044 0.314301 0.10932
H_ H_ 0.713403 0.914864 0.325929 0.10932
H_ H_ 0.968868 0.920416 0.308243 0.10932
H_ H_ 0.678485 0.863493 0.185799 0.10932
H_ H_ 0.95235 0.838126 0.176089 0.10932
H_ H_ 0.678525 0.856748 0.319355 0.10932
H_ H_ 0.940397 0.857509 0.309496 0.10932
H_ H_ 0.710474 0.928933 0.192986 0.10932
H_ H_ 0.980557 0.904237 0.176188 0.10932
H_ H_ 0.700771 0.571061 0.315782 0.10932
H_ H_ 0.957474 0.582364 0.317445 0.10932
H_ H_ 0.705365 0.66085 0.189232 0.10932
H_ H_ 0.940542 0.654543 0.179878 0.10932
H_ H_ 0.667446 0.62867 0.310281 0.10932
H_ H_ 0.930541 0.648342 0.317328 0.10932
H_ H_ 0.736136 0.60004 0.192038 0.10932
H_ H_ 0.974383 0.588995 0.184728 0.10932
H_ H_ 0.52284 0.588742 0.18436 0.10932
H_ H_ 0.795689 0.575177 0.189355 0.10932
H_ H_ 0.576968 0.627967 0.313434 0.10932
H_ H_ 0.805099 0.662602 0.315631 0.10932
H_ H_ 0.554175 0.65351 0.185249 0.10932
H_ H_ 0.817969 0.64472 0.18247 0.10932
H_ H_ 0.546709 0.569931 0.314996 0.10932
H_ H_ 0.767495 0.603327 0.315572 0.10932
H_ H_ 0.633023 0.686886 0.359421 0.10932
H_ H_ 0.884565 0.811685 0.35715 0.10932
H_ H_ 0.615321 0.811755 0.352719 0.10932
H_ H_ 0.869875 0.681706 0.346369 0.10932
H_ H_ 0.612952 0.817905 0.428311 0.10932
H_ H_ 0.87359 0.672814 0.421354 0.10932
H_ H_ 0.633524 0.688765 0.438522 0.10932
H_ H_ 0.88256 0.806017 0.432769 0.10932
H_ H_ 0.634206 0.689857 0.13376 0.10932
H_ H_ 0.865503 0.687937 0.134584 0.10932
H_ H_ 0.612071 0.81693 0.144148 0.10932
H_ H_ 0.873806 0.815522 0.129467 0.10932
H_ H_ 0.606988 0.82273 0.0675781 0.10932
H_ H_ 0.867645 0.811512 0.0519333 0.10932
H_ H_ 0.622684 0.691904 0.0547654 0.10932
H_ H_ 0.865726 0.680193 0.0644878 0.10932
C_ C_ 0.561712 0.840909 0.249702 -0.02249
C_ C_ 0.814014 0.848139 0.245491 -0.02249
C_ C_ 0.51945 0.961642 0.252631 -0.02249
C_ C_ 0.76322 0.961994 0.249981 -0.02249
C_ C_ 0.540133 0.900407 0.211917 -0.11473
C_ C_ 0.788645 0.905934 0.20896 -0.11473
C_ C_ 0.557555 0.861509 0.286548 -0.11473
C_ C_ 0.80478 0.864723 0.28581 -0.11473
C_ C_ 0.551703 0.859991 0.211914 -0.11473
C_ C_ 0.804045 0.868366 0.206802 -0.11473
C_ C_ 0.535569 0.921179 0.249276 -0.02249
C_ C_ 0.77967 0.921738 0.248297 -0.02249
C_ C_ 0.580449 0.803334 0.248555 0.6875
C_ C_ 0.835667 0.812686 0.243339 0.6875
C_ C_ 0.544122 0.901026 0.28623 -0.11473
C_ C_ 0.787319 0.902453 0.285876 -0.11473
C_ C_ 0.677363 0.85388 0.252992 -0.02249
C_ C_ 0.938484 0.846937 0.241896 -0.02249
C_ C_ 0.733062 0.964451 0.260374 -0.02249
C_ C_ 0.990836 0.960279 0.235997 -0.02249
C_ C_ 0.706118 0.902994 0.296008 -0.11473
C_ C_ 0.963297 0.905348 0.27762 -0.11473
C_ C_ 0.68705 0.875233 0.216952 -0.11473
C_ C_ 0.954916 0.855676 0.20557 -0.11473
C_ C_ 0.687832 0.867487 0.292325 -0.11473
C_ C_ 0.946354 0.869049 0.279211 -0.11473
C_ C_ 0.714788 0.924803 0.260768 -0.02249
C_ C_ 0.974226 0.919287 0.239509 -0.02249
C_ C_ 0.660825 0.812578 0.2497 0.6875
C_ C_ 0.916872 0.80938 0.243264 0.6875
C_ C_ 0.704123 0.912766 0.221102 -0.11473
C_ C_ 0.969681 0.895305 0.20361 -0.11473
C_ C_ 0.686574 0.654602 0.253029 -0.02249
C_ C_ 0.932519 0.654402 0.246996 -0.02249
C_ C_ 0.73516 0.538887 0.250808 -0.02249
C_ C_ 0.982441 0.541133 0.249359 -0.02249
C_ C_ 0.702413 0.590201 0.285769 -0.11473
C_ C_ 0.956207 0.598566 0.288627 -0.11473
C_ C_ 0.702629 0.642888 0.217412 -0.11473
C_ C_ 0.945317 0.638662 0.209316 -0.11473
C_ C_ 0.684095 0.625339 0.284908 -0.11473
C_ C_ 0.940329 0.636634 0.287818 -0.11473
C_ C_ 0.717841 0.576933 0.25108 -0.02249
C_ C_ 0.965599 0.580102 0.24943 -0.02249
C_ C_ 0.667333 0.692678 0.250607 0.6875
C_ C_ 0.913547 0.691685 0.24564 0.6875
C_ C_ 0.71756 0.604297 0.215805 -0.11473
C_ C_ 0.961038 0.600643 0.210503 -0.11473
C_ C_ 0.570848 0.644852 0.248249 -0.02249
C_ C_ 0.812177 0.660433 0.248827 -0.02249
C_ C_ 0.515219 0.535128 0.249255 -0.02249
C_ C_ 0.767289 0.54022 0.25447 -0.02249
C_ C_ 0.533402 0.600155 0.21304 -0.11473
C_ C_ 0.797436 0.594709 0.216942 -0.11473
C_ C_ 0.566547 0.62058 0.284167 -0.11473
C_ C_ 0.800259 0.645188 0.286925 -0.11473
C_ C_ 0.553734 0.634158 0.21168 -0.11473
C_ C_ 0.812107 0.634376 0.213549 -0.11473
C_ C_ 0.529962 0.57622 0.24965 -0.02249
C_ C_ 0.782751 0.582026 0.254315 -0.02249
C_ C_ 0.589981 0.682818 0.24924 0.6875
C_ C_ 0.830329 0.69928 0.246881 0.6875
C_ C_ 0.545454 0.588551 0.286545 -0.11473
C_ C_ 0.782456 0.608337 0.288534 -0.11473
C_ C_ 0.6273 0.714407 0.375591 0.17695
C_ C_ 0.880591 0.781226 0.372424 0.17695
C_ C_ 0.622038 0.78666 0.371775 0.17695
C_ C_ 0.87499 0.708906 0.366455 0.17695
C_ C_ 0.618909 0.788358 0.41443 -0.11473
C_ C_ 0.873463 0.704429 0.40944 -0.11473
C_ C_ 0.623514 0.754003 0.440364 0.23465
C_ C_ 0.876038 0.739874 0.435799 0.23465
C_ C_ 0.628318 0.71522 0.420658 -0.11473
C_ C_ 0.879622 0.778163 0.415548 -0.11473
C_ C_ 0.627855 0.718668 0.118042 0.17695
C_ C_ 0.864567 0.715846 0.118064 0.17695
C_ C_ 0.615704 0.789195 0.124968 0.17695
C_ C_ 0.871963 0.788257 0.113911 0.17695
C_ C_ 0.612785 0.792627 0.0810085 -0.11473
C_ C_ 0.870045 0.784775 0.0697317 -0.11473
C_ C_ 0.617217 0.757669 0.0550398 0.23465
C_ C_ 0.869567 0.745845 0.0497021 0.23465
C_ C_ 0.62156 0.719644 0.07459 -0.11473
C_ C_ 0.867071 0.710724 0.0742931 -0.11473
C_ C_ 0.534729 0.9989021 0.245487 0.05793
C_ C_ 0.779322 0.99870077 0.252196 0.05793
C_ C_ 0.720392 0.499184 0.245611 0.05793
C_ C_ 0.966874 0.502537 0.246403 0.05793
Br Br 0.573519 0.99754 0.218373 -0.17191
Br Br 0.822624 0.9973922 0.244511 -0.17191
Br Br 0.677505 0.49685 0.234788 -0.17191
Br Br 0.924786 0.502684 0.258216 -0.17191
N_ N_ 0.624726 0.749778 0.352746 -0.272
N_ N_ 0.878612 0.745937 0.34807 -0.272
N_ N_ 0.616431 0.757085 0.48414 -0.12501
N_ N_ 0.879809 0.737177 0.479137 -0.12501
N_ N_ 0.623949 0.752086 0.142937 -0.272
N_ N_ 0.871173 0.752144 0.13792 -0.272
N_ N_ 0.615277 0.760789 0.0113971 -0.12501
N_ N_ 0.866027 0.74181 0.00550222 -0.12501
O_ O_ 0.59173 0.791059 0.213398 -0.60745
O_ O_ 0.840332 0.795325 0.20899 -0.60745
O_ O_ 0.588975 0.785271 0.283106 -0.60745
O_ O_ 0.844594 0.795297 0.278027 -0.60745
O_ O_ 0.649377 0.796009 0.282298 -0.60745
O_ O_ 0.910278 0.792259 0.277857 -0.60745
O_ O_ 0.655418 0.794597 0.215631 -0.60745
O_ O_ 0.906002 0.795526 0.209611 -0.60745
O_ O_ 0.660095 0.71238 0.283356 -0.60745
O_ O_ 0.901193 0.7021 0.278517 -0.60745
O_ O_ 0.657527 0.703905 0.215392 -0.60745
O_ O_ 0.905063 0.708391 0.2114 -0.60745
O_ O_ 0.595278 0.701473 0.21434 -0.60745
O_ O_ 0.840636 0.711941 0.211924 -0.60745
O_ O_ 0.597881 0.697919 0.283292 -0.60745
O_ O_ 0.841348 0.714641 0.279763 -0.60745
Zn Zn 0.619119 0.75612 0.780455 0.9476
Zn Zn 0.875099 0.750487 0.779087 0.9476
Zn Zn 0.623459 0.753448 0.712123 0.9476
Zn Zn 0.88059 0.751088 0.70664 0.9476
H_ H_ 0.510841 0.911216 0.688139 0.10932
H_ H_ 0.800467 0.934914 0.686484 0.10932
H_ H_ 0.557476 0.85242 0.814241 0.10932
H_ H_ 0.799872 0.839393 0.806232 0.10932
H_ H_ 0.545068 0.848436 0.680858 0.10932
H_ H_ 0.828219 0.868832 0.681121 0.10932
H_ H_ 0.542649 0.92347 0.815262 0.10932
H_ H_ 0.776519 0.906147 0.812404 0.10932
H_ H_ 0.718325 0.919298 0.812993 0.10932
H_ H_ 0.97258 0.906346 0.813472 0.10932
H_ H_ 0.690334 0.850387 0.674783 0.10932
H_ H_ 0.931924 0.859689 0.67873 0.10932
H_ H_ 0.683666 0.855852 0.810089 0.10932
H_ H_ 0.938722 0.8487 0.813001 0.10932
H_ H_ 0.722809 0.912347 0.67789 0.10932
H_ H_ 0.964646 0.919858 0.679538 0.10932
H_ H_ 0.714334 0.590779 0.816084 0.10932
H_ H_ 0.951514 0.574154 0.807755 0.10932
H_ H_ 0.6848 0.648243 0.679775 0.10932
H_ H_ 0.956497 0.661215 0.682618 0.10932
H_ H_ 0.686137 0.654361 0.816516 0.10932
H_ H_ 0.92729 0.643218 0.812168 0.10932
H_ H_ 0.710225 0.580601 0.682641 0.10932
H_ H_ 0.982676 0.599411 0.684329 0.10932
H_ H_ 0.52782 0.584477 0.682583 0.10932
H_ H_ 0.794266 0.577095 0.683711 0.10932
H_ H_ 0.564007 0.65166 0.817666 0.10932
H_ H_ 0.802782 0.663909 0.80679 0.10932
H_ H_ 0.556525 0.651617 0.681977 0.10932
H_ H_ 0.830426 0.634311 0.681748 0.10932
H_ H_ 0.536228 0.582008 0.819038 0.10932
H_ H_ 0.775917 0.596114 0.813427 0.10932
H_ H_ 0.626188 0.682267 0.848745 0.10932
H_ H_ 0.882268 0.690809 0.860951 0.10932
H_ H_ 0.613504 0.810991 0.862457 0.10932
H_ H_ 0.879606 0.822047 0.848736 0.10932
H_ H_ 0.617824 0.803537 0.943644 0.10932
H_ H_ 0.870888 0.827097 0.925738 0.10932
H_ H_ 0.621137 0.673942 0.927729 0.10932
H_ H_ 0.868739 0.698022 0.934799 0.10932
H_ H_ 0.610645 0.683269 0.646033 0.10932
H_ H_ 0.877009 0.818009 0.637651 0.10932
H_ H_ 0.613037 0.810714 0.629385 0.10932
H_ H_ 0.873732 0.688248 0.628793 0.10932
H_ H_ 0.612945 0.801136 0.553875 0.10932
H_ H_ 0.866432 0.691474 0.552537 0.10932
H_ H_ 0.628985 0.67265 0.568409 0.10932
H_ H_ 0.873641 0.824536 0.559862 0.10932
C_ C_ 0.557406 0.846385 0.746926 -0.02249
C_ C_ 0.818335 0.849561 0.744029 -0.02249
C_ C_ 0.512049 0.965304 0.752492 -0.02249
C_ C_ 0.769138 0.964043 0.750556 -0.02249
C_ C_ 0.52586 0.899808 0.713467 -0.11473
C_ C_ 0.80173 0.914776 0.71157 -0.11473
C_ C_ 0.55314 0.86713 0.785892 -0.11473
C_ C_ 0.800114 0.859197 0.779622 -0.11473
C_ C_ 0.543992 0.864623 0.710154 -0.11473
C_ C_ 0.818584 0.878453 0.710812 -0.11473
C_ C_ 0.527239 0.923467 0.749177 -0.02249
C_ C_ 0.787874 0.926086 0.749184 -0.02249
C_ C_ 0.579332 0.810367 0.74718 0.6875
C_ C_ 0.839998 0.814666 0.747122 0.6875
C_ C_ 0.541575 0.906661 0.78473 -0.11473
C_ C_ 0.786725 0.899 0.783206 -0.11473
C_ C_ 0.682533 0.84973 0.743883 -0.02249
C_ C_ 0.934706 0.846155 0.74571 -0.02249
C_ C_ 0.737265 0.963305 0.743928 -0.02249
C_ C_ 0.984964 0.960488 0.752473 -0.02249
C_ C_ 0.711412 0.904235 0.782507 -0.11473
C_ C_ 0.960176 0.899693 0.78549 -0.11473
C_ C_ 0.693067 0.866503 0.705564 -0.11473
C_ C_ 0.939698 0.868906 0.709167 -0.11473
C_ C_ 0.692664 0.868086 0.782682 -0.11473
C_ C_ 0.94502 0.862501 0.783395 -0.11473
C_ C_ 0.71975 0.923309 0.745039 -0.02249
C_ C_ 0.967935 0.921131 0.747807 -0.02249
C_ C_ 0.659969 0.8143 0.743141 0.6875
C_ C_ 0.91822 0.806381 0.743761 0.6875
C_ C_ 0.712889 0.900829 0.706186 -0.11473
C_ C_ 0.956477 0.906273 0.709226 -0.11473
C_ C_ 0.682002 0.657107 0.747762 -0.02249
C_ C_ 0.939886 0.658731 0.748087 -0.02249
C_ C_ 0.734171 0.540978 0.752191 -0.02249
C_ C_ 0.987328 0.540326 0.748935 -0.02249
C_ C_ 0.709316 0.604116 0.786344 -0.11473
C_ C_ 0.956096 0.595521 0.783106 -0.11473
C_ C_ 0.690633 0.636979 0.710078 -0.11473
C_ C_ 0.954366 0.643064 0.710649 -0.11473
C_ C_ 0.688463 0.63686 0.786659 -0.11473
C_ C_ 0.940803 0.634691 0.783918 -0.11473
C_ C_ 0.716943 0.580904 0.750446 -0.02249
C_ C_ 0.973476 0.583312 0.749366 -0.02249
C_ C_ 0.663711 0.695588 0.743571 0.6875
C_ C_ 0.918947 0.694519 0.743138 0.6875
C_ C_ 0.707936 0.59864 0.71112 -0.11473
C_ C_ 0.972844 0.60933 0.713629 -0.11473
C_ C_ 0.563512 0.653718 0.749101 -0.02249
C_ C_ 0.818528 0.652303 0.745703 -0.02249
C_ C_ 0.517387 0.538193 0.748162 -0.02249
C_ C_ 0.766216 0.540428 0.749193 -0.02249
C_ C_ 0.536148 0.599741 0.712193 -0.11473
C_ C_ 0.798542 0.593108 0.711991 -0.11473
C_ C_ 0.557576 0.634639 0.787308 -0.11473
C_ C_ 0.803409 0.640281 0.783376 -0.11473
C_ C_ 0.551967 0.635713 0.711782 -0.11473
C_ C_ 0.818753 0.626215 0.710561 -0.11473
C_ C_ 0.534708 0.576427 0.750514 -0.02249
C_ C_ 0.783612 0.580884 0.74774 -0.02249
C_ C_ 0.583362 0.692586 0.748109 0.6875
C_ C_ 0.838656 0.690766 0.744683 0.6875
C_ C_ 0.542302 0.59693 0.788381 -0.11473
C_ C_ 0.78529 0.607746 0.783952 -0.11473
C_ C_ 0.624958 0.709009 0.869064 0.17695
C_ C_ 0.879175 0.720585 0.874488 0.17695
C_ C_ 0.617505 0.780557 0.878112 0.17695
C_ C_ 0.876992 0.792772 0.867184 0.17695
C_ C_ 0.618097 0.777168 0.923166 -0.11473
C_ C_ 0.871085 0.796127 0.911168 -0.11473
C_ C_ 0.622322 0.738706 0.940399 0.23465
C_ C_ 0.871922 0.761833 0.936159 0.23465
C_ C_ 0.624835 0.704748 0.913961 -0.11473
C_ C_ 0.874673 0.724736 0.917434 -0.11473
C_ C_ 0.616098 0.707 0.625198 0.17695
C_ C_ 0.875433 0.790154 0.618417 0.17695
C_ C_ 0.613097 0.779521 0.615826 0.17695
C_ C_ 0.871267 0.718275 0.614045 0.17695
C_ C_ 0.613035 0.773432 0.572674 -0.11473
C_ C_ 0.869085 0.719814 0.570715 -0.11473
C_ C_ 0.616047 0.734846 0.554224 0.23465
C_ C_ 0.874265 0.757755 0.548539 0.23465
C_ C_ 0.619261 0.701411 0.581545 -0.11473
C_ C_ 0.876542 0.794559 0.573278 -0.11473
C_ C_ 0.529241 0.0013099999999999223 0.751273 0.05793
C_ C_ 0.783934 0.00250878 0.745285 0.05793
C_ C_ 0.717878 0.503577 0.745599 0.05793
C_ C_ 0.96907 0.504786 0.746759 0.05793
Br Br 0.574552 -0.0013520000000000199 0.752164 -0.17191
Br Br 0.825912 1.00550905 0.757078 -0.17191
Br Br 0.674609 0.506499 0.737779 -0.17191
Br Br 0.927266 0.513068 0.741014 -0.17191
N_ N_ 0.621569 0.747877 0.852717 -0.272
N_ N_ 0.878816 0.754391 0.850015 -0.272
N_ N_ 0.623089 0.732461 0.985951 -0.12501
N_ N_ 0.875966 0.767224 0.979787 -0.12501
N_ N_ 0.614479 0.745909 0.641537 -0.272
N_ N_ 0.876323 0.752883 0.637633 -0.272
N_ N_ 0.61988 0.729109 0.51034 -0.12501
N_ N_ 0.867525 0.760619 0.503807 -0.12501
O_ O_ 0.584288 0.787755 0.714474 -0.60745
O_ O_ 0.849394 0.798485 0.713539 -0.60745
O_ O_ 0.592776 0.802425 0.781397 -0.60745
O_ O_ 0.847273 0.799123 0.782879 -0.60745
O_ O_ 0.653954 0.795647 0.776682 -0.60745
O_ O_ 0.905715 0.791076 0.77713 -0.60745
O_ O_ 0.645553 0.806098 0.709952 -0.60745
O_ O_ 0.910406 0.793812 0.707624 -0.60745
O_ O_ 0.648538 0.706974 0.776386 -0.60745
O_ O_ 0.90596 0.708149 0.775463 -0.60745
O_ O_ 0.661504 0.716227 0.709798 -0.60745
O_ O_ 0.911163 0.705813 0.7063 -0.60745
O_ O_ 0.597805 0.703495 0.71515 -0.60745
O_ O_ 0.847151 0.70758 0.71045 -0.60745
O_ O_ 0.584806 0.714468 0.781855 -0.60745
O_ O_ 0.844233 0.710259 0.77867 -0.60745
_cell_length_a 44.444
_cell_length_b 32.3360000049186
_cell_length_c 31.843999878906452
_cell_angle_alpha 89.99799923859553
_cell_angle_beta 91.13600050494348
_cell_angle_gamma 89.9990006550086
_symmetry_space_group_name_H-M         'P 1'
_symmetry_Int_Tables_number            1
loop_
_symmetry_equiv_pos_as_xyz
   'x, y, z'
                         
loop_
_atom_site_label
_atom_site_type_symbol
_atom_site_fract_x 
_atom_site_fract_y
_atom_site_fract_z
_atom_site_charge
Zn Zn 0.123532 0.250805 0.281216 0.9476
Zn Zn 0.375201 0.248699 0.280579 0.9476
Zn Zn 0.119849 0.252908 0.209591 0.9476
Zn Zn 0.377732 0.245556 0.210723 0.9476
H_ H_ 0.0339718 0.427004 0.173724 0.10932
H_ H_ 0.291916 0.421948 0.187399 0.10932
H_ H_ 0.0573506 0.356304 0.311654 0.10932
H_ H_ 0.313535 0.339591 0.319905 0.10932
H_ H_ 0.0624181 0.359998 0.175365 0.10932
H_ H_ 0.306561 0.350507 0.184404 0.10932
H_ H_ 0.0254839 0.418835 0.305837 0.10932
H_ H_ 0.289704 0.410415 0.322449 0.10932
H_ H_ 0.22235 0.407412 0.314842 0.10932
H_ H_ 0.470415 0.416011 0.311894 0.10932
H_ H_ 0.179936 0.355769 0.181234 0.10932
H_ H_ 0.43212 0.351911 0.182038 0.10932
H_ H_ 0.194744 0.340278 0.312327 0.10932
H_ H_ 0.436778 0.354295 0.317445 0.10932
H_ H_ 0.213921 0.414708 0.179617 0.10932
H_ H_ 0.462814 0.416977 0.178689 0.10932
H_ H_ 0.209107 0.0732032 0.305082 0.10932
H_ H_ 0.480352 0.0946354 0.321831 0.10932
H_ H_ 0.191669 0.155693 0.176745 0.10932
H_ H_ 0.435885 0.139501 0.188898 0.10932
H_ H_ 0.175315 0.13283 0.307576 0.10932
H_ H_ 0.45126 0.15775 0.320517 0.10932
H_ H_ 0.222112 0.0920087 0.174228 0.10932
H_ H_ 0.461351 0.0707094 0.193546 0.10932
H_ H_ 0.0377768 0.0774314 0.178352 0.10932
H_ H_ 0.27896 0.0902063 0.172874 0.10932
H_ H_ 0.0470233 0.161607 0.308609 0.10932
H_ H_ 0.313632 0.147551 0.307086 0.10932
H_ H_ 0.0626224 0.145029 0.175075 0.10932
H_ H_ 0.31009 0.148589 0.17409 0.10932
H_ H_ 0.0247749 0.09091 0.309739 0.10932
H_ H_ 0.292809 0.0772566 0.306442 0.10932
H_ H_ 0.135389 0.311458 0.364764 0.10932
H_ H_ 0.37021 0.309416 0.35529 0.10932
H_ H_ 0.111006 0.186444 0.348785 0.10932
H_ H_ 0.37563 0.180763 0.347989 0.10932
H_ H_ 0.107313 0.177085 0.423212 0.10932
H_ H_ 0.384499 0.175888 0.423879 0.10932
H_ H_ 0.134406 0.303831 0.444375 0.10932
H_ H_ 0.378764 0.308945 0.434767 0.10932
H_ H_ 0.136946 0.318173 0.137147 0.10932
H_ H_ 0.374851 0.311284 0.130992 0.10932
H_ H_ 0.0997664 0.19499 0.131366 0.10932
H_ H_ 0.38043 0.182713 0.143245 0.10932
H_ H_ 0.103602 0.195075 0.0527656 0.10932
H_ H_ 0.37269 0.174156 0.0637815 0.10932
H_ H_ 0.137595 0.319055 0.0584547 0.10932
H_ H_ 0.370005 0.305644 0.0529773 0.10932
C_ C_ 0.0629462 0.351404 0.243365 -0.02249
C_ C_ 0.316911 0.341238 0.251149 -0.02249
C_ C_ 0.0142038 0.465884 0.240565 -0.02249
C_ C_ 0.268731 0.460124 0.258851 -0.02249
C_ C_ 0.0379345 0.408422 0.202363 -0.11473
C_ C_ 0.29484 0.404568 0.216273 -0.11473
C_ C_ 0.0526525 0.36987 0.280761 -0.11473
C_ C_ 0.308176 0.357007 0.290741 -0.11473
C_ C_ 0.0534292 0.370864 0.203459 -0.11473
C_ C_ 0.307262 0.364094 0.214418 -0.11473
C_ C_ 0.0301145 0.426641 0.241694 -0.02249
C_ C_ 0.287792 0.420847 0.255838 -0.02249
C_ C_ 0.0827969 0.314827 0.24483 0.6875
C_ C_ 0.334627 0.302858 0.248933 0.6875
C_ C_ 0.0364397 0.406835 0.279654 -0.11473
C_ C_ 0.294262 0.397031 0.292456 -0.11473
C_ C_ 0.18525 0.34341 0.246221 -0.02249
C_ C_ 0.436145 0.344951 0.250217 -0.02249
C_ C_ 0.237837 0.457001 0.247915 -0.02249
C_ C_ 0.482871 0.460778 0.248748 -0.02249
C_ C_ 0.214829 0.396237 0.284881 -0.11473
C_ C_ 0.460698 0.401791 0.28601 -0.11473
C_ C_ 0.192535 0.362921 0.208059 -0.11473
C_ C_ 0.441844 0.364453 0.210343 -0.11473
C_ C_ 0.197682 0.359001 0.283685 -0.11473
C_ C_ 0.444022 0.365906 0.28691 -0.11473
C_ C_ 0.221259 0.416464 0.247126 -0.02249
C_ C_ 0.467272 0.420902 0.247242 -0.02249
C_ C_ 0.164113 0.308895 0.245624 0.6875
C_ C_ 0.415889 0.307526 0.252692 0.6875
C_ C_ 0.207943 0.400555 0.209228 -0.11473
C_ C_ 0.458099 0.401404 0.209717 -0.11473
C_ C_ 0.181843 0.150941 0.242146 -0.02249
C_ C_ 0.440915 0.155451 0.253174 -0.02249
C_ C_ 0.233593 0.036752 0.239075 -0.02249
C_ C_ 0.489958 0.0402243 0.259585 -0.02249
C_ C_ 0.206724 0.0917653 0.276593 -0.11473
C_ C_ 0.471943 0.106463 0.293047 -0.11473
C_ C_ 0.194797 0.138308 0.204344 -0.11473
C_ C_ 0.445301 0.129394 0.218188 -0.11473
C_ C_ 0.186986 0.125959 0.278177 -0.11473
C_ C_ 0.455644 0.142997 0.289702 -0.11473
C_ C_ 0.217084 0.0771845 0.238273 -0.02249
C_ C_ 0.473227 0.0791125 0.258012 -0.02249
C_ C_ 0.159916 0.186086 0.243878 0.6875
C_ C_ 0.419827 0.19307 0.24953 0.6875
C_ C_ 0.21289 0.102637 0.202679 -0.11473
C_ C_ 0.461852 0.0923513 0.219246 -0.11473
C_ C_ 0.0580988 0.157394 0.242963 -0.02249
C_ C_ 0.317492 0.151205 0.240108 -0.02249
C_ C_ 0.0167017 0.0379212 0.245623 -0.02249
C_ C_ 0.265958 0.0366336 0.240953 -0.02249
C_ C_ 0.0400558 0.0959827 0.207334 -0.11473
C_ C_ 0.289665 0.0962944 0.203081 -0.11473
C_ C_ 0.0471548 0.141905 0.281487 -0.11473
C_ C_ 0.30908 0.132674 0.277448 -0.11473
C_ C_ 0.0514174 0.136303 0.205288 -0.11473
C_ C_ 0.307409 0.131579 0.202306 -0.11473
C_ C_ 0.0306875 0.0796026 0.245434 -0.02249
C_ C_ 0.282066 0.0778325 0.240918 -0.02249
C_ C_ 0.0803589 0.194983 0.243794 0.6875
C_ C_ 0.336981 0.188977 0.240839 0.6875
C_ C_ 0.0340496 0.103003 0.282128 -0.11473
C_ C_ 0.294314 0.0941269 0.278313 -0.11473
C_ C_ 0.129872 0.281711 0.37914 0.17695
C_ C_ 0.373573 0.281322 0.372783 0.17695
C_ C_ 0.116471 0.211205 0.370576 0.17695
C_ C_ 0.376038 0.207392 0.369896 0.17695
C_ C_ 0.115193 0.206052 0.413757 -0.11473
C_ C_ 0.379179 0.206246 0.41313 -0.11473
C_ C_ 0.12232 0.238403 0.440364 0.23465
C_ C_ 0.375492 0.241733 0.438046 0.23465
C_ C_ 0.1301 0.277636 0.423322 -0.11473
C_ C_ 0.374298 0.281281 0.417437 -0.11473
C_ C_ 0.131221 0.289083 0.120284 0.17695
C_ C_ 0.374836 0.280724 0.115868 0.17695
C_ C_ 0.109579 0.221595 0.115594 0.17695
C_ C_ 0.378631 0.209769 0.122713 0.17695
C_ C_ 0.111033 0.221824 0.0712063 -0.11473
C_ C_ 0.374416 0.205056 0.0783758 -0.11473
C_ C_ 0.119966 0.258376 0.0504947 0.23465
C_ C_ 0.371905 0.240531 0.0513119 0.23465
C_ C_ 0.129722 0.29298 0.0757848 -0.11473
C_ C_ 0.372877 0.278888 0.0707294 -0.11473
C_ C_ 0.0294379 0.503052 0.246594 0.05793
C_ C_ 0.281557 0.498784 0.270236 0.05793
C_ C_ 0.21851 -0.0022330000000000405 0.239958 0.05793
C_ C_ 0.473983 1.00238316 0.265625 0.05793
Br Br 0.072337 0.504523 0.261978 -0.17191
Br Br 0.324385 0.500839 0.278264 -0.17191
Br Br 0.174404 -0.004817999999999989 0.240485 -0.17191
Br Br 0.434085 1.00501513 0.284799 -0.17191
N_ N_ 0.122414 0.248387 0.35469 -0.272
N_ N_ 0.3728 0.244791 0.349788 -0.272
N_ N_ 0.122628 0.231072 0.484569 -0.12501
N_ N_ 0.380013 0.23723 0.483705 -0.12501
N_ N_ 0.118894 0.25486 0.139031 -0.272
N_ N_ 0.378221 0.247147 0.141539 -0.272
N_ N_ 0.121663 0.262317 0.00439465 -0.12501
N_ N_ 0.366667 0.234194 0.0078849 -0.12501
O_ O_ 0.0867347 0.292708 0.212327 -0.60745
O_ O_ 0.348053 0.293513 0.214614 -0.60745
O_ O_ 0.0968359 0.304776 0.278138 -0.60745
O_ O_ 0.339911 0.28299 0.282954 -0.60745
O_ O_ 0.160576 0.288352 0.27969 -0.60745
O_ O_ 0.40512 0.294579 0.287063 -0.60745
O_ O_ 0.150395 0.297507 0.21176 -0.60745
O_ O_ 0.406223 0.290734 0.218312 -0.60745
O_ O_ 0.148834 0.198503 0.278374 -0.60745
O_ O_ 0.410531 0.21185 0.281884 -0.60745
O_ O_ 0.151797 0.205921 0.209827 -0.60745
O_ O_ 0.40852 0.203015 0.213873 -0.60745
O_ O_ 0.0936582 0.205677 0.210543 -0.60745
O_ O_ 0.344181 0.206722 0.206876 -0.60745
O_ O_ 0.0853895 0.217482 0.277896 -0.60745
O_ O_ 0.347867 0.200283 0.274674 -0.60745
Zn Zn 0.122746 0.245054 0.781052 0.9476
Zn Zn 0.375444 0.250846 0.780154 0.9476
Zn Zn 0.124232 0.24552 0.711378 0.9476
Zn Zn 0.374553 0.249893 0.710657 0.9476
H_ H_ 0.0198821 0.409507 0.691362 0.10932
H_ H_ 0.281463 0.416457 0.685499 0.10932
H_ H_ 0.0730155 0.354392 0.817944 0.10932
H_ H_ 0.323835 0.359185 0.813161 0.10932
H_ H_ 0.0498968 0.347924 0.684773 0.10932
H_ H_ 0.308848 0.348919 0.685227 0.10932
H_ H_ 0.0456672 0.425268 0.820763 0.10932
H_ H_ 0.291339 0.422737 0.820264 0.10932
H_ H_ 0.210866 0.413016 0.813165 0.10932
H_ H_ 0.459914 0.425518 0.810537 0.10932
H_ H_ 0.197034 0.337225 0.683055 0.10932
H_ H_ 0.440849 0.353026 0.676802 0.10932
H_ H_ 0.181218 0.3511 0.816466 0.10932
H_ H_ 0.425824 0.362669 0.811134 0.10932
H_ H_ 0.225357 0.404052 0.685715 0.10932
H_ H_ 0.475281 0.410238 0.680269 0.10932
H_ H_ 0.228033 0.0937126 0.803 0.10932
H_ H_ 0.470454 0.0949256 0.814023 0.10932
H_ H_ 0.177925 0.13431 0.668627 0.10932
H_ H_ 0.431033 0.138626 0.674169 0.10932
H_ H_ 0.184389 0.140583 0.807008 0.10932
H_ H_ 0.444741 0.166117 0.805563 0.10932
H_ H_ 0.208929 0.0718787 0.674637 0.10932
H_ H_ 0.458413 0.0758258 0.680374 0.10932
H_ H_ 0.0470643 0.063418 0.697116 0.10932
H_ H_ 0.275581 0.089832 0.680621 0.10932
H_ H_ 0.0499384 0.158009 0.820269 0.10932
H_ H_ 0.328849 0.131604 0.812462 0.10932
H_ H_ 0.0769296 0.129617 0.69245 0.10932
H_ H_ 0.302952 0.155631 0.678666 0.10932
H_ H_ 0.0231487 0.0939352 0.820532 0.10932
H_ H_ 0.292253 0.0751259 0.813686 0.10932
H_ H_ 0.1296 0.306416 0.856143 0.10932
H_ H_ 0.332674 0.243342 0.854605 0.10932
H_ H_ 0.135331 0.17477 0.852357 0.10932
H_ H_ 0.427619 0.232836 0.855515 0.10932
H_ H_ 0.121856 0.167874 0.928004 0.10932
H_ H_ 0.428226 0.230062 0.935058 0.10932
H_ H_ 0.118061 0.302958 0.93468 0.10932
H_ H_ 0.332639 0.244043 0.931099 0.10932
H_ H_ 0.121576 0.180156 0.633284 0.10932
H_ H_ 0.419241 0.250088 0.631179 0.10932
H_ H_ 0.111845 0.311391 0.644534 0.10932
H_ H_ 0.325535 0.268057 0.64124 0.10932
H_ H_ 0.12295 0.322793 0.568821 0.10932
H_ H_ 0.321738 0.279899 0.561623 0.10932
H_ H_ 0.123289 0.189578 0.552189 0.10932
H_ H_ 0.414276 0.251826 0.551721 0.10932
C_ C_ 0.0638082 0.347385 0.751897 -0.02249
C_ C_ 0.316912 0.348494 0.748764 -0.02249
C_ C_ 0.0142604 0.460542 0.757866 -0.02249
C_ C_ 0.264389 0.460302 0.749641 -0.02249
C_ C_ 0.0330678 0.399494 0.719276 -0.11473
C_ C_ 0.289927 0.401926 0.711269 -0.11473
C_ C_ 0.0612066 0.369187 0.79133 -0.11473
C_ C_ 0.311722 0.369566 0.786146 -0.11473
C_ C_ 0.0487428 0.362629 0.715811 -0.11473
C_ C_ 0.30318 0.363364 0.712584 -0.11473
C_ C_ 0.0293167 0.420252 0.757089 -0.02249
C_ C_ 0.282664 0.421856 0.749101 -0.02249
C_ C_ 0.0845349 0.310146 0.751929 0.6875
C_ C_ 0.335582 0.310814 0.74711 0.6875
C_ C_ 0.0433466 0.404555 0.794206 -0.11473
C_ C_ 0.294111 0.407121 0.788292 -0.11473
C_ C_ 0.185843 0.340107 0.749247 -0.02249
C_ C_ 0.432051 0.349477 0.74341 -0.02249
C_ C_ 0.232703 0.459158 0.747229 -0.02249
C_ C_ 0.48428 0.462558 0.748374 -0.02249
C_ C_ 0.206919 0.40021 0.785977 -0.11473
C_ C_ 0.45543 0.407076 0.783182 -0.11473
C_ C_ 0.198577 0.35477 0.711186 -0.11473
C_ C_ 0.445387 0.365463 0.707181 -0.11473
C_ C_ 0.190701 0.362923 0.787087 -0.11473
C_ C_ 0.438307 0.370545 0.781877 -0.11473
C_ C_ 0.215622 0.418987 0.748417 -0.02249
C_ C_ 0.467668 0.422165 0.74688 -0.02249
C_ C_ 0.165119 0.302411 0.748646 0.6875
C_ C_ 0.411049 0.314013 0.743427 0.6875
C_ C_ 0.212448 0.393452 0.712633 -0.11473
C_ C_ 0.464227 0.399422 0.709318 -0.11473
C_ C_ 0.18096 0.14681 0.7389 -0.02249
C_ C_ 0.435964 0.157152 0.739864 -0.02249
C_ C_ 0.235953 0.0358172 0.73922 -0.02249
C_ C_ 0.483564 0.0415595 0.754616 -0.02249
C_ C_ 0.214128 0.0991481 0.776288 -0.11473
C_ C_ 0.463472 0.106694 0.783497 -0.11473
C_ C_ 0.186948 0.125056 0.700363 -0.11473
C_ C_ 0.440008 0.130946 0.704286 -0.11473
C_ C_ 0.192122 0.129422 0.776738 -0.11473
C_ C_ 0.449585 0.145523 0.778015 -0.11473
C_ C_ 0.218853 0.0757542 0.738609 -0.02249
C_ C_ 0.466717 0.0823129 0.749057 -0.02249
C_ C_ 0.162269 0.184166 0.740375 0.6875
C_ C_ 0.413175 0.190397 0.739497 0.6875
C_ C_ 0.20565 0.089788 0.702237 -0.11473
C_ C_ 0.455194 0.0950323 0.708392 -0.11473
C_ C_ 0.0637204 0.151012 0.753217 -0.02249
C_ C_ 0.316071 0.150917 0.74675 -0.02249
C_ C_ 0.0129805 0.0381087 0.759249 -0.02249
C_ C_ 0.266918 0.0354976 0.745151 -0.02249
C_ C_ 0.0458151 0.0874237 0.721429 -0.11473
C_ C_ 0.28482 0.101453 0.709343 -0.11473
C_ C_ 0.0474692 0.140526 0.789736 -0.11473
C_ C_ 0.314991 0.126222 0.784142 -0.11473
C_ C_ 0.0659821 0.121555 0.722149 -0.11473
C_ C_ 0.301813 0.139013 0.708544 -0.11473
C_ C_ 0.0294271 0.0767836 0.757081 -0.02249
C_ C_ 0.283655 0.0760989 0.746879 -0.02249
C_ C_ 0.082782 0.189023 0.751239 0.6875
C_ C_ 0.33437 0.188391 0.745353 0.6875
C_ C_ 0.0330505 0.101841 0.79347 -0.11473
C_ C_ 0.295817 0.0907135 0.784628 -0.11473
C_ C_ 0.125301 0.276683 0.872052 0.17695
C_ C_ 0.354629 0.246869 0.869757 0.17695
C_ C_ 0.130381 0.203271 0.870549 0.17695
C_ C_ 0.406941 0.235159 0.871591 0.17695
C_ C_ 0.125792 0.199209 0.913303 -0.11473
C_ C_ 0.407923 0.238505 0.916421 -0.11473
C_ C_ 0.121819 0.23561 0.936889 0.23465
C_ C_ 0.380565 0.244477 0.937592 0.23465
C_ C_ 0.121752 0.274763 0.916347 -0.11473
C_ C_ 0.354064 0.246294 0.914519 -0.11473
C_ C_ 0.119569 0.211 0.617906 0.17695
C_ C_ 0.396713 0.252091 0.616174 0.17695
C_ C_ 0.118119 0.284462 0.624778 0.17695
C_ C_ 0.345226 0.267842 0.621968 0.17695
C_ C_ 0.119694 0.291076 0.581469 -0.11473
C_ C_ 0.342108 0.268259 0.576657 -0.11473
C_ C_ 0.121835 0.255963 0.555299 0.23465
C_ C_ 0.366277 0.254833 0.551696 0.23465
C_ C_ 0.122931 0.215321 0.573389 -0.11473
C_ C_ 0.394526 0.24977 0.571844 -0.11473
C_ C_ 0.0309134 0.49846 0.756975 0.05793
C_ C_ 0.27868 0.498283 0.745171 0.05793
C_ C_ 0.219537 -0.0009590000000000432 0.741855 0.05793
C_ C_ 0.466579 1.00478095 0.759463 0.05793
Br Br 0.0743139 0.496458 0.764898 -0.17191
Br Br 0.322975 0.499446 0.735637 -0.17191
Br Br 0.176973 -0.0018172 0.752252 -0.17191
Br Br 0.421963 1.00997435 0.76085 -0.17191
N_ N_ 0.128639 0.24017 0.850834 -0.272
N_ N_ 0.381105 0.241887 0.8494 -0.272
N_ N_ 0.124626 0.231806 0.981794 -0.12501
N_ N_ 0.381293 0.254573 0.981953 -0.12501
N_ N_ 0.12064 0.246129 0.640571 -0.272
N_ N_ 0.371851 0.257408 0.640422 -0.272
N_ N_ 0.122291 0.261198 0.510069 -0.12501
N_ N_ 0.366156 0.260822 0.507719 -0.12501
O_ O_ 0.0923746 0.292817 0.717706 -0.60745
O_ O_ 0.343555 0.295613 0.713625 -0.60745
O_ O_ 0.0980169 0.29732 0.784448 -0.60745
O_ O_ 0.344563 0.294995 0.78144 -0.60745
O_ O_ 0.156043 0.28734 0.782437 -0.60745
O_ O_ 0.407748 0.295296 0.777343 -0.60745
O_ O_ 0.1564 0.28804 0.713372 -0.60745
O_ O_ 0.403943 0.296582 0.707158 -0.60745
O_ O_ 0.148884 0.194898 0.774263 -0.60745
O_ O_ 0.406942 0.208355 0.773855 -0.60745
O_ O_ 0.15524 0.202875 0.706696 -0.60745
O_ O_ 0.40532 0.207798 0.705672 -0.60745
O_ O_ 0.092943 0.201527 0.716788 -0.60745
O_ O_ 0.341159 0.204208 0.709537 -0.60745
O_ O_ 0.0892955 0.208035 0.783755 -0.60745
O_ O_ 0.34597 0.205507 0.778258 -0.60745
Zn Zn 0.128257 0.746773 0.291827 0.9476
Zn Zn 0.375198 0.749532 0.294029 0.9476
Zn Zn 0.1255 0.744652 0.222028 0.9476
Zn Zn 0.376124 0.751044 0.224307 0.9476
H_ H_ 0.0580828 0.926786 0.182625 0.10932
H_ H_ 0.302478 0.926081 0.187254 0.10932
H_ H_ 0.0545079 0.847466 0.317197 0.10932
H_ H_ 0.299542 0.839978 0.312824 0.10932
H_ H_ 0.0845047 0.85967 0.185735 0.10932
H_ H_ 0.327699 0.858637 0.191071 0.10932
H_ H_ 0.0256833 0.905431 0.305958 0.10932
H_ H_ 0.26796 0.906532 0.307911 0.10932
H_ H_ 0.209204 0.922773 0.315381 0.10932
H_ H_ 0.475343 0.906837 0.328787 0.10932
H_ H_ 0.188952 0.8435 0.188137 0.10932
H_ H_ 0.431653 0.861899 0.191471 0.10932
H_ H_ 0.188358 0.856531 0.321802 0.10932
H_ H_ 0.446035 0.846308 0.32442 0.10932
H_ H_ 0.221878 0.904326 0.182943 0.10932
H_ H_ 0.459887 0.930467 0.194152 0.10932
H_ H_ 0.214677 0.573163 0.317036 0.10932
H_ H_ 0.469454 0.574805 0.311157 0.10932
H_ H_ 0.18502 0.647408 0.188061 0.10932
H_ H_ 0.441215 0.65706 0.187644 0.10932
H_ H_ 0.191338 0.639436 0.320534 0.10932
H_ H_ 0.433761 0.635371 0.316295 0.10932
H_ H_ 0.214468 0.579525 0.182861 0.10932
H_ H_ 0.468534 0.595022 0.177209 0.10932
H_ H_ 0.0386543 0.580899 0.18235 0.10932
H_ H_ 0.29038 0.572741 0.192954 0.10932
H_ H_ 0.0558519 0.652253 0.320944 0.10932
H_ H_ 0.299756 0.657084 0.322484 0.10932
H_ H_ 0.0655327 0.643791 0.183173 0.10932
H_ H_ 0.3156 0.6391 0.191242 0.10932
H_ H_ 0.0343529 0.581546 0.317244 0.10932
H_ H_ 0.273503 0.592214 0.322227 0.10932
H_ H_ 0.121914 0.812333 0.359623 0.10932
H_ H_ 0.374333 0.680048 0.366462 0.10932
H_ H_ 0.130675 0.68501 0.368739 0.10932
H_ H_ 0.370044 0.811969 0.365943 0.10932
H_ H_ 0.136416 0.687794 0.443885 0.10932
H_ H_ 0.382684 0.813184 0.440363 0.10932
H_ H_ 0.130141 0.821513 0.437276 0.10932
H_ H_ 0.374072 0.679378 0.444075 0.10932
H_ H_ 0.133571 0.676662 0.149732 0.10932
H_ H_ 0.376349 0.820749 0.157585 0.10932
H_ H_ 0.11253 0.805229 0.141936 0.10932
H_ H_ 0.38235 0.686799 0.144445 0.10932
H_ H_ 0.117315 0.803549 0.0670104 0.10932
H_ H_ 0.388201 0.697827 0.0702527 0.10932
H_ H_ 0.121665 0.671339 0.0698614 0.10932
H_ H_ 0.382565 0.825886 0.0806693 0.10932
C_ C_ 0.0691975 0.845064 0.249393 -0.02249
C_ C_ 0.317903 0.847103 0.255023 -0.02249
C_ C_ 0.02259 0.961854 0.241598 -0.02249
C_ C_ 0.26668 0.961972 0.244506 -0.02249
C_ C_ 0.0569633 0.907466 0.21015 -0.11473
C_ C_ 0.30039 0.905941 0.214937 -0.11473
C_ C_ 0.0560988 0.862074 0.285519 -0.11473
C_ C_ 0.302399 0.861994 0.288016 -0.11473
C_ C_ 0.0704317 0.869049 0.212189 -0.11473
C_ C_ 0.315382 0.86875 0.217144 -0.11473
C_ C_ 0.0430859 0.924426 0.245274 -0.02249
C_ C_ 0.28369 0.920571 0.2483 -0.02249
C_ C_ 0.08678 0.804919 0.25274 0.6875
C_ C_ 0.339076 0.810975 0.257078 0.6875
C_ C_ 0.0417421 0.901431 0.282471 -0.11473
C_ C_ 0.282296 0.895445 0.283478 -0.11473
C_ C_ 0.181457 0.846492 0.252636 -0.02249
C_ C_ 0.435908 0.84832 0.259165 -0.02249
C_ C_ 0.233745 0.960632 0.245248 -0.02249
C_ C_ 0.488978 0.962953 0.262634 -0.02249
C_ C_ 0.203562 0.907527 0.286663 -0.11473
C_ C_ 0.466598 0.898051 0.298441 -0.11473
C_ C_ 0.195684 0.858677 0.215832 -0.11473
C_ C_ 0.440925 0.87367 0.222134 -0.11473
C_ C_ 0.189321 0.869465 0.289927 -0.11473
C_ C_ 0.450218 0.8619 0.296447 -0.11473
C_ C_ 0.215967 0.920555 0.248956 -0.02249
C_ C_ 0.470648 0.922549 0.261694 -0.02249
C_ C_ 0.163693 0.808006 0.254717 0.6875
C_ C_ 0.415929 0.810082 0.258076 0.6875
C_ C_ 0.212454 0.895407 0.212836 -0.11473
C_ C_ 0.457378 0.911103 0.22438 -0.11473
C_ C_ 0.187122 0.648501 0.254582 -0.02249
C_ C_ 0.432919 0.651162 0.250907 -0.02249
C_ C_ 0.235309 0.53289 0.247539 -0.02249
C_ C_ 0.483775 0.536858 0.24069 -0.02249
C_ C_ 0.209466 0.587824 0.287657 -0.11473
C_ C_ 0.460866 0.591576 0.283136 -0.11473
C_ C_ 0.197037 0.633762 0.215837 -0.11473
C_ C_ 0.446982 0.641183 0.214014 -0.11473
C_ C_ 0.195976 0.626741 0.290333 -0.11473
C_ C_ 0.441257 0.627196 0.287004 -0.11473
C_ C_ 0.216779 0.572748 0.248937 -0.02249
C_ C_ 0.468892 0.577571 0.24282 -0.02249
C_ C_ 0.165742 0.686045 0.257193 0.6875
C_ C_ 0.413121 0.68986 0.254732 0.6875
C_ C_ 0.208063 0.593424 0.212956 -0.11473
C_ C_ 0.462496 0.604371 0.208645 -0.11473
C_ C_ 0.0700073 0.649949 0.251903 -0.02249
C_ C_ 0.315813 0.651927 0.258143 -0.02249
C_ C_ 0.013449 0.539951 0.250418 -0.02249
C_ C_ 0.266371 0.535031 0.2582 -0.02249
C_ C_ 0.0464524 0.593097 0.213363 -0.11473
C_ C_ 0.294131 0.591046 0.221631 -0.11473
C_ C_ 0.0572509 0.634089 0.291343 -0.11473
C_ C_ 0.299836 0.639034 0.293635 -0.11473
C_ C_ 0.0639473 0.628218 0.214339 -0.11473
C_ C_ 0.309727 0.628444 0.220766 -0.11473
C_ C_ 0.0321551 0.579338 0.249907 -0.02249
C_ C_ 0.281763 0.576312 0.257819 -0.02249
C_ C_ 0.0903685 0.687259 0.252069 0.6875
C_ C_ 0.335775 0.688525 0.258587 0.6875
C_ C_ 0.0425376 0.595998 0.287819 -0.11473
C_ C_ 0.282856 0.602709 0.294803 -0.11473
C_ C_ 0.12544 0.78562 0.378715 0.17695
C_ C_ 0.376966 0.710471 0.38355 0.17695
C_ C_ 0.129513 0.713958 0.38559 0.17695
C_ C_ 0.37575 0.783326 0.382072 0.17695
C_ C_ 0.132385 0.71645 0.428801 -0.11473
C_ C_ 0.379223 0.784154 0.42472 -0.11473
C_ C_ 0.13429 0.755488 0.449491 0.23465
C_ C_ 0.379025 0.748893 0.448215 0.23465
C_ C_ 0.130986 0.790771 0.422927 -0.11473
C_ C_ 0.375972 0.710687 0.427353 -0.11473
C_ C_ 0.12851 0.703626 0.132336 0.17695
C_ C_ 0.377499 0.792302 0.138268 0.17695
C_ C_ 0.120573 0.777503 0.126626 0.17695
C_ C_ 0.38388 0.718542 0.13086 0.17695
C_ C_ 0.120508 0.775514 0.0816471 -0.11473
C_ C_ 0.385274 0.724212 0.0880581 -0.11473
C_ C_ 0.119962 0.735996 0.0622309 0.23465
C_ C_ 0.387016 0.762824 0.0698984 0.23465
C_ C_ 0.125532 0.70055 0.0860513 -0.11473
C_ C_ 0.383166 0.797733 0.0944971 -0.11473
C_ C_ 0.0352873 1.00119383 0.247542 0.05793
C_ C_ 0.282043 0.999767 0.249328 0.05793
C_ C_ 0.22022 0.495044 0.24805 0.05793
C_ C_ 0.467836 0.498948 0.241433 0.05793
Br Br 0.0776925 0.00904992 0.255784 -0.17191
Br Br 0.323857 0.997148 0.26871 -0.17191
Br Br 0.176887 0.494246 0.246462 -0.17191
Br Br 0.424133 0.495692 0.230452 -0.17191
N_ N_ 0.129045 0.74761 0.362481 -0.272
N_ N_ 0.375169 0.746396 0.361567 -0.272
N_ N_ 0.135505 0.758789 0.49387 -0.12501
N_ N_ 0.38213 0.751898 0.493082 -0.12501
N_ N_ 0.126261 0.742532 0.150689 -0.272
N_ N_ 0.379214 0.753719 0.156233 -0.272
N_ N_ 0.121761 0.731995 0.0170969 -0.12501
N_ N_ 0.388582 0.767394 0.0238682 -0.12501
O_ O_ 0.0922259 0.784728 0.218512 -0.60745
O_ O_ 0.347153 0.794105 0.222889 -0.60745
O_ O_ 0.0935304 0.788006 0.288038 -0.60745
O_ O_ 0.345332 0.793997 0.29293 -0.60745
O_ O_ 0.15669 0.793638 0.289866 -0.60745
O_ O_ 0.409468 0.791222 0.291379 -0.60745
O_ O_ 0.152539 0.793593 0.220502 -0.60745
O_ O_ 0.404865 0.79787 0.223353 -0.60745
O_ O_ 0.163231 0.705684 0.292464 -0.60745
O_ O_ 0.404584 0.702398 0.290901 -0.60745
O_ O_ 0.157932 0.704761 0.224204 -0.60745
O_ O_ 0.408203 0.711403 0.223256 -0.60745
O_ O_ 0.0985462 0.70248 0.21674 -0.60745
O_ O_ 0.347956 0.700265 0.22484 -0.60745
O_ O_ 0.0993691 0.702274 0.28706 -0.60745
O_ O_ 0.340462 0.707834 0.292295 -0.60745
Zn Zn 0.128019 0.751965 0.791064 0.9476
Zn Zn 0.374004 0.746933 0.793554 0.9476
Zn Zn 0.124101 0.749951 0.721286 0.9476
Zn Zn 0.371974 0.746981 0.722493 0.9476
H_ H_ 0.0518959 0.933349 0.694557 0.10932
H_ H_ 0.271021 0.897457 0.68569 0.10932
H_ H_ 0.0505315 0.834204 0.812854 0.10932
H_ H_ 0.329808 0.86677 0.818971 0.10932
H_ H_ 0.0736288 0.863377 0.688162 0.10932
H_ H_ 0.30118 0.834605 0.691076 0.10932
H_ H_ 0.0245873 0.904165 0.818678 0.10932
H_ H_ 0.293565 0.923256 0.812594 0.10932
H_ H_ 0.222558 0.913705 0.814515 0.10932
H_ H_ 0.470943 0.919446 0.824072 0.10932
H_ H_ 0.173486 0.8612 0.686341 0.10932
H_ H_ 0.413166 0.874202 0.696582 0.10932
H_ H_ 0.198739 0.845403 0.815787 0.10932
H_ H_ 0.443537 0.851064 0.824118 0.10932
H_ H_ 0.211899 0.916741 0.676257 0.10932
H_ H_ 0.442466 0.942512 0.700704 0.10932
H_ H_ 0.210639 0.574433 0.822216 0.10932
H_ H_ 0.469123 0.581395 0.824149 0.10932
H_ H_ 0.18669 0.650387 0.689736 0.10932
H_ H_ 0.435389 0.650269 0.6911 0.10932
H_ H_ 0.188825 0.64346 0.823646 0.10932
H_ H_ 0.434623 0.641404 0.825485 0.10932
H_ H_ 0.210844 0.579427 0.68592 0.10932
H_ H_ 0.474012 0.593667 0.688471 0.10932
H_ H_ 0.0559954 0.568235 0.69169 0.10932
H_ H_ 0.287958 0.580888 0.684583 0.10932
H_ H_ 0.0580206 0.65262 0.820995 0.10932
H_ H_ 0.309395 0.643894 0.82134 0.10932
H_ H_ 0.0856609 0.629971 0.695587 0.10932
H_ H_ 0.311167 0.645866 0.689476 0.10932
H_ H_ 0.0323832 0.585744 0.819804 0.10932
H_ H_ 0.283995 0.577038 0.818022 0.10932
H_ H_ 0.123989 0.814966 0.859562 0.10932
H_ H_ 0.339563 0.709125 0.873356 0.10932
H_ H_ 0.112988 0.687219 0.868045 0.10932
H_ H_ 0.416479 0.785868 0.87238 0.10932
H_ H_ 0.111498 0.687888 0.942507 0.10932
H_ H_ 0.418693 0.784088 0.951185 0.10932
H_ H_ 0.119289 0.821307 0.936861 0.10932
H_ H_ 0.345774 0.696202 0.949899 0.10932
H_ H_ 0.116842 0.683102 0.652042 0.10932
H_ H_ 0.390023 0.802402 0.644716 0.10932
H_ H_ 0.146188 0.802762 0.641509 0.10932
H_ H_ 0.341514 0.689597 0.649941 0.10932
H_ H_ 0.146605 0.798776 0.561047 0.10932
H_ H_ 0.339034 0.688851 0.568947 0.10932
H_ H_ 0.110535 0.675334 0.574578 0.10932
H_ H_ 0.385087 0.805253 0.570399 0.10932
C_ C_ 0.0681249 0.847526 0.753372 -0.02249
C_ C_ 0.31537 0.844084 0.753536 -0.02249
C_ C_ 0.01583 0.961749 0.755707 -0.02249
C_ C_ 0.266498 0.960841 0.743647 -0.02249
C_ C_ 0.0492045 0.910301 0.7179 -0.11473
C_ C_ 0.284657 0.892472 0.711843 -0.11473
C_ C_ 0.051277 0.856708 0.787943 -0.11473
C_ C_ 0.316614 0.873448 0.786877 -0.11473
C_ C_ 0.0634128 0.871958 0.717129 -0.11473
C_ C_ 0.299501 0.854843 0.716764 -0.11473
C_ C_ 0.0350281 0.921989 0.754562 -0.02249
C_ C_ 0.284768 0.920687 0.744975 -0.02249
C_ C_ 0.0881427 0.810166 0.752193 0.6875
C_ C_ 0.330277 0.802714 0.757194 0.6875
C_ C_ 0.0346564 0.894266 0.788593 -0.11473
C_ C_ 0.299282 0.909142 0.784188 -0.11473
C_ C_ 0.184063 0.847336 0.748643 -0.02249
C_ C_ 0.427485 0.854301 0.759582 -0.02249
C_ C_ 0.23472 0.961532 0.741642 -0.02249
C_ C_ 0.480515 0.967002 0.757404 -0.02249
C_ C_ 0.211819 0.901144 0.784341 -0.11473
C_ C_ 0.461236 0.906079 0.796297 -0.11473
C_ C_ 0.189376 0.865164 0.709824 -0.11473
C_ C_ 0.430103 0.879449 0.722746 -0.11473
C_ C_ 0.196384 0.864546 0.786257 -0.11473
C_ C_ 0.443214 0.869175 0.797426 -0.11473
C_ C_ 0.217213 0.921932 0.744819 -0.02249
C_ C_ 0.462843 0.928454 0.759234 -0.02249
C_ C_ 0.164352 0.811126 0.751637 0.6875
C_ C_ 0.409589 0.814722 0.759793 0.6875
C_ C_ 0.207443 0.900368 0.706579 -0.11473
C_ C_ 0.445231 0.918018 0.723794 -0.11473
C_ C_ 0.185714 0.650909 0.756187 -0.02249
C_ C_ 0.432442 0.649514 0.758634 -0.02249
C_ C_ 0.232316 0.534181 0.752251 -0.02249
C_ C_ 0.485438 0.53829 0.750442 -0.02249
C_ C_ 0.206775 0.591508 0.7923 -0.11473
C_ C_ 0.461643 0.596054 0.794603 -0.11473
C_ C_ 0.193906 0.633724 0.716751 -0.11473
C_ C_ 0.442039 0.634357 0.719476 -0.11473
C_ C_ 0.193217 0.629398 0.792663 -0.11473
C_ C_ 0.441218 0.629029 0.795138 -0.11473
C_ C_ 0.214701 0.573964 0.754167 -0.02249
C_ C_ 0.469823 0.57949 0.754876 -0.02249
C_ C_ 0.164445 0.68922 0.757549 0.6875
C_ C_ 0.414715 0.688028 0.759546 0.6875
C_ C_ 0.206603 0.593803 0.715289 -0.11473
C_ C_ 0.463407 0.602328 0.717694 -0.11473
C_ C_ 0.0684267 0.651348 0.754912 -0.02249
C_ C_ 0.309636 0.652652 0.756226 -0.02249
C_ C_ 0.0180463 0.538296 0.752356 -0.02249
C_ C_ 0.262942 0.535485 0.748181 -0.02249
C_ C_ 0.0534884 0.589629 0.718918 -0.11473
C_ C_ 0.287492 0.59697 0.714014 -0.11473
C_ C_ 0.0570383 0.635251 0.792266 -0.11473
C_ C_ 0.301993 0.63225 0.791966 -0.11473
C_ C_ 0.0701366 0.62457 0.721497 -0.11473
C_ C_ 0.300375 0.636339 0.717069 -0.11473
C_ C_ 0.0374388 0.576107 0.754141 -0.02249
C_ C_ 0.279592 0.576488 0.751373 -0.02249
C_ C_ 0.0868895 0.690716 0.755514 0.6875
C_ C_ 0.331008 0.69015 0.758107 0.6875
C_ C_ 0.0408866 0.59776 0.791334 -0.11473
C_ C_ 0.286904 0.594399 0.790099 -0.11473
C_ C_ 0.125386 0.787946 0.879987 0.17695
C_ C_ 0.358514 0.721728 0.88919 0.17695
C_ C_ 0.118151 0.715617 0.883587 0.17695
C_ C_ 0.399361 0.768437 0.889932 0.17695
C_ C_ 0.114951 0.717392 0.92681 -0.11473
C_ C_ 0.402055 0.765052 0.933202 -0.11473
C_ C_ 0.117114 0.755602 0.946685 0.23465
C_ C_ 0.382997 0.738668 0.955671 0.23465
C_ C_ 0.121091 0.791524 0.921655 -0.11473
C_ C_ 0.360751 0.716649 0.933328 -0.11473
C_ C_ 0.117232 0.709961 0.632363 0.17695
C_ C_ 0.381526 0.774534 0.630276 0.17695
C_ C_ 0.138846 0.776252 0.624833 0.17695
C_ C_ 0.352712 0.712945 0.631761 0.17695
C_ C_ 0.139668 0.77235 0.581572 -0.11473
C_ C_ 0.351839 0.713275 0.586989 -0.11473
C_ C_ 0.128855 0.735734 0.562346 0.23465
C_ C_ 0.365923 0.743899 0.563247 0.23465
C_ C_ 0.118665 0.704134 0.588563 -0.11473
C_ C_ 0.380648 0.776214 0.58649 -0.11473
C_ C_ 0.0310332 -0.0003309999999999702 0.763048 0.05793
C_ C_ 0.28264 -0.0027880000000000127 0.749156 0.05793
C_ C_ 0.216475 0.49511 0.750082 0.05793
C_ C_ 0.469224 0.501392 0.747293 0.05793
Br Br 0.0715652 0.00176653 0.78979 -0.17191
Br Br 0.327561 -0.005400999999999989 0.755063 -0.17191
Br Br 0.174551 0.493001 0.750849 -0.17191
Br Br 0.426188 0.504976 0.755879 -0.17191
N_ N_ 0.122959 0.751103 0.861716 -0.272
N_ N_ 0.379086 0.745751 0.867934 -0.272
N_ N_ 0.111185 0.757799 0.991111 -0.12501
N_ N_ 0.385327 0.734685 1.00134 -0.12501
N_ N_ 0.126976 0.746188 0.650207 -0.272
N_ N_ 0.366433 0.745274 0.652297 -0.272
N_ N_ 0.131218 0.729444 0.518578 -0.12501
N_ N_ 0.362281 0.741693 0.517785 -0.12501
O_ O_ 0.096683 0.797896 0.717119 -0.60745
O_ O_ 0.336364 0.784209 0.722843 -0.60745
O_ O_ 0.0946716 0.789576 0.785423 -0.60745
O_ O_ 0.343549 0.79108 0.793048 -0.60745
O_ O_ 0.154124 0.799836 0.787226 -0.60745
O_ O_ 0.404215 0.796063 0.795013 -0.60745
O_ O_ 0.158218 0.791728 0.717928 -0.60745
O_ O_ 0.4006 0.798183 0.7252 -0.60745
O_ O_ 0.15848 0.708527 0.791515 -0.60745
O_ O_ 0.402048 0.69847 0.794737 -0.60745
O_ O_ 0.153825 0.704143 0.723537 -0.60745
O_ O_ 0.407281 0.707202 0.725294 -0.60745
O_ O_ 0.0917464 0.70854 0.722311 -0.60745
O_ O_ 0.343637 0.700255 0.724915 -0.60745
O_ O_ 0.0973368 0.705307 0.790058 -0.60745
O_ O_ 0.342251 0.701619 0.793357 -0.60745
Zn Zn 0.628267 0.254489 0.281736 0.9476
Zn Zn 0.875186 0.246203 0.28389 0.9476
Zn Zn 0.626066 0.248544 0.214395 0.9476
Zn Zn 0.872917 0.250784 0.214932 0.9476
H_ H_ 0.540169 0.417788 0.17854 0.10932
H_ H_ 0.787844 0.41646 0.182215 0.10932
H_ H_ 0.561981 0.346985 0.313927 0.10932
H_ H_ 0.819686 0.356694 0.320916 0.10932
H_ H_ 0.574678 0.3608 0.181988 0.10932
H_ H_ 0.814548 0.354411 0.18666 0.10932
H_ H_ 0.52556 0.407546 0.310907 0.10932
H_ H_ 0.793268 0.425311 0.318027 0.10932
H_ H_ 0.733555 0.407981 0.308177 0.10932
H_ H_ 0.957184 0.427379 0.312354 0.10932
H_ H_ 0.67811 0.361209 0.181118 0.10932
H_ H_ 0.946021 0.342757 0.185636 0.10932
H_ H_ 0.70192 0.349344 0.313581 0.10932
H_ H_ 0.924288 0.366616 0.31438 0.10932
H_ H_ 0.709563 0.425349 0.17883 0.10932
H_ H_ 0.96819 0.410895 0.180097 0.10932
H_ H_ 0.724678 0.0925885 0.322792 0.10932
H_ H_ 0.961873 0.0728967 0.311316 0.10932
H_ H_ 0.670723 0.138982 0.190923 0.10932
H_ H_ 0.931585 0.136303 0.173458 0.10932
H_ H_ 0.700552 0.164884 0.319373 0.10932
H_ H_ 0.936313 0.143175 0.309776 0.10932
H_ H_ 0.702003 0.0740346 0.193005 0.10932
H_ H_ 0.959516 0.0703267 0.176169 0.10932
H_ H_ 0.527487 0.0874481 0.183731 0.10932
H_ H_ 0.77763 0.0840683 0.182516 0.10932
H_ H_ 0.578736 0.145531 0.309579 0.10932
H_ H_ 0.824565 0.137523 0.31096 0.10932
H_ H_ 0.554705 0.154816 0.17772 0.10932
H_ H_ 0.804479 0.152558 0.18071 0.10932
H_ H_ 0.549437 0.0808597 0.318043 0.10932
H_ H_ 0.793998 0.0747817 0.313985 0.10932
H_ H_ 0.633035 0.189586 0.353068 0.10932
H_ H_ 0.87701 0.180722 0.356181 0.10932
H_ H_ 0.615601 0.31477 0.360893 0.10932
H_ H_ 0.872936 0.308821 0.363476 0.10932
H_ H_ 0.614094 0.313017 0.439405 0.10932
H_ H_ 0.867277 0.305842 0.439625 0.10932
H_ H_ 0.630038 0.183308 0.432523 0.10932
H_ H_ 0.8786 0.174843 0.431288 0.10932
H_ H_ 0.63281 0.194958 0.136898 0.10932
H_ H_ 0.877651 0.322259 0.143722 0.10932
H_ H_ 0.626066 0.321197 0.141739 0.10932
H_ H_ 0.867999 0.1937 0.140448 0.10932
H_ H_ 0.625389 0.325687 0.0658245 0.10932
H_ H_ 0.861766 0.193159 0.0621959 0.10932
H_ H_ 0.63192 0.193478 0.0579014 0.10932
H_ H_ 0.87646 0.326943 0.0674214 0.10932
C_ C_ 0.567215 0.346361 0.247924 -0.02249
C_ C_ 0.819071 0.349435 0.25419 -0.02249
C_ C_ 0.514652 0.459067 0.24992 -0.02249
C_ C_ 0.770052 0.466282 0.25097 -0.02249
C_ C_ 0.544154 0.404358 0.208602 -0.11473
C_ C_ 0.796239 0.408696 0.213521 -0.11473
C_ C_ 0.554356 0.362022 0.284407 -0.11473
C_ C_ 0.815513 0.372412 0.291828 -0.11473
C_ C_ 0.562506 0.368382 0.210955 -0.11473
C_ C_ 0.810914 0.370178 0.216112 -0.11473
C_ C_ 0.532749 0.420268 0.246392 -0.02249
C_ C_ 0.790052 0.428726 0.25064 -0.02249
C_ C_ 0.586326 0.308927 0.249744 0.6875
C_ C_ 0.840309 0.312307 0.253416 0.6875
C_ C_ 0.537695 0.398305 0.284101 -0.11473
C_ C_ 0.801113 0.411478 0.289674 -0.11473
C_ C_ 0.684958 0.351682 0.249562 -0.02249
C_ C_ 0.935011 0.347186 0.25066 -0.02249
C_ C_ 0.739298 0.462132 0.242588 -0.02249
C_ C_ 0.982601 0.465268 0.245012 -0.02249
C_ C_ 0.720844 0.400822 0.280264 -0.11473
C_ C_ 0.950045 0.414565 0.282317 -0.11473
C_ C_ 0.688502 0.373653 0.209406 -0.11473
C_ C_ 0.947173 0.360538 0.21308 -0.11473
C_ C_ 0.702363 0.364613 0.283294 -0.11473
C_ C_ 0.934496 0.376919 0.28395 -0.11473
C_ C_ 0.723489 0.423065 0.24314 -0.02249
C_ C_ 0.965048 0.425694 0.246395 -0.02249
C_ C_ 0.662821 0.315728 0.250873 0.6875
C_ C_ 0.914348 0.309694 0.253005 0.6875
C_ C_ 0.709267 0.408421 0.207663 -0.11473
C_ C_ 0.961809 0.399193 0.211164 -0.11473
C_ C_ 0.686026 0.156475 0.254169 -0.02249
C_ C_ 0.930141 0.145064 0.241255 -0.02249
C_ C_ 0.734105 0.0398921 0.258664 -0.02249
C_ C_ 0.984741 0.0346609 0.243986 -0.02249
C_ C_ 0.715365 0.104918 0.294474 -0.11473
C_ C_ 0.957614 0.0908445 0.28091 -0.11473
C_ C_ 0.685948 0.130727 0.219409 -0.11473
C_ C_ 0.937894 0.123787 0.204103 -0.11473
C_ C_ 0.699412 0.143501 0.292642 -0.11473
C_ C_ 0.941382 0.12892 0.280423 -0.11473
C_ C_ 0.718139 0.0800454 0.257276 -0.02249
C_ C_ 0.965756 0.0724097 0.242924 -0.02249
C_ C_ 0.667288 0.193579 0.250286 0.6875
C_ C_ 0.913316 0.185909 0.24049 0.6875
C_ C_ 0.702043 0.0933435 0.219187 -0.11473
C_ C_ 0.954224 0.087048 0.205176 -0.11473
C_ C_ 0.569379 0.153778 0.244724 -0.02249
C_ C_ 0.811774 0.153122 0.247608 -0.02249
C_ C_ 0.521569 0.0388537 0.253293 -0.02249
C_ C_ 0.765324 0.0387497 0.252125 -0.02249
C_ C_ 0.538608 0.0994808 0.211537 -0.11473
C_ C_ 0.785076 0.0978432 0.210647 -0.11473
C_ C_ 0.56852 0.131565 0.282488 -0.11473
C_ C_ 0.808139 0.132068 0.285124 -0.11473
C_ C_ 0.555534 0.136057 0.207749 -0.11473
C_ C_ 0.802848 0.13501 0.210476 -0.11473
C_ C_ 0.53847 0.0780778 0.250406 -0.02249
C_ C_ 0.781822 0.0781104 0.249135 -0.02249
C_ C_ 0.587328 0.193231 0.243711 0.6875
C_ C_ 0.835103 0.188344 0.246399 0.6875
C_ C_ 0.55144 0.0958863 0.287078 -0.11473
C_ C_ 0.790805 0.0955645 0.286421 -0.11473
C_ C_ 0.628586 0.214912 0.373321 0.17695
C_ C_ 0.872536 0.20696 0.374741 0.17695
C_ C_ 0.620875 0.286426 0.376763 0.17695
C_ C_ 0.877872 0.279794 0.3785 0.17695
C_ C_ 0.620792 0.286109 0.421277 -0.11473
C_ C_ 0.877812 0.278809 0.422677 -0.11473
C_ C_ 0.624954 0.24799 0.442145 0.23465
C_ C_ 0.872583 0.240246 0.442153 0.23465
C_ C_ 0.626606 0.212914 0.417221 -0.11473
C_ C_ 0.874455 0.205321 0.418123 -0.11473
C_ C_ 0.628828 0.220525 0.120451 0.17695
C_ C_ 0.874684 0.294279 0.125697 0.17695
C_ C_ 0.628856 0.293775 0.122636 0.17695
C_ C_ 0.865451 0.222027 0.122359 0.17695
C_ C_ 0.626854 0.296231 0.0792987 -0.11473
C_ C_ 0.864926 0.222609 0.0789921 -0.11473
C_ C_ 0.626652 0.260509 0.0557159 0.23465
C_ C_ 0.870272 0.260711 0.0582912 0.23465
C_ C_ 0.626811 0.221889 0.0769527 -0.11473
C_ C_ 0.873273 0.296926 0.0819221 -0.11473
C_ C_ 0.530355 0.496315 0.253908 0.05793
C_ C_ 0.783583 0.504565 0.258554 0.05793
C_ C_ 0.719147 1.00221498 0.266747 0.05793
C_ C_ 0.971871 0.996388 0.239914 0.05793
Br Br 0.574008 0.496902 0.260224 -0.17191
Br Br 0.824584 0.510183 0.279324 -0.17191
Br Br 0.679488 0.00171424 0.287632 -0.17191
Br Br 0.928958 -0.006639999999999979 0.229877 -0.17191
N_ N_ 0.623553 0.250456 0.354225 -0.272
N_ N_ 0.872476 0.24368 0.35481 -0.272
N_ N_ 0.62918 0.244856 0.486318 -0.12501
N_ N_ 0.87184 0.235336 0.487307 -0.12501
N_ N_ 0.628722 0.256498 0.142341 -0.272
N_ N_ 0.86959 0.25763 0.14403 -0.272
N_ N_ 0.621771 0.264137 0.0112605 -0.12501
N_ N_ 0.86686 0.263872 0.0141027 -0.12501
O_ O_ 0.597501 0.294955 0.21583 -0.60745
O_ O_ 0.849981 0.301021 0.217927 -0.60745
O_ O_ 0.59457 0.293773 0.284423 -0.60745
O_ O_ 0.845302 0.292049 0.286787 -0.60745
O_ O_ 0.655837 0.301259 0.286069 -0.60745
O_ O_ 0.906264 0.293088 0.287222 -0.60745
O_ O_ 0.657072 0.295328 0.216883 -0.60745
O_ O_ 0.90743 0.290573 0.218988 -0.60745
O_ O_ 0.662274 0.214998 0.28341 -0.60745
O_ O_ 0.907311 0.201626 0.275995 -0.60745
O_ O_ 0.658622 0.207775 0.213891 -0.60745
O_ O_ 0.898591 0.199085 0.209356 -0.60745
O_ O_ 0.592964 0.209156 0.208868 -0.60745
O_ O_ 0.838811 0.209805 0.213303 -0.60745
O_ O_ 0.5971 0.21015 0.276604 -0.60745
O_ O_ 0.843845 0.203512 0.281001 -0.60745
Zn Zn 0.628036 0.25494 0.781086 0.9476
Zn Zn 0.875485 0.254371 0.784432 0.9476
Zn Zn 0.624355 0.25029 0.710395 0.9476
Zn Zn 0.874903 0.251142 0.715399 0.9476
H_ H_ 0.531402 0.409699 0.678665 0.10932
H_ H_ 0.78367 0.41698 0.681226 0.10932
H_ H_ 0.568401 0.357331 0.817092 0.10932
H_ H_ 0.82602 0.3677 0.816729 0.10932
H_ H_ 0.560374 0.348912 0.683176 0.10932
H_ H_ 0.811002 0.354233 0.682685 0.10932
H_ H_ 0.545247 0.42495 0.810397 0.10932
H_ H_ 0.790372 0.422587 0.817885 0.10932
H_ H_ 0.700332 0.433897 0.807731 0.10932
H_ H_ 0.964433 0.417889 0.817186 0.10932
H_ H_ 0.695562 0.344769 0.684732 0.10932
H_ H_ 0.939479 0.350774 0.681423 0.10932
H_ H_ 0.670142 0.371238 0.80863 0.10932
H_ H_ 0.938468 0.348198 0.81817 0.10932
H_ H_ 0.717937 0.415856 0.681966 0.10932
H_ H_ 0.960995 0.418199 0.683901 0.10932
H_ H_ 0.707521 0.0717238 0.809614 0.10932
H_ H_ 0.952831 0.0785212 0.818252 0.10932
H_ H_ 0.686653 0.149842 0.680262 0.10932
H_ H_ 0.942441 0.151532 0.683659 0.10932
H_ H_ 0.683936 0.140416 0.81423 0.10932
H_ H_ 0.927938 0.144326 0.818198 0.10932
H_ H_ 0.71656 0.0840564 0.677795 0.10932
H_ H_ 0.967173 0.0847918 0.687541 0.10932
H_ H_ 0.524848 0.0876192 0.684605 0.10932
H_ H_ 0.792746 0.0824741 0.676412 0.10932
H_ H_ 0.575867 0.139057 0.813272 0.10932
H_ H_ 0.819531 0.145387 0.812387 0.10932
H_ H_ 0.554772 0.148886 0.676349 0.10932
H_ H_ 0.816544 0.15242 0.679284 0.10932
H_ H_ 0.545559 0.0790953 0.813933 0.10932
H_ H_ 0.790703 0.0809517 0.811202 0.10932
H_ H_ 0.627735 0.313567 0.862527 0.10932
H_ H_ 0.92236 0.253113 0.858768 0.10932
H_ H_ 0.628924 0.181263 0.852994 0.10932
H_ H_ 0.828844 0.229171 0.863671 0.10932
H_ H_ 0.621203 0.175456 0.929974 0.10932
H_ H_ 0.830193 0.241197 0.94056 0.10932
H_ H_ 0.623674 0.307704 0.940209 0.10932
H_ H_ 0.926106 0.241066 0.936895 0.10932
H_ H_ 0.648311 0.202507 0.630126 0.10932
H_ H_ 0.864589 0.317729 0.648059 0.10932
H_ H_ 0.601101 0.317186 0.646763 0.10932
H_ H_ 0.873769 0.189941 0.638073 0.10932
H_ H_ 0.595368 0.316159 0.563222 0.10932
H_ H_ 0.882524 0.195518 0.561531 0.10932
H_ H_ 0.637459 0.201253 0.55627 0.10932
H_ H_ 0.855722 0.324131 0.57125 0.10932
C_ C_ 0.568442 0.349233 0.750276 -0.02249
C_ C_ 0.819821 0.354003 0.749796 -0.02249
C_ C_ 0.516558 0.462692 0.745443 -0.02249
C_ C_ 0.764955 0.462796 0.74913 -0.02249
C_ C_ 0.539208 0.400213 0.710766 -0.11473
C_ C_ 0.792023 0.406034 0.710552 -0.11473
C_ C_ 0.561308 0.368949 0.787077 -0.11473
C_ C_ 0.815657 0.376675 0.787002 -0.11473
C_ C_ 0.556904 0.363714 0.713007 -0.11473
C_ C_ 0.809319 0.371691 0.711809 -0.11473
C_ C_ 0.533338 0.423237 0.746265 -0.02249
C_ C_ 0.781722 0.422338 0.749044 -0.02249
C_ C_ 0.588388 0.313051 0.751821 0.6875
C_ C_ 0.840078 0.317437 0.748528 0.6875
C_ C_ 0.545433 0.406819 0.783714 -0.11473
C_ C_ 0.794569 0.406535 0.787572 -0.11473
C_ C_ 0.685299 0.348876 0.749027 -0.02249
C_ C_ 0.935142 0.347193 0.749671 -0.02249
C_ C_ 0.732444 0.464373 0.746997 -0.02249
C_ C_ 0.982038 0.464288 0.752867 -0.02249
C_ C_ 0.701778 0.4132 0.78231 -0.11473
C_ C_ 0.955762 0.405369 0.788864 -0.11473
C_ C_ 0.698149 0.36321 0.711764 -0.11473
C_ C_ 0.942148 0.366233 0.71239 -0.11473
C_ C_ 0.685949 0.375524 0.784575 -0.11473
C_ C_ 0.944883 0.36459 0.788247 -0.11473
C_ C_ 0.713824 0.426393 0.7454 -0.02249
C_ C_ 0.963139 0.426169 0.750203 -0.02249
C_ C_ 0.666036 0.312773 0.750545 0.6875
C_ C_ 0.918436 0.306768 0.749909 0.6875
C_ C_ 0.712634 0.40079 0.711999 -0.11473
C_ C_ 0.953629 0.406845 0.713143 -0.11473
C_ C_ 0.68326 0.151078 0.74579 -0.02249
C_ C_ 0.931713 0.152821 0.750773 -0.02249
C_ C_ 0.735252 0.03967 0.7451 -0.02249
C_ C_ 0.981416 0.0375385 0.756535 -0.02249
C_ C_ 0.706367 0.0929342 0.782962 -0.11473
C_ C_ 0.95031 0.0943697 0.78866 -0.11473
C_ C_ 0.692285 0.134746 0.707678 -0.11473
C_ C_ 0.944144 0.135279 0.714533 -0.11473
C_ C_ 0.688787 0.128507 0.784018 -0.11473
C_ C_ 0.935277 0.132135 0.788362 -0.11473
C_ C_ 0.717661 0.0791856 0.745953 -0.02249
C_ C_ 0.963539 0.076751 0.753591 -0.02249
C_ C_ 0.666746 0.191725 0.746712 0.6875
C_ C_ 0.913283 0.191563 0.748171 0.6875
C_ C_ 0.710651 0.0996318 0.707445 -0.11473
C_ C_ 0.958995 0.0969363 0.716348 -0.11473
C_ C_ 0.569097 0.150368 0.742543 -0.02249
C_ C_ 0.818078 0.156182 0.746171 -0.02249
C_ C_ 0.515153 0.0419468 0.750717 -0.02249
C_ C_ 0.767422 0.04065 0.743657 -0.02249
C_ C_ 0.535731 0.100366 0.710094 -0.11473
C_ C_ 0.793758 0.100076 0.707123 -0.11473
C_ C_ 0.563929 0.132023 0.782831 -0.11473
C_ C_ 0.809987 0.135546 0.782751 -0.11473
C_ C_ 0.552415 0.137322 0.707196 -0.11473
C_ C_ 0.811015 0.136219 0.70762 -0.11473
C_ C_ 0.533363 0.0807023 0.749365 -0.02249
C_ C_ 0.784059 0.0813009 0.744294 -0.02249
C_ C_ 0.586269 0.190261 0.741404 0.6875
C_ C_ 0.837524 0.194004 0.747566 0.6875
C_ C_ 0.544655 0.0985865 0.786234 -0.11473
C_ C_ 0.796653 0.0951256 0.782231 -0.11473
C_ C_ 0.62607 0.283234 0.877941 0.17695
C_ C_ 0.902344 0.246249 0.876968 0.17695
C_ C_ 0.627002 0.209969 0.871653 0.17695
C_ C_ 0.849605 0.239844 0.879947 0.17695
C_ C_ 0.625603 0.205292 0.915931 -0.11473
C_ C_ 0.850803 0.24194 0.923662 -0.11473
C_ C_ 0.625416 0.240135 0.940937 0.23465
C_ C_ 0.878668 0.244695 0.945506 0.23465
C_ C_ 0.623538 0.279929 0.921773 -0.11473
C_ C_ 0.904216 0.240455 0.920284 -0.11473
C_ C_ 0.636564 0.228975 0.617505 0.17695
C_ C_ 0.864756 0.290265 0.627215 0.17695
C_ C_ 0.612314 0.294763 0.624906 0.17695
C_ C_ 0.87193 0.217407 0.620745 0.17695
C_ C_ 0.610854 0.295775 0.580363 -0.11473
C_ C_ 0.875084 0.222083 0.577875 -0.11473
C_ C_ 0.624668 0.26541 0.557168 0.23465
C_ C_ 0.866461 0.259362 0.55748 0.23465
C_ C_ 0.635442 0.230188 0.573736 -0.11473
C_ C_ 0.86231 0.293497 0.582655 -0.11473
C_ C_ 0.532041 0.499919 0.743595 0.05793
C_ C_ 0.781226 0.501763 0.749399 0.05793
C_ C_ 0.720171 0.00104203 0.743133 0.05793
C_ C_ 0.967392 -0.0016279999999999628 0.757058 0.05793
Br Br 0.576572 0.50143 0.739459 -0.17191
Br Br 0.825026 0.498967 0.751654 -0.17191
Br Br 0.677321 0.000686696 0.734483 -0.17191
Br Br 0.925667 -0.005471000000000004 0.762274 -0.17191
N_ N_ 0.629476 0.248805 0.853749 -0.272
N_ N_ 0.874683 0.247425 0.855201 -0.272
N_ N_ 0.631146 0.237115 0.986192 -0.12501
N_ N_ 0.880867 0.240727 0.989992 -0.12501
N_ N_ 0.624559 0.260012 0.642305 -0.272
N_ N_ 0.869132 0.251522 0.644249 -0.272
N_ N_ 0.623651 0.272262 0.512838 -0.12501
N_ N_ 0.867508 0.265358 0.512135 -0.12501
O_ O_ 0.593669 0.291804 0.719467 -0.60745
O_ O_ 0.844604 0.298212 0.714923 -0.60745
O_ O_ 0.600276 0.300987 0.784865 -0.60745
O_ O_ 0.847792 0.300937 0.78274 -0.60745
O_ O_ 0.660524 0.294209 0.78414 -0.60745
O_ O_ 0.908868 0.293398 0.784657 -0.60745
O_ O_ 0.655952 0.299212 0.71666 -0.60745
O_ O_ 0.906179 0.293245 0.717555 -0.60745
O_ O_ 0.657548 0.206526 0.781849 -0.60745
O_ O_ 0.903786 0.206464 0.780246 -0.60745
O_ O_ 0.658397 0.209827 0.71207 -0.60745
O_ O_ 0.905518 0.208201 0.712545 -0.60745
O_ O_ 0.596092 0.202346 0.70674 -0.60745
O_ O_ 0.844281 0.211375 0.714223 -0.60745
O_ O_ 0.595725 0.207455 0.774595 -0.60745
O_ O_ 0.84199 0.211788 0.783188 -0.60745
Zn Zn 0.625064 0.748343 0.284332 0.9476
Zn Zn 0.876027 0.7526 0.27838 0.9476
Zn Zn 0.624125 0.749069 0.214783 0.9476
Zn Zn 0.873265 0.752294 0.208594 0.9476
H_ H_ 0.535087 0.91623 0.183313 0.10932
H_ H_ 0.776863 0.91736 0.180344 0.10932
H_ H_ 0.562501 0.848064 0.316591 0.10932
H_ H_ 0.811229 0.851188 0.315438 0.10932
H_ H_ 0.552954 0.843164 0.183657 0.10932
H_ H_ 0.811542 0.859433 0.17546 0.10932
H_ H_ 0.539328 0.915239 0.317087 0.10932
H_ H_ 0.777988 0.917044 0.314301 0.10932
H_ H_ 0.713403 0.914864 0.325929 0.10932
H_ H_ 0.968868 0.920416 0.308243 0.10932
H_ H_ 0.678485 0.863493 0.185799 0.10932
H_ H_ 0.95235 0.838126 0.176089 0.10932
H_ H_ 0.678525 0.856748 0.319355 0.10932
H_ H_ 0.940397 0.857509 0.309496 0.10932
H_ H_ 0.710474 0.928933 0.192986 0.10932
H_ H_ 0.980557 0.904237 0.176188 0.10932
H_ H_ 0.700771 0.571061 0.315782 0.10932
H_ H_ 0.957474 0.582364 0.317445 0.10932
H_ H_ 0.705365 0.66085 0.189232 0.10932
H_ H_ 0.940542 0.654543 0.179878 0.10932
H_ H_ 0.667446 0.62867 0.310281 0.10932
H_ H_ 0.930541 0.648342 0.317328 0.10932
H_ H_ 0.736136 0.60004 0.192038 0.10932
H_ H_ 0.974383 0.588995 0.184728 0.10932
H_ H_ 0.52284 0.588742 0.18436 0.10932
H_ H_ 0.795689 0.575177 0.189355 0.10932
H_ H_ 0.576968 0.627967 0.313434 0.10932
H_ H_ 0.805099 0.662602 0.315631 0.10932
H_ H_ 0.554175 0.65351 0.185249 0.10932
H_ H_ 0.817969 0.64472 0.18247 0.10932
H_ H_ 0.546709 0.569931 0.314996 0.10932
H_ H_ 0.767495 0.603327 0.315572 0.10932
H_ H_ 0.633023 0.686886 0.359421 0.10932
H_ H_ 0.884565 0.811685 0.35715 0.10932
H_ H_ 0.615321 0.811755 0.352719 0.10932
H_ H_ 0.869875 0.681706 0.346369 0.10932
H_ H_ 0.612952 0.817905 0.428311 0.10932
H_ H_ 0.87359 0.672814 0.421354 0.10932
H_ H_ 0.633524 0.688765 0.438522 0.10932
H_ H_ 0.88256 0.806017 0.432769 0.10932
H_ H_ 0.634206 0.689857 0.13376 0.10932
H_ H_ 0.865503 0.687937 0.134584 0.10932
H_ H_ 0.612071 0.81693 0.144148 0.10932
H_ H_ 0.873806 0.815522 0.129467 0.10932
H_ H_ 0.606988 0.82273 0.0675781 0.10932
H_ H_ 0.867645 0.811512 0.0519333 0.10932
H_ H_ 0.622684 0.691904 0.0547654 0.10932
H_ H_ 0.865726 0.680193 0.0644878 0.10932
C_ C_ 0.561712 0.840909 0.249702 -0.02249
C_ C_ 0.814014 0.848139 0.245491 -0.02249
C_ C_ 0.51945 0.961642 0.252631 -0.02249
C_ C_ 0.76322 0.961994 0.249981 -0.02249
C_ C_ 0.540133 0.900407 0.211917 -0.11473
C_ C_ 0.788645 0.905934 0.20896 -0.11473
C_ C_ 0.557555 0.861509 0.286548 -0.11473
C_ C_ 0.80478 0.864723 0.28581 -0.11473
C_ C_ 0.551703 0.859991 0.211914 -0.11473
C_ C_ 0.804045 0.868366 0.206802 -0.11473
C_ C_ 0.535569 0.921179 0.249276 -0.02249
C_ C_ 0.77967 0.921738 0.248297 -0.02249
C_ C_ 0.580449 0.803334 0.248555 0.6875
C_ C_ 0.835667 0.812686 0.243339 0.6875
C_ C_ 0.544122 0.901026 0.28623 -0.11473
C_ C_ 0.787319 0.902453 0.285876 -0.11473
C_ C_ 0.677363 0.85388 0.252992 -0.02249
C_ C_ 0.938484 0.846937 0.241896 -0.02249
C_ C_ 0.733062 0.964451 0.260374 -0.02249
C_ C_ 0.990836 0.960279 0.235997 -0.02249
C_ C_ 0.706118 0.902994 0.296008 -0.11473
C_ C_ 0.963297 0.905348 0.27762 -0.11473
C_ C_ 0.68705 0.875233 0.216952 -0.11473
C_ C_ 0.954916 0.855676 0.20557 -0.11473
C_ C_ 0.687832 0.867487 0.292325 -0.11473
C_ C_ 0.946354 0.869049 0.279211 -0.11473
C_ C_ 0.714788 0.924803 0.260768 -0.02249
C_ C_ 0.974226 0.919287 0.239509 -0.02249
C_ C_ 0.660825 0.812578 0.2497 0.6875
C_ C_ 0.916872 0.80938 0.243264 0.6875
C_ C_ 0.704123 0.912766 0.221102 -0.11473
C_ C_ 0.969681 0.895305 0.20361 -0.11473
C_ C_ 0.686574 0.654602 0.253029 -0.02249
C_ C_ 0.932519 0.654402 0.246996 -0.02249
C_ C_ 0.73516 0.538887 0.250808 -0.02249
C_ C_ 0.982441 0.541133 0.249359 -0.02249
C_ C_ 0.702413 0.590201 0.285769 -0.11473
C_ C_ 0.956207 0.598566 0.288627 -0.11473
C_ C_ 0.702629 0.642888 0.217412 -0.11473
C_ C_ 0.945317 0.638662 0.209316 -0.11473
C_ C_ 0.684095 0.625339 0.284908 -0.11473
C_ C_ 0.940329 0.636634 0.287818 -0.11473
C_ C_ 0.717841 0.576933 0.25108 -0.02249
C_ C_ 0.965599 0.580102 0.24943 -0.02249
C_ C_ 0.667333 0.692678 0.250607 0.6875
C_ C_ 0.913547 0.691685 0.24564 0.6875
C_ C_ 0.71756 0.604297 0.215805 -0.11473
C_ C_ 0.961038 0.600643 0.210503 -0.11473
C_ C_ 0.570848 0.644852 0.248249 -0.02249
C_ C_ 0.812177 0.660433 0.248827 -0.02249
C_ C_ 0.515219 0.535128 0.249255 -0.02249
C_ C_ 0.767289 0.54022 0.25447 -0.02249
C_ C_ 0.533402 0.600155 0.21304 -0.11473
C_ C_ 0.797436 0.594709 0.216942 -0.11473
C_ C_ 0.566547 0.62058 0.284167 -0.11473
C_ C_ 0.800259 0.645188 0.286925 -0.11473
C_ C_ 0.553734 0.634158 0.21168 -0.11473
C_ C_ 0.812107 0.634376 0.213549 -0.11473
C_ C_ 0.529962 0.57622 0.24965 -0.02249
C_ C_ 0.782751 0.582026 0.254315 -0.02249
C_ C_ 0.589981 0.682818 0.24924 0.6875
C_ C_ 0.830329 0.69928 0.246881 0.6875
C_ C_ 0.545454 0.588551 0.286545 -0.11473
C_ C_ 0.782456 0.608337 0.288534 -0.11473
C_ C_ 0.6273 0.714407 0.375591 0.17695
C_ C_ 0.880591 0.781226 0.372424 0.17695
C_ C_ 0.622038 0.78666 0.371775 0.17695
C_ C_ 0.87499 0.708906 0.366455 0.17695
C_ C_ 0.618909 0.788358 0.41443 -0.11473
C_ C_ 0.873463 0.704429 0.40944 -0.11473
C_ C_ 0.623514 0.754003 0.440364 0.23465
C_ C_ 0.876038 0.739874 0.435799 0.23465
C_ C_ 0.628318 0.71522 0.420658 -0.11473
C_ C_ 0.879622 0.778163 0.415548 -0.11473
C_ C_ 0.627855 0.718668 0.118042 0.17695
C_ C_ 0.864567 0.715846 0.118064 0.17695
C_ C_ 0.615704 0.789195 0.124968 0.17695
C_ C_ 0.871963 0.788257 0.113911 0.17695
C_ C_ 0.612785 0.792627 0.0810085 -0.11473
C_ C_ 0.870045 0.784775 0.0697317 -0.11473
C_ C_ 0.617217 0.757669 0.0550398 0.23465
C_ C_ 0.869567 0.745845 0.0497021 0.23465
C_ C_ 0.62156 0.719644 0.07459 -0.11473
C_ C_ 0.867071 0.710724 0.0742931 -0.11473
C_ C_ 0.534729 0.9989021 0.245487 0.05793
C_ C_ 0.779322 0.99870077 0.252196 0.05793
C_ C_ 0.720392 0.499184 0.245611 0.05793
C_ C_ 0.966874 0.502537 0.246403 0.05793
Br Br 0.573519 0.99754 0.218373 -0.17191
Br Br 0.822624 0.9973922 0.244511 -0.17191
Br Br 0.677505 0.49685 0.234788 -0.17191
Br Br 0.924786 0.502684 0.258216 -0.17191
N_ N_ 0.624726 0.749778 0.352746 -0.272
N_ N_ 0.878612 0.745937 0.34807 -0.272
N_ N_ 0.616431 0.757085 0.48414 -0.12501
N_ N_ 0.879809 0.737177 0.479137 -0.12501
N_ N_ 0.623949 0.752086 0.142937 -0.272
N_ N_ 0.871173 0.752144 0.13792 -0.272
N_ N_ 0.615277 0.760789 0.0113971 -0.12501
N_ N_ 0.866027 0.74181 0.00550222 -0.12501
O_ O_ 0.59173 0.791059 0.213398 -0.60745
O_ O_ 0.840332 0.795325 0.20899 -0.60745
O_ O_ 0.588975 0.785271 0.283106 -0.60745
O_ O_ 0.844594 0.795297 0.278027 -0.60745
O_ O_ 0.649377 0.796009 0.282298 -0.60745
O_ O_ 0.910278 0.792259 0.277857 -0.60745
O_ O_ 0.655418 0.794597 0.215631 -0.60745
O_ O_ 0.906002 0.795526 0.209611 -0.60745
O_ O_ 0.660095 0.71238 0.283356 -0.60745
O_ O_ 0.901193 0.7021 0.278517 -0.60745
O_ O_ 0.657527 0.703905 0.215392 -0.60745
O_ O_ 0.905063 0.708391 0.2114 -0.60745
O_ O_ 0.595278 0.701473 0.21434 -0.60745
O_ O_ 0.840636 0.711941 0.211924 -0.60745
O_ O_ 0.597881 0.697919 0.283292 -0.60745
O_ O_ 0.841348 0.714641 0.279763 -0.60745
Zn Zn 0.619119 0.75612 0.780455 0.9476
Zn Zn 0.875099 0.750487 0.779087 0.9476
Zn Zn 0.623459 0.753448 0.712123 0.9476
Zn Zn 0.88059 0.751088 0.70664 0.9476
H_ H_ 0.510841 0.911216 0.688139 0.10932
H_ H_ 0.800467 0.934914 0.686484 0.10932
H_ H_ 0.557476 0.85242 0.814241 0.10932
H_ H_ 0.799872 0.839393 0.806232 0.10932
H_ H_ 0.545068 0.848436 0.680858 0.10932
H_ H_ 0.828219 0.868832 0.681121 0.10932
H_ H_ 0.542649 0.92347 0.815262 0.10932
H_ H_ 0.776519 0.906147 0.812404 0.10932
H_ H_ 0.718325 0.919298 0.812993 0.10932
H_ H_ 0.97258 0.906346 0.813472 0.10932
H_ H_ 0.690334 0.850387 0.674783 0.10932
H_ H_ 0.931924 0.859689 0.67873 0.10932
H_ H_ 0.683666 0.855852 0.810089 0.10932
H_ H_ 0.938722 0.8487 0.813001 0.10932
H_ H_ 0.722809 0.912347 0.67789 0.10932
H_ H_ 0.964646 0.919858 0.679538 0.10932
H_ H_ 0.714334 0.590779 0.816084 0.10932
H_ H_ 0.951514 0.574154 0.807755 0.10932
H_ H_ 0.6848 0.648243 0.679775 0.10932
H_ H_ 0.956497 0.661215 0.682618 0.10932
H_ H_ 0.686137 0.654361 0.816516 0.10932
H_ H_ 0.92729 0.643218 0.812168 0.10932
H_ H_ 0.710225 0.580601 0.682641 0.10932
H_ H_ 0.982676 0.599411 0.684329 0.10932
H_ H_ 0.52782 0.584477 0.682583 0.10932
H_ H_ 0.794266 0.577095 0.683711 0.10932
H_ H_ 0.564007 0.65166 0.817666 0.10932
H_ H_ 0.802782 0.663909 0.80679 0.10932
H_ H_ 0.556525 0.651617 0.681977 0.10932
H_ H_ 0.830426 0.634311 0.681748 0.10932
H_ H_ 0.536228 0.582008 0.819038 0.10932
H_ H_ 0.775917 0.596114 0.813427 0.10932
H_ H_ 0.626188 0.682267 0.848745 0.10932
H_ H_ 0.882268 0.690809 0.860951 0.10932
H_ H_ 0.613504 0.810991 0.862457 0.10932
H_ H_ 0.879606 0.822047 0.848736 0.10932
H_ H_ 0.617824 0.803537 0.943644 0.10932
H_ H_ 0.870888 0.827097 0.925738 0.10932
H_ H_ 0.621137 0.673942 0.927729 0.10932
H_ H_ 0.868739 0.698022 0.934799 0.10932
H_ H_ 0.610645 0.683269 0.646033 0.10932
H_ H_ 0.877009 0.818009 0.637651 0.10932
H_ H_ 0.613037 0.810714 0.629385 0.10932
H_ H_ 0.873732 0.688248 0.628793 0.10932
H_ H_ 0.612945 0.801136 0.553875 0.10932
H_ H_ 0.866432 0.691474 0.552537 0.10932
H_ H_ 0.628985 0.67265 0.568409 0.10932
H_ H_ 0.873641 0.824536 0.559862 0.10932
C_ C_ 0.557406 0.846385 0.746926 -0.02249
C_ C_ 0.818335 0.849561 0.744029 -0.02249
C_ C_ 0.512049 0.965304 0.752492 -0.02249
C_ C_ 0.769138 0.964043 0.750556 -0.02249
C_ C_ 0.52586 0.899808 0.713467 -0.11473
C_ C_ 0.80173 0.914776 0.71157 -0.11473
C_ C_ 0.55314 0.86713 0.785892 -0.11473
C_ C_ 0.800114 0.859197 0.779622 -0.11473
C_ C_ 0.543992 0.864623 0.710154 -0.11473
C_ C_ 0.818584 0.878453 0.710812 -0.11473
C_ C_ 0.527239 0.923467 0.749177 -0.02249
C_ C_ 0.787874 0.926086 0.749184 -0.02249
C_ C_ 0.579332 0.810367 0.74718 0.6875
C_ C_ 0.839998 0.814666 0.747122 0.6875
C_ C_ 0.541575 0.906661 0.78473 -0.11473
C_ C_ 0.786725 0.899 0.783206 -0.11473
C_ C_ 0.682533 0.84973 0.743883 -0.02249
C_ C_ 0.934706 0.846155 0.74571 -0.02249
C_ C_ 0.737265 0.963305 0.743928 -0.02249
C_ C_ 0.984964 0.960488 0.752473 -0.02249
C_ C_ 0.711412 0.904235 0.782507 -0.11473
C_ C_ 0.960176 0.899693 0.78549 -0.11473
C_ C_ 0.693067 0.866503 0.705564 -0.11473
C_ C_ 0.939698 0.868906 0.709167 -0.11473
C_ C_ 0.692664 0.868086 0.782682 -0.11473
C_ C_ 0.94502 0.862501 0.783395 -0.11473
C_ C_ 0.71975 0.923309 0.745039 -0.02249
C_ C_ 0.967935 0.921131 0.747807 -0.02249
C_ C_ 0.659969 0.8143 0.743141 0.6875
C_ C_ 0.91822 0.806381 0.743761 0.6875
C_ C_ 0.712889 0.900829 0.706186 -0.11473
C_ C_ 0.956477 0.906273 0.709226 -0.11473
C_ C_ 0.682002 0.657107 0.747762 -0.02249
C_ C_ 0.939886 0.658731 0.748087 -0.02249
C_ C_ 0.734171 0.540978 0.752191 -0.02249
C_ C_ 0.987328 0.540326 0.748935 -0.02249
C_ C_ 0.709316 0.604116 0.786344 -0.11473
C_ C_ 0.956096 0.595521 0.783106 -0.11473
C_ C_ 0.690633 0.636979 0.710078 -0.11473
C_ C_ 0.954366 0.643064 0.710649 -0.11473
C_ C_ 0.688463 0.63686 0.786659 -0.11473
C_ C_ 0.940803 0.634691 0.783918 -0.11473
C_ C_ 0.716943 0.580904 0.750446 -0.02249
C_ C_ 0.973476 0.583312 0.749366 -0.02249
C_ C_ 0.663711 0.695588 0.743571 0.6875
C_ C_ 0.918947 0.694519 0.743138 0.6875
C_ C_ 0.707936 0.59864 0.71112 -0.11473
C_ C_ 0.972844 0.60933 0.713629 -0.11473
C_ C_ 0.563512 0.653718 0.749101 -0.02249
C_ C_ 0.818528 0.652303 0.745703 -0.02249
C_ C_ 0.517387 0.538193 0.748162 -0.02249
C_ C_ 0.766216 0.540428 0.749193 -0.02249
C_ C_ 0.536148 0.599741 0.712193 -0.11473
C_ C_ 0.798542 0.593108 0.711991 -0.11473
C_ C_ 0.557576 0.634639 0.787308 -0.11473
C_ C_ 0.803409 0.640281 0.783376 -0.11473
C_ C_ 0.551967 0.635713 0.711782 -0.11473
C_ C_ 0.818753 0.626215 0.710561 -0.11473
C_ C_ 0.534708 0.576427 0.750514 -0.02249
C_ C_ 0.783612 0.580884 0.74774 -0.02249
C_ C_ 0.583362 0.692586 0.748109 0.6875
C_ C_ 0.838656 0.690766 0.744683 0.6875
C_ C_ 0.542302 0.59693 0.788381 -0.11473
C_ C_ 0.78529 0.607746 0.783952 -0.11473
C_ C_ 0.624958 0.709009 0.869064 0.17695
C_ C_ 0.879175 0.720585 0.874488 0.17695
C_ C_ 0.617505 0.780557 0.878112 0.17695
C_ C_ 0.876992 0.792772 0.867184 0.17695
C_ C_ 0.618097 0.777168 0.923166 -0.11473
C_ C_ 0.871085 0.796127 0.911168 -0.11473
C_ C_ 0.622322 0.738706 0.940399 0.23465
C_ C_ 0.871922 0.761833 0.936159 0.23465
C_ C_ 0.624835 0.704748 0.913961 -0.11473
C_ C_ 0.874673 0.724736 0.917434 -0.11473
C_ C_ 0.616098 0.707 0.625198 0.17695
C_ C_ 0.875433 0.790154 0.618417 0.17695
C_ C_ 0.613097 0.779521 0.615826 0.17695
C_ C_ 0.871267 0.718275 0.614045 0.17695
C_ C_ 0.613035 0.773432 0.572674 -0.11473
C_ C_ 0.869085 0.719814 0.570715 -0.11473
C_ C_ 0.616047 0.734846 0.554224 0.23465
C_ C_ 0.874265 0.757755 0.548539 0.23465
C_ C_ 0.619261 0.701411 0.581545 -0.11473
C_ C_ 0.876542 0.794559 0.573278 -0.11473
C_ C_ 0.529241 0.0013099999999999223 0.751273 0.05793
C_ C_ 0.783934 0.00250878 0.745285 0.05793
C_ C_ 0.717878 0.503577 0.745599 0.05793
C_ C_ 0.96907 0.504786 0.746759 0.05793
Br Br 0.574552 -0.0013520000000000199 0.752164 -0.17191
Br Br 0.825912 1.00550905 0.757078 -0.17191
Br Br 0.674609 0.506499 0.737779 -0.17191
Br Br 0.927266 0.513068 0.741014 -0.17191
N_ N_ 0.621569 0.747877 0.852717 -0.272
N_ N_ 0.878816 0.754391 0.850015 -0.272
N_ N_ 0.623089 0.732461 0.985951 -0.12501
N_ N_ 0.875966 0.767224 0.979787 -0.12501
N_ N_ 0.614479 0.745909 0.641537 -0.272
N_ N_ 0.876323 0.752883 0.637633 -0.272
N_ N_ 0.61988 0.729109 0.51034 -0.12501
N_ N_ 0.867525 0.760619 0.503807 -0.12501
O_ O_ 0.584288 0.787755 0.714474 -0.60745
O_ O_ 0.849394 0.798485 0.713539 -0.60745
O_ O_ 0.592776 0.802425 0.781397 -0.60745
O_ O_ 0.847273 0.799123 0.782879 -0.60745
O_ O_ 0.653954 0.795647 0.776682 -0.60745
O_ O_ 0.905715 0.791076 0.77713 -0.60745
O_ O_ 0.645553 0.806098 0.709952 -0.60745
O_ O_ 0.910406 0.793812 0.707624 -0.60745
O_ O_ 0.648538 0.706974 0.776386 -0.60745
O_ O_ 0.90596 0.708149 0.775463 -0.60745
O_ O_ 0.661504 0.716227 0.709798 -0.60745
O_ O_ 0.911163 0.705813 0.7063 -0.60745
O_ O_ 0.597805 0.703495 0.71515 -0.60745
O_ O_ 0.847151 0.70758 0.71045 -0.60745
O_ O_ 0.584806 0.714468 0.781855 -0.60745
O_ O_ 0.844233 0.710259 0.77867 -0.60745
