_cell_length_a 44.444
_cell_length_b 32.3360000049186
_cell_length_c 31.843999878906452
_cell_angle_alpha 89.99799923859553
_cell_angle_beta 91.13600050494348
_cell_angle_gamma 89.9990006550086
_symmetry_space_group_name_H-M         'P 1'
_symmetry_Int_Tables_number            1
loop_
_symmetry_equiv_pos_as_xyz
   'x, y, z'
                         
loop_
_atom_site_label
_atom_site_type_symbol
_atom_site_fract_x 
_atom_site_fract_y
_atom_site_fract_z
_atom_site_charge
Zn Zn 0.123718 0.249967 0.294012 0.9476
Zn Zn 0.373688 0.250398 0.288504 0.9476
Zn Zn 0.122991 0.251645 0.223393 0.9476
Zn Zn 0.372606 0.250572 0.21924 0.9476
H_ H_ 0.0192007 0.407042 0.19937 0.10932
H_ H_ 0.263835 0.396464 0.18559 0.10932
H_ H_ 0.0816847 0.370703 0.323012 0.10932
H_ H_ 0.331336 0.373711 0.309016 0.10932
H_ H_ 0.0481599 0.342671 0.200364 0.10932
H_ H_ 0.291087 0.330776 0.191342 0.10932
H_ H_ 0.0502256 0.436254 0.323722 0.10932
H_ H_ 0.303045 0.43623 0.305045 0.10932
H_ H_ 0.234405 0.405729 0.311527 0.10932
H_ H_ 0.473892 0.416269 0.317386 0.10932
H_ H_ 0.1612 0.367999 0.1983 0.10932
H_ H_ 0.425434 0.365669 0.186249 0.10932
H_ H_ 0.206634 0.342003 0.315961 0.10932
H_ H_ 0.444104 0.351537 0.321061 0.10932
H_ H_ 0.190694 0.43082 0.190272 0.10932
H_ H_ 0.454479 0.426271 0.186115 0.10932
H_ H_ 0.215147 0.0791434 0.32567 0.10932
H_ H_ 0.458774 0.0726169 0.309048 0.10932
H_ H_ 0.177982 0.141614 0.189871 0.10932
H_ H_ 0.454746 0.173723 0.193168 0.10932
H_ H_ 0.180539 0.139304 0.324804 0.10932
H_ H_ 0.423075 0.133028 0.312269 0.10932
H_ H_ 0.211577 0.0836558 0.187283 0.10932
H_ H_ 0.478215 0.104303 0.182782 0.10932
H_ H_ 0.0365025 0.0823638 0.188002 0.10932
H_ H_ 0.269691 0.0911812 0.185197 0.10932
H_ H_ 0.053642 0.153466 0.323172 0.10932
H_ H_ 0.32481 0.131759 0.31536 0.10932
H_ H_ 0.0642476 0.150688 0.190393 0.10932
H_ H_ 0.304716 0.15167 0.184973 0.10932
H_ H_ 0.0351524 0.0842834 0.32301 0.10932
H_ H_ 0.300686 0.064989 0.31075 0.10932
H_ H_ 0.105031 0.308927 0.367068 0.10932
H_ H_ 0.374863 0.325195 0.36109 0.10932
H_ H_ 0.14327 0.190441 0.374843 0.10932
H_ H_ 0.366832 0.19404 0.365918 0.10932
H_ H_ 0.138361 0.190103 0.451893 0.10932
H_ H_ 0.356753 0.19701 0.441741 0.10932
H_ H_ 0.0850928 0.299885 0.443922 0.10932
H_ H_ 0.370614 0.327314 0.43755 0.10932
H_ H_ 0.108295 0.309887 0.145006 0.10932
H_ H_ 0.329473 0.212092 0.142782 0.10932
H_ H_ 0.144567 0.186066 0.14683 0.10932
H_ H_ 0.410087 0.280258 0.141214 0.10932
H_ H_ 0.145182 0.186381 0.0704933 0.10932
H_ H_ 0.412685 0.274369 0.0646252 0.10932
H_ H_ 0.119861 0.313712 0.0709164 0.10932
H_ H_ 0.335346 0.194082 0.0654496 0.10932
C_ C_ 0.0690869 0.353135 0.259262 -0.02249
C_ C_ 0.313611 0.346925 0.252238 -0.02249
C_ C_ 0.0168189 0.466513 0.262618 -0.02249
C_ C_ 0.265061 0.460138 0.243116 -0.02249
C_ C_ 0.0354041 0.402398 0.224316 -0.11473
C_ C_ 0.277725 0.391164 0.212826 -0.11473
C_ C_ 0.0702317 0.379414 0.294916 -0.11473
C_ C_ 0.316397 0.378503 0.282116 -0.11473
C_ C_ 0.0504672 0.364845 0.226154 -0.11473
C_ C_ 0.292814 0.353736 0.216696 -0.11473
C_ C_ 0.0353148 0.428151 0.260277 -0.02249
C_ C_ 0.282285 0.420747 0.243678 -0.02249
C_ C_ 0.0890847 0.316511 0.256702 0.6875
C_ C_ 0.334271 0.309396 0.250637 0.6875
C_ C_ 0.051873 0.414564 0.296725 -0.11473
C_ C_ 0.300098 0.414577 0.278302 -0.11473
C_ C_ 0.180727 0.349014 0.257609 -0.02249
C_ C_ 0.428336 0.355115 0.254851 -0.02249
C_ C_ 0.233269 0.461443 0.244613 -0.02249
C_ C_ 0.484372 0.46417 0.247739 -0.02249
C_ C_ 0.217748 0.398504 0.287014 -0.11473
C_ C_ 0.462949 0.404702 0.289769 -0.11473
C_ C_ 0.176277 0.376816 0.224338 -0.11473
C_ C_ 0.433817 0.376409 0.216396 -0.11473
C_ C_ 0.20266 0.36121 0.289274 -0.11473
C_ C_ 0.442534 0.371326 0.293757 -0.11473
C_ C_ 0.21457 0.423778 0.2503 -0.02249
C_ C_ 0.466968 0.425726 0.250753 -0.02249
C_ C_ 0.1658 0.307399 0.25808 0.6875
C_ C_ 0.410537 0.315757 0.252431 0.6875
C_ C_ 0.193087 0.413317 0.218902 -0.11473
C_ C_ 0.451444 0.41115 0.214259 -0.11473
C_ C_ 0.17847 0.147158 0.258464 -0.02249
C_ C_ 0.435271 0.156881 0.252985 -0.02249
C_ C_ 0.232436 0.0342537 0.253804 -0.02249
C_ C_ 0.484255 0.0417463 0.242024 -0.02249
C_ C_ 0.207036 0.0912353 0.294986 -0.11473
C_ C_ 0.452567 0.0914749 0.28196 -0.11473
C_ C_ 0.188234 0.131032 0.219871 -0.11473
C_ C_ 0.452894 0.148858 0.217315 -0.11473
C_ C_ 0.188351 0.127358 0.294921 -0.11473
C_ C_ 0.435754 0.127187 0.284891 -0.11473
C_ C_ 0.215189 0.0730921 0.256262 -0.02249
C_ C_ 0.466887 0.0811126 0.24408 -0.02249
C_ C_ 0.160057 0.185665 0.25785 0.6875
C_ C_ 0.413634 0.192783 0.255676 0.6875
C_ C_ 0.205152 0.0932638 0.219194 -0.11473
C_ C_ 0.467063 0.111527 0.211831 -0.11473
C_ C_ 0.0583042 0.15997 0.256121 -0.02249
C_ C_ 0.312738 0.151696 0.252962 -0.02249
C_ C_ 0.0144392 0.0403202 0.25571 -0.02249
C_ C_ 0.264567 0.0345361 0.246529 -0.02249
C_ C_ 0.0385459 0.100018 0.216497 -0.11473
C_ C_ 0.278166 0.104224 0.214768 -0.11473
C_ C_ 0.0462289 0.14156 0.292185 -0.11473
C_ C_ 0.311642 0.125138 0.28773 -0.11473
C_ C_ 0.0545653 0.138542 0.217465 -0.11473
C_ C_ 0.298391 0.138202 0.214697 -0.11473
C_ C_ 0.0300341 0.0799117 0.254865 -0.02249
C_ C_ 0.281232 0.0759633 0.246117 -0.02249
C_ C_ 0.0803252 0.194252 0.25908 0.6875
C_ C_ 0.335597 0.186179 0.25211 0.6875
C_ C_ 0.0342743 0.101294 0.292751 -0.11473
C_ C_ 0.298209 0.086479 0.283231 -0.11473
C_ C_ 0.108355 0.281101 0.385598 0.17695
C_ C_ 0.375744 0.295251 0.377885 0.17695
C_ C_ 0.134046 0.218366 0.391169 0.17695
C_ C_ 0.364764 0.223836 0.380115 0.17695
C_ C_ 0.131664 0.218102 0.4347 -0.11473
C_ C_ 0.361932 0.226221 0.425418 -0.11473
C_ C_ 0.116041 0.250846 0.453897 0.23465
C_ C_ 0.368074 0.262504 0.447027 0.23465
C_ C_ 0.101128 0.278772 0.42848 -0.11473
C_ C_ 0.374186 0.297448 0.423111 -0.11473
C_ C_ 0.1176 0.281182 0.129367 0.17695
C_ C_ 0.348803 0.22264 0.125166 0.17695
C_ C_ 0.136741 0.213902 0.129983 0.17695
C_ C_ 0.395825 0.257485 0.126873 0.17695
C_ C_ 0.134745 0.212798 0.0851683 -0.11473
C_ C_ 0.396369 0.256061 0.0816482 -0.11473
C_ C_ 0.129279 0.248572 0.0616164 0.23465
C_ C_ 0.37312 0.236083 0.0584677 0.23465
C_ C_ 0.120412 0.283105 0.0856117 -0.11473
C_ C_ 0.350694 0.216079 0.0811318 -0.11473
C_ C_ 0.0290495 0.506912 0.265072 0.05793
C_ C_ 0.27987 0.497198 0.237743 0.05793
C_ C_ 0.21853 -0.0036129999999999773 0.254145 0.05793
C_ C_ 0.467973 1.00465075 0.233576 0.05793
Br Br 0.0712246 0.513339 0.270212 -0.17191
Br Br 0.321618 0.495222 0.222235 -0.17191
Br Br 0.175413 -0.005723999999999951 0.260208 -0.17191
Br Br 0.423827 1.00438413 0.223248 -0.17191
N_ N_ 0.121722 0.248948 0.367259 -0.272
N_ N_ 0.373142 0.25776 0.359075 -0.272
N_ N_ 0.111987 0.252015 0.498323 -0.12501
N_ N_ 0.363905 0.266274 0.492474 -0.12501
N_ N_ 0.125643 0.246694 0.150724 -0.272
N_ N_ 0.372087 0.242643 0.147718 -0.272
N_ N_ 0.136939 0.250971 0.0183531 -0.12501
N_ N_ 0.372142 0.235031 0.0142087 -0.12501
O_ O_ 0.0972931 0.303331 0.221568 -0.60745
O_ O_ 0.338138 0.290095 0.215395 -0.60745
O_ O_ 0.0942683 0.295446 0.28887 -0.60745
O_ O_ 0.345004 0.295929 0.285525 -0.60745
O_ O_ 0.156752 0.29162 0.292165 -0.60745
O_ O_ 0.40501 0.299594 0.287113 -0.60745
O_ O_ 0.158545 0.28959 0.223913 -0.60745
O_ O_ 0.402824 0.297081 0.218231 -0.60745
O_ O_ 0.154694 0.205032 0.292196 -0.60745
O_ O_ 0.404171 0.205123 0.290904 -0.60745
O_ O_ 0.14867 0.200537 0.223365 -0.60745
O_ O_ 0.406778 0.212465 0.222646 -0.60745
O_ O_ 0.0868616 0.21375 0.227118 -0.60745
O_ O_ 0.344019 0.204724 0.219611 -0.60745
O_ O_ 0.0917954 0.205638 0.293967 -0.60745
O_ O_ 0.342318 0.204624 0.287157 -0.60745
Zn Zn 0.123961 0.249694 0.788843 0.9476
Zn Zn 0.383507 0.246697 0.791498 0.9476
Zn Zn 0.122484 0.247396 0.722476 0.9476
Zn Zn 0.378385 0.250371 0.721694 0.9476
H_ H_ 0.0194312 0.405019 0.68915 0.10932
H_ H_ 0.293112 0.418669 0.693041 0.10932
H_ H_ 0.0812729 0.368271 0.812511 0.10932
H_ H_ 0.31721 0.348473 0.827522 0.10932
H_ H_ 0.0488208 0.336977 0.689535 0.10932
H_ H_ 0.316199 0.351673 0.689871 0.10932
H_ H_ 0.053031 0.432302 0.813761 0.10932
H_ H_ 0.298746 0.417071 0.824763 0.10932
H_ H_ 0.199041 0.429706 0.821734 0.10932
H_ H_ 0.46306 0.420235 0.8199 0.10932
H_ H_ 0.205262 0.332696 0.696559 0.10932
H_ H_ 0.427564 0.35471 0.686548 0.10932
H_ H_ 0.170565 0.360865 0.817192 0.10932
H_ H_ 0.43443 0.357292 0.819895 0.10932
H_ H_ 0.228656 0.399631 0.694456 0.10932
H_ H_ 0.456204 0.423224 0.685839 0.10932
H_ H_ 0.198289 0.0644233 0.816066 0.10932
H_ H_ 0.474861 0.0800635 0.808652 0.10932
H_ H_ 0.196059 0.15757 0.689954 0.10932
H_ H_ 0.43589 0.150129 0.68387 0.10932
H_ H_ 0.164104 0.12546 0.81076 0.10932
H_ H_ 0.445453 0.137611 0.816497 0.10932
H_ H_ 0.23447 0.103753 0.694466 0.10932
H_ H_ 0.463355 0.0828832 0.675992 0.10932
H_ H_ 0.0345112 0.0847901 0.677351 0.10932
H_ H_ 0.283564 0.0809334 0.695978 0.10932
H_ H_ 0.0533848 0.151408 0.811595 0.10932
H_ H_ 0.324041 0.143792 0.827012 0.10932
H_ H_ 0.0553833 0.151664 0.677241 0.10932
H_ H_ 0.3202 0.136814 0.691005 0.10932
H_ H_ 0.0312231 0.0814106 0.812128 0.10932
H_ H_ 0.289269 0.0834492 0.830932 0.10932
H_ H_ 0.154442 0.297162 0.869618 0.10932
H_ H_ 0.338759 0.25849 0.86839 0.10932
H_ H_ 0.105618 0.184017 0.856919 0.10932
H_ H_ 0.435196 0.248639 0.861044 0.10932
H_ H_ 0.107722 0.176481 0.933885 0.10932
H_ H_ 0.438091 0.246585 0.936471 0.10932
H_ H_ 0.150368 0.296503 0.945006 0.10932
H_ H_ 0.342929 0.258084 0.945745 0.10932
H_ H_ 0.113564 0.190343 0.643859 0.10932
H_ H_ 0.423332 0.258553 0.650167 0.10932
H_ H_ 0.137101 0.315417 0.654818 0.10932
H_ H_ 0.328635 0.26581 0.641436 0.10932
H_ H_ 0.145606 0.318132 0.58021 0.10932
H_ H_ 0.330439 0.247464 0.56497 0.10932
H_ H_ 0.111549 0.196535 0.565028 0.10932
H_ H_ 0.426098 0.261934 0.572091 0.10932
C_ C_ 0.0637881 0.345555 0.754625 -0.02249
C_ C_ 0.316373 0.340135 0.760518 -0.02249
C_ C_ 0.0166334 0.463603 0.748065 -0.02249
C_ C_ 0.268136 0.457977 0.760732 -0.02249
C_ C_ 0.0327285 0.395598 0.715788 -0.11473
C_ C_ 0.295415 0.401374 0.724002 -0.11473
C_ C_ 0.0655944 0.374259 0.787441 -0.11473
C_ C_ 0.308032 0.359206 0.797124 -0.11473
C_ C_ 0.0493992 0.357955 0.716853 -0.11473
C_ C_ 0.308431 0.361584 0.721483 -0.11473
C_ C_ 0.0337019 0.423978 0.749394 -0.02249
C_ C_ 0.285165 0.416787 0.762214 -0.02249
C_ C_ 0.0812458 0.306211 0.755895 0.6875
C_ C_ 0.339948 0.307272 0.759595 0.6875
C_ C_ 0.052041 0.413933 0.784464 -0.11473
C_ C_ 0.296522 0.39818 0.798401 -0.11473
C_ C_ 0.186558 0.34126 0.758691 -0.02249
C_ C_ 0.434375 0.346448 0.754062 -0.02249
C_ C_ 0.235074 0.457265 0.759034 -0.02249
C_ C_ 0.481603 0.461313 0.750444 -0.02249
C_ C_ 0.200199 0.40596 0.793092 -0.11473
C_ C_ 0.4549 0.40659 0.789757 -0.11473
C_ C_ 0.203074 0.353116 0.723576 -0.11473
C_ C_ 0.43887 0.366563 0.71584 -0.11473
C_ C_ 0.18522 0.369778 0.792846 -0.11473
C_ C_ 0.441623 0.367741 0.791403 -0.11473
C_ C_ 0.217717 0.416812 0.758805 -0.02249
C_ C_ 0.463459 0.422873 0.75204 -0.02249
C_ C_ 0.165226 0.305389 0.759945 0.6875
C_ C_ 0.41848 0.308045 0.75618 0.6875
C_ C_ 0.217137 0.39168 0.722724 -0.11473
C_ C_ 0.453537 0.40601 0.714065 -0.11473
C_ C_ 0.179608 0.149482 0.753464 -0.02249
C_ C_ 0.440814 0.153025 0.750103 -0.02249
C_ C_ 0.235264 0.0392815 0.751519 -0.02249
C_ C_ 0.489341 0.0365793 0.736838 -0.02249
C_ C_ 0.199217 0.0860805 0.788553 -0.11473
C_ C_ 0.465255 0.093565 0.781203 -0.11473
C_ C_ 0.199142 0.141795 0.718646 -0.11473
C_ C_ 0.445889 0.134976 0.711114 -0.11473
C_ C_ 0.179999 0.121717 0.786551 -0.11473
C_ C_ 0.45026 0.129968 0.78595 -0.11473
C_ C_ 0.217232 0.0779665 0.752587 -0.02249
C_ C_ 0.472534 0.0774853 0.741497 -0.02249
C_ C_ 0.161783 0.187592 0.751853 0.6875
C_ C_ 0.421261 0.189778 0.753888 0.6875
C_ C_ 0.217528 0.106679 0.718588 -0.11473
C_ C_ 0.461414 0.0967379 0.706026 -0.11473
C_ C_ 0.0620284 0.155346 0.746846 -0.02249
C_ C_ 0.324072 0.147526 0.757861 -0.02249
C_ C_ 0.0170208 0.0368097 0.744355 -0.02249
C_ C_ 0.267395 0.0379371 0.761356 -0.02249
C_ C_ 0.0370971 0.0998455 0.70651 -0.11473
C_ C_ 0.292524 0.0952369 0.723899 -0.11473
C_ C_ 0.0539306 0.136146 0.783609 -0.11473
C_ C_ 0.315798 0.130329 0.79748 -0.11473
C_ C_ 0.051268 0.138545 0.707191 -0.11473
C_ C_ 0.312468 0.128713 0.720718 -0.11473
C_ C_ 0.0320979 0.0786882 0.74421 -0.02249
C_ C_ 0.285807 0.0760337 0.761745 -0.02249
C_ C_ 0.0837259 0.191549 0.748025 0.6875
C_ C_ 0.342027 0.186546 0.756757 0.6875
C_ C_ 0.0404245 0.0970291 0.782708 -0.11473
C_ C_ 0.296 0.0953989 0.799201 -0.11473
C_ C_ 0.136977 0.275213 0.8831 0.17695
C_ C_ 0.360269 0.253038 0.883821 0.17695
C_ C_ 0.117888 0.207084 0.876239 0.17695
C_ C_ 0.413355 0.248626 0.879556 0.17695
C_ C_ 0.11878 0.202627 0.920579 -0.11473
C_ C_ 0.415479 0.247735 0.922323 -0.11473
C_ C_ 0.128501 0.234449 0.946788 0.23465
C_ C_ 0.38956 0.244073 0.946586 0.23465
C_ C_ 0.136513 0.272898 0.928414 -0.11473
C_ C_ 0.361112 0.247445 0.927375 -0.11473
C_ C_ 0.115287 0.220627 0.630807 0.17695
C_ C_ 0.402622 0.256659 0.630618 0.17695
C_ C_ 0.134998 0.286861 0.63784 0.17695
C_ C_ 0.349215 0.256103 0.626498 0.17695
C_ C_ 0.138578 0.290113 0.594043 -0.11473
C_ C_ 0.350685 0.25552 0.58278 -0.11473
C_ C_ 0.129557 0.258558 0.56821 0.23465
C_ C_ 0.378385 0.259217 0.561958 0.23465
C_ C_ 0.118839 0.222541 0.585498 -0.11473
C_ C_ 0.405021 0.261425 0.587158 -0.11473
C_ C_ 0.032704 0.500762 0.746717 0.05793
C_ C_ 0.282925 0.497063 0.76058 0.05793
C_ C_ 0.219929 0.000169107 0.751554 0.05793
C_ C_ 0.472218 1.000934802 0.7367 0.05793
Br Br 0.076662 0.500931 0.749816 -0.17191
Br Br 0.327103 0.495936 0.763264 -0.17191
Br Br 0.178652 -0.002623000000000042 0.734861 -0.17191
Br Br 0.428753 1.000817328 0.740064 -0.17191
N_ N_ 0.128441 0.242433 0.859714 -0.272
N_ N_ 0.385522 0.245992 0.861104 -0.272
N_ N_ 0.124428 0.229279 0.990852 -0.12501
N_ N_ 0.394388 0.240461 0.991121 -0.12501
N_ N_ 0.124215 0.252393 0.654614 -0.272
N_ N_ 0.37527 0.254651 0.649814 -0.272
N_ N_ 0.133554 0.257984 0.523862 -0.12501
N_ N_ 0.381463 0.250069 0.51797 -0.12501
O_ O_ 0.091497 0.292962 0.72117 -0.60745
O_ O_ 0.347933 0.295638 0.724503 -0.60745
O_ O_ 0.0910235 0.29196 0.790753 -0.60745
O_ O_ 0.352425 0.290661 0.792283 -0.60745
O_ O_ 0.154118 0.291025 0.79455 -0.60745
O_ O_ 0.414529 0.288861 0.791111 -0.60745
O_ O_ 0.154951 0.291645 0.725514 -0.60745
O_ O_ 0.411759 0.289076 0.722791 -0.60745
O_ O_ 0.154649 0.202986 0.785692 -0.60745
O_ O_ 0.415022 0.204784 0.790071 -0.60745
O_ O_ 0.153242 0.203554 0.71704 -0.60745
O_ O_ 0.407383 0.203472 0.720471 -0.60745
O_ O_ 0.0930524 0.205886 0.714518 -0.60745
O_ O_ 0.345469 0.207692 0.724774 -0.60745
O_ O_ 0.0928238 0.205615 0.782806 -0.60745
O_ O_ 0.352695 0.199908 0.792175 -0.60745
Zn Zn 0.128203 0.749656 0.289072 0.9476
Zn Zn 0.374651 0.747918 0.273928 0.9476
Zn Zn 0.12728 0.747275 0.219935 0.9476
Zn Zn 0.37763 0.748588 0.206876 0.9476
H_ H_ 0.042281 0.919561 0.186523 0.10932
H_ H_ 0.283548 0.917575 0.172424 0.10932
H_ H_ 0.0656512 0.850708 0.325255 0.10932
H_ H_ 0.326463 0.861874 0.30328 0.10932
H_ H_ 0.0624507 0.852835 0.189939 0.10932
H_ H_ 0.311574 0.848333 0.171228 0.10932
H_ H_ 0.0384443 0.921715 0.322702 0.10932
H_ H_ 0.287484 0.914044 0.306048 0.10932
H_ H_ 0.223291 0.91437 0.319501 0.10932
H_ H_ 0.451761 0.930005 0.2974 0.10932
H_ H_ 0.192375 0.84317 0.185826 0.10932
H_ H_ 0.445946 0.840048 0.172754 0.10932
H_ H_ 0.192909 0.84676 0.320124 0.10932
H_ H_ 0.42074 0.864881 0.29571 0.10932
H_ H_ 0.213445 0.910521 0.18606 0.10932
H_ H_ 0.472168 0.906613 0.171396 0.10932
H_ H_ 0.220629 0.579573 0.319886 0.10932
H_ H_ 0.462186 0.583801 0.310242 0.10932
H_ H_ 0.183877 0.638951 0.185666 0.10932
H_ H_ 0.438763 0.651741 0.173239 0.10932
H_ H_ 0.192021 0.645195 0.320823 0.10932
H_ H_ 0.437982 0.648689 0.311898 0.10932
H_ H_ 0.213419 0.580874 0.182856 0.10932
H_ H_ 0.468376 0.584722 0.177688 0.10932
H_ H_ 0.0298404 0.584718 0.192793 0.10932
H_ H_ 0.284846 0.578883 0.177216 0.10932
H_ H_ 0.0610211 0.652546 0.325762 0.10932
H_ H_ 0.314214 0.6475 0.31025 0.10932
H_ H_ 0.0622089 0.648112 0.192905 0.10932
H_ H_ 0.313988 0.646478 0.173425 0.10932
H_ H_ 0.0264741 0.595801 0.327666 0.10932
H_ H_ 0.28125 0.583161 0.310773 0.10932
H_ H_ 0.144558 0.814415 0.355868 0.10932
H_ H_ 0.372415 0.684755 0.346503 0.10932
H_ H_ 0.122457 0.691454 0.366564 0.10932
H_ H_ 0.390593 0.813459 0.348904 0.10932
H_ H_ 0.120959 0.694483 0.446296 0.10932
H_ H_ 0.377258 0.816669 0.422448 0.10932
H_ H_ 0.144465 0.825859 0.435369 0.10932
H_ H_ 0.364165 0.685029 0.420904 0.10932
H_ H_ 0.129854 0.681836 0.15 0.10932
H_ H_ 0.389925 0.815712 0.131247 0.10932
H_ H_ 0.119727 0.811571 0.137622 0.10932
H_ H_ 0.369937 0.687318 0.130869 0.10932
H_ H_ 0.120126 0.80601 0.0573542 0.10932
H_ H_ 0.368239 0.6858 0.0508648 0.10932
H_ H_ 0.131236 0.67483 0.0741945 0.10932
H_ H_ 0.377309 0.819795 0.057419 0.10932
C_ C_ 0.0709045 0.849161 0.257869 -0.02249
C_ C_ 0.316495 0.844772 0.238972 -0.02249
C_ C_ 0.0183182 0.961978 0.256594 -0.02249
C_ C_ 0.26566 0.959136 0.244902 -0.02249
C_ C_ 0.0478839 0.907479 0.21841 -0.11473
C_ C_ 0.290932 0.902063 0.201431 -0.11473
C_ C_ 0.0637961 0.869223 0.296633 -0.11473
C_ C_ 0.31255 0.867982 0.276055 -0.11473
C_ C_ 0.0607401 0.866904 0.219761 -0.11473
C_ C_ 0.30644 0.864105 0.201502 -0.11473
C_ C_ 0.0388498 0.924325 0.254712 -0.02249
C_ C_ 0.282059 0.919491 0.240708 -0.02249
C_ C_ 0.0921463 0.811607 0.256377 0.6875
C_ C_ 0.338003 0.809042 0.239417 0.6875
C_ C_ 0.0461765 0.9057 0.294022 -0.11473
C_ C_ 0.293094 0.901446 0.276428 -0.11473
C_ C_ 0.188685 0.840449 0.255638 -0.02249
C_ C_ 0.435545 0.843966 0.236616 -0.02249
C_ C_ 0.234126 0.958603 0.249223 -0.02249
C_ C_ 0.482497 0.964599 0.235245 -0.02249
C_ C_ 0.215153 0.898158 0.291012 -0.11473
C_ C_ 0.451392 0.90952 0.270639 -0.11473
C_ C_ 0.198907 0.857107 0.217236 -0.11473
C_ C_ 0.449815 0.8583 0.200922 -0.11473
C_ C_ 0.197381 0.862035 0.293136 -0.11473
C_ C_ 0.435352 0.871577 0.270234 -0.11473
C_ C_ 0.218844 0.918695 0.253262 -0.02249
C_ C_ 0.463711 0.924696 0.232601 -0.02249
C_ C_ 0.167711 0.805275 0.25446 0.6875
C_ C_ 0.418079 0.80441 0.236679 0.6875
C_ C_ 0.212082 0.896906 0.21632 -0.11473
C_ C_ 0.461964 0.898167 0.198885 -0.11473
C_ C_ 0.186608 0.650207 0.253372 -0.02249
C_ C_ 0.43565 0.656007 0.242871 -0.02249
C_ C_ 0.235693 0.536727 0.250206 -0.02249
C_ C_ 0.485263 0.539882 0.246427 -0.02249
C_ C_ 0.213797 0.595191 0.290082 -0.11473
C_ C_ 0.459463 0.599603 0.280987 -0.11473
C_ C_ 0.195694 0.63097 0.214171 -0.11473
C_ C_ 0.445518 0.638903 0.204653 -0.11473
C_ C_ 0.196668 0.630197 0.290833 -0.11473
C_ C_ 0.444531 0.637381 0.280287 -0.11473
C_ C_ 0.219569 0.575554 0.250738 -0.02249
C_ C_ 0.466318 0.578824 0.244532 -0.02249
C_ C_ 0.163512 0.684205 0.25429 0.6875
C_ C_ 0.41411 0.689311 0.241007 0.6875
C_ C_ 0.209803 0.593032 0.212963 -0.11473
C_ C_ 0.461604 0.600581 0.206405 -0.11473
C_ C_ 0.064296 0.655121 0.259735 -0.02249
C_ C_ 0.316951 0.651219 0.242879 -0.02249
C_ C_ 0.0123042 0.543362 0.25999 -0.02249
C_ C_ 0.266393 0.536063 0.244971 -0.02249
C_ C_ 0.0345566 0.601804 0.221675 -0.11473
C_ C_ 0.289763 0.595965 0.205526 -0.11473
C_ C_ 0.0570138 0.636151 0.297457 -0.11473
C_ C_ 0.306157 0.633908 0.281444 -0.11473
C_ C_ 0.0542287 0.638322 0.222618 -0.11473
C_ C_ 0.307099 0.632824 0.205143 -0.11473
C_ C_ 0.027539 0.584905 0.259779 -0.02249
C_ C_ 0.283428 0.575828 0.242872 -0.02249
C_ C_ 0.0863599 0.689738 0.258717 0.6875
C_ C_ 0.33668 0.688609 0.241608 0.6875
C_ C_ 0.0376418 0.602249 0.298543 -0.11473
C_ C_ 0.289502 0.596739 0.280612 -0.11473
C_ C_ 0.13689 0.792501 0.378073 0.17695
C_ C_ 0.370867 0.71372 0.362421 0.17695
C_ C_ 0.124928 0.720507 0.383833 0.17695
C_ C_ 0.380117 0.785822 0.363697 0.17695
C_ C_ 0.126592 0.721847 0.42835 -0.11473
C_ C_ 0.373231 0.786921 0.407116 -0.11473
C_ C_ 0.132905 0.759196 0.447394 0.23465
C_ C_ 0.367072 0.749648 0.428244 0.23465
C_ C_ 0.139352 0.795233 0.422267 -0.11473
C_ C_ 0.369698 0.711953 0.406238 -0.11473
C_ C_ 0.126515 0.709644 0.130562 0.17695
C_ C_ 0.380547 0.787314 0.11604 0.17695
C_ C_ 0.12307 0.782689 0.123044 0.17695
C_ C_ 0.372051 0.714855 0.114354 0.17695
C_ C_ 0.121973 0.777857 0.0784549 -0.11473
C_ C_ 0.372026 0.715283 0.0702273 -0.11473
C_ C_ 0.127238 0.739328 0.0608981 0.23465
C_ C_ 0.370658 0.752365 0.0503486 0.23465
C_ C_ 0.131011 0.705981 0.0869603 -0.11473
C_ C_ 0.377226 0.788443 0.073117 -0.11473
C_ C_ 0.0324326 1.00276831 0.258876 0.05793
C_ C_ 0.279889 0.997737 0.242274 0.05793
C_ C_ 0.217816 0.499933 0.249161 0.05793
C_ C_ 0.470635 0.502636 0.253847 0.05793
Br Br 0.0761198 0.0054883 0.250106 -0.17191
Br Br 0.320712 1.000199679 0.218461 -0.17191
Br Br 0.174545 0.502909 0.259378 -0.17191
Br Br 0.429176 0.500779 0.27506 -0.17191
N_ N_ 0.129692 0.754738 0.36087 -0.272
N_ N_ 0.376234 0.748689 0.341944 -0.272
N_ N_ 0.138202 0.761207 0.492068 -0.12501
N_ N_ 0.363067 0.752123 0.472661 -0.12501
N_ N_ 0.12456 0.747458 0.14801 -0.272
N_ N_ 0.377164 0.749207 0.136902 -0.272
N_ N_ 0.122152 0.732957 0.0160414 -0.12501
N_ N_ 0.363529 0.754777 0.00606144 -0.12501
O_ O_ 0.0958745 0.791464 0.222741 -0.60745
O_ O_ 0.350035 0.796271 0.205902 -0.60745
O_ O_ 0.100795 0.797303 0.291604 -0.60745
O_ O_ 0.342837 0.790115 0.27313 -0.60745
O_ O_ 0.160879 0.789567 0.289365 -0.60745
O_ O_ 0.405066 0.793448 0.27119 -0.60745
O_ O_ 0.15779 0.790639 0.218993 -0.60745
O_ O_ 0.410772 0.78621 0.202467 -0.60745
O_ O_ 0.15628 0.699501 0.288965 -0.60745
O_ O_ 0.407673 0.708971 0.2759 -0.60745
O_ O_ 0.15648 0.70276 0.219884 -0.60745
O_ O_ 0.406315 0.704584 0.205497 -0.60745
O_ O_ 0.096906 0.702477 0.22459 -0.60745
O_ O_ 0.343618 0.705937 0.207133 -0.60745
O_ O_ 0.0956322 0.705449 0.291709 -0.60745
O_ O_ 0.347597 0.701283 0.275151 -0.60745
Zn Zn 0.126795 0.750113 0.787642 0.9476
Zn Zn 0.376686 0.748746 0.777157 0.9476
Zn Zn 0.12641 0.746345 0.716257 0.9476
Zn Zn 0.371324 0.751403 0.703675 0.9476
H_ H_ 0.0253552 0.907465 0.675382 0.10932
H_ H_ 0.283301 0.926069 0.688487 0.10932
H_ H_ 0.0735937 0.857652 0.807826 0.10932
H_ H_ 0.316907 0.845291 0.811036 0.10932
H_ H_ 0.0539506 0.840456 0.678184 0.10932
H_ H_ 0.314399 0.865 0.67807 0.10932
H_ H_ 0.0512739 0.924331 0.80364 0.10932
H_ H_ 0.291238 0.911825 0.822637 0.10932
H_ H_ 0.192883 0.938699 0.812158 0.10932
H_ H_ 0.466457 0.920648 0.802964 0.10932
H_ H_ 0.20113 0.839174 0.696329 0.10932
H_ H_ 0.435425 0.85426 0.671219 0.10932
H_ H_ 0.167252 0.871526 0.814565 0.10932
H_ H_ 0.432786 0.860887 0.804461 0.10932
H_ H_ 0.230631 0.903197 0.696586 0.10932
H_ H_ 0.467982 0.911433 0.667178 0.10932
H_ H_ 0.236638 0.597814 0.816314 0.10932
H_ H_ 0.471647 0.588309 0.809813 0.10932
H_ H_ 0.179326 0.640861 0.690218 0.10932
H_ H_ 0.430511 0.64646 0.675217 0.10932
H_ H_ 0.202704 0.658787 0.820967 0.10932
H_ H_ 0.442896 0.653367 0.81019 0.10932
H_ H_ 0.205165 0.574404 0.687971 0.10932
H_ H_ 0.459258 0.580647 0.676243 0.10932
H_ H_ 0.0270031 0.587203 0.683739 0.10932
H_ H_ 0.273566 0.57991 0.689099 0.10932
H_ H_ 0.0777794 0.637183 0.815117 0.10932
H_ H_ 0.328392 0.638726 0.813575 0.10932
H_ H_ 0.0657398 0.646768 0.681112 0.10932
H_ H_ 0.308847 0.640889 0.680448 0.10932
H_ H_ 0.0403315 0.578987 0.816104 0.10932
H_ H_ 0.298638 0.574692 0.820655 0.10932
H_ H_ 0.124838 0.813832 0.854274 0.10932
H_ H_ 0.413433 0.79468 0.850521 0.10932
H_ H_ 0.130619 0.684283 0.865838 0.10932
H_ H_ 0.337863 0.71983 0.85249 0.10932
H_ H_ 0.130266 0.686986 0.941914 0.10932
H_ H_ 0.338648 0.719005 0.927827 0.10932
H_ H_ 0.111384 0.817964 0.935044 0.10932
H_ H_ 0.412987 0.805834 0.92821 0.10932
H_ H_ 0.144811 0.689732 0.640715 0.10932
H_ H_ 0.382574 0.807748 0.614672 0.10932
H_ H_ 0.124561 0.816628 0.642617 0.10932
H_ H_ 0.357998 0.68184 0.635 0.10932
H_ H_ 0.116482 0.819175 0.570973 0.10932
H_ H_ 0.36127 0.66685 0.559927 0.10932
H_ H_ 0.132793 0.689043 0.56162 0.10932
H_ H_ 0.377675 0.794849 0.538128 0.10932
C_ C_ 0.0692606 0.846748 0.742521 -0.02249
C_ C_ 0.317033 0.846825 0.744148 -0.02249
C_ C_ 0.018349 0.960042 0.742501 -0.02249
C_ C_ 0.266433 0.961786 0.760482 -0.02249
C_ C_ 0.0374504 0.897947 0.704999 -0.11473
C_ C_ 0.288443 0.907558 0.716955 -0.11473
C_ C_ 0.0658927 0.870409 0.778034 -0.11473
C_ C_ 0.310353 0.860762 0.785167 -0.11473
C_ C_ 0.0562841 0.86163 0.705112 -0.11473
C_ C_ 0.306591 0.872577 0.709992 -0.11473
C_ C_ 0.0360432 0.92164 0.740585 -0.02249
C_ C_ 0.283067 0.921902 0.757342 -0.02249
C_ C_ 0.0878372 0.808137 0.745568 0.6875
C_ C_ 0.333184 0.807904 0.739956 0.6875
C_ C_ 0.0506989 0.908002 0.776427 -0.11473
C_ C_ 0.294247 0.898698 0.790526 -0.11473
C_ C_ 0.18093 0.85021 0.755296 -0.02249
C_ C_ 0.433226 0.851013 0.736846 -0.02249
C_ C_ 0.234934 0.961693 0.757691 -0.02249
C_ C_ 0.486836 0.961747 0.735702 -0.02249
C_ C_ 0.196037 0.91518 0.790901 -0.11473
C_ C_ 0.461257 0.903195 0.774543 -0.11473
C_ C_ 0.196796 0.863125 0.721368 -0.11473
C_ C_ 0.442367 0.867418 0.699661 -0.11473
C_ C_ 0.181561 0.876469 0.790788 -0.11473
C_ C_ 0.441324 0.871624 0.774471 -0.11473
C_ C_ 0.217197 0.923734 0.759504 -0.02249
C_ C_ 0.4682 0.922638 0.735373 -0.02249
C_ C_ 0.159936 0.812314 0.754513 0.6875
C_ C_ 0.412143 0.813586 0.735947 0.6875
C_ C_ 0.215648 0.898797 0.722371 -0.11473
C_ C_ 0.459348 0.902569 0.697272 -0.11473
C_ C_ 0.187388 0.650196 0.757116 -0.02249
C_ C_ 0.435292 0.654632 0.742293 -0.02249
C_ C_ 0.234245 0.533806 0.755994 -0.02249
C_ C_ 0.482877 0.536476 0.745669 -0.02249
C_ C_ 0.22015 0.602302 0.792109 -0.11473
C_ C_ 0.462968 0.60027 0.780772 -0.11473
C_ C_ 0.190107 0.628486 0.720203 -0.11473
C_ C_ 0.4406 0.633334 0.70567 -0.11473
C_ C_ 0.201269 0.637262 0.794573 -0.11473
C_ C_ 0.446275 0.637447 0.780331 -0.11473
C_ C_ 0.216871 0.574449 0.756482 -0.02249
C_ C_ 0.46615 0.577203 0.743483 -0.02249
C_ C_ 0.170663 0.690071 0.755957 0.6875
C_ C_ 0.414878 0.692605 0.743792 0.6875
C_ C_ 0.20238 0.589615 0.719409 -0.11473
C_ C_ 0.455584 0.595023 0.706575 -0.11473
C_ C_ 0.0700826 0.649347 0.748288 -0.02249
C_ C_ 0.320639 0.645368 0.746444 -0.02249
C_ C_ 0.0172344 0.539482 0.749886 -0.02249
C_ C_ 0.26694 0.535427 0.757714 -0.02249
C_ C_ 0.0377529 0.599219 0.710543 -0.11473
C_ C_ 0.288129 0.591816 0.715217 -0.11473
C_ C_ 0.0655894 0.627819 0.786343 -0.11473
C_ C_ 0.317852 0.625504 0.785893 -0.11473
C_ C_ 0.0582441 0.633408 0.709473 -0.11473
C_ C_ 0.305445 0.628009 0.711637 -0.11473
C_ C_ 0.0335808 0.577994 0.74913 -0.02249
C_ C_ 0.282743 0.575756 0.754557 -0.02249
C_ C_ 0.0880029 0.688371 0.747434 0.6875
C_ C_ 0.341467 0.680147 0.742914 0.6875
C_ C_ 0.0459975 0.595294 0.786652 -0.11473
C_ C_ 0.300411 0.589681 0.78968 -0.11473
C_ C_ 0.124984 0.787383 0.874914 0.17695
C_ C_ 0.396747 0.779921 0.868526 0.17695
C_ C_ 0.130243 0.714705 0.882616 0.17695
C_ C_ 0.352341 0.74015 0.868091 0.17695
C_ C_ 0.125095 0.716165 0.925428 -0.11473
C_ C_ 0.352611 0.740621 0.912549 -0.11473
C_ C_ 0.125487 0.755559 0.945181 0.23465
C_ C_ 0.375433 0.762475 0.934684 0.23465
C_ C_ 0.121568 0.791483 0.919291 -0.11473
C_ C_ 0.396339 0.785799 0.912609 -0.11473
C_ C_ 0.13804 0.717266 0.623897 0.17695
C_ C_ 0.373438 0.776871 0.602724 0.17695
C_ C_ 0.126118 0.787743 0.626352 0.17695
C_ C_ 0.366356 0.705415 0.613796 0.17695
C_ C_ 0.122723 0.790592 0.583704 -0.11473
C_ C_ 0.364216 0.696956 0.570745 -0.11473
C_ C_ 0.126193 0.754092 0.560466 0.23465
C_ C_ 0.366803 0.730075 0.541893 0.23465
C_ C_ 0.132661 0.717551 0.580267 -0.11473
C_ C_ 0.373093 0.769833 0.558879 -0.11473
C_ C_ 0.0336515 -0.0004979999999999984 0.741396 0.05793
C_ C_ 0.282253 -0.0002670000000000172 0.762661 0.05793
C_ C_ 0.219285 0.496 0.753386 0.05793
C_ C_ 0.466947 0.498774 0.745368 0.05793
Br Br 0.0740967 0.00285423 0.726635 -0.17191
Br Br 0.326627 -0.0020529999999999715 0.756075 -0.17191
Br Br 0.177491 0.493259 0.738089 -0.17191
Br Br 0.421963 0.50038 0.738109 -0.17191
N_ N_ 0.129144 0.750014 0.858166 -0.272
N_ N_ 0.375356 0.758329 0.846939 -0.272
N_ N_ 0.127457 0.760724 0.989034 -0.12501
N_ N_ 0.383357 0.754966 0.977548 -0.12501
N_ N_ 0.132415 0.751923 0.646601 -0.272
N_ N_ 0.370435 0.745043 0.629168 -0.272
N_ N_ 0.117918 0.752214 0.516881 -0.12501
N_ N_ 0.367335 0.723047 0.49701 -0.12501
O_ O_ 0.0964637 0.790368 0.711617 -0.60745
O_ O_ 0.339248 0.79521 0.704212 -0.60745
O_ O_ 0.0915559 0.789218 0.780719 -0.60745
O_ O_ 0.337329 0.785094 0.77094 -0.60745
O_ O_ 0.151759 0.798139 0.789152 -0.60745
O_ O_ 0.403422 0.797112 0.768816 -0.60745
O_ O_ 0.156984 0.789328 0.721897 -0.60745
O_ O_ 0.399619 0.802366 0.700646 -0.60745
O_ O_ 0.163308 0.708788 0.789469 -0.60745
O_ O_ 0.41351 0.714512 0.776078 -0.60745
O_ O_ 0.161755 0.704185 0.720937 -0.60745
O_ O_ 0.402977 0.704927 0.710764 -0.60745
O_ O_ 0.0983486 0.701618 0.712241 -0.60745
O_ O_ 0.342376 0.7018 0.70806 -0.60745
O_ O_ 0.0977475 0.703528 0.782261 -0.60745
O_ O_ 0.352726 0.695271 0.777847 -0.60745
Zn Zn 0.626681 0.250183 0.279861 0.9476
Zn Zn 0.873587 0.253905 0.287854 0.9476
Zn Zn 0.622467 0.250325 0.21081 0.9476
Zn Zn 0.875023 0.252042 0.217558 0.9476
H_ H_ 0.524369 0.406594 0.180332 0.10932
H_ H_ 0.797195 0.432961 0.187314 0.10932
H_ H_ 0.580743 0.369213 0.309139 0.10932
H_ H_ 0.789671 0.338469 0.312012 0.10932
H_ H_ 0.556738 0.342869 0.182719 0.10932
H_ H_ 0.829888 0.368303 0.190084 0.10932
H_ H_ 0.550871 0.432051 0.306778 0.10932
H_ H_ 0.767046 0.406895 0.313518 0.10932
H_ H_ 0.712225 0.417963 0.320297 0.10932
H_ H_ 0.978759 0.406896 0.324563 0.10932
H_ H_ 0.692463 0.349465 0.182646 0.10932
H_ H_ 0.926186 0.37047 0.185522 0.10932
H_ H_ 0.686532 0.352482 0.317441 0.10932
H_ H_ 0.941854 0.350426 0.322542 0.10932
H_ H_ 0.727452 0.406341 0.18776 0.10932
H_ H_ 0.962064 0.425945 0.191575 0.10932
H_ H_ 0.717505 0.0863345 0.312369 0.10932
H_ H_ 0.967552 0.0847358 0.317952 0.10932
H_ H_ 0.67892 0.143642 0.174604 0.10932
H_ H_ 0.921041 0.135639 0.189959 0.10932
H_ H_ 0.683536 0.152379 0.31162 0.10932
H_ H_ 0.946487 0.153124 0.319843 0.10932
H_ H_ 0.706328 0.0763159 0.177696 0.10932
H_ H_ 0.956171 0.077196 0.188066 0.10932
H_ H_ 0.534051 0.0854602 0.178838 0.10932
H_ H_ 0.783781 0.0816213 0.18402 0.10932
H_ H_ 0.55959 0.14907 0.315965 0.10932
H_ H_ 0.806919 0.154773 0.317942 0.10932
H_ H_ 0.563579 0.148235 0.181938 0.10932
H_ H_ 0.818757 0.137549 0.186012 0.10932
H_ H_ 0.537613 0.0825423 0.312719 0.10932
H_ H_ 0.776693 0.0899308 0.318804 0.10932
H_ H_ 0.629991 0.182935 0.343586 0.10932
H_ H_ 0.879658 0.182933 0.357574 0.10932
H_ H_ 0.617024 0.310962 0.362961 0.10932
H_ H_ 0.856965 0.309303 0.368447 0.10932
H_ H_ 0.627925 0.301826 0.43884 0.10932
H_ H_ 0.857766 0.304194 0.445771 0.10932
H_ H_ 0.643005 0.172824 0.423781 0.10932
H_ H_ 0.88757 0.178362 0.429207 0.10932
H_ H_ 0.622212 0.19271 0.133201 0.10932
H_ H_ 0.868086 0.324766 0.146793 0.10932
H_ H_ 0.629558 0.324335 0.140153 0.10932
H_ H_ 0.891489 0.195613 0.137661 0.10932
H_ H_ 0.641172 0.324058 0.0641572 0.10932
H_ H_ 0.885848 0.198799 0.0600088 0.10932
H_ H_ 0.629127 0.195696 0.0524365 0.10932
H_ H_ 0.865441 0.329828 0.0708129 0.10932
C_ C_ 0.570543 0.35145 0.245256 -0.02249
C_ C_ 0.811484 0.34953 0.249394 -0.02249
C_ C_ 0.516993 0.46376 0.239293 -0.02249
C_ C_ 0.764378 0.463951 0.249722 -0.02249
C_ C_ 0.536969 0.39792 0.209443 -0.11473
C_ C_ 0.796371 0.411344 0.213181 -0.11473
C_ C_ 0.568011 0.376393 0.281821 -0.11473
C_ C_ 0.79216 0.358494 0.283783 -0.11473
C_ C_ 0.556429 0.363648 0.208325 -0.11473
C_ C_ 0.814416 0.375091 0.214598 -0.11473
C_ C_ 0.535412 0.42366 0.244441 -0.02249
C_ C_ 0.780351 0.422749 0.249525 -0.02249
C_ C_ 0.588627 0.3136 0.246677 0.6875
C_ C_ 0.831629 0.311289 0.252444 0.6875
C_ C_ 0.550475 0.412928 0.280456 -0.11473
C_ C_ 0.780401 0.398299 0.285488 -0.11473
C_ C_ 0.685849 0.346614 0.249621 -0.02249
C_ C_ 0.932787 0.352883 0.253875 -0.02249
C_ C_ 0.731924 0.461697 0.251991 -0.02249
C_ C_ 0.984798 0.463237 0.261136 -0.02249
C_ C_ 0.705058 0.405848 0.289065 -0.11473
C_ C_ 0.965747 0.400159 0.295222 -0.11473
C_ C_ 0.698051 0.362437 0.214755 -0.11473
C_ C_ 0.938124 0.375423 0.215918 -0.11473
C_ C_ 0.691203 0.367111 0.287191 -0.11473
C_ C_ 0.946753 0.36602 0.294052 -0.11473
C_ C_ 0.715636 0.422518 0.251512 -0.02249
C_ C_ 0.969062 0.422499 0.258844 -0.02249
C_ C_ 0.665 0.309264 0.247254 0.6875
C_ C_ 0.913417 0.313887 0.254882 0.6875
C_ C_ 0.711853 0.40062 0.214252 -0.11473
C_ C_ 0.957832 0.408908 0.218687 -0.11473
C_ C_ 0.678316 0.151577 0.243301 -0.02249
C_ C_ 0.933506 0.153364 0.253001 -0.02249
C_ C_ 0.730487 0.0405904 0.248627 -0.02249
C_ C_ 0.983351 0.0371046 0.254751 -0.02249
C_ C_ 0.707003 0.100617 0.284042 -0.11473
C_ C_ 0.95746 0.0962356 0.290067 -0.11473
C_ C_ 0.683851 0.130538 0.204843 -0.11473
C_ C_ 0.93467 0.128754 0.217166 -0.11473
C_ C_ 0.688854 0.135653 0.28281 -0.11473
C_ C_ 0.945143 0.135845 0.289788 -0.11473
C_ C_ 0.71386 0.0793853 0.245417 -0.02249
C_ C_ 0.964713 0.0752939 0.253692 -0.02249
C_ C_ 0.659802 0.19044 0.243296 0.6875
C_ C_ 0.913669 0.191961 0.252732 0.6875
C_ C_ 0.702753 0.0949059 0.207003 -0.11473
C_ C_ 0.95318 0.0926835 0.21674 -0.11473
C_ C_ 0.56155 0.156392 0.247428 -0.02249
C_ C_ 0.8165 0.152146 0.252005 -0.02249
C_ C_ 0.515553 0.0396659 0.24645 -0.02249
C_ C_ 0.761981 0.0414501 0.249617 -0.02249
C_ C_ 0.540959 0.0987375 0.209564 -0.11473
C_ C_ 0.789564 0.098769 0.214644 -0.11473
C_ C_ 0.552758 0.137002 0.285156 -0.11473
C_ C_ 0.805204 0.13609 0.289591 -0.11473
C_ C_ 0.554265 0.137139 0.210112 -0.11473
C_ C_ 0.807253 0.134191 0.214892 -0.11473
C_ C_ 0.533235 0.0783286 0.24652 -0.02249
C_ C_ 0.778962 0.0814974 0.251892 -0.02249
C_ C_ 0.58219 0.192675 0.245671 0.6875
C_ C_ 0.8347 0.192602 0.25007 0.6875
C_ C_ 0.541911 0.0965623 0.28371 -0.11473
C_ C_ 0.787003 0.0994645 0.290149 -0.11473
C_ C_ 0.631585 0.209043 0.363637 0.17695
C_ C_ 0.872068 0.210643 0.376201 0.17695
C_ C_ 0.620373 0.279655 0.377137 0.17695
C_ C_ 0.86043 0.280425 0.383511 0.17695
C_ C_ 0.624668 0.27552 0.420704 -0.11473
C_ C_ 0.860733 0.278079 0.42669 -0.11473
C_ C_ 0.627614 0.234901 0.436995 0.23465
C_ C_ 0.867893 0.238721 0.445218 0.23465
C_ C_ 0.637212 0.202843 0.407943 -0.11473
C_ C_ 0.873908 0.205199 0.41913 -0.11473
C_ C_ 0.624387 0.221882 0.116237 0.17695
C_ C_ 0.871157 0.296241 0.126984 0.17695
C_ C_ 0.624793 0.295655 0.120514 0.17695
C_ C_ 0.884325 0.225413 0.122519 0.17695
C_ C_ 0.630283 0.297659 0.077183 -0.11473
C_ C_ 0.883598 0.226658 0.0776576 -0.11473
C_ C_ 0.631456 0.261843 0.0537441 0.23465
C_ C_ 0.876912 0.266165 0.0585796 0.23465
C_ C_ 0.630119 0.222201 0.0730334 -0.11473
C_ C_ 0.872992 0.301139 0.0842945 -0.11473
C_ C_ 0.532959 0.502518 0.238393 0.05793
C_ C_ 0.778897 0.501678 0.245141 0.05793
C_ C_ 0.715798 1.00227105 0.241594 0.05793
C_ C_ 0.968923 0.998162 0.261309 0.05793
Br Br 0.575543 0.502893 0.22711 -0.17191
Br Br 0.820469 0.501983 0.23254 -0.17191
Br Br 0.672602 0.00274647 0.228715 -0.17191
Br Br 0.925689 -0.004773999999999945 0.263454 -0.17191
N_ N_ 0.625167 0.248508 0.350032 -0.272
N_ N_ 0.866964 0.248648 0.359296 -0.272
N_ N_ 0.628671 0.228837 0.481325 -0.12501
N_ N_ 0.867147 0.232306 0.489812 -0.12501
N_ N_ 0.622904 0.257141 0.140021 -0.272
N_ N_ 0.875579 0.258499 0.145354 -0.272
N_ N_ 0.635452 0.263565 0.00995033 -0.12501
N_ N_ 0.874426 0.270876 0.0139813 -0.12501
O_ O_ 0.594341 0.297061 0.211402 -0.60745
O_ O_ 0.842265 0.295001 0.218865 -0.60745
O_ O_ 0.598863 0.296256 0.279206 -0.60745
O_ O_ 0.841559 0.297954 0.28813 -0.60745
O_ O_ 0.656809 0.293253 0.282352 -0.60745
O_ O_ 0.905003 0.299603 0.289456 -0.60745
O_ O_ 0.656436 0.293187 0.213306 -0.60745
O_ O_ 0.90534 0.296163 0.221158 -0.60745
O_ O_ 0.654608 0.206714 0.278034 -0.60745
O_ O_ 0.902735 0.205164 0.286434 -0.60745
O_ O_ 0.651142 0.205497 0.209466 -0.60745
O_ O_ 0.90629 0.209355 0.217123 -0.60745
O_ O_ 0.594081 0.202144 0.211966 -0.60745
O_ O_ 0.844409 0.206152 0.213696 -0.60745
O_ O_ 0.592171 0.208455 0.279986 -0.60745
O_ O_ 0.844228 0.208829 0.284381 -0.60745
Zn Zn 0.623713 0.247747 0.782338 0.9476
Zn Zn 0.877766 0.247257 0.785334 0.9476
Zn Zn 0.622429 0.251149 0.709575 0.9476
Zn Zn 0.877375 0.247617 0.716422 0.9476
H_ H_ 0.527378 0.408224 0.684918 0.10932
H_ H_ 0.779883 0.413695 0.688682 0.10932
H_ H_ 0.561381 0.348432 0.819412 0.10932
H_ H_ 0.824707 0.353722 0.819953 0.10932
H_ H_ 0.555949 0.346582 0.683037 0.10932
H_ H_ 0.819845 0.361451 0.685624 0.10932
H_ H_ 0.530994 0.411573 0.82035 0.10932
H_ H_ 0.789198 0.416574 0.822256 0.10932
H_ H_ 0.714387 0.41735 0.824704 0.10932
H_ H_ 0.984208 0.402323 0.814158 0.10932
H_ H_ 0.693995 0.346553 0.686725 0.10932
H_ H_ 0.921775 0.3621 0.692096 0.10932
H_ H_ 0.675517 0.358585 0.817809 0.10932
H_ H_ 0.962622 0.332794 0.807942 0.10932
H_ H_ 0.729643 0.406042 0.689212 0.10932
H_ H_ 0.951614 0.426877 0.687825 0.10932
H_ H_ 0.717522 0.0910129 0.810166 0.10932
H_ H_ 0.960459 0.0740732 0.820908 0.10932
H_ H_ 0.673627 0.141158 0.674556 0.10932
H_ H_ 0.937731 0.142554 0.684945 0.10932
H_ H_ 0.691782 0.15751 0.809889 0.10932
H_ H_ 0.932061 0.139687 0.819174 0.10932
H_ H_ 0.698134 0.0738808 0.67847 0.10932
H_ H_ 0.966232 0.0783403 0.683454 0.10932
H_ H_ 0.532441 0.0861375 0.668513 0.10932
H_ H_ 0.778644 0.0921147 0.684616 0.10932
H_ H_ 0.569432 0.135471 0.811378 0.10932
H_ H_ 0.818844 0.143786 0.817977 0.10932
H_ H_ 0.560664 0.149275 0.672392 0.10932
H_ H_ 0.814136 0.149995 0.684624 0.10932
H_ H_ 0.543581 0.0711648 0.80667 0.10932
H_ H_ 0.785356 0.0836339 0.818516 0.10932
H_ H_ 0.618307 0.308925 0.859533 0.10932
H_ H_ 0.930282 0.236923 0.857076 0.10932
H_ H_ 0.63232 0.178577 0.854936 0.10932
H_ H_ 0.836007 0.256601 0.867136 0.10932
H_ H_ 0.635599 0.172997 0.931227 0.10932
H_ H_ 0.84126 0.260188 0.941843 0.10932
H_ H_ 0.618213 0.304269 0.939486 0.10932
H_ H_ 0.937742 0.248922 0.933506 0.10932
H_ H_ 0.656151 0.204663 0.633728 0.10932
H_ H_ 0.868043 0.311223 0.653531 0.10932
H_ H_ 0.594341 0.30143 0.638761 0.10932
H_ H_ 0.873238 0.182946 0.636101 0.10932
H_ H_ 0.588784 0.300259 0.56051 0.10932
H_ H_ 0.866025 0.191434 0.556844 0.10932
H_ H_ 0.653733 0.205745 0.554132 0.10932
H_ H_ 0.870105 0.323183 0.57711 0.10932
C_ C_ 0.560957 0.342943 0.75022 -0.02249
C_ C_ 0.823471 0.352157 0.752649 -0.02249
C_ C_ 0.51337 0.459435 0.750319 -0.02249
C_ C_ 0.769196 0.461054 0.759592 -0.02249
C_ C_ 0.533617 0.395405 0.714408 -0.11473
C_ C_ 0.789345 0.400949 0.718235 -0.11473
C_ C_ 0.553122 0.361587 0.7897 -0.11473
C_ C_ 0.814218 0.36749 0.791433 -0.11473
C_ C_ 0.55116 0.360283 0.713644 -0.11473
C_ C_ 0.811677 0.37007 0.716234 -0.11473
C_ C_ 0.530097 0.418764 0.752197 -0.02249
C_ C_ 0.786575 0.422815 0.756482 -0.02249
C_ C_ 0.58444 0.30805 0.750476 0.6875
C_ C_ 0.840203 0.311825 0.75215 0.6875
C_ C_ 0.538121 0.399465 0.78983 -0.11473
C_ C_ 0.797284 0.404476 0.793007 -0.11473
C_ C_ 0.684698 0.34722 0.75119 -0.02249
C_ C_ 0.937903 0.345002 0.75419 -0.02249
C_ C_ 0.737594 0.459291 0.754103 -0.02249
C_ C_ 0.986039 0.462077 0.753487 -0.02249
C_ C_ 0.708623 0.402851 0.79347 -0.11473
C_ C_ 0.973369 0.392378 0.784378 -0.11473
C_ C_ 0.699507 0.362103 0.715892 -0.11473
C_ C_ 0.935454 0.371934 0.718626 -0.11473
C_ C_ 0.690094 0.368414 0.790896 -0.11473
C_ C_ 0.95557 0.357494 0.788267 -0.11473
C_ C_ 0.721817 0.418868 0.756115 -0.02249
C_ C_ 0.969494 0.421112 0.75282 -0.02249
C_ C_ 0.663813 0.310248 0.748023 0.6875
C_ C_ 0.918454 0.307208 0.753712 0.6875
C_ C_ 0.718894 0.396865 0.719168 -0.11473
C_ C_ 0.951077 0.409379 0.71783 -0.11473
C_ C_ 0.684012 0.157069 0.741051 -0.02249
C_ C_ 0.931898 0.144679 0.752947 -0.02249
C_ C_ 0.731615 0.0401621 0.747588 -0.02249
C_ C_ 0.985137 0.0356773 0.750757 -0.02249
C_ C_ 0.71005 0.102689 0.780102 -0.11473
C_ C_ 0.955803 0.0886936 0.790873 -0.11473
C_ C_ 0.68457 0.131503 0.704597 -0.11473
C_ C_ 0.941114 0.126388 0.71462 -0.11473
C_ C_ 0.693934 0.139763 0.779347 -0.11473
C_ C_ 0.939505 0.125645 0.791156 -0.11473
C_ C_ 0.714427 0.0803987 0.743486 -0.02249
C_ C_ 0.965463 0.0732032 0.752118 -0.02249
C_ C_ 0.665939 0.19467 0.743795 0.6875
C_ C_ 0.91351 0.18395 0.752216 0.6875
C_ C_ 0.70194 0.0949032 0.704335 -0.11473
C_ C_ 0.958177 0.0911413 0.71407 -0.11473
C_ C_ 0.567999 0.148699 0.742698 -0.02249
C_ C_ 0.814515 0.155275 0.751074 -0.02249
C_ C_ 0.520442 0.0339407 0.737926 -0.02249
C_ C_ 0.762719 0.0406419 0.749323 -0.02249
C_ C_ 0.540573 0.0969304 0.701511 -0.11473
C_ C_ 0.785067 0.10347 0.713005 -0.11473
C_ C_ 0.562954 0.126057 0.779759 -0.11473
C_ C_ 0.806864 0.134977 0.788873 -0.11473
C_ C_ 0.555591 0.135497 0.703921 -0.11473
C_ C_ 0.803478 0.138949 0.713047 -0.11473
C_ C_ 0.537551 0.0723866 0.739484 -0.02249
C_ C_ 0.77982 0.0816314 0.75122 -0.02249
C_ C_ 0.584487 0.188033 0.746192 0.6875
C_ C_ 0.83677 0.190049 0.75161 0.6875
C_ C_ 0.546985 0.08824 0.778331 -0.11473
C_ C_ 0.790629 0.0981295 0.788544 -0.11473
C_ C_ 0.623605 0.280077 0.875922 0.17695
C_ C_ 0.911052 0.249183 0.873781 0.17695
C_ C_ 0.63074 0.206247 0.872724 0.17695
C_ C_ 0.858902 0.259973 0.880467 0.17695
C_ C_ 0.631206 0.204009 0.917216 -0.11473
C_ C_ 0.861517 0.25701 0.924255 -0.11473
C_ C_ 0.626529 0.239874 0.94093 0.23465
C_ C_ 0.889905 0.255158 0.945194 0.23465
C_ C_ 0.62195 0.277681 0.920558 -0.11473
C_ C_ 0.915256 0.250914 0.919111 -0.11473
C_ C_ 0.641729 0.225611 0.617111 0.17695
C_ C_ 0.870427 0.285911 0.632673 0.17695
C_ C_ 0.609824 0.28273 0.619457 0.17695
C_ C_ 0.875239 0.214204 0.621572 0.17695
C_ C_ 0.606984 0.28323 0.574592 -0.11473
C_ C_ 0.871516 0.2187 0.575884 -0.11473
C_ C_ 0.619752 0.252241 0.551851 0.23465
C_ C_ 0.870749 0.257957 0.55986 0.23465
C_ C_ 0.640721 0.227035 0.572678 -0.11473
C_ C_ 0.870191 0.291559 0.588222 -0.11473
C_ C_ 0.529838 0.497543 0.748391 0.05793
C_ C_ 0.784305 0.498468 0.766412 0.05793
C_ C_ 0.715004 0.00244586 0.750049 0.05793
C_ C_ 0.971044 -0.003391000000000033 0.749598 0.05793
Br Br 0.572532 0.495257 0.752578 -0.17191
Br Br 0.828037 0.500426 0.775829 -0.17191
Br Br 0.67311 0.00273954 0.765907 -0.17191
Br Br 0.927217 -0.006152999999999964 0.750343 -0.17191
N_ N_ 0.626328 0.244407 0.85331 -0.272
N_ N_ 0.882857 0.255632 0.855522 -0.272
N_ N_ 0.623636 0.236765 0.98586 -0.12501
N_ N_ 0.892749 0.253586 0.990142 -0.12501
N_ N_ 0.626945 0.254437 0.639614 -0.272
N_ N_ 0.875309 0.247997 0.647961 -0.272
N_ N_ 0.620084 0.257068 0.505926 -0.12501
N_ N_ 0.872573 0.262145 0.514801 -0.12501
O_ O_ 0.58788 0.289419 0.71575 -0.60745
O_ O_ 0.842986 0.292799 0.717377 -0.60745
O_ O_ 0.595611 0.293631 0.78401 -0.60745
O_ O_ 0.847667 0.296072 0.785195 -0.60745
O_ O_ 0.657398 0.290174 0.781475 -0.60745
O_ O_ 0.910775 0.289083 0.786394 -0.60745
O_ O_ 0.651187 0.300188 0.712175 -0.60745
O_ O_ 0.908148 0.292879 0.720127 -0.60745
O_ O_ 0.65232 0.201409 0.778887 -0.60745
O_ O_ 0.90566 0.200028 0.788065 -0.60745
O_ O_ 0.656215 0.212088 0.710691 -0.60745
O_ O_ 0.908217 0.203179 0.717896 -0.60745
O_ O_ 0.595627 0.203739 0.71292 -0.60745
O_ O_ 0.847944 0.203487 0.718747 -0.60745
O_ O_ 0.590009 0.204331 0.782836 -0.60745
O_ O_ 0.84733 0.201231 0.787729 -0.60745
Zn Zn 0.621036 0.7511 0.278219 0.9476
Zn Zn 0.873249 0.748682 0.289859 0.9476
Zn Zn 0.622322 0.751012 0.210082 0.9476
Zn Zn 0.872893 0.751264 0.221896 0.9476
H_ H_ 0.530853 0.914816 0.171221 0.10932
H_ H_ 0.784572 0.917974 0.186621 0.10932
H_ H_ 0.555392 0.854082 0.309792 0.10932
H_ H_ 0.807604 0.85248 0.323657 0.10932
H_ H_ 0.558635 0.85112 0.172861 0.10932
H_ H_ 0.821905 0.860964 0.190871 0.10932
H_ H_ 0.523083 0.910984 0.304918 0.10932
H_ H_ 0.778836 0.916205 0.322384 0.10932
H_ H_ 0.700539 0.932152 0.315366 0.10932
H_ H_ 0.972115 0.912754 0.327029 0.10932
H_ H_ 0.688245 0.848829 0.189035 0.10932
H_ H_ 0.939708 0.847404 0.192307 0.10932
H_ H_ 0.66966 0.864767 0.316661 0.10932
H_ H_ 0.937203 0.853263 0.328448 0.10932
H_ H_ 0.714038 0.917931 0.185345 0.10932
H_ H_ 0.963142 0.915774 0.189679 0.10932
H_ H_ 0.719653 0.595021 0.316958 0.10932
H_ H_ 0.945754 0.563535 0.316386 0.10932
H_ H_ 0.679711 0.638465 0.176666 0.10932
H_ H_ 0.935666 0.652313 0.189906 0.10932
H_ H_ 0.685735 0.656612 0.310762 0.10932
H_ H_ 0.915498 0.627706 0.32043 0.10932
H_ H_ 0.705958 0.575355 0.185362 0.10932
H_ H_ 0.967947 0.594223 0.187928 0.10932
H_ H_ 0.534125 0.584214 0.173461 0.10932
H_ H_ 0.774707 0.590521 0.184095 0.10932
H_ H_ 0.559836 0.649573 0.311178 0.10932
H_ H_ 0.824987 0.637654 0.311212 0.10932
H_ H_ 0.556244 0.64997 0.171368 0.10932
H_ H_ 0.799389 0.65648 0.183846 0.10932
H_ H_ 0.528288 0.584987 0.307344 0.10932
H_ H_ 0.790581 0.577127 0.316134 0.10932
H_ H_ 0.626553 0.685332 0.355436 0.10932
H_ H_ 0.847551 0.802968 0.370167 0.10932
H_ H_ 0.617934 0.813273 0.348368 0.10932
H_ H_ 0.904319 0.698857 0.364853 0.10932
H_ H_ 0.62362 0.820679 0.422056 0.10932
H_ H_ 0.899808 0.689519 0.438943 0.10932
H_ H_ 0.62766 0.686646 0.433316 0.10932
H_ H_ 0.852048 0.806123 0.444875 0.10932
H_ H_ 0.618194 0.693744 0.131597 0.10932
H_ H_ 0.87087 0.679545 0.153471 0.10932
H_ H_ 0.62689 0.822125 0.141655 0.10932
H_ H_ 0.882189 0.81064 0.140042 0.10932
H_ H_ 0.630337 0.828124 0.0637588 0.10932
H_ H_ 0.893101 0.801931 0.0649236 0.10932
H_ H_ 0.624511 0.696467 0.055641 0.10932
H_ H_ 0.865837 0.67122 0.0747017 0.10932
C_ C_ 0.561382 0.846907 0.243089 -0.02249
C_ C_ 0.817795 0.853815 0.256395 -0.02249
C_ C_ 0.5141 0.96295 0.240162 -0.02249
C_ C_ 0.762675 0.964327 0.251639 -0.02249
C_ C_ 0.538113 0.903734 0.203234 -0.11473
C_ C_ 0.792963 0.908473 0.217295 -0.11473
C_ C_ 0.550834 0.866732 0.280184 -0.11473
C_ C_ 0.805445 0.869539 0.293399 -0.11473
C_ C_ 0.554605 0.867199 0.203938 -0.11473
C_ C_ 0.814737 0.875766 0.220193 -0.11473
C_ C_ 0.530279 0.922999 0.239934 -0.02249
C_ C_ 0.779344 0.923757 0.254533 -0.02249
C_ C_ 0.577649 0.805597 0.244991 0.6875
C_ C_ 0.838248 0.817733 0.257872 0.6875
C_ C_ 0.53216 0.900048 0.276906 -0.11473
C_ C_ 0.788562 0.906505 0.293756 -0.11473
C_ C_ 0.676953 0.854466 0.249936 -0.02249
C_ C_ 0.934693 0.845575 0.259768 -0.02249
C_ C_ 0.730618 0.964131 0.253302 -0.02249
C_ C_ 0.98673 0.960432 0.258251 -0.02249
C_ C_ 0.700505 0.911247 0.288436 -0.11473
C_ C_ 0.964571 0.899291 0.297657 -0.11473
C_ C_ 0.687941 0.870973 0.21273 -0.11473
C_ C_ 0.944284 0.864137 0.221366 -0.11473
C_ C_ 0.680457 0.87607 0.286916 -0.11473
C_ C_ 0.946356 0.862805 0.297955 -0.11473
C_ C_ 0.712574 0.926114 0.252323 -0.02249
C_ C_ 0.970463 0.919112 0.258484 -0.02249
C_ C_ 0.660524 0.811386 0.249096 0.6875
C_ C_ 0.912852 0.809296 0.25834 0.6875
C_ C_ 0.707248 0.904394 0.21435 -0.11473
C_ C_ 0.959975 0.900721 0.221384 -0.11473
C_ C_ 0.681896 0.653934 0.243185 -0.02249
C_ C_ 0.920929 0.645103 0.255257 -0.02249
C_ C_ 0.731516 0.538439 0.254204 -0.02249
C_ C_ 0.980036 0.539996 0.253791 -0.02249
C_ C_ 0.709147 0.602563 0.287601 -0.11473
C_ C_ 0.943087 0.585015 0.289008 -0.11473
C_ C_ 0.687809 0.631192 0.20772 -0.11473
C_ C_ 0.93861 0.635989 0.219879 -0.11473
C_ C_ 0.689752 0.636764 0.283758 -0.11473
C_ C_ 0.92517 0.619554 0.289923 -0.11473
C_ C_ 0.713116 0.578446 0.251474 -0.02249
C_ C_ 0.961156 0.57698 0.252426 -0.02249
C_ C_ 0.664745 0.69431 0.241144 0.6875
C_ C_ 0.90597 0.685192 0.256105 0.6875
C_ C_ 0.703583 0.593303 0.212006 -0.11473
C_ C_ 0.95636 0.600619 0.216884 -0.11473
C_ C_ 0.565175 0.652581 0.24203 -0.02249
C_ C_ 0.810728 0.656058 0.249882 -0.02249
C_ C_ 0.51688 0.539452 0.243382 -0.02249
C_ C_ 0.762946 0.53736 0.251274 -0.02249
C_ C_ 0.539458 0.597693 0.203961 -0.11473
C_ C_ 0.781909 0.602481 0.214156 -0.11473
C_ C_ 0.557194 0.63406 0.280721 -0.11473
C_ C_ 0.809365 0.630553 0.285776 -0.11473
C_ C_ 0.553565 0.636457 0.203396 -0.11473
C_ C_ 0.796622 0.641095 0.213899 -0.11473
C_ C_ 0.533611 0.5785 0.241445 -0.02249
C_ C_ 0.77975 0.578751 0.249796 -0.02249
C_ C_ 0.584441 0.689833 0.242597 0.6875
C_ C_ 0.832768 0.693223 0.252114 0.6875
C_ C_ 0.540012 0.597229 0.28083 -0.11473
C_ C_ 0.791257 0.59469 0.287868 -0.11473
C_ C_ 0.62449 0.715276 0.371324 0.17695
C_ C_ 0.861694 0.782019 0.385216 0.17695
C_ C_ 0.616652 0.787539 0.367226 0.17695
C_ C_ 0.889339 0.719724 0.381627 0.17695
C_ C_ 0.619824 0.790008 0.409601 -0.11473
C_ C_ 0.886879 0.714299 0.425183 -0.11473
C_ C_ 0.623983 0.754423 0.435708 0.23465
C_ C_ 0.876643 0.747141 0.449503 0.23465
C_ C_ 0.627455 0.715984 0.415746 -0.11473
C_ C_ 0.865534 0.783345 0.427808 -0.11473
C_ C_ 0.619491 0.722304 0.115784 0.17695
C_ C_ 0.870201 0.708009 0.133182 0.17695
C_ C_ 0.625404 0.795237 0.121658 0.17695
C_ C_ 0.879829 0.779952 0.125725 0.17695
C_ C_ 0.62598 0.798937 0.0780859 -0.11473
C_ C_ 0.881654 0.776705 0.0816931 -0.11473
C_ C_ 0.626768 0.763762 0.0519062 0.23465
C_ C_ 0.876121 0.737938 0.0628158 0.23465
C_ C_ 0.625036 0.724134 0.07229 -0.11473
C_ C_ 0.869436 0.703143 0.0894021 -0.11473
C_ C_ 0.530193 1.00122554 0.244641 0.05793
C_ C_ 0.778142 1.00347498 0.255487 0.05793
C_ C_ 0.715516 0.499285 0.258625 0.05793
C_ C_ 0.965819 0.500065 0.256978 0.05793
Br Br 0.573882 0.997359 0.239525 -0.17191
Br Br 0.823247 1.0052302 0.254251 -0.17191
Br Br 0.678004 0.500796 0.285666 -0.17191
Br Br 0.923978 0.499474 0.241169 -0.17191
N_ N_ 0.620593 0.750479 0.348077 -0.272
N_ N_ 0.875021 0.751565 0.361053 -0.272
N_ N_ 0.625856 0.760689 0.480209 -0.12501
N_ N_ 0.871112 0.739933 0.491831 -0.12501
N_ N_ 0.622209 0.757326 0.139261 -0.272
N_ N_ 0.875178 0.747278 0.149543 -0.272
N_ N_ 0.632232 0.76788 0.00768194 -0.12501
N_ N_ 0.878816 0.732109 0.0179386 -0.12501
O_ O_ 0.589101 0.791696 0.212072 -0.60745
O_ O_ 0.843673 0.798122 0.224045 -0.60745
O_ O_ 0.587371 0.792776 0.280502 -0.60745
O_ O_ 0.84678 0.801705 0.292339 -0.60745
O_ O_ 0.650651 0.796067 0.283871 -0.60745
O_ O_ 0.905625 0.790109 0.291168 -0.60745
O_ O_ 0.652741 0.794382 0.214859 -0.60745
O_ O_ 0.906317 0.792591 0.222563 -0.60745
O_ O_ 0.656501 0.710814 0.274952 -0.60745
O_ O_ 0.894881 0.697278 0.289754 -0.60745
O_ O_ 0.65731 0.710839 0.206823 -0.60745
O_ O_ 0.903038 0.7067 0.223156 -0.60745
O_ O_ 0.591814 0.706122 0.20738 -0.60745
O_ O_ 0.841503 0.708593 0.218241 -0.60745
O_ O_ 0.595519 0.704004 0.277147 -0.60745
O_ O_ 0.836363 0.715434 0.285022 -0.60745
Zn Zn 0.626249 0.749968 0.778845 0.9476
Zn Zn 0.872963 0.751988 0.789384 0.9476
Zn Zn 0.624604 0.749968 0.711513 0.9476
Zn Zn 0.874153 0.74993 0.719764 0.9476
H_ H_ 0.528207 0.908827 0.673058 0.10932
H_ H_ 0.77089 0.903347 0.680177 0.10932
H_ H_ 0.56738 0.846133 0.805221 0.10932
H_ H_ 0.813223 0.857492 0.81917 0.10932
H_ H_ 0.562434 0.850527 0.669455 0.10932
H_ H_ 0.801507 0.840496 0.687473 0.10932
H_ H_ 0.535371 0.912911 0.806236 0.10932
H_ H_ 0.793809 0.928614 0.812601 0.10932
H_ H_ 0.72381 0.909096 0.809114 0.10932
H_ H_ 0.981857 0.908695 0.81578 0.10932
H_ H_ 0.666371 0.86814 0.683532 0.10932
H_ H_ 0.923359 0.865603 0.686692 0.10932
H_ H_ 0.698944 0.842278 0.809494 0.10932
H_ H_ 0.947569 0.847189 0.821021 0.10932
H_ H_ 0.69943 0.933121 0.680739 0.10932
H_ H_ 0.954839 0.92576 0.688368 0.10932
H_ H_ 0.722792 0.590543 0.824463 0.10932
H_ H_ 0.963731 0.584824 0.82078 0.10932
H_ H_ 0.686006 0.638017 0.685295 0.10932
H_ H_ 0.925432 0.638029 0.685331 0.10932
H_ H_ 0.691943 0.652816 0.819506 0.10932
H_ H_ 0.94248 0.650881 0.817788 0.10932
H_ H_ 0.712195 0.575089 0.690173 0.10932
H_ H_ 0.96065 0.577318 0.687344 0.10932
H_ H_ 0.532621 0.578362 0.679992 0.10932
H_ H_ 0.79345 0.570889 0.694085 0.10932
H_ H_ 0.556929 0.652233 0.807117 0.10932
H_ H_ 0.789801 0.668453 0.810047 0.10932
H_ H_ 0.569283 0.633955 0.676786 0.10932
H_ H_ 0.828431 0.630829 0.692505 0.10932
H_ H_ 0.530207 0.586769 0.812694 0.10932
H_ H_ 0.780594 0.593194 0.824366 0.10932
H_ H_ 0.617609 0.685648 0.849646 0.10932
H_ H_ 0.881423 0.687995 0.865979 0.10932
H_ H_ 0.62501 0.817157 0.856223 0.10932
H_ H_ 0.865424 0.819481 0.862605 0.10932
H_ H_ 0.626821 0.812098 0.935296 0.10932
H_ H_ 0.873382 0.825341 0.934654 0.10932
H_ H_ 0.610644 0.683592 0.928974 0.10932
H_ H_ 0.887044 0.692312 0.945901 0.10932
H_ H_ 0.634698 0.683532 0.645439 0.10932
H_ H_ 0.874212 0.819544 0.655149 0.10932
H_ H_ 0.624156 0.811548 0.628637 0.10932
H_ H_ 0.865398 0.689173 0.640632 0.10932
H_ H_ 0.632962 0.804019 0.550592 0.10932
H_ H_ 0.87343 0.693772 0.564004 0.10932
H_ H_ 0.632123 0.673991 0.568033 0.10932
H_ H_ 0.886168 0.825082 0.577726 0.10932
C_ C_ 0.564269 0.842016 0.736725 -0.02249
C_ C_ 0.813992 0.847877 0.752649 -0.02249
C_ C_ 0.518122 0.958625 0.737154 -0.02249
C_ C_ 0.763138 0.963383 0.744561 -0.02249
C_ C_ 0.53789 0.897616 0.701522 -0.11473
C_ C_ 0.783063 0.898306 0.712344 -0.11473
C_ C_ 0.557839 0.862011 0.775768 -0.11473
C_ C_ 0.808116 0.870042 0.787581 -0.11473
C_ C_ 0.555096 0.861005 0.699955 -0.11473
C_ C_ 0.799308 0.860631 0.714565 -0.11473
C_ C_ 0.53382 0.917876 0.738805 -0.02249
C_ C_ 0.779751 0.922759 0.748271 -0.02249
C_ C_ 0.583649 0.804962 0.737161 0.6875
C_ C_ 0.835108 0.810728 0.753545 0.6875
C_ C_ 0.541101 0.898848 0.777581 -0.11473
C_ C_ 0.794458 0.908441 0.785043 -0.11473
C_ C_ 0.681954 0.850609 0.74374 -0.02249
C_ C_ 0.931603 0.85108 0.755512 -0.02249
C_ C_ 0.731034 0.963946 0.74929 -0.02249
C_ C_ 0.986801 0.958972 0.746001 -0.02249
C_ C_ 0.712303 0.898893 0.78276 -0.11473
C_ C_ 0.968961 0.898105 0.788078 -0.11473
C_ C_ 0.68051 0.877504 0.709585 -0.11473
C_ C_ 0.933937 0.874625 0.717958 -0.11473
C_ C_ 0.697253 0.862227 0.780978 -0.11473
C_ C_ 0.948233 0.864437 0.792009 -0.11473
C_ C_ 0.713842 0.924152 0.746389 -0.02249
C_ C_ 0.970179 0.920659 0.750122 -0.02249
C_ C_ 0.662628 0.811428 0.744937 0.6875
C_ C_ 0.910489 0.81464 0.756803 0.6875
C_ C_ 0.699796 0.911965 0.708109 -0.11473
C_ C_ 0.952552 0.907455 0.71579 -0.11473
C_ C_ 0.684681 0.650852 0.752007 -0.02249
C_ C_ 0.935095 0.653804 0.749807 -0.02249
C_ C_ 0.736859 0.53631 0.758332 -0.02249
C_ C_ 0.985563 0.538631 0.753142 -0.02249
C_ C_ 0.71154 0.597918 0.793579 -0.11473
C_ C_ 0.961676 0.599866 0.790097 -0.11473
C_ C_ 0.695887 0.630568 0.716482 -0.11473
C_ C_ 0.938686 0.630623 0.713848 -0.11473
C_ C_ 0.695109 0.635822 0.790964 -0.11473
C_ C_ 0.947293 0.639351 0.787906 -0.11473
C_ C_ 0.718358 0.576355 0.756486 -0.02249
C_ C_ 0.967175 0.577771 0.753965 -0.02249
C_ C_ 0.666343 0.690128 0.751417 0.6875
C_ C_ 0.910804 0.68696 0.750401 0.6875
C_ C_ 0.710182 0.593685 0.717754 -0.11473
C_ C_ 0.958978 0.595398 0.715065 -0.11473
C_ C_ 0.568294 0.64728 0.742965 -0.02249
C_ C_ 0.813648 0.655198 0.753074 -0.02249
C_ C_ 0.514938 0.536845 0.750272 -0.02249
C_ C_ 0.768459 0.53685 0.765153 -0.02249
C_ C_ 0.541124 0.590712 0.70854 -0.11473
C_ C_ 0.798115 0.59008 0.721438 -0.11473
C_ C_ 0.555905 0.63303 0.781047 -0.11473
C_ C_ 0.79714 0.644007 0.788883 -0.11473
C_ C_ 0.561446 0.623685 0.706874 -0.11473
C_ C_ 0.813592 0.627415 0.71865 -0.11473
C_ C_ 0.530915 0.575604 0.747035 -0.02249
C_ C_ 0.784513 0.576909 0.759882 -0.02249
C_ C_ 0.58501 0.688738 0.741005 0.6875
C_ C_ 0.835431 0.690095 0.753595 0.6875
C_ C_ 0.538836 0.596513 0.783761 -0.11473
C_ C_ 0.789792 0.602092 0.795442 -0.11473
C_ C_ 0.617195 0.714497 0.868436 0.17695
C_ C_ 0.878984 0.717503 0.883322 0.17695
C_ C_ 0.623491 0.788178 0.872769 0.17695
C_ C_ 0.87629 0.792085 0.878369 0.17695
C_ C_ 0.626702 0.785321 0.916635 -0.11473
C_ C_ 0.876301 0.795019 0.922434 -0.11473
C_ C_ 0.621843 0.74829 0.936235 0.23465
C_ C_ 0.878205 0.75802 0.947998 0.23465
C_ C_ 0.6174 0.711509 0.912197 -0.11473
C_ C_ 0.87866 0.718915 0.927659 -0.11473
C_ C_ 0.633177 0.709341 0.624077 0.17695
C_ C_ 0.877021 0.790642 0.634307 0.17695
C_ C_ 0.62811 0.781583 0.613709 0.17695
C_ C_ 0.869449 0.719807 0.626387 0.17695
C_ C_ 0.631404 0.777536 0.569809 -0.11473
C_ C_ 0.873992 0.722089 0.582897 -0.11473
C_ C_ 0.63068 0.738309 0.551347 0.23465
C_ C_ 0.875614 0.760843 0.563489 0.23465
C_ C_ 0.630633 0.704116 0.580471 -0.11473
C_ C_ 0.880261 0.795367 0.590054 -0.11473
C_ C_ 0.535323 -0.004233000000000042 0.738191 0.05793
C_ C_ 0.778698 0.00212186 0.745959 0.05793
C_ C_ 0.721022 0.497937 0.754592 0.05793
C_ C_ 0.970834 0.499894 0.76 0.05793
Br Br 0.576331 -0.006681999999999966 0.753679 -0.17191
Br Br 0.822496 1.00548088 0.74323 -0.17191
Br Br 0.678045 0.501904 0.743316 -0.17191
Br Br 0.927632 0.50296 0.768056 -0.17191
N_ N_ 0.621428 0.752541 0.850569 -0.272
N_ N_ 0.875536 0.752891 0.860446 -0.272
N_ N_ 0.616747 0.747696 0.981724 -0.12501
N_ N_ 0.876695 0.761163 0.9931 -0.12501
N_ N_ 0.62869 0.747417 0.639636 -0.272
N_ N_ 0.871537 0.754383 0.651839 -0.272
N_ N_ 0.627846 0.732173 0.506547 -0.12501
N_ N_ 0.879744 0.765722 0.518432 -0.12501
O_ O_ 0.595195 0.793527 0.703424 -0.60745
O_ O_ 0.842834 0.794124 0.719568 -0.60745
O_ O_ 0.590518 0.787077 0.771056 -0.60745
O_ O_ 0.843816 0.794843 0.787423 -0.60745
O_ O_ 0.653373 0.797177 0.778365 -0.60745
O_ O_ 0.90262 0.799826 0.79103 -0.60745
O_ O_ 0.65859 0.791742 0.712425 -0.60745
O_ O_ 0.904593 0.794292 0.722851 -0.60745
O_ O_ 0.662128 0.708977 0.78499 -0.60745
O_ O_ 0.903657 0.705662 0.784228 -0.60745
O_ O_ 0.655706 0.704065 0.71741 -0.60745
O_ O_ 0.902514 0.703521 0.71542 -0.60745
O_ O_ 0.592338 0.705497 0.707245 -0.60745
O_ O_ 0.845676 0.702653 0.718733 -0.60745
O_ O_ 0.597191 0.701396 0.775354 -0.60745
O_ O_ 0.844741 0.706442 0.787188 -0.60745
_cell_length_a 44.444
_cell_length_b 32.3360000049186
_cell_length_c 31.843999878906452
_cell_angle_alpha 89.99799923859553
_cell_angle_beta 91.13600050494348
_cell_angle_gamma 89.9990006550086
_symmetry_space_group_name_H-M         'P 1'
_symmetry_Int_Tables_number            1
loop_
_symmetry_equiv_pos_as_xyz
   'x, y, z'
                         
loop_
_atom_site_label
_atom_site_type_symbol
_atom_site_fract_x 
_atom_site_fract_y
_atom_site_fract_z
_atom_site_charge
Zn Zn 0.123718 0.249967 0.294012 0.9476
Zn Zn 0.373688 0.250398 0.288504 0.9476
Zn Zn 0.122991 0.251645 0.223393 0.9476
Zn Zn 0.372606 0.250572 0.21924 0.9476
H_ H_ 0.0192007 0.407042 0.19937 0.10932
H_ H_ 0.263835 0.396464 0.18559 0.10932
H_ H_ 0.0816847 0.370703 0.323012 0.10932
H_ H_ 0.331336 0.373711 0.309016 0.10932
H_ H_ 0.0481599 0.342671 0.200364 0.10932
H_ H_ 0.291087 0.330776 0.191342 0.10932
H_ H_ 0.0502256 0.436254 0.323722 0.10932
H_ H_ 0.303045 0.43623 0.305045 0.10932
H_ H_ 0.234405 0.405729 0.311527 0.10932
H_ H_ 0.473892 0.416269 0.317386 0.10932
H_ H_ 0.1612 0.367999 0.1983 0.10932
H_ H_ 0.425434 0.365669 0.186249 0.10932
H_ H_ 0.206634 0.342003 0.315961 0.10932
H_ H_ 0.444104 0.351537 0.321061 0.10932
H_ H_ 0.190694 0.43082 0.190272 0.10932
H_ H_ 0.454479 0.426271 0.186115 0.10932
H_ H_ 0.215147 0.0791434 0.32567 0.10932
H_ H_ 0.458774 0.0726169 0.309048 0.10932
H_ H_ 0.177982 0.141614 0.189871 0.10932
H_ H_ 0.454746 0.173723 0.193168 0.10932
H_ H_ 0.180539 0.139304 0.324804 0.10932
H_ H_ 0.423075 0.133028 0.312269 0.10932
H_ H_ 0.211577 0.0836558 0.187283 0.10932
H_ H_ 0.478215 0.104303 0.182782 0.10932
H_ H_ 0.0365025 0.0823638 0.188002 0.10932
H_ H_ 0.269691 0.0911812 0.185197 0.10932
H_ H_ 0.053642 0.153466 0.323172 0.10932
H_ H_ 0.32481 0.131759 0.31536 0.10932
H_ H_ 0.0642476 0.150688 0.190393 0.10932
H_ H_ 0.304716 0.15167 0.184973 0.10932
H_ H_ 0.0351524 0.0842834 0.32301 0.10932
H_ H_ 0.300686 0.064989 0.31075 0.10932
H_ H_ 0.105031 0.308927 0.367068 0.10932
H_ H_ 0.374863 0.325195 0.36109 0.10932
H_ H_ 0.14327 0.190441 0.374843 0.10932
H_ H_ 0.366832 0.19404 0.365918 0.10932
H_ H_ 0.138361 0.190103 0.451893 0.10932
H_ H_ 0.356753 0.19701 0.441741 0.10932
H_ H_ 0.0850928 0.299885 0.443922 0.10932
H_ H_ 0.370614 0.327314 0.43755 0.10932
H_ H_ 0.108295 0.309887 0.145006 0.10932
H_ H_ 0.329473 0.212092 0.142782 0.10932
H_ H_ 0.144567 0.186066 0.14683 0.10932
H_ H_ 0.410087 0.280258 0.141214 0.10932
H_ H_ 0.145182 0.186381 0.0704933 0.10932
H_ H_ 0.412685 0.274369 0.0646252 0.10932
H_ H_ 0.119861 0.313712 0.0709164 0.10932
H_ H_ 0.335346 0.194082 0.0654496 0.10932
C_ C_ 0.0690869 0.353135 0.259262 -0.02249
C_ C_ 0.313611 0.346925 0.252238 -0.02249
C_ C_ 0.0168189 0.466513 0.262618 -0.02249
C_ C_ 0.265061 0.460138 0.243116 -0.02249
C_ C_ 0.0354041 0.402398 0.224316 -0.11473
C_ C_ 0.277725 0.391164 0.212826 -0.11473
C_ C_ 0.0702317 0.379414 0.294916 -0.11473
C_ C_ 0.316397 0.378503 0.282116 -0.11473
C_ C_ 0.0504672 0.364845 0.226154 -0.11473
C_ C_ 0.292814 0.353736 0.216696 -0.11473
C_ C_ 0.0353148 0.428151 0.260277 -0.02249
C_ C_ 0.282285 0.420747 0.243678 -0.02249
C_ C_ 0.0890847 0.316511 0.256702 0.6875
C_ C_ 0.334271 0.309396 0.250637 0.6875
C_ C_ 0.051873 0.414564 0.296725 -0.11473
C_ C_ 0.300098 0.414577 0.278302 -0.11473
C_ C_ 0.180727 0.349014 0.257609 -0.02249
C_ C_ 0.428336 0.355115 0.254851 -0.02249
C_ C_ 0.233269 0.461443 0.244613 -0.02249
C_ C_ 0.484372 0.46417 0.247739 -0.02249
C_ C_ 0.217748 0.398504 0.287014 -0.11473
C_ C_ 0.462949 0.404702 0.289769 -0.11473
C_ C_ 0.176277 0.376816 0.224338 -0.11473
C_ C_ 0.433817 0.376409 0.216396 -0.11473
C_ C_ 0.20266 0.36121 0.289274 -0.11473
C_ C_ 0.442534 0.371326 0.293757 -0.11473
C_ C_ 0.21457 0.423778 0.2503 -0.02249
C_ C_ 0.466968 0.425726 0.250753 -0.02249
C_ C_ 0.1658 0.307399 0.25808 0.6875
C_ C_ 0.410537 0.315757 0.252431 0.6875
C_ C_ 0.193087 0.413317 0.218902 -0.11473
C_ C_ 0.451444 0.41115 0.214259 -0.11473
C_ C_ 0.17847 0.147158 0.258464 -0.02249
C_ C_ 0.435271 0.156881 0.252985 -0.02249
C_ C_ 0.232436 0.0342537 0.253804 -0.02249
C_ C_ 0.484255 0.0417463 0.242024 -0.02249
C_ C_ 0.207036 0.0912353 0.294986 -0.11473
C_ C_ 0.452567 0.0914749 0.28196 -0.11473
C_ C_ 0.188234 0.131032 0.219871 -0.11473
C_ C_ 0.452894 0.148858 0.217315 -0.11473
C_ C_ 0.188351 0.127358 0.294921 -0.11473
C_ C_ 0.435754 0.127187 0.284891 -0.11473
C_ C_ 0.215189 0.0730921 0.256262 -0.02249
C_ C_ 0.466887 0.0811126 0.24408 -0.02249
C_ C_ 0.160057 0.185665 0.25785 0.6875
C_ C_ 0.413634 0.192783 0.255676 0.6875
C_ C_ 0.205152 0.0932638 0.219194 -0.11473
C_ C_ 0.467063 0.111527 0.211831 -0.11473
C_ C_ 0.0583042 0.15997 0.256121 -0.02249
C_ C_ 0.312738 0.151696 0.252962 -0.02249
C_ C_ 0.0144392 0.0403202 0.25571 -0.02249
C_ C_ 0.264567 0.0345361 0.246529 -0.02249
C_ C_ 0.0385459 0.100018 0.216497 -0.11473
C_ C_ 0.278166 0.104224 0.214768 -0.11473
C_ C_ 0.0462289 0.14156 0.292185 -0.11473
C_ C_ 0.311642 0.125138 0.28773 -0.11473
C_ C_ 0.0545653 0.138542 0.217465 -0.11473
C_ C_ 0.298391 0.138202 0.214697 -0.11473
C_ C_ 0.0300341 0.0799117 0.254865 -0.02249
C_ C_ 0.281232 0.0759633 0.246117 -0.02249
C_ C_ 0.0803252 0.194252 0.25908 0.6875
C_ C_ 0.335597 0.186179 0.25211 0.6875
C_ C_ 0.0342743 0.101294 0.292751 -0.11473
C_ C_ 0.298209 0.086479 0.283231 -0.11473
C_ C_ 0.108355 0.281101 0.385598 0.17695
C_ C_ 0.375744 0.295251 0.377885 0.17695
C_ C_ 0.134046 0.218366 0.391169 0.17695
C_ C_ 0.364764 0.223836 0.380115 0.17695
C_ C_ 0.131664 0.218102 0.4347 -0.11473
C_ C_ 0.361932 0.226221 0.425418 -0.11473
C_ C_ 0.116041 0.250846 0.453897 0.23465
C_ C_ 0.368074 0.262504 0.447027 0.23465
C_ C_ 0.101128 0.278772 0.42848 -0.11473
C_ C_ 0.374186 0.297448 0.423111 -0.11473
C_ C_ 0.1176 0.281182 0.129367 0.17695
C_ C_ 0.348803 0.22264 0.125166 0.17695
C_ C_ 0.136741 0.213902 0.129983 0.17695
C_ C_ 0.395825 0.257485 0.126873 0.17695
C_ C_ 0.134745 0.212798 0.0851683 -0.11473
C_ C_ 0.396369 0.256061 0.0816482 -0.11473
C_ C_ 0.129279 0.248572 0.0616164 0.23465
C_ C_ 0.37312 0.236083 0.0584677 0.23465
C_ C_ 0.120412 0.283105 0.0856117 -0.11473
C_ C_ 0.350694 0.216079 0.0811318 -0.11473
C_ C_ 0.0290495 0.506912 0.265072 0.05793
C_ C_ 0.27987 0.497198 0.237743 0.05793
C_ C_ 0.21853 -0.0036129999999999773 0.254145 0.05793
C_ C_ 0.467973 1.00465075 0.233576 0.05793
Br Br 0.0712246 0.513339 0.270212 -0.17191
Br Br 0.321618 0.495222 0.222235 -0.17191
Br Br 0.175413 -0.005723999999999951 0.260208 -0.17191
Br Br 0.423827 1.00438413 0.223248 -0.17191
N_ N_ 0.121722 0.248948 0.367259 -0.272
N_ N_ 0.373142 0.25776 0.359075 -0.272
N_ N_ 0.111987 0.252015 0.498323 -0.12501
N_ N_ 0.363905 0.266274 0.492474 -0.12501
N_ N_ 0.125643 0.246694 0.150724 -0.272
N_ N_ 0.372087 0.242643 0.147718 -0.272
N_ N_ 0.136939 0.250971 0.0183531 -0.12501
N_ N_ 0.372142 0.235031 0.0142087 -0.12501
O_ O_ 0.0972931 0.303331 0.221568 -0.60745
O_ O_ 0.338138 0.290095 0.215395 -0.60745
O_ O_ 0.0942683 0.295446 0.28887 -0.60745
O_ O_ 0.345004 0.295929 0.285525 -0.60745
O_ O_ 0.156752 0.29162 0.292165 -0.60745
O_ O_ 0.40501 0.299594 0.287113 -0.60745
O_ O_ 0.158545 0.28959 0.223913 -0.60745
O_ O_ 0.402824 0.297081 0.218231 -0.60745
O_ O_ 0.154694 0.205032 0.292196 -0.60745
O_ O_ 0.404171 0.205123 0.290904 -0.60745
O_ O_ 0.14867 0.200537 0.223365 -0.60745
O_ O_ 0.406778 0.212465 0.222646 -0.60745
O_ O_ 0.0868616 0.21375 0.227118 -0.60745
O_ O_ 0.344019 0.204724 0.219611 -0.60745
O_ O_ 0.0917954 0.205638 0.293967 -0.60745
O_ O_ 0.342318 0.204624 0.287157 -0.60745
Zn Zn 0.123961 0.249694 0.788843 0.9476
Zn Zn 0.383507 0.246697 0.791498 0.9476
Zn Zn 0.122484 0.247396 0.722476 0.9476
Zn Zn 0.378385 0.250371 0.721694 0.9476
H_ H_ 0.0194312 0.405019 0.68915 0.10932
H_ H_ 0.293112 0.418669 0.693041 0.10932
H_ H_ 0.0812729 0.368271 0.812511 0.10932
H_ H_ 0.31721 0.348473 0.827522 0.10932
H_ H_ 0.0488208 0.336977 0.689535 0.10932
H_ H_ 0.316199 0.351673 0.689871 0.10932
H_ H_ 0.053031 0.432302 0.813761 0.10932
H_ H_ 0.298746 0.417071 0.824763 0.10932
H_ H_ 0.199041 0.429706 0.821734 0.10932
H_ H_ 0.46306 0.420235 0.8199 0.10932
H_ H_ 0.205262 0.332696 0.696559 0.10932
H_ H_ 0.427564 0.35471 0.686548 0.10932
H_ H_ 0.170565 0.360865 0.817192 0.10932
H_ H_ 0.43443 0.357292 0.819895 0.10932
H_ H_ 0.228656 0.399631 0.694456 0.10932
H_ H_ 0.456204 0.423224 0.685839 0.10932
H_ H_ 0.198289 0.0644233 0.816066 0.10932
H_ H_ 0.474861 0.0800635 0.808652 0.10932
H_ H_ 0.196059 0.15757 0.689954 0.10932
H_ H_ 0.43589 0.150129 0.68387 0.10932
H_ H_ 0.164104 0.12546 0.81076 0.10932
H_ H_ 0.445453 0.137611 0.816497 0.10932
H_ H_ 0.23447 0.103753 0.694466 0.10932
H_ H_ 0.463355 0.0828832 0.675992 0.10932
H_ H_ 0.0345112 0.0847901 0.677351 0.10932
H_ H_ 0.283564 0.0809334 0.695978 0.10932
H_ H_ 0.0533848 0.151408 0.811595 0.10932
H_ H_ 0.324041 0.143792 0.827012 0.10932
H_ H_ 0.0553833 0.151664 0.677241 0.10932
H_ H_ 0.3202 0.136814 0.691005 0.10932
H_ H_ 0.0312231 0.0814106 0.812128 0.10932
H_ H_ 0.289269 0.0834492 0.830932 0.10932
H_ H_ 0.154442 0.297162 0.869618 0.10932
H_ H_ 0.338759 0.25849 0.86839 0.10932
H_ H_ 0.105618 0.184017 0.856919 0.10932
H_ H_ 0.435196 0.248639 0.861044 0.10932
H_ H_ 0.107722 0.176481 0.933885 0.10932
H_ H_ 0.438091 0.246585 0.936471 0.10932
H_ H_ 0.150368 0.296503 0.945006 0.10932
H_ H_ 0.342929 0.258084 0.945745 0.10932
H_ H_ 0.113564 0.190343 0.643859 0.10932
H_ H_ 0.423332 0.258553 0.650167 0.10932
H_ H_ 0.137101 0.315417 0.654818 0.10932
H_ H_ 0.328635 0.26581 0.641436 0.10932
H_ H_ 0.145606 0.318132 0.58021 0.10932
H_ H_ 0.330439 0.247464 0.56497 0.10932
H_ H_ 0.111549 0.196535 0.565028 0.10932
H_ H_ 0.426098 0.261934 0.572091 0.10932
C_ C_ 0.0637881 0.345555 0.754625 -0.02249
C_ C_ 0.316373 0.340135 0.760518 -0.02249
C_ C_ 0.0166334 0.463603 0.748065 -0.02249
C_ C_ 0.268136 0.457977 0.760732 -0.02249
C_ C_ 0.0327285 0.395598 0.715788 -0.11473
C_ C_ 0.295415 0.401374 0.724002 -0.11473
C_ C_ 0.0655944 0.374259 0.787441 -0.11473
C_ C_ 0.308032 0.359206 0.797124 -0.11473
C_ C_ 0.0493992 0.357955 0.716853 -0.11473
C_ C_ 0.308431 0.361584 0.721483 -0.11473
C_ C_ 0.0337019 0.423978 0.749394 -0.02249
C_ C_ 0.285165 0.416787 0.762214 -0.02249
C_ C_ 0.0812458 0.306211 0.755895 0.6875
C_ C_ 0.339948 0.307272 0.759595 0.6875
C_ C_ 0.052041 0.413933 0.784464 -0.11473
C_ C_ 0.296522 0.39818 0.798401 -0.11473
C_ C_ 0.186558 0.34126 0.758691 -0.02249
C_ C_ 0.434375 0.346448 0.754062 -0.02249
C_ C_ 0.235074 0.457265 0.759034 -0.02249
C_ C_ 0.481603 0.461313 0.750444 -0.02249
C_ C_ 0.200199 0.40596 0.793092 -0.11473
C_ C_ 0.4549 0.40659 0.789757 -0.11473
C_ C_ 0.203074 0.353116 0.723576 -0.11473
C_ C_ 0.43887 0.366563 0.71584 -0.11473
C_ C_ 0.18522 0.369778 0.792846 -0.11473
C_ C_ 0.441623 0.367741 0.791403 -0.11473
C_ C_ 0.217717 0.416812 0.758805 -0.02249
C_ C_ 0.463459 0.422873 0.75204 -0.02249
C_ C_ 0.165226 0.305389 0.759945 0.6875
C_ C_ 0.41848 0.308045 0.75618 0.6875
C_ C_ 0.217137 0.39168 0.722724 -0.11473
C_ C_ 0.453537 0.40601 0.714065 -0.11473
C_ C_ 0.179608 0.149482 0.753464 -0.02249
C_ C_ 0.440814 0.153025 0.750103 -0.02249
C_ C_ 0.235264 0.0392815 0.751519 -0.02249
C_ C_ 0.489341 0.0365793 0.736838 -0.02249
C_ C_ 0.199217 0.0860805 0.788553 -0.11473
C_ C_ 0.465255 0.093565 0.781203 -0.11473
C_ C_ 0.199142 0.141795 0.718646 -0.11473
C_ C_ 0.445889 0.134976 0.711114 -0.11473
C_ C_ 0.179999 0.121717 0.786551 -0.11473
C_ C_ 0.45026 0.129968 0.78595 -0.11473
C_ C_ 0.217232 0.0779665 0.752587 -0.02249
C_ C_ 0.472534 0.0774853 0.741497 -0.02249
C_ C_ 0.161783 0.187592 0.751853 0.6875
C_ C_ 0.421261 0.189778 0.753888 0.6875
C_ C_ 0.217528 0.106679 0.718588 -0.11473
C_ C_ 0.461414 0.0967379 0.706026 -0.11473
C_ C_ 0.0620284 0.155346 0.746846 -0.02249
C_ C_ 0.324072 0.147526 0.757861 -0.02249
C_ C_ 0.0170208 0.0368097 0.744355 -0.02249
C_ C_ 0.267395 0.0379371 0.761356 -0.02249
C_ C_ 0.0370971 0.0998455 0.70651 -0.11473
C_ C_ 0.292524 0.0952369 0.723899 -0.11473
C_ C_ 0.0539306 0.136146 0.783609 -0.11473
C_ C_ 0.315798 0.130329 0.79748 -0.11473
C_ C_ 0.051268 0.138545 0.707191 -0.11473
C_ C_ 0.312468 0.128713 0.720718 -0.11473
C_ C_ 0.0320979 0.0786882 0.74421 -0.02249
C_ C_ 0.285807 0.0760337 0.761745 -0.02249
C_ C_ 0.0837259 0.191549 0.748025 0.6875
C_ C_ 0.342027 0.186546 0.756757 0.6875
C_ C_ 0.0404245 0.0970291 0.782708 -0.11473
C_ C_ 0.296 0.0953989 0.799201 -0.11473
C_ C_ 0.136977 0.275213 0.8831 0.17695
C_ C_ 0.360269 0.253038 0.883821 0.17695
C_ C_ 0.117888 0.207084 0.876239 0.17695
C_ C_ 0.413355 0.248626 0.879556 0.17695
C_ C_ 0.11878 0.202627 0.920579 -0.11473
C_ C_ 0.415479 0.247735 0.922323 -0.11473
C_ C_ 0.128501 0.234449 0.946788 0.23465
C_ C_ 0.38956 0.244073 0.946586 0.23465
C_ C_ 0.136513 0.272898 0.928414 -0.11473
C_ C_ 0.361112 0.247445 0.927375 -0.11473
C_ C_ 0.115287 0.220627 0.630807 0.17695
C_ C_ 0.402622 0.256659 0.630618 0.17695
C_ C_ 0.134998 0.286861 0.63784 0.17695
C_ C_ 0.349215 0.256103 0.626498 0.17695
C_ C_ 0.138578 0.290113 0.594043 -0.11473
C_ C_ 0.350685 0.25552 0.58278 -0.11473
C_ C_ 0.129557 0.258558 0.56821 0.23465
C_ C_ 0.378385 0.259217 0.561958 0.23465
C_ C_ 0.118839 0.222541 0.585498 -0.11473
C_ C_ 0.405021 0.261425 0.587158 -0.11473
C_ C_ 0.032704 0.500762 0.746717 0.05793
C_ C_ 0.282925 0.497063 0.76058 0.05793
C_ C_ 0.219929 0.000169107 0.751554 0.05793
C_ C_ 0.472218 1.000934802 0.7367 0.05793
Br Br 0.076662 0.500931 0.749816 -0.17191
Br Br 0.327103 0.495936 0.763264 -0.17191
Br Br 0.178652 -0.002623000000000042 0.734861 -0.17191
Br Br 0.428753 1.000817328 0.740064 -0.17191
N_ N_ 0.128441 0.242433 0.859714 -0.272
N_ N_ 0.385522 0.245992 0.861104 -0.272
N_ N_ 0.124428 0.229279 0.990852 -0.12501
N_ N_ 0.394388 0.240461 0.991121 -0.12501
N_ N_ 0.124215 0.252393 0.654614 -0.272
N_ N_ 0.37527 0.254651 0.649814 -0.272
N_ N_ 0.133554 0.257984 0.523862 -0.12501
N_ N_ 0.381463 0.250069 0.51797 -0.12501
O_ O_ 0.091497 0.292962 0.72117 -0.60745
O_ O_ 0.347933 0.295638 0.724503 -0.60745
O_ O_ 0.0910235 0.29196 0.790753 -0.60745
O_ O_ 0.352425 0.290661 0.792283 -0.60745
O_ O_ 0.154118 0.291025 0.79455 -0.60745
O_ O_ 0.414529 0.288861 0.791111 -0.60745
O_ O_ 0.154951 0.291645 0.725514 -0.60745
O_ O_ 0.411759 0.289076 0.722791 -0.60745
O_ O_ 0.154649 0.202986 0.785692 -0.60745
O_ O_ 0.415022 0.204784 0.790071 -0.60745
O_ O_ 0.153242 0.203554 0.71704 -0.60745
O_ O_ 0.407383 0.203472 0.720471 -0.60745
O_ O_ 0.0930524 0.205886 0.714518 -0.60745
O_ O_ 0.345469 0.207692 0.724774 -0.60745
O_ O_ 0.0928238 0.205615 0.782806 -0.60745
O_ O_ 0.352695 0.199908 0.792175 -0.60745
Zn Zn 0.128203 0.749656 0.289072 0.9476
Zn Zn 0.374651 0.747918 0.273928 0.9476
Zn Zn 0.12728 0.747275 0.219935 0.9476
Zn Zn 0.37763 0.748588 0.206876 0.9476
H_ H_ 0.042281 0.919561 0.186523 0.10932
H_ H_ 0.283548 0.917575 0.172424 0.10932
H_ H_ 0.0656512 0.850708 0.325255 0.10932
H_ H_ 0.326463 0.861874 0.30328 0.10932
H_ H_ 0.0624507 0.852835 0.189939 0.10932
H_ H_ 0.311574 0.848333 0.171228 0.10932
H_ H_ 0.0384443 0.921715 0.322702 0.10932
H_ H_ 0.287484 0.914044 0.306048 0.10932
H_ H_ 0.223291 0.91437 0.319501 0.10932
H_ H_ 0.451761 0.930005 0.2974 0.10932
H_ H_ 0.192375 0.84317 0.185826 0.10932
H_ H_ 0.445946 0.840048 0.172754 0.10932
H_ H_ 0.192909 0.84676 0.320124 0.10932
H_ H_ 0.42074 0.864881 0.29571 0.10932
H_ H_ 0.213445 0.910521 0.18606 0.10932
H_ H_ 0.472168 0.906613 0.171396 0.10932
H_ H_ 0.220629 0.579573 0.319886 0.10932
H_ H_ 0.462186 0.583801 0.310242 0.10932
H_ H_ 0.183877 0.638951 0.185666 0.10932
H_ H_ 0.438763 0.651741 0.173239 0.10932
H_ H_ 0.192021 0.645195 0.320823 0.10932
H_ H_ 0.437982 0.648689 0.311898 0.10932
H_ H_ 0.213419 0.580874 0.182856 0.10932
H_ H_ 0.468376 0.584722 0.177688 0.10932
H_ H_ 0.0298404 0.584718 0.192793 0.10932
H_ H_ 0.284846 0.578883 0.177216 0.10932
H_ H_ 0.0610211 0.652546 0.325762 0.10932
H_ H_ 0.314214 0.6475 0.31025 0.10932
H_ H_ 0.0622089 0.648112 0.192905 0.10932
H_ H_ 0.313988 0.646478 0.173425 0.10932
H_ H_ 0.0264741 0.595801 0.327666 0.10932
H_ H_ 0.28125 0.583161 0.310773 0.10932
H_ H_ 0.144558 0.814415 0.355868 0.10932
H_ H_ 0.372415 0.684755 0.346503 0.10932
H_ H_ 0.122457 0.691454 0.366564 0.10932
H_ H_ 0.390593 0.813459 0.348904 0.10932
H_ H_ 0.120959 0.694483 0.446296 0.10932
H_ H_ 0.377258 0.816669 0.422448 0.10932
H_ H_ 0.144465 0.825859 0.435369 0.10932
H_ H_ 0.364165 0.685029 0.420904 0.10932
H_ H_ 0.129854 0.681836 0.15 0.10932
H_ H_ 0.389925 0.815712 0.131247 0.10932
H_ H_ 0.119727 0.811571 0.137622 0.10932
H_ H_ 0.369937 0.687318 0.130869 0.10932
H_ H_ 0.120126 0.80601 0.0573542 0.10932
H_ H_ 0.368239 0.6858 0.0508648 0.10932
H_ H_ 0.131236 0.67483 0.0741945 0.10932
H_ H_ 0.377309 0.819795 0.057419 0.10932
C_ C_ 0.0709045 0.849161 0.257869 -0.02249
C_ C_ 0.316495 0.844772 0.238972 -0.02249
C_ C_ 0.0183182 0.961978 0.256594 -0.02249
C_ C_ 0.26566 0.959136 0.244902 -0.02249
C_ C_ 0.0478839 0.907479 0.21841 -0.11473
C_ C_ 0.290932 0.902063 0.201431 -0.11473
C_ C_ 0.0637961 0.869223 0.296633 -0.11473
C_ C_ 0.31255 0.867982 0.276055 -0.11473
C_ C_ 0.0607401 0.866904 0.219761 -0.11473
C_ C_ 0.30644 0.864105 0.201502 -0.11473
C_ C_ 0.0388498 0.924325 0.254712 -0.02249
C_ C_ 0.282059 0.919491 0.240708 -0.02249
C_ C_ 0.0921463 0.811607 0.256377 0.6875
C_ C_ 0.338003 0.809042 0.239417 0.6875
C_ C_ 0.0461765 0.9057 0.294022 -0.11473
C_ C_ 0.293094 0.901446 0.276428 -0.11473
C_ C_ 0.188685 0.840449 0.255638 -0.02249
C_ C_ 0.435545 0.843966 0.236616 -0.02249
C_ C_ 0.234126 0.958603 0.249223 -0.02249
C_ C_ 0.482497 0.964599 0.235245 -0.02249
C_ C_ 0.215153 0.898158 0.291012 -0.11473
C_ C_ 0.451392 0.90952 0.270639 -0.11473
C_ C_ 0.198907 0.857107 0.217236 -0.11473
C_ C_ 0.449815 0.8583 0.200922 -0.11473
C_ C_ 0.197381 0.862035 0.293136 -0.11473
C_ C_ 0.435352 0.871577 0.270234 -0.11473
C_ C_ 0.218844 0.918695 0.253262 -0.02249
C_ C_ 0.463711 0.924696 0.232601 -0.02249
C_ C_ 0.167711 0.805275 0.25446 0.6875
C_ C_ 0.418079 0.80441 0.236679 0.6875
C_ C_ 0.212082 0.896906 0.21632 -0.11473
C_ C_ 0.461964 0.898167 0.198885 -0.11473
C_ C_ 0.186608 0.650207 0.253372 -0.02249
C_ C_ 0.43565 0.656007 0.242871 -0.02249
C_ C_ 0.235693 0.536727 0.250206 -0.02249
C_ C_ 0.485263 0.539882 0.246427 -0.02249
C_ C_ 0.213797 0.595191 0.290082 -0.11473
C_ C_ 0.459463 0.599603 0.280987 -0.11473
C_ C_ 0.195694 0.63097 0.214171 -0.11473
C_ C_ 0.445518 0.638903 0.204653 -0.11473
C_ C_ 0.196668 0.630197 0.290833 -0.11473
C_ C_ 0.444531 0.637381 0.280287 -0.11473
C_ C_ 0.219569 0.575554 0.250738 -0.02249
C_ C_ 0.466318 0.578824 0.244532 -0.02249
C_ C_ 0.163512 0.684205 0.25429 0.6875
C_ C_ 0.41411 0.689311 0.241007 0.6875
C_ C_ 0.209803 0.593032 0.212963 -0.11473
C_ C_ 0.461604 0.600581 0.206405 -0.11473
C_ C_ 0.064296 0.655121 0.259735 -0.02249
C_ C_ 0.316951 0.651219 0.242879 -0.02249
C_ C_ 0.0123042 0.543362 0.25999 -0.02249
C_ C_ 0.266393 0.536063 0.244971 -0.02249
C_ C_ 0.0345566 0.601804 0.221675 -0.11473
C_ C_ 0.289763 0.595965 0.205526 -0.11473
C_ C_ 0.0570138 0.636151 0.297457 -0.11473
C_ C_ 0.306157 0.633908 0.281444 -0.11473
C_ C_ 0.0542287 0.638322 0.222618 -0.11473
C_ C_ 0.307099 0.632824 0.205143 -0.11473
C_ C_ 0.027539 0.584905 0.259779 -0.02249
C_ C_ 0.283428 0.575828 0.242872 -0.02249
C_ C_ 0.0863599 0.689738 0.258717 0.6875
C_ C_ 0.33668 0.688609 0.241608 0.6875
C_ C_ 0.0376418 0.602249 0.298543 -0.11473
C_ C_ 0.289502 0.596739 0.280612 -0.11473
C_ C_ 0.13689 0.792501 0.378073 0.17695
C_ C_ 0.370867 0.71372 0.362421 0.17695
C_ C_ 0.124928 0.720507 0.383833 0.17695
C_ C_ 0.380117 0.785822 0.363697 0.17695
C_ C_ 0.126592 0.721847 0.42835 -0.11473
C_ C_ 0.373231 0.786921 0.407116 -0.11473
C_ C_ 0.132905 0.759196 0.447394 0.23465
C_ C_ 0.367072 0.749648 0.428244 0.23465
C_ C_ 0.139352 0.795233 0.422267 -0.11473
C_ C_ 0.369698 0.711953 0.406238 -0.11473
C_ C_ 0.126515 0.709644 0.130562 0.17695
C_ C_ 0.380547 0.787314 0.11604 0.17695
C_ C_ 0.12307 0.782689 0.123044 0.17695
C_ C_ 0.372051 0.714855 0.114354 0.17695
C_ C_ 0.121973 0.777857 0.0784549 -0.11473
C_ C_ 0.372026 0.715283 0.0702273 -0.11473
C_ C_ 0.127238 0.739328 0.0608981 0.23465
C_ C_ 0.370658 0.752365 0.0503486 0.23465
C_ C_ 0.131011 0.705981 0.0869603 -0.11473
C_ C_ 0.377226 0.788443 0.073117 -0.11473
C_ C_ 0.0324326 1.00276831 0.258876 0.05793
C_ C_ 0.279889 0.997737 0.242274 0.05793
C_ C_ 0.217816 0.499933 0.249161 0.05793
C_ C_ 0.470635 0.502636 0.253847 0.05793
Br Br 0.0761198 0.0054883 0.250106 -0.17191
Br Br 0.320712 1.000199679 0.218461 -0.17191
Br Br 0.174545 0.502909 0.259378 -0.17191
Br Br 0.429176 0.500779 0.27506 -0.17191
N_ N_ 0.129692 0.754738 0.36087 -0.272
N_ N_ 0.376234 0.748689 0.341944 -0.272
N_ N_ 0.138202 0.761207 0.492068 -0.12501
N_ N_ 0.363067 0.752123 0.472661 -0.12501
N_ N_ 0.12456 0.747458 0.14801 -0.272
N_ N_ 0.377164 0.749207 0.136902 -0.272
N_ N_ 0.122152 0.732957 0.0160414 -0.12501
N_ N_ 0.363529 0.754777 0.00606144 -0.12501
O_ O_ 0.0958745 0.791464 0.222741 -0.60745
O_ O_ 0.350035 0.796271 0.205902 -0.60745
O_ O_ 0.100795 0.797303 0.291604 -0.60745
O_ O_ 0.342837 0.790115 0.27313 -0.60745
O_ O_ 0.160879 0.789567 0.289365 -0.60745
O_ O_ 0.405066 0.793448 0.27119 -0.60745
O_ O_ 0.15779 0.790639 0.218993 -0.60745
O_ O_ 0.410772 0.78621 0.202467 -0.60745
O_ O_ 0.15628 0.699501 0.288965 -0.60745
O_ O_ 0.407673 0.708971 0.2759 -0.60745
O_ O_ 0.15648 0.70276 0.219884 -0.60745
O_ O_ 0.406315 0.704584 0.205497 -0.60745
O_ O_ 0.096906 0.702477 0.22459 -0.60745
O_ O_ 0.343618 0.705937 0.207133 -0.60745
O_ O_ 0.0956322 0.705449 0.291709 -0.60745
O_ O_ 0.347597 0.701283 0.275151 -0.60745
Zn Zn 0.126795 0.750113 0.787642 0.9476
Zn Zn 0.376686 0.748746 0.777157 0.9476
Zn Zn 0.12641 0.746345 0.716257 0.9476
Zn Zn 0.371324 0.751403 0.703675 0.9476
H_ H_ 0.0253552 0.907465 0.675382 0.10932
H_ H_ 0.283301 0.926069 0.688487 0.10932
H_ H_ 0.0735937 0.857652 0.807826 0.10932
H_ H_ 0.316907 0.845291 0.811036 0.10932
H_ H_ 0.0539506 0.840456 0.678184 0.10932
H_ H_ 0.314399 0.865 0.67807 0.10932
H_ H_ 0.0512739 0.924331 0.80364 0.10932
H_ H_ 0.291238 0.911825 0.822637 0.10932
H_ H_ 0.192883 0.938699 0.812158 0.10932
H_ H_ 0.466457 0.920648 0.802964 0.10932
H_ H_ 0.20113 0.839174 0.696329 0.10932
H_ H_ 0.435425 0.85426 0.671219 0.10932
H_ H_ 0.167252 0.871526 0.814565 0.10932
H_ H_ 0.432786 0.860887 0.804461 0.10932
H_ H_ 0.230631 0.903197 0.696586 0.10932
H_ H_ 0.467982 0.911433 0.667178 0.10932
H_ H_ 0.236638 0.597814 0.816314 0.10932
H_ H_ 0.471647 0.588309 0.809813 0.10932
H_ H_ 0.179326 0.640861 0.690218 0.10932
H_ H_ 0.430511 0.64646 0.675217 0.10932
H_ H_ 0.202704 0.658787 0.820967 0.10932
H_ H_ 0.442896 0.653367 0.81019 0.10932
H_ H_ 0.205165 0.574404 0.687971 0.10932
H_ H_ 0.459258 0.580647 0.676243 0.10932
H_ H_ 0.0270031 0.587203 0.683739 0.10932
H_ H_ 0.273566 0.57991 0.689099 0.10932
H_ H_ 0.0777794 0.637183 0.815117 0.10932
H_ H_ 0.328392 0.638726 0.813575 0.10932
H_ H_ 0.0657398 0.646768 0.681112 0.10932
H_ H_ 0.308847 0.640889 0.680448 0.10932
H_ H_ 0.0403315 0.578987 0.816104 0.10932
H_ H_ 0.298638 0.574692 0.820655 0.10932
H_ H_ 0.124838 0.813832 0.854274 0.10932
H_ H_ 0.413433 0.79468 0.850521 0.10932
H_ H_ 0.130619 0.684283 0.865838 0.10932
H_ H_ 0.337863 0.71983 0.85249 0.10932
H_ H_ 0.130266 0.686986 0.941914 0.10932
H_ H_ 0.338648 0.719005 0.927827 0.10932
H_ H_ 0.111384 0.817964 0.935044 0.10932
H_ H_ 0.412987 0.805834 0.92821 0.10932
H_ H_ 0.144811 0.689732 0.640715 0.10932
H_ H_ 0.382574 0.807748 0.614672 0.10932
H_ H_ 0.124561 0.816628 0.642617 0.10932
H_ H_ 0.357998 0.68184 0.635 0.10932
H_ H_ 0.116482 0.819175 0.570973 0.10932
H_ H_ 0.36127 0.66685 0.559927 0.10932
H_ H_ 0.132793 0.689043 0.56162 0.10932
H_ H_ 0.377675 0.794849 0.538128 0.10932
C_ C_ 0.0692606 0.846748 0.742521 -0.02249
C_ C_ 0.317033 0.846825 0.744148 -0.02249
C_ C_ 0.018349 0.960042 0.742501 -0.02249
C_ C_ 0.266433 0.961786 0.760482 -0.02249
C_ C_ 0.0374504 0.897947 0.704999 -0.11473
C_ C_ 0.288443 0.907558 0.716955 -0.11473
C_ C_ 0.0658927 0.870409 0.778034 -0.11473
C_ C_ 0.310353 0.860762 0.785167 -0.11473
C_ C_ 0.0562841 0.86163 0.705112 -0.11473
C_ C_ 0.306591 0.872577 0.709992 -0.11473
C_ C_ 0.0360432 0.92164 0.740585 -0.02249
C_ C_ 0.283067 0.921902 0.757342 -0.02249
C_ C_ 0.0878372 0.808137 0.745568 0.6875
C_ C_ 0.333184 0.807904 0.739956 0.6875
C_ C_ 0.0506989 0.908002 0.776427 -0.11473
C_ C_ 0.294247 0.898698 0.790526 -0.11473
C_ C_ 0.18093 0.85021 0.755296 -0.02249
C_ C_ 0.433226 0.851013 0.736846 -0.02249
C_ C_ 0.234934 0.961693 0.757691 -0.02249
C_ C_ 0.486836 0.961747 0.735702 -0.02249
C_ C_ 0.196037 0.91518 0.790901 -0.11473
C_ C_ 0.461257 0.903195 0.774543 -0.11473
C_ C_ 0.196796 0.863125 0.721368 -0.11473
C_ C_ 0.442367 0.867418 0.699661 -0.11473
C_ C_ 0.181561 0.876469 0.790788 -0.11473
C_ C_ 0.441324 0.871624 0.774471 -0.11473
C_ C_ 0.217197 0.923734 0.759504 -0.02249
C_ C_ 0.4682 0.922638 0.735373 -0.02249
C_ C_ 0.159936 0.812314 0.754513 0.6875
C_ C_ 0.412143 0.813586 0.735947 0.6875
C_ C_ 0.215648 0.898797 0.722371 -0.11473
C_ C_ 0.459348 0.902569 0.697272 -0.11473
C_ C_ 0.187388 0.650196 0.757116 -0.02249
C_ C_ 0.435292 0.654632 0.742293 -0.02249
C_ C_ 0.234245 0.533806 0.755994 -0.02249
C_ C_ 0.482877 0.536476 0.745669 -0.02249
C_ C_ 0.22015 0.602302 0.792109 -0.11473
C_ C_ 0.462968 0.60027 0.780772 -0.11473
C_ C_ 0.190107 0.628486 0.720203 -0.11473
C_ C_ 0.4406 0.633334 0.70567 -0.11473
C_ C_ 0.201269 0.637262 0.794573 -0.11473
C_ C_ 0.446275 0.637447 0.780331 -0.11473
C_ C_ 0.216871 0.574449 0.756482 -0.02249
C_ C_ 0.46615 0.577203 0.743483 -0.02249
C_ C_ 0.170663 0.690071 0.755957 0.6875
C_ C_ 0.414878 0.692605 0.743792 0.6875
C_ C_ 0.20238 0.589615 0.719409 -0.11473
C_ C_ 0.455584 0.595023 0.706575 -0.11473
C_ C_ 0.0700826 0.649347 0.748288 -0.02249
C_ C_ 0.320639 0.645368 0.746444 -0.02249
C_ C_ 0.0172344 0.539482 0.749886 -0.02249
C_ C_ 0.26694 0.535427 0.757714 -0.02249
C_ C_ 0.0377529 0.599219 0.710543 -0.11473
C_ C_ 0.288129 0.591816 0.715217 -0.11473
C_ C_ 0.0655894 0.627819 0.786343 -0.11473
C_ C_ 0.317852 0.625504 0.785893 -0.11473
C_ C_ 0.0582441 0.633408 0.709473 -0.11473
C_ C_ 0.305445 0.628009 0.711637 -0.11473
C_ C_ 0.0335808 0.577994 0.74913 -0.02249
C_ C_ 0.282743 0.575756 0.754557 -0.02249
C_ C_ 0.0880029 0.688371 0.747434 0.6875
C_ C_ 0.341467 0.680147 0.742914 0.6875
C_ C_ 0.0459975 0.595294 0.786652 -0.11473
C_ C_ 0.300411 0.589681 0.78968 -0.11473
C_ C_ 0.124984 0.787383 0.874914 0.17695
C_ C_ 0.396747 0.779921 0.868526 0.17695
C_ C_ 0.130243 0.714705 0.882616 0.17695
C_ C_ 0.352341 0.74015 0.868091 0.17695
C_ C_ 0.125095 0.716165 0.925428 -0.11473
C_ C_ 0.352611 0.740621 0.912549 -0.11473
C_ C_ 0.125487 0.755559 0.945181 0.23465
C_ C_ 0.375433 0.762475 0.934684 0.23465
C_ C_ 0.121568 0.791483 0.919291 -0.11473
C_ C_ 0.396339 0.785799 0.912609 -0.11473
C_ C_ 0.13804 0.717266 0.623897 0.17695
C_ C_ 0.373438 0.776871 0.602724 0.17695
C_ C_ 0.126118 0.787743 0.626352 0.17695
C_ C_ 0.366356 0.705415 0.613796 0.17695
C_ C_ 0.122723 0.790592 0.583704 -0.11473
C_ C_ 0.364216 0.696956 0.570745 -0.11473
C_ C_ 0.126193 0.754092 0.560466 0.23465
C_ C_ 0.366803 0.730075 0.541893 0.23465
C_ C_ 0.132661 0.717551 0.580267 -0.11473
C_ C_ 0.373093 0.769833 0.558879 -0.11473
C_ C_ 0.0336515 -0.0004979999999999984 0.741396 0.05793
C_ C_ 0.282253 -0.0002670000000000172 0.762661 0.05793
C_ C_ 0.219285 0.496 0.753386 0.05793
C_ C_ 0.466947 0.498774 0.745368 0.05793
Br Br 0.0740967 0.00285423 0.726635 -0.17191
Br Br 0.326627 -0.0020529999999999715 0.756075 -0.17191
Br Br 0.177491 0.493259 0.738089 -0.17191
Br Br 0.421963 0.50038 0.738109 -0.17191
N_ N_ 0.129144 0.750014 0.858166 -0.272
N_ N_ 0.375356 0.758329 0.846939 -0.272
N_ N_ 0.127457 0.760724 0.989034 -0.12501
N_ N_ 0.383357 0.754966 0.977548 -0.12501
N_ N_ 0.132415 0.751923 0.646601 -0.272
N_ N_ 0.370435 0.745043 0.629168 -0.272
N_ N_ 0.117918 0.752214 0.516881 -0.12501
N_ N_ 0.367335 0.723047 0.49701 -0.12501
O_ O_ 0.0964637 0.790368 0.711617 -0.60745
O_ O_ 0.339248 0.79521 0.704212 -0.60745
O_ O_ 0.0915559 0.789218 0.780719 -0.60745
O_ O_ 0.337329 0.785094 0.77094 -0.60745
O_ O_ 0.151759 0.798139 0.789152 -0.60745
O_ O_ 0.403422 0.797112 0.768816 -0.60745
O_ O_ 0.156984 0.789328 0.721897 -0.60745
O_ O_ 0.399619 0.802366 0.700646 -0.60745
O_ O_ 0.163308 0.708788 0.789469 -0.60745
O_ O_ 0.41351 0.714512 0.776078 -0.60745
O_ O_ 0.161755 0.704185 0.720937 -0.60745
O_ O_ 0.402977 0.704927 0.710764 -0.60745
O_ O_ 0.0983486 0.701618 0.712241 -0.60745
O_ O_ 0.342376 0.7018 0.70806 -0.60745
O_ O_ 0.0977475 0.703528 0.782261 -0.60745
O_ O_ 0.352726 0.695271 0.777847 -0.60745
Zn Zn 0.626681 0.250183 0.279861 0.9476
Zn Zn 0.873587 0.253905 0.287854 0.9476
Zn Zn 0.622467 0.250325 0.21081 0.9476
Zn Zn 0.875023 0.252042 0.217558 0.9476
H_ H_ 0.524369 0.406594 0.180332 0.10932
H_ H_ 0.797195 0.432961 0.187314 0.10932
H_ H_ 0.580743 0.369213 0.309139 0.10932
H_ H_ 0.789671 0.338469 0.312012 0.10932
H_ H_ 0.556738 0.342869 0.182719 0.10932
H_ H_ 0.829888 0.368303 0.190084 0.10932
H_ H_ 0.550871 0.432051 0.306778 0.10932
H_ H_ 0.767046 0.406895 0.313518 0.10932
H_ H_ 0.712225 0.417963 0.320297 0.10932
H_ H_ 0.978759 0.406896 0.324563 0.10932
H_ H_ 0.692463 0.349465 0.182646 0.10932
H_ H_ 0.926186 0.37047 0.185522 0.10932
H_ H_ 0.686532 0.352482 0.317441 0.10932
H_ H_ 0.941854 0.350426 0.322542 0.10932
H_ H_ 0.727452 0.406341 0.18776 0.10932
H_ H_ 0.962064 0.425945 0.191575 0.10932
H_ H_ 0.717505 0.0863345 0.312369 0.10932
H_ H_ 0.967552 0.0847358 0.317952 0.10932
H_ H_ 0.67892 0.143642 0.174604 0.10932
H_ H_ 0.921041 0.135639 0.189959 0.10932
H_ H_ 0.683536 0.152379 0.31162 0.10932
H_ H_ 0.946487 0.153124 0.319843 0.10932
H_ H_ 0.706328 0.0763159 0.177696 0.10932
H_ H_ 0.956171 0.077196 0.188066 0.10932
H_ H_ 0.534051 0.0854602 0.178838 0.10932
H_ H_ 0.783781 0.0816213 0.18402 0.10932
H_ H_ 0.55959 0.14907 0.315965 0.10932
H_ H_ 0.806919 0.154773 0.317942 0.10932
H_ H_ 0.563579 0.148235 0.181938 0.10932
H_ H_ 0.818757 0.137549 0.186012 0.10932
H_ H_ 0.537613 0.0825423 0.312719 0.10932
H_ H_ 0.776693 0.0899308 0.318804 0.10932
H_ H_ 0.629991 0.182935 0.343586 0.10932
H_ H_ 0.879658 0.182933 0.357574 0.10932
H_ H_ 0.617024 0.310962 0.362961 0.10932
H_ H_ 0.856965 0.309303 0.368447 0.10932
H_ H_ 0.627925 0.301826 0.43884 0.10932
H_ H_ 0.857766 0.304194 0.445771 0.10932
H_ H_ 0.643005 0.172824 0.423781 0.10932
H_ H_ 0.88757 0.178362 0.429207 0.10932
H_ H_ 0.622212 0.19271 0.133201 0.10932
H_ H_ 0.868086 0.324766 0.146793 0.10932
H_ H_ 0.629558 0.324335 0.140153 0.10932
H_ H_ 0.891489 0.195613 0.137661 0.10932
H_ H_ 0.641172 0.324058 0.0641572 0.10932
H_ H_ 0.885848 0.198799 0.0600088 0.10932
H_ H_ 0.629127 0.195696 0.0524365 0.10932
H_ H_ 0.865441 0.329828 0.0708129 0.10932
C_ C_ 0.570543 0.35145 0.245256 -0.02249
C_ C_ 0.811484 0.34953 0.249394 -0.02249
C_ C_ 0.516993 0.46376 0.239293 -0.02249
C_ C_ 0.764378 0.463951 0.249722 -0.02249
C_ C_ 0.536969 0.39792 0.209443 -0.11473
C_ C_ 0.796371 0.411344 0.213181 -0.11473
C_ C_ 0.568011 0.376393 0.281821 -0.11473
C_ C_ 0.79216 0.358494 0.283783 -0.11473
C_ C_ 0.556429 0.363648 0.208325 -0.11473
C_ C_ 0.814416 0.375091 0.214598 -0.11473
C_ C_ 0.535412 0.42366 0.244441 -0.02249
C_ C_ 0.780351 0.422749 0.249525 -0.02249
C_ C_ 0.588627 0.3136 0.246677 0.6875
C_ C_ 0.831629 0.311289 0.252444 0.6875
C_ C_ 0.550475 0.412928 0.280456 -0.11473
C_ C_ 0.780401 0.398299 0.285488 -0.11473
C_ C_ 0.685849 0.346614 0.249621 -0.02249
C_ C_ 0.932787 0.352883 0.253875 -0.02249
C_ C_ 0.731924 0.461697 0.251991 -0.02249
C_ C_ 0.984798 0.463237 0.261136 -0.02249
C_ C_ 0.705058 0.405848 0.289065 -0.11473
C_ C_ 0.965747 0.400159 0.295222 -0.11473
C_ C_ 0.698051 0.362437 0.214755 -0.11473
C_ C_ 0.938124 0.375423 0.215918 -0.11473
C_ C_ 0.691203 0.367111 0.287191 -0.11473
C_ C_ 0.946753 0.36602 0.294052 -0.11473
C_ C_ 0.715636 0.422518 0.251512 -0.02249
C_ C_ 0.969062 0.422499 0.258844 -0.02249
C_ C_ 0.665 0.309264 0.247254 0.6875
C_ C_ 0.913417 0.313887 0.254882 0.6875
C_ C_ 0.711853 0.40062 0.214252 -0.11473
C_ C_ 0.957832 0.408908 0.218687 -0.11473
C_ C_ 0.678316 0.151577 0.243301 -0.02249
C_ C_ 0.933506 0.153364 0.253001 -0.02249
C_ C_ 0.730487 0.0405904 0.248627 -0.02249
C_ C_ 0.983351 0.0371046 0.254751 -0.02249
C_ C_ 0.707003 0.100617 0.284042 -0.11473
C_ C_ 0.95746 0.0962356 0.290067 -0.11473
C_ C_ 0.683851 0.130538 0.204843 -0.11473
C_ C_ 0.93467 0.128754 0.217166 -0.11473
C_ C_ 0.688854 0.135653 0.28281 -0.11473
C_ C_ 0.945143 0.135845 0.289788 -0.11473
C_ C_ 0.71386 0.0793853 0.245417 -0.02249
C_ C_ 0.964713 0.0752939 0.253692 -0.02249
C_ C_ 0.659802 0.19044 0.243296 0.6875
C_ C_ 0.913669 0.191961 0.252732 0.6875
C_ C_ 0.702753 0.0949059 0.207003 -0.11473
C_ C_ 0.95318 0.0926835 0.21674 -0.11473
C_ C_ 0.56155 0.156392 0.247428 -0.02249
C_ C_ 0.8165 0.152146 0.252005 -0.02249
C_ C_ 0.515553 0.0396659 0.24645 -0.02249
C_ C_ 0.761981 0.0414501 0.249617 -0.02249
C_ C_ 0.540959 0.0987375 0.209564 -0.11473
C_ C_ 0.789564 0.098769 0.214644 -0.11473
C_ C_ 0.552758 0.137002 0.285156 -0.11473
C_ C_ 0.805204 0.13609 0.289591 -0.11473
C_ C_ 0.554265 0.137139 0.210112 -0.11473
C_ C_ 0.807253 0.134191 0.214892 -0.11473
C_ C_ 0.533235 0.0783286 0.24652 -0.02249
C_ C_ 0.778962 0.0814974 0.251892 -0.02249
C_ C_ 0.58219 0.192675 0.245671 0.6875
C_ C_ 0.8347 0.192602 0.25007 0.6875
C_ C_ 0.541911 0.0965623 0.28371 -0.11473
C_ C_ 0.787003 0.0994645 0.290149 -0.11473
C_ C_ 0.631585 0.209043 0.363637 0.17695
C_ C_ 0.872068 0.210643 0.376201 0.17695
C_ C_ 0.620373 0.279655 0.377137 0.17695
C_ C_ 0.86043 0.280425 0.383511 0.17695
C_ C_ 0.624668 0.27552 0.420704 -0.11473
C_ C_ 0.860733 0.278079 0.42669 -0.11473
C_ C_ 0.627614 0.234901 0.436995 0.23465
C_ C_ 0.867893 0.238721 0.445218 0.23465
C_ C_ 0.637212 0.202843 0.407943 -0.11473
C_ C_ 0.873908 0.205199 0.41913 -0.11473
C_ C_ 0.624387 0.221882 0.116237 0.17695
C_ C_ 0.871157 0.296241 0.126984 0.17695
C_ C_ 0.624793 0.295655 0.120514 0.17695
C_ C_ 0.884325 0.225413 0.122519 0.17695
C_ C_ 0.630283 0.297659 0.077183 -0.11473
C_ C_ 0.883598 0.226658 0.0776576 -0.11473
C_ C_ 0.631456 0.261843 0.0537441 0.23465
C_ C_ 0.876912 0.266165 0.0585796 0.23465
C_ C_ 0.630119 0.222201 0.0730334 -0.11473
C_ C_ 0.872992 0.301139 0.0842945 -0.11473
C_ C_ 0.532959 0.502518 0.238393 0.05793
C_ C_ 0.778897 0.501678 0.245141 0.05793
C_ C_ 0.715798 1.00227105 0.241594 0.05793
C_ C_ 0.968923 0.998162 0.261309 0.05793
Br Br 0.575543 0.502893 0.22711 -0.17191
Br Br 0.820469 0.501983 0.23254 -0.17191
Br Br 0.672602 0.00274647 0.228715 -0.17191
Br Br 0.925689 -0.004773999999999945 0.263454 -0.17191
N_ N_ 0.625167 0.248508 0.350032 -0.272
N_ N_ 0.866964 0.248648 0.359296 -0.272
N_ N_ 0.628671 0.228837 0.481325 -0.12501
N_ N_ 0.867147 0.232306 0.489812 -0.12501
N_ N_ 0.622904 0.257141 0.140021 -0.272
N_ N_ 0.875579 0.258499 0.145354 -0.272
N_ N_ 0.635452 0.263565 0.00995033 -0.12501
N_ N_ 0.874426 0.270876 0.0139813 -0.12501
O_ O_ 0.594341 0.297061 0.211402 -0.60745
O_ O_ 0.842265 0.295001 0.218865 -0.60745
O_ O_ 0.598863 0.296256 0.279206 -0.60745
O_ O_ 0.841559 0.297954 0.28813 -0.60745
O_ O_ 0.656809 0.293253 0.282352 -0.60745
O_ O_ 0.905003 0.299603 0.289456 -0.60745
O_ O_ 0.656436 0.293187 0.213306 -0.60745
O_ O_ 0.90534 0.296163 0.221158 -0.60745
O_ O_ 0.654608 0.206714 0.278034 -0.60745
O_ O_ 0.902735 0.205164 0.286434 -0.60745
O_ O_ 0.651142 0.205497 0.209466 -0.60745
O_ O_ 0.90629 0.209355 0.217123 -0.60745
O_ O_ 0.594081 0.202144 0.211966 -0.60745
O_ O_ 0.844409 0.206152 0.213696 -0.60745
O_ O_ 0.592171 0.208455 0.279986 -0.60745
O_ O_ 0.844228 0.208829 0.284381 -0.60745
Zn Zn 0.623713 0.247747 0.782338 0.9476
Zn Zn 0.877766 0.247257 0.785334 0.9476
Zn Zn 0.622429 0.251149 0.709575 0.9476
Zn Zn 0.877375 0.247617 0.716422 0.9476
H_ H_ 0.527378 0.408224 0.684918 0.10932
H_ H_ 0.779883 0.413695 0.688682 0.10932
H_ H_ 0.561381 0.348432 0.819412 0.10932
H_ H_ 0.824707 0.353722 0.819953 0.10932
H_ H_ 0.555949 0.346582 0.683037 0.10932
H_ H_ 0.819845 0.361451 0.685624 0.10932
H_ H_ 0.530994 0.411573 0.82035 0.10932
H_ H_ 0.789198 0.416574 0.822256 0.10932
H_ H_ 0.714387 0.41735 0.824704 0.10932
H_ H_ 0.984208 0.402323 0.814158 0.10932
H_ H_ 0.693995 0.346553 0.686725 0.10932
H_ H_ 0.921775 0.3621 0.692096 0.10932
H_ H_ 0.675517 0.358585 0.817809 0.10932
H_ H_ 0.962622 0.332794 0.807942 0.10932
H_ H_ 0.729643 0.406042 0.689212 0.10932
H_ H_ 0.951614 0.426877 0.687825 0.10932
H_ H_ 0.717522 0.0910129 0.810166 0.10932
H_ H_ 0.960459 0.0740732 0.820908 0.10932
H_ H_ 0.673627 0.141158 0.674556 0.10932
H_ H_ 0.937731 0.142554 0.684945 0.10932
H_ H_ 0.691782 0.15751 0.809889 0.10932
H_ H_ 0.932061 0.139687 0.819174 0.10932
H_ H_ 0.698134 0.0738808 0.67847 0.10932
H_ H_ 0.966232 0.0783403 0.683454 0.10932
H_ H_ 0.532441 0.0861375 0.668513 0.10932
H_ H_ 0.778644 0.0921147 0.684616 0.10932
H_ H_ 0.569432 0.135471 0.811378 0.10932
H_ H_ 0.818844 0.143786 0.817977 0.10932
H_ H_ 0.560664 0.149275 0.672392 0.10932
H_ H_ 0.814136 0.149995 0.684624 0.10932
H_ H_ 0.543581 0.0711648 0.80667 0.10932
H_ H_ 0.785356 0.0836339 0.818516 0.10932
H_ H_ 0.618307 0.308925 0.859533 0.10932
H_ H_ 0.930282 0.236923 0.857076 0.10932
H_ H_ 0.63232 0.178577 0.854936 0.10932
H_ H_ 0.836007 0.256601 0.867136 0.10932
H_ H_ 0.635599 0.172997 0.931227 0.10932
H_ H_ 0.84126 0.260188 0.941843 0.10932
H_ H_ 0.618213 0.304269 0.939486 0.10932
H_ H_ 0.937742 0.248922 0.933506 0.10932
H_ H_ 0.656151 0.204663 0.633728 0.10932
H_ H_ 0.868043 0.311223 0.653531 0.10932
H_ H_ 0.594341 0.30143 0.638761 0.10932
H_ H_ 0.873238 0.182946 0.636101 0.10932
H_ H_ 0.588784 0.300259 0.56051 0.10932
H_ H_ 0.866025 0.191434 0.556844 0.10932
H_ H_ 0.653733 0.205745 0.554132 0.10932
H_ H_ 0.870105 0.323183 0.57711 0.10932
C_ C_ 0.560957 0.342943 0.75022 -0.02249
C_ C_ 0.823471 0.352157 0.752649 -0.02249
C_ C_ 0.51337 0.459435 0.750319 -0.02249
C_ C_ 0.769196 0.461054 0.759592 -0.02249
C_ C_ 0.533617 0.395405 0.714408 -0.11473
C_ C_ 0.789345 0.400949 0.718235 -0.11473
C_ C_ 0.553122 0.361587 0.7897 -0.11473
C_ C_ 0.814218 0.36749 0.791433 -0.11473
C_ C_ 0.55116 0.360283 0.713644 -0.11473
C_ C_ 0.811677 0.37007 0.716234 -0.11473
C_ C_ 0.530097 0.418764 0.752197 -0.02249
C_ C_ 0.786575 0.422815 0.756482 -0.02249
C_ C_ 0.58444 0.30805 0.750476 0.6875
C_ C_ 0.840203 0.311825 0.75215 0.6875
C_ C_ 0.538121 0.399465 0.78983 -0.11473
C_ C_ 0.797284 0.404476 0.793007 -0.11473
C_ C_ 0.684698 0.34722 0.75119 -0.02249
C_ C_ 0.937903 0.345002 0.75419 -0.02249
C_ C_ 0.737594 0.459291 0.754103 -0.02249
C_ C_ 0.986039 0.462077 0.753487 -0.02249
C_ C_ 0.708623 0.402851 0.79347 -0.11473
C_ C_ 0.973369 0.392378 0.784378 -0.11473
C_ C_ 0.699507 0.362103 0.715892 -0.11473
C_ C_ 0.935454 0.371934 0.718626 -0.11473
C_ C_ 0.690094 0.368414 0.790896 -0.11473
C_ C_ 0.95557 0.357494 0.788267 -0.11473
C_ C_ 0.721817 0.418868 0.756115 -0.02249
C_ C_ 0.969494 0.421112 0.75282 -0.02249
C_ C_ 0.663813 0.310248 0.748023 0.6875
C_ C_ 0.918454 0.307208 0.753712 0.6875
C_ C_ 0.718894 0.396865 0.719168 -0.11473
C_ C_ 0.951077 0.409379 0.71783 -0.11473
C_ C_ 0.684012 0.157069 0.741051 -0.02249
C_ C_ 0.931898 0.144679 0.752947 -0.02249
C_ C_ 0.731615 0.0401621 0.747588 -0.02249
C_ C_ 0.985137 0.0356773 0.750757 -0.02249
C_ C_ 0.71005 0.102689 0.780102 -0.11473
C_ C_ 0.955803 0.0886936 0.790873 -0.11473
C_ C_ 0.68457 0.131503 0.704597 -0.11473
C_ C_ 0.941114 0.126388 0.71462 -0.11473
C_ C_ 0.693934 0.139763 0.779347 -0.11473
C_ C_ 0.939505 0.125645 0.791156 -0.11473
C_ C_ 0.714427 0.0803987 0.743486 -0.02249
C_ C_ 0.965463 0.0732032 0.752118 -0.02249
C_ C_ 0.665939 0.19467 0.743795 0.6875
C_ C_ 0.91351 0.18395 0.752216 0.6875
C_ C_ 0.70194 0.0949032 0.704335 -0.11473
C_ C_ 0.958177 0.0911413 0.71407 -0.11473
C_ C_ 0.567999 0.148699 0.742698 -0.02249
C_ C_ 0.814515 0.155275 0.751074 -0.02249
C_ C_ 0.520442 0.0339407 0.737926 -0.02249
C_ C_ 0.762719 0.0406419 0.749323 -0.02249
C_ C_ 0.540573 0.0969304 0.701511 -0.11473
C_ C_ 0.785067 0.10347 0.713005 -0.11473
C_ C_ 0.562954 0.126057 0.779759 -0.11473
C_ C_ 0.806864 0.134977 0.788873 -0.11473
C_ C_ 0.555591 0.135497 0.703921 -0.11473
C_ C_ 0.803478 0.138949 0.713047 -0.11473
C_ C_ 0.537551 0.0723866 0.739484 -0.02249
C_ C_ 0.77982 0.0816314 0.75122 -0.02249
C_ C_ 0.584487 0.188033 0.746192 0.6875
C_ C_ 0.83677 0.190049 0.75161 0.6875
C_ C_ 0.546985 0.08824 0.778331 -0.11473
C_ C_ 0.790629 0.0981295 0.788544 -0.11473
C_ C_ 0.623605 0.280077 0.875922 0.17695
C_ C_ 0.911052 0.249183 0.873781 0.17695
C_ C_ 0.63074 0.206247 0.872724 0.17695
C_ C_ 0.858902 0.259973 0.880467 0.17695
C_ C_ 0.631206 0.204009 0.917216 -0.11473
C_ C_ 0.861517 0.25701 0.924255 -0.11473
C_ C_ 0.626529 0.239874 0.94093 0.23465
C_ C_ 0.889905 0.255158 0.945194 0.23465
C_ C_ 0.62195 0.277681 0.920558 -0.11473
C_ C_ 0.915256 0.250914 0.919111 -0.11473
C_ C_ 0.641729 0.225611 0.617111 0.17695
C_ C_ 0.870427 0.285911 0.632673 0.17695
C_ C_ 0.609824 0.28273 0.619457 0.17695
C_ C_ 0.875239 0.214204 0.621572 0.17695
C_ C_ 0.606984 0.28323 0.574592 -0.11473
C_ C_ 0.871516 0.2187 0.575884 -0.11473
C_ C_ 0.619752 0.252241 0.551851 0.23465
C_ C_ 0.870749 0.257957 0.55986 0.23465
C_ C_ 0.640721 0.227035 0.572678 -0.11473
C_ C_ 0.870191 0.291559 0.588222 -0.11473
C_ C_ 0.529838 0.497543 0.748391 0.05793
C_ C_ 0.784305 0.498468 0.766412 0.05793
C_ C_ 0.715004 0.00244586 0.750049 0.05793
C_ C_ 0.971044 -0.003391000000000033 0.749598 0.05793
Br Br 0.572532 0.495257 0.752578 -0.17191
Br Br 0.828037 0.500426 0.775829 -0.17191
Br Br 0.67311 0.00273954 0.765907 -0.17191
Br Br 0.927217 -0.006152999999999964 0.750343 -0.17191
N_ N_ 0.626328 0.244407 0.85331 -0.272
N_ N_ 0.882857 0.255632 0.855522 -0.272
N_ N_ 0.623636 0.236765 0.98586 -0.12501
N_ N_ 0.892749 0.253586 0.990142 -0.12501
N_ N_ 0.626945 0.254437 0.639614 -0.272
N_ N_ 0.875309 0.247997 0.647961 -0.272
N_ N_ 0.620084 0.257068 0.505926 -0.12501
N_ N_ 0.872573 0.262145 0.514801 -0.12501
O_ O_ 0.58788 0.289419 0.71575 -0.60745
O_ O_ 0.842986 0.292799 0.717377 -0.60745
O_ O_ 0.595611 0.293631 0.78401 -0.60745
O_ O_ 0.847667 0.296072 0.785195 -0.60745
O_ O_ 0.657398 0.290174 0.781475 -0.60745
O_ O_ 0.910775 0.289083 0.786394 -0.60745
O_ O_ 0.651187 0.300188 0.712175 -0.60745
O_ O_ 0.908148 0.292879 0.720127 -0.60745
O_ O_ 0.65232 0.201409 0.778887 -0.60745
O_ O_ 0.90566 0.200028 0.788065 -0.60745
O_ O_ 0.656215 0.212088 0.710691 -0.60745
O_ O_ 0.908217 0.203179 0.717896 -0.60745
O_ O_ 0.595627 0.203739 0.71292 -0.60745
O_ O_ 0.847944 0.203487 0.718747 -0.60745
O_ O_ 0.590009 0.204331 0.782836 -0.60745
O_ O_ 0.84733 0.201231 0.787729 -0.60745
Zn Zn 0.621036 0.7511 0.278219 0.9476
Zn Zn 0.873249 0.748682 0.289859 0.9476
Zn Zn 0.622322 0.751012 0.210082 0.9476
Zn Zn 0.872893 0.751264 0.221896 0.9476
H_ H_ 0.530853 0.914816 0.171221 0.10932
H_ H_ 0.784572 0.917974 0.186621 0.10932
H_ H_ 0.555392 0.854082 0.309792 0.10932
H_ H_ 0.807604 0.85248 0.323657 0.10932
H_ H_ 0.558635 0.85112 0.172861 0.10932
H_ H_ 0.821905 0.860964 0.190871 0.10932
H_ H_ 0.523083 0.910984 0.304918 0.10932
H_ H_ 0.778836 0.916205 0.322384 0.10932
H_ H_ 0.700539 0.932152 0.315366 0.10932
H_ H_ 0.972115 0.912754 0.327029 0.10932
H_ H_ 0.688245 0.848829 0.189035 0.10932
H_ H_ 0.939708 0.847404 0.192307 0.10932
H_ H_ 0.66966 0.864767 0.316661 0.10932
H_ H_ 0.937203 0.853263 0.328448 0.10932
H_ H_ 0.714038 0.917931 0.185345 0.10932
H_ H_ 0.963142 0.915774 0.189679 0.10932
H_ H_ 0.719653 0.595021 0.316958 0.10932
H_ H_ 0.945754 0.563535 0.316386 0.10932
H_ H_ 0.679711 0.638465 0.176666 0.10932
H_ H_ 0.935666 0.652313 0.189906 0.10932
H_ H_ 0.685735 0.656612 0.310762 0.10932
H_ H_ 0.915498 0.627706 0.32043 0.10932
H_ H_ 0.705958 0.575355 0.185362 0.10932
H_ H_ 0.967947 0.594223 0.187928 0.10932
H_ H_ 0.534125 0.584214 0.173461 0.10932
H_ H_ 0.774707 0.590521 0.184095 0.10932
H_ H_ 0.559836 0.649573 0.311178 0.10932
H_ H_ 0.824987 0.637654 0.311212 0.10932
H_ H_ 0.556244 0.64997 0.171368 0.10932
H_ H_ 0.799389 0.65648 0.183846 0.10932
H_ H_ 0.528288 0.584987 0.307344 0.10932
H_ H_ 0.790581 0.577127 0.316134 0.10932
H_ H_ 0.626553 0.685332 0.355436 0.10932
H_ H_ 0.847551 0.802968 0.370167 0.10932
H_ H_ 0.617934 0.813273 0.348368 0.10932
H_ H_ 0.904319 0.698857 0.364853 0.10932
H_ H_ 0.62362 0.820679 0.422056 0.10932
H_ H_ 0.899808 0.689519 0.438943 0.10932
H_ H_ 0.62766 0.686646 0.433316 0.10932
H_ H_ 0.852048 0.806123 0.444875 0.10932
H_ H_ 0.618194 0.693744 0.131597 0.10932
H_ H_ 0.87087 0.679545 0.153471 0.10932
H_ H_ 0.62689 0.822125 0.141655 0.10932
H_ H_ 0.882189 0.81064 0.140042 0.10932
H_ H_ 0.630337 0.828124 0.0637588 0.10932
H_ H_ 0.893101 0.801931 0.0649236 0.10932
H_ H_ 0.624511 0.696467 0.055641 0.10932
H_ H_ 0.865837 0.67122 0.0747017 0.10932
C_ C_ 0.561382 0.846907 0.243089 -0.02249
C_ C_ 0.817795 0.853815 0.256395 -0.02249
C_ C_ 0.5141 0.96295 0.240162 -0.02249
C_ C_ 0.762675 0.964327 0.251639 -0.02249
C_ C_ 0.538113 0.903734 0.203234 -0.11473
C_ C_ 0.792963 0.908473 0.217295 -0.11473
C_ C_ 0.550834 0.866732 0.280184 -0.11473
C_ C_ 0.805445 0.869539 0.293399 -0.11473
C_ C_ 0.554605 0.867199 0.203938 -0.11473
C_ C_ 0.814737 0.875766 0.220193 -0.11473
C_ C_ 0.530279 0.922999 0.239934 -0.02249
C_ C_ 0.779344 0.923757 0.254533 -0.02249
C_ C_ 0.577649 0.805597 0.244991 0.6875
C_ C_ 0.838248 0.817733 0.257872 0.6875
C_ C_ 0.53216 0.900048 0.276906 -0.11473
C_ C_ 0.788562 0.906505 0.293756 -0.11473
C_ C_ 0.676953 0.854466 0.249936 -0.02249
C_ C_ 0.934693 0.845575 0.259768 -0.02249
C_ C_ 0.730618 0.964131 0.253302 -0.02249
C_ C_ 0.98673 0.960432 0.258251 -0.02249
C_ C_ 0.700505 0.911247 0.288436 -0.11473
C_ C_ 0.964571 0.899291 0.297657 -0.11473
C_ C_ 0.687941 0.870973 0.21273 -0.11473
C_ C_ 0.944284 0.864137 0.221366 -0.11473
C_ C_ 0.680457 0.87607 0.286916 -0.11473
C_ C_ 0.946356 0.862805 0.297955 -0.11473
C_ C_ 0.712574 0.926114 0.252323 -0.02249
C_ C_ 0.970463 0.919112 0.258484 -0.02249
C_ C_ 0.660524 0.811386 0.249096 0.6875
C_ C_ 0.912852 0.809296 0.25834 0.6875
C_ C_ 0.707248 0.904394 0.21435 -0.11473
C_ C_ 0.959975 0.900721 0.221384 -0.11473
C_ C_ 0.681896 0.653934 0.243185 -0.02249
C_ C_ 0.920929 0.645103 0.255257 -0.02249
C_ C_ 0.731516 0.538439 0.254204 -0.02249
C_ C_ 0.980036 0.539996 0.253791 -0.02249
C_ C_ 0.709147 0.602563 0.287601 -0.11473
C_ C_ 0.943087 0.585015 0.289008 -0.11473
C_ C_ 0.687809 0.631192 0.20772 -0.11473
C_ C_ 0.93861 0.635989 0.219879 -0.11473
C_ C_ 0.689752 0.636764 0.283758 -0.11473
C_ C_ 0.92517 0.619554 0.289923 -0.11473
C_ C_ 0.713116 0.578446 0.251474 -0.02249
C_ C_ 0.961156 0.57698 0.252426 -0.02249
C_ C_ 0.664745 0.69431 0.241144 0.6875
C_ C_ 0.90597 0.685192 0.256105 0.6875
C_ C_ 0.703583 0.593303 0.212006 -0.11473
C_ C_ 0.95636 0.600619 0.216884 -0.11473
C_ C_ 0.565175 0.652581 0.24203 -0.02249
C_ C_ 0.810728 0.656058 0.249882 -0.02249
C_ C_ 0.51688 0.539452 0.243382 -0.02249
C_ C_ 0.762946 0.53736 0.251274 -0.02249
C_ C_ 0.539458 0.597693 0.203961 -0.11473
C_ C_ 0.781909 0.602481 0.214156 -0.11473
C_ C_ 0.557194 0.63406 0.280721 -0.11473
C_ C_ 0.809365 0.630553 0.285776 -0.11473
C_ C_ 0.553565 0.636457 0.203396 -0.11473
C_ C_ 0.796622 0.641095 0.213899 -0.11473
C_ C_ 0.533611 0.5785 0.241445 -0.02249
C_ C_ 0.77975 0.578751 0.249796 -0.02249
C_ C_ 0.584441 0.689833 0.242597 0.6875
C_ C_ 0.832768 0.693223 0.252114 0.6875
C_ C_ 0.540012 0.597229 0.28083 -0.11473
C_ C_ 0.791257 0.59469 0.287868 -0.11473
C_ C_ 0.62449 0.715276 0.371324 0.17695
C_ C_ 0.861694 0.782019 0.385216 0.17695
C_ C_ 0.616652 0.787539 0.367226 0.17695
C_ C_ 0.889339 0.719724 0.381627 0.17695
C_ C_ 0.619824 0.790008 0.409601 -0.11473
C_ C_ 0.886879 0.714299 0.425183 -0.11473
C_ C_ 0.623983 0.754423 0.435708 0.23465
C_ C_ 0.876643 0.747141 0.449503 0.23465
C_ C_ 0.627455 0.715984 0.415746 -0.11473
C_ C_ 0.865534 0.783345 0.427808 -0.11473
C_ C_ 0.619491 0.722304 0.115784 0.17695
C_ C_ 0.870201 0.708009 0.133182 0.17695
C_ C_ 0.625404 0.795237 0.121658 0.17695
C_ C_ 0.879829 0.779952 0.125725 0.17695
C_ C_ 0.62598 0.798937 0.0780859 -0.11473
C_ C_ 0.881654 0.776705 0.0816931 -0.11473
C_ C_ 0.626768 0.763762 0.0519062 0.23465
C_ C_ 0.876121 0.737938 0.0628158 0.23465
C_ C_ 0.625036 0.724134 0.07229 -0.11473
C_ C_ 0.869436 0.703143 0.0894021 -0.11473
C_ C_ 0.530193 1.00122554 0.244641 0.05793
C_ C_ 0.778142 1.00347498 0.255487 0.05793
C_ C_ 0.715516 0.499285 0.258625 0.05793
C_ C_ 0.965819 0.500065 0.256978 0.05793
Br Br 0.573882 0.997359 0.239525 -0.17191
Br Br 0.823247 1.0052302 0.254251 -0.17191
Br Br 0.678004 0.500796 0.285666 -0.17191
Br Br 0.923978 0.499474 0.241169 -0.17191
N_ N_ 0.620593 0.750479 0.348077 -0.272
N_ N_ 0.875021 0.751565 0.361053 -0.272
N_ N_ 0.625856 0.760689 0.480209 -0.12501
N_ N_ 0.871112 0.739933 0.491831 -0.12501
N_ N_ 0.622209 0.757326 0.139261 -0.272
N_ N_ 0.875178 0.747278 0.149543 -0.272
N_ N_ 0.632232 0.76788 0.00768194 -0.12501
N_ N_ 0.878816 0.732109 0.0179386 -0.12501
O_ O_ 0.589101 0.791696 0.212072 -0.60745
O_ O_ 0.843673 0.798122 0.224045 -0.60745
O_ O_ 0.587371 0.792776 0.280502 -0.60745
O_ O_ 0.84678 0.801705 0.292339 -0.60745
O_ O_ 0.650651 0.796067 0.283871 -0.60745
O_ O_ 0.905625 0.790109 0.291168 -0.60745
O_ O_ 0.652741 0.794382 0.214859 -0.60745
O_ O_ 0.906317 0.792591 0.222563 -0.60745
O_ O_ 0.656501 0.710814 0.274952 -0.60745
O_ O_ 0.894881 0.697278 0.289754 -0.60745
O_ O_ 0.65731 0.710839 0.206823 -0.60745
O_ O_ 0.903038 0.7067 0.223156 -0.60745
O_ O_ 0.591814 0.706122 0.20738 -0.60745
O_ O_ 0.841503 0.708593 0.218241 -0.60745
O_ O_ 0.595519 0.704004 0.277147 -0.60745
O_ O_ 0.836363 0.715434 0.285022 -0.60745
Zn Zn 0.626249 0.749968 0.778845 0.9476
Zn Zn 0.872963 0.751988 0.789384 0.9476
Zn Zn 0.624604 0.749968 0.711513 0.9476
Zn Zn 0.874153 0.74993 0.719764 0.9476
H_ H_ 0.528207 0.908827 0.673058 0.10932
H_ H_ 0.77089 0.903347 0.680177 0.10932
H_ H_ 0.56738 0.846133 0.805221 0.10932
H_ H_ 0.813223 0.857492 0.81917 0.10932
H_ H_ 0.562434 0.850527 0.669455 0.10932
H_ H_ 0.801507 0.840496 0.687473 0.10932
H_ H_ 0.535371 0.912911 0.806236 0.10932
H_ H_ 0.793809 0.928614 0.812601 0.10932
H_ H_ 0.72381 0.909096 0.809114 0.10932
H_ H_ 0.981857 0.908695 0.81578 0.10932
H_ H_ 0.666371 0.86814 0.683532 0.10932
H_ H_ 0.923359 0.865603 0.686692 0.10932
H_ H_ 0.698944 0.842278 0.809494 0.10932
H_ H_ 0.947569 0.847189 0.821021 0.10932
H_ H_ 0.69943 0.933121 0.680739 0.10932
H_ H_ 0.954839 0.92576 0.688368 0.10932
H_ H_ 0.722792 0.590543 0.824463 0.10932
H_ H_ 0.963731 0.584824 0.82078 0.10932
H_ H_ 0.686006 0.638017 0.685295 0.10932
H_ H_ 0.925432 0.638029 0.685331 0.10932
H_ H_ 0.691943 0.652816 0.819506 0.10932
H_ H_ 0.94248 0.650881 0.817788 0.10932
H_ H_ 0.712195 0.575089 0.690173 0.10932
H_ H_ 0.96065 0.577318 0.687344 0.10932
H_ H_ 0.532621 0.578362 0.679992 0.10932
H_ H_ 0.79345 0.570889 0.694085 0.10932
H_ H_ 0.556929 0.652233 0.807117 0.10932
H_ H_ 0.789801 0.668453 0.810047 0.10932
H_ H_ 0.569283 0.633955 0.676786 0.10932
H_ H_ 0.828431 0.630829 0.692505 0.10932
H_ H_ 0.530207 0.586769 0.812694 0.10932
H_ H_ 0.780594 0.593194 0.824366 0.10932
H_ H_ 0.617609 0.685648 0.849646 0.10932
H_ H_ 0.881423 0.687995 0.865979 0.10932
H_ H_ 0.62501 0.817157 0.856223 0.10932
H_ H_ 0.865424 0.819481 0.862605 0.10932
H_ H_ 0.626821 0.812098 0.935296 0.10932
H_ H_ 0.873382 0.825341 0.934654 0.10932
H_ H_ 0.610644 0.683592 0.928974 0.10932
H_ H_ 0.887044 0.692312 0.945901 0.10932
H_ H_ 0.634698 0.683532 0.645439 0.10932
H_ H_ 0.874212 0.819544 0.655149 0.10932
H_ H_ 0.624156 0.811548 0.628637 0.10932
H_ H_ 0.865398 0.689173 0.640632 0.10932
H_ H_ 0.632962 0.804019 0.550592 0.10932
H_ H_ 0.87343 0.693772 0.564004 0.10932
H_ H_ 0.632123 0.673991 0.568033 0.10932
H_ H_ 0.886168 0.825082 0.577726 0.10932
C_ C_ 0.564269 0.842016 0.736725 -0.02249
C_ C_ 0.813992 0.847877 0.752649 -0.02249
C_ C_ 0.518122 0.958625 0.737154 -0.02249
C_ C_ 0.763138 0.963383 0.744561 -0.02249
C_ C_ 0.53789 0.897616 0.701522 -0.11473
C_ C_ 0.783063 0.898306 0.712344 -0.11473
C_ C_ 0.557839 0.862011 0.775768 -0.11473
C_ C_ 0.808116 0.870042 0.787581 -0.11473
C_ C_ 0.555096 0.861005 0.699955 -0.11473
C_ C_ 0.799308 0.860631 0.714565 -0.11473
C_ C_ 0.53382 0.917876 0.738805 -0.02249
C_ C_ 0.779751 0.922759 0.748271 -0.02249
C_ C_ 0.583649 0.804962 0.737161 0.6875
C_ C_ 0.835108 0.810728 0.753545 0.6875
C_ C_ 0.541101 0.898848 0.777581 -0.11473
C_ C_ 0.794458 0.908441 0.785043 -0.11473
C_ C_ 0.681954 0.850609 0.74374 -0.02249
C_ C_ 0.931603 0.85108 0.755512 -0.02249
C_ C_ 0.731034 0.963946 0.74929 -0.02249
C_ C_ 0.986801 0.958972 0.746001 -0.02249
C_ C_ 0.712303 0.898893 0.78276 -0.11473
C_ C_ 0.968961 0.898105 0.788078 -0.11473
C_ C_ 0.68051 0.877504 0.709585 -0.11473
C_ C_ 0.933937 0.874625 0.717958 -0.11473
C_ C_ 0.697253 0.862227 0.780978 -0.11473
C_ C_ 0.948233 0.864437 0.792009 -0.11473
C_ C_ 0.713842 0.924152 0.746389 -0.02249
C_ C_ 0.970179 0.920659 0.750122 -0.02249
C_ C_ 0.662628 0.811428 0.744937 0.6875
C_ C_ 0.910489 0.81464 0.756803 0.6875
C_ C_ 0.699796 0.911965 0.708109 -0.11473
C_ C_ 0.952552 0.907455 0.71579 -0.11473
C_ C_ 0.684681 0.650852 0.752007 -0.02249
C_ C_ 0.935095 0.653804 0.749807 -0.02249
C_ C_ 0.736859 0.53631 0.758332 -0.02249
C_ C_ 0.985563 0.538631 0.753142 -0.02249
C_ C_ 0.71154 0.597918 0.793579 -0.11473
C_ C_ 0.961676 0.599866 0.790097 -0.11473
C_ C_ 0.695887 0.630568 0.716482 -0.11473
C_ C_ 0.938686 0.630623 0.713848 -0.11473
C_ C_ 0.695109 0.635822 0.790964 -0.11473
C_ C_ 0.947293 0.639351 0.787906 -0.11473
C_ C_ 0.718358 0.576355 0.756486 -0.02249
C_ C_ 0.967175 0.577771 0.753965 -0.02249
C_ C_ 0.666343 0.690128 0.751417 0.6875
C_ C_ 0.910804 0.68696 0.750401 0.6875
C_ C_ 0.710182 0.593685 0.717754 -0.11473
C_ C_ 0.958978 0.595398 0.715065 -0.11473
C_ C_ 0.568294 0.64728 0.742965 -0.02249
C_ C_ 0.813648 0.655198 0.753074 -0.02249
C_ C_ 0.514938 0.536845 0.750272 -0.02249
C_ C_ 0.768459 0.53685 0.765153 -0.02249
C_ C_ 0.541124 0.590712 0.70854 -0.11473
C_ C_ 0.798115 0.59008 0.721438 -0.11473
C_ C_ 0.555905 0.63303 0.781047 -0.11473
C_ C_ 0.79714 0.644007 0.788883 -0.11473
C_ C_ 0.561446 0.623685 0.706874 -0.11473
C_ C_ 0.813592 0.627415 0.71865 -0.11473
C_ C_ 0.530915 0.575604 0.747035 -0.02249
C_ C_ 0.784513 0.576909 0.759882 -0.02249
C_ C_ 0.58501 0.688738 0.741005 0.6875
C_ C_ 0.835431 0.690095 0.753595 0.6875
C_ C_ 0.538836 0.596513 0.783761 -0.11473
C_ C_ 0.789792 0.602092 0.795442 -0.11473
C_ C_ 0.617195 0.714497 0.868436 0.17695
C_ C_ 0.878984 0.717503 0.883322 0.17695
C_ C_ 0.623491 0.788178 0.872769 0.17695
C_ C_ 0.87629 0.792085 0.878369 0.17695
C_ C_ 0.626702 0.785321 0.916635 -0.11473
C_ C_ 0.876301 0.795019 0.922434 -0.11473
C_ C_ 0.621843 0.74829 0.936235 0.23465
C_ C_ 0.878205 0.75802 0.947998 0.23465
C_ C_ 0.6174 0.711509 0.912197 -0.11473
C_ C_ 0.87866 0.718915 0.927659 -0.11473
C_ C_ 0.633177 0.709341 0.624077 0.17695
C_ C_ 0.877021 0.790642 0.634307 0.17695
C_ C_ 0.62811 0.781583 0.613709 0.17695
C_ C_ 0.869449 0.719807 0.626387 0.17695
C_ C_ 0.631404 0.777536 0.569809 -0.11473
C_ C_ 0.873992 0.722089 0.582897 -0.11473
C_ C_ 0.63068 0.738309 0.551347 0.23465
C_ C_ 0.875614 0.760843 0.563489 0.23465
C_ C_ 0.630633 0.704116 0.580471 -0.11473
C_ C_ 0.880261 0.795367 0.590054 -0.11473
C_ C_ 0.535323 -0.004233000000000042 0.738191 0.05793
C_ C_ 0.778698 0.00212186 0.745959 0.05793
C_ C_ 0.721022 0.497937 0.754592 0.05793
C_ C_ 0.970834 0.499894 0.76 0.05793
Br Br 0.576331 -0.006681999999999966 0.753679 -0.17191
Br Br 0.822496 1.00548088 0.74323 -0.17191
Br Br 0.678045 0.501904 0.743316 -0.17191
Br Br 0.927632 0.50296 0.768056 -0.17191
N_ N_ 0.621428 0.752541 0.850569 -0.272
N_ N_ 0.875536 0.752891 0.860446 -0.272
N_ N_ 0.616747 0.747696 0.981724 -0.12501
N_ N_ 0.876695 0.761163 0.9931 -0.12501
N_ N_ 0.62869 0.747417 0.639636 -0.272
N_ N_ 0.871537 0.754383 0.651839 -0.272
N_ N_ 0.627846 0.732173 0.506547 -0.12501
N_ N_ 0.879744 0.765722 0.518432 -0.12501
O_ O_ 0.595195 0.793527 0.703424 -0.60745
O_ O_ 0.842834 0.794124 0.719568 -0.60745
O_ O_ 0.590518 0.787077 0.771056 -0.60745
O_ O_ 0.843816 0.794843 0.787423 -0.60745
O_ O_ 0.653373 0.797177 0.778365 -0.60745
O_ O_ 0.90262 0.799826 0.79103 -0.60745
O_ O_ 0.65859 0.791742 0.712425 -0.60745
O_ O_ 0.904593 0.794292 0.722851 -0.60745
O_ O_ 0.662128 0.708977 0.78499 -0.60745
O_ O_ 0.903657 0.705662 0.784228 -0.60745
O_ O_ 0.655706 0.704065 0.71741 -0.60745
O_ O_ 0.902514 0.703521 0.71542 -0.60745
O_ O_ 0.592338 0.705497 0.707245 -0.60745
O_ O_ 0.845676 0.702653 0.718733 -0.60745
O_ O_ 0.597191 0.701396 0.775354 -0.60745
O_ O_ 0.844741 0.706442 0.787188 -0.60745
