_cell_length_a 44.444
_cell_length_b 32.3360000049186
_cell_length_c 31.843999878906452
_cell_angle_alpha 89.99799923859553
_cell_angle_beta 91.13600050494348
_cell_angle_gamma 89.9990006550086
_symmetry_space_group_name_H-M         'P 1'
_symmetry_Int_Tables_number            1
loop_
_symmetry_equiv_pos_as_xyz
   'x, y, z'
                         
loop_
_atom_site_label
_atom_site_type_symbol
_atom_site_fract_x 
_atom_site_fract_y
_atom_site_fract_z
_atom_site_charge
Zn Zn 0.125981 0.247872 0.285122 0.9476
Zn Zn 0.372044 0.248002 0.276072 0.9476
Zn Zn 0.12661 0.249642 0.214629 0.9476
Zn Zn 0.372538 0.246849 0.205615 0.9476
H_ H_ 0.0320757 0.409213 0.177929 0.10932
H_ H_ 0.279188 0.416468 0.175677 0.10932
H_ H_ 0.0778402 0.363965 0.313182 0.10932
H_ H_ 0.320491 0.354936 0.306442 0.10932
H_ H_ 0.0548943 0.339183 0.182662 0.10932
H_ H_ 0.309904 0.356619 0.172637 0.10932
H_ H_ 0.0552451 0.429527 0.310447 0.10932
H_ H_ 0.292331 0.418373 0.313017 0.10932
H_ H_ 0.222656 0.416302 0.311589 0.10932
H_ H_ 0.457655 0.421113 0.308684 0.10932
H_ H_ 0.169808 0.360484 0.185131 0.10932
H_ H_ 0.444911 0.338529 0.177681 0.10932
H_ H_ 0.198382 0.347622 0.317445 0.10932
H_ H_ 0.424292 0.356655 0.305914 0.10932
H_ H_ 0.198836 0.425267 0.180499 0.10932
H_ H_ 0.471898 0.405235 0.174839 0.10932
H_ H_ 0.19442 0.0666452 0.314715 0.10932
H_ H_ 0.456654 0.0798049 0.320401 0.10932
H_ H_ 0.19135 0.149954 0.183206 0.10932
H_ H_ 0.444264 0.153424 0.186113 0.10932
H_ H_ 0.174447 0.135903 0.315096 0.10932
H_ H_ 0.427389 0.142615 0.316752 0.10932
H_ H_ 0.224808 0.0887684 0.18806 0.10932
H_ H_ 0.472963 0.0887739 0.187807 0.10932
H_ H_ 0.0454029 0.0725796 0.177271 0.10932
H_ H_ 0.287918 0.0677395 0.190209 0.10932
H_ H_ 0.050608 0.150601 0.309134 0.10932
H_ H_ 0.294465 0.16874 0.308172 0.10932
H_ H_ 0.0745254 0.13631 0.177181 0.10932
H_ H_ 0.321412 0.127586 0.183284 0.10932
H_ H_ 0.0154657 0.091701 0.302515 0.10932
H_ H_ 0.271926 0.0965155 0.3174 0.10932
H_ H_ 0.124355 0.315102 0.357789 0.10932
H_ H_ 0.376873 0.311819 0.347668 0.10932
H_ H_ 0.138568 0.185914 0.361753 0.10932
H_ H_ 0.36732 0.184266 0.356217 0.10932
H_ H_ 0.143937 0.189371 0.440999 0.10932
H_ H_ 0.372736 0.182884 0.43313 0.10932
H_ H_ 0.125427 0.319315 0.435255 0.10932
H_ H_ 0.375491 0.315886 0.425149 0.10932
H_ H_ 0.118572 0.320129 0.141743 0.10932
H_ H_ 0.371652 0.178986 0.131449 0.10932
H_ H_ 0.12421 0.190405 0.132982 0.10932
H_ H_ 0.362659 0.308217 0.128082 0.10932
H_ H_ 0.123794 0.195851 0.0575238 0.10932
H_ H_ 0.369736 0.30725 0.0514295 0.10932
H_ H_ 0.114156 0.324365 0.0659679 0.10932
H_ H_ 0.384892 0.177591 0.058426 0.10932
C_ C_ 0.0690808 0.346919 0.247779 -0.02249
C_ C_ 0.317694 0.348971 0.240075 -0.02249
C_ C_ 0.02049 0.461835 0.243805 -0.02249
C_ C_ 0.262862 0.463865 0.250299 -0.02249
C_ C_ 0.0395104 0.397195 0.208148 -0.11473
C_ C_ 0.287326 0.404243 0.206617 -0.11473
C_ C_ 0.0670394 0.371866 0.283111 -0.11473
C_ C_ 0.309607 0.36639 0.279146 -0.11473
C_ C_ 0.0542502 0.359092 0.210202 -0.11473
C_ C_ 0.304293 0.368231 0.203686 -0.11473
C_ C_ 0.0415061 0.425551 0.243866 -0.02249
C_ C_ 0.280769 0.422489 0.245132 -0.02249
C_ C_ 0.0865861 0.308608 0.250315 0.6875
C_ C_ 0.335967 0.310052 0.238382 0.6875
C_ C_ 0.054466 0.411214 0.28237 -0.11473
C_ C_ 0.292834 0.403304 0.282864 -0.11473
C_ C_ 0.183914 0.346683 0.251304 -0.02249
C_ C_ 0.435049 0.341068 0.242391 -0.02249
C_ C_ 0.231447 0.46313 0.244212 -0.02249
C_ C_ 0.484205 0.454829 0.239904 -0.02249
C_ C_ 0.213711 0.40164 0.284207 -0.11473
C_ C_ 0.454294 0.40147 0.278772 -0.11473
C_ C_ 0.184066 0.370104 0.212526 -0.11473
C_ C_ 0.448591 0.354456 0.207247 -0.11473
C_ C_ 0.198292 0.363806 0.287261 -0.11473
C_ C_ 0.436008 0.366401 0.277773 -0.11473
C_ C_ 0.215373 0.422231 0.245768 -0.02249
C_ C_ 0.467935 0.414611 0.242234 -0.02249
C_ C_ 0.16743 0.305813 0.252205 0.6875
C_ C_ 0.414646 0.30328 0.240637 0.6875
C_ C_ 0.202528 0.404975 0.208299 -0.11473
C_ C_ 0.463887 0.392227 0.20579 -0.11473
C_ C_ 0.180154 0.147508 0.249561 -0.02249
C_ C_ 0.430529 0.152421 0.249825 -0.02249
C_ C_ 0.230918 0.032904 0.251809 -0.02249
C_ C_ 0.484551 0.0395893 0.254509 -0.02249
C_ C_ 0.196109 0.0832513 0.286324 -0.11473
C_ C_ 0.456525 0.0979242 0.291913 -0.11473
C_ C_ 0.193108 0.132002 0.212664 -0.11473
C_ C_ 0.445872 0.137366 0.214641 -0.11473
C_ C_ 0.179926 0.122303 0.285027 -0.11473
C_ C_ 0.437292 0.131811 0.289353 -0.11473
C_ C_ 0.210476 0.0692178 0.248918 -0.02249
C_ C_ 0.465781 0.0785415 0.253828 -0.02249
C_ C_ 0.16482 0.189574 0.249469 0.6875
C_ C_ 0.408874 0.185845 0.246484 0.6875
C_ C_ 0.211084 0.0958311 0.214683 -0.11473
C_ C_ 0.462197 0.1009 0.21571 -0.11473
C_ C_ 0.0655454 0.152135 0.244052 -0.02249
C_ C_ 0.309113 0.155657 0.244243 -0.02249
C_ C_ 0.0125749 0.0378788 0.240563 -0.02249
C_ C_ 0.263632 0.0371962 0.260287 -0.02249
C_ C_ 0.0449666 0.0917438 0.204938 -0.11473
C_ C_ 0.289464 0.0888727 0.215903 -0.11473
C_ C_ 0.0481765 0.13671 0.278662 -0.11473
C_ C_ 0.29355 0.145727 0.281566 -0.11473
C_ C_ 0.0617855 0.127661 0.205571 -0.11473
C_ C_ 0.307318 0.12511 0.211437 -0.11473
C_ C_ 0.0288193 0.0783939 0.239923 -0.02249
C_ C_ 0.278295 0.0778495 0.254787 -0.02249
C_ C_ 0.0858575 0.188557 0.246997 0.6875
C_ C_ 0.333875 0.18797 0.244181 0.6875
C_ C_ 0.0310882 0.0993783 0.278002 -0.11473
C_ C_ 0.279962 0.10511 0.287671 -0.11473
C_ C_ 0.124045 0.287354 0.376759 0.17695
C_ C_ 0.37815 0.284125 0.3676 0.17695
C_ C_ 0.131984 0.213791 0.378969 0.17695
C_ C_ 0.37429 0.210381 0.37164 0.17695
C_ C_ 0.135349 0.214147 0.422448 -0.11473
C_ C_ 0.372638 0.2119 0.415061 -0.11473
C_ C_ 0.131512 0.253635 0.444898 0.23465
C_ C_ 0.374129 0.251605 0.43485 0.23465
C_ C_ 0.128261 0.289643 0.420833 -0.11473
C_ C_ 0.379548 0.286803 0.409774 -0.11473
C_ C_ 0.119858 0.29228 0.123586 0.17695
C_ C_ 0.375406 0.20787 0.115828 0.17695
C_ C_ 0.130461 0.220745 0.120283 0.17695
C_ C_ 0.369621 0.279748 0.112719 0.17695
C_ C_ 0.12947 0.222774 0.0758339 -0.11473
C_ C_ 0.371304 0.278347 0.0681635 -0.11473
C_ C_ 0.126022 0.260189 0.0550271 0.23465
C_ C_ 0.377224 0.241348 0.0481083 0.23465
C_ C_ 0.121042 0.295761 0.0796657 -0.11473
C_ C_ 0.381826 0.206414 0.0731715 -0.11473
C_ C_ 0.0333965 0.500736 0.237981 0.05793
C_ C_ 0.276992 0.502597 0.257905 0.05793
C_ C_ 0.218264 -0.007373999999999992 0.248461 0.05793
C_ C_ 0.468526 1.000467815 0.252881 0.05793
Br Br 0.0736053 0.504758 0.215993 -0.17191
Br Br 0.318598 0.503301 0.275913 -0.17191
Br Br 0.176204 -0.01587099999999997 0.234104 -0.17191
Br Br 0.424855 1.00141776 0.244524 -0.17191
N_ N_ 0.124819 0.249995 0.356519 -0.272
N_ N_ 0.374279 0.245947 0.348829 -0.272
N_ N_ 0.135372 0.258898 0.489707 -0.12501
N_ N_ 0.380058 0.254703 0.479117 -0.12501
N_ N_ 0.125959 0.256234 0.142289 -0.272
N_ N_ 0.370043 0.243899 0.136105 -0.272
N_ N_ 0.126999 0.266672 0.0106683 -0.12501
N_ N_ 0.373266 0.235941 0.0026158 -0.12501
O_ O_ 0.0979244 0.296124 0.216957 -0.60745
O_ O_ 0.344295 0.296379 0.202895 -0.60745
O_ O_ 0.0960136 0.294332 0.285355 -0.60745
O_ O_ 0.341148 0.289969 0.272559 -0.60745
O_ O_ 0.15681 0.293706 0.286034 -0.60745
O_ O_ 0.400844 0.293536 0.274284 -0.60745
O_ O_ 0.159662 0.288933 0.216609 -0.60745
O_ O_ 0.408564 0.287055 0.205101 -0.60745
O_ O_ 0.157608 0.205534 0.284002 -0.60745
O_ O_ 0.403259 0.205602 0.279365 -0.60745
O_ O_ 0.158176 0.205893 0.214527 -0.60745
O_ O_ 0.399671 0.198134 0.209742 -0.60745
O_ O_ 0.0928014 0.208393 0.214381 -0.60745
O_ O_ 0.340467 0.206128 0.210327 -0.60745
O_ O_ 0.0936138 0.201964 0.28275 -0.60745
O_ O_ 0.34336 0.201745 0.279567 -0.60745
Zn Zn 0.127047 0.253751 0.787325 0.9476
Zn Zn 0.374548 0.248003 0.777719 0.9476
Zn Zn 0.127312 0.252075 0.716624 0.9476
Zn Zn 0.371958 0.252365 0.705782 0.9476
H_ H_ 0.0431106 0.424767 0.685491 0.10932
H_ H_ 0.277303 0.411798 0.676201 0.10932
H_ H_ 0.072279 0.35671 0.821403 0.10932
H_ H_ 0.326275 0.365225 0.806399 0.10932
H_ H_ 0.0751305 0.367272 0.686568 0.10932
H_ H_ 0.307831 0.349796 0.672497 0.10932
H_ H_ 0.0358986 0.419265 0.819949 0.10932
H_ H_ 0.295391 0.426546 0.807718 0.10932
H_ H_ 0.231981 0.409709 0.812961 0.10932
H_ H_ 0.464386 0.416883 0.813153 0.10932
H_ H_ 0.177105 0.361618 0.686523 0.10932
H_ H_ 0.439149 0.355099 0.678944 0.10932
H_ H_ 0.205542 0.34582 0.817005 0.10932
H_ H_ 0.433824 0.353107 0.812804 0.10932
H_ H_ 0.204961 0.430061 0.685817 0.10932
H_ H_ 0.465975 0.418038 0.676322 0.10932
H_ H_ 0.231136 0.0972484 0.811021 0.10932
H_ H_ 0.474473 0.0938011 0.809442 0.10932
H_ H_ 0.171005 0.138023 0.688146 0.10932
H_ H_ 0.422277 0.129841 0.673527 0.10932
H_ H_ 0.195735 0.153499 0.817183 0.10932
H_ H_ 0.448282 0.164731 0.804124 0.10932
H_ H_ 0.209219 0.0824273 0.681491 0.10932
H_ H_ 0.452835 0.0691285 0.67916 0.10932
H_ H_ 0.0336953 0.0864785 0.688816 0.10932
H_ H_ 0.275041 0.0896796 0.673237 0.10932
H_ H_ 0.0707296 0.146445 0.827384 0.10932
H_ H_ 0.33436 0.127188 0.799315 0.10932
H_ H_ 0.0622493 0.153585 0.687916 0.10932
H_ H_ 0.3017 0.158772 0.673812 0.10932
H_ H_ 0.0469692 0.0795689 0.820144 0.10932
H_ H_ 0.304202 0.0672556 0.7984 0.10932
H_ H_ 0.130594 0.315582 0.863679 0.10932
H_ H_ 0.334163 0.244811 0.858305 0.10932
H_ H_ 0.129354 0.18678 0.852979 0.10932
H_ H_ 0.427505 0.232034 0.843027 0.10932
H_ H_ 0.129137 0.176622 0.92925 0.10932
H_ H_ 0.436547 0.232279 0.917705 0.10932
H_ H_ 0.129812 0.309009 0.94191 0.10932
H_ H_ 0.340605 0.245533 0.935149 0.10932
H_ H_ 0.107812 0.184755 0.642593 0.10932
H_ H_ 0.415938 0.2641 0.629654 0.10932
H_ H_ 0.141095 0.309471 0.636481 0.10932
H_ H_ 0.322463 0.23734 0.633343 0.10932
H_ H_ 0.137062 0.305199 0.560475 0.10932
H_ H_ 0.319813 0.231557 0.558131 0.10932
H_ H_ 0.119418 0.172536 0.570839 0.10932
H_ H_ 0.4149 0.261068 0.55318 0.10932
C_ C_ 0.0735963 0.356161 0.752469 -0.02249
C_ C_ 0.317346 0.350301 0.73786 -0.02249
C_ C_ 0.018166 0.464449 0.753348 -0.02249
C_ C_ 0.267439 0.464635 0.740997 -0.02249
C_ C_ 0.0468152 0.410937 0.716369 -0.11473
C_ C_ 0.287385 0.402035 0.705445 -0.11473
C_ C_ 0.0631123 0.371489 0.791945 -0.11473
C_ C_ 0.316357 0.373075 0.776374 -0.11473
C_ C_ 0.0650639 0.376025 0.714836 -0.11473
C_ C_ 0.303782 0.365782 0.703329 -0.11473
C_ C_ 0.0366156 0.426408 0.753695 -0.02249
C_ C_ 0.285321 0.42542 0.741957 -0.02249
C_ C_ 0.0913081 0.316111 0.752308 0.6875
C_ C_ 0.33496 0.312014 0.738917 0.6875
C_ C_ 0.0460152 0.408143 0.791861 -0.11473
C_ C_ 0.299652 0.411082 0.777647 -0.11473
C_ C_ 0.186381 0.349865 0.751763 -0.02249
C_ C_ 0.437129 0.347604 0.744847 -0.02249
C_ C_ 0.23593 0.464125 0.749183 -0.02249
C_ C_ 0.484103 0.463253 0.746988 -0.02249
C_ C_ 0.219359 0.402154 0.787815 -0.11473
C_ C_ 0.458454 0.404666 0.783615 -0.11473
C_ C_ 0.18863 0.372146 0.713757 -0.11473
C_ C_ 0.44552 0.368083 0.707273 -0.11473
C_ C_ 0.204347 0.363788 0.786673 -0.11473
C_ C_ 0.443332 0.366533 0.782493 -0.11473
C_ C_ 0.218392 0.424743 0.750829 -0.02249
C_ C_ 0.467078 0.423764 0.745827 -0.02249
C_ C_ 0.168767 0.311611 0.751518 0.6875
C_ C_ 0.417932 0.308787 0.742838 0.6875
C_ C_ 0.203898 0.410256 0.712552 -0.11473
C_ C_ 0.458001 0.406838 0.707046 -0.11473
C_ C_ 0.184389 0.155084 0.750072 -0.02249
C_ C_ 0.43253 0.152727 0.737424 -0.02249
C_ C_ 0.236752 0.040367 0.747417 -0.02249
C_ C_ 0.484481 0.0402622 0.746971 -0.02249
C_ C_ 0.218126 0.104871 0.78421 -0.11473
C_ C_ 0.465422 0.105772 0.779002 -0.11473
C_ C_ 0.186218 0.130427 0.714598 -0.11473
C_ C_ 0.43626 0.126681 0.701725 -0.11473
C_ C_ 0.198504 0.138256 0.786467 -0.11473
C_ C_ 0.449026 0.144292 0.77526 -0.11473
C_ C_ 0.221525 0.0811059 0.746844 -0.02249
C_ C_ 0.468565 0.0803528 0.742793 -0.02249
C_ C_ 0.16392 0.192795 0.751971 0.6875
C_ C_ 0.412825 0.188746 0.735872 0.6875
C_ C_ 0.207311 0.0974004 0.711242 -0.11473
C_ C_ 0.452076 0.089651 0.706414 -0.11473
C_ C_ 0.0681859 0.154414 0.757472 -0.02249
C_ C_ 0.317434 0.150126 0.740614 -0.02249
C_ C_ 0.0168729 0.0415693 0.756863 -0.02249
C_ C_ 0.268101 0.0368261 0.738505 -0.02249
C_ C_ 0.0415311 0.101518 0.71823 -0.11473
C_ C_ 0.285697 0.100499 0.701909 -0.11473
C_ C_ 0.0609226 0.136407 0.794829 -0.11473
C_ C_ 0.318548 0.122244 0.774067 -0.11473
C_ C_ 0.0582702 0.137696 0.718975 -0.11473
C_ C_ 0.300551 0.138389 0.703078 -0.11473
C_ C_ 0.0337158 0.082631 0.755574 -0.02249
C_ C_ 0.285798 0.0745775 0.736397 -0.02249
C_ C_ 0.0874077 0.193241 0.757904 0.6875
C_ C_ 0.334393 0.191132 0.742846 0.6875
C_ C_ 0.0450835 0.0990974 0.793536 -0.11473
C_ C_ 0.302614 0.0854374 0.772473 -0.11473
C_ C_ 0.133167 0.285873 0.879408 0.17695
C_ C_ 0.356602 0.244856 0.873555 0.17695
C_ C_ 0.13407 0.213738 0.873066 0.17695
C_ C_ 0.409533 0.238642 0.864136 0.17695
C_ C_ 0.131467 0.208049 0.916457 -0.11473
C_ C_ 0.414729 0.240694 0.906982 -0.11473
C_ C_ 0.129403 0.243289 0.941147 0.23465
C_ C_ 0.390107 0.242592 0.933642 0.23465
C_ C_ 0.130873 0.282548 0.922961 -0.11473
C_ C_ 0.361307 0.248973 0.915997 -0.11473
C_ C_ 0.120864 0.208169 0.627898 0.17695
C_ C_ 0.394375 0.2582 0.613597 0.17695
C_ C_ 0.13173 0.280376 0.62212 0.17695
C_ C_ 0.343257 0.239856 0.616324 0.17695
C_ C_ 0.132586 0.276672 0.57851 -0.11473
C_ C_ 0.342052 0.232983 0.573234 -0.11473
C_ C_ 0.126664 0.238425 0.558551 0.23465
C_ C_ 0.367297 0.240514 0.549498 0.23465
C_ C_ 0.122635 0.203139 0.583643 -0.11473
C_ C_ 0.394593 0.252716 0.570328 -0.11473
C_ C_ 0.0325116 0.504592 0.755662 0.05793
C_ C_ 0.283111 0.502459 0.739003 0.05793
C_ C_ 0.22001 0.00296419 0.755122 0.05793
C_ C_ 0.467858 1.0024892 0.751254 0.05793
Br Br 0.0761787 0.506262 0.759074 -0.17191
Br Br 0.324275 0.504615 0.718887 -0.17191
Br Br 0.179937 0.00767917 0.774847 -0.17191
Br Br 0.424364 1.004885 0.749042 -0.17191
N_ N_ 0.134262 0.252231 0.856623 -0.272
N_ N_ 0.38066 0.242823 0.847861 -0.272
N_ N_ 0.130308 0.237225 0.98638 -0.12501
N_ N_ 0.394706 0.24272 0.978561 -0.12501
N_ N_ 0.126339 0.245969 0.645108 -0.272
N_ N_ 0.369538 0.250672 0.636505 -0.272
N_ N_ 0.124989 0.232586 0.513628 -0.12501
N_ N_ 0.366021 0.232629 0.505514 -0.12501
O_ O_ 0.0958333 0.295452 0.719526 -0.60745
O_ O_ 0.347932 0.300676 0.705232 -0.60745
O_ O_ 0.100879 0.302008 0.7885 -0.60745
O_ O_ 0.343607 0.293891 0.773198 -0.60745
O_ O_ 0.162156 0.292173 0.785501 -0.60745
O_ O_ 0.408592 0.291985 0.777059 -0.60745
O_ O_ 0.157095 0.30005 0.716516 -0.60745
O_ O_ 0.408213 0.295027 0.708509 -0.60745
O_ O_ 0.154198 0.206506 0.78595 -0.60745
O_ O_ 0.40512 0.20365 0.770584 -0.60745
O_ O_ 0.156074 0.206978 0.717462 -0.60745
O_ O_ 0.400181 0.20206 0.70215 -0.60745
O_ O_ 0.0982569 0.205744 0.724253 -0.60745
O_ O_ 0.338569 0.210154 0.707521 -0.60745
O_ O_ 0.0924465 0.214388 0.791677 -0.60745
O_ O_ 0.344943 0.20631 0.77697 -0.60745
Zn Zn 0.119963 0.751863 0.284324 0.9476
Zn Zn 0.378393 0.746385 0.292355 0.9476
Zn Zn 0.121865 0.750149 0.21506 0.9476
Zn Zn 0.379069 0.747675 0.225648 0.9476
H_ H_ 0.0308543 0.9099 0.176513 0.10932
H_ H_ 0.293393 0.918625 0.191189 0.10932
H_ H_ 0.0734245 0.873638 0.311581 0.10932
H_ H_ 0.313883 0.844675 0.323428 0.10932
H_ H_ 0.0560467 0.843581 0.179804 0.10932
H_ H_ 0.327851 0.861271 0.191932 0.10932
H_ H_ 0.0407785 0.928905 0.307216 0.10932
H_ H_ 0.285602 0.910948 0.324537 0.10932
H_ H_ 0.228123 0.899575 0.318226 0.10932
H_ H_ 0.457198 0.924576 0.324445 0.10932
H_ H_ 0.195183 0.840406 0.187017 0.10932
H_ H_ 0.444862 0.8453 0.190346 0.10932
H_ H_ 0.184496 0.850939 0.31951 0.10932
H_ H_ 0.429392 0.860719 0.323892 0.10932
H_ H_ 0.2207 0.908607 0.184626 0.10932
H_ H_ 0.469069 0.917041 0.189724 0.10932
H_ H_ 0.198631 0.573768 0.310562 0.10932
H_ H_ 0.447008 0.557686 0.316014 0.10932
H_ H_ 0.196249 0.662704 0.18714 0.10932
H_ H_ 0.455676 0.66089 0.198646 0.10932
H_ H_ 0.166956 0.634538 0.310409 0.10932
H_ H_ 0.418141 0.624298 0.317663 0.10932
H_ H_ 0.221903 0.591765 0.183496 0.10932
H_ H_ 0.480567 0.596194 0.195057 0.10932
H_ H_ 0.0321368 0.592655 0.17516 0.10932
H_ H_ 0.305583 0.563886 0.196178 0.10932
H_ H_ 0.0660909 0.640265 0.315809 0.10932
H_ H_ 0.290177 0.672439 0.305683 0.10932
H_ H_ 0.0517094 0.658536 0.180895 0.10932
H_ H_ 0.343003 0.617565 0.207725 0.10932
H_ H_ 0.0374697 0.576359 0.311956 0.10932
H_ H_ 0.261177 0.608438 0.310107 0.10932
H_ H_ 0.143714 0.810386 0.361696 0.10932
H_ H_ 0.395272 0.686888 0.369661 0.10932
H_ H_ 0.107452 0.69069 0.355453 0.10932
H_ H_ 0.368655 0.809569 0.36404 0.10932
H_ H_ 0.10591 0.682853 0.430918 0.10932
H_ H_ 0.37261 0.817075 0.438563 0.10932
H_ H_ 0.150759 0.799775 0.44329 0.10932
H_ H_ 0.3868 0.686241 0.447854 0.10932
H_ H_ 0.109008 0.684431 0.144941 0.10932
H_ H_ 0.378626 0.813916 0.145089 0.10932
H_ H_ 0.134796 0.812548 0.137812 0.10932
H_ H_ 0.37653 0.683459 0.154953 0.10932
H_ H_ 0.131402 0.809717 0.061219 0.10932
H_ H_ 0.375459 0.677482 0.0794214 0.10932
H_ H_ 0.114886 0.681427 0.0649135 0.10932
H_ H_ 0.382052 0.807499 0.0676907 0.10932
C_ C_ 0.0655925 0.850287 0.248612 -0.02249
C_ C_ 0.324208 0.847572 0.255796 -0.02249
C_ C_ 0.0123328 0.960394 0.23687 -0.02249
C_ C_ 0.268166 0.961196 0.256826 -0.02249
C_ C_ 0.03872 0.901035 0.205539 -0.11473
C_ C_ 0.301358 0.908092 0.220836 -0.11473
C_ C_ 0.0616229 0.876821 0.28202 -0.11473
C_ C_ 0.309042 0.860104 0.293145 -0.11473
C_ C_ 0.0532533 0.862788 0.209265 -0.11473
C_ C_ 0.318966 0.871022 0.220491 -0.11473
C_ C_ 0.0295437 0.922137 0.241808 -0.02249
C_ C_ 0.288228 0.922383 0.257304 -0.02249
C_ C_ 0.0827234 0.811185 0.252957 0.6875
C_ C_ 0.339636 0.808169 0.255746 0.6875
C_ C_ 0.0409927 0.910256 0.279885 -0.11473
C_ C_ 0.292483 0.897955 0.293837 -0.11473
C_ C_ 0.18642 0.843828 0.25072 -0.02249
C_ C_ 0.436297 0.845006 0.257462 -0.02249
C_ C_ 0.237069 0.957181 0.250443 -0.02249
C_ C_ 0.484718 0.962692 0.255399 -0.02249
C_ C_ 0.218017 0.892264 0.28837 -0.11473
C_ C_ 0.453549 0.908898 0.293585 -0.11473
C_ C_ 0.200844 0.855926 0.213886 -0.11473
C_ C_ 0.447288 0.862627 0.218935 -0.11473
C_ C_ 0.196602 0.86034 0.289072 -0.11473
C_ C_ 0.438309 0.870718 0.292808 -0.11473
C_ C_ 0.223488 0.913699 0.250134 -0.02249
C_ C_ 0.467194 0.924241 0.257233 -0.02249
C_ C_ 0.161459 0.810625 0.250035 0.6875
C_ C_ 0.419 0.804996 0.258044 0.6875
C_ C_ 0.215244 0.892514 0.213573 -0.11473
C_ C_ 0.460767 0.902555 0.218889 -0.11473
C_ C_ 0.17902 0.653185 0.248967 -0.02249
C_ C_ 0.435732 0.647821 0.25953 -0.02249
C_ C_ 0.229531 0.539952 0.247509 -0.02249
C_ C_ 0.481116 0.530865 0.252628 -0.02249
C_ C_ 0.19815 0.591936 0.283491 -0.11473
C_ C_ 0.447469 0.580097 0.289975 -0.11473
C_ C_ 0.195051 0.640795 0.212986 -0.11473
C_ C_ 0.454301 0.639683 0.225221 -0.11473
C_ C_ 0.181268 0.627626 0.284265 -0.11473
C_ C_ 0.433697 0.619885 0.293319 -0.11473
C_ C_ 0.211674 0.578723 0.246478 -0.02249
C_ C_ 0.464716 0.571205 0.25579 -0.02249
C_ C_ 0.158632 0.689025 0.246536 0.6875
C_ C_ 0.414719 0.684946 0.257569 0.6875
C_ C_ 0.208924 0.602507 0.210638 -0.11473
C_ C_ 0.468648 0.601882 0.223136 -0.11473
C_ C_ 0.0638626 0.653074 0.249463 -0.02249
C_ C_ 0.32116 0.648993 0.257492 -0.02249
C_ C_ 0.0164714 0.536161 0.241259 -0.02249
C_ C_ 0.262377 0.540228 0.251208 -0.02249
C_ C_ 0.0379568 0.602763 0.206273 -0.11473
C_ C_ 0.302956 0.5861 0.221471 -0.11473
C_ C_ 0.0565858 0.631051 0.284579 -0.11473
C_ C_ 0.294803 0.646614 0.284165 -0.11473
C_ C_ 0.0519894 0.639301 0.209568 -0.11473
C_ C_ 0.324498 0.617698 0.22739 -0.11473
C_ C_ 0.03041 0.578659 0.242278 -0.02249
C_ C_ 0.279892 0.581299 0.251017 -0.02249
C_ C_ 0.0804527 0.693737 0.250254 0.6875
C_ C_ 0.339988 0.686113 0.259668 0.6875
C_ C_ 0.040342 0.593443 0.28202 -0.11473
C_ C_ 0.276162 0.611551 0.284477 -0.11473
C_ C_ 0.141095 0.780176 0.377628 0.17695
C_ C_ 0.387544 0.714553 0.384434 0.17695
C_ C_ 0.118879 0.712902 0.374414 0.17695
C_ C_ 0.375401 0.784107 0.380666 0.17695
C_ C_ 0.113082 0.711838 0.417326 -0.11473
C_ C_ 0.373881 0.786551 0.424431 -0.11473
C_ C_ 0.126646 0.743139 0.442108 0.23465
C_ C_ 0.377753 0.751684 0.450235 0.23465
C_ C_ 0.139486 0.777979 0.42305 -0.11473
C_ C_ 0.381944 0.71466 0.428402 -0.11473
C_ C_ 0.11432 0.712878 0.125268 0.17695
C_ C_ 0.37995 0.784325 0.12982 0.17695
C_ C_ 0.128436 0.783491 0.121664 0.17695
C_ C_ 0.37647 0.711073 0.1363 0.17695
C_ C_ 0.129247 0.781213 0.0779523 -0.11473
C_ C_ 0.37636 0.706821 0.0918161 -0.11473
C_ C_ 0.123235 0.743798 0.0581772 0.23465
C_ C_ 0.378378 0.743109 0.066106 0.23465
C_ C_ 0.119454 0.708267 0.0816706 -0.11473
C_ C_ 0.381775 0.780805 0.0857432 -0.11473
C_ C_ 0.0282847 0.999705 0.235127 0.05793
C_ C_ 0.281244 1.00038 0.262815 0.05793
C_ C_ 0.214903 0.500328 0.242651 0.05793
C_ C_ 0.466822 0.492036 0.244703 0.05793
Br Br 0.0727835 -0.0026490000000000125 0.233653 -0.17191
Br Br 0.323837 1.00227707 0.268949 -0.17191
Br Br 0.170009 0.499417 0.238409 -0.17191
Br Br 0.424574 0.485138 0.240979 -0.17191
N_ N_ 0.126501 0.749595 0.355292 -0.272
N_ N_ 0.382279 0.748346 0.361272 -0.272
N_ N_ 0.130591 0.737025 0.487255 -0.12501
N_ N_ 0.380731 0.75558 0.49469 -0.12501
N_ N_ 0.122682 0.748862 0.144655 -0.272
N_ N_ 0.376989 0.748385 0.154378 -0.272
N_ N_ 0.124093 0.740087 0.0125042 -0.12501
N_ N_ 0.382916 0.737583 0.0208939 -0.12501
O_ O_ 0.0902246 0.791973 0.219704 -0.60745
O_ O_ 0.349189 0.792458 0.222922 -0.60745
O_ O_ 0.0922704 0.799354 0.288613 -0.60745
O_ O_ 0.347739 0.792238 0.290636 -0.60745
O_ O_ 0.153523 0.792385 0.283088 -0.60745
O_ O_ 0.407368 0.790596 0.292448 -0.60745
O_ O_ 0.152853 0.79721 0.213747 -0.60745
O_ O_ 0.411033 0.789845 0.222479 -0.60745
O_ O_ 0.146055 0.700295 0.279359 -0.60745
O_ O_ 0.409288 0.70339 0.290806 -0.60745
O_ O_ 0.150186 0.702714 0.209251 -0.60745
O_ O_ 0.407215 0.701106 0.222339 -0.60745
O_ O_ 0.0872046 0.70829 0.214993 -0.60745
O_ O_ 0.347313 0.705639 0.226327 -0.60745
O_ O_ 0.0853222 0.713571 0.283613 -0.60745
O_ O_ 0.346659 0.702828 0.295138 -0.60745
Zn Zn 0.123381 0.751471 0.784006 0.9476
Zn Zn 0.374819 0.752231 0.791767 0.9476
Zn Zn 0.122298 0.752943 0.713182 0.9476
Zn Zn 0.374208 0.754479 0.721703 0.9476
H_ H_ 0.0472404 0.929679 0.687783 0.10932
H_ H_ 0.2756 0.900052 0.685822 0.10932
H_ H_ 0.0613763 0.849654 0.818082 0.10932
H_ H_ 0.309566 0.850291 0.821114 0.10932
H_ H_ 0.0668176 0.861694 0.679678 0.10932
H_ H_ 0.312046 0.847518 0.686863 0.10932
H_ H_ 0.0316071 0.914889 0.820043 0.10932
H_ H_ 0.287617 0.919622 0.819529 0.10932
H_ H_ 0.204415 0.924986 0.816695 0.10932
H_ H_ 0.480318 0.904685 0.812813 0.10932
H_ H_ 0.186268 0.853165 0.680546 0.10932
H_ H_ 0.422577 0.866782 0.685713 0.10932
H_ H_ 0.171748 0.863164 0.817928 0.10932
H_ H_ 0.448697 0.845657 0.816562 0.10932
H_ H_ 0.215762 0.917633 0.68451 0.10932
H_ H_ 0.453932 0.930038 0.686383 0.10932
H_ H_ 0.231547 0.599457 0.809833 0.10932
H_ H_ 0.472076 0.585365 0.816412 0.10932
H_ H_ 0.168443 0.633218 0.684966 0.10932
H_ H_ 0.431322 0.647779 0.68895 0.10932
H_ H_ 0.193619 0.653904 0.813106 0.10932
H_ H_ 0.450722 0.655936 0.818144 0.10932
H_ H_ 0.195743 0.568717 0.686201 0.10932
H_ H_ 0.460009 0.582913 0.684518 0.10932
H_ H_ 0.0306718 0.581681 0.684401 0.10932
H_ H_ 0.272856 0.604361 0.686464 0.10932
H_ H_ 0.0555583 0.658211 0.815638 0.10932
H_ H_ 0.33724 0.629913 0.814279 0.10932
H_ H_ 0.0582263 0.645012 0.681096 0.10932
H_ H_ 0.301807 0.667187 0.693364 0.10932
H_ H_ 0.0286507 0.588603 0.817526 0.10932
H_ H_ 0.303892 0.566387 0.807454 0.10932
H_ H_ 0.134027 0.819542 0.854044 0.10932
H_ H_ 0.363217 0.819097 0.862726 0.10932
H_ H_ 0.12485 0.692029 0.857787 0.10932
H_ H_ 0.385394 0.694611 0.869133 0.10932
H_ H_ 0.122848 0.696552 0.937675 0.10932
H_ H_ 0.38147 0.691668 0.947512 0.10932
H_ H_ 0.125221 0.828343 0.930609 0.10932
H_ H_ 0.361796 0.82442 0.940599 0.10932
H_ H_ 0.13355 0.69126 0.632723 0.10932
H_ H_ 0.379706 0.809869 0.642146 0.10932
H_ H_ 0.12159 0.823389 0.641111 0.10932
H_ H_ 0.371297 0.681694 0.657333 0.10932
H_ H_ 0.116173 0.82602 0.567004 0.10932
H_ H_ 0.372474 0.669494 0.58061 0.10932
H_ H_ 0.141873 0.696023 0.559661 0.10932
H_ H_ 0.370611 0.804691 0.56491 0.10932
C_ C_ 0.0673485 0.850311 0.747721 -0.02249
C_ C_ 0.31614 0.847084 0.752127 -0.02249
C_ C_ 0.0187347 0.964308 0.757336 -0.02249
C_ C_ 0.265126 0.960192 0.747013 -0.02249
C_ C_ 0.0486526 0.912171 0.715038 -0.11473
C_ C_ 0.290373 0.899648 0.712233 -0.11473
C_ C_ 0.0559028 0.86485 0.787793 -0.11473
C_ C_ 0.305736 0.866119 0.789737 -0.11473
C_ C_ 0.0598573 0.872692 0.710081 -0.11473
C_ C_ 0.309708 0.867016 0.714392 -0.11473
C_ C_ 0.0364539 0.925048 0.753197 -0.02249
C_ C_ 0.281143 0.919572 0.750162 -0.02249
C_ C_ 0.0873427 0.814048 0.747664 0.6875
C_ C_ 0.336302 0.809474 0.751641 0.6875
C_ C_ 0.039706 0.901597 0.788613 -0.11473
C_ C_ 0.290016 0.903624 0.790318 -0.11473
C_ C_ 0.1775 0.850962 0.747064 -0.02249
C_ C_ 0.433973 0.851011 0.751609 -0.02249
C_ C_ 0.233038 0.961487 0.750888 -0.02249
C_ C_ 0.48387 0.963597 0.754663 -0.02249
C_ C_ 0.200733 0.907109 0.787379 -0.11473
C_ C_ 0.466453 0.898457 0.785515 -0.11473
C_ C_ 0.19087 0.867379 0.710045 -0.11473
C_ C_ 0.437707 0.872391 0.713322 -0.11473
C_ C_ 0.181707 0.872379 0.786501 -0.11473
C_ C_ 0.447873 0.865038 0.787894 -0.11473
C_ C_ 0.21606 0.921316 0.75227 -0.02249
C_ C_ 0.467897 0.923543 0.751026 -0.02249
C_ C_ 0.16023 0.810847 0.74572 0.6875
C_ C_ 0.414392 0.813867 0.753232 0.6875
C_ C_ 0.209371 0.901467 0.713236 -0.11473
C_ C_ 0.453541 0.909855 0.71342 -0.11473
C_ C_ 0.181457 0.653438 0.748193 -0.02249
C_ C_ 0.434783 0.655125 0.754552 -0.02249
C_ C_ 0.236579 0.54115 0.746788 -0.02249
C_ C_ 0.48505 0.53866 0.747589 -0.02249
C_ C_ 0.219594 0.608338 0.780959 -0.11473
C_ C_ 0.464848 0.600856 0.787661 -0.11473
C_ C_ 0.181325 0.627108 0.71255 -0.11473
C_ C_ 0.440143 0.635641 0.715587 -0.11473
C_ C_ 0.198928 0.640763 0.784045 -0.11473
C_ C_ 0.449635 0.638035 0.790667 -0.11473
C_ C_ 0.219806 0.581915 0.745289 -0.02249
C_ C_ 0.46882 0.581053 0.750383 -0.02249
C_ C_ 0.159494 0.687155 0.748133 0.6875
C_ C_ 0.412757 0.691328 0.755939 0.6875
C_ C_ 0.19909 0.5901 0.711594 -0.11473
C_ C_ 0.456882 0.599706 0.713646 -0.11473
C_ C_ 0.0639272 0.65408 0.749173 -0.02249
C_ C_ 0.320604 0.653772 0.755472 -0.02249
C_ C_ 0.01361 0.540215 0.754356 -0.02249
C_ C_ 0.268223 0.541255 0.74504 -0.02249
C_ C_ 0.0375182 0.597005 0.714252 -0.11473
C_ C_ 0.288515 0.607201 0.711867 -0.11473
C_ C_ 0.0521661 0.639875 0.787509 -0.11473
C_ C_ 0.320805 0.625533 0.788057 -0.11473
C_ C_ 0.0548991 0.631751 0.712178 -0.11473
C_ C_ 0.304714 0.643345 0.7167 -0.11473
C_ C_ 0.0282198 0.580804 0.751947 -0.02249
C_ C_ 0.286459 0.581019 0.74711 -0.02249
C_ C_ 0.0810798 0.694639 0.748894 0.6875
C_ C_ 0.338386 0.692839 0.758067 0.6875
C_ C_ 0.0375916 0.600958 0.789208 -0.11473
C_ C_ 0.304163 0.589647 0.783744 -0.11473
C_ C_ 0.125472 0.795603 0.872226 0.17695
C_ C_ 0.369267 0.79316 0.882061 0.17695
C_ C_ 0.124929 0.72314 0.87514 0.17695
C_ C_ 0.382073 0.721882 0.885525 0.17695
C_ C_ 0.125781 0.724392 0.920731 -0.11473
C_ C_ 0.380938 0.721962 0.930912 -0.11473
C_ C_ 0.125488 0.764262 0.943077 0.23465
C_ C_ 0.374586 0.759247 0.950478 0.23465
C_ C_ 0.126178 0.79863 0.915069 -0.11473
C_ C_ 0.366748 0.794524 0.926697 -0.11473
C_ C_ 0.133165 0.721619 0.619585 0.17695
C_ C_ 0.374886 0.779888 0.628043 0.17695
C_ C_ 0.122501 0.792585 0.625046 0.17695
C_ C_ 0.369946 0.708053 0.63643 0.17695
C_ C_ 0.122155 0.795368 0.581884 -0.11473
C_ C_ 0.370083 0.702682 0.591712 -0.11473
C_ C_ 0.128201 0.761028 0.556389 0.23465
C_ C_ 0.372647 0.736422 0.564634 0.23465
C_ C_ 0.135875 0.724053 0.575866 -0.11473
C_ C_ 0.374993 0.77667 0.583888 -0.11473
C_ C_ 0.0330417 0.00286869 0.758324 0.05793
C_ C_ 0.281425 -0.0028369999999999784 0.736103 0.05793
C_ C_ 0.220889 0.502889 0.752115 0.05793
C_ C_ 0.469299 0.501085 0.744789 0.05793
Br Br 0.0775397 0.00350321 0.760099 -0.17191
Br Br 0.32362 -0.006036999999999959 0.723162 -0.17191
Br Br 0.176401 0.504803 0.753457 -0.17191
Br Br 0.427633 0.501407 0.731494 -0.17191
N_ N_ 0.124052 0.758653 0.852812 -0.272
N_ N_ 0.374088 0.756873 0.863076 -0.272
N_ N_ 0.130023 0.768322 0.987663 -0.12501
N_ N_ 0.370458 0.761395 0.994213 -0.12501
N_ N_ 0.125984 0.754843 0.642964 -0.272
N_ N_ 0.370155 0.746999 0.65355 -0.272
N_ N_ 0.130396 0.767383 0.511946 -0.12501
N_ N_ 0.369937 0.73006 0.519882 -0.12501
O_ O_ 0.0947472 0.797509 0.713043 -0.60745
O_ O_ 0.347425 0.798272 0.717724 -0.60745
O_ O_ 0.0921166 0.794764 0.781729 -0.60745
O_ O_ 0.342293 0.792648 0.786293 -0.60745
O_ O_ 0.153021 0.795744 0.780949 -0.60745
O_ O_ 0.405567 0.801055 0.787519 -0.60745
O_ O_ 0.156561 0.790242 0.712896 -0.60745
O_ O_ 0.409998 0.792802 0.720355 -0.60745
O_ O_ 0.155483 0.705392 0.782973 -0.60745
O_ O_ 0.407158 0.708008 0.790756 -0.60745
O_ O_ 0.148253 0.700828 0.712128 -0.60745
O_ O_ 0.403341 0.708614 0.722255 -0.60745
O_ O_ 0.0867512 0.713661 0.714575 -0.60745
O_ O_ 0.340586 0.715206 0.727152 -0.60745
O_ O_ 0.0945238 0.706689 0.783329 -0.60745
O_ O_ 0.347362 0.704369 0.792217 -0.60745
Zn Zn 0.625437 0.248462 0.282342 0.9476
Zn Zn 0.873072 0.251463 0.286534 0.9476
Zn Zn 0.624237 0.246265 0.213943 0.9476
Zn Zn 0.870905 0.252691 0.215371 0.9476
H_ H_ 0.524103 0.401878 0.18195 0.10932
H_ H_ 0.764905 0.404203 0.187734 0.10932
H_ H_ 0.571244 0.355437 0.316678 0.10932
H_ H_ 0.825717 0.362015 0.312816 0.10932
H_ H_ 0.553548 0.337785 0.182512 0.10932
H_ H_ 0.800127 0.351102 0.180286 0.10932
H_ H_ 0.548587 0.425319 0.311353 0.10932
H_ H_ 0.793487 0.424768 0.315728 0.10932
H_ H_ 0.721022 0.40925 0.312827 0.10932
H_ H_ 0.980763 0.403441 0.317376 0.10932
H_ H_ 0.674243 0.357349 0.182889 0.10932
H_ H_ 0.925806 0.364441 0.187505 0.10932
H_ H_ 0.705036 0.334746 0.307855 0.10932
H_ H_ 0.942289 0.347875 0.320475 0.10932
H_ H_ 0.701073 0.424932 0.179039 0.10932
H_ H_ 0.964077 0.418167 0.182203 0.10932
H_ H_ 0.718633 0.0842118 0.314945 0.10932
H_ H_ 0.958623 0.0707522 0.313068 0.10932
H_ H_ 0.683069 0.145791 0.179191 0.10932
H_ H_ 0.923089 0.141248 0.181804 0.10932
H_ H_ 0.685046 0.144268 0.314455 0.10932
H_ H_ 0.930573 0.137544 0.319849 0.10932
H_ H_ 0.70991 0.0768023 0.181825 0.10932
H_ H_ 0.962069 0.0877864 0.180483 0.10932
H_ H_ 0.544536 0.0670331 0.187456 0.10932
H_ H_ 0.774491 0.0928905 0.184745 0.10932
H_ H_ 0.545933 0.16103 0.31295 0.10932
H_ H_ 0.817566 0.146432 0.317782 0.10932
H_ H_ 0.575391 0.128677 0.185965 0.10932
H_ H_ 0.808238 0.151234 0.18315 0.10932
H_ H_ 0.529605 0.0874048 0.319952 0.10932
H_ H_ 0.796353 0.0765485 0.313698 0.10932
H_ H_ 0.619251 0.178343 0.354562 0.10932
H_ H_ 0.874984 0.17932 0.365205 0.10932
H_ H_ 0.617793 0.310085 0.36182 0.10932
H_ H_ 0.869331 0.316091 0.366899 0.10932
H_ H_ 0.614179 0.305013 0.436681 0.10932
H_ H_ 0.873675 0.314542 0.444859 0.10932
H_ H_ 0.621899 0.175383 0.432445 0.10932
H_ H_ 0.872621 0.18264 0.439414 0.10932
H_ H_ 0.623663 0.185785 0.138297 0.10932
H_ H_ 0.881334 0.322008 0.141427 0.10932
H_ H_ 0.629195 0.316764 0.144787 0.10932
H_ H_ 0.860422 0.193681 0.135389 0.10932
H_ H_ 0.627491 0.325694 0.0675444 0.10932
H_ H_ 0.86582 0.193947 0.0591567 0.10932
H_ H_ 0.626881 0.194151 0.0554087 0.10932
H_ H_ 0.875788 0.327828 0.0661096 0.10932
C_ C_ 0.564875 0.342422 0.247679 -0.02249
C_ C_ 0.814406 0.349868 0.247208 -0.02249
C_ C_ 0.51597 0.45693 0.244957 -0.02249
C_ C_ 0.762261 0.46461 0.249908 -0.02249
C_ C_ 0.53562 0.392962 0.209749 -0.11473
C_ C_ 0.777902 0.395692 0.215678 -0.11473
C_ C_ 0.56223 0.367769 0.285585 -0.11473
C_ C_ 0.812188 0.370734 0.285054 -0.11473
C_ C_ 0.549857 0.355587 0.210853 -0.11473
C_ C_ 0.799988 0.364802 0.212383 -0.11473
C_ C_ 0.53327 0.41749 0.246601 -0.02249
C_ C_ 0.778398 0.422565 0.251704 -0.02249
C_ C_ 0.58597 0.306116 0.249556 0.6875
C_ C_ 0.833912 0.312949 0.246431 0.6875
C_ C_ 0.54472 0.4031 0.285217 -0.11473
C_ C_ 0.794784 0.408678 0.286505 -0.11473
C_ C_ 0.685299 0.343351 0.247039 -0.02249
C_ C_ 0.932258 0.350516 0.254058 -0.02249
C_ C_ 0.730671 0.462468 0.249871 -0.02249
C_ C_ 0.990119 0.458868 0.253691 -0.02249
C_ C_ 0.714312 0.395955 0.282528 -0.11473
C_ C_ 0.969809 0.395649 0.289324 -0.11473
C_ C_ 0.683944 0.368322 0.210587 -0.11473
C_ C_ 0.936619 0.374635 0.216587 -0.11473
C_ C_ 0.702421 0.355747 0.280815 -0.11473
C_ C_ 0.946445 0.365025 0.291261 -0.11473
C_ C_ 0.713428 0.421885 0.24631 -0.02249
C_ C_ 0.973523 0.419111 0.251889 -0.02249
C_ C_ 0.665505 0.304457 0.250059 0.6875
C_ C_ 0.910974 0.313784 0.25423 0.6875
C_ C_ 0.698731 0.407505 0.20755 -0.11473
C_ C_ 0.958847 0.405762 0.214282 -0.11473
C_ C_ 0.681847 0.149016 0.247287 -0.02249
C_ C_ 0.926951 0.148181 0.251238 -0.02249
C_ C_ 0.73391 0.03739 0.246229 -0.02249
C_ C_ 0.980944 0.036516 0.243234 -0.02249
C_ C_ 0.711739 0.0967354 0.284909 -0.11473
C_ C_ 0.954443 0.0908326 0.286592 -0.11473
C_ C_ 0.690733 0.132242 0.208745 -0.11473
C_ C_ 0.933446 0.130858 0.211412 -0.11473
C_ C_ 0.69274 0.131353 0.284992 -0.11473
C_ C_ 0.939649 0.129413 0.289771 -0.11473
C_ C_ 0.717694 0.077751 0.245994 -0.02249
C_ C_ 0.963125 0.0758534 0.246988 -0.02249
C_ C_ 0.659613 0.185262 0.250517 0.6875
C_ C_ 0.911055 0.190793 0.252623 0.6875
C_ C_ 0.705993 0.0945114 0.208702 -0.11473
C_ C_ 0.953706 0.0978353 0.21149 -0.11473
C_ C_ 0.562619 0.150784 0.248942 -0.02249
C_ C_ 0.817401 0.15033 0.249462 -0.02249
C_ C_ 0.51673 0.038817 0.256566 -0.02249
C_ C_ 0.766493 0.0370933 0.245984 -0.02249
C_ C_ 0.544177 0.0872099 0.213991 -0.11473
C_ C_ 0.785356 0.10236 0.212716 -0.11473
C_ C_ 0.545395 0.142021 0.284742 -0.11473
C_ C_ 0.810404 0.132247 0.287884 -0.11473
C_ C_ 0.559858 0.125059 0.212851 -0.11473
C_ C_ 0.803828 0.137495 0.212514 -0.11473
C_ C_ 0.532334 0.0763804 0.25313 -0.02249
C_ C_ 0.782075 0.0797387 0.249051 -0.02249
C_ C_ 0.582802 0.188948 0.249259 0.6875
C_ C_ 0.833008 0.192653 0.250536 0.6875
C_ C_ 0.535066 0.101123 0.288601 -0.11473
C_ C_ 0.794266 0.0955766 0.286512 -0.11473
C_ C_ 0.618585 0.207673 0.371464 0.17695
C_ C_ 0.871535 0.210871 0.381162 0.17695
C_ C_ 0.620507 0.279047 0.375037 0.17695
C_ C_ 0.869689 0.285016 0.381186 0.17695
C_ C_ 0.619296 0.276812 0.41837 -0.11473
C_ C_ 0.870733 0.2857 0.4256 -0.11473
C_ C_ 0.620558 0.240841 0.44023 0.23465
C_ C_ 0.872144 0.247927 0.448237 0.23465
C_ C_ 0.622583 0.205092 0.416774 -0.11473
C_ C_ 0.875259 0.211453 0.424257 -0.11473
C_ C_ 0.623275 0.217236 0.120902 0.17695
C_ C_ 0.877379 0.293135 0.123532 0.17695
C_ C_ 0.628358 0.289662 0.125039 0.17695
C_ C_ 0.866911 0.222137 0.119642 0.17695
C_ C_ 0.628161 0.29478 0.0823244 -0.11473
C_ C_ 0.863545 0.223786 0.0761476 -0.11473
C_ C_ 0.627152 0.258262 0.0570781 0.23465
C_ C_ 0.867458 0.262162 0.0556481 0.23465
C_ C_ 0.625358 0.220015 0.0768649 -0.11473
C_ C_ 0.873923 0.297132 0.080702 -0.11473
C_ C_ 0.530705 0.495105 0.249333 0.05793
C_ C_ 0.778225 0.502152 0.251348 0.05793
C_ C_ 0.717516 0.998404 0.246082 0.05793
C_ C_ 0.964426 0.998221 0.238549 0.05793
Br Br 0.573286 0.497788 0.246646 -0.17191
Br Br 0.822318 0.502279 0.256556 -0.17191
Br Br 0.673416 0.00019999999999997797 0.240963 -0.17191
Br Br 0.9219 4.59335e-07 0.254606 -0.17191
N_ N_ 0.620362 0.245257 0.350697 -0.272
N_ N_ 0.869814 0.248262 0.359669 -0.272
N_ N_ 0.628265 0.237511 0.484059 -0.12501
N_ N_ 0.877447 0.246367 0.492102 -0.12501
N_ N_ 0.627964 0.251394 0.144018 -0.272
N_ N_ 0.869759 0.257882 0.143792 -0.272
N_ N_ 0.631912 0.262277 0.0126785 -0.12501
N_ N_ 0.864571 0.264731 0.0104185 -0.12501
O_ O_ 0.591848 0.287975 0.215883 -0.60745
O_ O_ 0.840263 0.294983 0.211627 -0.60745
O_ O_ 0.59864 0.296223 0.283521 -0.60745
O_ O_ 0.841791 0.295705 0.28224 -0.60745
O_ O_ 0.659785 0.289584 0.285077 -0.60745
O_ O_ 0.90271 0.298684 0.289211 -0.60745
O_ O_ 0.655442 0.288163 0.216199 -0.60745
O_ O_ 0.902922 0.296189 0.219822 -0.60745
O_ O_ 0.652146 0.20098 0.28409 -0.60745
O_ O_ 0.90495 0.208119 0.287335 -0.60745
O_ O_ 0.653515 0.205351 0.216086 -0.60745
O_ O_ 0.900226 0.20705 0.219255 -0.60745
O_ O_ 0.594026 0.201184 0.214869 -0.60745
O_ O_ 0.840412 0.208764 0.21445 -0.60745
O_ O_ 0.594587 0.201048 0.284467 -0.60745
O_ O_ 0.841867 0.210912 0.284081 -0.60745
Zn Zn 0.626224 0.24885 0.784149 0.9476
Zn Zn 0.875413 0.250138 0.78609 0.9476
Zn Zn 0.627984 0.25084 0.71466 0.9476
Zn Zn 0.874233 0.249012 0.716142 0.9476
H_ H_ 0.526645 0.408391 0.689662 0.10932
H_ H_ 0.765327 0.400458 0.689631 0.10932
H_ H_ 0.5684 0.355697 0.824743 0.10932
H_ H_ 0.837012 0.376227 0.80859 0.10932
H_ H_ 0.556724 0.343766 0.691088 0.10932
H_ H_ 0.799337 0.342465 0.686964 0.10932
H_ H_ 0.539936 0.42323 0.822129 0.10932
H_ H_ 0.810878 0.44041 0.801252 0.10932
H_ H_ 0.731148 0.403597 0.816694 0.10932
H_ H_ 0.959405 0.424462 0.817727 0.10932
H_ H_ 0.676393 0.369333 0.68681 0.10932
H_ H_ 0.938637 0.352074 0.682292 0.10932
H_ H_ 0.698298 0.34061 0.812739 0.10932
H_ H_ 0.927519 0.35981 0.815962 0.10932
H_ H_ 0.702605 0.435113 0.692808 0.10932
H_ H_ 0.974495 0.410708 0.686819 0.10932
H_ H_ 0.709627 0.0797958 0.820627 0.10932
H_ H_ 0.962129 0.0846317 0.8242 0.10932
H_ H_ 0.689469 0.144696 0.678765 0.10932
H_ H_ 0.939528 0.150184 0.68727 0.10932
H_ H_ 0.685118 0.145317 0.812385 0.10932
H_ H_ 0.930983 0.145555 0.822069 0.10932
H_ H_ 0.725331 0.085442 0.687525 0.10932
H_ H_ 0.973513 0.0899701 0.691581 0.10932
H_ H_ 0.543904 0.073103 0.684792 0.10932
H_ H_ 0.791448 0.0773654 0.689357 0.10932
H_ H_ 0.56801 0.147147 0.812029 0.10932
H_ H_ 0.821451 0.143722 0.826774 0.10932
H_ H_ 0.561436 0.143037 0.678911 0.10932
H_ H_ 0.821286 0.140653 0.691999 0.10932
H_ H_ 0.539999 0.0849017 0.818307 0.10932
H_ H_ 0.788509 0.0811331 0.826586 0.10932
H_ H_ 0.632333 0.308613 0.856687 0.10932
H_ H_ 0.924738 0.252541 0.854294 0.10932
H_ H_ 0.625282 0.177801 0.856351 0.10932
H_ H_ 0.830017 0.251157 0.861463 0.10932
H_ H_ 0.616818 0.181311 0.932141 0.10932
H_ H_ 0.832355 0.257938 0.938102 0.10932
H_ H_ 0.626485 0.312952 0.93349 0.10932
H_ H_ 0.929459 0.253974 0.9278 0.10932
H_ H_ 0.627373 0.190117 0.635891 0.10932
H_ H_ 0.873233 0.315662 0.651545 0.10932
H_ H_ 0.621582 0.322893 0.641408 0.10932
H_ H_ 0.86269 0.18619 0.637623 0.10932
H_ H_ 0.618775 0.325824 0.562309 0.10932
H_ H_ 0.857216 0.197798 0.560291 0.10932
H_ H_ 0.624856 0.193761 0.557594 0.10932
H_ H_ 0.861836 0.325825 0.577088 0.10932
C_ C_ 0.568144 0.34646 0.756359 -0.02249
C_ C_ 0.818805 0.350427 0.750054 -0.02249
C_ C_ 0.515514 0.460935 0.75454 -0.02249
C_ C_ 0.765858 0.463333 0.743455 -0.02249
C_ C_ 0.536641 0.397591 0.719163 -0.11473
C_ C_ 0.782151 0.395268 0.714457 -0.11473
C_ C_ 0.561771 0.368535 0.793877 -0.11473
C_ C_ 0.819265 0.378735 0.785011 -0.11473
C_ C_ 0.553781 0.359821 0.719338 -0.11473
C_ C_ 0.801522 0.361435 0.713889 -0.11473
C_ C_ 0.53284 0.420317 0.755974 -0.02249
C_ C_ 0.783658 0.423163 0.748401 -0.02249
C_ C_ 0.585888 0.30677 0.755831 0.6875
C_ C_ 0.835057 0.310034 0.754825 0.6875
C_ C_ 0.544867 0.405569 0.793333 -0.11473
C_ C_ 0.803766 0.416461 0.781466 -0.11473
C_ C_ 0.683612 0.350242 0.751274 -0.02249
C_ C_ 0.932389 0.349991 0.749128 -0.02249
C_ C_ 0.736892 0.464691 0.758614 -0.02249
C_ C_ 0.985374 0.461982 0.753099 -0.02249
C_ C_ 0.71783 0.397111 0.789794 -0.11473
C_ C_ 0.957779 0.40749 0.788983 -0.11473
C_ C_ 0.689318 0.376838 0.715642 -0.11473
C_ C_ 0.946214 0.365247 0.712695 -0.11473
C_ C_ 0.697728 0.362241 0.789587 -0.11473
C_ C_ 0.940185 0.369516 0.788052 -0.11473
C_ C_ 0.718548 0.425878 0.75664 -0.02249
C_ C_ 0.969088 0.422423 0.751715 -0.02249
C_ C_ 0.66566 0.310958 0.748973 0.6875
C_ C_ 0.913614 0.312223 0.74901 0.6875
C_ C_ 0.703828 0.415029 0.718439 -0.11473
C_ C_ 0.966411 0.397717 0.714098 -0.11473
C_ C_ 0.684939 0.151649 0.746933 -0.02249
C_ C_ 0.935403 0.154458 0.753286 -0.02249
C_ C_ 0.735846 0.0365306 0.755166 -0.02249
C_ C_ 0.984759 0.041186 0.759274 -0.02249
C_ C_ 0.706647 0.0936944 0.788925 -0.11473
C_ C_ 0.957514 0.0976552 0.793531 -0.11473
C_ C_ 0.695889 0.132502 0.709999 -0.11473
C_ C_ 0.947055 0.136689 0.716578 -0.11473
C_ C_ 0.689906 0.130391 0.785372 -0.11473
C_ C_ 0.94146 0.13384 0.792414 -0.11473
C_ C_ 0.717834 0.0762701 0.752315 -0.02249
C_ C_ 0.969953 0.08091 0.757133 -0.02249
C_ C_ 0.666056 0.191338 0.744337 0.6875
C_ C_ 0.916118 0.192116 0.751608 0.6875
C_ C_ 0.713101 0.0955388 0.713742 -0.11473
C_ C_ 0.964627 0.100395 0.719382 -0.11473
C_ C_ 0.564495 0.1545 0.744866 -0.02249
C_ C_ 0.818016 0.152428 0.757604 -0.02249
C_ C_ 0.516555 0.0381118 0.750493 -0.02249
C_ C_ 0.767625 0.0365043 0.75948 -0.02249
C_ C_ 0.544121 0.0915165 0.711644 -0.11473
C_ C_ 0.794112 0.0935845 0.721087 -0.11473
C_ C_ 0.558998 0.134572 0.783666 -0.11473
C_ C_ 0.81166 0.132721 0.797545 -0.11473
C_ C_ 0.557646 0.131892 0.709113 -0.11473
C_ C_ 0.810892 0.130354 0.719997 -0.11473
C_ C_ 0.536624 0.0756422 0.750246 -0.02249
C_ C_ 0.783955 0.0770562 0.759996 -0.02249
C_ C_ 0.587131 0.190517 0.74508 0.6875
C_ C_ 0.838295 0.189607 0.756573 0.6875
C_ C_ 0.544943 0.0958919 0.786618 -0.11473
C_ C_ 0.793604 0.0964141 0.797244 -0.11473
C_ C_ 0.632409 0.279897 0.874278 0.17695
C_ C_ 0.904302 0.248554 0.871438 0.17695
C_ C_ 0.628103 0.206454 0.874027 0.17695
C_ C_ 0.851028 0.250436 0.876026 0.17695
C_ C_ 0.624759 0.208557 0.917829 -0.11473
C_ C_ 0.852866 0.251258 0.920949 -0.11473
C_ C_ 0.623917 0.246017 0.940952 0.23465
C_ C_ 0.88119 0.252784 0.940773 0.23465
C_ C_ 0.63173 0.282463 0.919519 -0.11473
C_ C_ 0.906761 0.251241 0.915445 -0.11473
C_ C_ 0.629005 0.220665 0.619775 0.17695
C_ C_ 0.872937 0.288601 0.631684 0.17695
C_ C_ 0.621544 0.294058 0.624156 0.17695
C_ C_ 0.862701 0.217478 0.624543 0.17695
C_ C_ 0.621387 0.29725 0.579634 -0.11473
C_ C_ 0.862492 0.222958 0.580552 -0.11473
C_ C_ 0.622547 0.260739 0.554692 0.23465
C_ C_ 0.862571 0.262161 0.562572 0.23465
C_ C_ 0.625661 0.22268 0.575112 -0.11473
C_ C_ 0.868103 0.295008 0.588953 -0.11473
C_ C_ 0.532428 0.499483 0.75422 0.05793
C_ C_ 0.780084 0.501692 0.733356 0.05793
C_ C_ 0.719685 -0.0009529999999999816 0.753243 0.05793
C_ C_ 0.969647 0.00262261 0.761479 0.05793
Br Br 0.57545 0.495287 0.765495 -0.17191
Br Br 0.821876 0.498742 0.714748 -0.17191
Br Br 0.675971 0.00199035 0.746218 -0.17191
Br Br 0.925554 -0.0005279999999999729 0.748449 -0.17191
N_ N_ 0.629703 0.24269 0.853192 -0.272
N_ N_ 0.876639 0.249319 0.85413 -0.272
N_ N_ 0.615344 0.24674 0.984253 -0.12501
N_ N_ 0.884102 0.251924 0.98558 -0.12501
N_ N_ 0.627788 0.255915 0.643516 -0.272
N_ N_ 0.868324 0.250303 0.647769 -0.272
N_ N_ 0.619891 0.264341 0.509181 -0.12501
N_ N_ 0.860865 0.267824 0.516645 -0.12501
O_ O_ 0.597199 0.29477 0.722439 -0.60745
O_ O_ 0.842275 0.291063 0.72185 -0.60745
O_ O_ 0.594839 0.290659 0.791008 -0.60745
O_ O_ 0.846917 0.298052 0.790023 -0.60745
O_ O_ 0.659933 0.290281 0.782066 -0.60745
O_ O_ 0.910916 0.292329 0.782928 -0.60745
O_ O_ 0.657999 0.293814 0.714304 -0.60745
O_ O_ 0.903315 0.296762 0.714648 -0.60745
O_ O_ 0.65452 0.203571 0.778744 -0.60745
O_ O_ 0.905332 0.204635 0.785825 -0.60745
O_ O_ 0.657298 0.205577 0.709217 -0.60745
O_ O_ 0.9099 0.20936 0.716812 -0.60745
O_ O_ 0.595441 0.205293 0.711873 -0.60745
O_ O_ 0.847602 0.202199 0.720207 -0.60745
O_ O_ 0.595629 0.20635 0.780129 -0.60745
O_ O_ 0.840743 0.214137 0.787678 -0.60745
Zn Zn 0.622883 0.75054 0.28989 0.9476
Zn Zn 0.875987 0.745401 0.287776 0.9476
Zn Zn 0.621411 0.750617 0.218561 0.9476
Zn Zn 0.874185 0.748094 0.218308 0.9476
H_ H_ 0.542451 0.927516 0.191066 0.10932
H_ H_ 0.794279 0.927091 0.186783 0.10932
H_ H_ 0.560727 0.849131 0.321004 0.10932
H_ H_ 0.81257 0.84864 0.316806 0.10932
H_ H_ 0.569066 0.859997 0.188517 0.10932
H_ H_ 0.821965 0.862576 0.183501 0.10932
H_ H_ 0.532202 0.91561 0.324161 0.10932
H_ H_ 0.780336 0.911718 0.318771 0.10932
H_ H_ 0.712415 0.923087 0.318158 0.10932
H_ H_ 0.964782 0.917221 0.311575 0.10932
H_ H_ 0.698551 0.838211 0.189627 0.10932
H_ H_ 0.93071 0.84066 0.184938 0.10932
H_ H_ 0.687026 0.858419 0.323215 0.10932
H_ H_ 0.940396 0.850781 0.317648 0.10932
H_ H_ 0.724604 0.906112 0.185959 0.10932
H_ H_ 0.95649 0.907307 0.17931 0.10932
H_ H_ 0.716883 0.581955 0.314392 0.10932
H_ H_ 0.955267 0.568513 0.317291 0.10932
H_ H_ 0.689482 0.660507 0.182028 0.10932
H_ H_ 0.940049 0.647997 0.184716 0.10932
H_ H_ 0.682078 0.644091 0.316526 0.10932
H_ H_ 0.916613 0.619805 0.313004 0.10932
H_ H_ 0.715769 0.590055 0.177395 0.10932
H_ H_ 0.97114 0.584649 0.18609 0.10932
H_ H_ 0.538621 0.568881 0.183077 0.10932
H_ H_ 0.784692 0.580162 0.180102 0.10932
H_ H_ 0.562175 0.638361 0.318628 0.10932
H_ H_ 0.800842 0.654039 0.316112 0.10932
H_ H_ 0.574066 0.629822 0.183273 0.10932
H_ H_ 0.816767 0.642039 0.184626 0.10932
H_ H_ 0.527932 0.580234 0.316618 0.10932
H_ H_ 0.775337 0.588538 0.316108 0.10932
H_ H_ 0.622247 0.691012 0.371974 0.10932
H_ H_ 0.869111 0.809467 0.368218 0.10932
H_ H_ 0.62014 0.822046 0.35675 0.10932
H_ H_ 0.885617 0.680682 0.356739 0.10932
H_ H_ 0.632229 0.831733 0.434392 0.10932
H_ H_ 0.887301 0.675484 0.434526 0.10932
H_ H_ 0.635166 0.696961 0.448546 0.10932
H_ H_ 0.857956 0.801157 0.442718 0.10932
H_ H_ 0.612533 0.68965 0.14433 0.10932
H_ H_ 0.857753 0.67924 0.147213 0.10932
H_ H_ 0.628732 0.818036 0.14699 0.10932
H_ H_ 0.87537 0.808846 0.136572 0.10932
H_ H_ 0.631834 0.821074 0.0677615 0.10932
H_ H_ 0.883368 0.799553 0.0571996 0.10932
H_ H_ 0.607302 0.692264 0.0647472 0.10932
H_ H_ 0.858834 0.674362 0.0702286 0.10932
C_ C_ 0.567111 0.851286 0.254094 -0.02249
C_ C_ 0.821443 0.851758 0.250406 -0.02249
C_ C_ 0.515836 0.962555 0.256632 -0.02249
C_ C_ 0.766131 0.961541 0.257063 -0.02249
C_ C_ 0.544304 0.909371 0.218513 -0.11473
C_ C_ 0.795246 0.90892 0.21472 -0.11473
C_ C_ 0.556565 0.868256 0.29194 -0.11473
C_ C_ 0.808723 0.865931 0.289013 -0.11473
C_ C_ 0.562731 0.874071 0.216953 -0.11473
C_ C_ 0.814664 0.874549 0.213135 -0.11473
C_ C_ 0.532778 0.923856 0.256591 -0.02249
C_ C_ 0.783484 0.922214 0.253575 -0.02249
C_ C_ 0.585068 0.812309 0.253472 0.6875
C_ C_ 0.839693 0.811019 0.249072 0.6875
C_ C_ 0.540633 0.905542 0.293567 -0.11473
C_ C_ 0.791249 0.902751 0.289828 -0.11473
C_ C_ 0.686288 0.846077 0.255992 -0.02249
C_ C_ 0.931605 0.842291 0.252691 -0.02249
C_ C_ 0.733887 0.960467 0.251667 -0.02249
C_ C_ 0.980114 0.959383 0.238386 -0.02249
C_ C_ 0.707178 0.905559 0.290693 -0.11473
C_ C_ 0.958874 0.901035 0.283119 -0.11473
C_ C_ 0.701547 0.85748 0.218995 -0.11473
C_ C_ 0.939013 0.857391 0.21277 -0.11473
C_ C_ 0.693083 0.869229 0.293684 -0.11473
C_ C_ 0.941675 0.864611 0.288093 -0.11473
C_ C_ 0.718698 0.920136 0.251532 -0.02249
C_ C_ 0.962706 0.919502 0.244044 -0.02249
C_ C_ 0.663315 0.810418 0.254919 0.6875
C_ C_ 0.915385 0.802779 0.25264 0.6875
C_ C_ 0.716247 0.895308 0.215982 -0.11473
C_ C_ 0.953871 0.896256 0.209561 -0.11473
C_ C_ 0.682885 0.655559 0.250716 -0.02249
C_ C_ 0.929993 0.643261 0.252846 -0.02249
C_ C_ 0.731729 0.540399 0.243099 -0.02249
C_ C_ 0.984829 0.533585 0.248494 -0.02249
C_ C_ 0.708753 0.596858 0.284725 -0.11473
C_ C_ 0.951006 0.583801 0.287883 -0.11473
C_ C_ 0.693371 0.641186 0.211745 -0.11473
C_ C_ 0.942786 0.630484 0.213929 -0.11473
C_ C_ 0.689035 0.632224 0.287327 -0.11473
C_ C_ 0.931313 0.617748 0.288126 -0.11473
C_ C_ 0.715173 0.580205 0.245286 -0.02249
C_ C_ 0.965162 0.572018 0.24981 -0.02249
C_ C_ 0.664053 0.693891 0.251963 0.6875
C_ C_ 0.911783 0.682689 0.25319 0.6875
C_ C_ 0.708006 0.601826 0.209109 -0.11473
C_ C_ 0.961327 0.596522 0.213704 -0.11473
C_ C_ 0.570699 0.641735 0.250149 -0.02249
C_ C_ 0.810831 0.653089 0.25049 -0.02249
C_ C_ 0.513252 0.532525 0.249492 -0.02249
C_ C_ 0.762843 0.539125 0.247561 -0.02249
C_ C_ 0.543521 0.587209 0.21167 -0.11473
C_ C_ 0.786058 0.59769 0.209595 -0.11473
C_ C_ 0.556556 0.62754 0.287484 -0.11473
C_ C_ 0.795731 0.639942 0.285848 -0.11473
C_ C_ 0.561855 0.623313 0.211313 -0.11473
C_ C_ 0.80186 0.635468 0.210043 -0.11473
C_ C_ 0.531473 0.57286 0.249702 -0.02249
C_ C_ 0.778665 0.579007 0.247687 -0.02249
C_ C_ 0.587701 0.683679 0.251346 0.6875
C_ C_ 0.831833 0.68933 0.251064 0.6875
C_ C_ 0.535811 0.594939 0.286773 -0.11473
C_ C_ 0.781106 0.601096 0.285352 -0.11473
C_ C_ 0.625087 0.720939 0.387489 0.17695
C_ C_ 0.865522 0.779363 0.381457 0.17695
C_ C_ 0.624756 0.79467 0.37946 0.17695
C_ C_ 0.879138 0.707795 0.375519 0.17695
C_ C_ 0.630125 0.800046 0.422367 -0.11473
C_ C_ 0.880551 0.703564 0.418843 -0.11473
C_ C_ 0.631218 0.764827 0.449739 0.23465
C_ C_ 0.870658 0.737057 0.443048 0.23465
C_ C_ 0.629309 0.724227 0.431244 -0.11473
C_ C_ 0.859888 0.774342 0.422812 -0.11473
C_ C_ 0.617702 0.718823 0.126864 0.17695
C_ C_ 0.86414 0.706353 0.127375 0.17695
C_ C_ 0.627907 0.789607 0.12824 0.17695
C_ C_ 0.875491 0.777041 0.121637 0.17695
C_ C_ 0.628866 0.791618 0.0835886 -0.11473
C_ C_ 0.879573 0.77303 0.0775659 -0.11473
C_ C_ 0.622988 0.755697 0.0601977 0.23465
C_ C_ 0.875678 0.735531 0.0585004 0.23465
C_ C_ 0.614419 0.720557 0.0823348 -0.11473
C_ C_ 0.866291 0.701772 0.0834669 -0.11473
C_ C_ 0.531219 1.00045 0.260837 0.05793
C_ C_ 0.782618 0.999655 0.250424 0.05793
C_ C_ 0.715283 0.501083 0.243481 0.05793
C_ C_ 0.972367 0.494186 0.258198 0.05793
Br Br 0.57491 0.996654 0.265318 -0.17191
Br Br 0.826017 1.00230479 0.259917 -0.17191
Br Br 0.673349 0.506422 0.226937 -0.17191
Br Br 0.93087 0.486757 0.272496 -0.17191
N_ N_ 0.62441 0.755713 0.362458 -0.272
N_ N_ 0.872927 0.744869 0.356694 -0.272
N_ N_ 0.630507 0.771665 0.493568 -0.12501
N_ N_ 0.869198 0.733492 0.487389 -0.12501
N_ N_ 0.624501 0.753334 0.149076 -0.272
N_ N_ 0.870118 0.743622 0.144435 -0.272
N_ N_ 0.614499 0.759344 0.0174504 -0.12501
N_ N_ 0.878428 0.730647 0.0142203 -0.12501
O_ O_ 0.589351 0.795341 0.218955 -0.60745
O_ O_ 0.845228 0.793853 0.214608 -0.60745
O_ O_ 0.592754 0.795151 0.286626 -0.60745
O_ O_ 0.846351 0.792294 0.282528 -0.60745
O_ O_ 0.653417 0.795866 0.289391 -0.60745
O_ O_ 0.907612 0.78772 0.2885 -0.60745
O_ O_ 0.650775 0.799039 0.221049 -0.60745
O_ O_ 0.907562 0.783702 0.217755 -0.60745
O_ O_ 0.65754 0.710156 0.285503 -0.60745
O_ O_ 0.905499 0.697909 0.288981 -0.60745
O_ O_ 0.655376 0.71157 0.217031 -0.60745
O_ O_ 0.903373 0.701667 0.218736 -0.60745
O_ O_ 0.594672 0.700133 0.217377 -0.60745
O_ O_ 0.840293 0.706144 0.216995 -0.60745
O_ O_ 0.595514 0.701495 0.286441 -0.60745
O_ O_ 0.842061 0.703686 0.284931 -0.60745
Zn Zn 0.626259 0.750504 0.790175 0.9476
Zn Zn 0.875759 0.750855 0.786414 0.9476
Zn Zn 0.623572 0.751735 0.7182 0.9476
Zn Zn 0.875727 0.752732 0.715885 0.9476
H_ H_ 0.526493 0.908889 0.687188 0.10932
H_ H_ 0.77127 0.904195 0.698236 0.10932
H_ H_ 0.579641 0.868458 0.818531 0.10932
H_ H_ 0.836548 0.87043 0.817911 0.10932
H_ H_ 0.557252 0.846847 0.688361 0.10932
H_ H_ 0.804183 0.844206 0.691504 0.10932
H_ H_ 0.54271 0.920095 0.82448 0.10932
H_ H_ 0.79847 0.925158 0.823433 0.10932
H_ H_ 0.715281 0.916059 0.826344 0.10932
H_ H_ 0.962832 0.923145 0.825533 0.10932
H_ H_ 0.682561 0.855634 0.687434 0.10932
H_ H_ 0.94744 0.848401 0.693166 0.10932
H_ H_ 0.688304 0.85198 0.823571 0.10932
H_ H_ 0.937282 0.8558 0.82585 0.10932
H_ H_ 0.714323 0.915555 0.689933 0.10932
H_ H_ 0.978988 0.912958 0.694851 0.10932
H_ H_ 0.721439 0.586806 0.821817 0.10932
H_ H_ 0.948499 0.569714 0.807566 0.10932
H_ H_ 0.67946 0.650461 0.692515 0.10932
H_ H_ 0.945229 0.655613 0.679481 0.10932
H_ H_ 0.697897 0.659079 0.824326 0.10932
H_ H_ 0.924503 0.642911 0.810974 0.10932
H_ H_ 0.710723 0.583437 0.689497 0.10932
H_ H_ 0.975149 0.596985 0.679531 0.10932
H_ H_ 0.534193 0.585085 0.682522 0.10932
H_ H_ 0.776076 0.591018 0.678638 0.10932
H_ H_ 0.565103 0.645288 0.822631 0.10932
H_ H_ 0.828304 0.635108 0.808813 0.10932
H_ H_ 0.561851 0.654334 0.684335 0.10932
H_ H_ 0.801833 0.662635 0.684176 0.10932
H_ H_ 0.542664 0.574862 0.819263 0.10932
H_ H_ 0.791944 0.57542 0.811374 0.10932
H_ H_ 0.618295 0.684356 0.864359 0.10932
H_ H_ 0.880776 0.684649 0.870657 0.10932
H_ H_ 0.62941 0.813619 0.861263 0.10932
H_ H_ 0.880254 0.813648 0.855854 0.10932
H_ H_ 0.626004 0.817997 0.939232 0.10932
H_ H_ 0.87477 0.821471 0.932149 0.10932
H_ H_ 0.621857 0.68735 0.942122 0.10932
H_ H_ 0.8699 0.688728 0.940903 0.10932
H_ H_ 0.6249 0.684446 0.649967 0.10932
H_ H_ 0.882596 0.820158 0.646424 0.10932
H_ H_ 0.624549 0.815725 0.64357 0.10932
H_ H_ 0.861131 0.693537 0.634738 0.10932
H_ H_ 0.618626 0.813214 0.564297 0.10932
H_ H_ 0.866594 0.695406 0.560217 0.10932
H_ H_ 0.62294 0.679751 0.573222 0.10932
H_ H_ 0.880936 0.823838 0.56465 0.10932
C_ C_ 0.56693 0.848112 0.755443 -0.02249
C_ C_ 0.821275 0.852108 0.753935 -0.02249
C_ C_ 0.514701 0.960648 0.753384 -0.02249
C_ C_ 0.766166 0.960015 0.762596 -0.02249
C_ C_ 0.534982 0.89744 0.717567 -0.11473
C_ C_ 0.786151 0.898599 0.721804 -0.11473
C_ C_ 0.56461 0.871879 0.792514 -0.11473
C_ C_ 0.821478 0.876339 0.791935 -0.11473
C_ C_ 0.552963 0.86283 0.717345 -0.11473
C_ C_ 0.804948 0.865038 0.718347 -0.11473
C_ C_ 0.53087 0.919847 0.756437 -0.02249
C_ C_ 0.783694 0.920919 0.760018 -0.02249
C_ C_ 0.584533 0.809429 0.7555 0.6875
C_ C_ 0.839255 0.814501 0.752325 0.6875
C_ C_ 0.544716 0.904824 0.79336 -0.11473
C_ C_ 0.80001 0.909184 0.794662 -0.11473
C_ C_ 0.681545 0.849345 0.755863 -0.02249
C_ C_ 0.936813 0.849683 0.758211 -0.02249
C_ C_ 0.734635 0.960478 0.758638 -0.02249
C_ C_ 0.985472 0.963949 0.759134 -0.02249
C_ C_ 0.706973 0.902741 0.794766 -0.11473
C_ C_ 0.959821 0.9054 0.797382 -0.11473
C_ C_ 0.688495 0.869864 0.717702 -0.11473
C_ C_ 0.950546 0.864066 0.720734 -0.11473
C_ C_ 0.69291 0.864339 0.793748 -0.11473
C_ C_ 0.942531 0.87122 0.796214 -0.11473
C_ C_ 0.716012 0.921424 0.757947 -0.02249
C_ C_ 0.970016 0.923517 0.759081 -0.02249
C_ C_ 0.662955 0.812018 0.755796 0.6875
C_ C_ 0.915888 0.812568 0.755676 0.6875
C_ C_ 0.705407 0.904856 0.71884 -0.11473
C_ C_ 0.967362 0.901489 0.722816 -0.11473
C_ C_ 0.687689 0.658298 0.757759 -0.02249
C_ C_ 0.933381 0.654363 0.744541 -0.02249
C_ C_ 0.73707 0.542615 0.753858 -0.02249
C_ C_ 0.982968 0.538713 0.746194 -0.02249
C_ C_ 0.715814 0.603972 0.795333 -0.11473
C_ C_ 0.949623 0.590708 0.781322 -0.11473
C_ C_ 0.691056 0.637998 0.71957 -0.11473
C_ C_ 0.94639 0.639526 0.709143 -0.11473
C_ C_ 0.70124 0.642295 0.795081 -0.11473
C_ C_ 0.935305 0.63031 0.781947 -0.11473
C_ C_ 0.720152 0.583145 0.756982 -0.02249
C_ C_ 0.965177 0.578355 0.745004 -0.02249
C_ C_ 0.66423 0.692646 0.758324 0.6875
C_ C_ 0.917785 0.69511 0.744517 0.6875
C_ C_ 0.706666 0.598597 0.720005 -0.11473
C_ C_ 0.965439 0.605291 0.710172 -0.11473
C_ C_ 0.566987 0.653686 0.752987 -0.02249
C_ C_ 0.819649 0.651036 0.745656 -0.02249
C_ C_ 0.516565 0.537923 0.748425 -0.02249
C_ C_ 0.767181 0.540216 0.74159 -0.02249
C_ C_ 0.543314 0.596852 0.712983 -0.11473
C_ C_ 0.790203 0.600662 0.705333 -0.11473
C_ C_ 0.560487 0.631132 0.790732 -0.11473
C_ C_ 0.815014 0.626596 0.781614 -0.11473
C_ C_ 0.557584 0.63663 0.713423 -0.11473
C_ C_ 0.805969 0.639718 0.708306 -0.11473
C_ C_ 0.535186 0.577112 0.749965 -0.02249
C_ C_ 0.786564 0.576913 0.741969 -0.02249
C_ C_ 0.587483 0.689712 0.754113 0.6875
C_ C_ 0.836318 0.689977 0.748384 0.6875
C_ C_ 0.546528 0.591767 0.78927 -0.11473
C_ C_ 0.79936 0.589592 0.780487 -0.11473
C_ C_ 0.618616 0.713884 0.880326 0.17695
C_ C_ 0.873762 0.714772 0.881977 0.17695
C_ C_ 0.626904 0.78576 0.878648 0.17695
C_ C_ 0.88098 0.786908 0.875993 0.17695
C_ C_ 0.625179 0.787433 0.922485 -0.11473
C_ C_ 0.8771 0.790825 0.918776 -0.11473
C_ C_ 0.623066 0.751545 0.946127 0.23465
C_ C_ 0.876802 0.756 0.945555 0.23465
C_ C_ 0.619206 0.714644 0.924497 -0.11473
C_ C_ 0.871973 0.718079 0.925209 -0.11473
C_ C_ 0.622507 0.712734 0.630127 0.17695
C_ C_ 0.878832 0.791772 0.625681 0.17695
C_ C_ 0.624961 0.78657 0.627588 0.17695
C_ C_ 0.864772 0.721968 0.619987 0.17695
C_ C_ 0.6226 0.785294 0.583596 -0.11473
C_ C_ 0.865305 0.724581 0.576955 -0.11473
C_ C_ 0.624614 0.74641 0.56163 0.23465
C_ C_ 0.869044 0.762282 0.555495 0.23465
C_ C_ 0.626801 0.710577 0.587338 -0.11473
C_ C_ 0.87597 0.795936 0.580528 -0.11473
C_ C_ 0.531313 -0.001495000000000024 0.750274 0.05793
C_ C_ 0.782129 -0.002670999999999979 0.760453 0.05793
C_ C_ 0.722731 0.503774 0.763422 0.05793
C_ C_ 0.968312 0.499101 0.744865 0.05793
Br Br 0.574975 -0.003265999999999991 0.750692 -0.17191
Br Br 0.824896 0.998775 0.749186 -0.17191
Br Br 0.68153 0.504245 0.777281 -0.17191
Br Br 0.926726 0.495422 0.734823 -0.17191
N_ N_ 0.621156 0.749227 0.858456 -0.272
N_ N_ 0.875112 0.748954 0.857598 -0.272
N_ N_ 0.631966 0.751662 0.9891 -0.12501
N_ N_ 0.876992 0.760873 0.990261 -0.12501
N_ N_ 0.622116 0.750111 0.648676 -0.272
N_ N_ 0.873422 0.754532 0.644244 -0.272
N_ N_ 0.629288 0.741637 0.518449 -0.12501
N_ N_ 0.876039 0.763092 0.511977 -0.12501
O_ O_ 0.593248 0.795602 0.721039 -0.60745
O_ O_ 0.844764 0.796541 0.718395 -0.60745
O_ O_ 0.594232 0.795174 0.789854 -0.60745
O_ O_ 0.844906 0.795392 0.787084 -0.60745
O_ O_ 0.657685 0.794795 0.79176 -0.60745
O_ O_ 0.907304 0.795991 0.789157 -0.60745
O_ O_ 0.654734 0.794937 0.722114 -0.60745
O_ O_ 0.905798 0.79909 0.720647 -0.60745
O_ O_ 0.656447 0.704541 0.79424 -0.60745
O_ O_ 0.909947 0.708773 0.780553 -0.60745
O_ O_ 0.65243 0.706426 0.722673 -0.60745
O_ O_ 0.909531 0.712413 0.710492 -0.60745
O_ O_ 0.592414 0.70712 0.718726 -0.60745
O_ O_ 0.846436 0.703657 0.714805 -0.60745
O_ O_ 0.595513 0.70727 0.788965 -0.60745
O_ O_ 0.845178 0.706357 0.783908 -0.60745
_cell_length_a 44.444
_cell_length_b 32.3360000049186
_cell_length_c 31.843999878906452
_cell_angle_alpha 89.99799923859553
_cell_angle_beta 91.13600050494348
_cell_angle_gamma 89.9990006550086
_symmetry_space_group_name_H-M         'P 1'
_symmetry_Int_Tables_number            1
loop_
_symmetry_equiv_pos_as_xyz
   'x, y, z'
                         
loop_
_atom_site_label
_atom_site_type_symbol
_atom_site_fract_x 
_atom_site_fract_y
_atom_site_fract_z
_atom_site_charge
Zn Zn 0.125981 0.247872 0.285122 0.9476
Zn Zn 0.372044 0.248002 0.276072 0.9476
Zn Zn 0.12661 0.249642 0.214629 0.9476
Zn Zn 0.372538 0.246849 0.205615 0.9476
H_ H_ 0.0320757 0.409213 0.177929 0.10932
H_ H_ 0.279188 0.416468 0.175677 0.10932
H_ H_ 0.0778402 0.363965 0.313182 0.10932
H_ H_ 0.320491 0.354936 0.306442 0.10932
H_ H_ 0.0548943 0.339183 0.182662 0.10932
H_ H_ 0.309904 0.356619 0.172637 0.10932
H_ H_ 0.0552451 0.429527 0.310447 0.10932
H_ H_ 0.292331 0.418373 0.313017 0.10932
H_ H_ 0.222656 0.416302 0.311589 0.10932
H_ H_ 0.457655 0.421113 0.308684 0.10932
H_ H_ 0.169808 0.360484 0.185131 0.10932
H_ H_ 0.444911 0.338529 0.177681 0.10932
H_ H_ 0.198382 0.347622 0.317445 0.10932
H_ H_ 0.424292 0.356655 0.305914 0.10932
H_ H_ 0.198836 0.425267 0.180499 0.10932
H_ H_ 0.471898 0.405235 0.174839 0.10932
H_ H_ 0.19442 0.0666452 0.314715 0.10932
H_ H_ 0.456654 0.0798049 0.320401 0.10932
H_ H_ 0.19135 0.149954 0.183206 0.10932
H_ H_ 0.444264 0.153424 0.186113 0.10932
H_ H_ 0.174447 0.135903 0.315096 0.10932
H_ H_ 0.427389 0.142615 0.316752 0.10932
H_ H_ 0.224808 0.0887684 0.18806 0.10932
H_ H_ 0.472963 0.0887739 0.187807 0.10932
H_ H_ 0.0454029 0.0725796 0.177271 0.10932
H_ H_ 0.287918 0.0677395 0.190209 0.10932
H_ H_ 0.050608 0.150601 0.309134 0.10932
H_ H_ 0.294465 0.16874 0.308172 0.10932
H_ H_ 0.0745254 0.13631 0.177181 0.10932
H_ H_ 0.321412 0.127586 0.183284 0.10932
H_ H_ 0.0154657 0.091701 0.302515 0.10932
H_ H_ 0.271926 0.0965155 0.3174 0.10932
H_ H_ 0.124355 0.315102 0.357789 0.10932
H_ H_ 0.376873 0.311819 0.347668 0.10932
H_ H_ 0.138568 0.185914 0.361753 0.10932
H_ H_ 0.36732 0.184266 0.356217 0.10932
H_ H_ 0.143937 0.189371 0.440999 0.10932
H_ H_ 0.372736 0.182884 0.43313 0.10932
H_ H_ 0.125427 0.319315 0.435255 0.10932
H_ H_ 0.375491 0.315886 0.425149 0.10932
H_ H_ 0.118572 0.320129 0.141743 0.10932
H_ H_ 0.371652 0.178986 0.131449 0.10932
H_ H_ 0.12421 0.190405 0.132982 0.10932
H_ H_ 0.362659 0.308217 0.128082 0.10932
H_ H_ 0.123794 0.195851 0.0575238 0.10932
H_ H_ 0.369736 0.30725 0.0514295 0.10932
H_ H_ 0.114156 0.324365 0.0659679 0.10932
H_ H_ 0.384892 0.177591 0.058426 0.10932
C_ C_ 0.0690808 0.346919 0.247779 -0.02249
C_ C_ 0.317694 0.348971 0.240075 -0.02249
C_ C_ 0.02049 0.461835 0.243805 -0.02249
C_ C_ 0.262862 0.463865 0.250299 -0.02249
C_ C_ 0.0395104 0.397195 0.208148 -0.11473
C_ C_ 0.287326 0.404243 0.206617 -0.11473
C_ C_ 0.0670394 0.371866 0.283111 -0.11473
C_ C_ 0.309607 0.36639 0.279146 -0.11473
C_ C_ 0.0542502 0.359092 0.210202 -0.11473
C_ C_ 0.304293 0.368231 0.203686 -0.11473
C_ C_ 0.0415061 0.425551 0.243866 -0.02249
C_ C_ 0.280769 0.422489 0.245132 -0.02249
C_ C_ 0.0865861 0.308608 0.250315 0.6875
C_ C_ 0.335967 0.310052 0.238382 0.6875
C_ C_ 0.054466 0.411214 0.28237 -0.11473
C_ C_ 0.292834 0.403304 0.282864 -0.11473
C_ C_ 0.183914 0.346683 0.251304 -0.02249
C_ C_ 0.435049 0.341068 0.242391 -0.02249
C_ C_ 0.231447 0.46313 0.244212 -0.02249
C_ C_ 0.484205 0.454829 0.239904 -0.02249
C_ C_ 0.213711 0.40164 0.284207 -0.11473
C_ C_ 0.454294 0.40147 0.278772 -0.11473
C_ C_ 0.184066 0.370104 0.212526 -0.11473
C_ C_ 0.448591 0.354456 0.207247 -0.11473
C_ C_ 0.198292 0.363806 0.287261 -0.11473
C_ C_ 0.436008 0.366401 0.277773 -0.11473
C_ C_ 0.215373 0.422231 0.245768 -0.02249
C_ C_ 0.467935 0.414611 0.242234 -0.02249
C_ C_ 0.16743 0.305813 0.252205 0.6875
C_ C_ 0.414646 0.30328 0.240637 0.6875
C_ C_ 0.202528 0.404975 0.208299 -0.11473
C_ C_ 0.463887 0.392227 0.20579 -0.11473
C_ C_ 0.180154 0.147508 0.249561 -0.02249
C_ C_ 0.430529 0.152421 0.249825 -0.02249
C_ C_ 0.230918 0.032904 0.251809 -0.02249
C_ C_ 0.484551 0.0395893 0.254509 -0.02249
C_ C_ 0.196109 0.0832513 0.286324 -0.11473
C_ C_ 0.456525 0.0979242 0.291913 -0.11473
C_ C_ 0.193108 0.132002 0.212664 -0.11473
C_ C_ 0.445872 0.137366 0.214641 -0.11473
C_ C_ 0.179926 0.122303 0.285027 -0.11473
C_ C_ 0.437292 0.131811 0.289353 -0.11473
C_ C_ 0.210476 0.0692178 0.248918 -0.02249
C_ C_ 0.465781 0.0785415 0.253828 -0.02249
C_ C_ 0.16482 0.189574 0.249469 0.6875
C_ C_ 0.408874 0.185845 0.246484 0.6875
C_ C_ 0.211084 0.0958311 0.214683 -0.11473
C_ C_ 0.462197 0.1009 0.21571 -0.11473
C_ C_ 0.0655454 0.152135 0.244052 -0.02249
C_ C_ 0.309113 0.155657 0.244243 -0.02249
C_ C_ 0.0125749 0.0378788 0.240563 -0.02249
C_ C_ 0.263632 0.0371962 0.260287 -0.02249
C_ C_ 0.0449666 0.0917438 0.204938 -0.11473
C_ C_ 0.289464 0.0888727 0.215903 -0.11473
C_ C_ 0.0481765 0.13671 0.278662 -0.11473
C_ C_ 0.29355 0.145727 0.281566 -0.11473
C_ C_ 0.0617855 0.127661 0.205571 -0.11473
C_ C_ 0.307318 0.12511 0.211437 -0.11473
C_ C_ 0.0288193 0.0783939 0.239923 -0.02249
C_ C_ 0.278295 0.0778495 0.254787 -0.02249
C_ C_ 0.0858575 0.188557 0.246997 0.6875
C_ C_ 0.333875 0.18797 0.244181 0.6875
C_ C_ 0.0310882 0.0993783 0.278002 -0.11473
C_ C_ 0.279962 0.10511 0.287671 -0.11473
C_ C_ 0.124045 0.287354 0.376759 0.17695
C_ C_ 0.37815 0.284125 0.3676 0.17695
C_ C_ 0.131984 0.213791 0.378969 0.17695
C_ C_ 0.37429 0.210381 0.37164 0.17695
C_ C_ 0.135349 0.214147 0.422448 -0.11473
C_ C_ 0.372638 0.2119 0.415061 -0.11473
C_ C_ 0.131512 0.253635 0.444898 0.23465
C_ C_ 0.374129 0.251605 0.43485 0.23465
C_ C_ 0.128261 0.289643 0.420833 -0.11473
C_ C_ 0.379548 0.286803 0.409774 -0.11473
C_ C_ 0.119858 0.29228 0.123586 0.17695
C_ C_ 0.375406 0.20787 0.115828 0.17695
C_ C_ 0.130461 0.220745 0.120283 0.17695
C_ C_ 0.369621 0.279748 0.112719 0.17695
C_ C_ 0.12947 0.222774 0.0758339 -0.11473
C_ C_ 0.371304 0.278347 0.0681635 -0.11473
C_ C_ 0.126022 0.260189 0.0550271 0.23465
C_ C_ 0.377224 0.241348 0.0481083 0.23465
C_ C_ 0.121042 0.295761 0.0796657 -0.11473
C_ C_ 0.381826 0.206414 0.0731715 -0.11473
C_ C_ 0.0333965 0.500736 0.237981 0.05793
C_ C_ 0.276992 0.502597 0.257905 0.05793
C_ C_ 0.218264 -0.007373999999999992 0.248461 0.05793
C_ C_ 0.468526 1.000467815 0.252881 0.05793
Br Br 0.0736053 0.504758 0.215993 -0.17191
Br Br 0.318598 0.503301 0.275913 -0.17191
Br Br 0.176204 -0.01587099999999997 0.234104 -0.17191
Br Br 0.424855 1.00141776 0.244524 -0.17191
N_ N_ 0.124819 0.249995 0.356519 -0.272
N_ N_ 0.374279 0.245947 0.348829 -0.272
N_ N_ 0.135372 0.258898 0.489707 -0.12501
N_ N_ 0.380058 0.254703 0.479117 -0.12501
N_ N_ 0.125959 0.256234 0.142289 -0.272
N_ N_ 0.370043 0.243899 0.136105 -0.272
N_ N_ 0.126999 0.266672 0.0106683 -0.12501
N_ N_ 0.373266 0.235941 0.0026158 -0.12501
O_ O_ 0.0979244 0.296124 0.216957 -0.60745
O_ O_ 0.344295 0.296379 0.202895 -0.60745
O_ O_ 0.0960136 0.294332 0.285355 -0.60745
O_ O_ 0.341148 0.289969 0.272559 -0.60745
O_ O_ 0.15681 0.293706 0.286034 -0.60745
O_ O_ 0.400844 0.293536 0.274284 -0.60745
O_ O_ 0.159662 0.288933 0.216609 -0.60745
O_ O_ 0.408564 0.287055 0.205101 -0.60745
O_ O_ 0.157608 0.205534 0.284002 -0.60745
O_ O_ 0.403259 0.205602 0.279365 -0.60745
O_ O_ 0.158176 0.205893 0.214527 -0.60745
O_ O_ 0.399671 0.198134 0.209742 -0.60745
O_ O_ 0.0928014 0.208393 0.214381 -0.60745
O_ O_ 0.340467 0.206128 0.210327 -0.60745
O_ O_ 0.0936138 0.201964 0.28275 -0.60745
O_ O_ 0.34336 0.201745 0.279567 -0.60745
Zn Zn 0.127047 0.253751 0.787325 0.9476
Zn Zn 0.374548 0.248003 0.777719 0.9476
Zn Zn 0.127312 0.252075 0.716624 0.9476
Zn Zn 0.371958 0.252365 0.705782 0.9476
H_ H_ 0.0431106 0.424767 0.685491 0.10932
H_ H_ 0.277303 0.411798 0.676201 0.10932
H_ H_ 0.072279 0.35671 0.821403 0.10932
H_ H_ 0.326275 0.365225 0.806399 0.10932
H_ H_ 0.0751305 0.367272 0.686568 0.10932
H_ H_ 0.307831 0.349796 0.672497 0.10932
H_ H_ 0.0358986 0.419265 0.819949 0.10932
H_ H_ 0.295391 0.426546 0.807718 0.10932
H_ H_ 0.231981 0.409709 0.812961 0.10932
H_ H_ 0.464386 0.416883 0.813153 0.10932
H_ H_ 0.177105 0.361618 0.686523 0.10932
H_ H_ 0.439149 0.355099 0.678944 0.10932
H_ H_ 0.205542 0.34582 0.817005 0.10932
H_ H_ 0.433824 0.353107 0.812804 0.10932
H_ H_ 0.204961 0.430061 0.685817 0.10932
H_ H_ 0.465975 0.418038 0.676322 0.10932
H_ H_ 0.231136 0.0972484 0.811021 0.10932
H_ H_ 0.474473 0.0938011 0.809442 0.10932
H_ H_ 0.171005 0.138023 0.688146 0.10932
H_ H_ 0.422277 0.129841 0.673527 0.10932
H_ H_ 0.195735 0.153499 0.817183 0.10932
H_ H_ 0.448282 0.164731 0.804124 0.10932
H_ H_ 0.209219 0.0824273 0.681491 0.10932
H_ H_ 0.452835 0.0691285 0.67916 0.10932
H_ H_ 0.0336953 0.0864785 0.688816 0.10932
H_ H_ 0.275041 0.0896796 0.673237 0.10932
H_ H_ 0.0707296 0.146445 0.827384 0.10932
H_ H_ 0.33436 0.127188 0.799315 0.10932
H_ H_ 0.0622493 0.153585 0.687916 0.10932
H_ H_ 0.3017 0.158772 0.673812 0.10932
H_ H_ 0.0469692 0.0795689 0.820144 0.10932
H_ H_ 0.304202 0.0672556 0.7984 0.10932
H_ H_ 0.130594 0.315582 0.863679 0.10932
H_ H_ 0.334163 0.244811 0.858305 0.10932
H_ H_ 0.129354 0.18678 0.852979 0.10932
H_ H_ 0.427505 0.232034 0.843027 0.10932
H_ H_ 0.129137 0.176622 0.92925 0.10932
H_ H_ 0.436547 0.232279 0.917705 0.10932
H_ H_ 0.129812 0.309009 0.94191 0.10932
H_ H_ 0.340605 0.245533 0.935149 0.10932
H_ H_ 0.107812 0.184755 0.642593 0.10932
H_ H_ 0.415938 0.2641 0.629654 0.10932
H_ H_ 0.141095 0.309471 0.636481 0.10932
H_ H_ 0.322463 0.23734 0.633343 0.10932
H_ H_ 0.137062 0.305199 0.560475 0.10932
H_ H_ 0.319813 0.231557 0.558131 0.10932
H_ H_ 0.119418 0.172536 0.570839 0.10932
H_ H_ 0.4149 0.261068 0.55318 0.10932
C_ C_ 0.0735963 0.356161 0.752469 -0.02249
C_ C_ 0.317346 0.350301 0.73786 -0.02249
C_ C_ 0.018166 0.464449 0.753348 -0.02249
C_ C_ 0.267439 0.464635 0.740997 -0.02249
C_ C_ 0.0468152 0.410937 0.716369 -0.11473
C_ C_ 0.287385 0.402035 0.705445 -0.11473
C_ C_ 0.0631123 0.371489 0.791945 -0.11473
C_ C_ 0.316357 0.373075 0.776374 -0.11473
C_ C_ 0.0650639 0.376025 0.714836 -0.11473
C_ C_ 0.303782 0.365782 0.703329 -0.11473
C_ C_ 0.0366156 0.426408 0.753695 -0.02249
C_ C_ 0.285321 0.42542 0.741957 -0.02249
C_ C_ 0.0913081 0.316111 0.752308 0.6875
C_ C_ 0.33496 0.312014 0.738917 0.6875
C_ C_ 0.0460152 0.408143 0.791861 -0.11473
C_ C_ 0.299652 0.411082 0.777647 -0.11473
C_ C_ 0.186381 0.349865 0.751763 -0.02249
C_ C_ 0.437129 0.347604 0.744847 -0.02249
C_ C_ 0.23593 0.464125 0.749183 -0.02249
C_ C_ 0.484103 0.463253 0.746988 -0.02249
C_ C_ 0.219359 0.402154 0.787815 -0.11473
C_ C_ 0.458454 0.404666 0.783615 -0.11473
C_ C_ 0.18863 0.372146 0.713757 -0.11473
C_ C_ 0.44552 0.368083 0.707273 -0.11473
C_ C_ 0.204347 0.363788 0.786673 -0.11473
C_ C_ 0.443332 0.366533 0.782493 -0.11473
C_ C_ 0.218392 0.424743 0.750829 -0.02249
C_ C_ 0.467078 0.423764 0.745827 -0.02249
C_ C_ 0.168767 0.311611 0.751518 0.6875
C_ C_ 0.417932 0.308787 0.742838 0.6875
C_ C_ 0.203898 0.410256 0.712552 -0.11473
C_ C_ 0.458001 0.406838 0.707046 -0.11473
C_ C_ 0.184389 0.155084 0.750072 -0.02249
C_ C_ 0.43253 0.152727 0.737424 -0.02249
C_ C_ 0.236752 0.040367 0.747417 -0.02249
C_ C_ 0.484481 0.0402622 0.746971 -0.02249
C_ C_ 0.218126 0.104871 0.78421 -0.11473
C_ C_ 0.465422 0.105772 0.779002 -0.11473
C_ C_ 0.186218 0.130427 0.714598 -0.11473
C_ C_ 0.43626 0.126681 0.701725 -0.11473
C_ C_ 0.198504 0.138256 0.786467 -0.11473
C_ C_ 0.449026 0.144292 0.77526 -0.11473
C_ C_ 0.221525 0.0811059 0.746844 -0.02249
C_ C_ 0.468565 0.0803528 0.742793 -0.02249
C_ C_ 0.16392 0.192795 0.751971 0.6875
C_ C_ 0.412825 0.188746 0.735872 0.6875
C_ C_ 0.207311 0.0974004 0.711242 -0.11473
C_ C_ 0.452076 0.089651 0.706414 -0.11473
C_ C_ 0.0681859 0.154414 0.757472 -0.02249
C_ C_ 0.317434 0.150126 0.740614 -0.02249
C_ C_ 0.0168729 0.0415693 0.756863 -0.02249
C_ C_ 0.268101 0.0368261 0.738505 -0.02249
C_ C_ 0.0415311 0.101518 0.71823 -0.11473
C_ C_ 0.285697 0.100499 0.701909 -0.11473
C_ C_ 0.0609226 0.136407 0.794829 -0.11473
C_ C_ 0.318548 0.122244 0.774067 -0.11473
C_ C_ 0.0582702 0.137696 0.718975 -0.11473
C_ C_ 0.300551 0.138389 0.703078 -0.11473
C_ C_ 0.0337158 0.082631 0.755574 -0.02249
C_ C_ 0.285798 0.0745775 0.736397 -0.02249
C_ C_ 0.0874077 0.193241 0.757904 0.6875
C_ C_ 0.334393 0.191132 0.742846 0.6875
C_ C_ 0.0450835 0.0990974 0.793536 -0.11473
C_ C_ 0.302614 0.0854374 0.772473 -0.11473
C_ C_ 0.133167 0.285873 0.879408 0.17695
C_ C_ 0.356602 0.244856 0.873555 0.17695
C_ C_ 0.13407 0.213738 0.873066 0.17695
C_ C_ 0.409533 0.238642 0.864136 0.17695
C_ C_ 0.131467 0.208049 0.916457 -0.11473
C_ C_ 0.414729 0.240694 0.906982 -0.11473
C_ C_ 0.129403 0.243289 0.941147 0.23465
C_ C_ 0.390107 0.242592 0.933642 0.23465
C_ C_ 0.130873 0.282548 0.922961 -0.11473
C_ C_ 0.361307 0.248973 0.915997 -0.11473
C_ C_ 0.120864 0.208169 0.627898 0.17695
C_ C_ 0.394375 0.2582 0.613597 0.17695
C_ C_ 0.13173 0.280376 0.62212 0.17695
C_ C_ 0.343257 0.239856 0.616324 0.17695
C_ C_ 0.132586 0.276672 0.57851 -0.11473
C_ C_ 0.342052 0.232983 0.573234 -0.11473
C_ C_ 0.126664 0.238425 0.558551 0.23465
C_ C_ 0.367297 0.240514 0.549498 0.23465
C_ C_ 0.122635 0.203139 0.583643 -0.11473
C_ C_ 0.394593 0.252716 0.570328 -0.11473
C_ C_ 0.0325116 0.504592 0.755662 0.05793
C_ C_ 0.283111 0.502459 0.739003 0.05793
C_ C_ 0.22001 0.00296419 0.755122 0.05793
C_ C_ 0.467858 1.0024892 0.751254 0.05793
Br Br 0.0761787 0.506262 0.759074 -0.17191
Br Br 0.324275 0.504615 0.718887 -0.17191
Br Br 0.179937 0.00767917 0.774847 -0.17191
Br Br 0.424364 1.004885 0.749042 -0.17191
N_ N_ 0.134262 0.252231 0.856623 -0.272
N_ N_ 0.38066 0.242823 0.847861 -0.272
N_ N_ 0.130308 0.237225 0.98638 -0.12501
N_ N_ 0.394706 0.24272 0.978561 -0.12501
N_ N_ 0.126339 0.245969 0.645108 -0.272
N_ N_ 0.369538 0.250672 0.636505 -0.272
N_ N_ 0.124989 0.232586 0.513628 -0.12501
N_ N_ 0.366021 0.232629 0.505514 -0.12501
O_ O_ 0.0958333 0.295452 0.719526 -0.60745
O_ O_ 0.347932 0.300676 0.705232 -0.60745
O_ O_ 0.100879 0.302008 0.7885 -0.60745
O_ O_ 0.343607 0.293891 0.773198 -0.60745
O_ O_ 0.162156 0.292173 0.785501 -0.60745
O_ O_ 0.408592 0.291985 0.777059 -0.60745
O_ O_ 0.157095 0.30005 0.716516 -0.60745
O_ O_ 0.408213 0.295027 0.708509 -0.60745
O_ O_ 0.154198 0.206506 0.78595 -0.60745
O_ O_ 0.40512 0.20365 0.770584 -0.60745
O_ O_ 0.156074 0.206978 0.717462 -0.60745
O_ O_ 0.400181 0.20206 0.70215 -0.60745
O_ O_ 0.0982569 0.205744 0.724253 -0.60745
O_ O_ 0.338569 0.210154 0.707521 -0.60745
O_ O_ 0.0924465 0.214388 0.791677 -0.60745
O_ O_ 0.344943 0.20631 0.77697 -0.60745
Zn Zn 0.119963 0.751863 0.284324 0.9476
Zn Zn 0.378393 0.746385 0.292355 0.9476
Zn Zn 0.121865 0.750149 0.21506 0.9476
Zn Zn 0.379069 0.747675 0.225648 0.9476
H_ H_ 0.0308543 0.9099 0.176513 0.10932
H_ H_ 0.293393 0.918625 0.191189 0.10932
H_ H_ 0.0734245 0.873638 0.311581 0.10932
H_ H_ 0.313883 0.844675 0.323428 0.10932
H_ H_ 0.0560467 0.843581 0.179804 0.10932
H_ H_ 0.327851 0.861271 0.191932 0.10932
H_ H_ 0.0407785 0.928905 0.307216 0.10932
H_ H_ 0.285602 0.910948 0.324537 0.10932
H_ H_ 0.228123 0.899575 0.318226 0.10932
H_ H_ 0.457198 0.924576 0.324445 0.10932
H_ H_ 0.195183 0.840406 0.187017 0.10932
H_ H_ 0.444862 0.8453 0.190346 0.10932
H_ H_ 0.184496 0.850939 0.31951 0.10932
H_ H_ 0.429392 0.860719 0.323892 0.10932
H_ H_ 0.2207 0.908607 0.184626 0.10932
H_ H_ 0.469069 0.917041 0.189724 0.10932
H_ H_ 0.198631 0.573768 0.310562 0.10932
H_ H_ 0.447008 0.557686 0.316014 0.10932
H_ H_ 0.196249 0.662704 0.18714 0.10932
H_ H_ 0.455676 0.66089 0.198646 0.10932
H_ H_ 0.166956 0.634538 0.310409 0.10932
H_ H_ 0.418141 0.624298 0.317663 0.10932
H_ H_ 0.221903 0.591765 0.183496 0.10932
H_ H_ 0.480567 0.596194 0.195057 0.10932
H_ H_ 0.0321368 0.592655 0.17516 0.10932
H_ H_ 0.305583 0.563886 0.196178 0.10932
H_ H_ 0.0660909 0.640265 0.315809 0.10932
H_ H_ 0.290177 0.672439 0.305683 0.10932
H_ H_ 0.0517094 0.658536 0.180895 0.10932
H_ H_ 0.343003 0.617565 0.207725 0.10932
H_ H_ 0.0374697 0.576359 0.311956 0.10932
H_ H_ 0.261177 0.608438 0.310107 0.10932
H_ H_ 0.143714 0.810386 0.361696 0.10932
H_ H_ 0.395272 0.686888 0.369661 0.10932
H_ H_ 0.107452 0.69069 0.355453 0.10932
H_ H_ 0.368655 0.809569 0.36404 0.10932
H_ H_ 0.10591 0.682853 0.430918 0.10932
H_ H_ 0.37261 0.817075 0.438563 0.10932
H_ H_ 0.150759 0.799775 0.44329 0.10932
H_ H_ 0.3868 0.686241 0.447854 0.10932
H_ H_ 0.109008 0.684431 0.144941 0.10932
H_ H_ 0.378626 0.813916 0.145089 0.10932
H_ H_ 0.134796 0.812548 0.137812 0.10932
H_ H_ 0.37653 0.683459 0.154953 0.10932
H_ H_ 0.131402 0.809717 0.061219 0.10932
H_ H_ 0.375459 0.677482 0.0794214 0.10932
H_ H_ 0.114886 0.681427 0.0649135 0.10932
H_ H_ 0.382052 0.807499 0.0676907 0.10932
C_ C_ 0.0655925 0.850287 0.248612 -0.02249
C_ C_ 0.324208 0.847572 0.255796 -0.02249
C_ C_ 0.0123328 0.960394 0.23687 -0.02249
C_ C_ 0.268166 0.961196 0.256826 -0.02249
C_ C_ 0.03872 0.901035 0.205539 -0.11473
C_ C_ 0.301358 0.908092 0.220836 -0.11473
C_ C_ 0.0616229 0.876821 0.28202 -0.11473
C_ C_ 0.309042 0.860104 0.293145 -0.11473
C_ C_ 0.0532533 0.862788 0.209265 -0.11473
C_ C_ 0.318966 0.871022 0.220491 -0.11473
C_ C_ 0.0295437 0.922137 0.241808 -0.02249
C_ C_ 0.288228 0.922383 0.257304 -0.02249
C_ C_ 0.0827234 0.811185 0.252957 0.6875
C_ C_ 0.339636 0.808169 0.255746 0.6875
C_ C_ 0.0409927 0.910256 0.279885 -0.11473
C_ C_ 0.292483 0.897955 0.293837 -0.11473
C_ C_ 0.18642 0.843828 0.25072 -0.02249
C_ C_ 0.436297 0.845006 0.257462 -0.02249
C_ C_ 0.237069 0.957181 0.250443 -0.02249
C_ C_ 0.484718 0.962692 0.255399 -0.02249
C_ C_ 0.218017 0.892264 0.28837 -0.11473
C_ C_ 0.453549 0.908898 0.293585 -0.11473
C_ C_ 0.200844 0.855926 0.213886 -0.11473
C_ C_ 0.447288 0.862627 0.218935 -0.11473
C_ C_ 0.196602 0.86034 0.289072 -0.11473
C_ C_ 0.438309 0.870718 0.292808 -0.11473
C_ C_ 0.223488 0.913699 0.250134 -0.02249
C_ C_ 0.467194 0.924241 0.257233 -0.02249
C_ C_ 0.161459 0.810625 0.250035 0.6875
C_ C_ 0.419 0.804996 0.258044 0.6875
C_ C_ 0.215244 0.892514 0.213573 -0.11473
C_ C_ 0.460767 0.902555 0.218889 -0.11473
C_ C_ 0.17902 0.653185 0.248967 -0.02249
C_ C_ 0.435732 0.647821 0.25953 -0.02249
C_ C_ 0.229531 0.539952 0.247509 -0.02249
C_ C_ 0.481116 0.530865 0.252628 -0.02249
C_ C_ 0.19815 0.591936 0.283491 -0.11473
C_ C_ 0.447469 0.580097 0.289975 -0.11473
C_ C_ 0.195051 0.640795 0.212986 -0.11473
C_ C_ 0.454301 0.639683 0.225221 -0.11473
C_ C_ 0.181268 0.627626 0.284265 -0.11473
C_ C_ 0.433697 0.619885 0.293319 -0.11473
C_ C_ 0.211674 0.578723 0.246478 -0.02249
C_ C_ 0.464716 0.571205 0.25579 -0.02249
C_ C_ 0.158632 0.689025 0.246536 0.6875
C_ C_ 0.414719 0.684946 0.257569 0.6875
C_ C_ 0.208924 0.602507 0.210638 -0.11473
C_ C_ 0.468648 0.601882 0.223136 -0.11473
C_ C_ 0.0638626 0.653074 0.249463 -0.02249
C_ C_ 0.32116 0.648993 0.257492 -0.02249
C_ C_ 0.0164714 0.536161 0.241259 -0.02249
C_ C_ 0.262377 0.540228 0.251208 -0.02249
C_ C_ 0.0379568 0.602763 0.206273 -0.11473
C_ C_ 0.302956 0.5861 0.221471 -0.11473
C_ C_ 0.0565858 0.631051 0.284579 -0.11473
C_ C_ 0.294803 0.646614 0.284165 -0.11473
C_ C_ 0.0519894 0.639301 0.209568 -0.11473
C_ C_ 0.324498 0.617698 0.22739 -0.11473
C_ C_ 0.03041 0.578659 0.242278 -0.02249
C_ C_ 0.279892 0.581299 0.251017 -0.02249
C_ C_ 0.0804527 0.693737 0.250254 0.6875
C_ C_ 0.339988 0.686113 0.259668 0.6875
C_ C_ 0.040342 0.593443 0.28202 -0.11473
C_ C_ 0.276162 0.611551 0.284477 -0.11473
C_ C_ 0.141095 0.780176 0.377628 0.17695
C_ C_ 0.387544 0.714553 0.384434 0.17695
C_ C_ 0.118879 0.712902 0.374414 0.17695
C_ C_ 0.375401 0.784107 0.380666 0.17695
C_ C_ 0.113082 0.711838 0.417326 -0.11473
C_ C_ 0.373881 0.786551 0.424431 -0.11473
C_ C_ 0.126646 0.743139 0.442108 0.23465
C_ C_ 0.377753 0.751684 0.450235 0.23465
C_ C_ 0.139486 0.777979 0.42305 -0.11473
C_ C_ 0.381944 0.71466 0.428402 -0.11473
C_ C_ 0.11432 0.712878 0.125268 0.17695
C_ C_ 0.37995 0.784325 0.12982 0.17695
C_ C_ 0.128436 0.783491 0.121664 0.17695
C_ C_ 0.37647 0.711073 0.1363 0.17695
C_ C_ 0.129247 0.781213 0.0779523 -0.11473
C_ C_ 0.37636 0.706821 0.0918161 -0.11473
C_ C_ 0.123235 0.743798 0.0581772 0.23465
C_ C_ 0.378378 0.743109 0.066106 0.23465
C_ C_ 0.119454 0.708267 0.0816706 -0.11473
C_ C_ 0.381775 0.780805 0.0857432 -0.11473
C_ C_ 0.0282847 0.999705 0.235127 0.05793
C_ C_ 0.281244 1.00038 0.262815 0.05793
C_ C_ 0.214903 0.500328 0.242651 0.05793
C_ C_ 0.466822 0.492036 0.244703 0.05793
Br Br 0.0727835 -0.0026490000000000125 0.233653 -0.17191
Br Br 0.323837 1.00227707 0.268949 -0.17191
Br Br 0.170009 0.499417 0.238409 -0.17191
Br Br 0.424574 0.485138 0.240979 -0.17191
N_ N_ 0.126501 0.749595 0.355292 -0.272
N_ N_ 0.382279 0.748346 0.361272 -0.272
N_ N_ 0.130591 0.737025 0.487255 -0.12501
N_ N_ 0.380731 0.75558 0.49469 -0.12501
N_ N_ 0.122682 0.748862 0.144655 -0.272
N_ N_ 0.376989 0.748385 0.154378 -0.272
N_ N_ 0.124093 0.740087 0.0125042 -0.12501
N_ N_ 0.382916 0.737583 0.0208939 -0.12501
O_ O_ 0.0902246 0.791973 0.219704 -0.60745
O_ O_ 0.349189 0.792458 0.222922 -0.60745
O_ O_ 0.0922704 0.799354 0.288613 -0.60745
O_ O_ 0.347739 0.792238 0.290636 -0.60745
O_ O_ 0.153523 0.792385 0.283088 -0.60745
O_ O_ 0.407368 0.790596 0.292448 -0.60745
O_ O_ 0.152853 0.79721 0.213747 -0.60745
O_ O_ 0.411033 0.789845 0.222479 -0.60745
O_ O_ 0.146055 0.700295 0.279359 -0.60745
O_ O_ 0.409288 0.70339 0.290806 -0.60745
O_ O_ 0.150186 0.702714 0.209251 -0.60745
O_ O_ 0.407215 0.701106 0.222339 -0.60745
O_ O_ 0.0872046 0.70829 0.214993 -0.60745
O_ O_ 0.347313 0.705639 0.226327 -0.60745
O_ O_ 0.0853222 0.713571 0.283613 -0.60745
O_ O_ 0.346659 0.702828 0.295138 -0.60745
Zn Zn 0.123381 0.751471 0.784006 0.9476
Zn Zn 0.374819 0.752231 0.791767 0.9476
Zn Zn 0.122298 0.752943 0.713182 0.9476
Zn Zn 0.374208 0.754479 0.721703 0.9476
H_ H_ 0.0472404 0.929679 0.687783 0.10932
H_ H_ 0.2756 0.900052 0.685822 0.10932
H_ H_ 0.0613763 0.849654 0.818082 0.10932
H_ H_ 0.309566 0.850291 0.821114 0.10932
H_ H_ 0.0668176 0.861694 0.679678 0.10932
H_ H_ 0.312046 0.847518 0.686863 0.10932
H_ H_ 0.0316071 0.914889 0.820043 0.10932
H_ H_ 0.287617 0.919622 0.819529 0.10932
H_ H_ 0.204415 0.924986 0.816695 0.10932
H_ H_ 0.480318 0.904685 0.812813 0.10932
H_ H_ 0.186268 0.853165 0.680546 0.10932
H_ H_ 0.422577 0.866782 0.685713 0.10932
H_ H_ 0.171748 0.863164 0.817928 0.10932
H_ H_ 0.448697 0.845657 0.816562 0.10932
H_ H_ 0.215762 0.917633 0.68451 0.10932
H_ H_ 0.453932 0.930038 0.686383 0.10932
H_ H_ 0.231547 0.599457 0.809833 0.10932
H_ H_ 0.472076 0.585365 0.816412 0.10932
H_ H_ 0.168443 0.633218 0.684966 0.10932
H_ H_ 0.431322 0.647779 0.68895 0.10932
H_ H_ 0.193619 0.653904 0.813106 0.10932
H_ H_ 0.450722 0.655936 0.818144 0.10932
H_ H_ 0.195743 0.568717 0.686201 0.10932
H_ H_ 0.460009 0.582913 0.684518 0.10932
H_ H_ 0.0306718 0.581681 0.684401 0.10932
H_ H_ 0.272856 0.604361 0.686464 0.10932
H_ H_ 0.0555583 0.658211 0.815638 0.10932
H_ H_ 0.33724 0.629913 0.814279 0.10932
H_ H_ 0.0582263 0.645012 0.681096 0.10932
H_ H_ 0.301807 0.667187 0.693364 0.10932
H_ H_ 0.0286507 0.588603 0.817526 0.10932
H_ H_ 0.303892 0.566387 0.807454 0.10932
H_ H_ 0.134027 0.819542 0.854044 0.10932
H_ H_ 0.363217 0.819097 0.862726 0.10932
H_ H_ 0.12485 0.692029 0.857787 0.10932
H_ H_ 0.385394 0.694611 0.869133 0.10932
H_ H_ 0.122848 0.696552 0.937675 0.10932
H_ H_ 0.38147 0.691668 0.947512 0.10932
H_ H_ 0.125221 0.828343 0.930609 0.10932
H_ H_ 0.361796 0.82442 0.940599 0.10932
H_ H_ 0.13355 0.69126 0.632723 0.10932
H_ H_ 0.379706 0.809869 0.642146 0.10932
H_ H_ 0.12159 0.823389 0.641111 0.10932
H_ H_ 0.371297 0.681694 0.657333 0.10932
H_ H_ 0.116173 0.82602 0.567004 0.10932
H_ H_ 0.372474 0.669494 0.58061 0.10932
H_ H_ 0.141873 0.696023 0.559661 0.10932
H_ H_ 0.370611 0.804691 0.56491 0.10932
C_ C_ 0.0673485 0.850311 0.747721 -0.02249
C_ C_ 0.31614 0.847084 0.752127 -0.02249
C_ C_ 0.0187347 0.964308 0.757336 -0.02249
C_ C_ 0.265126 0.960192 0.747013 -0.02249
C_ C_ 0.0486526 0.912171 0.715038 -0.11473
C_ C_ 0.290373 0.899648 0.712233 -0.11473
C_ C_ 0.0559028 0.86485 0.787793 -0.11473
C_ C_ 0.305736 0.866119 0.789737 -0.11473
C_ C_ 0.0598573 0.872692 0.710081 -0.11473
C_ C_ 0.309708 0.867016 0.714392 -0.11473
C_ C_ 0.0364539 0.925048 0.753197 -0.02249
C_ C_ 0.281143 0.919572 0.750162 -0.02249
C_ C_ 0.0873427 0.814048 0.747664 0.6875
C_ C_ 0.336302 0.809474 0.751641 0.6875
C_ C_ 0.039706 0.901597 0.788613 -0.11473
C_ C_ 0.290016 0.903624 0.790318 -0.11473
C_ C_ 0.1775 0.850962 0.747064 -0.02249
C_ C_ 0.433973 0.851011 0.751609 -0.02249
C_ C_ 0.233038 0.961487 0.750888 -0.02249
C_ C_ 0.48387 0.963597 0.754663 -0.02249
C_ C_ 0.200733 0.907109 0.787379 -0.11473
C_ C_ 0.466453 0.898457 0.785515 -0.11473
C_ C_ 0.19087 0.867379 0.710045 -0.11473
C_ C_ 0.437707 0.872391 0.713322 -0.11473
C_ C_ 0.181707 0.872379 0.786501 -0.11473
C_ C_ 0.447873 0.865038 0.787894 -0.11473
C_ C_ 0.21606 0.921316 0.75227 -0.02249
C_ C_ 0.467897 0.923543 0.751026 -0.02249
C_ C_ 0.16023 0.810847 0.74572 0.6875
C_ C_ 0.414392 0.813867 0.753232 0.6875
C_ C_ 0.209371 0.901467 0.713236 -0.11473
C_ C_ 0.453541 0.909855 0.71342 -0.11473
C_ C_ 0.181457 0.653438 0.748193 -0.02249
C_ C_ 0.434783 0.655125 0.754552 -0.02249
C_ C_ 0.236579 0.54115 0.746788 -0.02249
C_ C_ 0.48505 0.53866 0.747589 -0.02249
C_ C_ 0.219594 0.608338 0.780959 -0.11473
C_ C_ 0.464848 0.600856 0.787661 -0.11473
C_ C_ 0.181325 0.627108 0.71255 -0.11473
C_ C_ 0.440143 0.635641 0.715587 -0.11473
C_ C_ 0.198928 0.640763 0.784045 -0.11473
C_ C_ 0.449635 0.638035 0.790667 -0.11473
C_ C_ 0.219806 0.581915 0.745289 -0.02249
C_ C_ 0.46882 0.581053 0.750383 -0.02249
C_ C_ 0.159494 0.687155 0.748133 0.6875
C_ C_ 0.412757 0.691328 0.755939 0.6875
C_ C_ 0.19909 0.5901 0.711594 -0.11473
C_ C_ 0.456882 0.599706 0.713646 -0.11473
C_ C_ 0.0639272 0.65408 0.749173 -0.02249
C_ C_ 0.320604 0.653772 0.755472 -0.02249
C_ C_ 0.01361 0.540215 0.754356 -0.02249
C_ C_ 0.268223 0.541255 0.74504 -0.02249
C_ C_ 0.0375182 0.597005 0.714252 -0.11473
C_ C_ 0.288515 0.607201 0.711867 -0.11473
C_ C_ 0.0521661 0.639875 0.787509 -0.11473
C_ C_ 0.320805 0.625533 0.788057 -0.11473
C_ C_ 0.0548991 0.631751 0.712178 -0.11473
C_ C_ 0.304714 0.643345 0.7167 -0.11473
C_ C_ 0.0282198 0.580804 0.751947 -0.02249
C_ C_ 0.286459 0.581019 0.74711 -0.02249
C_ C_ 0.0810798 0.694639 0.748894 0.6875
C_ C_ 0.338386 0.692839 0.758067 0.6875
C_ C_ 0.0375916 0.600958 0.789208 -0.11473
C_ C_ 0.304163 0.589647 0.783744 -0.11473
C_ C_ 0.125472 0.795603 0.872226 0.17695
C_ C_ 0.369267 0.79316 0.882061 0.17695
C_ C_ 0.124929 0.72314 0.87514 0.17695
C_ C_ 0.382073 0.721882 0.885525 0.17695
C_ C_ 0.125781 0.724392 0.920731 -0.11473
C_ C_ 0.380938 0.721962 0.930912 -0.11473
C_ C_ 0.125488 0.764262 0.943077 0.23465
C_ C_ 0.374586 0.759247 0.950478 0.23465
C_ C_ 0.126178 0.79863 0.915069 -0.11473
C_ C_ 0.366748 0.794524 0.926697 -0.11473
C_ C_ 0.133165 0.721619 0.619585 0.17695
C_ C_ 0.374886 0.779888 0.628043 0.17695
C_ C_ 0.122501 0.792585 0.625046 0.17695
C_ C_ 0.369946 0.708053 0.63643 0.17695
C_ C_ 0.122155 0.795368 0.581884 -0.11473
C_ C_ 0.370083 0.702682 0.591712 -0.11473
C_ C_ 0.128201 0.761028 0.556389 0.23465
C_ C_ 0.372647 0.736422 0.564634 0.23465
C_ C_ 0.135875 0.724053 0.575866 -0.11473
C_ C_ 0.374993 0.77667 0.583888 -0.11473
C_ C_ 0.0330417 0.00286869 0.758324 0.05793
C_ C_ 0.281425 -0.0028369999999999784 0.736103 0.05793
C_ C_ 0.220889 0.502889 0.752115 0.05793
C_ C_ 0.469299 0.501085 0.744789 0.05793
Br Br 0.0775397 0.00350321 0.760099 -0.17191
Br Br 0.32362 -0.006036999999999959 0.723162 -0.17191
Br Br 0.176401 0.504803 0.753457 -0.17191
Br Br 0.427633 0.501407 0.731494 -0.17191
N_ N_ 0.124052 0.758653 0.852812 -0.272
N_ N_ 0.374088 0.756873 0.863076 -0.272
N_ N_ 0.130023 0.768322 0.987663 -0.12501
N_ N_ 0.370458 0.761395 0.994213 -0.12501
N_ N_ 0.125984 0.754843 0.642964 -0.272
N_ N_ 0.370155 0.746999 0.65355 -0.272
N_ N_ 0.130396 0.767383 0.511946 -0.12501
N_ N_ 0.369937 0.73006 0.519882 -0.12501
O_ O_ 0.0947472 0.797509 0.713043 -0.60745
O_ O_ 0.347425 0.798272 0.717724 -0.60745
O_ O_ 0.0921166 0.794764 0.781729 -0.60745
O_ O_ 0.342293 0.792648 0.786293 -0.60745
O_ O_ 0.153021 0.795744 0.780949 -0.60745
O_ O_ 0.405567 0.801055 0.787519 -0.60745
O_ O_ 0.156561 0.790242 0.712896 -0.60745
O_ O_ 0.409998 0.792802 0.720355 -0.60745
O_ O_ 0.155483 0.705392 0.782973 -0.60745
O_ O_ 0.407158 0.708008 0.790756 -0.60745
O_ O_ 0.148253 0.700828 0.712128 -0.60745
O_ O_ 0.403341 0.708614 0.722255 -0.60745
O_ O_ 0.0867512 0.713661 0.714575 -0.60745
O_ O_ 0.340586 0.715206 0.727152 -0.60745
O_ O_ 0.0945238 0.706689 0.783329 -0.60745
O_ O_ 0.347362 0.704369 0.792217 -0.60745
Zn Zn 0.625437 0.248462 0.282342 0.9476
Zn Zn 0.873072 0.251463 0.286534 0.9476
Zn Zn 0.624237 0.246265 0.213943 0.9476
Zn Zn 0.870905 0.252691 0.215371 0.9476
H_ H_ 0.524103 0.401878 0.18195 0.10932
H_ H_ 0.764905 0.404203 0.187734 0.10932
H_ H_ 0.571244 0.355437 0.316678 0.10932
H_ H_ 0.825717 0.362015 0.312816 0.10932
H_ H_ 0.553548 0.337785 0.182512 0.10932
H_ H_ 0.800127 0.351102 0.180286 0.10932
H_ H_ 0.548587 0.425319 0.311353 0.10932
H_ H_ 0.793487 0.424768 0.315728 0.10932
H_ H_ 0.721022 0.40925 0.312827 0.10932
H_ H_ 0.980763 0.403441 0.317376 0.10932
H_ H_ 0.674243 0.357349 0.182889 0.10932
H_ H_ 0.925806 0.364441 0.187505 0.10932
H_ H_ 0.705036 0.334746 0.307855 0.10932
H_ H_ 0.942289 0.347875 0.320475 0.10932
H_ H_ 0.701073 0.424932 0.179039 0.10932
H_ H_ 0.964077 0.418167 0.182203 0.10932
H_ H_ 0.718633 0.0842118 0.314945 0.10932
H_ H_ 0.958623 0.0707522 0.313068 0.10932
H_ H_ 0.683069 0.145791 0.179191 0.10932
H_ H_ 0.923089 0.141248 0.181804 0.10932
H_ H_ 0.685046 0.144268 0.314455 0.10932
H_ H_ 0.930573 0.137544 0.319849 0.10932
H_ H_ 0.70991 0.0768023 0.181825 0.10932
H_ H_ 0.962069 0.0877864 0.180483 0.10932
H_ H_ 0.544536 0.0670331 0.187456 0.10932
H_ H_ 0.774491 0.0928905 0.184745 0.10932
H_ H_ 0.545933 0.16103 0.31295 0.10932
H_ H_ 0.817566 0.146432 0.317782 0.10932
H_ H_ 0.575391 0.128677 0.185965 0.10932
H_ H_ 0.808238 0.151234 0.18315 0.10932
H_ H_ 0.529605 0.0874048 0.319952 0.10932
H_ H_ 0.796353 0.0765485 0.313698 0.10932
H_ H_ 0.619251 0.178343 0.354562 0.10932
H_ H_ 0.874984 0.17932 0.365205 0.10932
H_ H_ 0.617793 0.310085 0.36182 0.10932
H_ H_ 0.869331 0.316091 0.366899 0.10932
H_ H_ 0.614179 0.305013 0.436681 0.10932
H_ H_ 0.873675 0.314542 0.444859 0.10932
H_ H_ 0.621899 0.175383 0.432445 0.10932
H_ H_ 0.872621 0.18264 0.439414 0.10932
H_ H_ 0.623663 0.185785 0.138297 0.10932
H_ H_ 0.881334 0.322008 0.141427 0.10932
H_ H_ 0.629195 0.316764 0.144787 0.10932
H_ H_ 0.860422 0.193681 0.135389 0.10932
H_ H_ 0.627491 0.325694 0.0675444 0.10932
H_ H_ 0.86582 0.193947 0.0591567 0.10932
H_ H_ 0.626881 0.194151 0.0554087 0.10932
H_ H_ 0.875788 0.327828 0.0661096 0.10932
C_ C_ 0.564875 0.342422 0.247679 -0.02249
C_ C_ 0.814406 0.349868 0.247208 -0.02249
C_ C_ 0.51597 0.45693 0.244957 -0.02249
C_ C_ 0.762261 0.46461 0.249908 -0.02249
C_ C_ 0.53562 0.392962 0.209749 -0.11473
C_ C_ 0.777902 0.395692 0.215678 -0.11473
C_ C_ 0.56223 0.367769 0.285585 -0.11473
C_ C_ 0.812188 0.370734 0.285054 -0.11473
C_ C_ 0.549857 0.355587 0.210853 -0.11473
C_ C_ 0.799988 0.364802 0.212383 -0.11473
C_ C_ 0.53327 0.41749 0.246601 -0.02249
C_ C_ 0.778398 0.422565 0.251704 -0.02249
C_ C_ 0.58597 0.306116 0.249556 0.6875
C_ C_ 0.833912 0.312949 0.246431 0.6875
C_ C_ 0.54472 0.4031 0.285217 -0.11473
C_ C_ 0.794784 0.408678 0.286505 -0.11473
C_ C_ 0.685299 0.343351 0.247039 -0.02249
C_ C_ 0.932258 0.350516 0.254058 -0.02249
C_ C_ 0.730671 0.462468 0.249871 -0.02249
C_ C_ 0.990119 0.458868 0.253691 -0.02249
C_ C_ 0.714312 0.395955 0.282528 -0.11473
C_ C_ 0.969809 0.395649 0.289324 -0.11473
C_ C_ 0.683944 0.368322 0.210587 -0.11473
C_ C_ 0.936619 0.374635 0.216587 -0.11473
C_ C_ 0.702421 0.355747 0.280815 -0.11473
C_ C_ 0.946445 0.365025 0.291261 -0.11473
C_ C_ 0.713428 0.421885 0.24631 -0.02249
C_ C_ 0.973523 0.419111 0.251889 -0.02249
C_ C_ 0.665505 0.304457 0.250059 0.6875
C_ C_ 0.910974 0.313784 0.25423 0.6875
C_ C_ 0.698731 0.407505 0.20755 -0.11473
C_ C_ 0.958847 0.405762 0.214282 -0.11473
C_ C_ 0.681847 0.149016 0.247287 -0.02249
C_ C_ 0.926951 0.148181 0.251238 -0.02249
C_ C_ 0.73391 0.03739 0.246229 -0.02249
C_ C_ 0.980944 0.036516 0.243234 -0.02249
C_ C_ 0.711739 0.0967354 0.284909 -0.11473
C_ C_ 0.954443 0.0908326 0.286592 -0.11473
C_ C_ 0.690733 0.132242 0.208745 -0.11473
C_ C_ 0.933446 0.130858 0.211412 -0.11473
C_ C_ 0.69274 0.131353 0.284992 -0.11473
C_ C_ 0.939649 0.129413 0.289771 -0.11473
C_ C_ 0.717694 0.077751 0.245994 -0.02249
C_ C_ 0.963125 0.0758534 0.246988 -0.02249
C_ C_ 0.659613 0.185262 0.250517 0.6875
C_ C_ 0.911055 0.190793 0.252623 0.6875
C_ C_ 0.705993 0.0945114 0.208702 -0.11473
C_ C_ 0.953706 0.0978353 0.21149 -0.11473
C_ C_ 0.562619 0.150784 0.248942 -0.02249
C_ C_ 0.817401 0.15033 0.249462 -0.02249
C_ C_ 0.51673 0.038817 0.256566 -0.02249
C_ C_ 0.766493 0.0370933 0.245984 -0.02249
C_ C_ 0.544177 0.0872099 0.213991 -0.11473
C_ C_ 0.785356 0.10236 0.212716 -0.11473
C_ C_ 0.545395 0.142021 0.284742 -0.11473
C_ C_ 0.810404 0.132247 0.287884 -0.11473
C_ C_ 0.559858 0.125059 0.212851 -0.11473
C_ C_ 0.803828 0.137495 0.212514 -0.11473
C_ C_ 0.532334 0.0763804 0.25313 -0.02249
C_ C_ 0.782075 0.0797387 0.249051 -0.02249
C_ C_ 0.582802 0.188948 0.249259 0.6875
C_ C_ 0.833008 0.192653 0.250536 0.6875
C_ C_ 0.535066 0.101123 0.288601 -0.11473
C_ C_ 0.794266 0.0955766 0.286512 -0.11473
C_ C_ 0.618585 0.207673 0.371464 0.17695
C_ C_ 0.871535 0.210871 0.381162 0.17695
C_ C_ 0.620507 0.279047 0.375037 0.17695
C_ C_ 0.869689 0.285016 0.381186 0.17695
C_ C_ 0.619296 0.276812 0.41837 -0.11473
C_ C_ 0.870733 0.2857 0.4256 -0.11473
C_ C_ 0.620558 0.240841 0.44023 0.23465
C_ C_ 0.872144 0.247927 0.448237 0.23465
C_ C_ 0.622583 0.205092 0.416774 -0.11473
C_ C_ 0.875259 0.211453 0.424257 -0.11473
C_ C_ 0.623275 0.217236 0.120902 0.17695
C_ C_ 0.877379 0.293135 0.123532 0.17695
C_ C_ 0.628358 0.289662 0.125039 0.17695
C_ C_ 0.866911 0.222137 0.119642 0.17695
C_ C_ 0.628161 0.29478 0.0823244 -0.11473
C_ C_ 0.863545 0.223786 0.0761476 -0.11473
C_ C_ 0.627152 0.258262 0.0570781 0.23465
C_ C_ 0.867458 0.262162 0.0556481 0.23465
C_ C_ 0.625358 0.220015 0.0768649 -0.11473
C_ C_ 0.873923 0.297132 0.080702 -0.11473
C_ C_ 0.530705 0.495105 0.249333 0.05793
C_ C_ 0.778225 0.502152 0.251348 0.05793
C_ C_ 0.717516 0.998404 0.246082 0.05793
C_ C_ 0.964426 0.998221 0.238549 0.05793
Br Br 0.573286 0.497788 0.246646 -0.17191
Br Br 0.822318 0.502279 0.256556 -0.17191
Br Br 0.673416 0.00019999999999997797 0.240963 -0.17191
Br Br 0.9219 4.59335e-07 0.254606 -0.17191
N_ N_ 0.620362 0.245257 0.350697 -0.272
N_ N_ 0.869814 0.248262 0.359669 -0.272
N_ N_ 0.628265 0.237511 0.484059 -0.12501
N_ N_ 0.877447 0.246367 0.492102 -0.12501
N_ N_ 0.627964 0.251394 0.144018 -0.272
N_ N_ 0.869759 0.257882 0.143792 -0.272
N_ N_ 0.631912 0.262277 0.0126785 -0.12501
N_ N_ 0.864571 0.264731 0.0104185 -0.12501
O_ O_ 0.591848 0.287975 0.215883 -0.60745
O_ O_ 0.840263 0.294983 0.211627 -0.60745
O_ O_ 0.59864 0.296223 0.283521 -0.60745
O_ O_ 0.841791 0.295705 0.28224 -0.60745
O_ O_ 0.659785 0.289584 0.285077 -0.60745
O_ O_ 0.90271 0.298684 0.289211 -0.60745
O_ O_ 0.655442 0.288163 0.216199 -0.60745
O_ O_ 0.902922 0.296189 0.219822 -0.60745
O_ O_ 0.652146 0.20098 0.28409 -0.60745
O_ O_ 0.90495 0.208119 0.287335 -0.60745
O_ O_ 0.653515 0.205351 0.216086 -0.60745
O_ O_ 0.900226 0.20705 0.219255 -0.60745
O_ O_ 0.594026 0.201184 0.214869 -0.60745
O_ O_ 0.840412 0.208764 0.21445 -0.60745
O_ O_ 0.594587 0.201048 0.284467 -0.60745
O_ O_ 0.841867 0.210912 0.284081 -0.60745
Zn Zn 0.626224 0.24885 0.784149 0.9476
Zn Zn 0.875413 0.250138 0.78609 0.9476
Zn Zn 0.627984 0.25084 0.71466 0.9476
Zn Zn 0.874233 0.249012 0.716142 0.9476
H_ H_ 0.526645 0.408391 0.689662 0.10932
H_ H_ 0.765327 0.400458 0.689631 0.10932
H_ H_ 0.5684 0.355697 0.824743 0.10932
H_ H_ 0.837012 0.376227 0.80859 0.10932
H_ H_ 0.556724 0.343766 0.691088 0.10932
H_ H_ 0.799337 0.342465 0.686964 0.10932
H_ H_ 0.539936 0.42323 0.822129 0.10932
H_ H_ 0.810878 0.44041 0.801252 0.10932
H_ H_ 0.731148 0.403597 0.816694 0.10932
H_ H_ 0.959405 0.424462 0.817727 0.10932
H_ H_ 0.676393 0.369333 0.68681 0.10932
H_ H_ 0.938637 0.352074 0.682292 0.10932
H_ H_ 0.698298 0.34061 0.812739 0.10932
H_ H_ 0.927519 0.35981 0.815962 0.10932
H_ H_ 0.702605 0.435113 0.692808 0.10932
H_ H_ 0.974495 0.410708 0.686819 0.10932
H_ H_ 0.709627 0.0797958 0.820627 0.10932
H_ H_ 0.962129 0.0846317 0.8242 0.10932
H_ H_ 0.689469 0.144696 0.678765 0.10932
H_ H_ 0.939528 0.150184 0.68727 0.10932
H_ H_ 0.685118 0.145317 0.812385 0.10932
H_ H_ 0.930983 0.145555 0.822069 0.10932
H_ H_ 0.725331 0.085442 0.687525 0.10932
H_ H_ 0.973513 0.0899701 0.691581 0.10932
H_ H_ 0.543904 0.073103 0.684792 0.10932
H_ H_ 0.791448 0.0773654 0.689357 0.10932
H_ H_ 0.56801 0.147147 0.812029 0.10932
H_ H_ 0.821451 0.143722 0.826774 0.10932
H_ H_ 0.561436 0.143037 0.678911 0.10932
H_ H_ 0.821286 0.140653 0.691999 0.10932
H_ H_ 0.539999 0.0849017 0.818307 0.10932
H_ H_ 0.788509 0.0811331 0.826586 0.10932
H_ H_ 0.632333 0.308613 0.856687 0.10932
H_ H_ 0.924738 0.252541 0.854294 0.10932
H_ H_ 0.625282 0.177801 0.856351 0.10932
H_ H_ 0.830017 0.251157 0.861463 0.10932
H_ H_ 0.616818 0.181311 0.932141 0.10932
H_ H_ 0.832355 0.257938 0.938102 0.10932
H_ H_ 0.626485 0.312952 0.93349 0.10932
H_ H_ 0.929459 0.253974 0.9278 0.10932
H_ H_ 0.627373 0.190117 0.635891 0.10932
H_ H_ 0.873233 0.315662 0.651545 0.10932
H_ H_ 0.621582 0.322893 0.641408 0.10932
H_ H_ 0.86269 0.18619 0.637623 0.10932
H_ H_ 0.618775 0.325824 0.562309 0.10932
H_ H_ 0.857216 0.197798 0.560291 0.10932
H_ H_ 0.624856 0.193761 0.557594 0.10932
H_ H_ 0.861836 0.325825 0.577088 0.10932
C_ C_ 0.568144 0.34646 0.756359 -0.02249
C_ C_ 0.818805 0.350427 0.750054 -0.02249
C_ C_ 0.515514 0.460935 0.75454 -0.02249
C_ C_ 0.765858 0.463333 0.743455 -0.02249
C_ C_ 0.536641 0.397591 0.719163 -0.11473
C_ C_ 0.782151 0.395268 0.714457 -0.11473
C_ C_ 0.561771 0.368535 0.793877 -0.11473
C_ C_ 0.819265 0.378735 0.785011 -0.11473
C_ C_ 0.553781 0.359821 0.719338 -0.11473
C_ C_ 0.801522 0.361435 0.713889 -0.11473
C_ C_ 0.53284 0.420317 0.755974 -0.02249
C_ C_ 0.783658 0.423163 0.748401 -0.02249
C_ C_ 0.585888 0.30677 0.755831 0.6875
C_ C_ 0.835057 0.310034 0.754825 0.6875
C_ C_ 0.544867 0.405569 0.793333 -0.11473
C_ C_ 0.803766 0.416461 0.781466 -0.11473
C_ C_ 0.683612 0.350242 0.751274 -0.02249
C_ C_ 0.932389 0.349991 0.749128 -0.02249
C_ C_ 0.736892 0.464691 0.758614 -0.02249
C_ C_ 0.985374 0.461982 0.753099 -0.02249
C_ C_ 0.71783 0.397111 0.789794 -0.11473
C_ C_ 0.957779 0.40749 0.788983 -0.11473
C_ C_ 0.689318 0.376838 0.715642 -0.11473
C_ C_ 0.946214 0.365247 0.712695 -0.11473
C_ C_ 0.697728 0.362241 0.789587 -0.11473
C_ C_ 0.940185 0.369516 0.788052 -0.11473
C_ C_ 0.718548 0.425878 0.75664 -0.02249
C_ C_ 0.969088 0.422423 0.751715 -0.02249
C_ C_ 0.66566 0.310958 0.748973 0.6875
C_ C_ 0.913614 0.312223 0.74901 0.6875
C_ C_ 0.703828 0.415029 0.718439 -0.11473
C_ C_ 0.966411 0.397717 0.714098 -0.11473
C_ C_ 0.684939 0.151649 0.746933 -0.02249
C_ C_ 0.935403 0.154458 0.753286 -0.02249
C_ C_ 0.735846 0.0365306 0.755166 -0.02249
C_ C_ 0.984759 0.041186 0.759274 -0.02249
C_ C_ 0.706647 0.0936944 0.788925 -0.11473
C_ C_ 0.957514 0.0976552 0.793531 -0.11473
C_ C_ 0.695889 0.132502 0.709999 -0.11473
C_ C_ 0.947055 0.136689 0.716578 -0.11473
C_ C_ 0.689906 0.130391 0.785372 -0.11473
C_ C_ 0.94146 0.13384 0.792414 -0.11473
C_ C_ 0.717834 0.0762701 0.752315 -0.02249
C_ C_ 0.969953 0.08091 0.757133 -0.02249
C_ C_ 0.666056 0.191338 0.744337 0.6875
C_ C_ 0.916118 0.192116 0.751608 0.6875
C_ C_ 0.713101 0.0955388 0.713742 -0.11473
C_ C_ 0.964627 0.100395 0.719382 -0.11473
C_ C_ 0.564495 0.1545 0.744866 -0.02249
C_ C_ 0.818016 0.152428 0.757604 -0.02249
C_ C_ 0.516555 0.0381118 0.750493 -0.02249
C_ C_ 0.767625 0.0365043 0.75948 -0.02249
C_ C_ 0.544121 0.0915165 0.711644 -0.11473
C_ C_ 0.794112 0.0935845 0.721087 -0.11473
C_ C_ 0.558998 0.134572 0.783666 -0.11473
C_ C_ 0.81166 0.132721 0.797545 -0.11473
C_ C_ 0.557646 0.131892 0.709113 -0.11473
C_ C_ 0.810892 0.130354 0.719997 -0.11473
C_ C_ 0.536624 0.0756422 0.750246 -0.02249
C_ C_ 0.783955 0.0770562 0.759996 -0.02249
C_ C_ 0.587131 0.190517 0.74508 0.6875
C_ C_ 0.838295 0.189607 0.756573 0.6875
C_ C_ 0.544943 0.0958919 0.786618 -0.11473
C_ C_ 0.793604 0.0964141 0.797244 -0.11473
C_ C_ 0.632409 0.279897 0.874278 0.17695
C_ C_ 0.904302 0.248554 0.871438 0.17695
C_ C_ 0.628103 0.206454 0.874027 0.17695
C_ C_ 0.851028 0.250436 0.876026 0.17695
C_ C_ 0.624759 0.208557 0.917829 -0.11473
C_ C_ 0.852866 0.251258 0.920949 -0.11473
C_ C_ 0.623917 0.246017 0.940952 0.23465
C_ C_ 0.88119 0.252784 0.940773 0.23465
C_ C_ 0.63173 0.282463 0.919519 -0.11473
C_ C_ 0.906761 0.251241 0.915445 -0.11473
C_ C_ 0.629005 0.220665 0.619775 0.17695
C_ C_ 0.872937 0.288601 0.631684 0.17695
C_ C_ 0.621544 0.294058 0.624156 0.17695
C_ C_ 0.862701 0.217478 0.624543 0.17695
C_ C_ 0.621387 0.29725 0.579634 -0.11473
C_ C_ 0.862492 0.222958 0.580552 -0.11473
C_ C_ 0.622547 0.260739 0.554692 0.23465
C_ C_ 0.862571 0.262161 0.562572 0.23465
C_ C_ 0.625661 0.22268 0.575112 -0.11473
C_ C_ 0.868103 0.295008 0.588953 -0.11473
C_ C_ 0.532428 0.499483 0.75422 0.05793
C_ C_ 0.780084 0.501692 0.733356 0.05793
C_ C_ 0.719685 -0.0009529999999999816 0.753243 0.05793
C_ C_ 0.969647 0.00262261 0.761479 0.05793
Br Br 0.57545 0.495287 0.765495 -0.17191
Br Br 0.821876 0.498742 0.714748 -0.17191
Br Br 0.675971 0.00199035 0.746218 -0.17191
Br Br 0.925554 -0.0005279999999999729 0.748449 -0.17191
N_ N_ 0.629703 0.24269 0.853192 -0.272
N_ N_ 0.876639 0.249319 0.85413 -0.272
N_ N_ 0.615344 0.24674 0.984253 -0.12501
N_ N_ 0.884102 0.251924 0.98558 -0.12501
N_ N_ 0.627788 0.255915 0.643516 -0.272
N_ N_ 0.868324 0.250303 0.647769 -0.272
N_ N_ 0.619891 0.264341 0.509181 -0.12501
N_ N_ 0.860865 0.267824 0.516645 -0.12501
O_ O_ 0.597199 0.29477 0.722439 -0.60745
O_ O_ 0.842275 0.291063 0.72185 -0.60745
O_ O_ 0.594839 0.290659 0.791008 -0.60745
O_ O_ 0.846917 0.298052 0.790023 -0.60745
O_ O_ 0.659933 0.290281 0.782066 -0.60745
O_ O_ 0.910916 0.292329 0.782928 -0.60745
O_ O_ 0.657999 0.293814 0.714304 -0.60745
O_ O_ 0.903315 0.296762 0.714648 -0.60745
O_ O_ 0.65452 0.203571 0.778744 -0.60745
O_ O_ 0.905332 0.204635 0.785825 -0.60745
O_ O_ 0.657298 0.205577 0.709217 -0.60745
O_ O_ 0.9099 0.20936 0.716812 -0.60745
O_ O_ 0.595441 0.205293 0.711873 -0.60745
O_ O_ 0.847602 0.202199 0.720207 -0.60745
O_ O_ 0.595629 0.20635 0.780129 -0.60745
O_ O_ 0.840743 0.214137 0.787678 -0.60745
Zn Zn 0.622883 0.75054 0.28989 0.9476
Zn Zn 0.875987 0.745401 0.287776 0.9476
Zn Zn 0.621411 0.750617 0.218561 0.9476
Zn Zn 0.874185 0.748094 0.218308 0.9476
H_ H_ 0.542451 0.927516 0.191066 0.10932
H_ H_ 0.794279 0.927091 0.186783 0.10932
H_ H_ 0.560727 0.849131 0.321004 0.10932
H_ H_ 0.81257 0.84864 0.316806 0.10932
H_ H_ 0.569066 0.859997 0.188517 0.10932
H_ H_ 0.821965 0.862576 0.183501 0.10932
H_ H_ 0.532202 0.91561 0.324161 0.10932
H_ H_ 0.780336 0.911718 0.318771 0.10932
H_ H_ 0.712415 0.923087 0.318158 0.10932
H_ H_ 0.964782 0.917221 0.311575 0.10932
H_ H_ 0.698551 0.838211 0.189627 0.10932
H_ H_ 0.93071 0.84066 0.184938 0.10932
H_ H_ 0.687026 0.858419 0.323215 0.10932
H_ H_ 0.940396 0.850781 0.317648 0.10932
H_ H_ 0.724604 0.906112 0.185959 0.10932
H_ H_ 0.95649 0.907307 0.17931 0.10932
H_ H_ 0.716883 0.581955 0.314392 0.10932
H_ H_ 0.955267 0.568513 0.317291 0.10932
H_ H_ 0.689482 0.660507 0.182028 0.10932
H_ H_ 0.940049 0.647997 0.184716 0.10932
H_ H_ 0.682078 0.644091 0.316526 0.10932
H_ H_ 0.916613 0.619805 0.313004 0.10932
H_ H_ 0.715769 0.590055 0.177395 0.10932
H_ H_ 0.97114 0.584649 0.18609 0.10932
H_ H_ 0.538621 0.568881 0.183077 0.10932
H_ H_ 0.784692 0.580162 0.180102 0.10932
H_ H_ 0.562175 0.638361 0.318628 0.10932
H_ H_ 0.800842 0.654039 0.316112 0.10932
H_ H_ 0.574066 0.629822 0.183273 0.10932
H_ H_ 0.816767 0.642039 0.184626 0.10932
H_ H_ 0.527932 0.580234 0.316618 0.10932
H_ H_ 0.775337 0.588538 0.316108 0.10932
H_ H_ 0.622247 0.691012 0.371974 0.10932
H_ H_ 0.869111 0.809467 0.368218 0.10932
H_ H_ 0.62014 0.822046 0.35675 0.10932
H_ H_ 0.885617 0.680682 0.356739 0.10932
H_ H_ 0.632229 0.831733 0.434392 0.10932
H_ H_ 0.887301 0.675484 0.434526 0.10932
H_ H_ 0.635166 0.696961 0.448546 0.10932
H_ H_ 0.857956 0.801157 0.442718 0.10932
H_ H_ 0.612533 0.68965 0.14433 0.10932
H_ H_ 0.857753 0.67924 0.147213 0.10932
H_ H_ 0.628732 0.818036 0.14699 0.10932
H_ H_ 0.87537 0.808846 0.136572 0.10932
H_ H_ 0.631834 0.821074 0.0677615 0.10932
H_ H_ 0.883368 0.799553 0.0571996 0.10932
H_ H_ 0.607302 0.692264 0.0647472 0.10932
H_ H_ 0.858834 0.674362 0.0702286 0.10932
C_ C_ 0.567111 0.851286 0.254094 -0.02249
C_ C_ 0.821443 0.851758 0.250406 -0.02249
C_ C_ 0.515836 0.962555 0.256632 -0.02249
C_ C_ 0.766131 0.961541 0.257063 -0.02249
C_ C_ 0.544304 0.909371 0.218513 -0.11473
C_ C_ 0.795246 0.90892 0.21472 -0.11473
C_ C_ 0.556565 0.868256 0.29194 -0.11473
C_ C_ 0.808723 0.865931 0.289013 -0.11473
C_ C_ 0.562731 0.874071 0.216953 -0.11473
C_ C_ 0.814664 0.874549 0.213135 -0.11473
C_ C_ 0.532778 0.923856 0.256591 -0.02249
C_ C_ 0.783484 0.922214 0.253575 -0.02249
C_ C_ 0.585068 0.812309 0.253472 0.6875
C_ C_ 0.839693 0.811019 0.249072 0.6875
C_ C_ 0.540633 0.905542 0.293567 -0.11473
C_ C_ 0.791249 0.902751 0.289828 -0.11473
C_ C_ 0.686288 0.846077 0.255992 -0.02249
C_ C_ 0.931605 0.842291 0.252691 -0.02249
C_ C_ 0.733887 0.960467 0.251667 -0.02249
C_ C_ 0.980114 0.959383 0.238386 -0.02249
C_ C_ 0.707178 0.905559 0.290693 -0.11473
C_ C_ 0.958874 0.901035 0.283119 -0.11473
C_ C_ 0.701547 0.85748 0.218995 -0.11473
C_ C_ 0.939013 0.857391 0.21277 -0.11473
C_ C_ 0.693083 0.869229 0.293684 -0.11473
C_ C_ 0.941675 0.864611 0.288093 -0.11473
C_ C_ 0.718698 0.920136 0.251532 -0.02249
C_ C_ 0.962706 0.919502 0.244044 -0.02249
C_ C_ 0.663315 0.810418 0.254919 0.6875
C_ C_ 0.915385 0.802779 0.25264 0.6875
C_ C_ 0.716247 0.895308 0.215982 -0.11473
C_ C_ 0.953871 0.896256 0.209561 -0.11473
C_ C_ 0.682885 0.655559 0.250716 -0.02249
C_ C_ 0.929993 0.643261 0.252846 -0.02249
C_ C_ 0.731729 0.540399 0.243099 -0.02249
C_ C_ 0.984829 0.533585 0.248494 -0.02249
C_ C_ 0.708753 0.596858 0.284725 -0.11473
C_ C_ 0.951006 0.583801 0.287883 -0.11473
C_ C_ 0.693371 0.641186 0.211745 -0.11473
C_ C_ 0.942786 0.630484 0.213929 -0.11473
C_ C_ 0.689035 0.632224 0.287327 -0.11473
C_ C_ 0.931313 0.617748 0.288126 -0.11473
C_ C_ 0.715173 0.580205 0.245286 -0.02249
C_ C_ 0.965162 0.572018 0.24981 -0.02249
C_ C_ 0.664053 0.693891 0.251963 0.6875
C_ C_ 0.911783 0.682689 0.25319 0.6875
C_ C_ 0.708006 0.601826 0.209109 -0.11473
C_ C_ 0.961327 0.596522 0.213704 -0.11473
C_ C_ 0.570699 0.641735 0.250149 -0.02249
C_ C_ 0.810831 0.653089 0.25049 -0.02249
C_ C_ 0.513252 0.532525 0.249492 -0.02249
C_ C_ 0.762843 0.539125 0.247561 -0.02249
C_ C_ 0.543521 0.587209 0.21167 -0.11473
C_ C_ 0.786058 0.59769 0.209595 -0.11473
C_ C_ 0.556556 0.62754 0.287484 -0.11473
C_ C_ 0.795731 0.639942 0.285848 -0.11473
C_ C_ 0.561855 0.623313 0.211313 -0.11473
C_ C_ 0.80186 0.635468 0.210043 -0.11473
C_ C_ 0.531473 0.57286 0.249702 -0.02249
C_ C_ 0.778665 0.579007 0.247687 -0.02249
C_ C_ 0.587701 0.683679 0.251346 0.6875
C_ C_ 0.831833 0.68933 0.251064 0.6875
C_ C_ 0.535811 0.594939 0.286773 -0.11473
C_ C_ 0.781106 0.601096 0.285352 -0.11473
C_ C_ 0.625087 0.720939 0.387489 0.17695
C_ C_ 0.865522 0.779363 0.381457 0.17695
C_ C_ 0.624756 0.79467 0.37946 0.17695
C_ C_ 0.879138 0.707795 0.375519 0.17695
C_ C_ 0.630125 0.800046 0.422367 -0.11473
C_ C_ 0.880551 0.703564 0.418843 -0.11473
C_ C_ 0.631218 0.764827 0.449739 0.23465
C_ C_ 0.870658 0.737057 0.443048 0.23465
C_ C_ 0.629309 0.724227 0.431244 -0.11473
C_ C_ 0.859888 0.774342 0.422812 -0.11473
C_ C_ 0.617702 0.718823 0.126864 0.17695
C_ C_ 0.86414 0.706353 0.127375 0.17695
C_ C_ 0.627907 0.789607 0.12824 0.17695
C_ C_ 0.875491 0.777041 0.121637 0.17695
C_ C_ 0.628866 0.791618 0.0835886 -0.11473
C_ C_ 0.879573 0.77303 0.0775659 -0.11473
C_ C_ 0.622988 0.755697 0.0601977 0.23465
C_ C_ 0.875678 0.735531 0.0585004 0.23465
C_ C_ 0.614419 0.720557 0.0823348 -0.11473
C_ C_ 0.866291 0.701772 0.0834669 -0.11473
C_ C_ 0.531219 1.00045 0.260837 0.05793
C_ C_ 0.782618 0.999655 0.250424 0.05793
C_ C_ 0.715283 0.501083 0.243481 0.05793
C_ C_ 0.972367 0.494186 0.258198 0.05793
Br Br 0.57491 0.996654 0.265318 -0.17191
Br Br 0.826017 1.00230479 0.259917 -0.17191
Br Br 0.673349 0.506422 0.226937 -0.17191
Br Br 0.93087 0.486757 0.272496 -0.17191
N_ N_ 0.62441 0.755713 0.362458 -0.272
N_ N_ 0.872927 0.744869 0.356694 -0.272
N_ N_ 0.630507 0.771665 0.493568 -0.12501
N_ N_ 0.869198 0.733492 0.487389 -0.12501
N_ N_ 0.624501 0.753334 0.149076 -0.272
N_ N_ 0.870118 0.743622 0.144435 -0.272
N_ N_ 0.614499 0.759344 0.0174504 -0.12501
N_ N_ 0.878428 0.730647 0.0142203 -0.12501
O_ O_ 0.589351 0.795341 0.218955 -0.60745
O_ O_ 0.845228 0.793853 0.214608 -0.60745
O_ O_ 0.592754 0.795151 0.286626 -0.60745
O_ O_ 0.846351 0.792294 0.282528 -0.60745
O_ O_ 0.653417 0.795866 0.289391 -0.60745
O_ O_ 0.907612 0.78772 0.2885 -0.60745
O_ O_ 0.650775 0.799039 0.221049 -0.60745
O_ O_ 0.907562 0.783702 0.217755 -0.60745
O_ O_ 0.65754 0.710156 0.285503 -0.60745
O_ O_ 0.905499 0.697909 0.288981 -0.60745
O_ O_ 0.655376 0.71157 0.217031 -0.60745
O_ O_ 0.903373 0.701667 0.218736 -0.60745
O_ O_ 0.594672 0.700133 0.217377 -0.60745
O_ O_ 0.840293 0.706144 0.216995 -0.60745
O_ O_ 0.595514 0.701495 0.286441 -0.60745
O_ O_ 0.842061 0.703686 0.284931 -0.60745
Zn Zn 0.626259 0.750504 0.790175 0.9476
Zn Zn 0.875759 0.750855 0.786414 0.9476
Zn Zn 0.623572 0.751735 0.7182 0.9476
Zn Zn 0.875727 0.752732 0.715885 0.9476
H_ H_ 0.526493 0.908889 0.687188 0.10932
H_ H_ 0.77127 0.904195 0.698236 0.10932
H_ H_ 0.579641 0.868458 0.818531 0.10932
H_ H_ 0.836548 0.87043 0.817911 0.10932
H_ H_ 0.557252 0.846847 0.688361 0.10932
H_ H_ 0.804183 0.844206 0.691504 0.10932
H_ H_ 0.54271 0.920095 0.82448 0.10932
H_ H_ 0.79847 0.925158 0.823433 0.10932
H_ H_ 0.715281 0.916059 0.826344 0.10932
H_ H_ 0.962832 0.923145 0.825533 0.10932
H_ H_ 0.682561 0.855634 0.687434 0.10932
H_ H_ 0.94744 0.848401 0.693166 0.10932
H_ H_ 0.688304 0.85198 0.823571 0.10932
H_ H_ 0.937282 0.8558 0.82585 0.10932
H_ H_ 0.714323 0.915555 0.689933 0.10932
H_ H_ 0.978988 0.912958 0.694851 0.10932
H_ H_ 0.721439 0.586806 0.821817 0.10932
H_ H_ 0.948499 0.569714 0.807566 0.10932
H_ H_ 0.67946 0.650461 0.692515 0.10932
H_ H_ 0.945229 0.655613 0.679481 0.10932
H_ H_ 0.697897 0.659079 0.824326 0.10932
H_ H_ 0.924503 0.642911 0.810974 0.10932
H_ H_ 0.710723 0.583437 0.689497 0.10932
H_ H_ 0.975149 0.596985 0.679531 0.10932
H_ H_ 0.534193 0.585085 0.682522 0.10932
H_ H_ 0.776076 0.591018 0.678638 0.10932
H_ H_ 0.565103 0.645288 0.822631 0.10932
H_ H_ 0.828304 0.635108 0.808813 0.10932
H_ H_ 0.561851 0.654334 0.684335 0.10932
H_ H_ 0.801833 0.662635 0.684176 0.10932
H_ H_ 0.542664 0.574862 0.819263 0.10932
H_ H_ 0.791944 0.57542 0.811374 0.10932
H_ H_ 0.618295 0.684356 0.864359 0.10932
H_ H_ 0.880776 0.684649 0.870657 0.10932
H_ H_ 0.62941 0.813619 0.861263 0.10932
H_ H_ 0.880254 0.813648 0.855854 0.10932
H_ H_ 0.626004 0.817997 0.939232 0.10932
H_ H_ 0.87477 0.821471 0.932149 0.10932
H_ H_ 0.621857 0.68735 0.942122 0.10932
H_ H_ 0.8699 0.688728 0.940903 0.10932
H_ H_ 0.6249 0.684446 0.649967 0.10932
H_ H_ 0.882596 0.820158 0.646424 0.10932
H_ H_ 0.624549 0.815725 0.64357 0.10932
H_ H_ 0.861131 0.693537 0.634738 0.10932
H_ H_ 0.618626 0.813214 0.564297 0.10932
H_ H_ 0.866594 0.695406 0.560217 0.10932
H_ H_ 0.62294 0.679751 0.573222 0.10932
H_ H_ 0.880936 0.823838 0.56465 0.10932
C_ C_ 0.56693 0.848112 0.755443 -0.02249
C_ C_ 0.821275 0.852108 0.753935 -0.02249
C_ C_ 0.514701 0.960648 0.753384 -0.02249
C_ C_ 0.766166 0.960015 0.762596 -0.02249
C_ C_ 0.534982 0.89744 0.717567 -0.11473
C_ C_ 0.786151 0.898599 0.721804 -0.11473
C_ C_ 0.56461 0.871879 0.792514 -0.11473
C_ C_ 0.821478 0.876339 0.791935 -0.11473
C_ C_ 0.552963 0.86283 0.717345 -0.11473
C_ C_ 0.804948 0.865038 0.718347 -0.11473
C_ C_ 0.53087 0.919847 0.756437 -0.02249
C_ C_ 0.783694 0.920919 0.760018 -0.02249
C_ C_ 0.584533 0.809429 0.7555 0.6875
C_ C_ 0.839255 0.814501 0.752325 0.6875
C_ C_ 0.544716 0.904824 0.79336 -0.11473
C_ C_ 0.80001 0.909184 0.794662 -0.11473
C_ C_ 0.681545 0.849345 0.755863 -0.02249
C_ C_ 0.936813 0.849683 0.758211 -0.02249
C_ C_ 0.734635 0.960478 0.758638 -0.02249
C_ C_ 0.985472 0.963949 0.759134 -0.02249
C_ C_ 0.706973 0.902741 0.794766 -0.11473
C_ C_ 0.959821 0.9054 0.797382 -0.11473
C_ C_ 0.688495 0.869864 0.717702 -0.11473
C_ C_ 0.950546 0.864066 0.720734 -0.11473
C_ C_ 0.69291 0.864339 0.793748 -0.11473
C_ C_ 0.942531 0.87122 0.796214 -0.11473
C_ C_ 0.716012 0.921424 0.757947 -0.02249
C_ C_ 0.970016 0.923517 0.759081 -0.02249
C_ C_ 0.662955 0.812018 0.755796 0.6875
C_ C_ 0.915888 0.812568 0.755676 0.6875
C_ C_ 0.705407 0.904856 0.71884 -0.11473
C_ C_ 0.967362 0.901489 0.722816 -0.11473
C_ C_ 0.687689 0.658298 0.757759 -0.02249
C_ C_ 0.933381 0.654363 0.744541 -0.02249
C_ C_ 0.73707 0.542615 0.753858 -0.02249
C_ C_ 0.982968 0.538713 0.746194 -0.02249
C_ C_ 0.715814 0.603972 0.795333 -0.11473
C_ C_ 0.949623 0.590708 0.781322 -0.11473
C_ C_ 0.691056 0.637998 0.71957 -0.11473
C_ C_ 0.94639 0.639526 0.709143 -0.11473
C_ C_ 0.70124 0.642295 0.795081 -0.11473
C_ C_ 0.935305 0.63031 0.781947 -0.11473
C_ C_ 0.720152 0.583145 0.756982 -0.02249
C_ C_ 0.965177 0.578355 0.745004 -0.02249
C_ C_ 0.66423 0.692646 0.758324 0.6875
C_ C_ 0.917785 0.69511 0.744517 0.6875
C_ C_ 0.706666 0.598597 0.720005 -0.11473
C_ C_ 0.965439 0.605291 0.710172 -0.11473
C_ C_ 0.566987 0.653686 0.752987 -0.02249
C_ C_ 0.819649 0.651036 0.745656 -0.02249
C_ C_ 0.516565 0.537923 0.748425 -0.02249
C_ C_ 0.767181 0.540216 0.74159 -0.02249
C_ C_ 0.543314 0.596852 0.712983 -0.11473
C_ C_ 0.790203 0.600662 0.705333 -0.11473
C_ C_ 0.560487 0.631132 0.790732 -0.11473
C_ C_ 0.815014 0.626596 0.781614 -0.11473
C_ C_ 0.557584 0.63663 0.713423 -0.11473
C_ C_ 0.805969 0.639718 0.708306 -0.11473
C_ C_ 0.535186 0.577112 0.749965 -0.02249
C_ C_ 0.786564 0.576913 0.741969 -0.02249
C_ C_ 0.587483 0.689712 0.754113 0.6875
C_ C_ 0.836318 0.689977 0.748384 0.6875
C_ C_ 0.546528 0.591767 0.78927 -0.11473
C_ C_ 0.79936 0.589592 0.780487 -0.11473
C_ C_ 0.618616 0.713884 0.880326 0.17695
C_ C_ 0.873762 0.714772 0.881977 0.17695
C_ C_ 0.626904 0.78576 0.878648 0.17695
C_ C_ 0.88098 0.786908 0.875993 0.17695
C_ C_ 0.625179 0.787433 0.922485 -0.11473
C_ C_ 0.8771 0.790825 0.918776 -0.11473
C_ C_ 0.623066 0.751545 0.946127 0.23465
C_ C_ 0.876802 0.756 0.945555 0.23465
C_ C_ 0.619206 0.714644 0.924497 -0.11473
C_ C_ 0.871973 0.718079 0.925209 -0.11473
C_ C_ 0.622507 0.712734 0.630127 0.17695
C_ C_ 0.878832 0.791772 0.625681 0.17695
C_ C_ 0.624961 0.78657 0.627588 0.17695
C_ C_ 0.864772 0.721968 0.619987 0.17695
C_ C_ 0.6226 0.785294 0.583596 -0.11473
C_ C_ 0.865305 0.724581 0.576955 -0.11473
C_ C_ 0.624614 0.74641 0.56163 0.23465
C_ C_ 0.869044 0.762282 0.555495 0.23465
C_ C_ 0.626801 0.710577 0.587338 -0.11473
C_ C_ 0.87597 0.795936 0.580528 -0.11473
C_ C_ 0.531313 -0.001495000000000024 0.750274 0.05793
C_ C_ 0.782129 -0.002670999999999979 0.760453 0.05793
C_ C_ 0.722731 0.503774 0.763422 0.05793
C_ C_ 0.968312 0.499101 0.744865 0.05793
Br Br 0.574975 -0.003265999999999991 0.750692 -0.17191
Br Br 0.824896 0.998775 0.749186 -0.17191
Br Br 0.68153 0.504245 0.777281 -0.17191
Br Br 0.926726 0.495422 0.734823 -0.17191
N_ N_ 0.621156 0.749227 0.858456 -0.272
N_ N_ 0.875112 0.748954 0.857598 -0.272
N_ N_ 0.631966 0.751662 0.9891 -0.12501
N_ N_ 0.876992 0.760873 0.990261 -0.12501
N_ N_ 0.622116 0.750111 0.648676 -0.272
N_ N_ 0.873422 0.754532 0.644244 -0.272
N_ N_ 0.629288 0.741637 0.518449 -0.12501
N_ N_ 0.876039 0.763092 0.511977 -0.12501
O_ O_ 0.593248 0.795602 0.721039 -0.60745
O_ O_ 0.844764 0.796541 0.718395 -0.60745
O_ O_ 0.594232 0.795174 0.789854 -0.60745
O_ O_ 0.844906 0.795392 0.787084 -0.60745
O_ O_ 0.657685 0.794795 0.79176 -0.60745
O_ O_ 0.907304 0.795991 0.789157 -0.60745
O_ O_ 0.654734 0.794937 0.722114 -0.60745
O_ O_ 0.905798 0.79909 0.720647 -0.60745
O_ O_ 0.656447 0.704541 0.79424 -0.60745
O_ O_ 0.909947 0.708773 0.780553 -0.60745
O_ O_ 0.65243 0.706426 0.722673 -0.60745
O_ O_ 0.909531 0.712413 0.710492 -0.60745
O_ O_ 0.592414 0.70712 0.718726 -0.60745
O_ O_ 0.846436 0.703657 0.714805 -0.60745
O_ O_ 0.595513 0.70727 0.788965 -0.60745
O_ O_ 0.845178 0.706357 0.783908 -0.60745
