_cell_length_a 44.444
_cell_length_b 32.3360000049186
_cell_length_c 31.843999878906452
_cell_angle_alpha 89.99799923859553
_cell_angle_beta 91.13600050494348
_cell_angle_gamma 89.9990006550086
_symmetry_space_group_name_H-M         'P 1'
_symmetry_Int_Tables_number            1
loop_
_symmetry_equiv_pos_as_xyz
   'x, y, z'
                         
loop_
_atom_site_label
_atom_site_type_symbol
_atom_site_fract_x 
_atom_site_fract_y
_atom_site_fract_z
_atom_site_charge
Zn Zn 0.125921 0.249798 0.279269 0.9476
Zn Zn 0.3764 0.249762 0.291127 0.9476
Zn Zn 0.126211 0.251618 0.209171 0.9476
Zn Zn 0.378512 0.249045 0.223274 0.9476
H_ H_ 0.0432738 0.431326 0.192602 0.10932
H_ H_ 0.297034 0.419432 0.18652 0.10932
H_ H_ 0.0629875 0.350509 0.32161 0.10932
H_ H_ 0.318692 0.356312 0.324951 0.10932
H_ H_ 0.0754853 0.374903 0.18724 0.10932
H_ H_ 0.326204 0.352615 0.189148 0.10932
H_ H_ 0.0316893 0.414342 0.324926 0.10932
H_ H_ 0.290449 0.41874 0.318435 0.10932
H_ H_ 0.234663 0.401667 0.309104 0.10932
H_ H_ 0.45376 0.428622 0.328094 0.10932
H_ H_ 0.180845 0.365973 0.180396 0.10932
H_ H_ 0.449185 0.34122 0.203185 0.10932
H_ H_ 0.200009 0.342275 0.3091 0.10932
H_ H_ 0.435194 0.359045 0.337102 0.10932
H_ H_ 0.211089 0.4262 0.181994 0.10932
H_ H_ 0.479523 0.404225 0.206755 0.10932
H_ H_ 0.222771 0.0911207 0.309622 0.10932
H_ H_ 0.47616 0.0848398 0.311475 0.10932
H_ H_ 0.174519 0.134641 0.173849 0.10932
H_ H_ 0.422211 0.138012 0.188535 0.10932
H_ H_ 0.192203 0.155564 0.304586 0.10932
H_ H_ 0.445501 0.146052 0.32049 0.10932
H_ H_ 0.205221 0.0738442 0.175597 0.10932
H_ H_ 0.4514 0.0743246 0.183104 0.10932
H_ H_ 0.0508848 0.0682384 0.187212 0.10932
H_ H_ 0.273634 0.0969043 0.181365 0.10932
H_ H_ 0.0466244 0.163947 0.308151 0.10932
H_ H_ 0.317325 0.149747 0.311666 0.10932
H_ H_ 0.0827837 0.132006 0.189258 0.10932
H_ H_ 0.305349 0.155882 0.180931 0.10932
H_ H_ 0.0205872 0.0992528 0.308499 0.10932
H_ H_ 0.291842 0.0850336 0.31541 0.10932
H_ H_ 0.154595 0.305887 0.355709 0.10932
H_ H_ 0.372468 0.313253 0.369084 0.10932
H_ H_ 0.103592 0.198556 0.358241 0.10932
H_ H_ 0.375097 0.18276 0.362146 0.10932
H_ H_ 0.0996689 0.203184 0.434993 0.10932
H_ H_ 0.375614 0.175727 0.435742 0.10932
H_ H_ 0.157655 0.308747 0.430845 0.10932
H_ H_ 0.369866 0.307278 0.448424 0.10932
H_ H_ 0.138087 0.321686 0.137501 0.10932
H_ H_ 0.396597 0.190214 0.14924 0.10932
H_ H_ 0.117487 0.195474 0.127736 0.10932
H_ H_ 0.368351 0.316087 0.140611 0.10932
H_ H_ 0.125307 0.200445 0.0536859 0.10932
H_ H_ 0.363576 0.308677 0.0648604 0.10932
H_ H_ 0.126917 0.332898 0.0625322 0.10932
H_ H_ 0.382225 0.177539 0.0722436 0.10932
C_ C_ 0.0666432 0.352642 0.252422 -0.02249
C_ C_ 0.322762 0.348102 0.255241 -0.02249
C_ C_ 0.015319 0.465741 0.257406 -0.02249
C_ C_ 0.272769 0.459784 0.247894 -0.02249
C_ C_ 0.046998 0.41374 0.221531 -0.11473
C_ C_ 0.300634 0.403736 0.214943 -0.11473
C_ C_ 0.0567253 0.365999 0.292188 -0.11473
C_ C_ 0.315092 0.369392 0.292739 -0.11473
C_ C_ 0.0627611 0.377015 0.216542 -0.11473
C_ C_ 0.316045 0.366323 0.215875 -0.11473
C_ C_ 0.0339021 0.426479 0.258209 -0.02249
C_ C_ 0.293027 0.423127 0.251552 -0.02249
C_ C_ 0.0879452 0.315578 0.250368 0.6875
C_ C_ 0.342831 0.311469 0.256724 0.6875
C_ C_ 0.0388322 0.402607 0.294328 -0.11473
C_ C_ 0.299448 0.405416 0.290694 -0.11473
C_ C_ 0.189469 0.345262 0.243287 -0.02249
C_ C_ 0.438146 0.344206 0.269883 -0.02249
C_ C_ 0.240977 0.45669 0.246428 -0.02249
C_ C_ 0.485975 0.460927 0.268975 -0.02249
C_ C_ 0.224339 0.391263 0.279646 -0.11473
C_ C_ 0.457597 0.405848 0.306552 -0.11473
C_ C_ 0.193997 0.369743 0.206528 -0.11473
C_ C_ 0.451374 0.358129 0.232421 -0.11473
C_ C_ 0.205982 0.355757 0.27934 -0.11473
C_ C_ 0.444703 0.366333 0.307518 -0.11473
C_ C_ 0.225922 0.416458 0.243384 -0.02249
C_ C_ 0.467787 0.421617 0.267781 -0.02249
C_ C_ 0.170715 0.306038 0.242799 0.6875
C_ C_ 0.417187 0.307759 0.267479 0.6875
C_ C_ 0.21297 0.40387 0.206458 -0.11473
C_ C_ 0.466321 0.395855 0.232131 -0.11473
C_ C_ 0.178504 0.14766 0.24031 -0.02249
C_ C_ 0.42958 0.145894 0.255373 -0.02249
C_ C_ 0.233363 0.0357554 0.243835 -0.02249
C_ C_ 0.481717 0.0323984 0.245939 -0.02249
C_ C_ 0.211193 0.100072 0.278827 -0.11473
C_ C_ 0.461729 0.0925774 0.285232 -0.11473
C_ C_ 0.181971 0.123662 0.203575 -0.11473
C_ C_ 0.431781 0.125094 0.21676 -0.11473
C_ C_ 0.195058 0.136654 0.276394 -0.11473
C_ C_ 0.444083 0.128599 0.289854 -0.11473
C_ C_ 0.214774 0.0753185 0.24254 -0.02249
C_ C_ 0.463195 0.0706516 0.248196 -0.02249
C_ C_ 0.162126 0.189259 0.238288 0.6875
C_ C_ 0.416605 0.18985 0.25856 0.6875
C_ C_ 0.204215 0.0920789 0.203737 -0.11473
C_ C_ 0.448498 0.0870148 0.213491 -0.11473
C_ C_ 0.0648603 0.15546 0.247458 -0.02249
C_ C_ 0.315468 0.156878 0.246077 -0.02249
C_ C_ 0.0185958 0.0383857 0.248902 -0.02249
C_ C_ 0.265181 0.0394512 0.246794 -0.02249
C_ C_ 0.0513979 0.0895285 0.214818 -0.11473
C_ C_ 0.285516 0.103969 0.211046 -0.11473
C_ C_ 0.0477515 0.14464 0.281356 -0.11473
C_ C_ 0.311174 0.134908 0.283337 -0.11473
C_ C_ 0.0672164 0.127236 0.214019 -0.11473
C_ C_ 0.301387 0.14168 0.210634 -0.11473
C_ C_ 0.0367522 0.0770776 0.249791 -0.02249
C_ C_ 0.282172 0.0800245 0.248684 -0.02249
C_ C_ 0.0831996 0.195912 0.249329 0.6875
C_ C_ 0.332987 0.19696 0.246098 0.6875
C_ C_ 0.033471 0.106684 0.281655 -0.11473
C_ C_ 0.294076 0.0986101 0.284825 -0.11473
C_ C_ 0.142144 0.28352 0.372804 0.17695
C_ C_ 0.374762 0.283093 0.38398 0.17695
C_ C_ 0.116287 0.220809 0.374624 0.17695
C_ C_ 0.374466 0.210863 0.379379 0.17695
C_ C_ 0.11485 0.223598 0.417743 -0.11473
C_ C_ 0.372551 0.206577 0.423174 -0.11473
C_ C_ 0.132134 0.254401 0.439804 0.23465
C_ C_ 0.371177 0.242025 0.449594 0.23465
C_ C_ 0.14364 0.285646 0.416666 -0.11473
C_ C_ 0.372427 0.281301 0.42917 -0.11473
C_ C_ 0.127309 0.297274 0.120637 0.17695
C_ C_ 0.385062 0.213417 0.131457 0.17695
C_ C_ 0.122263 0.224586 0.114215 0.17695
C_ C_ 0.369145 0.28474 0.127092 0.17695
C_ C_ 0.120893 0.227893 0.0704469 -0.11473
C_ C_ 0.367858 0.281939 0.0834103 -0.11473
C_ C_ 0.124296 0.266597 0.0496284 0.23465
C_ C_ 0.371013 0.242824 0.0638372 0.23465
C_ C_ 0.125208 0.302095 0.07642 -0.11473
C_ C_ 0.381234 0.208827 0.0877473 -0.11473
C_ C_ 0.0308366 0.503842 0.255492 0.05793
C_ C_ 0.284516 0.500748 0.250704 0.05793
C_ C_ 0.217649 -0.002471000000000001 0.250052 0.05793
C_ C_ 0.468857 0.992974 0.252629 0.05793
Br Br 0.0703846 0.50523 0.279011 -0.17191
Br Br 0.328163 0.506979 0.248312 -0.17191
Br Br 0.174155 -0.006210000000000049 0.253197 -0.17191
Br Br 0.428313 0.989637 0.267004 -0.17191
N_ N_ 0.128448 0.251624 0.351528 -0.272
N_ N_ 0.375937 0.248393 0.360324 -0.272
N_ N_ 0.128784 0.260139 0.483495 -0.12501
N_ N_ 0.369002 0.236651 0.493903 -0.12501
N_ N_ 0.122404 0.258606 0.13742 -0.272
N_ N_ 0.377836 0.250377 0.151773 -0.272
N_ N_ 0.126479 0.269665 0.00575543 -0.12501
N_ N_ 0.367192 0.237433 0.0183058 -0.12501
O_ O_ 0.0979152 0.302972 0.216271 -0.60745
O_ O_ 0.346674 0.288909 0.224627 -0.60745
O_ O_ 0.0985379 0.300265 0.285089 -0.60745
O_ O_ 0.351922 0.298315 0.292099 -0.60745
O_ O_ 0.162469 0.289604 0.278134 -0.60745
O_ O_ 0.409919 0.288055 0.29929 -0.60745
O_ O_ 0.160876 0.292909 0.208224 -0.60745
O_ O_ 0.403723 0.300356 0.231765 -0.60745
O_ O_ 0.154373 0.206983 0.273474 -0.60745
O_ O_ 0.402052 0.199231 0.28991 -0.60745
O_ O_ 0.152923 0.203287 0.202325 -0.60745
O_ O_ 0.411065 0.208612 0.226365 -0.60745
O_ O_ 0.0927967 0.211553 0.215374 -0.60745
O_ O_ 0.349451 0.204665 0.214708 -0.60745
O_ O_ 0.0911025 0.21201 0.283691 -0.60745
O_ O_ 0.340004 0.213697 0.280009 -0.60745
Zn Zn 0.127701 0.245086 0.780298 0.9476
Zn Zn 0.378879 0.249461 0.791889 0.9476
Zn Zn 0.126509 0.249694 0.710657 0.9476
Zn Zn 0.372183 0.250581 0.723302 0.9476
H_ H_ 0.0364015 0.41914 0.677237 0.10932
H_ H_ 0.304802 0.434361 0.698093 0.10932
H_ H_ 0.0582726 0.346766 0.809971 0.10932
H_ H_ 0.307796 0.342165 0.821814 0.10932
H_ H_ 0.0650035 0.350415 0.675182 0.10932
H_ H_ 0.334132 0.372616 0.702089 0.10932
H_ H_ 0.0372324 0.413645 0.810666 0.10932
H_ H_ 0.273195 0.39976 0.820691 0.10932
H_ H_ 0.215731 0.418598 0.821276 0.10932
H_ H_ 0.478765 0.408546 0.824849 0.10932
H_ H_ 0.191688 0.353781 0.677501 0.10932
H_ H_ 0.424115 0.359987 0.693211 0.10932
H_ H_ 0.178329 0.360329 0.812902 0.10932
H_ H_ 0.452884 0.342821 0.821817 0.10932
H_ H_ 0.223333 0.414187 0.682594 0.10932
H_ H_ 0.454176 0.42632 0.693849 0.10932
H_ H_ 0.224598 0.0871014 0.814395 0.10932
H_ H_ 0.465175 0.0834347 0.824088 0.10932
H_ H_ 0.194411 0.147007 0.677096 0.10932
H_ H_ 0.431056 0.140851 0.687944 0.10932
H_ H_ 0.188168 0.143773 0.81201 0.10932
H_ H_ 0.436889 0.142853 0.82442 0.10932
H_ H_ 0.222586 0.0844944 0.679171 0.10932
H_ H_ 0.459435 0.0753752 0.69006 0.10932
H_ H_ 0.0289059 0.0873155 0.669291 0.10932
H_ H_ 0.286369 0.0809853 0.684027 0.10932
H_ H_ 0.0656985 0.139445 0.804496 0.10932
H_ H_ 0.318371 0.141394 0.818701 0.10932
H_ H_ 0.0633917 0.14636 0.672614 0.10932
H_ H_ 0.31926 0.137257 0.685541 0.10932
H_ H_ 0.0354091 0.0769963 0.80437 0.10932
H_ H_ 0.280999 0.0833016 0.820476 0.10932
H_ H_ 0.105821 0.299873 0.855803 0.10932
H_ H_ 0.335936 0.272215 0.871649 0.10932
H_ H_ 0.150268 0.186126 0.853561 0.10932
H_ H_ 0.423703 0.224521 0.862617 0.10932
H_ H_ 0.152938 0.181615 0.928635 0.10932
H_ H_ 0.431341 0.227798 0.942589 0.10932
H_ H_ 0.116908 0.306371 0.933735 0.10932
H_ H_ 0.343376 0.279922 0.948014 0.10932
H_ H_ 0.123738 0.177698 0.639539 0.10932
H_ H_ 0.413023 0.286569 0.648976 0.10932
H_ H_ 0.128964 0.30964 0.630049 0.10932
H_ H_ 0.327544 0.23062 0.645143 0.10932
H_ H_ 0.13219 0.305573 0.553462 0.10932
H_ H_ 0.327754 0.233052 0.56976 0.10932
H_ H_ 0.129447 0.172403 0.564585 0.10932
H_ H_ 0.416999 0.284754 0.575805 0.10932
C_ C_ 0.0662264 0.344887 0.743183 -0.02249
C_ C_ 0.318449 0.349112 0.757234 -0.02249
C_ C_ 0.0174605 0.462759 0.745492 -0.02249
C_ C_ 0.267835 0.463072 0.759955 -0.02249
C_ C_ 0.0417026 0.40239 0.706265 -0.11473
C_ C_ 0.304165 0.415527 0.725576 -0.11473
C_ C_ 0.058607 0.363339 0.780864 -0.11473
C_ C_ 0.30222 0.358752 0.792336 -0.11473
C_ C_ 0.0595685 0.367387 0.70612 -0.11473
C_ C_ 0.319922 0.377615 0.724636 -0.11473
C_ C_ 0.0339203 0.422169 0.744369 -0.02249
C_ C_ 0.285495 0.423868 0.759552 -0.02249
C_ C_ 0.085775 0.307889 0.741914 0.6875
C_ C_ 0.339112 0.311875 0.755332 0.6875
C_ C_ 0.0408083 0.399208 0.780177 -0.11473
C_ C_ 0.283666 0.393352 0.791396 -0.11473
C_ C_ 0.183735 0.349369 0.747122 -0.02249
C_ C_ 0.43442 0.348577 0.759502 -0.02249
C_ C_ 0.23692 0.461763 0.75355 -0.02249
C_ C_ 0.484083 0.464397 0.760439 -0.02249
C_ C_ 0.210326 0.403039 0.789299 -0.11473
C_ C_ 0.465878 0.399471 0.795721 -0.11473
C_ C_ 0.197014 0.366187 0.710396 -0.11473
C_ C_ 0.437279 0.37155 0.721894 -0.11473
C_ C_ 0.189228 0.368927 0.786222 -0.11473
C_ C_ 0.450594 0.362092 0.795994 -0.11473
C_ C_ 0.219548 0.421372 0.751146 -0.02249
C_ C_ 0.468375 0.42334 0.758926 -0.02249
C_ C_ 0.165566 0.308956 0.744638 0.6875
C_ C_ 0.415878 0.310383 0.760883 0.6875
C_ C_ 0.215422 0.400828 0.713445 -0.11473
C_ C_ 0.453463 0.409714 0.722228 -0.11473
C_ C_ 0.187113 0.150733 0.744326 -0.02249
C_ C_ 0.434249 0.151913 0.757915 -0.02249
C_ C_ 0.236569 0.0353595 0.748 -0.02249
C_ C_ 0.483866 0.0367051 0.755058 -0.02249
C_ C_ 0.213927 0.0962758 0.784128 -0.11473
C_ C_ 0.457395 0.0946006 0.79403 -0.11473
C_ C_ 0.198648 0.134058 0.707316 -0.11473
C_ C_ 0.438171 0.129993 0.718486 -0.11473
C_ C_ 0.19531 0.130434 0.783285 -0.11473
C_ C_ 0.441267 0.130707 0.794619 -0.11473
C_ C_ 0.22094 0.0761747 0.747284 -0.02249
C_ C_ 0.465803 0.075923 0.756823 -0.02249
C_ C_ 0.168751 0.189549 0.744253 0.6875
C_ C_ 0.416278 0.191573 0.757696 0.6875
C_ C_ 0.216542 0.0995504 0.708971 -0.11473
C_ C_ 0.455158 0.0933252 0.718582 -0.11473
C_ C_ 0.0675715 0.149145 0.739671 -0.02249
C_ C_ 0.319126 0.149 0.752311 -0.02249
C_ C_ 0.0142072 0.0371327 0.735772 -0.02249
C_ C_ 0.267382 0.034657 0.750832 -0.02249
C_ C_ 0.0379436 0.0975449 0.699813 -0.11473
C_ C_ 0.292868 0.0933215 0.715148 -0.11473
C_ C_ 0.0595991 0.127704 0.776602 -0.11473
C_ C_ 0.308684 0.131199 0.790261 -0.11473
C_ C_ 0.0588543 0.131259 0.701358 -0.11473
C_ C_ 0.311325 0.127916 0.715023 -0.11473
C_ C_ 0.0315466 0.0754454 0.737007 -0.02249
C_ C_ 0.284 0.0753732 0.752263 -0.02249
C_ C_ 0.0875142 0.187158 0.742378 0.6875
C_ C_ 0.339423 0.18588 0.752429 0.6875
C_ C_ 0.0425141 0.0912344 0.77567 -0.11473
C_ C_ 0.28899 0.0977679 0.790139 -0.11473
C_ C_ 0.119545 0.276978 0.871208 0.17695
C_ C_ 0.356411 0.263837 0.887127 0.17695
C_ C_ 0.138974 0.209064 0.86962 0.17695
C_ C_ 0.406181 0.234629 0.882539 0.17695
C_ C_ 0.140609 0.208125 0.914826 -0.11473
C_ C_ 0.409208 0.234265 0.926818 -0.11473
C_ C_ 0.131804 0.242138 0.938077 0.23465
C_ C_ 0.38558 0.249727 0.951406 0.23465
C_ C_ 0.122053 0.277768 0.915828 -0.11473
C_ C_ 0.359192 0.264285 0.930972 -0.11473
C_ C_ 0.128675 0.206553 0.622507 0.17695
C_ C_ 0.393928 0.274823 0.632891 0.17695
C_ C_ 0.128919 0.27951 0.616211 0.17695
C_ C_ 0.347076 0.243295 0.630084 0.17695
C_ C_ 0.128449 0.278291 0.571321 -0.11473
C_ C_ 0.347826 0.243728 0.5851 -0.11473
C_ C_ 0.130259 0.238367 0.552913 0.23465
C_ C_ 0.372848 0.25886 0.563835 0.23465
C_ C_ 0.126866 0.203034 0.577547 -0.11473
C_ C_ 0.396256 0.273756 0.588846 -0.11473
C_ C_ 0.0326231 0.501168 0.744862 0.05793
C_ C_ 0.282223 0.502506 0.763487 0.05793
C_ C_ 0.219899 -0.00245853 0.749123 0.05793
C_ C_ 0.4689 0.998001 0.758185 0.05793
Br Br 0.075911 0.50125 0.740295 -0.17191
Br Br 0.323098 0.508091 0.784467 -0.17191
Br Br 0.176991 0.00119875 0.732612 -0.17191
Br Br 0.42444 0.997639 0.759432 -0.17191
N_ N_ 0.129245 0.243054 0.84897 -0.272
N_ N_ 0.379598 0.249178 0.863098 -0.272
N_ N_ 0.130918 0.239157 0.982245 -0.12501
N_ N_ 0.38812 0.248908 0.995286 -0.12501
N_ N_ 0.124663 0.244896 0.640382 -0.272
N_ N_ 0.370838 0.25503 0.654098 -0.272
N_ N_ 0.131652 0.232118 0.509475 -0.12501
N_ N_ 0.372098 0.265576 0.519294 -0.12501
O_ O_ 0.0918935 0.290203 0.70678 -0.60745
O_ O_ 0.347306 0.299745 0.718892 -0.60745
O_ O_ 0.0956624 0.291426 0.775975 -0.60745
O_ O_ 0.347773 0.293311 0.78775 -0.60745
O_ O_ 0.157741 0.292872 0.777832 -0.60745
O_ O_ 0.406639 0.296386 0.795738 -0.60745
O_ O_ 0.155824 0.297352 0.709648 -0.60745
O_ O_ 0.406953 0.293107 0.726421 -0.60745
O_ O_ 0.156455 0.201484 0.778684 -0.60745
O_ O_ 0.410539 0.207344 0.792658 -0.60745
O_ O_ 0.16336 0.210449 0.710609 -0.60745
O_ O_ 0.401421 0.20295 0.725443 -0.60745
O_ O_ 0.0986855 0.200102 0.708964 -0.60745
O_ O_ 0.338163 0.209596 0.720071 -0.60745
O_ O_ 0.098401 0.198548 0.777267 -0.60745
O_ O_ 0.349548 0.20016 0.786437 -0.60745
Zn Zn 0.125537 0.748386 0.28004 0.9476
Zn Zn 0.376854 0.747904 0.280893 0.9476
Zn Zn 0.126915 0.746743 0.210932 0.9476
Zn Zn 0.375667 0.745701 0.214185 0.9476
H_ H_ 0.0301706 0.913757 0.179101 0.10932
H_ H_ 0.290962 0.929965 0.183405 0.10932
H_ H_ 0.0863984 0.862741 0.305439 0.10932
H_ H_ 0.319998 0.852088 0.313029 0.10932
H_ H_ 0.0611957 0.849958 0.176536 0.10932
H_ H_ 0.32606 0.869102 0.180108 0.10932
H_ H_ 0.0509284 0.918429 0.315966 0.10932
H_ H_ 0.293371 0.917055 0.318367 0.10932
H_ H_ 0.237456 0.899535 0.307256 0.10932
H_ H_ 0.474164 0.906953 0.31331 0.10932
H_ H_ 0.178184 0.861106 0.179671 0.10932
H_ H_ 0.433429 0.855578 0.17783 0.10932
H_ H_ 0.206146 0.83712 0.306298 0.10932
H_ H_ 0.444311 0.842498 0.312423 0.10932
H_ H_ 0.205948 0.927392 0.183993 0.10932
H_ H_ 0.466437 0.912082 0.180478 0.10932
H_ H_ 0.200608 0.564351 0.313842 0.10932
H_ H_ 0.452374 0.570964 0.319647 0.10932
H_ H_ 0.195766 0.645499 0.178628 0.10932
H_ H_ 0.446009 0.651171 0.189918 0.10932
H_ H_ 0.173112 0.634249 0.309409 0.10932
H_ H_ 0.424406 0.633207 0.31921 0.10932
H_ H_ 0.218362 0.578116 0.181917 0.10932
H_ H_ 0.481692 0.593134 0.193234 0.10932
H_ H_ 0.0457808 0.573659 0.178377 0.10932
H_ H_ 0.28681 0.577596 0.180442 0.10932
H_ H_ 0.0474624 0.661947 0.302723 0.10932
H_ H_ 0.306683 0.655436 0.313183 0.10932
H_ H_ 0.0797245 0.635695 0.179875 0.10932
H_ H_ 0.315821 0.639426 0.17932 0.10932
H_ H_ 0.017667 0.599592 0.303153 0.10932
H_ H_ 0.286484 0.585364 0.31705 0.10932
H_ H_ 0.129177 0.813561 0.362041 0.10932
H_ H_ 0.368558 0.693477 0.358063 0.10932
H_ H_ 0.127938 0.677687 0.35058 0.10932
H_ H_ 0.392909 0.819074 0.353294 0.10932
H_ H_ 0.121062 0.67359 0.426042 0.10932
H_ H_ 0.381209 0.827788 0.430164 0.10932
H_ H_ 0.114926 0.805023 0.435132 0.10932
H_ H_ 0.363854 0.698647 0.435021 0.10932
H_ H_ 0.123369 0.678025 0.141668 0.10932
H_ H_ 0.377127 0.809409 0.13892 0.10932
H_ H_ 0.136058 0.807462 0.130819 0.10932
H_ H_ 0.387052 0.679708 0.140896 0.10932
H_ H_ 0.1353 0.800346 0.0497453 0.10932
H_ H_ 0.382927 0.67831 0.0602793 0.10932
H_ H_ 0.111657 0.670764 0.0613627 0.10932
H_ H_ 0.386564 0.811386 0.0606647 0.10932
C_ C_ 0.0730193 0.849509 0.241102 -0.02249
C_ C_ 0.321469 0.851088 0.244415 -0.02249
C_ C_ 0.0180363 0.960607 0.248602 -0.02249
C_ C_ 0.26769 0.964025 0.251059 -0.02249
C_ C_ 0.0380176 0.897187 0.210125 -0.11473
C_ C_ 0.294474 0.909293 0.210548 -0.11473
C_ C_ 0.0712058 0.870508 0.279018 -0.11473
C_ C_ 0.313546 0.867242 0.283863 -0.11473
C_ C_ 0.054993 0.860633 0.206863 -0.11473
C_ C_ 0.31383 0.874796 0.208637 -0.11473
C_ C_ 0.0357619 0.92027 0.247953 -0.02249
C_ C_ 0.287318 0.924777 0.251099 -0.02249
C_ C_ 0.0903069 0.808149 0.241687 0.6875
C_ C_ 0.33842 0.810538 0.242336 0.6875
C_ C_ 0.0510587 0.902841 0.28443 -0.11473
C_ C_ 0.298204 0.905867 0.287897 -0.11473
C_ C_ 0.188365 0.845276 0.245711 -0.02249
C_ C_ 0.437818 0.842439 0.245636 -0.02249
C_ C_ 0.235927 0.961003 0.250267 -0.02249
C_ C_ 0.486751 0.955063 0.248764 -0.02249
C_ C_ 0.221168 0.893894 0.283193 -0.11473
C_ C_ 0.468838 0.891872 0.28506 -0.11473
C_ C_ 0.188948 0.872146 0.210638 -0.11473
C_ C_ 0.445328 0.860956 0.208283 -0.11473
C_ C_ 0.203548 0.859039 0.282717 -0.11473
C_ C_ 0.452281 0.855385 0.28496 -0.11473
C_ C_ 0.221745 0.920422 0.247299 -0.02249
C_ C_ 0.473086 0.914116 0.248321 -0.02249
C_ C_ 0.170059 0.806086 0.24439 0.6875
C_ C_ 0.416229 0.806726 0.246437 0.6875
C_ C_ 0.205835 0.908657 0.211068 -0.11473
C_ C_ 0.463066 0.896467 0.209489 -0.11473
C_ C_ 0.182434 0.646199 0.245486 -0.02249
C_ C_ 0.434293 0.647945 0.252767 -0.02249
C_ C_ 0.235465 0.532219 0.250851 -0.02249
C_ C_ 0.486589 0.536413 0.259531 -0.02249
C_ C_ 0.201505 0.584853 0.286213 -0.11473
C_ C_ 0.453712 0.589335 0.292023 -0.11473
C_ C_ 0.196526 0.629548 0.208687 -0.11473
C_ C_ 0.449355 0.634847 0.218467 -0.11473
C_ C_ 0.185673 0.622723 0.284181 -0.11473
C_ C_ 0.436207 0.624713 0.289751 -0.11473
C_ C_ 0.215723 0.570222 0.249388 -0.02249
C_ C_ 0.469377 0.576038 0.25811 -0.02249
C_ C_ 0.165168 0.686046 0.243712 0.6875
C_ C_ 0.416848 0.687481 0.254166 0.6875
C_ C_ 0.211135 0.591947 0.210934 -0.11473
C_ C_ 0.467552 0.599499 0.220696 -0.11473
C_ C_ 0.0670886 0.652842 0.243056 -0.02249
C_ C_ 0.31466 0.652843 0.246469 -0.02249
C_ C_ 0.0136259 0.539766 0.244654 -0.02249
C_ C_ 0.267088 0.536143 0.252519 -0.02249
C_ C_ 0.046321 0.593042 0.206418 -0.11473
C_ C_ 0.29287 0.591941 0.211145 -0.11473
C_ C_ 0.0509587 0.640633 0.278453 -0.11473
C_ C_ 0.303634 0.637161 0.28491 -0.11473
C_ C_ 0.0667699 0.627136 0.206752 -0.11473
C_ C_ 0.309153 0.628948 0.209736 -0.11473
C_ C_ 0.0310623 0.579384 0.241713 -0.02249
C_ C_ 0.281275 0.578056 0.250304 -0.02249
C_ C_ 0.0856351 0.690834 0.244092 0.6875
C_ C_ 0.335432 0.687504 0.247054 0.6875
C_ C_ 0.0309053 0.607656 0.276427 -0.11473
C_ C_ 0.286525 0.601156 0.286708 -0.11473
C_ C_ 0.12397 0.781234 0.374339 0.17695
C_ C_ 0.368818 0.723802 0.374102 0.17695
C_ C_ 0.123471 0.70743 0.366664 0.17695
C_ C_ 0.38264 0.793954 0.371089 0.17695
C_ C_ 0.120601 0.703849 0.41 -0.11473
C_ C_ 0.377555 0.798779 0.414788 -0.11473
C_ C_ 0.121143 0.739164 0.435663 0.23465
C_ C_ 0.368804 0.765313 0.440113 0.23465
C_ C_ 0.121592 0.778561 0.417103 -0.11473
C_ C_ 0.367764 0.725974 0.41856 -0.11473
C_ C_ 0.122949 0.704891 0.120749 0.17695
C_ C_ 0.379943 0.780777 0.122736 0.17695
C_ C_ 0.132128 0.776979 0.114901 0.17695
C_ C_ 0.378716 0.707141 0.122191 0.17695
C_ C_ 0.132614 0.772749 0.0689006 -0.11473
C_ C_ 0.381825 0.708288 0.0777549 -0.11473
C_ C_ 0.124448 0.733974 0.0518265 0.23465
C_ C_ 0.380137 0.745943 0.0561837 0.23465
C_ C_ 0.120277 0.700184 0.0779292 -0.11473
C_ C_ 0.38366 0.782016 0.0790094 -0.11473
C_ C_ 0.0330885 0.999039 0.253212 0.05793
C_ C_ 0.282044 1.00368685 0.247935 0.05793
C_ C_ 0.222703 0.493879 0.249922 0.05793
C_ C_ 0.470506 0.498661 0.261567 0.05793
Br Br 0.0773177 -0.000405479 0.260041 -0.17191
Br Br 0.325608 1.010506 0.249744 -0.17191
Br Br 0.180368 0.489993 0.258113 -0.17191
Br Br 0.42655 0.499536 0.243567 -0.17191
N_ N_ 0.127514 0.746235 0.350166 -0.272
N_ N_ 0.375757 0.758117 0.35214 -0.272
N_ N_ 0.123517 0.734042 0.481132 -0.12501
N_ N_ 0.374885 0.767479 0.484683 -0.12501
N_ N_ 0.126668 0.742734 0.138771 -0.272
N_ N_ 0.377931 0.744617 0.143378 -0.272
N_ N_ 0.12531 0.727451 0.00603375 -0.12501
N_ N_ 0.384406 0.745189 0.0104714 -0.12501
O_ O_ 0.102462 0.796508 0.20954 -0.60745
O_ O_ 0.343158 0.791019 0.208202 -0.60745
O_ O_ 0.0928015 0.787162 0.275237 -0.60745
O_ O_ 0.347451 0.793344 0.2766 -0.60745
O_ O_ 0.157437 0.793966 0.278279 -0.60745
O_ O_ 0.408632 0.789021 0.279922 -0.60745
O_ O_ 0.161909 0.787658 0.209692 -0.60745
O_ O_ 0.405721 0.793288 0.213052 -0.60745
O_ O_ 0.155803 0.702198 0.277681 -0.60745
O_ O_ 0.406034 0.702009 0.287873 -0.60745
O_ O_ 0.15589 0.70031 0.210134 -0.60745
O_ O_ 0.409383 0.703733 0.219912 -0.60745
O_ O_ 0.0949124 0.705738 0.209995 -0.60745
O_ O_ 0.346374 0.698283 0.212578 -0.60745
O_ O_ 0.0958774 0.703088 0.278786 -0.60745
O_ O_ 0.340379 0.710017 0.27936 -0.60745
Zn Zn 0.122909 0.749833 0.7786 0.9476
Zn Zn 0.37434 0.751745 0.783956 0.9476
Zn Zn 0.12368 0.748844 0.709257 0.9476
Zn Zn 0.374597 0.75084 0.715285 0.9476
H_ H_ 0.0438716 0.923789 0.674489 0.10932
H_ H_ 0.295217 0.926123 0.688256 0.10932
H_ H_ 0.0471077 0.842454 0.804906 0.10932
H_ H_ 0.290028 0.829961 0.808414 0.10932
H_ H_ 0.0676464 0.853815 0.677737 0.10932
H_ H_ 0.327812 0.86424 0.690739 0.10932
H_ H_ 0.0204919 0.905636 0.801474 0.10932
H_ H_ 0.273719 0.902084 0.819238 0.10932
H_ H_ 0.190902 0.936536 0.805122 0.10932
H_ H_ 0.480388 0.904295 0.81557 0.10932
H_ H_ 0.204572 0.838231 0.687502 0.10932
H_ H_ 0.421069 0.868998 0.687529 0.10932
H_ H_ 0.161343 0.876038 0.803686 0.10932
H_ H_ 0.44782 0.843818 0.819304 0.10932
H_ H_ 0.233526 0.899604 0.692698 0.10932
H_ H_ 0.450743 0.928697 0.689464 0.10932
H_ H_ 0.209422 0.580525 0.814827 0.10932
H_ H_ 0.472958 0.591155 0.826166 0.10932
H_ H_ 0.203988 0.658852 0.683933 0.10932
H_ H_ 0.431219 0.643686 0.687355 0.10932
H_ H_ 0.172815 0.643496 0.810716 0.10932
H_ H_ 0.442395 0.659861 0.824961 0.10932
H_ H_ 0.229098 0.589558 0.685392 0.10932
H_ H_ 0.466159 0.584232 0.693347 0.10932
H_ H_ 0.0420481 0.573207 0.678472 0.10932
H_ H_ 0.30372 0.567238 0.697043 0.10932
H_ H_ 0.0581568 0.656844 0.806649 0.10932
H_ H_ 0.303436 0.662005 0.818336 0.10932
H_ H_ 0.0725906 0.64177 0.674496 0.10932
H_ H_ 0.323953 0.637074 0.687327 0.10932
H_ H_ 0.033719 0.593262 0.812564 0.10932
H_ H_ 0.269628 0.605425 0.819122 0.10932
H_ H_ 0.136505 0.810645 0.854117 0.10932
H_ H_ 0.380342 0.820391 0.849918 0.10932
H_ H_ 0.114715 0.684828 0.853817 0.10932
H_ H_ 0.367295 0.691386 0.865159 0.10932
H_ H_ 0.116201 0.683314 0.929864 0.10932
H_ H_ 0.363334 0.702736 0.941538 0.10932
H_ H_ 0.129449 0.814377 0.929545 0.10932
H_ H_ 0.38249 0.83022 0.929036 0.10932
H_ H_ 0.11867 0.685301 0.628976 0.10932
H_ H_ 0.379481 0.812072 0.640105 0.10932
H_ H_ 0.124017 0.818644 0.63717 0.10932
H_ H_ 0.363164 0.68606 0.64277 0.10932
H_ H_ 0.126361 0.822606 0.561029 0.10932
H_ H_ 0.359101 0.683914 0.567741 0.10932
H_ H_ 0.114962 0.692366 0.551245 0.10932
H_ H_ 0.378967 0.813461 0.56271 0.10932
C_ C_ 0.0631344 0.846029 0.743613 -0.02249
C_ C_ 0.310167 0.839098 0.747414 -0.02249
C_ C_ 0.0133048 0.959984 0.736327 -0.02249
C_ C_ 0.266131 0.9592 0.755062 -0.02249
C_ C_ 0.0462594 0.906459 0.703709 -0.11473
C_ C_ 0.297428 0.907192 0.718435 -0.11473
C_ C_ 0.0482498 0.859418 0.776686 -0.11473
C_ C_ 0.296966 0.852013 0.785946 -0.11473
C_ C_ 0.0603119 0.868284 0.705937 -0.11473
C_ C_ 0.313761 0.870424 0.716143 -0.11473
C_ C_ 0.0292828 0.91897 0.738424 -0.02249
C_ C_ 0.282071 0.918343 0.755018 -0.02249
C_ C_ 0.0846151 0.810686 0.746485 0.6875
C_ C_ 0.331106 0.803915 0.74539 0.6875
C_ C_ 0.0317827 0.896078 0.775556 -0.11473
C_ C_ 0.284899 0.892306 0.789931 -0.11473
C_ C_ 0.182218 0.848613 0.749354 -0.02249
C_ C_ 0.434245 0.846114 0.751654 -0.02249
C_ C_ 0.234722 0.959366 0.752986 -0.02249
C_ C_ 0.484873 0.960202 0.754015 -0.02249
C_ C_ 0.196872 0.913551 0.782322 -0.11473
C_ C_ 0.46911 0.893072 0.78704 -0.11473
C_ C_ 0.199845 0.859656 0.713559 -0.11473
C_ C_ 0.431274 0.875753 0.718791 -0.11473
C_ C_ 0.180974 0.876168 0.78343 -0.11473
C_ C_ 0.450407 0.857628 0.789883 -0.11473
C_ C_ 0.21731 0.921989 0.750647 -0.02249
C_ C_ 0.46793 0.920366 0.753109 -0.02249
C_ C_ 0.160735 0.814701 0.745611 0.6875
C_ C_ 0.413319 0.81109 0.751403 0.6875
C_ C_ 0.217074 0.894982 0.715688 -0.11473
C_ C_ 0.449031 0.911293 0.718998 -0.11473
C_ C_ 0.182138 0.652994 0.744292 -0.02249
C_ C_ 0.434734 0.656287 0.756318 -0.02249
C_ C_ 0.234649 0.538977 0.753421 -0.02249
C_ C_ 0.482017 0.540344 0.761307 -0.02249
C_ C_ 0.202795 0.593857 0.7842 -0.11473
C_ C_ 0.461742 0.60257 0.79756 -0.11473
C_ C_ 0.198686 0.637975 0.709366 -0.11473
C_ C_ 0.438553 0.632298 0.719846 -0.11473
C_ C_ 0.186957 0.632278 0.783532 -0.11473
C_ C_ 0.444046 0.638784 0.796832 -0.11473
C_ C_ 0.215466 0.577687 0.747879 -0.02249
C_ C_ 0.46347 0.578787 0.760227 -0.02249
C_ C_ 0.16517 0.692281 0.743217 0.6875
C_ C_ 0.415609 0.694903 0.754393 0.6875
C_ C_ 0.215262 0.600556 0.711127 -0.11473
C_ C_ 0.457547 0.597719 0.721774 -0.11473
C_ C_ 0.0633156 0.656956 0.739557 -0.02249
C_ C_ 0.314012 0.657014 0.75102 -0.02249
C_ C_ 0.0171493 0.539826 0.747287 -0.02249
C_ C_ 0.265792 0.539641 0.757492 -0.02249
C_ C_ 0.0433071 0.594864 0.70457 -0.11473
C_ C_ 0.298743 0.591549 0.719655 -0.11473
C_ C_ 0.0533647 0.640909 0.778028 -0.11473
C_ C_ 0.301096 0.645519 0.789912 -0.11473
C_ C_ 0.0616192 0.632036 0.703759 -0.11473
C_ C_ 0.312372 0.629451 0.716553 -0.11473
C_ C_ 0.0341221 0.579234 0.744748 -0.02249
C_ C_ 0.282857 0.581126 0.756223 -0.02249
C_ C_ 0.0846174 0.692163 0.739693 0.6875
C_ C_ 0.335764 0.692204 0.748836 0.6875
C_ C_ 0.0385375 0.603109 0.780424 -0.11473
C_ C_ 0.28152 0.612188 0.790931 -0.11473
C_ C_ 0.129408 0.782942 0.867922 0.17695
C_ C_ 0.378994 0.793279 0.872083 0.17695
C_ C_ 0.123809 0.711378 0.869379 0.17695
C_ C_ 0.370592 0.723323 0.880253 0.17695
C_ C_ 0.121826 0.712682 0.913822 -0.11473
C_ C_ 0.368712 0.72856 0.922849 -0.11473
C_ C_ 0.120201 0.751076 0.936233 0.23465
C_ C_ 0.375051 0.76608 0.941928 0.23465
C_ C_ 0.123353 0.786459 0.91113 -0.11473
C_ C_ 0.381496 0.799758 0.916275 -0.11473
C_ C_ 0.119129 0.717467 0.61579 0.17695
C_ C_ 0.378101 0.784086 0.623121 0.17695
C_ C_ 0.124957 0.790608 0.618414 0.17695
C_ C_ 0.368966 0.711726 0.624408 0.17695
C_ C_ 0.123055 0.793305 0.574191 -0.11473
C_ C_ 0.362757 0.712013 0.581805 -0.11473
C_ C_ 0.120143 0.757471 0.549591 0.23465
C_ C_ 0.3688 0.747815 0.556565 0.23465
C_ C_ 0.117154 0.720343 0.569875 -0.11473
C_ C_ 0.375711 0.785105 0.578443 -0.11473
C_ C_ 0.0292118 -0.002569999999999961 0.737513 0.05793
C_ C_ 0.282358 -0.004176999999999986 0.752691 0.05793
C_ C_ 0.220213 0.499138 0.75212 0.05793
C_ C_ 0.467657 0.501419 0.766635 0.05793
Br Br 0.0736371 -0.0018799999999999928 0.742881 -0.17191
Br Br 0.325538 -0.007560000000000011 0.763788 -0.17191
Br Br 0.176842 0.494136 0.746836 -0.17191
Br Br 0.424341 0.495991 0.775504 -0.17191
N_ N_ 0.127814 0.746088 0.847729 -0.272
N_ N_ 0.373306 0.756332 0.855536 -0.272
N_ N_ 0.118716 0.755402 0.980574 -0.12501
N_ N_ 0.374147 0.772059 0.986706 -0.12501
N_ N_ 0.122281 0.752715 0.639285 -0.272
N_ N_ 0.375818 0.747152 0.644284 -0.272
N_ N_ 0.11456 0.761086 0.505469 -0.12501
N_ N_ 0.361057 0.747603 0.512145 -0.12501
O_ O_ 0.0913115 0.793775 0.714006 -0.60745
O_ O_ 0.345498 0.794311 0.712974 -0.60745
O_ O_ 0.0939525 0.794943 0.781793 -0.60745
O_ O_ 0.340764 0.790627 0.780775 -0.60745
O_ O_ 0.15611 0.79424 0.780931 -0.60745
O_ O_ 0.401908 0.799937 0.78644 -0.60745
O_ O_ 0.156451 0.796337 0.711205 -0.60745
O_ O_ 0.406523 0.794871 0.717072 -0.60745
O_ O_ 0.1541 0.707572 0.7759 -0.60745
O_ O_ 0.408897 0.712093 0.788491 -0.60745
O_ O_ 0.155023 0.704713 0.707121 -0.60745
O_ O_ 0.40432 0.706541 0.719945 -0.60745
O_ O_ 0.0910526 0.711308 0.705876 -0.60745
O_ O_ 0.339195 0.712129 0.714591 -0.60745
O_ O_ 0.0924352 0.706886 0.774759 -0.60745
O_ O_ 0.348391 0.704777 0.783147 -0.60745
Zn Zn 0.622863 0.247376 0.293747 0.9476
Zn Zn 0.877802 0.247074 0.282958 0.9476
Zn Zn 0.624778 0.250298 0.223223 0.9476
Zn Zn 0.877439 0.251029 0.215952 0.9476
H_ H_ 0.53512 0.424271 0.201565 0.10932
H_ H_ 0.798801 0.427857 0.195046 0.10932
H_ H_ 0.565156 0.348361 0.331393 0.10932
H_ H_ 0.799005 0.332112 0.316949 0.10932
H_ H_ 0.559593 0.353676 0.198494 0.10932
H_ H_ 0.820654 0.359036 0.191376 0.10932
H_ H_ 0.542484 0.422539 0.336399 0.10932
H_ H_ 0.768945 0.393577 0.318287 0.10932
H_ H_ 0.697838 0.430587 0.321682 0.10932
H_ H_ 0.947378 0.43406 0.31694 0.10932
H_ H_ 0.696012 0.340956 0.196044 0.10932
H_ H_ 0.947423 0.34309 0.190858 0.10932
H_ H_ 0.669653 0.363025 0.323428 0.10932
H_ H_ 0.920766 0.371453 0.314646 0.10932
H_ H_ 0.728799 0.402079 0.198972 0.10932
H_ H_ 0.980305 0.402201 0.189301 0.10932
H_ H_ 0.707716 0.0785538 0.322016 0.10932
H_ H_ 0.957414 0.0712748 0.312729 0.10932
H_ H_ 0.669992 0.134773 0.189466 0.10932
H_ H_ 0.945956 0.156354 0.181084 0.10932
H_ H_ 0.687392 0.15097 0.319753 0.10932
H_ H_ 0.942638 0.141905 0.31832 0.10932
H_ H_ 0.697877 0.072169 0.189166 0.10932
H_ H_ 0.97809 0.0941307 0.185176 0.10932
H_ H_ 0.518138 0.102768 0.183152 0.10932
H_ H_ 0.775433 0.0943001 0.178684 0.10932
H_ H_ 0.559703 0.136787 0.324009 0.10932
H_ H_ 0.816463 0.142211 0.314419 0.10932
H_ H_ 0.55051 0.163522 0.193878 0.10932
H_ H_ 0.805325 0.153714 0.179035 0.10932
H_ H_ 0.533009 0.0727243 0.312896 0.10932
H_ H_ 0.783406 0.0818459 0.316092 0.10932
H_ H_ 0.626443 0.17954 0.365581 0.10932
H_ H_ 0.876081 0.187042 0.362479 0.10932
H_ H_ 0.628216 0.310653 0.373009 0.10932
H_ H_ 0.857489 0.314277 0.352781 0.10932
H_ H_ 0.634508 0.308262 0.447947 0.10932
H_ H_ 0.859856 0.325351 0.427718 0.10932
H_ H_ 0.622159 0.177359 0.446386 0.10932
H_ H_ 0.875499 0.194464 0.442223 0.10932
H_ H_ 0.616438 0.187614 0.140149 0.10932
H_ H_ 0.875668 0.317667 0.13468 0.10932
H_ H_ 0.62887 0.313777 0.157802 0.10932
H_ H_ 0.862882 0.187786 0.139789 0.10932
H_ H_ 0.626197 0.32571 0.0798164 0.10932
H_ H_ 0.865985 0.183076 0.0640827 0.10932
H_ H_ 0.619945 0.194899 0.0634761 0.10932
H_ H_ 0.87224 0.314781 0.0589234 0.10932
C_ C_ 0.566252 0.347711 0.265678 -0.02249
C_ C_ 0.817077 0.344953 0.256267 -0.02249
C_ C_ 0.517077 0.460848 0.272123 -0.02249
C_ C_ 0.765552 0.458998 0.260619 -0.02249
C_ C_ 0.541048 0.406416 0.230624 -0.11473
C_ C_ 0.799382 0.408517 0.222797 -0.11473
C_ C_ 0.561871 0.367596 0.304676 -0.11473
C_ C_ 0.801168 0.354318 0.292883 -0.11473
C_ C_ 0.553909 0.366218 0.229849 -0.11473
C_ C_ 0.815308 0.370739 0.221616 -0.11473
C_ C_ 0.533834 0.422709 0.269028 -0.02249
C_ C_ 0.784035 0.41973 0.259596 -0.02249
C_ C_ 0.583742 0.309242 0.262906 0.6875
C_ C_ 0.835027 0.304672 0.251976 0.6875
C_ C_ 0.544502 0.403921 0.306838 -0.11473
C_ C_ 0.781992 0.388976 0.29144 -0.11473
C_ C_ 0.681441 0.346384 0.260679 -0.02249
C_ C_ 0.932507 0.351823 0.252207 -0.02249
C_ C_ 0.733534 0.457286 0.262206 -0.02249
C_ C_ 0.983726 0.464581 0.248934 -0.02249
C_ C_ 0.701609 0.405832 0.29889 -0.11473
C_ C_ 0.948657 0.414607 0.287614 -0.11473
C_ C_ 0.6944 0.360291 0.225159 -0.11473
C_ C_ 0.950767 0.361606 0.21836 -0.11473
C_ C_ 0.682479 0.371591 0.296661 -0.11473
C_ C_ 0.930287 0.380317 0.284229 -0.11473
C_ C_ 0.717829 0.416352 0.263901 -0.02249
C_ C_ 0.968383 0.423803 0.253245 -0.02249
C_ C_ 0.66413 0.308081 0.260555 0.6875
C_ C_ 0.914983 0.312845 0.252566 0.6875
C_ C_ 0.714984 0.392879 0.226446 -0.11473
C_ C_ 0.968017 0.397324 0.217453 -0.11473
C_ C_ 0.681288 0.153148 0.253503 -0.02249
C_ C_ 0.936441 0.151137 0.249905 -0.02249
C_ C_ 0.732511 0.0398098 0.254162 -0.02249
C_ C_ 0.986033 0.037987 0.245849 -0.02249
C_ C_ 0.706497 0.0966545 0.293078 -0.11473
C_ C_ 0.955626 0.0898495 0.283703 -0.11473
C_ C_ 0.683712 0.129766 0.217364 -0.11473
C_ C_ 0.950379 0.140058 0.211531 -0.11473
C_ C_ 0.692038 0.133888 0.291879 -0.11473
C_ C_ 0.94261 0.128008 0.286941 -0.11473
C_ C_ 0.712906 0.0778203 0.255772 -0.02249
C_ C_ 0.968735 0.076847 0.246744 -0.02249
C_ C_ 0.662484 0.189935 0.254819 0.6875
C_ C_ 0.918968 0.18976 0.251317 0.6875
C_ C_ 0.699318 0.0922994 0.218079 -0.11473
C_ C_ 0.966848 0.103827 0.211676 -0.11473
C_ C_ 0.562993 0.151508 0.256831 -0.02249
C_ C_ 0.816241 0.152457 0.247085 -0.02249
C_ C_ 0.512703 0.0351162 0.238003 -0.02249
C_ C_ 0.76254 0.0416176 0.242819 -0.02249
C_ C_ 0.531379 0.105758 0.212432 -0.11473
C_ C_ 0.784969 0.102071 0.209817 -0.11473
C_ C_ 0.555988 0.126195 0.291772 -0.11473
C_ C_ 0.806541 0.131638 0.285299 -0.11473
C_ C_ 0.549119 0.141438 0.218222 -0.11473
C_ C_ 0.803908 0.137928 0.209381 -0.11473
C_ C_ 0.528684 0.0758387 0.24504 -0.02249
C_ C_ 0.778905 0.0803319 0.245832 -0.02249
C_ C_ 0.584836 0.187632 0.259106 0.6875
C_ C_ 0.838 0.18971 0.248799 0.6875
C_ C_ 0.53894 0.0892983 0.286005 -0.11473
C_ C_ 0.789159 0.0957888 0.285003 -0.11473
C_ C_ 0.626594 0.208377 0.384837 0.17695
C_ C_ 0.874785 0.218793 0.379285 0.17695
C_ C_ 0.628145 0.281327 0.386304 0.17695
C_ C_ 0.867205 0.290687 0.371446 0.17695
C_ C_ 0.631483 0.280277 0.429152 -0.11473
C_ C_ 0.864234 0.294979 0.414907 -0.11473
C_ C_ 0.628416 0.243469 0.450972 0.23465
C_ C_ 0.871308 0.262332 0.442042 0.23465
C_ C_ 0.623918 0.206376 0.42964 -0.11473
C_ C_ 0.871998 0.220926 0.422979 -0.11473
C_ C_ 0.621859 0.216029 0.127486 0.17695
C_ C_ 0.871919 0.287854 0.11982 0.17695
C_ C_ 0.624907 0.288981 0.13781 0.17695
C_ C_ 0.867524 0.214226 0.122728 0.17695
C_ C_ 0.624105 0.294873 0.0942163 -0.11473
C_ C_ 0.866648 0.212761 0.0790429 -0.11473
C_ C_ 0.623666 0.261387 0.0663685 0.23465
C_ C_ 0.872647 0.249136 0.05475 0.23465
C_ C_ 0.620798 0.221702 0.0830751 -0.11473
C_ C_ 0.874543 0.287149 0.0759501 -0.11473
C_ C_ 0.533084 0.498279 0.270069 0.05793
C_ C_ 0.778161 0.497317 0.252539 0.05793
C_ C_ 0.719023 1.00037 0.257238 0.05793
C_ C_ 0.970202 0.998583 0.244246 0.05793
Br Br 0.574579 0.498705 0.287576 -0.17191
Br Br 0.822572 0.503534 0.251607 -0.17191
Br Br 0.677218 -0.0029519999999999547 0.270487 -0.17191
Br Br 0.928133 -0.000561957 0.232021 -0.17191
N_ N_ 0.623869 0.246469 0.36403 -0.272
N_ N_ 0.874931 0.253728 0.355043 -0.272
N_ N_ 0.627181 0.242992 0.496143 -0.12501
N_ N_ 0.876148 0.269606 0.4854 -0.12501
N_ N_ 0.624852 0.250034 0.154039 -0.272
N_ N_ 0.871737 0.251734 0.143222 -0.272
N_ N_ 0.620375 0.267862 0.0216495 -0.12501
N_ N_ 0.865195 0.25119 0.0109196 -0.12501
O_ O_ 0.588875 0.290024 0.228682 -0.60745
O_ O_ 0.8472 0.296389 0.217676 -0.60745
O_ O_ 0.597726 0.297122 0.297242 -0.60745
O_ O_ 0.840171 0.283552 0.285304 -0.60745
O_ O_ 0.658004 0.289297 0.294494 -0.60745
O_ O_ 0.904289 0.29767 0.286341 -0.60745
O_ O_ 0.654286 0.295936 0.225819 -0.60745
O_ O_ 0.9087 0.295644 0.217938 -0.60745
O_ O_ 0.650666 0.201729 0.289281 -0.60745
O_ O_ 0.914375 0.207972 0.285809 -0.60745
O_ O_ 0.659014 0.21071 0.221749 -0.60745
O_ O_ 0.905732 0.203212 0.218751 -0.60745
O_ O_ 0.59561 0.201456 0.224747 -0.60745
O_ O_ 0.84294 0.211624 0.215402 -0.60745
O_ O_ 0.589315 0.205947 0.292656 -0.60745
O_ O_ 0.853209 0.196153 0.28059 -0.60745
Zn Zn 0.622596 0.252185 0.795309 0.9476
Zn Zn 0.87716 0.252781 0.782385 0.9476
Zn Zn 0.621345 0.252717 0.72505 0.9476
Zn Zn 0.874152 0.255212 0.711382 0.9476
H_ H_ 0.5272 0.412195 0.688925 0.10932
H_ H_ 0.781818 0.423927 0.683889 0.10932
H_ H_ 0.568171 0.362473 0.824496 0.10932
H_ H_ 0.801189 0.336821 0.81197 0.10932
H_ H_ 0.545084 0.339879 0.694049 0.10932
H_ H_ 0.81367 0.366608 0.680506 0.10932
H_ H_ 0.54573 0.4271 0.820907 0.10932
H_ H_ 0.77686 0.408883 0.818924 0.10932
H_ H_ 0.700925 0.434036 0.81582 0.10932
H_ H_ 0.976396 0.41168 0.815879 0.10932
H_ H_ 0.696241 0.333072 0.699749 0.10932
H_ H_ 0.927152 0.367671 0.681517 0.10932
H_ H_ 0.669522 0.372125 0.824001 0.10932
H_ H_ 0.950091 0.345661 0.811772 0.10932
H_ H_ 0.717369 0.408124 0.684894 0.10932
H_ H_ 0.963742 0.428476 0.684913 0.10932
H_ H_ 0.712572 0.075403 0.816929 0.10932
H_ H_ 0.960262 0.0718892 0.804207 0.10932
H_ H_ 0.68089 0.154094 0.689209 0.10932
H_ H_ 0.93719 0.157825 0.677943 0.10932
H_ H_ 0.67794 0.139865 0.824964 0.10932
H_ H_ 0.937945 0.143645 0.811111 0.10932
H_ H_ 0.710173 0.08991 0.683204 0.10932
H_ H_ 0.963771 0.0927803 0.669632 0.10932
H_ H_ 0.526921 0.0903594 0.686784 0.10932
H_ H_ 0.775699 0.0973871 0.677963 0.10932
H_ H_ 0.560112 0.146187 0.827563 0.10932
H_ H_ 0.822838 0.145354 0.811261 0.10932
H_ H_ 0.552949 0.156197 0.691415 0.10932
H_ H_ 0.807466 0.158244 0.678638 0.10932
H_ H_ 0.539482 0.0782733 0.824905 0.10932
H_ H_ 0.791763 0.0845686 0.811985 0.10932
H_ H_ 0.630824 0.315306 0.872539 0.10932
H_ H_ 0.923559 0.258249 0.849853 0.10932
H_ H_ 0.616909 0.182417 0.864374 0.10932
H_ H_ 0.828568 0.254656 0.857539 0.10932
H_ H_ 0.624122 0.176462 0.941745 0.10932
H_ H_ 0.831918 0.259688 0.936788 0.10932
H_ H_ 0.625433 0.30936 0.950409 0.10932
H_ H_ 0.928129 0.249876 0.925974 0.10932
H_ H_ 0.597796 0.317176 0.654584 0.10932
H_ H_ 0.877264 0.320821 0.632231 0.10932
H_ H_ 0.64731 0.205787 0.64335 0.10932
H_ H_ 0.878937 0.189174 0.645902 0.10932
H_ H_ 0.646585 0.209575 0.56717 0.10932
H_ H_ 0.882155 0.180623 0.569121 0.10932
H_ H_ 0.5986 0.32632 0.57339 0.10932
H_ H_ 0.88188 0.313897 0.554794 0.10932
C_ C_ 0.561342 0.345767 0.759154 -0.02249
C_ C_ 0.812298 0.348805 0.748156 -0.02249
C_ C_ 0.514611 0.464369 0.755451 -0.02249
C_ C_ 0.761546 0.460011 0.75384 -0.02249
C_ C_ 0.535316 0.400581 0.718907 -0.11473
C_ C_ 0.78608 0.406361 0.712204 -0.11473
C_ C_ 0.559587 0.370962 0.794441 -0.11473
C_ C_ 0.799814 0.359103 0.786412 -0.11473
C_ C_ 0.548116 0.362017 0.721326 -0.11473
C_ C_ 0.803009 0.369652 0.711048 -0.11473
C_ C_ 0.53225 0.424673 0.755661 -0.02249
C_ C_ 0.779483 0.420789 0.752486 -0.02249
C_ C_ 0.580085 0.307612 0.760902 0.6875
C_ C_ 0.836339 0.31507 0.746404 0.6875
C_ C_ 0.544757 0.40931 0.793255 -0.11473
C_ C_ 0.784993 0.396233 0.787936 -0.11473
C_ C_ 0.680324 0.349396 0.759523 -0.02249
C_ C_ 0.9334 0.353559 0.748749 -0.02249
C_ C_ 0.729795 0.463431 0.746835 -0.02249
C_ C_ 0.987054 0.462475 0.752303 -0.02249
C_ C_ 0.70048 0.412984 0.789096 -0.11473
C_ C_ 0.966638 0.399355 0.786501 -0.11473
C_ C_ 0.696424 0.357808 0.722565 -0.11473
C_ C_ 0.936667 0.37813 0.710743 -0.11473
C_ C_ 0.682498 0.378069 0.793307 -0.11473
C_ C_ 0.951409 0.364135 0.784961 -0.11473
C_ C_ 0.711283 0.42476 0.749951 -0.02249
C_ C_ 0.970541 0.423765 0.750056 -0.02249
C_ C_ 0.659384 0.313735 0.760868 0.6875
C_ C_ 0.91515 0.314551 0.749346 0.6875
C_ C_ 0.70701 0.398746 0.715744 -0.11473
C_ C_ 0.959517 0.409698 0.712616 -0.11473
C_ C_ 0.6811 0.154268 0.75644 -0.02249
C_ C_ 0.934405 0.154607 0.746047 -0.02249
C_ C_ 0.732513 0.0434299 0.743494 -0.02249
C_ C_ 0.982525 0.0387329 0.733241 -0.02249
C_ C_ 0.705786 0.0935007 0.790528 -0.11473
C_ C_ 0.955191 0.0910518 0.776335 -0.11473
C_ C_ 0.689494 0.139409 0.716618 -0.11473
C_ C_ 0.942933 0.139916 0.706202 -0.11473
C_ C_ 0.689057 0.13083 0.793697 -0.11473
C_ C_ 0.942727 0.131476 0.781177 -0.11473
C_ C_ 0.714938 0.0815229 0.74996 -0.02249
C_ C_ 0.965039 0.0779287 0.737637 -0.02249
C_ C_ 0.661428 0.192248 0.75982 0.6875
C_ C_ 0.917396 0.193266 0.749158 0.6875
C_ C_ 0.70597 0.102749 0.714529 -0.11473
C_ C_ 0.957461 0.102346 0.70147 -0.11473
C_ C_ 0.563566 0.151438 0.757441 -0.02249
C_ C_ 0.817505 0.15598 0.745462 -0.02249
C_ C_ 0.515085 0.036764 0.755098 -0.02249
C_ C_ 0.764698 0.0443386 0.742804 -0.02249
C_ C_ 0.536747 0.0980261 0.717499 -0.11473
C_ C_ 0.78528 0.107324 0.706996 -0.11473
C_ C_ 0.556489 0.131789 0.795373 -0.11473
C_ C_ 0.813718 0.133 0.782231 -0.11473
C_ C_ 0.551586 0.136104 0.71945 -0.11473
C_ C_ 0.804715 0.14094 0.708261 -0.11473
C_ C_ 0.531821 0.076359 0.754517 -0.02249
C_ C_ 0.780234 0.0853632 0.744266 -0.02249
C_ C_ 0.583528 0.190112 0.756478 0.6875
C_ C_ 0.836284 0.194975 0.744259 0.6875
C_ C_ 0.542109 0.0925361 0.79329 -0.11473
C_ C_ 0.794736 0.0980571 0.782034 -0.11473
C_ C_ 0.625919 0.285595 0.887332 0.17695
C_ C_ 0.903315 0.256618 0.870081 0.17695
C_ C_ 0.620051 0.210888 0.884154 0.17695
C_ C_ 0.850532 0.254052 0.875075 0.17695
C_ C_ 0.624304 0.20723 0.927651 -0.11473
C_ C_ 0.853132 0.258468 0.919581 -0.11473
C_ C_ 0.624947 0.242889 0.952988 0.23465
C_ C_ 0.881893 0.25423 0.939397 0.23465
C_ C_ 0.625101 0.281656 0.932006 -0.11473
C_ C_ 0.906433 0.256531 0.913051 -0.11473
C_ C_ 0.606787 0.292533 0.634155 0.17695
C_ C_ 0.877311 0.28937 0.617871 0.17695
C_ C_ 0.634467 0.231101 0.630306 0.17695
C_ C_ 0.882509 0.216835 0.62715 0.17695
C_ C_ 0.63285 0.231384 0.585034 -0.11473
C_ C_ 0.883663 0.211276 0.582595 -0.11473
C_ C_ 0.619168 0.265782 0.564952 0.23465
C_ C_ 0.884831 0.246403 0.556117 0.23465
C_ C_ 0.606607 0.297085 0.588378 -0.11473
C_ C_ 0.882013 0.286399 0.574197 -0.11473
C_ C_ 0.529611 0.502988 0.75204 0.05793
C_ C_ 0.778678 0.496315 0.757703 0.05793
C_ C_ 0.716921 0.00565023 0.742697 0.05793
C_ C_ 0.967639 0.000187641 0.732642 0.05793
Br Br 0.570008 0.504895 0.738534 -0.17191
Br Br 0.819509 0.494738 0.779385 -0.17191
Br Br 0.674072 0.00706567 0.73945 -0.17191
Br Br 0.92375 0.0010711 0.736255 -0.17191
N_ N_ 0.620663 0.24903 0.864969 -0.272
N_ N_ 0.876174 0.255225 0.851983 -0.272
N_ N_ 0.622821 0.238758 0.99712 -0.12501
N_ N_ 0.885725 0.248862 0.984393 -0.12501
N_ N_ 0.621377 0.261897 0.653531 -0.272
N_ N_ 0.8771 0.254164 0.642626 -0.272
N_ N_ 0.618792 0.272006 0.519745 -0.12501
N_ N_ 0.883528 0.241959 0.510007 -0.12501
O_ O_ 0.591225 0.294485 0.72798 -0.60745
O_ O_ 0.844079 0.297132 0.711559 -0.60745
O_ O_ 0.588773 0.293186 0.794966 -0.60745
O_ O_ 0.847475 0.299938 0.781005 -0.60745
O_ O_ 0.651598 0.299536 0.79675 -0.60745
O_ O_ 0.910227 0.292854 0.783065 -0.60745
O_ O_ 0.650412 0.296202 0.727543 -0.60745
O_ O_ 0.905497 0.300753 0.714976 -0.60745
O_ O_ 0.656743 0.20934 0.794098 -0.60745
O_ O_ 0.907087 0.205262 0.783519 -0.60745
O_ O_ 0.652284 0.209598 0.725596 -0.60745
O_ O_ 0.907313 0.209806 0.715006 -0.60745
O_ O_ 0.592774 0.204919 0.720825 -0.60745
O_ O_ 0.843966 0.20996 0.70912 -0.60745
O_ O_ 0.593125 0.203938 0.790952 -0.60745
O_ O_ 0.845779 0.210882 0.778593 -0.60745
Zn Zn 0.625001 0.748552 0.284043 0.9476
Zn Zn 0.874642 0.751581 0.28091 0.9476
Zn Zn 0.626162 0.750041 0.215555 0.9476
Zn Zn 0.869734 0.748848 0.209532 0.9476
H_ H_ 0.528716 0.906772 0.177867 0.10932
H_ H_ 0.785233 0.922023 0.170894 0.10932
H_ H_ 0.576106 0.858302 0.307511 0.10932
H_ H_ 0.815934 0.857209 0.30769 0.10932
H_ H_ 0.562338 0.847373 0.175837 0.10932
H_ H_ 0.808249 0.852068 0.171612 0.10932
H_ H_ 0.550665 0.924657 0.310092 0.10932
H_ H_ 0.791434 0.922754 0.306079 0.10932
H_ H_ 0.727795 0.906171 0.31126 0.10932
H_ H_ 0.958856 0.922183 0.311107 0.10932
H_ H_ 0.673071 0.861755 0.181578 0.10932
H_ H_ 0.931973 0.853202 0.179253 0.10932
H_ H_ 0.694141 0.841844 0.311165 0.10932
H_ H_ 0.930831 0.859205 0.312088 0.10932
H_ H_ 0.702889 0.927826 0.181418 0.10932
H_ H_ 0.959354 0.91763 0.174513 0.10932
H_ H_ 0.706202 0.579045 0.326105 0.10932
H_ H_ 0.939348 0.563076 0.300618 0.10932
H_ H_ 0.697587 0.651256 0.195427 0.10932
H_ H_ 0.954958 0.669304 0.192451 0.10932
H_ H_ 0.673371 0.638231 0.323 0.10932
H_ H_ 0.910139 0.626399 0.304415 0.10932
H_ H_ 0.720869 0.583798 0.194461 0.10932
H_ H_ 0.979185 0.60521 0.1858 0.10932
H_ H_ 0.535631 0.574809 0.192169 0.10932
H_ H_ 0.788115 0.572375 0.184542 0.10932
H_ H_ 0.552831 0.660161 0.31506 0.10932
H_ H_ 0.803828 0.653941 0.316678 0.10932
H_ H_ 0.562665 0.640223 0.18464 0.10932
H_ H_ 0.814134 0.640724 0.182534 0.10932
H_ H_ 0.526589 0.592429 0.321985 0.10932
H_ H_ 0.775941 0.587098 0.316878 0.10932
H_ H_ 0.620259 0.686428 0.3638 0.10932
H_ H_ 0.86051 0.815536 0.358491 0.10932
H_ H_ 0.636714 0.810865 0.354679 0.10932
H_ H_ 0.884339 0.688748 0.350571 0.10932
H_ H_ 0.636355 0.817829 0.431752 0.10932
H_ H_ 0.874012 0.683839 0.427429 0.10932
H_ H_ 0.637283 0.686726 0.443177 0.10932
H_ H_ 0.866221 0.817058 0.432108 0.10932
H_ H_ 0.630039 0.679721 0.146599 0.10932
H_ H_ 0.863056 0.680343 0.142122 0.10932
H_ H_ 0.621721 0.806504 0.135556 0.10932
H_ H_ 0.875701 0.806083 0.130872 0.10932
H_ H_ 0.617295 0.802331 0.056759 0.10932
H_ H_ 0.872476 0.803185 0.0537329 0.10932
H_ H_ 0.636606 0.673753 0.0668319 0.10932
H_ H_ 0.866606 0.670554 0.0626626 0.10932
C_ C_ 0.569948 0.8471 0.241991 -0.02249
C_ C_ 0.816884 0.851355 0.239985 -0.02249
C_ C_ 0.517863 0.958706 0.242334 -0.02249
C_ C_ 0.764629 0.965423 0.237874 -0.02249
C_ C_ 0.539788 0.898166 0.20638 -0.11473
C_ C_ 0.792389 0.908156 0.200498 -0.11473
C_ C_ 0.567755 0.871766 0.279167 -0.11473
C_ C_ 0.811124 0.87308 0.276749 -0.11473
C_ C_ 0.557817 0.863362 0.205249 -0.11473
C_ C_ 0.805598 0.868625 0.201113 -0.11473
C_ C_ 0.536813 0.920802 0.24361 -0.02249
C_ C_ 0.784584 0.926514 0.238078 -0.02249
C_ C_ 0.587132 0.809438 0.242545 0.6875
C_ C_ 0.833845 0.810897 0.239886 0.6875
C_ C_ 0.54978 0.906046 0.28045 -0.11473
C_ C_ 0.796187 0.90993 0.275413 -0.11473
C_ C_ 0.685823 0.843665 0.245424 -0.02249
C_ C_ 0.931481 0.847369 0.244917 -0.02249
C_ C_ 0.734741 0.962996 0.249319 -0.02249
C_ C_ 0.98603 0.960579 0.243839 -0.02249
C_ C_ 0.715866 0.896589 0.282958 -0.11473
C_ C_ 0.957816 0.905119 0.28126 -0.11473
C_ C_ 0.685727 0.870346 0.20952 -0.11473
C_ C_ 0.940403 0.866628 0.207264 -0.11473
C_ C_ 0.699894 0.857366 0.281724 -0.11473
C_ C_ 0.939234 0.870162 0.282141 -0.11473
C_ C_ 0.717521 0.92222 0.247046 -0.02249
C_ C_ 0.969663 0.919584 0.243508 -0.02249
C_ C_ 0.666562 0.805283 0.247319 0.6875
C_ C_ 0.910399 0.809767 0.246278 0.6875
C_ C_ 0.701663 0.907773 0.209639 -0.11473
C_ C_ 0.958266 0.901901 0.205594 -0.11473
C_ C_ 0.681984 0.649062 0.257551 -0.02249
C_ C_ 0.93119 0.655742 0.250062 -0.02249
C_ C_ 0.732118 0.533918 0.261295 -0.02249
C_ C_ 0.982043 0.539487 0.242266 -0.02249
C_ C_ 0.70099 0.590265 0.29622 -0.11473
C_ C_ 0.944618 0.587646 0.27919 -0.11473
C_ C_ 0.69744 0.633349 0.222036 -0.11473
C_ C_ 0.950302 0.647989 0.217036 -0.11473
C_ C_ 0.68255 0.62578 0.29421 -0.11473
C_ C_ 0.929853 0.625738 0.282449 -0.11473
C_ C_ 0.714227 0.573358 0.25962 -0.02249
C_ C_ 0.964042 0.57948 0.243602 -0.02249
C_ C_ 0.66353 0.687627 0.255327 0.6875
C_ C_ 0.911473 0.693437 0.249746 0.6875
C_ C_ 0.711042 0.594841 0.221775 -0.11473
C_ C_ 0.966454 0.610473 0.214885 -0.11473
C_ C_ 0.563147 0.652693 0.250219 -0.02249
C_ C_ 0.812835 0.650593 0.249802 -0.02249
C_ C_ 0.51751 0.535451 0.261807 -0.02249
C_ C_ 0.762661 0.535184 0.255671 -0.02249
C_ C_ 0.542025 0.591318 0.219822 -0.11473
C_ C_ 0.790504 0.589578 0.214055 -0.11473
C_ C_ 0.552552 0.639143 0.288575 -0.11473
C_ C_ 0.80274 0.635228 0.288489 -0.11473
C_ C_ 0.55872 0.626913 0.215014 -0.11473
C_ C_ 0.807912 0.627371 0.213338 -0.11473
C_ C_ 0.535339 0.573783 0.259291 -0.02249
C_ C_ 0.778024 0.577413 0.252087 -0.02249
C_ C_ 0.584244 0.69095 0.247382 0.6875
C_ C_ 0.83267 0.687716 0.246721 0.6875
C_ C_ 0.536655 0.600359 0.292735 -0.11473
C_ C_ 0.784578 0.600052 0.287867 -0.11473
C_ C_ 0.626447 0.713413 0.38089 0.17695
C_ C_ 0.871567 0.78813 0.372579 0.17695
C_ C_ 0.632075 0.784368 0.3748 0.17695
C_ C_ 0.880783 0.716913 0.368709 0.17695
C_ C_ 0.635302 0.788036 0.417873 -0.11473
C_ C_ 0.877589 0.713868 0.412366 -0.11473
C_ C_ 0.635724 0.753563 0.442913 0.23465
C_ C_ 0.875108 0.74987 0.436435 0.23465
C_ C_ 0.634639 0.715141 0.423859 -0.11473
C_ C_ 0.872563 0.788643 0.416381 -0.11473
C_ C_ 0.627954 0.706374 0.126623 0.17695
C_ C_ 0.868216 0.706287 0.122326 0.17695
C_ C_ 0.617789 0.776733 0.12006 0.17695
C_ C_ 0.872932 0.77922 0.116378 0.17695
C_ C_ 0.617947 0.774472 0.0759019 -0.11473
C_ C_ 0.875512 0.774917 0.0714635 -0.11473
C_ C_ 0.623022 0.735294 0.0557629 0.23465
C_ C_ 0.873783 0.735997 0.0522464 0.23465
C_ C_ 0.63125 0.70186 0.0821929 -0.11473
C_ C_ 0.869571 0.701201 0.0781666 -0.11473
C_ C_ 0.530413 0.99726353 0.2338 0.05793
C_ C_ 0.778415 1.00351037 0.236522 0.05793
C_ C_ 0.715911 0.496399 0.260551 0.05793
C_ C_ 0.96707 0.500554 0.239825 0.05793
Br Br 0.571963 0.99815168 0.212563 -0.17191
Br Br 0.820899 1.0050882 0.219694 -0.17191
Br Br 0.672086 0.491254 0.263855 -0.17191
Br Br 0.924625 0.496485 0.224493 -0.17191
N_ N_ 0.626631 0.747997 0.356716 -0.272
N_ N_ 0.875234 0.754101 0.349064 -0.272
N_ N_ 0.637469 0.756838 0.487942 -0.12501
N_ N_ 0.871622 0.746031 0.482011 -0.12501
N_ N_ 0.622492 0.743311 0.144078 -0.272
N_ N_ 0.871402 0.744092 0.139114 -0.272
N_ N_ 0.6277 0.731951 0.0102967 -0.12501
N_ N_ 0.871572 0.732453 0.00756333 -0.12501
O_ O_ 0.595666 0.793992 0.208439 -0.60745
O_ O_ 0.84014 0.792401 0.206125 -0.60745
O_ O_ 0.598175 0.796833 0.277429 -0.60745
O_ O_ 0.842771 0.793484 0.274487 -0.60745
O_ O_ 0.655914 0.792007 0.280932 -0.60745
O_ O_ 0.900816 0.798889 0.28228 -0.60745
O_ O_ 0.659652 0.787312 0.212534 -0.60745
O_ O_ 0.905997 0.788584 0.214519 -0.60745
O_ O_ 0.653316 0.700911 0.289899 -0.60745
O_ O_ 0.907475 0.712843 0.284517 -0.60745
O_ O_ 0.653208 0.701633 0.21934 -0.60745
O_ O_ 0.900357 0.705003 0.215441 -0.60745
O_ O_ 0.593887 0.703616 0.214094 -0.60745
O_ O_ 0.835851 0.706136 0.213187 -0.60745
O_ O_ 0.591596 0.708604 0.281968 -0.60745
O_ O_ 0.843503 0.70333 0.281412 -0.60745
Zn Zn 0.62719 0.749087 0.784949 0.9476
Zn Zn 0.874248 0.750783 0.77863 0.9476
Zn Zn 0.625233 0.750006 0.714014 0.9476
Zn Zn 0.868303 0.749469 0.709206 0.9476
H_ H_ 0.531924 0.91383 0.681607 0.10932
H_ H_ 0.78361 0.925721 0.673894 0.10932
H_ H_ 0.574026 0.857911 0.814208 0.10932
H_ H_ 0.812416 0.858333 0.81084 0.10932
H_ H_ 0.557137 0.846698 0.681117 0.10932
H_ H_ 0.804686 0.853928 0.674259 0.10932
H_ H_ 0.540484 0.919277 0.815896 0.10932
H_ H_ 0.788427 0.927103 0.810539 0.10932
H_ H_ 0.707967 0.929344 0.804643 0.10932
H_ H_ 0.945293 0.93294 0.795316 0.10932
H_ H_ 0.684864 0.854464 0.675139 0.10932
H_ H_ 0.954754 0.829005 0.679363 0.10932
H_ H_ 0.680827 0.86333 0.808752 0.10932
H_ H_ 0.91976 0.865972 0.799822 0.10932
H_ H_ 0.710122 0.921725 0.672015 0.10932
H_ H_ 0.97277 0.902446 0.670802 0.10932
H_ H_ 0.702498 0.571594 0.811914 0.10932
H_ H_ 0.957961 0.580244 0.814881 0.10932
H_ H_ 0.706084 0.665413 0.688713 0.10932
H_ H_ 0.934015 0.644546 0.675385 0.10932
H_ H_ 0.679326 0.639934 0.816248 0.10932
H_ H_ 0.927377 0.64075 0.810985 0.10932
H_ H_ 0.725954 0.596089 0.6842 0.10932
H_ H_ 0.971879 0.587486 0.681934 0.10932
H_ H_ 0.532232 0.58592 0.686495 0.10932
H_ H_ 0.786315 0.576433 0.68194 0.10932
H_ H_ 0.573778 0.639773 0.81791 0.10932
H_ H_ 0.814821 0.64213 0.815886 0.10932
H_ H_ 0.559254 0.64999 0.686854 0.10932
H_ H_ 0.817096 0.638883 0.679434 0.10932
H_ H_ 0.54163 0.577253 0.818812 0.10932
H_ H_ 0.781212 0.577831 0.812957 0.10932
H_ H_ 0.625604 0.686033 0.859172 0.10932
H_ H_ 0.878125 0.69091 0.857426 0.10932
H_ H_ 0.627756 0.81771 0.855458 0.10932
H_ H_ 0.874843 0.820439 0.850843 0.10932
H_ H_ 0.627842 0.819051 0.935486 0.10932
H_ H_ 0.873155 0.82675 0.926241 0.10932
H_ H_ 0.620677 0.688274 0.935492 0.10932
H_ H_ 0.867472 0.693656 0.932166 0.10932
H_ H_ 0.62645 0.678555 0.641564 0.10932
H_ H_ 0.8561 0.818614 0.643625 0.10932
H_ H_ 0.623359 0.809348 0.638203 0.10932
H_ H_ 0.879608 0.693663 0.630752 0.10932
H_ H_ 0.632832 0.805771 0.563112 0.10932
H_ H_ 0.885162 0.702059 0.551759 0.10932
H_ H_ 0.61736 0.676388 0.566104 0.10932
H_ H_ 0.863307 0.832263 0.566459 0.10932
C_ C_ 0.568283 0.846041 0.747063 -0.02249
C_ C_ 0.814176 0.852928 0.743007 -0.02249
C_ C_ 0.517319 0.960253 0.750793 -0.02249
C_ C_ 0.763663 0.96717 0.741072 -0.02249
C_ C_ 0.541839 0.903445 0.711592 -0.11473
C_ C_ 0.78538 0.9078 0.704552 -0.11473
C_ C_ 0.563579 0.867878 0.785365 -0.11473
C_ C_ 0.805782 0.873147 0.781753 -0.11473
C_ C_ 0.556492 0.863285 0.710633 -0.11473
C_ C_ 0.80167 0.870194 0.704021 -0.11473
C_ C_ 0.533704 0.92111 0.749699 -0.02249
C_ C_ 0.780842 0.927488 0.742786 -0.02249
C_ C_ 0.586811 0.808236 0.746872 0.6875
C_ C_ 0.833226 0.813243 0.742973 0.6875
C_ C_ 0.544489 0.903366 0.787478 -0.11473
C_ C_ 0.789336 0.908835 0.781397 -0.11473
C_ C_ 0.682368 0.851146 0.741156 -0.02249
C_ C_ 0.931352 0.846549 0.736714 -0.02249
C_ C_ 0.732046 0.967671 0.739237 -0.02249
C_ C_ 0.981842 0.960339 0.734271 -0.02249
C_ C_ 0.704904 0.913044 0.7772 -0.11473
C_ C_ 0.947397 0.911775 0.76908 -0.11473
C_ C_ 0.692717 0.866847 0.703842 -0.11473
C_ C_ 0.949478 0.855447 0.702018 -0.11473
C_ C_ 0.689055 0.874958 0.778309 -0.11473
C_ C_ 0.931407 0.873515 0.771947 -0.11473
C_ C_ 0.714994 0.928123 0.740179 -0.02249
C_ C_ 0.964042 0.921607 0.733388 -0.02249
C_ C_ 0.662797 0.813251 0.742874 0.6875
C_ C_ 0.914388 0.807354 0.740322 0.6875
C_ C_ 0.708264 0.905801 0.702143 -0.11473
C_ C_ 0.965046 0.891365 0.700334 -0.11473
C_ C_ 0.686426 0.656401 0.74993 -0.02249
C_ C_ 0.929992 0.651907 0.744446 -0.02249
C_ C_ 0.733428 0.538695 0.743023 -0.02249
C_ C_ 0.985021 0.539475 0.745064 -0.02249
C_ C_ 0.701787 0.591853 0.78311 -0.11473
C_ C_ 0.953794 0.593685 0.783021 -0.11473
C_ C_ 0.70257 0.64298 0.713715 -0.11473
C_ C_ 0.939975 0.632628 0.706033 -0.11473
C_ C_ 0.689104 0.631951 0.786931 -0.11473
C_ C_ 0.937433 0.630336 0.782881 -0.11473
C_ C_ 0.718272 0.580218 0.747461 -0.02249
C_ C_ 0.966362 0.578222 0.746037 -0.02249
C_ C_ 0.664534 0.690408 0.750364 0.6875
C_ C_ 0.912067 0.691375 0.743839 0.6875
C_ C_ 0.718467 0.608117 0.713144 -0.11473
C_ C_ 0.96 0.59864 0.708717 -0.11473
C_ C_ 0.568285 0.650762 0.753089 -0.02249
C_ C_ 0.817229 0.647623 0.747544 -0.02249
C_ C_ 0.512684 0.541602 0.755644 -0.02249
C_ C_ 0.765235 0.534573 0.748543 -0.02249
C_ C_ 0.536994 0.599912 0.716139 -0.11473
C_ C_ 0.793328 0.590053 0.710706 -0.11473
C_ C_ 0.560941 0.630511 0.790663 -0.11473
C_ C_ 0.809035 0.627599 0.786031 -0.11473
C_ C_ 0.556835 0.633376 0.715047 -0.11473
C_ C_ 0.809238 0.626866 0.709295 -0.11473
C_ C_ 0.53004 0.5804 0.753688 -0.02249
C_ C_ 0.78572 0.5717 0.747882 -0.02249
C_ C_ 0.590542 0.684646 0.752426 0.6875
C_ C_ 0.831838 0.69002 0.747027 0.6875
C_ C_ 0.541593 0.595868 0.790717 -0.11473
C_ C_ 0.791523 0.59105 0.786381 -0.11473
C_ C_ 0.628203 0.715772 0.87568 0.17695
C_ C_ 0.877287 0.720623 0.87163 0.17695
C_ C_ 0.62498 0.789065 0.873268 0.17695
C_ C_ 0.873228 0.793243 0.868844 0.17695
C_ C_ 0.626574 0.791476 0.917297 -0.11473
C_ C_ 0.874013 0.795732 0.91213 -0.11473
C_ C_ 0.623448 0.754835 0.94056 0.23465
C_ C_ 0.876366 0.759217 0.938014 0.23465
C_ C_ 0.62478 0.717082 0.918899 -0.11473
C_ C_ 0.875327 0.721356 0.915951 -0.11473
C_ C_ 0.623804 0.70795 0.625223 0.17695
C_ C_ 0.862381 0.794658 0.623742 0.17695
C_ C_ 0.625646 0.779312 0.622905 0.17695
C_ C_ 0.876677 0.723618 0.616014 0.17695
C_ C_ 0.625031 0.778293 0.579307 -0.11473
C_ C_ 0.879102 0.728846 0.571682 -0.11473
C_ C_ 0.622302 0.740554 0.557373 0.23465
C_ C_ 0.876339 0.768205 0.552697 0.23465
C_ C_ 0.62093 0.704796 0.580824 -0.11473
C_ C_ 0.866695 0.801544 0.579418 -0.11473
C_ C_ 0.531485 -0.00153317 0.751515 0.05793
C_ C_ 0.779941 0.00586285 0.742741 0.05793
C_ C_ 0.715828 0.50248 0.742412 0.05793
C_ C_ 0.970356 0.500552 0.75126 0.05793
Br Br 0.57407 -0.000366116 0.744827 -0.17191
Br Br 0.824542 1.00663717 0.745364 -0.17191
Br Br 0.672857 0.505377 0.745728 -0.17191
Br Br 0.928833 0.499894 0.762739 -0.17191
N_ N_ 0.626406 0.751672 0.853621 -0.272
N_ N_ 0.875449 0.756703 0.848763 -0.272
N_ N_ 0.616639 0.756656 0.984153 -0.12501
N_ N_ 0.873981 0.762924 0.98353 -0.12501
N_ N_ 0.622363 0.744439 0.645594 -0.272
N_ N_ 0.870855 0.757196 0.640765 -0.272
N_ N_ 0.617809 0.740814 0.511394 -0.12501
N_ N_ 0.881818 0.772439 0.509027 -0.12501
O_ O_ 0.596167 0.794692 0.713651 -0.60745
O_ O_ 0.837387 0.794139 0.708896 -0.60745
O_ O_ 0.595339 0.791119 0.781059 -0.60745
O_ O_ 0.843644 0.797285 0.777077 -0.60745
O_ O_ 0.655881 0.798614 0.777738 -0.60745
O_ O_ 0.907636 0.795701 0.776703 -0.60745
O_ O_ 0.656172 0.794163 0.709784 -0.60745
O_ O_ 0.900697 0.792649 0.709053 -0.60745
O_ O_ 0.656887 0.708974 0.785011 -0.60745
O_ O_ 0.904239 0.707214 0.778432 -0.60745
O_ O_ 0.656509 0.707707 0.717291 -0.60745
O_ O_ 0.899246 0.703581 0.70865 -0.60745
O_ O_ 0.596181 0.702895 0.718487 -0.60745
O_ O_ 0.836037 0.708537 0.712108 -0.60745
O_ O_ 0.600435 0.698975 0.786259 -0.60745
O_ O_ 0.840114 0.705446 0.781922 -0.60745
_cell_length_a 44.444
_cell_length_b 32.3360000049186
_cell_length_c 31.843999878906452
_cell_angle_alpha 89.99799923859553
_cell_angle_beta 91.13600050494348
_cell_angle_gamma 89.9990006550086
_symmetry_space_group_name_H-M         'P 1'
_symmetry_Int_Tables_number            1
loop_
_symmetry_equiv_pos_as_xyz
   'x, y, z'
                         
loop_
_atom_site_label
_atom_site_type_symbol
_atom_site_fract_x 
_atom_site_fract_y
_atom_site_fract_z
_atom_site_charge
Zn Zn 0.125921 0.249798 0.279269 0.9476
Zn Zn 0.3764 0.249762 0.291127 0.9476
Zn Zn 0.126211 0.251618 0.209171 0.9476
Zn Zn 0.378512 0.249045 0.223274 0.9476
H_ H_ 0.0432738 0.431326 0.192602 0.10932
H_ H_ 0.297034 0.419432 0.18652 0.10932
H_ H_ 0.0629875 0.350509 0.32161 0.10932
H_ H_ 0.318692 0.356312 0.324951 0.10932
H_ H_ 0.0754853 0.374903 0.18724 0.10932
H_ H_ 0.326204 0.352615 0.189148 0.10932
H_ H_ 0.0316893 0.414342 0.324926 0.10932
H_ H_ 0.290449 0.41874 0.318435 0.10932
H_ H_ 0.234663 0.401667 0.309104 0.10932
H_ H_ 0.45376 0.428622 0.328094 0.10932
H_ H_ 0.180845 0.365973 0.180396 0.10932
H_ H_ 0.449185 0.34122 0.203185 0.10932
H_ H_ 0.200009 0.342275 0.3091 0.10932
H_ H_ 0.435194 0.359045 0.337102 0.10932
H_ H_ 0.211089 0.4262 0.181994 0.10932
H_ H_ 0.479523 0.404225 0.206755 0.10932
H_ H_ 0.222771 0.0911207 0.309622 0.10932
H_ H_ 0.47616 0.0848398 0.311475 0.10932
H_ H_ 0.174519 0.134641 0.173849 0.10932
H_ H_ 0.422211 0.138012 0.188535 0.10932
H_ H_ 0.192203 0.155564 0.304586 0.10932
H_ H_ 0.445501 0.146052 0.32049 0.10932
H_ H_ 0.205221 0.0738442 0.175597 0.10932
H_ H_ 0.4514 0.0743246 0.183104 0.10932
H_ H_ 0.0508848 0.0682384 0.187212 0.10932
H_ H_ 0.273634 0.0969043 0.181365 0.10932
H_ H_ 0.0466244 0.163947 0.308151 0.10932
H_ H_ 0.317325 0.149747 0.311666 0.10932
H_ H_ 0.0827837 0.132006 0.189258 0.10932
H_ H_ 0.305349 0.155882 0.180931 0.10932
H_ H_ 0.0205872 0.0992528 0.308499 0.10932
H_ H_ 0.291842 0.0850336 0.31541 0.10932
H_ H_ 0.154595 0.305887 0.355709 0.10932
H_ H_ 0.372468 0.313253 0.369084 0.10932
H_ H_ 0.103592 0.198556 0.358241 0.10932
H_ H_ 0.375097 0.18276 0.362146 0.10932
H_ H_ 0.0996689 0.203184 0.434993 0.10932
H_ H_ 0.375614 0.175727 0.435742 0.10932
H_ H_ 0.157655 0.308747 0.430845 0.10932
H_ H_ 0.369866 0.307278 0.448424 0.10932
H_ H_ 0.138087 0.321686 0.137501 0.10932
H_ H_ 0.396597 0.190214 0.14924 0.10932
H_ H_ 0.117487 0.195474 0.127736 0.10932
H_ H_ 0.368351 0.316087 0.140611 0.10932
H_ H_ 0.125307 0.200445 0.0536859 0.10932
H_ H_ 0.363576 0.308677 0.0648604 0.10932
H_ H_ 0.126917 0.332898 0.0625322 0.10932
H_ H_ 0.382225 0.177539 0.0722436 0.10932
C_ C_ 0.0666432 0.352642 0.252422 -0.02249
C_ C_ 0.322762 0.348102 0.255241 -0.02249
C_ C_ 0.015319 0.465741 0.257406 -0.02249
C_ C_ 0.272769 0.459784 0.247894 -0.02249
C_ C_ 0.046998 0.41374 0.221531 -0.11473
C_ C_ 0.300634 0.403736 0.214943 -0.11473
C_ C_ 0.0567253 0.365999 0.292188 -0.11473
C_ C_ 0.315092 0.369392 0.292739 -0.11473
C_ C_ 0.0627611 0.377015 0.216542 -0.11473
C_ C_ 0.316045 0.366323 0.215875 -0.11473
C_ C_ 0.0339021 0.426479 0.258209 -0.02249
C_ C_ 0.293027 0.423127 0.251552 -0.02249
C_ C_ 0.0879452 0.315578 0.250368 0.6875
C_ C_ 0.342831 0.311469 0.256724 0.6875
C_ C_ 0.0388322 0.402607 0.294328 -0.11473
C_ C_ 0.299448 0.405416 0.290694 -0.11473
C_ C_ 0.189469 0.345262 0.243287 -0.02249
C_ C_ 0.438146 0.344206 0.269883 -0.02249
C_ C_ 0.240977 0.45669 0.246428 -0.02249
C_ C_ 0.485975 0.460927 0.268975 -0.02249
C_ C_ 0.224339 0.391263 0.279646 -0.11473
C_ C_ 0.457597 0.405848 0.306552 -0.11473
C_ C_ 0.193997 0.369743 0.206528 -0.11473
C_ C_ 0.451374 0.358129 0.232421 -0.11473
C_ C_ 0.205982 0.355757 0.27934 -0.11473
C_ C_ 0.444703 0.366333 0.307518 -0.11473
C_ C_ 0.225922 0.416458 0.243384 -0.02249
C_ C_ 0.467787 0.421617 0.267781 -0.02249
C_ C_ 0.170715 0.306038 0.242799 0.6875
C_ C_ 0.417187 0.307759 0.267479 0.6875
C_ C_ 0.21297 0.40387 0.206458 -0.11473
C_ C_ 0.466321 0.395855 0.232131 -0.11473
C_ C_ 0.178504 0.14766 0.24031 -0.02249
C_ C_ 0.42958 0.145894 0.255373 -0.02249
C_ C_ 0.233363 0.0357554 0.243835 -0.02249
C_ C_ 0.481717 0.0323984 0.245939 -0.02249
C_ C_ 0.211193 0.100072 0.278827 -0.11473
C_ C_ 0.461729 0.0925774 0.285232 -0.11473
C_ C_ 0.181971 0.123662 0.203575 -0.11473
C_ C_ 0.431781 0.125094 0.21676 -0.11473
C_ C_ 0.195058 0.136654 0.276394 -0.11473
C_ C_ 0.444083 0.128599 0.289854 -0.11473
C_ C_ 0.214774 0.0753185 0.24254 -0.02249
C_ C_ 0.463195 0.0706516 0.248196 -0.02249
C_ C_ 0.162126 0.189259 0.238288 0.6875
C_ C_ 0.416605 0.18985 0.25856 0.6875
C_ C_ 0.204215 0.0920789 0.203737 -0.11473
C_ C_ 0.448498 0.0870148 0.213491 -0.11473
C_ C_ 0.0648603 0.15546 0.247458 -0.02249
C_ C_ 0.315468 0.156878 0.246077 -0.02249
C_ C_ 0.0185958 0.0383857 0.248902 -0.02249
C_ C_ 0.265181 0.0394512 0.246794 -0.02249
C_ C_ 0.0513979 0.0895285 0.214818 -0.11473
C_ C_ 0.285516 0.103969 0.211046 -0.11473
C_ C_ 0.0477515 0.14464 0.281356 -0.11473
C_ C_ 0.311174 0.134908 0.283337 -0.11473
C_ C_ 0.0672164 0.127236 0.214019 -0.11473
C_ C_ 0.301387 0.14168 0.210634 -0.11473
C_ C_ 0.0367522 0.0770776 0.249791 -0.02249
C_ C_ 0.282172 0.0800245 0.248684 -0.02249
C_ C_ 0.0831996 0.195912 0.249329 0.6875
C_ C_ 0.332987 0.19696 0.246098 0.6875
C_ C_ 0.033471 0.106684 0.281655 -0.11473
C_ C_ 0.294076 0.0986101 0.284825 -0.11473
C_ C_ 0.142144 0.28352 0.372804 0.17695
C_ C_ 0.374762 0.283093 0.38398 0.17695
C_ C_ 0.116287 0.220809 0.374624 0.17695
C_ C_ 0.374466 0.210863 0.379379 0.17695
C_ C_ 0.11485 0.223598 0.417743 -0.11473
C_ C_ 0.372551 0.206577 0.423174 -0.11473
C_ C_ 0.132134 0.254401 0.439804 0.23465
C_ C_ 0.371177 0.242025 0.449594 0.23465
C_ C_ 0.14364 0.285646 0.416666 -0.11473
C_ C_ 0.372427 0.281301 0.42917 -0.11473
C_ C_ 0.127309 0.297274 0.120637 0.17695
C_ C_ 0.385062 0.213417 0.131457 0.17695
C_ C_ 0.122263 0.224586 0.114215 0.17695
C_ C_ 0.369145 0.28474 0.127092 0.17695
C_ C_ 0.120893 0.227893 0.0704469 -0.11473
C_ C_ 0.367858 0.281939 0.0834103 -0.11473
C_ C_ 0.124296 0.266597 0.0496284 0.23465
C_ C_ 0.371013 0.242824 0.0638372 0.23465
C_ C_ 0.125208 0.302095 0.07642 -0.11473
C_ C_ 0.381234 0.208827 0.0877473 -0.11473
C_ C_ 0.0308366 0.503842 0.255492 0.05793
C_ C_ 0.284516 0.500748 0.250704 0.05793
C_ C_ 0.217649 -0.002471000000000001 0.250052 0.05793
C_ C_ 0.468857 0.992974 0.252629 0.05793
Br Br 0.0703846 0.50523 0.279011 -0.17191
Br Br 0.328163 0.506979 0.248312 -0.17191
Br Br 0.174155 -0.006210000000000049 0.253197 -0.17191
Br Br 0.428313 0.989637 0.267004 -0.17191
N_ N_ 0.128448 0.251624 0.351528 -0.272
N_ N_ 0.375937 0.248393 0.360324 -0.272
N_ N_ 0.128784 0.260139 0.483495 -0.12501
N_ N_ 0.369002 0.236651 0.493903 -0.12501
N_ N_ 0.122404 0.258606 0.13742 -0.272
N_ N_ 0.377836 0.250377 0.151773 -0.272
N_ N_ 0.126479 0.269665 0.00575543 -0.12501
N_ N_ 0.367192 0.237433 0.0183058 -0.12501
O_ O_ 0.0979152 0.302972 0.216271 -0.60745
O_ O_ 0.346674 0.288909 0.224627 -0.60745
O_ O_ 0.0985379 0.300265 0.285089 -0.60745
O_ O_ 0.351922 0.298315 0.292099 -0.60745
O_ O_ 0.162469 0.289604 0.278134 -0.60745
O_ O_ 0.409919 0.288055 0.29929 -0.60745
O_ O_ 0.160876 0.292909 0.208224 -0.60745
O_ O_ 0.403723 0.300356 0.231765 -0.60745
O_ O_ 0.154373 0.206983 0.273474 -0.60745
O_ O_ 0.402052 0.199231 0.28991 -0.60745
O_ O_ 0.152923 0.203287 0.202325 -0.60745
O_ O_ 0.411065 0.208612 0.226365 -0.60745
O_ O_ 0.0927967 0.211553 0.215374 -0.60745
O_ O_ 0.349451 0.204665 0.214708 -0.60745
O_ O_ 0.0911025 0.21201 0.283691 -0.60745
O_ O_ 0.340004 0.213697 0.280009 -0.60745
Zn Zn 0.127701 0.245086 0.780298 0.9476
Zn Zn 0.378879 0.249461 0.791889 0.9476
Zn Zn 0.126509 0.249694 0.710657 0.9476
Zn Zn 0.372183 0.250581 0.723302 0.9476
H_ H_ 0.0364015 0.41914 0.677237 0.10932
H_ H_ 0.304802 0.434361 0.698093 0.10932
H_ H_ 0.0582726 0.346766 0.809971 0.10932
H_ H_ 0.307796 0.342165 0.821814 0.10932
H_ H_ 0.0650035 0.350415 0.675182 0.10932
H_ H_ 0.334132 0.372616 0.702089 0.10932
H_ H_ 0.0372324 0.413645 0.810666 0.10932
H_ H_ 0.273195 0.39976 0.820691 0.10932
H_ H_ 0.215731 0.418598 0.821276 0.10932
H_ H_ 0.478765 0.408546 0.824849 0.10932
H_ H_ 0.191688 0.353781 0.677501 0.10932
H_ H_ 0.424115 0.359987 0.693211 0.10932
H_ H_ 0.178329 0.360329 0.812902 0.10932
H_ H_ 0.452884 0.342821 0.821817 0.10932
H_ H_ 0.223333 0.414187 0.682594 0.10932
H_ H_ 0.454176 0.42632 0.693849 0.10932
H_ H_ 0.224598 0.0871014 0.814395 0.10932
H_ H_ 0.465175 0.0834347 0.824088 0.10932
H_ H_ 0.194411 0.147007 0.677096 0.10932
H_ H_ 0.431056 0.140851 0.687944 0.10932
H_ H_ 0.188168 0.143773 0.81201 0.10932
H_ H_ 0.436889 0.142853 0.82442 0.10932
H_ H_ 0.222586 0.0844944 0.679171 0.10932
H_ H_ 0.459435 0.0753752 0.69006 0.10932
H_ H_ 0.0289059 0.0873155 0.669291 0.10932
H_ H_ 0.286369 0.0809853 0.684027 0.10932
H_ H_ 0.0656985 0.139445 0.804496 0.10932
H_ H_ 0.318371 0.141394 0.818701 0.10932
H_ H_ 0.0633917 0.14636 0.672614 0.10932
H_ H_ 0.31926 0.137257 0.685541 0.10932
H_ H_ 0.0354091 0.0769963 0.80437 0.10932
H_ H_ 0.280999 0.0833016 0.820476 0.10932
H_ H_ 0.105821 0.299873 0.855803 0.10932
H_ H_ 0.335936 0.272215 0.871649 0.10932
H_ H_ 0.150268 0.186126 0.853561 0.10932
H_ H_ 0.423703 0.224521 0.862617 0.10932
H_ H_ 0.152938 0.181615 0.928635 0.10932
H_ H_ 0.431341 0.227798 0.942589 0.10932
H_ H_ 0.116908 0.306371 0.933735 0.10932
H_ H_ 0.343376 0.279922 0.948014 0.10932
H_ H_ 0.123738 0.177698 0.639539 0.10932
H_ H_ 0.413023 0.286569 0.648976 0.10932
H_ H_ 0.128964 0.30964 0.630049 0.10932
H_ H_ 0.327544 0.23062 0.645143 0.10932
H_ H_ 0.13219 0.305573 0.553462 0.10932
H_ H_ 0.327754 0.233052 0.56976 0.10932
H_ H_ 0.129447 0.172403 0.564585 0.10932
H_ H_ 0.416999 0.284754 0.575805 0.10932
C_ C_ 0.0662264 0.344887 0.743183 -0.02249
C_ C_ 0.318449 0.349112 0.757234 -0.02249
C_ C_ 0.0174605 0.462759 0.745492 -0.02249
C_ C_ 0.267835 0.463072 0.759955 -0.02249
C_ C_ 0.0417026 0.40239 0.706265 -0.11473
C_ C_ 0.304165 0.415527 0.725576 -0.11473
C_ C_ 0.058607 0.363339 0.780864 -0.11473
C_ C_ 0.30222 0.358752 0.792336 -0.11473
C_ C_ 0.0595685 0.367387 0.70612 -0.11473
C_ C_ 0.319922 0.377615 0.724636 -0.11473
C_ C_ 0.0339203 0.422169 0.744369 -0.02249
C_ C_ 0.285495 0.423868 0.759552 -0.02249
C_ C_ 0.085775 0.307889 0.741914 0.6875
C_ C_ 0.339112 0.311875 0.755332 0.6875
C_ C_ 0.0408083 0.399208 0.780177 -0.11473
C_ C_ 0.283666 0.393352 0.791396 -0.11473
C_ C_ 0.183735 0.349369 0.747122 -0.02249
C_ C_ 0.43442 0.348577 0.759502 -0.02249
C_ C_ 0.23692 0.461763 0.75355 -0.02249
C_ C_ 0.484083 0.464397 0.760439 -0.02249
C_ C_ 0.210326 0.403039 0.789299 -0.11473
C_ C_ 0.465878 0.399471 0.795721 -0.11473
C_ C_ 0.197014 0.366187 0.710396 -0.11473
C_ C_ 0.437279 0.37155 0.721894 -0.11473
C_ C_ 0.189228 0.368927 0.786222 -0.11473
C_ C_ 0.450594 0.362092 0.795994 -0.11473
C_ C_ 0.219548 0.421372 0.751146 -0.02249
C_ C_ 0.468375 0.42334 0.758926 -0.02249
C_ C_ 0.165566 0.308956 0.744638 0.6875
C_ C_ 0.415878 0.310383 0.760883 0.6875
C_ C_ 0.215422 0.400828 0.713445 -0.11473
C_ C_ 0.453463 0.409714 0.722228 -0.11473
C_ C_ 0.187113 0.150733 0.744326 -0.02249
C_ C_ 0.434249 0.151913 0.757915 -0.02249
C_ C_ 0.236569 0.0353595 0.748 -0.02249
C_ C_ 0.483866 0.0367051 0.755058 -0.02249
C_ C_ 0.213927 0.0962758 0.784128 -0.11473
C_ C_ 0.457395 0.0946006 0.79403 -0.11473
C_ C_ 0.198648 0.134058 0.707316 -0.11473
C_ C_ 0.438171 0.129993 0.718486 -0.11473
C_ C_ 0.19531 0.130434 0.783285 -0.11473
C_ C_ 0.441267 0.130707 0.794619 -0.11473
C_ C_ 0.22094 0.0761747 0.747284 -0.02249
C_ C_ 0.465803 0.075923 0.756823 -0.02249
C_ C_ 0.168751 0.189549 0.744253 0.6875
C_ C_ 0.416278 0.191573 0.757696 0.6875
C_ C_ 0.216542 0.0995504 0.708971 -0.11473
C_ C_ 0.455158 0.0933252 0.718582 -0.11473
C_ C_ 0.0675715 0.149145 0.739671 -0.02249
C_ C_ 0.319126 0.149 0.752311 -0.02249
C_ C_ 0.0142072 0.0371327 0.735772 -0.02249
C_ C_ 0.267382 0.034657 0.750832 -0.02249
C_ C_ 0.0379436 0.0975449 0.699813 -0.11473
C_ C_ 0.292868 0.0933215 0.715148 -0.11473
C_ C_ 0.0595991 0.127704 0.776602 -0.11473
C_ C_ 0.308684 0.131199 0.790261 -0.11473
C_ C_ 0.0588543 0.131259 0.701358 -0.11473
C_ C_ 0.311325 0.127916 0.715023 -0.11473
C_ C_ 0.0315466 0.0754454 0.737007 -0.02249
C_ C_ 0.284 0.0753732 0.752263 -0.02249
C_ C_ 0.0875142 0.187158 0.742378 0.6875
C_ C_ 0.339423 0.18588 0.752429 0.6875
C_ C_ 0.0425141 0.0912344 0.77567 -0.11473
C_ C_ 0.28899 0.0977679 0.790139 -0.11473
C_ C_ 0.119545 0.276978 0.871208 0.17695
C_ C_ 0.356411 0.263837 0.887127 0.17695
C_ C_ 0.138974 0.209064 0.86962 0.17695
C_ C_ 0.406181 0.234629 0.882539 0.17695
C_ C_ 0.140609 0.208125 0.914826 -0.11473
C_ C_ 0.409208 0.234265 0.926818 -0.11473
C_ C_ 0.131804 0.242138 0.938077 0.23465
C_ C_ 0.38558 0.249727 0.951406 0.23465
C_ C_ 0.122053 0.277768 0.915828 -0.11473
C_ C_ 0.359192 0.264285 0.930972 -0.11473
C_ C_ 0.128675 0.206553 0.622507 0.17695
C_ C_ 0.393928 0.274823 0.632891 0.17695
C_ C_ 0.128919 0.27951 0.616211 0.17695
C_ C_ 0.347076 0.243295 0.630084 0.17695
C_ C_ 0.128449 0.278291 0.571321 -0.11473
C_ C_ 0.347826 0.243728 0.5851 -0.11473
C_ C_ 0.130259 0.238367 0.552913 0.23465
C_ C_ 0.372848 0.25886 0.563835 0.23465
C_ C_ 0.126866 0.203034 0.577547 -0.11473
C_ C_ 0.396256 0.273756 0.588846 -0.11473
C_ C_ 0.0326231 0.501168 0.744862 0.05793
C_ C_ 0.282223 0.502506 0.763487 0.05793
C_ C_ 0.219899 -0.00245853 0.749123 0.05793
C_ C_ 0.4689 0.998001 0.758185 0.05793
Br Br 0.075911 0.50125 0.740295 -0.17191
Br Br 0.323098 0.508091 0.784467 -0.17191
Br Br 0.176991 0.00119875 0.732612 -0.17191
Br Br 0.42444 0.997639 0.759432 -0.17191
N_ N_ 0.129245 0.243054 0.84897 -0.272
N_ N_ 0.379598 0.249178 0.863098 -0.272
N_ N_ 0.130918 0.239157 0.982245 -0.12501
N_ N_ 0.38812 0.248908 0.995286 -0.12501
N_ N_ 0.124663 0.244896 0.640382 -0.272
N_ N_ 0.370838 0.25503 0.654098 -0.272
N_ N_ 0.131652 0.232118 0.509475 -0.12501
N_ N_ 0.372098 0.265576 0.519294 -0.12501
O_ O_ 0.0918935 0.290203 0.70678 -0.60745
O_ O_ 0.347306 0.299745 0.718892 -0.60745
O_ O_ 0.0956624 0.291426 0.775975 -0.60745
O_ O_ 0.347773 0.293311 0.78775 -0.60745
O_ O_ 0.157741 0.292872 0.777832 -0.60745
O_ O_ 0.406639 0.296386 0.795738 -0.60745
O_ O_ 0.155824 0.297352 0.709648 -0.60745
O_ O_ 0.406953 0.293107 0.726421 -0.60745
O_ O_ 0.156455 0.201484 0.778684 -0.60745
O_ O_ 0.410539 0.207344 0.792658 -0.60745
O_ O_ 0.16336 0.210449 0.710609 -0.60745
O_ O_ 0.401421 0.20295 0.725443 -0.60745
O_ O_ 0.0986855 0.200102 0.708964 -0.60745
O_ O_ 0.338163 0.209596 0.720071 -0.60745
O_ O_ 0.098401 0.198548 0.777267 -0.60745
O_ O_ 0.349548 0.20016 0.786437 -0.60745
Zn Zn 0.125537 0.748386 0.28004 0.9476
Zn Zn 0.376854 0.747904 0.280893 0.9476
Zn Zn 0.126915 0.746743 0.210932 0.9476
Zn Zn 0.375667 0.745701 0.214185 0.9476
H_ H_ 0.0301706 0.913757 0.179101 0.10932
H_ H_ 0.290962 0.929965 0.183405 0.10932
H_ H_ 0.0863984 0.862741 0.305439 0.10932
H_ H_ 0.319998 0.852088 0.313029 0.10932
H_ H_ 0.0611957 0.849958 0.176536 0.10932
H_ H_ 0.32606 0.869102 0.180108 0.10932
H_ H_ 0.0509284 0.918429 0.315966 0.10932
H_ H_ 0.293371 0.917055 0.318367 0.10932
H_ H_ 0.237456 0.899535 0.307256 0.10932
H_ H_ 0.474164 0.906953 0.31331 0.10932
H_ H_ 0.178184 0.861106 0.179671 0.10932
H_ H_ 0.433429 0.855578 0.17783 0.10932
H_ H_ 0.206146 0.83712 0.306298 0.10932
H_ H_ 0.444311 0.842498 0.312423 0.10932
H_ H_ 0.205948 0.927392 0.183993 0.10932
H_ H_ 0.466437 0.912082 0.180478 0.10932
H_ H_ 0.200608 0.564351 0.313842 0.10932
H_ H_ 0.452374 0.570964 0.319647 0.10932
H_ H_ 0.195766 0.645499 0.178628 0.10932
H_ H_ 0.446009 0.651171 0.189918 0.10932
H_ H_ 0.173112 0.634249 0.309409 0.10932
H_ H_ 0.424406 0.633207 0.31921 0.10932
H_ H_ 0.218362 0.578116 0.181917 0.10932
H_ H_ 0.481692 0.593134 0.193234 0.10932
H_ H_ 0.0457808 0.573659 0.178377 0.10932
H_ H_ 0.28681 0.577596 0.180442 0.10932
H_ H_ 0.0474624 0.661947 0.302723 0.10932
H_ H_ 0.306683 0.655436 0.313183 0.10932
H_ H_ 0.0797245 0.635695 0.179875 0.10932
H_ H_ 0.315821 0.639426 0.17932 0.10932
H_ H_ 0.017667 0.599592 0.303153 0.10932
H_ H_ 0.286484 0.585364 0.31705 0.10932
H_ H_ 0.129177 0.813561 0.362041 0.10932
H_ H_ 0.368558 0.693477 0.358063 0.10932
H_ H_ 0.127938 0.677687 0.35058 0.10932
H_ H_ 0.392909 0.819074 0.353294 0.10932
H_ H_ 0.121062 0.67359 0.426042 0.10932
H_ H_ 0.381209 0.827788 0.430164 0.10932
H_ H_ 0.114926 0.805023 0.435132 0.10932
H_ H_ 0.363854 0.698647 0.435021 0.10932
H_ H_ 0.123369 0.678025 0.141668 0.10932
H_ H_ 0.377127 0.809409 0.13892 0.10932
H_ H_ 0.136058 0.807462 0.130819 0.10932
H_ H_ 0.387052 0.679708 0.140896 0.10932
H_ H_ 0.1353 0.800346 0.0497453 0.10932
H_ H_ 0.382927 0.67831 0.0602793 0.10932
H_ H_ 0.111657 0.670764 0.0613627 0.10932
H_ H_ 0.386564 0.811386 0.0606647 0.10932
C_ C_ 0.0730193 0.849509 0.241102 -0.02249
C_ C_ 0.321469 0.851088 0.244415 -0.02249
C_ C_ 0.0180363 0.960607 0.248602 -0.02249
C_ C_ 0.26769 0.964025 0.251059 -0.02249
C_ C_ 0.0380176 0.897187 0.210125 -0.11473
C_ C_ 0.294474 0.909293 0.210548 -0.11473
C_ C_ 0.0712058 0.870508 0.279018 -0.11473
C_ C_ 0.313546 0.867242 0.283863 -0.11473
C_ C_ 0.054993 0.860633 0.206863 -0.11473
C_ C_ 0.31383 0.874796 0.208637 -0.11473
C_ C_ 0.0357619 0.92027 0.247953 -0.02249
C_ C_ 0.287318 0.924777 0.251099 -0.02249
C_ C_ 0.0903069 0.808149 0.241687 0.6875
C_ C_ 0.33842 0.810538 0.242336 0.6875
C_ C_ 0.0510587 0.902841 0.28443 -0.11473
C_ C_ 0.298204 0.905867 0.287897 -0.11473
C_ C_ 0.188365 0.845276 0.245711 -0.02249
C_ C_ 0.437818 0.842439 0.245636 -0.02249
C_ C_ 0.235927 0.961003 0.250267 -0.02249
C_ C_ 0.486751 0.955063 0.248764 -0.02249
C_ C_ 0.221168 0.893894 0.283193 -0.11473
C_ C_ 0.468838 0.891872 0.28506 -0.11473
C_ C_ 0.188948 0.872146 0.210638 -0.11473
C_ C_ 0.445328 0.860956 0.208283 -0.11473
C_ C_ 0.203548 0.859039 0.282717 -0.11473
C_ C_ 0.452281 0.855385 0.28496 -0.11473
C_ C_ 0.221745 0.920422 0.247299 -0.02249
C_ C_ 0.473086 0.914116 0.248321 -0.02249
C_ C_ 0.170059 0.806086 0.24439 0.6875
C_ C_ 0.416229 0.806726 0.246437 0.6875
C_ C_ 0.205835 0.908657 0.211068 -0.11473
C_ C_ 0.463066 0.896467 0.209489 -0.11473
C_ C_ 0.182434 0.646199 0.245486 -0.02249
C_ C_ 0.434293 0.647945 0.252767 -0.02249
C_ C_ 0.235465 0.532219 0.250851 -0.02249
C_ C_ 0.486589 0.536413 0.259531 -0.02249
C_ C_ 0.201505 0.584853 0.286213 -0.11473
C_ C_ 0.453712 0.589335 0.292023 -0.11473
C_ C_ 0.196526 0.629548 0.208687 -0.11473
C_ C_ 0.449355 0.634847 0.218467 -0.11473
C_ C_ 0.185673 0.622723 0.284181 -0.11473
C_ C_ 0.436207 0.624713 0.289751 -0.11473
C_ C_ 0.215723 0.570222 0.249388 -0.02249
C_ C_ 0.469377 0.576038 0.25811 -0.02249
C_ C_ 0.165168 0.686046 0.243712 0.6875
C_ C_ 0.416848 0.687481 0.254166 0.6875
C_ C_ 0.211135 0.591947 0.210934 -0.11473
C_ C_ 0.467552 0.599499 0.220696 -0.11473
C_ C_ 0.0670886 0.652842 0.243056 -0.02249
C_ C_ 0.31466 0.652843 0.246469 -0.02249
C_ C_ 0.0136259 0.539766 0.244654 -0.02249
C_ C_ 0.267088 0.536143 0.252519 -0.02249
C_ C_ 0.046321 0.593042 0.206418 -0.11473
C_ C_ 0.29287 0.591941 0.211145 -0.11473
C_ C_ 0.0509587 0.640633 0.278453 -0.11473
C_ C_ 0.303634 0.637161 0.28491 -0.11473
C_ C_ 0.0667699 0.627136 0.206752 -0.11473
C_ C_ 0.309153 0.628948 0.209736 -0.11473
C_ C_ 0.0310623 0.579384 0.241713 -0.02249
C_ C_ 0.281275 0.578056 0.250304 -0.02249
C_ C_ 0.0856351 0.690834 0.244092 0.6875
C_ C_ 0.335432 0.687504 0.247054 0.6875
C_ C_ 0.0309053 0.607656 0.276427 -0.11473
C_ C_ 0.286525 0.601156 0.286708 -0.11473
C_ C_ 0.12397 0.781234 0.374339 0.17695
C_ C_ 0.368818 0.723802 0.374102 0.17695
C_ C_ 0.123471 0.70743 0.366664 0.17695
C_ C_ 0.38264 0.793954 0.371089 0.17695
C_ C_ 0.120601 0.703849 0.41 -0.11473
C_ C_ 0.377555 0.798779 0.414788 -0.11473
C_ C_ 0.121143 0.739164 0.435663 0.23465
C_ C_ 0.368804 0.765313 0.440113 0.23465
C_ C_ 0.121592 0.778561 0.417103 -0.11473
C_ C_ 0.367764 0.725974 0.41856 -0.11473
C_ C_ 0.122949 0.704891 0.120749 0.17695
C_ C_ 0.379943 0.780777 0.122736 0.17695
C_ C_ 0.132128 0.776979 0.114901 0.17695
C_ C_ 0.378716 0.707141 0.122191 0.17695
C_ C_ 0.132614 0.772749 0.0689006 -0.11473
C_ C_ 0.381825 0.708288 0.0777549 -0.11473
C_ C_ 0.124448 0.733974 0.0518265 0.23465
C_ C_ 0.380137 0.745943 0.0561837 0.23465
C_ C_ 0.120277 0.700184 0.0779292 -0.11473
C_ C_ 0.38366 0.782016 0.0790094 -0.11473
C_ C_ 0.0330885 0.999039 0.253212 0.05793
C_ C_ 0.282044 1.00368685 0.247935 0.05793
C_ C_ 0.222703 0.493879 0.249922 0.05793
C_ C_ 0.470506 0.498661 0.261567 0.05793
Br Br 0.0773177 -0.000405479 0.260041 -0.17191
Br Br 0.325608 1.010506 0.249744 -0.17191
Br Br 0.180368 0.489993 0.258113 -0.17191
Br Br 0.42655 0.499536 0.243567 -0.17191
N_ N_ 0.127514 0.746235 0.350166 -0.272
N_ N_ 0.375757 0.758117 0.35214 -0.272
N_ N_ 0.123517 0.734042 0.481132 -0.12501
N_ N_ 0.374885 0.767479 0.484683 -0.12501
N_ N_ 0.126668 0.742734 0.138771 -0.272
N_ N_ 0.377931 0.744617 0.143378 -0.272
N_ N_ 0.12531 0.727451 0.00603375 -0.12501
N_ N_ 0.384406 0.745189 0.0104714 -0.12501
O_ O_ 0.102462 0.796508 0.20954 -0.60745
O_ O_ 0.343158 0.791019 0.208202 -0.60745
O_ O_ 0.0928015 0.787162 0.275237 -0.60745
O_ O_ 0.347451 0.793344 0.2766 -0.60745
O_ O_ 0.157437 0.793966 0.278279 -0.60745
O_ O_ 0.408632 0.789021 0.279922 -0.60745
O_ O_ 0.161909 0.787658 0.209692 -0.60745
O_ O_ 0.405721 0.793288 0.213052 -0.60745
O_ O_ 0.155803 0.702198 0.277681 -0.60745
O_ O_ 0.406034 0.702009 0.287873 -0.60745
O_ O_ 0.15589 0.70031 0.210134 -0.60745
O_ O_ 0.409383 0.703733 0.219912 -0.60745
O_ O_ 0.0949124 0.705738 0.209995 -0.60745
O_ O_ 0.346374 0.698283 0.212578 -0.60745
O_ O_ 0.0958774 0.703088 0.278786 -0.60745
O_ O_ 0.340379 0.710017 0.27936 -0.60745
Zn Zn 0.122909 0.749833 0.7786 0.9476
Zn Zn 0.37434 0.751745 0.783956 0.9476
Zn Zn 0.12368 0.748844 0.709257 0.9476
Zn Zn 0.374597 0.75084 0.715285 0.9476
H_ H_ 0.0438716 0.923789 0.674489 0.10932
H_ H_ 0.295217 0.926123 0.688256 0.10932
H_ H_ 0.0471077 0.842454 0.804906 0.10932
H_ H_ 0.290028 0.829961 0.808414 0.10932
H_ H_ 0.0676464 0.853815 0.677737 0.10932
H_ H_ 0.327812 0.86424 0.690739 0.10932
H_ H_ 0.0204919 0.905636 0.801474 0.10932
H_ H_ 0.273719 0.902084 0.819238 0.10932
H_ H_ 0.190902 0.936536 0.805122 0.10932
H_ H_ 0.480388 0.904295 0.81557 0.10932
H_ H_ 0.204572 0.838231 0.687502 0.10932
H_ H_ 0.421069 0.868998 0.687529 0.10932
H_ H_ 0.161343 0.876038 0.803686 0.10932
H_ H_ 0.44782 0.843818 0.819304 0.10932
H_ H_ 0.233526 0.899604 0.692698 0.10932
H_ H_ 0.450743 0.928697 0.689464 0.10932
H_ H_ 0.209422 0.580525 0.814827 0.10932
H_ H_ 0.472958 0.591155 0.826166 0.10932
H_ H_ 0.203988 0.658852 0.683933 0.10932
H_ H_ 0.431219 0.643686 0.687355 0.10932
H_ H_ 0.172815 0.643496 0.810716 0.10932
H_ H_ 0.442395 0.659861 0.824961 0.10932
H_ H_ 0.229098 0.589558 0.685392 0.10932
H_ H_ 0.466159 0.584232 0.693347 0.10932
H_ H_ 0.0420481 0.573207 0.678472 0.10932
H_ H_ 0.30372 0.567238 0.697043 0.10932
H_ H_ 0.0581568 0.656844 0.806649 0.10932
H_ H_ 0.303436 0.662005 0.818336 0.10932
H_ H_ 0.0725906 0.64177 0.674496 0.10932
H_ H_ 0.323953 0.637074 0.687327 0.10932
H_ H_ 0.033719 0.593262 0.812564 0.10932
H_ H_ 0.269628 0.605425 0.819122 0.10932
H_ H_ 0.136505 0.810645 0.854117 0.10932
H_ H_ 0.380342 0.820391 0.849918 0.10932
H_ H_ 0.114715 0.684828 0.853817 0.10932
H_ H_ 0.367295 0.691386 0.865159 0.10932
H_ H_ 0.116201 0.683314 0.929864 0.10932
H_ H_ 0.363334 0.702736 0.941538 0.10932
H_ H_ 0.129449 0.814377 0.929545 0.10932
H_ H_ 0.38249 0.83022 0.929036 0.10932
H_ H_ 0.11867 0.685301 0.628976 0.10932
H_ H_ 0.379481 0.812072 0.640105 0.10932
H_ H_ 0.124017 0.818644 0.63717 0.10932
H_ H_ 0.363164 0.68606 0.64277 0.10932
H_ H_ 0.126361 0.822606 0.561029 0.10932
H_ H_ 0.359101 0.683914 0.567741 0.10932
H_ H_ 0.114962 0.692366 0.551245 0.10932
H_ H_ 0.378967 0.813461 0.56271 0.10932
C_ C_ 0.0631344 0.846029 0.743613 -0.02249
C_ C_ 0.310167 0.839098 0.747414 -0.02249
C_ C_ 0.0133048 0.959984 0.736327 -0.02249
C_ C_ 0.266131 0.9592 0.755062 -0.02249
C_ C_ 0.0462594 0.906459 0.703709 -0.11473
C_ C_ 0.297428 0.907192 0.718435 -0.11473
C_ C_ 0.0482498 0.859418 0.776686 -0.11473
C_ C_ 0.296966 0.852013 0.785946 -0.11473
C_ C_ 0.0603119 0.868284 0.705937 -0.11473
C_ C_ 0.313761 0.870424 0.716143 -0.11473
C_ C_ 0.0292828 0.91897 0.738424 -0.02249
C_ C_ 0.282071 0.918343 0.755018 -0.02249
C_ C_ 0.0846151 0.810686 0.746485 0.6875
C_ C_ 0.331106 0.803915 0.74539 0.6875
C_ C_ 0.0317827 0.896078 0.775556 -0.11473
C_ C_ 0.284899 0.892306 0.789931 -0.11473
C_ C_ 0.182218 0.848613 0.749354 -0.02249
C_ C_ 0.434245 0.846114 0.751654 -0.02249
C_ C_ 0.234722 0.959366 0.752986 -0.02249
C_ C_ 0.484873 0.960202 0.754015 -0.02249
C_ C_ 0.196872 0.913551 0.782322 -0.11473
C_ C_ 0.46911 0.893072 0.78704 -0.11473
C_ C_ 0.199845 0.859656 0.713559 -0.11473
C_ C_ 0.431274 0.875753 0.718791 -0.11473
C_ C_ 0.180974 0.876168 0.78343 -0.11473
C_ C_ 0.450407 0.857628 0.789883 -0.11473
C_ C_ 0.21731 0.921989 0.750647 -0.02249
C_ C_ 0.46793 0.920366 0.753109 -0.02249
C_ C_ 0.160735 0.814701 0.745611 0.6875
C_ C_ 0.413319 0.81109 0.751403 0.6875
C_ C_ 0.217074 0.894982 0.715688 -0.11473
C_ C_ 0.449031 0.911293 0.718998 -0.11473
C_ C_ 0.182138 0.652994 0.744292 -0.02249
C_ C_ 0.434734 0.656287 0.756318 -0.02249
C_ C_ 0.234649 0.538977 0.753421 -0.02249
C_ C_ 0.482017 0.540344 0.761307 -0.02249
C_ C_ 0.202795 0.593857 0.7842 -0.11473
C_ C_ 0.461742 0.60257 0.79756 -0.11473
C_ C_ 0.198686 0.637975 0.709366 -0.11473
C_ C_ 0.438553 0.632298 0.719846 -0.11473
C_ C_ 0.186957 0.632278 0.783532 -0.11473
C_ C_ 0.444046 0.638784 0.796832 -0.11473
C_ C_ 0.215466 0.577687 0.747879 -0.02249
C_ C_ 0.46347 0.578787 0.760227 -0.02249
C_ C_ 0.16517 0.692281 0.743217 0.6875
C_ C_ 0.415609 0.694903 0.754393 0.6875
C_ C_ 0.215262 0.600556 0.711127 -0.11473
C_ C_ 0.457547 0.597719 0.721774 -0.11473
C_ C_ 0.0633156 0.656956 0.739557 -0.02249
C_ C_ 0.314012 0.657014 0.75102 -0.02249
C_ C_ 0.0171493 0.539826 0.747287 -0.02249
C_ C_ 0.265792 0.539641 0.757492 -0.02249
C_ C_ 0.0433071 0.594864 0.70457 -0.11473
C_ C_ 0.298743 0.591549 0.719655 -0.11473
C_ C_ 0.0533647 0.640909 0.778028 -0.11473
C_ C_ 0.301096 0.645519 0.789912 -0.11473
C_ C_ 0.0616192 0.632036 0.703759 -0.11473
C_ C_ 0.312372 0.629451 0.716553 -0.11473
C_ C_ 0.0341221 0.579234 0.744748 -0.02249
C_ C_ 0.282857 0.581126 0.756223 -0.02249
C_ C_ 0.0846174 0.692163 0.739693 0.6875
C_ C_ 0.335764 0.692204 0.748836 0.6875
C_ C_ 0.0385375 0.603109 0.780424 -0.11473
C_ C_ 0.28152 0.612188 0.790931 -0.11473
C_ C_ 0.129408 0.782942 0.867922 0.17695
C_ C_ 0.378994 0.793279 0.872083 0.17695
C_ C_ 0.123809 0.711378 0.869379 0.17695
C_ C_ 0.370592 0.723323 0.880253 0.17695
C_ C_ 0.121826 0.712682 0.913822 -0.11473
C_ C_ 0.368712 0.72856 0.922849 -0.11473
C_ C_ 0.120201 0.751076 0.936233 0.23465
C_ C_ 0.375051 0.76608 0.941928 0.23465
C_ C_ 0.123353 0.786459 0.91113 -0.11473
C_ C_ 0.381496 0.799758 0.916275 -0.11473
C_ C_ 0.119129 0.717467 0.61579 0.17695
C_ C_ 0.378101 0.784086 0.623121 0.17695
C_ C_ 0.124957 0.790608 0.618414 0.17695
C_ C_ 0.368966 0.711726 0.624408 0.17695
C_ C_ 0.123055 0.793305 0.574191 -0.11473
C_ C_ 0.362757 0.712013 0.581805 -0.11473
C_ C_ 0.120143 0.757471 0.549591 0.23465
C_ C_ 0.3688 0.747815 0.556565 0.23465
C_ C_ 0.117154 0.720343 0.569875 -0.11473
C_ C_ 0.375711 0.785105 0.578443 -0.11473
C_ C_ 0.0292118 -0.002569999999999961 0.737513 0.05793
C_ C_ 0.282358 -0.004176999999999986 0.752691 0.05793
C_ C_ 0.220213 0.499138 0.75212 0.05793
C_ C_ 0.467657 0.501419 0.766635 0.05793
Br Br 0.0736371 -0.0018799999999999928 0.742881 -0.17191
Br Br 0.325538 -0.007560000000000011 0.763788 -0.17191
Br Br 0.176842 0.494136 0.746836 -0.17191
Br Br 0.424341 0.495991 0.775504 -0.17191
N_ N_ 0.127814 0.746088 0.847729 -0.272
N_ N_ 0.373306 0.756332 0.855536 -0.272
N_ N_ 0.118716 0.755402 0.980574 -0.12501
N_ N_ 0.374147 0.772059 0.986706 -0.12501
N_ N_ 0.122281 0.752715 0.639285 -0.272
N_ N_ 0.375818 0.747152 0.644284 -0.272
N_ N_ 0.11456 0.761086 0.505469 -0.12501
N_ N_ 0.361057 0.747603 0.512145 -0.12501
O_ O_ 0.0913115 0.793775 0.714006 -0.60745
O_ O_ 0.345498 0.794311 0.712974 -0.60745
O_ O_ 0.0939525 0.794943 0.781793 -0.60745
O_ O_ 0.340764 0.790627 0.780775 -0.60745
O_ O_ 0.15611 0.79424 0.780931 -0.60745
O_ O_ 0.401908 0.799937 0.78644 -0.60745
O_ O_ 0.156451 0.796337 0.711205 -0.60745
O_ O_ 0.406523 0.794871 0.717072 -0.60745
O_ O_ 0.1541 0.707572 0.7759 -0.60745
O_ O_ 0.408897 0.712093 0.788491 -0.60745
O_ O_ 0.155023 0.704713 0.707121 -0.60745
O_ O_ 0.40432 0.706541 0.719945 -0.60745
O_ O_ 0.0910526 0.711308 0.705876 -0.60745
O_ O_ 0.339195 0.712129 0.714591 -0.60745
O_ O_ 0.0924352 0.706886 0.774759 -0.60745
O_ O_ 0.348391 0.704777 0.783147 -0.60745
Zn Zn 0.622863 0.247376 0.293747 0.9476
Zn Zn 0.877802 0.247074 0.282958 0.9476
Zn Zn 0.624778 0.250298 0.223223 0.9476
Zn Zn 0.877439 0.251029 0.215952 0.9476
H_ H_ 0.53512 0.424271 0.201565 0.10932
H_ H_ 0.798801 0.427857 0.195046 0.10932
H_ H_ 0.565156 0.348361 0.331393 0.10932
H_ H_ 0.799005 0.332112 0.316949 0.10932
H_ H_ 0.559593 0.353676 0.198494 0.10932
H_ H_ 0.820654 0.359036 0.191376 0.10932
H_ H_ 0.542484 0.422539 0.336399 0.10932
H_ H_ 0.768945 0.393577 0.318287 0.10932
H_ H_ 0.697838 0.430587 0.321682 0.10932
H_ H_ 0.947378 0.43406 0.31694 0.10932
H_ H_ 0.696012 0.340956 0.196044 0.10932
H_ H_ 0.947423 0.34309 0.190858 0.10932
H_ H_ 0.669653 0.363025 0.323428 0.10932
H_ H_ 0.920766 0.371453 0.314646 0.10932
H_ H_ 0.728799 0.402079 0.198972 0.10932
H_ H_ 0.980305 0.402201 0.189301 0.10932
H_ H_ 0.707716 0.0785538 0.322016 0.10932
H_ H_ 0.957414 0.0712748 0.312729 0.10932
H_ H_ 0.669992 0.134773 0.189466 0.10932
H_ H_ 0.945956 0.156354 0.181084 0.10932
H_ H_ 0.687392 0.15097 0.319753 0.10932
H_ H_ 0.942638 0.141905 0.31832 0.10932
H_ H_ 0.697877 0.072169 0.189166 0.10932
H_ H_ 0.97809 0.0941307 0.185176 0.10932
H_ H_ 0.518138 0.102768 0.183152 0.10932
H_ H_ 0.775433 0.0943001 0.178684 0.10932
H_ H_ 0.559703 0.136787 0.324009 0.10932
H_ H_ 0.816463 0.142211 0.314419 0.10932
H_ H_ 0.55051 0.163522 0.193878 0.10932
H_ H_ 0.805325 0.153714 0.179035 0.10932
H_ H_ 0.533009 0.0727243 0.312896 0.10932
H_ H_ 0.783406 0.0818459 0.316092 0.10932
H_ H_ 0.626443 0.17954 0.365581 0.10932
H_ H_ 0.876081 0.187042 0.362479 0.10932
H_ H_ 0.628216 0.310653 0.373009 0.10932
H_ H_ 0.857489 0.314277 0.352781 0.10932
H_ H_ 0.634508 0.308262 0.447947 0.10932
H_ H_ 0.859856 0.325351 0.427718 0.10932
H_ H_ 0.622159 0.177359 0.446386 0.10932
H_ H_ 0.875499 0.194464 0.442223 0.10932
H_ H_ 0.616438 0.187614 0.140149 0.10932
H_ H_ 0.875668 0.317667 0.13468 0.10932
H_ H_ 0.62887 0.313777 0.157802 0.10932
H_ H_ 0.862882 0.187786 0.139789 0.10932
H_ H_ 0.626197 0.32571 0.0798164 0.10932
H_ H_ 0.865985 0.183076 0.0640827 0.10932
H_ H_ 0.619945 0.194899 0.0634761 0.10932
H_ H_ 0.87224 0.314781 0.0589234 0.10932
C_ C_ 0.566252 0.347711 0.265678 -0.02249
C_ C_ 0.817077 0.344953 0.256267 -0.02249
C_ C_ 0.517077 0.460848 0.272123 -0.02249
C_ C_ 0.765552 0.458998 0.260619 -0.02249
C_ C_ 0.541048 0.406416 0.230624 -0.11473
C_ C_ 0.799382 0.408517 0.222797 -0.11473
C_ C_ 0.561871 0.367596 0.304676 -0.11473
C_ C_ 0.801168 0.354318 0.292883 -0.11473
C_ C_ 0.553909 0.366218 0.229849 -0.11473
C_ C_ 0.815308 0.370739 0.221616 -0.11473
C_ C_ 0.533834 0.422709 0.269028 -0.02249
C_ C_ 0.784035 0.41973 0.259596 -0.02249
C_ C_ 0.583742 0.309242 0.262906 0.6875
C_ C_ 0.835027 0.304672 0.251976 0.6875
C_ C_ 0.544502 0.403921 0.306838 -0.11473
C_ C_ 0.781992 0.388976 0.29144 -0.11473
C_ C_ 0.681441 0.346384 0.260679 -0.02249
C_ C_ 0.932507 0.351823 0.252207 -0.02249
C_ C_ 0.733534 0.457286 0.262206 -0.02249
C_ C_ 0.983726 0.464581 0.248934 -0.02249
C_ C_ 0.701609 0.405832 0.29889 -0.11473
C_ C_ 0.948657 0.414607 0.287614 -0.11473
C_ C_ 0.6944 0.360291 0.225159 -0.11473
C_ C_ 0.950767 0.361606 0.21836 -0.11473
C_ C_ 0.682479 0.371591 0.296661 -0.11473
C_ C_ 0.930287 0.380317 0.284229 -0.11473
C_ C_ 0.717829 0.416352 0.263901 -0.02249
C_ C_ 0.968383 0.423803 0.253245 -0.02249
C_ C_ 0.66413 0.308081 0.260555 0.6875
C_ C_ 0.914983 0.312845 0.252566 0.6875
C_ C_ 0.714984 0.392879 0.226446 -0.11473
C_ C_ 0.968017 0.397324 0.217453 -0.11473
C_ C_ 0.681288 0.153148 0.253503 -0.02249
C_ C_ 0.936441 0.151137 0.249905 -0.02249
C_ C_ 0.732511 0.0398098 0.254162 -0.02249
C_ C_ 0.986033 0.037987 0.245849 -0.02249
C_ C_ 0.706497 0.0966545 0.293078 -0.11473
C_ C_ 0.955626 0.0898495 0.283703 -0.11473
C_ C_ 0.683712 0.129766 0.217364 -0.11473
C_ C_ 0.950379 0.140058 0.211531 -0.11473
C_ C_ 0.692038 0.133888 0.291879 -0.11473
C_ C_ 0.94261 0.128008 0.286941 -0.11473
C_ C_ 0.712906 0.0778203 0.255772 -0.02249
C_ C_ 0.968735 0.076847 0.246744 -0.02249
C_ C_ 0.662484 0.189935 0.254819 0.6875
C_ C_ 0.918968 0.18976 0.251317 0.6875
C_ C_ 0.699318 0.0922994 0.218079 -0.11473
C_ C_ 0.966848 0.103827 0.211676 -0.11473
C_ C_ 0.562993 0.151508 0.256831 -0.02249
C_ C_ 0.816241 0.152457 0.247085 -0.02249
C_ C_ 0.512703 0.0351162 0.238003 -0.02249
C_ C_ 0.76254 0.0416176 0.242819 -0.02249
C_ C_ 0.531379 0.105758 0.212432 -0.11473
C_ C_ 0.784969 0.102071 0.209817 -0.11473
C_ C_ 0.555988 0.126195 0.291772 -0.11473
C_ C_ 0.806541 0.131638 0.285299 -0.11473
C_ C_ 0.549119 0.141438 0.218222 -0.11473
C_ C_ 0.803908 0.137928 0.209381 -0.11473
C_ C_ 0.528684 0.0758387 0.24504 -0.02249
C_ C_ 0.778905 0.0803319 0.245832 -0.02249
C_ C_ 0.584836 0.187632 0.259106 0.6875
C_ C_ 0.838 0.18971 0.248799 0.6875
C_ C_ 0.53894 0.0892983 0.286005 -0.11473
C_ C_ 0.789159 0.0957888 0.285003 -0.11473
C_ C_ 0.626594 0.208377 0.384837 0.17695
C_ C_ 0.874785 0.218793 0.379285 0.17695
C_ C_ 0.628145 0.281327 0.386304 0.17695
C_ C_ 0.867205 0.290687 0.371446 0.17695
C_ C_ 0.631483 0.280277 0.429152 -0.11473
C_ C_ 0.864234 0.294979 0.414907 -0.11473
C_ C_ 0.628416 0.243469 0.450972 0.23465
C_ C_ 0.871308 0.262332 0.442042 0.23465
C_ C_ 0.623918 0.206376 0.42964 -0.11473
C_ C_ 0.871998 0.220926 0.422979 -0.11473
C_ C_ 0.621859 0.216029 0.127486 0.17695
C_ C_ 0.871919 0.287854 0.11982 0.17695
C_ C_ 0.624907 0.288981 0.13781 0.17695
C_ C_ 0.867524 0.214226 0.122728 0.17695
C_ C_ 0.624105 0.294873 0.0942163 -0.11473
C_ C_ 0.866648 0.212761 0.0790429 -0.11473
C_ C_ 0.623666 0.261387 0.0663685 0.23465
C_ C_ 0.872647 0.249136 0.05475 0.23465
C_ C_ 0.620798 0.221702 0.0830751 -0.11473
C_ C_ 0.874543 0.287149 0.0759501 -0.11473
C_ C_ 0.533084 0.498279 0.270069 0.05793
C_ C_ 0.778161 0.497317 0.252539 0.05793
C_ C_ 0.719023 1.00037 0.257238 0.05793
C_ C_ 0.970202 0.998583 0.244246 0.05793
Br Br 0.574579 0.498705 0.287576 -0.17191
Br Br 0.822572 0.503534 0.251607 -0.17191
Br Br 0.677218 -0.0029519999999999547 0.270487 -0.17191
Br Br 0.928133 -0.000561957 0.232021 -0.17191
N_ N_ 0.623869 0.246469 0.36403 -0.272
N_ N_ 0.874931 0.253728 0.355043 -0.272
N_ N_ 0.627181 0.242992 0.496143 -0.12501
N_ N_ 0.876148 0.269606 0.4854 -0.12501
N_ N_ 0.624852 0.250034 0.154039 -0.272
N_ N_ 0.871737 0.251734 0.143222 -0.272
N_ N_ 0.620375 0.267862 0.0216495 -0.12501
N_ N_ 0.865195 0.25119 0.0109196 -0.12501
O_ O_ 0.588875 0.290024 0.228682 -0.60745
O_ O_ 0.8472 0.296389 0.217676 -0.60745
O_ O_ 0.597726 0.297122 0.297242 -0.60745
O_ O_ 0.840171 0.283552 0.285304 -0.60745
O_ O_ 0.658004 0.289297 0.294494 -0.60745
O_ O_ 0.904289 0.29767 0.286341 -0.60745
O_ O_ 0.654286 0.295936 0.225819 -0.60745
O_ O_ 0.9087 0.295644 0.217938 -0.60745
O_ O_ 0.650666 0.201729 0.289281 -0.60745
O_ O_ 0.914375 0.207972 0.285809 -0.60745
O_ O_ 0.659014 0.21071 0.221749 -0.60745
O_ O_ 0.905732 0.203212 0.218751 -0.60745
O_ O_ 0.59561 0.201456 0.224747 -0.60745
O_ O_ 0.84294 0.211624 0.215402 -0.60745
O_ O_ 0.589315 0.205947 0.292656 -0.60745
O_ O_ 0.853209 0.196153 0.28059 -0.60745
Zn Zn 0.622596 0.252185 0.795309 0.9476
Zn Zn 0.87716 0.252781 0.782385 0.9476
Zn Zn 0.621345 0.252717 0.72505 0.9476
Zn Zn 0.874152 0.255212 0.711382 0.9476
H_ H_ 0.5272 0.412195 0.688925 0.10932
H_ H_ 0.781818 0.423927 0.683889 0.10932
H_ H_ 0.568171 0.362473 0.824496 0.10932
H_ H_ 0.801189 0.336821 0.81197 0.10932
H_ H_ 0.545084 0.339879 0.694049 0.10932
H_ H_ 0.81367 0.366608 0.680506 0.10932
H_ H_ 0.54573 0.4271 0.820907 0.10932
H_ H_ 0.77686 0.408883 0.818924 0.10932
H_ H_ 0.700925 0.434036 0.81582 0.10932
H_ H_ 0.976396 0.41168 0.815879 0.10932
H_ H_ 0.696241 0.333072 0.699749 0.10932
H_ H_ 0.927152 0.367671 0.681517 0.10932
H_ H_ 0.669522 0.372125 0.824001 0.10932
H_ H_ 0.950091 0.345661 0.811772 0.10932
H_ H_ 0.717369 0.408124 0.684894 0.10932
H_ H_ 0.963742 0.428476 0.684913 0.10932
H_ H_ 0.712572 0.075403 0.816929 0.10932
H_ H_ 0.960262 0.0718892 0.804207 0.10932
H_ H_ 0.68089 0.154094 0.689209 0.10932
H_ H_ 0.93719 0.157825 0.677943 0.10932
H_ H_ 0.67794 0.139865 0.824964 0.10932
H_ H_ 0.937945 0.143645 0.811111 0.10932
H_ H_ 0.710173 0.08991 0.683204 0.10932
H_ H_ 0.963771 0.0927803 0.669632 0.10932
H_ H_ 0.526921 0.0903594 0.686784 0.10932
H_ H_ 0.775699 0.0973871 0.677963 0.10932
H_ H_ 0.560112 0.146187 0.827563 0.10932
H_ H_ 0.822838 0.145354 0.811261 0.10932
H_ H_ 0.552949 0.156197 0.691415 0.10932
H_ H_ 0.807466 0.158244 0.678638 0.10932
H_ H_ 0.539482 0.0782733 0.824905 0.10932
H_ H_ 0.791763 0.0845686 0.811985 0.10932
H_ H_ 0.630824 0.315306 0.872539 0.10932
H_ H_ 0.923559 0.258249 0.849853 0.10932
H_ H_ 0.616909 0.182417 0.864374 0.10932
H_ H_ 0.828568 0.254656 0.857539 0.10932
H_ H_ 0.624122 0.176462 0.941745 0.10932
H_ H_ 0.831918 0.259688 0.936788 0.10932
H_ H_ 0.625433 0.30936 0.950409 0.10932
H_ H_ 0.928129 0.249876 0.925974 0.10932
H_ H_ 0.597796 0.317176 0.654584 0.10932
H_ H_ 0.877264 0.320821 0.632231 0.10932
H_ H_ 0.64731 0.205787 0.64335 0.10932
H_ H_ 0.878937 0.189174 0.645902 0.10932
H_ H_ 0.646585 0.209575 0.56717 0.10932
H_ H_ 0.882155 0.180623 0.569121 0.10932
H_ H_ 0.5986 0.32632 0.57339 0.10932
H_ H_ 0.88188 0.313897 0.554794 0.10932
C_ C_ 0.561342 0.345767 0.759154 -0.02249
C_ C_ 0.812298 0.348805 0.748156 -0.02249
C_ C_ 0.514611 0.464369 0.755451 -0.02249
C_ C_ 0.761546 0.460011 0.75384 -0.02249
C_ C_ 0.535316 0.400581 0.718907 -0.11473
C_ C_ 0.78608 0.406361 0.712204 -0.11473
C_ C_ 0.559587 0.370962 0.794441 -0.11473
C_ C_ 0.799814 0.359103 0.786412 -0.11473
C_ C_ 0.548116 0.362017 0.721326 -0.11473
C_ C_ 0.803009 0.369652 0.711048 -0.11473
C_ C_ 0.53225 0.424673 0.755661 -0.02249
C_ C_ 0.779483 0.420789 0.752486 -0.02249
C_ C_ 0.580085 0.307612 0.760902 0.6875
C_ C_ 0.836339 0.31507 0.746404 0.6875
C_ C_ 0.544757 0.40931 0.793255 -0.11473
C_ C_ 0.784993 0.396233 0.787936 -0.11473
C_ C_ 0.680324 0.349396 0.759523 -0.02249
C_ C_ 0.9334 0.353559 0.748749 -0.02249
C_ C_ 0.729795 0.463431 0.746835 -0.02249
C_ C_ 0.987054 0.462475 0.752303 -0.02249
C_ C_ 0.70048 0.412984 0.789096 -0.11473
C_ C_ 0.966638 0.399355 0.786501 -0.11473
C_ C_ 0.696424 0.357808 0.722565 -0.11473
C_ C_ 0.936667 0.37813 0.710743 -0.11473
C_ C_ 0.682498 0.378069 0.793307 -0.11473
C_ C_ 0.951409 0.364135 0.784961 -0.11473
C_ C_ 0.711283 0.42476 0.749951 -0.02249
C_ C_ 0.970541 0.423765 0.750056 -0.02249
C_ C_ 0.659384 0.313735 0.760868 0.6875
C_ C_ 0.91515 0.314551 0.749346 0.6875
C_ C_ 0.70701 0.398746 0.715744 -0.11473
C_ C_ 0.959517 0.409698 0.712616 -0.11473
C_ C_ 0.6811 0.154268 0.75644 -0.02249
C_ C_ 0.934405 0.154607 0.746047 -0.02249
C_ C_ 0.732513 0.0434299 0.743494 -0.02249
C_ C_ 0.982525 0.0387329 0.733241 -0.02249
C_ C_ 0.705786 0.0935007 0.790528 -0.11473
C_ C_ 0.955191 0.0910518 0.776335 -0.11473
C_ C_ 0.689494 0.139409 0.716618 -0.11473
C_ C_ 0.942933 0.139916 0.706202 -0.11473
C_ C_ 0.689057 0.13083 0.793697 -0.11473
C_ C_ 0.942727 0.131476 0.781177 -0.11473
C_ C_ 0.714938 0.0815229 0.74996 -0.02249
C_ C_ 0.965039 0.0779287 0.737637 -0.02249
C_ C_ 0.661428 0.192248 0.75982 0.6875
C_ C_ 0.917396 0.193266 0.749158 0.6875
C_ C_ 0.70597 0.102749 0.714529 -0.11473
C_ C_ 0.957461 0.102346 0.70147 -0.11473
C_ C_ 0.563566 0.151438 0.757441 -0.02249
C_ C_ 0.817505 0.15598 0.745462 -0.02249
C_ C_ 0.515085 0.036764 0.755098 -0.02249
C_ C_ 0.764698 0.0443386 0.742804 -0.02249
C_ C_ 0.536747 0.0980261 0.717499 -0.11473
C_ C_ 0.78528 0.107324 0.706996 -0.11473
C_ C_ 0.556489 0.131789 0.795373 -0.11473
C_ C_ 0.813718 0.133 0.782231 -0.11473
C_ C_ 0.551586 0.136104 0.71945 -0.11473
C_ C_ 0.804715 0.14094 0.708261 -0.11473
C_ C_ 0.531821 0.076359 0.754517 -0.02249
C_ C_ 0.780234 0.0853632 0.744266 -0.02249
C_ C_ 0.583528 0.190112 0.756478 0.6875
C_ C_ 0.836284 0.194975 0.744259 0.6875
C_ C_ 0.542109 0.0925361 0.79329 -0.11473
C_ C_ 0.794736 0.0980571 0.782034 -0.11473
C_ C_ 0.625919 0.285595 0.887332 0.17695
C_ C_ 0.903315 0.256618 0.870081 0.17695
C_ C_ 0.620051 0.210888 0.884154 0.17695
C_ C_ 0.850532 0.254052 0.875075 0.17695
C_ C_ 0.624304 0.20723 0.927651 -0.11473
C_ C_ 0.853132 0.258468 0.919581 -0.11473
C_ C_ 0.624947 0.242889 0.952988 0.23465
C_ C_ 0.881893 0.25423 0.939397 0.23465
C_ C_ 0.625101 0.281656 0.932006 -0.11473
C_ C_ 0.906433 0.256531 0.913051 -0.11473
C_ C_ 0.606787 0.292533 0.634155 0.17695
C_ C_ 0.877311 0.28937 0.617871 0.17695
C_ C_ 0.634467 0.231101 0.630306 0.17695
C_ C_ 0.882509 0.216835 0.62715 0.17695
C_ C_ 0.63285 0.231384 0.585034 -0.11473
C_ C_ 0.883663 0.211276 0.582595 -0.11473
C_ C_ 0.619168 0.265782 0.564952 0.23465
C_ C_ 0.884831 0.246403 0.556117 0.23465
C_ C_ 0.606607 0.297085 0.588378 -0.11473
C_ C_ 0.882013 0.286399 0.574197 -0.11473
C_ C_ 0.529611 0.502988 0.75204 0.05793
C_ C_ 0.778678 0.496315 0.757703 0.05793
C_ C_ 0.716921 0.00565023 0.742697 0.05793
C_ C_ 0.967639 0.000187641 0.732642 0.05793
Br Br 0.570008 0.504895 0.738534 -0.17191
Br Br 0.819509 0.494738 0.779385 -0.17191
Br Br 0.674072 0.00706567 0.73945 -0.17191
Br Br 0.92375 0.0010711 0.736255 -0.17191
N_ N_ 0.620663 0.24903 0.864969 -0.272
N_ N_ 0.876174 0.255225 0.851983 -0.272
N_ N_ 0.622821 0.238758 0.99712 -0.12501
N_ N_ 0.885725 0.248862 0.984393 -0.12501
N_ N_ 0.621377 0.261897 0.653531 -0.272
N_ N_ 0.8771 0.254164 0.642626 -0.272
N_ N_ 0.618792 0.272006 0.519745 -0.12501
N_ N_ 0.883528 0.241959 0.510007 -0.12501
O_ O_ 0.591225 0.294485 0.72798 -0.60745
O_ O_ 0.844079 0.297132 0.711559 -0.60745
O_ O_ 0.588773 0.293186 0.794966 -0.60745
O_ O_ 0.847475 0.299938 0.781005 -0.60745
O_ O_ 0.651598 0.299536 0.79675 -0.60745
O_ O_ 0.910227 0.292854 0.783065 -0.60745
O_ O_ 0.650412 0.296202 0.727543 -0.60745
O_ O_ 0.905497 0.300753 0.714976 -0.60745
O_ O_ 0.656743 0.20934 0.794098 -0.60745
O_ O_ 0.907087 0.205262 0.783519 -0.60745
O_ O_ 0.652284 0.209598 0.725596 -0.60745
O_ O_ 0.907313 0.209806 0.715006 -0.60745
O_ O_ 0.592774 0.204919 0.720825 -0.60745
O_ O_ 0.843966 0.20996 0.70912 -0.60745
O_ O_ 0.593125 0.203938 0.790952 -0.60745
O_ O_ 0.845779 0.210882 0.778593 -0.60745
Zn Zn 0.625001 0.748552 0.284043 0.9476
Zn Zn 0.874642 0.751581 0.28091 0.9476
Zn Zn 0.626162 0.750041 0.215555 0.9476
Zn Zn 0.869734 0.748848 0.209532 0.9476
H_ H_ 0.528716 0.906772 0.177867 0.10932
H_ H_ 0.785233 0.922023 0.170894 0.10932
H_ H_ 0.576106 0.858302 0.307511 0.10932
H_ H_ 0.815934 0.857209 0.30769 0.10932
H_ H_ 0.562338 0.847373 0.175837 0.10932
H_ H_ 0.808249 0.852068 0.171612 0.10932
H_ H_ 0.550665 0.924657 0.310092 0.10932
H_ H_ 0.791434 0.922754 0.306079 0.10932
H_ H_ 0.727795 0.906171 0.31126 0.10932
H_ H_ 0.958856 0.922183 0.311107 0.10932
H_ H_ 0.673071 0.861755 0.181578 0.10932
H_ H_ 0.931973 0.853202 0.179253 0.10932
H_ H_ 0.694141 0.841844 0.311165 0.10932
H_ H_ 0.930831 0.859205 0.312088 0.10932
H_ H_ 0.702889 0.927826 0.181418 0.10932
H_ H_ 0.959354 0.91763 0.174513 0.10932
H_ H_ 0.706202 0.579045 0.326105 0.10932
H_ H_ 0.939348 0.563076 0.300618 0.10932
H_ H_ 0.697587 0.651256 0.195427 0.10932
H_ H_ 0.954958 0.669304 0.192451 0.10932
H_ H_ 0.673371 0.638231 0.323 0.10932
H_ H_ 0.910139 0.626399 0.304415 0.10932
H_ H_ 0.720869 0.583798 0.194461 0.10932
H_ H_ 0.979185 0.60521 0.1858 0.10932
H_ H_ 0.535631 0.574809 0.192169 0.10932
H_ H_ 0.788115 0.572375 0.184542 0.10932
H_ H_ 0.552831 0.660161 0.31506 0.10932
H_ H_ 0.803828 0.653941 0.316678 0.10932
H_ H_ 0.562665 0.640223 0.18464 0.10932
H_ H_ 0.814134 0.640724 0.182534 0.10932
H_ H_ 0.526589 0.592429 0.321985 0.10932
H_ H_ 0.775941 0.587098 0.316878 0.10932
H_ H_ 0.620259 0.686428 0.3638 0.10932
H_ H_ 0.86051 0.815536 0.358491 0.10932
H_ H_ 0.636714 0.810865 0.354679 0.10932
H_ H_ 0.884339 0.688748 0.350571 0.10932
H_ H_ 0.636355 0.817829 0.431752 0.10932
H_ H_ 0.874012 0.683839 0.427429 0.10932
H_ H_ 0.637283 0.686726 0.443177 0.10932
H_ H_ 0.866221 0.817058 0.432108 0.10932
H_ H_ 0.630039 0.679721 0.146599 0.10932
H_ H_ 0.863056 0.680343 0.142122 0.10932
H_ H_ 0.621721 0.806504 0.135556 0.10932
H_ H_ 0.875701 0.806083 0.130872 0.10932
H_ H_ 0.617295 0.802331 0.056759 0.10932
H_ H_ 0.872476 0.803185 0.0537329 0.10932
H_ H_ 0.636606 0.673753 0.0668319 0.10932
H_ H_ 0.866606 0.670554 0.0626626 0.10932
C_ C_ 0.569948 0.8471 0.241991 -0.02249
C_ C_ 0.816884 0.851355 0.239985 -0.02249
C_ C_ 0.517863 0.958706 0.242334 -0.02249
C_ C_ 0.764629 0.965423 0.237874 -0.02249
C_ C_ 0.539788 0.898166 0.20638 -0.11473
C_ C_ 0.792389 0.908156 0.200498 -0.11473
C_ C_ 0.567755 0.871766 0.279167 -0.11473
C_ C_ 0.811124 0.87308 0.276749 -0.11473
C_ C_ 0.557817 0.863362 0.205249 -0.11473
C_ C_ 0.805598 0.868625 0.201113 -0.11473
C_ C_ 0.536813 0.920802 0.24361 -0.02249
C_ C_ 0.784584 0.926514 0.238078 -0.02249
C_ C_ 0.587132 0.809438 0.242545 0.6875
C_ C_ 0.833845 0.810897 0.239886 0.6875
C_ C_ 0.54978 0.906046 0.28045 -0.11473
C_ C_ 0.796187 0.90993 0.275413 -0.11473
C_ C_ 0.685823 0.843665 0.245424 -0.02249
C_ C_ 0.931481 0.847369 0.244917 -0.02249
C_ C_ 0.734741 0.962996 0.249319 -0.02249
C_ C_ 0.98603 0.960579 0.243839 -0.02249
C_ C_ 0.715866 0.896589 0.282958 -0.11473
C_ C_ 0.957816 0.905119 0.28126 -0.11473
C_ C_ 0.685727 0.870346 0.20952 -0.11473
C_ C_ 0.940403 0.866628 0.207264 -0.11473
C_ C_ 0.699894 0.857366 0.281724 -0.11473
C_ C_ 0.939234 0.870162 0.282141 -0.11473
C_ C_ 0.717521 0.92222 0.247046 -0.02249
C_ C_ 0.969663 0.919584 0.243508 -0.02249
C_ C_ 0.666562 0.805283 0.247319 0.6875
C_ C_ 0.910399 0.809767 0.246278 0.6875
C_ C_ 0.701663 0.907773 0.209639 -0.11473
C_ C_ 0.958266 0.901901 0.205594 -0.11473
C_ C_ 0.681984 0.649062 0.257551 -0.02249
C_ C_ 0.93119 0.655742 0.250062 -0.02249
C_ C_ 0.732118 0.533918 0.261295 -0.02249
C_ C_ 0.982043 0.539487 0.242266 -0.02249
C_ C_ 0.70099 0.590265 0.29622 -0.11473
C_ C_ 0.944618 0.587646 0.27919 -0.11473
C_ C_ 0.69744 0.633349 0.222036 -0.11473
C_ C_ 0.950302 0.647989 0.217036 -0.11473
C_ C_ 0.68255 0.62578 0.29421 -0.11473
C_ C_ 0.929853 0.625738 0.282449 -0.11473
C_ C_ 0.714227 0.573358 0.25962 -0.02249
C_ C_ 0.964042 0.57948 0.243602 -0.02249
C_ C_ 0.66353 0.687627 0.255327 0.6875
C_ C_ 0.911473 0.693437 0.249746 0.6875
C_ C_ 0.711042 0.594841 0.221775 -0.11473
C_ C_ 0.966454 0.610473 0.214885 -0.11473
C_ C_ 0.563147 0.652693 0.250219 -0.02249
C_ C_ 0.812835 0.650593 0.249802 -0.02249
C_ C_ 0.51751 0.535451 0.261807 -0.02249
C_ C_ 0.762661 0.535184 0.255671 -0.02249
C_ C_ 0.542025 0.591318 0.219822 -0.11473
C_ C_ 0.790504 0.589578 0.214055 -0.11473
C_ C_ 0.552552 0.639143 0.288575 -0.11473
C_ C_ 0.80274 0.635228 0.288489 -0.11473
C_ C_ 0.55872 0.626913 0.215014 -0.11473
C_ C_ 0.807912 0.627371 0.213338 -0.11473
C_ C_ 0.535339 0.573783 0.259291 -0.02249
C_ C_ 0.778024 0.577413 0.252087 -0.02249
C_ C_ 0.584244 0.69095 0.247382 0.6875
C_ C_ 0.83267 0.687716 0.246721 0.6875
C_ C_ 0.536655 0.600359 0.292735 -0.11473
C_ C_ 0.784578 0.600052 0.287867 -0.11473
C_ C_ 0.626447 0.713413 0.38089 0.17695
C_ C_ 0.871567 0.78813 0.372579 0.17695
C_ C_ 0.632075 0.784368 0.3748 0.17695
C_ C_ 0.880783 0.716913 0.368709 0.17695
C_ C_ 0.635302 0.788036 0.417873 -0.11473
C_ C_ 0.877589 0.713868 0.412366 -0.11473
C_ C_ 0.635724 0.753563 0.442913 0.23465
C_ C_ 0.875108 0.74987 0.436435 0.23465
C_ C_ 0.634639 0.715141 0.423859 -0.11473
C_ C_ 0.872563 0.788643 0.416381 -0.11473
C_ C_ 0.627954 0.706374 0.126623 0.17695
C_ C_ 0.868216 0.706287 0.122326 0.17695
C_ C_ 0.617789 0.776733 0.12006 0.17695
C_ C_ 0.872932 0.77922 0.116378 0.17695
C_ C_ 0.617947 0.774472 0.0759019 -0.11473
C_ C_ 0.875512 0.774917 0.0714635 -0.11473
C_ C_ 0.623022 0.735294 0.0557629 0.23465
C_ C_ 0.873783 0.735997 0.0522464 0.23465
C_ C_ 0.63125 0.70186 0.0821929 -0.11473
C_ C_ 0.869571 0.701201 0.0781666 -0.11473
C_ C_ 0.530413 0.99726353 0.2338 0.05793
C_ C_ 0.778415 1.00351037 0.236522 0.05793
C_ C_ 0.715911 0.496399 0.260551 0.05793
C_ C_ 0.96707 0.500554 0.239825 0.05793
Br Br 0.571963 0.99815168 0.212563 -0.17191
Br Br 0.820899 1.0050882 0.219694 -0.17191
Br Br 0.672086 0.491254 0.263855 -0.17191
Br Br 0.924625 0.496485 0.224493 -0.17191
N_ N_ 0.626631 0.747997 0.356716 -0.272
N_ N_ 0.875234 0.754101 0.349064 -0.272
N_ N_ 0.637469 0.756838 0.487942 -0.12501
N_ N_ 0.871622 0.746031 0.482011 -0.12501
N_ N_ 0.622492 0.743311 0.144078 -0.272
N_ N_ 0.871402 0.744092 0.139114 -0.272
N_ N_ 0.6277 0.731951 0.0102967 -0.12501
N_ N_ 0.871572 0.732453 0.00756333 -0.12501
O_ O_ 0.595666 0.793992 0.208439 -0.60745
O_ O_ 0.84014 0.792401 0.206125 -0.60745
O_ O_ 0.598175 0.796833 0.277429 -0.60745
O_ O_ 0.842771 0.793484 0.274487 -0.60745
O_ O_ 0.655914 0.792007 0.280932 -0.60745
O_ O_ 0.900816 0.798889 0.28228 -0.60745
O_ O_ 0.659652 0.787312 0.212534 -0.60745
O_ O_ 0.905997 0.788584 0.214519 -0.60745
O_ O_ 0.653316 0.700911 0.289899 -0.60745
O_ O_ 0.907475 0.712843 0.284517 -0.60745
O_ O_ 0.653208 0.701633 0.21934 -0.60745
O_ O_ 0.900357 0.705003 0.215441 -0.60745
O_ O_ 0.593887 0.703616 0.214094 -0.60745
O_ O_ 0.835851 0.706136 0.213187 -0.60745
O_ O_ 0.591596 0.708604 0.281968 -0.60745
O_ O_ 0.843503 0.70333 0.281412 -0.60745
Zn Zn 0.62719 0.749087 0.784949 0.9476
Zn Zn 0.874248 0.750783 0.77863 0.9476
Zn Zn 0.625233 0.750006 0.714014 0.9476
Zn Zn 0.868303 0.749469 0.709206 0.9476
H_ H_ 0.531924 0.91383 0.681607 0.10932
H_ H_ 0.78361 0.925721 0.673894 0.10932
H_ H_ 0.574026 0.857911 0.814208 0.10932
H_ H_ 0.812416 0.858333 0.81084 0.10932
H_ H_ 0.557137 0.846698 0.681117 0.10932
H_ H_ 0.804686 0.853928 0.674259 0.10932
H_ H_ 0.540484 0.919277 0.815896 0.10932
H_ H_ 0.788427 0.927103 0.810539 0.10932
H_ H_ 0.707967 0.929344 0.804643 0.10932
H_ H_ 0.945293 0.93294 0.795316 0.10932
H_ H_ 0.684864 0.854464 0.675139 0.10932
H_ H_ 0.954754 0.829005 0.679363 0.10932
H_ H_ 0.680827 0.86333 0.808752 0.10932
H_ H_ 0.91976 0.865972 0.799822 0.10932
H_ H_ 0.710122 0.921725 0.672015 0.10932
H_ H_ 0.97277 0.902446 0.670802 0.10932
H_ H_ 0.702498 0.571594 0.811914 0.10932
H_ H_ 0.957961 0.580244 0.814881 0.10932
H_ H_ 0.706084 0.665413 0.688713 0.10932
H_ H_ 0.934015 0.644546 0.675385 0.10932
H_ H_ 0.679326 0.639934 0.816248 0.10932
H_ H_ 0.927377 0.64075 0.810985 0.10932
H_ H_ 0.725954 0.596089 0.6842 0.10932
H_ H_ 0.971879 0.587486 0.681934 0.10932
H_ H_ 0.532232 0.58592 0.686495 0.10932
H_ H_ 0.786315 0.576433 0.68194 0.10932
H_ H_ 0.573778 0.639773 0.81791 0.10932
H_ H_ 0.814821 0.64213 0.815886 0.10932
H_ H_ 0.559254 0.64999 0.686854 0.10932
H_ H_ 0.817096 0.638883 0.679434 0.10932
H_ H_ 0.54163 0.577253 0.818812 0.10932
H_ H_ 0.781212 0.577831 0.812957 0.10932
H_ H_ 0.625604 0.686033 0.859172 0.10932
H_ H_ 0.878125 0.69091 0.857426 0.10932
H_ H_ 0.627756 0.81771 0.855458 0.10932
H_ H_ 0.874843 0.820439 0.850843 0.10932
H_ H_ 0.627842 0.819051 0.935486 0.10932
H_ H_ 0.873155 0.82675 0.926241 0.10932
H_ H_ 0.620677 0.688274 0.935492 0.10932
H_ H_ 0.867472 0.693656 0.932166 0.10932
H_ H_ 0.62645 0.678555 0.641564 0.10932
H_ H_ 0.8561 0.818614 0.643625 0.10932
H_ H_ 0.623359 0.809348 0.638203 0.10932
H_ H_ 0.879608 0.693663 0.630752 0.10932
H_ H_ 0.632832 0.805771 0.563112 0.10932
H_ H_ 0.885162 0.702059 0.551759 0.10932
H_ H_ 0.61736 0.676388 0.566104 0.10932
H_ H_ 0.863307 0.832263 0.566459 0.10932
C_ C_ 0.568283 0.846041 0.747063 -0.02249
C_ C_ 0.814176 0.852928 0.743007 -0.02249
C_ C_ 0.517319 0.960253 0.750793 -0.02249
C_ C_ 0.763663 0.96717 0.741072 -0.02249
C_ C_ 0.541839 0.903445 0.711592 -0.11473
C_ C_ 0.78538 0.9078 0.704552 -0.11473
C_ C_ 0.563579 0.867878 0.785365 -0.11473
C_ C_ 0.805782 0.873147 0.781753 -0.11473
C_ C_ 0.556492 0.863285 0.710633 -0.11473
C_ C_ 0.80167 0.870194 0.704021 -0.11473
C_ C_ 0.533704 0.92111 0.749699 -0.02249
C_ C_ 0.780842 0.927488 0.742786 -0.02249
C_ C_ 0.586811 0.808236 0.746872 0.6875
C_ C_ 0.833226 0.813243 0.742973 0.6875
C_ C_ 0.544489 0.903366 0.787478 -0.11473
C_ C_ 0.789336 0.908835 0.781397 -0.11473
C_ C_ 0.682368 0.851146 0.741156 -0.02249
C_ C_ 0.931352 0.846549 0.736714 -0.02249
C_ C_ 0.732046 0.967671 0.739237 -0.02249
C_ C_ 0.981842 0.960339 0.734271 -0.02249
C_ C_ 0.704904 0.913044 0.7772 -0.11473
C_ C_ 0.947397 0.911775 0.76908 -0.11473
C_ C_ 0.692717 0.866847 0.703842 -0.11473
C_ C_ 0.949478 0.855447 0.702018 -0.11473
C_ C_ 0.689055 0.874958 0.778309 -0.11473
C_ C_ 0.931407 0.873515 0.771947 -0.11473
C_ C_ 0.714994 0.928123 0.740179 -0.02249
C_ C_ 0.964042 0.921607 0.733388 -0.02249
C_ C_ 0.662797 0.813251 0.742874 0.6875
C_ C_ 0.914388 0.807354 0.740322 0.6875
C_ C_ 0.708264 0.905801 0.702143 -0.11473
C_ C_ 0.965046 0.891365 0.700334 -0.11473
C_ C_ 0.686426 0.656401 0.74993 -0.02249
C_ C_ 0.929992 0.651907 0.744446 -0.02249
C_ C_ 0.733428 0.538695 0.743023 -0.02249
C_ C_ 0.985021 0.539475 0.745064 -0.02249
C_ C_ 0.701787 0.591853 0.78311 -0.11473
C_ C_ 0.953794 0.593685 0.783021 -0.11473
C_ C_ 0.70257 0.64298 0.713715 -0.11473
C_ C_ 0.939975 0.632628 0.706033 -0.11473
C_ C_ 0.689104 0.631951 0.786931 -0.11473
C_ C_ 0.937433 0.630336 0.782881 -0.11473
C_ C_ 0.718272 0.580218 0.747461 -0.02249
C_ C_ 0.966362 0.578222 0.746037 -0.02249
C_ C_ 0.664534 0.690408 0.750364 0.6875
C_ C_ 0.912067 0.691375 0.743839 0.6875
C_ C_ 0.718467 0.608117 0.713144 -0.11473
C_ C_ 0.96 0.59864 0.708717 -0.11473
C_ C_ 0.568285 0.650762 0.753089 -0.02249
C_ C_ 0.817229 0.647623 0.747544 -0.02249
C_ C_ 0.512684 0.541602 0.755644 -0.02249
C_ C_ 0.765235 0.534573 0.748543 -0.02249
C_ C_ 0.536994 0.599912 0.716139 -0.11473
C_ C_ 0.793328 0.590053 0.710706 -0.11473
C_ C_ 0.560941 0.630511 0.790663 -0.11473
C_ C_ 0.809035 0.627599 0.786031 -0.11473
C_ C_ 0.556835 0.633376 0.715047 -0.11473
C_ C_ 0.809238 0.626866 0.709295 -0.11473
C_ C_ 0.53004 0.5804 0.753688 -0.02249
C_ C_ 0.78572 0.5717 0.747882 -0.02249
C_ C_ 0.590542 0.684646 0.752426 0.6875
C_ C_ 0.831838 0.69002 0.747027 0.6875
C_ C_ 0.541593 0.595868 0.790717 -0.11473
C_ C_ 0.791523 0.59105 0.786381 -0.11473
C_ C_ 0.628203 0.715772 0.87568 0.17695
C_ C_ 0.877287 0.720623 0.87163 0.17695
C_ C_ 0.62498 0.789065 0.873268 0.17695
C_ C_ 0.873228 0.793243 0.868844 0.17695
C_ C_ 0.626574 0.791476 0.917297 -0.11473
C_ C_ 0.874013 0.795732 0.91213 -0.11473
C_ C_ 0.623448 0.754835 0.94056 0.23465
C_ C_ 0.876366 0.759217 0.938014 0.23465
C_ C_ 0.62478 0.717082 0.918899 -0.11473
C_ C_ 0.875327 0.721356 0.915951 -0.11473
C_ C_ 0.623804 0.70795 0.625223 0.17695
C_ C_ 0.862381 0.794658 0.623742 0.17695
C_ C_ 0.625646 0.779312 0.622905 0.17695
C_ C_ 0.876677 0.723618 0.616014 0.17695
C_ C_ 0.625031 0.778293 0.579307 -0.11473
C_ C_ 0.879102 0.728846 0.571682 -0.11473
C_ C_ 0.622302 0.740554 0.557373 0.23465
C_ C_ 0.876339 0.768205 0.552697 0.23465
C_ C_ 0.62093 0.704796 0.580824 -0.11473
C_ C_ 0.866695 0.801544 0.579418 -0.11473
C_ C_ 0.531485 -0.00153317 0.751515 0.05793
C_ C_ 0.779941 0.00586285 0.742741 0.05793
C_ C_ 0.715828 0.50248 0.742412 0.05793
C_ C_ 0.970356 0.500552 0.75126 0.05793
Br Br 0.57407 -0.000366116 0.744827 -0.17191
Br Br 0.824542 1.00663717 0.745364 -0.17191
Br Br 0.672857 0.505377 0.745728 -0.17191
Br Br 0.928833 0.499894 0.762739 -0.17191
N_ N_ 0.626406 0.751672 0.853621 -0.272
N_ N_ 0.875449 0.756703 0.848763 -0.272
N_ N_ 0.616639 0.756656 0.984153 -0.12501
N_ N_ 0.873981 0.762924 0.98353 -0.12501
N_ N_ 0.622363 0.744439 0.645594 -0.272
N_ N_ 0.870855 0.757196 0.640765 -0.272
N_ N_ 0.617809 0.740814 0.511394 -0.12501
N_ N_ 0.881818 0.772439 0.509027 -0.12501
O_ O_ 0.596167 0.794692 0.713651 -0.60745
O_ O_ 0.837387 0.794139 0.708896 -0.60745
O_ O_ 0.595339 0.791119 0.781059 -0.60745
O_ O_ 0.843644 0.797285 0.777077 -0.60745
O_ O_ 0.655881 0.798614 0.777738 -0.60745
O_ O_ 0.907636 0.795701 0.776703 -0.60745
O_ O_ 0.656172 0.794163 0.709784 -0.60745
O_ O_ 0.900697 0.792649 0.709053 -0.60745
O_ O_ 0.656887 0.708974 0.785011 -0.60745
O_ O_ 0.904239 0.707214 0.778432 -0.60745
O_ O_ 0.656509 0.707707 0.717291 -0.60745
O_ O_ 0.899246 0.703581 0.70865 -0.60745
O_ O_ 0.596181 0.702895 0.718487 -0.60745
O_ O_ 0.836037 0.708537 0.712108 -0.60745
O_ O_ 0.600435 0.698975 0.786259 -0.60745
O_ O_ 0.840114 0.705446 0.781922 -0.60745
