_cell_length_a 44.444
_cell_length_b 32.3360000049186
_cell_length_c 31.843999878906452
_cell_angle_alpha 89.99799923859553
_cell_angle_beta 91.13600050494348
_cell_angle_gamma 89.9990006550086
_symmetry_space_group_name_H-M         'P 1'
_symmetry_Int_Tables_number            1
loop_
_symmetry_equiv_pos_as_xyz
   'x, y, z'
                         
loop_
_atom_site_label
_atom_site_type_symbol
_atom_site_fract_x 
_atom_site_fract_y
_atom_site_fract_z
_atom_site_charge
Zn Zn 0.123971 0.253157 0.276288 0.9476
Zn Zn 0.374062 0.246961 0.283569 0.9476
Zn Zn 0.118785 0.252099 0.209512 0.9476
Zn Zn 0.375798 0.249392 0.215295 0.9476
H_ H_ 0.0197529 0.417111 0.182557 0.10932
H_ H_ 0.279519 0.411583 0.177179 0.10932
H_ H_ 0.0640728 0.356369 0.308358 0.10932
H_ H_ 0.320679 0.362474 0.317667 0.10932
H_ H_ 0.0443189 0.346643 0.176718 0.10932
H_ H_ 0.309667 0.345405 0.183119 0.10932
H_ H_ 0.0432295 0.423812 0.31202 0.10932
H_ H_ 0.290394 0.425192 0.311759 0.10932
H_ H_ 0.223083 0.41477 0.306001 0.10932
H_ H_ 0.454065 0.419788 0.322229 0.10932
H_ H_ 0.176043 0.361232 0.173333 0.10932
H_ H_ 0.441362 0.353281 0.183737 0.10932
H_ H_ 0.200398 0.344285 0.300718 0.10932
H_ H_ 0.428543 0.351863 0.314858 0.10932
H_ H_ 0.21213 0.423579 0.172061 0.10932
H_ H_ 0.468769 0.420568 0.190852 0.10932
H_ H_ 0.228295 0.0960923 0.310835 0.10932
H_ H_ 0.491155 0.103136 0.308126 0.10932
H_ H_ 0.16399 0.13566 0.189186 0.10932
H_ H_ 0.425756 0.136282 0.188302 0.10932
H_ H_ 0.201047 0.163394 0.314179 0.10932
H_ H_ 0.458435 0.165947 0.311794 0.10932
H_ H_ 0.195566 0.0732884 0.1853 0.10932
H_ H_ 0.453204 0.07317 0.18775 0.10932
H_ H_ 0.0376912 0.0784064 0.176042 0.10932
H_ H_ 0.274724 0.0948565 0.187807 0.10932
H_ H_ 0.0660027 0.150055 0.308228 0.10932
H_ H_ 0.331635 0.131797 0.317561 0.10932
H_ H_ 0.0579786 0.150104 0.17466 0.10932
H_ H_ 0.304993 0.156995 0.185835 0.10932
H_ H_ 0.0454654 0.0803791 0.310459 0.10932
H_ H_ 0.29477 0.0751917 0.315828 0.10932
H_ H_ 0.115706 0.324622 0.346519 0.10932
H_ H_ 0.382862 0.318635 0.36273 0.10932
H_ H_ 0.130717 0.192409 0.354977 0.10932
H_ H_ 0.371578 0.188646 0.354161 0.10932
H_ H_ 0.125026 0.196951 0.430568 0.10932
H_ H_ 0.369919 0.182837 0.429286 0.10932
H_ H_ 0.112847 0.326832 0.42104 0.10932
H_ H_ 0.383631 0.313985 0.439894 0.10932
H_ H_ 0.120113 0.315209 0.139132 0.10932
H_ H_ 0.380048 0.307881 0.143657 0.10932
H_ H_ 0.114422 0.187202 0.124626 0.10932
H_ H_ 0.363495 0.179658 0.141342 0.10932
H_ H_ 0.108543 0.197826 0.0462778 0.10932
H_ H_ 0.360748 0.182642 0.0598056 0.10932
H_ H_ 0.12177 0.326492 0.0637148 0.10932
H_ H_ 0.377416 0.313757 0.0693554 0.10932
C_ C_ 0.0614668 0.349255 0.241013 -0.02249
C_ C_ 0.318167 0.348183 0.249687 -0.02249
C_ C_ 0.0133991 0.465758 0.247419 -0.02249
C_ C_ 0.267144 0.464547 0.240886 -0.02249
C_ C_ 0.0302385 0.403473 0.208846 -0.11473
C_ C_ 0.288395 0.400152 0.208034 -0.11473
C_ C_ 0.0578431 0.370547 0.278739 -0.11473
C_ C_ 0.310715 0.37173 0.286269 -0.11473
C_ C_ 0.0469685 0.366375 0.205795 -0.11473
C_ C_ 0.303761 0.361229 0.212383 -0.11473
C_ C_ 0.0297637 0.426267 0.245338 -0.02249
C_ C_ 0.2846 0.423853 0.244274 -0.02249
C_ C_ 0.08174 0.311543 0.23651 0.6875
C_ C_ 0.336386 0.310153 0.250554 0.6875
C_ C_ 0.0439214 0.408022 0.280821 -0.11473
C_ C_ 0.295905 0.408784 0.282422 -0.11473
C_ C_ 0.183872 0.348569 0.239801 -0.02249
C_ C_ 0.428934 0.349685 0.248207 -0.02249
C_ C_ 0.234918 0.462625 0.239505 -0.02249
C_ C_ 0.483274 0.461161 0.257442 -0.02249
C_ C_ 0.217762 0.398264 0.2754 -0.11473
C_ C_ 0.453734 0.402987 0.292618 -0.11473
C_ C_ 0.186766 0.373308 0.201499 -0.11473
C_ C_ 0.444318 0.367496 0.21284 -0.11473
C_ C_ 0.199832 0.362793 0.275444 -0.11473
C_ C_ 0.432522 0.370039 0.287317 -0.11473
C_ C_ 0.22017 0.42055 0.238184 -0.02249
C_ C_ 0.466232 0.421737 0.256191 -0.02249
C_ C_ 0.162776 0.312008 0.242572 0.6875
C_ C_ 0.410096 0.310353 0.244429 0.6875
C_ C_ 0.207298 0.406665 0.200238 -0.11473
C_ C_ 0.46166 0.402759 0.218387 -0.11473
C_ C_ 0.1803 0.156199 0.251163 -0.02249
C_ C_ 0.441476 0.155475 0.24917 -0.02249
C_ C_ 0.231886 0.0421151 0.247243 -0.02249
C_ C_ 0.487895 0.0413503 0.251112 -0.02249
C_ C_ 0.216793 0.107851 0.283627 -0.11473
C_ C_ 0.475503 0.110045 0.284724 -0.11473
C_ C_ 0.179857 0.129572 0.215082 -0.11473
C_ C_ 0.443331 0.132188 0.212815 -0.11473
C_ C_ 0.199828 0.145486 0.285747 -0.11473
C_ C_ 0.457243 0.144646 0.285655 -0.11473
C_ C_ 0.213998 0.081421 0.249129 -0.02249
C_ C_ 0.472236 0.0815733 0.250742 -0.02249
C_ C_ 0.16121 0.19482 0.251879 0.6875
C_ C_ 0.420199 0.19238 0.249007 0.6875
C_ C_ 0.194598 0.0907677 0.21557 -0.11473
C_ C_ 0.455708 0.0931404 0.215014 -0.11473
C_ C_ 0.065946 0.152091 0.240605 -0.02249
C_ C_ 0.316285 0.154075 0.253938 -0.02249
C_ C_ 0.0172578 0.0379355 0.244302 -0.02249
C_ C_ 0.263747 0.0431247 0.250305 -0.02249
C_ C_ 0.0436322 0.0941042 0.205488 -0.11473
C_ C_ 0.287385 0.10277 0.214389 -0.11473
C_ C_ 0.061322 0.132697 0.279009 -0.11473
C_ C_ 0.315492 0.128789 0.2901 -0.11473
C_ C_ 0.056519 0.13369 0.203799 -0.11473
C_ C_ 0.30173 0.141386 0.216438 -0.11473
C_ C_ 0.0362317 0.0762342 0.243933 -0.02249
C_ C_ 0.281913 0.0820294 0.251694 -0.02249
C_ C_ 0.0828506 0.19215 0.240306 0.6875
C_ C_ 0.333728 0.192353 0.254658 0.6875
C_ C_ 0.0451716 0.0953666 0.281147 -0.11473
C_ C_ 0.29706 0.0932575 0.288114 -0.11473
C_ C_ 0.117719 0.294938 0.364445 0.17695
C_ C_ 0.380098 0.29019 0.377703 0.17695
C_ C_ 0.125744 0.222492 0.368559 0.17695
C_ C_ 0.374576 0.215915 0.373449 0.17695
C_ C_ 0.123522 0.224975 0.412243 -0.11473
C_ C_ 0.376113 0.212929 0.41661 -0.11473
C_ C_ 0.119714 0.263708 0.432594 0.23465
C_ C_ 0.378919 0.248848 0.441593 0.23465
C_ C_ 0.119081 0.299073 0.407806 -0.11473
C_ C_ 0.380991 0.288171 0.421112 -0.11473
C_ C_ 0.124949 0.288839 0.119451 0.17695
C_ C_ 0.372365 0.281604 0.12517 0.17695
C_ C_ 0.119287 0.216757 0.110821 0.17695
C_ C_ 0.368281 0.208469 0.124906 0.17695
C_ C_ 0.116871 0.222372 0.0681301 -0.11473
C_ C_ 0.365604 0.210158 0.0802695 -0.11473
C_ C_ 0.12235 0.260528 0.0486099 0.23465
C_ C_ 0.368541 0.247513 0.0586719 0.23465
C_ C_ 0.123879 0.294551 0.0760455 -0.11473
C_ C_ 0.372343 0.283872 0.081753 -0.11473
C_ C_ 0.029767 0.503715 0.244843 0.05793
C_ C_ 0.28087 0.502997 0.245753 0.05793
C_ C_ 0.217267 0.0050511 0.254344 0.05793
C_ C_ 0.471903 1.00386554 0.258114 0.05793
Br Br 0.0738281 0.501169 0.243899 -0.17191
Br Br 0.32286 0.503111 0.235082 -0.17191
Br Br 0.17492 0.00248867 0.261788 -0.17191
Br Br 0.4312 1.00648768 0.275114 -0.17191
N_ N_ 0.123131 0.258061 0.345518 -0.272
N_ N_ 0.378851 0.254231 0.354918 -0.272
N_ N_ 0.115622 0.267757 0.477838 -0.12501
N_ N_ 0.37641 0.24474 0.486458 -0.12501
N_ N_ 0.123539 0.249316 0.135891 -0.272
N_ N_ 0.369198 0.244733 0.146438 -0.272
N_ N_ 0.11879 0.268531 0.00479334 -0.12501
N_ N_ 0.380602 0.247662 0.0185675 -0.12501
O_ O_ 0.0861407 0.293427 0.20182 -0.60745
O_ O_ 0.343227 0.292629 0.217452 -0.60745
O_ O_ 0.0938572 0.296935 0.270357 -0.60745
O_ O_ 0.34565 0.295784 0.284911 -0.60745
O_ O_ 0.155975 0.296937 0.277352 -0.60745
O_ O_ 0.404186 0.289544 0.276 -0.60745
O_ O_ 0.149236 0.297287 0.209607 -0.60745
O_ O_ 0.40619 0.29412 0.208052 -0.60745
O_ O_ 0.157286 0.213934 0.285447 -0.60745
O_ O_ 0.406871 0.202934 0.283409 -0.60745
O_ O_ 0.150023 0.209837 0.218146 -0.60745
O_ O_ 0.410811 0.206657 0.214497 -0.60745
O_ O_ 0.087053 0.21182 0.206501 -0.60745
O_ O_ 0.345946 0.204639 0.221876 -0.60745
O_ O_ 0.0911061 0.208683 0.274972 -0.60745
O_ O_ 0.342675 0.206101 0.289079 -0.60745
Zn Zn 0.124063 0.246035 0.773693 0.9476
Zn Zn 0.375238 0.246504 0.789255 0.9476
Zn Zn 0.121101 0.248794 0.70692 0.9476
Zn Zn 0.377099 0.247853 0.719074 0.9476
H_ H_ 0.0393763 0.426065 0.677916 0.10932
H_ H_ 0.285652 0.407585 0.690007 0.10932
H_ H_ 0.0675567 0.355992 0.809658 0.10932
H_ H_ 0.318081 0.346238 0.823891 0.10932
H_ H_ 0.0650547 0.358281 0.675085 0.10932
H_ H_ 0.311405 0.34179 0.690786 0.10932
H_ H_ 0.0412013 0.423013 0.812037 0.10932
H_ H_ 0.292753 0.413524 0.823403 0.10932
H_ H_ 0.222506 0.407045 0.814165 0.10932
H_ H_ 0.467586 0.41624 0.82299 0.10932
H_ H_ 0.186785 0.346792 0.678744 0.10932
H_ H_ 0.434081 0.352224 0.688081 0.10932
H_ H_ 0.185276 0.347903 0.814727 0.10932
H_ H_ 0.443677 0.348631 0.82295 0.10932
H_ H_ 0.21428 0.413424 0.678962 0.10932
H_ H_ 0.468208 0.416524 0.692619 0.10932
H_ H_ 0.207837 0.0796491 0.814144 0.10932
H_ H_ 0.466987 0.0769661 0.818061 0.10932
H_ H_ 0.191706 0.151637 0.678497 0.10932
H_ H_ 0.436999 0.145255 0.684876 0.10932
H_ H_ 0.181128 0.144982 0.813252 0.10932
H_ H_ 0.446211 0.150125 0.819283 0.10932
H_ H_ 0.213648 0.0839361 0.677906 0.10932
H_ H_ 0.458275 0.0749245 0.684081 0.10932
H_ H_ 0.0329663 0.0687621 0.680235 0.10932
H_ H_ 0.276284 0.093731 0.678607 0.10932
H_ H_ 0.0602792 0.148023 0.807314 0.10932
H_ H_ 0.320546 0.140608 0.815879 0.10932
H_ H_ 0.064351 0.132809 0.67311 0.10932
H_ H_ 0.297844 0.163474 0.686787 0.10932
H_ H_ 0.0248536 0.0918854 0.811127 0.10932
H_ H_ 0.284777 0.0813434 0.813309 0.10932
H_ H_ 0.121749 0.30951 0.852435 0.10932
H_ H_ 0.368637 0.304357 0.857798 0.10932
H_ H_ 0.110787 0.180056 0.846756 0.10932
H_ H_ 0.388237 0.178194 0.863719 0.10932
H_ H_ 0.108177 0.18035 0.924616 0.10932
H_ H_ 0.384765 0.18001 0.942085 0.10932
H_ H_ 0.124183 0.308539 0.932242 0.10932
H_ H_ 0.364107 0.310969 0.930324 0.10932
H_ H_ 0.119329 0.182624 0.637198 0.10932
H_ H_ 0.369581 0.188406 0.633016 0.10932
H_ H_ 0.120194 0.310782 0.628964 0.10932
H_ H_ 0.381901 0.315507 0.651812 0.10932
H_ H_ 0.11168 0.308381 0.550518 0.10932
H_ H_ 0.386682 0.32696 0.571172 0.10932
H_ H_ 0.115068 0.175583 0.558686 0.10932
H_ H_ 0.374256 0.194403 0.557987 0.10932
C_ C_ 0.0672196 0.348524 0.742056 -0.02249
C_ C_ 0.314893 0.337994 0.7561 -0.02249
C_ C_ 0.0159147 0.463684 0.747479 -0.02249
C_ C_ 0.268596 0.455674 0.755594 -0.02249
C_ C_ 0.0440863 0.40838 0.70651 -0.11473
C_ C_ 0.290498 0.394804 0.718514 -0.11473
C_ C_ 0.062161 0.370312 0.779955 -0.11473
C_ C_ 0.310283 0.359919 0.794606 -0.11473
C_ C_ 0.059753 0.37065 0.704666 -0.11473
C_ C_ 0.305796 0.35647 0.717748 -0.11473
C_ C_ 0.0347894 0.425898 0.745361 -0.02249
C_ C_ 0.284249 0.414975 0.756249 -0.02249
C_ C_ 0.085922 0.311426 0.739108 0.6875
C_ C_ 0.333188 0.29833 0.757323 0.6875
C_ C_ 0.0470167 0.407567 0.781151 -0.11473
C_ C_ 0.295777 0.39892 0.793178 -0.11473
C_ C_ 0.180872 0.344231 0.746397 -0.02249
C_ C_ 0.431429 0.349572 0.755593 -0.02249
C_ C_ 0.236328 0.457283 0.750089 -0.02249
C_ C_ 0.481442 0.465587 0.756504 -0.02249
C_ C_ 0.211582 0.397013 0.786039 -0.11473
C_ C_ 0.457053 0.405098 0.794827 -0.11473
C_ C_ 0.191417 0.36303 0.70906 -0.11473
C_ C_ 0.439188 0.368006 0.717447 -0.11473
C_ C_ 0.192466 0.361024 0.785605 -0.11473
C_ C_ 0.443126 0.366733 0.79314 -0.11473
C_ C_ 0.215892 0.418526 0.748945 -0.02249
C_ C_ 0.462537 0.425337 0.757234 -0.02249
C_ C_ 0.159856 0.308627 0.746819 0.6875
C_ C_ 0.416426 0.307112 0.756289 0.6875
C_ C_ 0.206748 0.399601 0.709393 -0.11473
C_ C_ 0.457968 0.403471 0.719883 -0.11473
C_ C_ 0.183021 0.153372 0.746501 -0.02249
C_ C_ 0.436267 0.150534 0.752036 -0.02249
C_ C_ 0.229952 0.0372891 0.740979 -0.02249
C_ C_ 0.48605 0.0351378 0.751162 -0.02249
C_ C_ 0.201761 0.0940778 0.784676 -0.11473
C_ C_ 0.46133 0.0948351 0.788618 -0.11473
C_ C_ 0.193472 0.136513 0.708114 -0.11473
C_ C_ 0.442974 0.131438 0.714806 -0.11473
C_ C_ 0.18644 0.131776 0.784129 -0.11473
C_ C_ 0.444457 0.131388 0.790226 -0.11473
C_ C_ 0.211389 0.0768741 0.745147 -0.02249
C_ C_ 0.469883 0.075958 0.750765 -0.02249
C_ C_ 0.166206 0.1918 0.745637 0.6875
C_ C_ 0.415337 0.187304 0.752456 0.6875
C_ C_ 0.204747 0.097621 0.706781 -0.11473
C_ C_ 0.457175 0.0920176 0.713451 -0.11473
C_ C_ 0.0619687 0.148254 0.73944 -0.02249
C_ C_ 0.312511 0.155871 0.751492 -0.02249
C_ C_ 0.0140599 0.0323497 0.74827 -0.02249
C_ C_ 0.261976 0.0405692 0.741927 -0.02249
C_ C_ 0.0400281 0.0869059 0.706738 -0.11473
C_ C_ 0.282867 0.105331 0.709827 -0.11473
C_ C_ 0.0514633 0.132902 0.778392 -0.11473
C_ C_ 0.30841 0.131224 0.787326 -0.11473
C_ C_ 0.0538047 0.125351 0.702405 -0.11473
C_ C_ 0.298373 0.142322 0.713396 -0.11473
C_ C_ 0.030353 0.0727966 0.746017 -0.02249
C_ C_ 0.277284 0.0815699 0.744703 -0.02249
C_ C_ 0.0834868 0.183729 0.738862 0.6875
C_ C_ 0.332494 0.193605 0.751891 0.6875
C_ C_ 0.033243 0.0987609 0.78033 -0.11473
C_ C_ 0.290959 0.0944837 0.784214 -0.11473
C_ C_ 0.119979 0.279973 0.86749 0.17695
C_ C_ 0.373358 0.27948 0.876669 0.17695
C_ C_ 0.114275 0.207569 0.864159 0.17695
C_ C_ 0.382637 0.207559 0.880467 0.17695
C_ C_ 0.114438 0.20706 0.909409 -0.11473
C_ C_ 0.380829 0.207892 0.925166 -0.11473
C_ C_ 0.114369 0.243228 0.933158 0.23465
C_ C_ 0.373288 0.245546 0.944954 0.23465
C_ C_ 0.118248 0.281042 0.912774 -0.11473
C_ C_ 0.368591 0.280581 0.918975 -0.11473
C_ C_ 0.118189 0.209466 0.618383 0.17695
C_ C_ 0.375444 0.2181 0.619161 0.17695
C_ C_ 0.11815 0.280433 0.614457 0.17695
C_ C_ 0.383406 0.28834 0.630649 0.17695
C_ C_ 0.112683 0.279863 0.569799 -0.11473
C_ C_ 0.383979 0.295545 0.587036 -0.11473
C_ C_ 0.117228 0.242244 0.548753 0.23465
C_ C_ 0.380933 0.262245 0.559584 0.23465
C_ C_ 0.117587 0.205506 0.573333 -0.11473
C_ C_ 0.376962 0.222918 0.576556 -0.11473
C_ C_ 0.0300232 0.503473 0.744065 0.05793
C_ C_ 0.285831 0.4922 0.753738 0.05793
C_ C_ 0.215897 -0.0017519999999999758 0.739913 0.05793
C_ C_ 0.468658 0.999892 0.746092 0.05793
Br Br 0.0723524 0.509523 0.742051 -0.17191
Br Br 0.328193 0.488085 0.765315 -0.17191
Br Br 0.173025 -0.0050480000000000524 0.730925 -0.17191
Br Br 0.425056 1.00379183 0.743899 -0.17191
N_ N_ 0.121688 0.243502 0.845257 -0.272
N_ N_ 0.376421 0.24211 0.857951 -0.272
N_ N_ 0.113357 0.240107 0.978626 -0.12501
N_ N_ 0.362753 0.244904 0.986609 -0.12501
N_ N_ 0.120214 0.245869 0.637392 -0.272
N_ N_ 0.374616 0.25066 0.644927 -0.272
N_ N_ 0.11909 0.237834 0.503333 -0.12501
N_ N_ 0.384463 0.270514 0.513877 -0.12501
O_ O_ 0.0905694 0.294183 0.704961 -0.60745
O_ O_ 0.344628 0.284387 0.725091 -0.60745
O_ O_ 0.0944206 0.29318 0.773207 -0.60745
O_ O_ 0.342009 0.285189 0.793112 -0.60745
O_ O_ 0.15496 0.288628 0.780961 -0.60745
O_ O_ 0.407044 0.293815 0.78946 -0.60745
O_ O_ 0.150191 0.295614 0.711494 -0.60745
O_ O_ 0.40929 0.290572 0.723199 -0.60745
O_ O_ 0.15985 0.209198 0.779953 -0.60745
O_ O_ 0.403973 0.198862 0.787033 -0.60745
O_ O_ 0.1508 0.201044 0.711234 -0.60745
O_ O_ 0.409598 0.206964 0.719587 -0.60745
O_ O_ 0.0911946 0.201541 0.705739 -0.60745
O_ O_ 0.345293 0.205379 0.718545 -0.60745
O_ O_ 0.093343 0.19899 0.774362 -0.60745
O_ O_ 0.342947 0.20384 0.787828 -0.60745
Zn Zn 0.125012 0.752815 0.281964 0.9476
Zn Zn 0.376247 0.748874 0.286829 0.9476
Zn Zn 0.128417 0.753435 0.213054 0.9476
Zn Zn 0.372709 0.753234 0.216806 0.9476
H_ H_ 0.0265053 0.908381 0.172081 0.10932
H_ H_ 0.279609 0.917754 0.184977 0.10932
H_ H_ 0.0690277 0.862118 0.308185 0.10932
H_ H_ 0.322711 0.862946 0.319107 0.10932
H_ H_ 0.0563397 0.844637 0.176504 0.10932
H_ H_ 0.312629 0.859811 0.183641 0.10932
H_ H_ 0.035507 0.921694 0.307298 0.10932
H_ H_ 0.290672 0.925046 0.320195 0.10932
H_ H_ 0.224434 0.910698 0.320108 0.10932
H_ H_ 0.484744 0.906086 0.314013 0.10932
H_ H_ 0.175582 0.864269 0.18823 0.10932
H_ H_ 0.417234 0.874057 0.190453 0.10932
H_ H_ 0.198747 0.842261 0.314711 0.10932
H_ H_ 0.453833 0.845414 0.316254 0.10932
H_ H_ 0.199666 0.932863 0.191931 0.10932
H_ H_ 0.446603 0.93976 0.19492 0.10932
H_ H_ 0.202688 0.576193 0.31006 0.10932
H_ H_ 0.456907 0.573479 0.320132 0.10932
H_ H_ 0.206107 0.666604 0.185618 0.10932
H_ H_ 0.442981 0.656593 0.189439 0.10932
H_ H_ 0.185176 0.647889 0.31228 0.10932
H_ H_ 0.429064 0.642262 0.320071 0.10932
H_ H_ 0.22161 0.595353 0.181369 0.10932
H_ H_ 0.470956 0.589636 0.188421 0.10932
H_ H_ 0.0416174 0.577963 0.1761 0.10932
H_ H_ 0.280708 0.58291 0.181918 0.10932
H_ H_ 0.0554579 0.659005 0.307195 0.10932
H_ H_ 0.31697 0.646446 0.314794 0.10932
H_ H_ 0.0753775 0.639542 0.178135 0.10932
H_ H_ 0.307367 0.649031 0.177351 0.10932
H_ H_ 0.0289762 0.595317 0.312 0.10932
H_ H_ 0.289238 0.581048 0.317257 0.10932
H_ H_ 0.115644 0.817539 0.349519 0.10932
H_ H_ 0.375031 0.812271 0.359473 0.10932
H_ H_ 0.13167 0.686389 0.358589 0.10932
H_ H_ 0.370046 0.681029 0.359771 0.10932
H_ H_ 0.122795 0.689219 0.436812 0.10932
H_ H_ 0.36841 0.679598 0.437638 0.10932
H_ H_ 0.116652 0.824295 0.426342 0.10932
H_ H_ 0.377677 0.814982 0.437032 0.10932
H_ H_ 0.136157 0.687565 0.135569 0.10932
H_ H_ 0.377744 0.690443 0.149377 0.10932
H_ H_ 0.121578 0.818572 0.141285 0.10932
H_ H_ 0.363522 0.81995 0.13826 0.10932
H_ H_ 0.132801 0.823938 0.0647192 0.10932
H_ H_ 0.375396 0.813164 0.0640307 0.10932
H_ H_ 0.140532 0.691516 0.0618991 0.10932
H_ H_ 0.389631 0.686678 0.0731498 0.10932
C_ C_ 0.0636021 0.847127 0.242647 -0.02249
C_ C_ 0.318545 0.853723 0.251844 -0.02249
C_ C_ 0.0154423 0.96184 0.236482 -0.02249
C_ C_ 0.265479 0.966333 0.255343 -0.02249
C_ C_ 0.0357175 0.899139 0.202153 -0.11473
C_ C_ 0.291731 0.909618 0.214366 -0.11473
C_ C_ 0.0564691 0.867652 0.280746 -0.11473
C_ C_ 0.311986 0.873384 0.289831 -0.11473
C_ C_ 0.0534402 0.863793 0.204669 -0.11473
C_ C_ 0.308338 0.872709 0.214044 -0.11473
C_ C_ 0.0305734 0.922827 0.238513 -0.02249
C_ C_ 0.282096 0.927304 0.252764 -0.02249
C_ C_ 0.0871556 0.813792 0.244087 0.6875
C_ C_ 0.336958 0.814531 0.24984 0.6875
C_ C_ 0.0382206 0.904525 0.278149 -0.11473
C_ C_ 0.296547 0.911299 0.290323 -0.11473
C_ C_ 0.186148 0.849189 0.250801 -0.02249
C_ C_ 0.435921 0.849792 0.252276 -0.02249
C_ C_ 0.233223 0.967063 0.255325 -0.02249
C_ C_ 0.486282 0.965306 0.253117 -0.02249
C_ C_ 0.215509 0.900218 0.291017 -0.11473
C_ C_ 0.472495 0.897449 0.286412 -0.11473
C_ C_ 0.186694 0.87598 0.216271 -0.11473
C_ C_ 0.431897 0.879129 0.219268 -0.11473
C_ C_ 0.200575 0.861408 0.288436 -0.11473
C_ C_ 0.454266 0.860887 0.288017 -0.11473
C_ C_ 0.216983 0.925658 0.25462 -0.02249
C_ C_ 0.467889 0.927102 0.254274 -0.02249
C_ C_ 0.163702 0.814685 0.249392 0.6875
C_ C_ 0.414342 0.812986 0.252524 0.6875
C_ C_ 0.201189 0.913136 0.217838 -0.11473
C_ C_ 0.449993 0.915944 0.219883 -0.11473
C_ C_ 0.190309 0.66062 0.249085 -0.02249
C_ C_ 0.435527 0.655411 0.254996 -0.02249
C_ C_ 0.231525 0.539799 0.246555 -0.02249
C_ C_ 0.483201 0.537659 0.252427 -0.02249
C_ C_ 0.203027 0.595253 0.282885 -0.11473
C_ C_ 0.455748 0.59343 0.292487 -0.11473
C_ C_ 0.204684 0.645538 0.212322 -0.11473
C_ C_ 0.447657 0.639537 0.218286 -0.11473
C_ C_ 0.191551 0.635327 0.283658 -0.11473
C_ C_ 0.440592 0.632893 0.292269 -0.11473
C_ C_ 0.214833 0.581505 0.245535 -0.02249
C_ C_ 0.467093 0.578408 0.254407 -0.02249
C_ C_ 0.168883 0.696412 0.249422 0.6875
C_ C_ 0.41423 0.691291 0.255176 0.6875
C_ C_ 0.212438 0.603815 0.210027 -0.11473
C_ C_ 0.464598 0.603133 0.21794 -0.11473
C_ C_ 0.0682973 0.653247 0.243603 -0.02249
C_ C_ 0.314179 0.653311 0.247296 -0.02249
C_ C_ 0.0156623 0.542656 0.244869 -0.02249
C_ C_ 0.264697 0.541302 0.247418 -0.02249
C_ C_ 0.0492083 0.591409 0.207209 -0.11473
C_ C_ 0.28599 0.600016 0.210646 -0.11473
C_ C_ 0.0580626 0.639182 0.282476 -0.11473
C_ C_ 0.309628 0.631293 0.285976 -0.11473
C_ C_ 0.0657728 0.628932 0.207944 -0.11473
C_ C_ 0.301635 0.637885 0.208873 -0.11473
C_ C_ 0.0357815 0.579667 0.244908 -0.02249
C_ C_ 0.281361 0.580272 0.248675 -0.02249
C_ C_ 0.0895987 0.690698 0.244246 0.6875
C_ C_ 0.334228 0.691774 0.248657 0.6875
C_ C_ 0.0405271 0.601996 0.282657 -0.11473
C_ C_ 0.291358 0.596396 0.286184 -0.11473
C_ C_ 0.116601 0.788823 0.371036 0.17695
C_ C_ 0.375206 0.783892 0.377424 0.17695
C_ C_ 0.126237 0.715285 0.374462 0.17695
C_ C_ 0.371516 0.709916 0.377408 0.17695
C_ C_ 0.120717 0.717282 0.419044 -0.11473
C_ C_ 0.371814 0.710196 0.422702 -0.11473
C_ C_ 0.117044 0.756263 0.438861 0.23465
C_ C_ 0.375673 0.748578 0.444995 0.23465
C_ C_ 0.115703 0.792182 0.413716 -0.11473
C_ C_ 0.376206 0.784641 0.421687 -0.11473
C_ C_ 0.13613 0.718589 0.122446 0.17695
C_ C_ 0.379306 0.718126 0.131329 0.17695
C_ C_ 0.129215 0.791758 0.124041 0.17695
C_ C_ 0.367738 0.78825 0.124127 0.17695
C_ C_ 0.131153 0.793715 0.0795213 -0.11473
C_ C_ 0.374265 0.786469 0.0821005 -0.11473
C_ C_ 0.134702 0.757452 0.0572178 0.23465
C_ C_ 0.381825 0.749533 0.062124 0.23465
C_ C_ 0.136562 0.720605 0.0791578 -0.11473
C_ C_ 0.384866 0.71572 0.0875697 -0.11473
C_ C_ 0.0326823 0.998819 0.24232 0.05793
C_ C_ 0.280184 1.0045584 0.248502 0.05793
C_ C_ 0.217857 0.499123 0.241055 0.05793
C_ C_ 0.46729 0.499153 0.252229 0.05793
Br Br 0.0748694 -0.0023100000000000342 0.237447 -0.17191
Br Br 0.32345 1.00511539 0.23253 -0.17191
Br Br 0.173482 0.496048 0.236402 -0.17191
Br Br 0.424912 0.502358 0.247355 -0.17191
N_ N_ 0.122941 0.752217 0.351482 -0.272
N_ N_ 0.374932 0.746598 0.356444 -0.272
N_ N_ 0.113441 0.759377 0.482703 -0.12501
N_ N_ 0.37258 0.754751 0.489416 -0.12501
N_ N_ 0.129718 0.754272 0.143125 -0.272
N_ N_ 0.371783 0.754201 0.14788 -0.272
N_ N_ 0.132832 0.761783 0.0115624 -0.12501
N_ N_ 0.384908 0.743325 0.0171599 -0.12501
O_ O_ 0.0976286 0.798796 0.210513 -0.60745
O_ O_ 0.343655 0.798815 0.215474 -0.60745
O_ O_ 0.0915652 0.794373 0.277078 -0.60745
O_ O_ 0.342167 0.792872 0.283358 -0.60745
O_ O_ 0.156481 0.796506 0.283076 -0.60745
O_ O_ 0.407786 0.796766 0.287296 -0.60745
O_ O_ 0.155752 0.797904 0.214762 -0.60745
O_ O_ 0.401382 0.800777 0.219061 -0.60745
O_ O_ 0.154945 0.707565 0.281812 -0.60745
O_ O_ 0.405176 0.704381 0.289718 -0.60745
O_ O_ 0.16152 0.710728 0.213077 -0.60745
O_ O_ 0.406807 0.710225 0.222853 -0.60745
O_ O_ 0.0984383 0.707618 0.210742 -0.60745
O_ O_ 0.343673 0.704868 0.214604 -0.60745
O_ O_ 0.0936345 0.709506 0.278245 -0.60745
O_ O_ 0.344551 0.707032 0.282011 -0.60745
Zn Zn 0.12691 0.746449 0.785013 0.9476
Zn Zn 0.372783 0.749317 0.787434 0.9476
Zn Zn 0.128422 0.746462 0.711187 0.9476
Zn Zn 0.376749 0.746864 0.719238 0.9476
H_ H_ 0.0415573 0.923595 0.686776 0.10932
H_ H_ 0.296877 0.915767 0.677017 0.10932
H_ H_ 0.055024 0.834825 0.812046 0.10932
H_ H_ 0.308415 0.855613 0.818377 0.10932
H_ H_ 0.0711614 0.858433 0.683547 0.10932
H_ H_ 0.315452 0.844604 0.68593 0.10932
H_ H_ 0.0230238 0.899285 0.8155 0.10932
H_ H_ 0.280412 0.920869 0.806846 0.10932
H_ H_ 0.213367 0.920618 0.805553 0.10932
H_ H_ 0.452453 0.930745 0.812424 0.10932
H_ H_ 0.186255 0.84911 0.673522 0.10932
H_ H_ 0.449893 0.836839 0.686609 0.10932
H_ H_ 0.194706 0.848507 0.812954 0.10932
H_ H_ 0.42281 0.868191 0.815975 0.10932
H_ H_ 0.218812 0.909644 0.675698 0.10932
H_ H_ 0.474444 0.904628 0.687196 0.10932
H_ H_ 0.224412 0.582849 0.812168 0.10932
H_ H_ 0.458727 0.582127 0.818817 0.10932
H_ H_ 0.192731 0.646782 0.677587 0.10932
H_ H_ 0.447405 0.660873 0.689054 0.10932
H_ H_ 0.194652 0.645441 0.814518 0.10932
H_ H_ 0.432706 0.649254 0.820229 0.10932
H_ H_ 0.217995 0.579865 0.675077 0.10932
H_ H_ 0.476121 0.59305 0.687555 0.10932
H_ H_ 0.0311538 0.582649 0.679326 0.10932
H_ H_ 0.284967 0.580829 0.684134 0.10932
H_ H_ 0.0614254 0.645058 0.815617 0.10932
H_ H_ 0.313479 0.643 0.821335 0.10932
H_ H_ 0.0558821 0.649874 0.678742 0.10932
H_ H_ 0.310573 0.645018 0.685787 0.10932
H_ H_ 0.0333748 0.581571 0.811056 0.10932
H_ H_ 0.294365 0.571646 0.819454 0.10932
H_ H_ 0.135182 0.810612 0.866668 0.10932
H_ H_ 0.372312 0.823986 0.856857 0.10932
H_ H_ 0.128255 0.679378 0.850965 0.10932
H_ H_ 0.377547 0.6922 0.870638 0.10932
H_ H_ 0.137187 0.67223 0.929327 0.10932
H_ H_ 0.380464 0.698614 0.948487 0.10932
H_ H_ 0.14428 0.80263 0.945507 0.10932
H_ H_ 0.376615 0.829767 0.935843 0.10932
H_ H_ 0.173299 0.731884 0.638374 0.10932
H_ H_ 0.382659 0.676439 0.650383 0.10932
H_ H_ 0.0841227 0.771801 0.633796 0.10932
H_ H_ 0.359199 0.80418 0.637528 0.10932
H_ H_ 0.0817701 0.756823 0.554526 0.10932
H_ H_ 0.356612 0.795819 0.561288 0.10932
H_ H_ 0.174625 0.722545 0.557848 0.10932
H_ H_ 0.378664 0.667105 0.573532 0.10932
C_ C_ 0.0686321 0.844767 0.749815 -0.02249
C_ C_ 0.31396 0.843991 0.752542 -0.02249
C_ C_ 0.0144274 0.955151 0.751997 -0.02249
C_ C_ 0.265351 0.96418 0.736198 -0.02249
C_ C_ 0.0447907 0.90413 0.714667 -0.11473
C_ C_ 0.297104 0.902696 0.707454 -0.11473
C_ C_ 0.052008 0.854394 0.784888 -0.11473
C_ C_ 0.303975 0.866126 0.787389 -0.11473
C_ C_ 0.0619202 0.867368 0.712224 -0.11473
C_ C_ 0.310248 0.863339 0.71343 -0.11473
C_ C_ 0.0305489 0.914414 0.752069 -0.02249
C_ C_ 0.285354 0.924478 0.74128 -0.02249
C_ C_ 0.090004 0.808672 0.749828 0.6875
C_ C_ 0.332336 0.806323 0.757527 0.6875
C_ C_ 0.0337527 0.889556 0.787536 -0.11473
C_ C_ 0.288742 0.904843 0.781263 -0.11473
C_ C_ 0.185489 0.844698 0.74401 -0.02249
C_ C_ 0.430983 0.849148 0.751316 -0.02249
C_ C_ 0.233063 0.962048 0.738713 -0.02249
C_ C_ 0.481653 0.959788 0.746409 -0.02249
C_ C_ 0.209393 0.903243 0.778586 -0.11473
C_ C_ 0.450348 0.909905 0.785428 -0.11473
C_ C_ 0.195103 0.860296 0.704619 -0.11473
C_ C_ 0.44802 0.857662 0.71527 -0.11473
C_ C_ 0.19744 0.863603 0.781208 -0.11473
C_ C_ 0.434861 0.874347 0.787271 -0.11473
C_ C_ 0.217604 0.921088 0.740708 -0.02249
C_ C_ 0.463905 0.922297 0.749321 -0.02249
C_ C_ 0.169895 0.804085 0.745926 0.6875
C_ C_ 0.410571 0.810741 0.749686 0.6875
C_ C_ 0.212629 0.897926 0.703589 -0.11473
C_ C_ 0.463359 0.895319 0.714454 -0.11473
C_ C_ 0.189188 0.648112 0.74467 -0.02249
C_ C_ 0.438618 0.659716 0.7541 -0.02249
C_ C_ 0.237943 0.53301 0.745901 -0.02249
C_ C_ 0.482207 0.540992 0.750761 -0.02249
C_ C_ 0.215921 0.593873 0.783273 -0.11473
C_ C_ 0.454505 0.597795 0.788792 -0.11473
C_ C_ 0.19771 0.629701 0.707153 -0.11473
C_ C_ 0.449646 0.643021 0.716079 -0.11473
C_ C_ 0.199274 0.631872 0.784303 -0.11473
C_ C_ 0.441985 0.637533 0.79119 -0.11473
C_ C_ 0.223554 0.574868 0.744609 -0.02249
C_ C_ 0.467972 0.583174 0.7526 -0.02249
C_ C_ 0.170989 0.687754 0.744467 0.6875
C_ C_ 0.416561 0.692751 0.753527 0.6875
C_ C_ 0.212986 0.592608 0.706273 -0.11473
C_ C_ 0.464085 0.603931 0.714326 -0.11473
C_ C_ 0.0610587 0.654931 0.746003 -0.02249
C_ C_ 0.320966 0.644031 0.753713 -0.02249
C_ C_ 0.0120588 0.538837 0.746768 -0.02249
C_ C_ 0.269818 0.53063 0.752024 -0.02249
C_ C_ 0.0354446 0.597835 0.70762 -0.11473
C_ C_ 0.296188 0.58983 0.713697 -0.11473
C_ C_ 0.0544459 0.63416 0.78489 -0.11473
C_ C_ 0.312939 0.625651 0.790821 -0.11473
C_ C_ 0.0485732 0.639255 0.708789 -0.11473
C_ C_ 0.314127 0.625335 0.714801 -0.11473
C_ C_ 0.0282952 0.579357 0.745889 -0.02249
C_ C_ 0.28751 0.569297 0.752048 -0.02249
C_ C_ 0.0840924 0.688837 0.747849 0.6875
C_ C_ 0.338859 0.683641 0.755434 0.6875
C_ C_ 0.0360169 0.600014 0.783086 -0.11473
C_ C_ 0.297983 0.587701 0.790558 -0.11473
C_ C_ 0.139064 0.779703 0.880606 0.17695
C_ C_ 0.372494 0.796078 0.876987 0.17695
C_ C_ 0.133 0.706861 0.872561 0.17695
C_ C_ 0.377844 0.72247 0.883087 0.17695
C_ C_ 0.13616 0.702458 0.917675 -0.11473
C_ C_ 0.379439 0.726781 0.926879 -0.11473
C_ C_ 0.139941 0.736094 0.943361 0.23465
C_ C_ 0.376239 0.766388 0.946282 0.23465
C_ C_ 0.144718 0.775552 0.925034 -0.11473
C_ C_ 0.374772 0.800459 0.920011 -0.11473
C_ C_ 0.154019 0.737859 0.617729 0.17695
C_ C_ 0.382088 0.703542 0.631069 0.17695
C_ C_ 0.1032 0.756361 0.6164 0.17695
C_ C_ 0.366217 0.774243 0.622887 0.17695
C_ C_ 0.103148 0.753161 0.572465 -0.11473
C_ C_ 0.365143 0.769439 0.579136 -0.11473
C_ C_ 0.129507 0.741111 0.551685 0.23465
C_ C_ 0.372211 0.731524 0.559105 0.23465
C_ C_ 0.155454 0.733656 0.574257 -0.11473
C_ C_ 0.37871 0.698713 0.586164 -0.11473
C_ C_ 0.0299806 -0.005252999999999952 0.749446 0.05793
C_ C_ 0.278774 0.0038577 0.7328 0.05793
C_ C_ 0.220927 0.496355 0.744584 0.05793
C_ C_ 0.466275 0.503079 0.752334 0.05793
Br Br 0.071212 -0.004657000000000022 0.769549 -0.17191
Br Br 0.322416 0.00753129 0.73419 -0.17191
Br Br 0.17791 0.49994 0.735827 -0.17191
Br Br 0.422303 0.507514 0.753752 -0.17191
N_ N_ 0.134452 0.74616 0.855872 -0.272
N_ N_ 0.375764 0.757609 0.859307 -0.272
N_ N_ 0.139011 0.73194 0.987772 -0.12501
N_ N_ 0.380553 0.772273 0.991612 -0.12501
N_ N_ 0.128259 0.745618 0.638322 -0.272
N_ N_ 0.375 0.741608 0.647007 -0.272
N_ N_ 0.130692 0.738932 0.506524 -0.12501
N_ N_ 0.373707 0.725676 0.514859 -0.12501
O_ O_ 0.0962406 0.789803 0.716247 -0.60745
O_ O_ 0.340896 0.785436 0.726829 -0.60745
O_ O_ 0.0986826 0.793164 0.784117 -0.60745
O_ O_ 0.340451 0.792588 0.792723 -0.60745
O_ O_ 0.161288 0.788181 0.779538 -0.60745
O_ O_ 0.404382 0.793019 0.782808 -0.60745
O_ O_ 0.161448 0.788248 0.712726 -0.60745
O_ O_ 0.401827 0.795735 0.714861 -0.60745
O_ O_ 0.156111 0.696865 0.777418 -0.60745
O_ O_ 0.403167 0.704697 0.785537 -0.60745
O_ O_ 0.162915 0.704537 0.71014 -0.60745
O_ O_ 0.408934 0.706483 0.71782 -0.60745
O_ O_ 0.0978804 0.698513 0.714359 -0.60745
O_ O_ 0.348369 0.699839 0.721124 -0.60745
O_ O_ 0.0910647 0.706712 0.782336 -0.60745
O_ O_ 0.342977 0.699767 0.791268 -0.60745
Zn Zn 0.626505 0.252385 0.294132 0.9476
Zn Zn 0.87529 0.251907 0.288877 0.9476
Zn Zn 0.627453 0.250904 0.221307 0.9476
Zn Zn 0.876316 0.253618 0.217046 0.9476
H_ H_ 0.544597 0.424794 0.195843 0.10932
H_ H_ 0.802174 0.433144 0.197465 0.10932
H_ H_ 0.555133 0.344555 0.326407 0.10932
H_ H_ 0.800881 0.343644 0.322274 0.10932
H_ H_ 0.573028 0.363435 0.193424 0.10932
H_ H_ 0.82003 0.360662 0.193405 0.10932
H_ H_ 0.526806 0.409008 0.327796 0.10932
H_ H_ 0.775271 0.413424 0.319654 0.10932
H_ H_ 0.711492 0.430264 0.316363 0.10932
H_ H_ 0.971336 0.419985 0.318256 0.10932
H_ H_ 0.699925 0.337084 0.197428 0.10932
H_ H_ 0.930747 0.359069 0.186937 0.10932
H_ H_ 0.679195 0.36954 0.322633 0.10932
H_ H_ 0.94153 0.355544 0.31992 0.10932
H_ H_ 0.727278 0.402358 0.187106 0.10932
H_ H_ 0.960673 0.424439 0.183386 0.10932
H_ H_ 0.699372 0.0654174 0.318363 0.10932
H_ H_ 0.974079 0.0913304 0.307884 0.10932
H_ H_ 0.707668 0.163974 0.197527 0.10932
H_ H_ 0.936659 0.152263 0.173329 0.10932
H_ H_ 0.669266 0.135888 0.317065 0.10932
H_ H_ 0.947489 0.158657 0.308551 0.10932
H_ H_ 0.733584 0.0974466 0.199459 0.10932
H_ H_ 0.962376 0.0862448 0.173129 0.10932
H_ H_ 0.529593 0.0976372 0.180595 0.10932
H_ H_ 0.796991 0.0661642 0.193413 0.10932
H_ H_ 0.58381 0.135794 0.312893 0.10932
H_ H_ 0.804591 0.158006 0.316629 0.10932
H_ H_ 0.558336 0.160275 0.183202 0.10932
H_ H_ 0.828522 0.129006 0.187649 0.10932
H_ H_ 0.551978 0.0727394 0.309589 0.10932
H_ H_ 0.776243 0.0933107 0.32052 0.10932
H_ H_ 0.613614 0.187563 0.361931 0.10932
H_ H_ 0.896784 0.184612 0.36006 0.10932
H_ H_ 0.644735 0.311862 0.370309 0.10932
H_ H_ 0.865973 0.309509 0.364149 0.10932
H_ H_ 0.635399 0.307058 0.450662 0.10932
H_ H_ 0.855609 0.299575 0.442637 0.10932
H_ H_ 0.619004 0.178928 0.438506 0.10932
H_ H_ 0.889253 0.174786 0.437403 0.10932
H_ H_ 0.614102 0.198941 0.140969 0.10932
H_ H_ 0.827617 0.238356 0.143381 0.10932
H_ H_ 0.648803 0.321413 0.150418 0.10932
H_ H_ 0.91602 0.283749 0.141872 0.10932
H_ H_ 0.651417 0.326634 0.0729596 0.10932
H_ H_ 0.9157 0.280514 0.0616233 0.10932
H_ H_ 0.623552 0.203056 0.0617345 0.10932
H_ H_ 0.82819 0.223868 0.0691201 0.10932
C_ C_ 0.566238 0.346765 0.26018 -0.02249
C_ C_ 0.816133 0.349885 0.257207 -0.02249
C_ C_ 0.514791 0.460568 0.262121 -0.02249
C_ C_ 0.765404 0.464144 0.255253 -0.02249
C_ C_ 0.546597 0.407002 0.224759 -0.11473
C_ C_ 0.797961 0.411091 0.221795 -0.11473
C_ C_ 0.554843 0.362476 0.297636 -0.11473
C_ C_ 0.803762 0.365194 0.294563 -0.11473
C_ C_ 0.56077 0.369834 0.222284 -0.11473
C_ C_ 0.811387 0.372547 0.222075 -0.11473
C_ C_ 0.532804 0.42122 0.261775 -0.02249
C_ C_ 0.782078 0.423554 0.25543 -0.02249
C_ C_ 0.586598 0.31192 0.260294 0.6875
C_ C_ 0.835288 0.311261 0.25595 0.6875
C_ C_ 0.537499 0.397957 0.298636 -0.11473
C_ C_ 0.785742 0.400701 0.292538 -0.11473
C_ C_ 0.685759 0.349715 0.258378 -0.02249
C_ C_ 0.934927 0.351647 0.254072 -0.02249
C_ C_ 0.734257 0.464004 0.246646 -0.02249
C_ C_ 0.981758 0.467753 0.249764 -0.02249
C_ C_ 0.705269 0.411872 0.288559 -0.11473
C_ C_ 0.962488 0.407222 0.28885 -0.11473
C_ C_ 0.697721 0.360701 0.219805 -0.11473
C_ C_ 0.939015 0.372663 0.215828 -0.11473
C_ C_ 0.689941 0.375353 0.292974 -0.11473
C_ C_ 0.947837 0.368847 0.291036 -0.11473
C_ C_ 0.715099 0.42524 0.247087 -0.02249
C_ C_ 0.964367 0.429161 0.250978 -0.02249
C_ C_ 0.666369 0.311902 0.260655 0.6875
C_ C_ 0.914245 0.314035 0.256628 0.6875
C_ C_ 0.713331 0.397463 0.214906 -0.11473
C_ C_ 0.953559 0.412008 0.213111 -0.11473
C_ C_ 0.681444 0.151159 0.255129 -0.02249
C_ C_ 0.93581 0.155876 0.241808 -0.02249
C_ C_ 0.734594 0.0379766 0.252779 -0.02249
C_ C_ 0.985197 0.0404484 0.238124 -0.02249
C_ C_ 0.699081 0.0876948 0.289828 -0.11473
C_ C_ 0.964335 0.103128 0.278518 -0.11473
C_ C_ 0.700206 0.141586 0.220514 -0.11473
C_ C_ 0.945733 0.139865 0.203037 -0.11473
C_ C_ 0.681212 0.124856 0.28931 -0.11473
C_ C_ 0.949162 0.141024 0.279368 -0.11473
C_ C_ 0.716201 0.0770901 0.253646 -0.02249
C_ C_ 0.968382 0.0814417 0.241204 -0.02249
C_ C_ 0.665218 0.191349 0.255409 0.6875
C_ C_ 0.91812 0.196569 0.243928 0.6875
C_ C_ 0.716237 0.103703 0.22004 -0.11473
C_ C_ 0.960702 0.102335 0.203941 -0.11473
C_ C_ 0.569945 0.15518 0.249889 -0.02249
C_ C_ 0.819341 0.150393 0.252012 -0.02249
C_ C_ 0.519856 0.0394972 0.248124 -0.02249
C_ C_ 0.766533 0.0391806 0.259977 -0.02249
C_ C_ 0.537771 0.105858 0.211194 -0.11473
C_ C_ 0.795038 0.0905182 0.21645 -0.11473
C_ C_ 0.571008 0.127782 0.283305 -0.11473
C_ C_ 0.803111 0.140307 0.288807 -0.11473
C_ C_ 0.554737 0.143282 0.212862 -0.11473
C_ C_ 0.816103 0.122415 0.217275 -0.11473
C_ C_ 0.537589 0.0797595 0.246726 -0.02249
C_ C_ 0.781075 0.0795795 0.254448 -0.02249
C_ C_ 0.585083 0.196778 0.252234 0.6875
C_ C_ 0.839712 0.188519 0.252109 0.6875
C_ C_ 0.554315 0.0903651 0.281551 -0.11473
C_ C_ 0.783264 0.10703 0.289665 -0.11473
C_ C_ 0.62249 0.212249 0.380408 0.17695
C_ C_ 0.88859 0.210934 0.376944 0.17695
C_ C_ 0.634289 0.283251 0.387281 0.17695
C_ C_ 0.870575 0.280205 0.380685 0.17695
C_ C_ 0.632078 0.279959 0.432139 -0.11473
C_ C_ 0.867843 0.277326 0.424569 -0.11473
C_ C_ 0.624103 0.241487 0.44928 0.23465
C_ C_ 0.879106 0.240604 0.444022 0.23465
C_ C_ 0.619885 0.207772 0.422728 -0.11473
C_ C_ 0.886591 0.206816 0.420409 -0.11473
C_ C_ 0.623037 0.225883 0.126318 0.17695
C_ C_ 0.848104 0.244386 0.126669 0.17695
C_ C_ 0.641477 0.295719 0.132327 0.17695
C_ C_ 0.897898 0.269554 0.123909 0.17695
C_ C_ 0.642137 0.299268 0.0878841 -0.11473
C_ C_ 0.897171 0.267377 0.0785437 -0.11473
C_ C_ 0.632513 0.266722 0.0632565 0.23465
C_ C_ 0.87079 0.255028 0.0583426 0.23465
C_ C_ 0.627113 0.228612 0.0825809 -0.11473
C_ C_ 0.845444 0.24233 0.0831152 -0.11473
C_ C_ 0.531233 0.497727 0.257179 0.05793
C_ C_ 0.781013 0.501829 0.257647 0.05793
C_ C_ 0.719139 1.00104 0.251331 0.05793
C_ C_ 0.968574 1.00279359 0.235559 0.05793
Br Br 0.57441 0.496622 0.262475 -0.17191
Br Br 0.821355 0.503901 0.278915 -0.17191
Br Br 0.676225 -0.0015600000000000058 0.244828 -0.17191
Br Br 0.926469 0.00531577 0.230014 -0.17191
N_ N_ 0.627224 0.250051 0.362484 -0.272
N_ N_ 0.882011 0.247949 0.358043 -0.272
N_ N_ 0.621729 0.236272 0.495245 -0.12501
N_ N_ 0.873935 0.237301 0.48766 -0.12501
N_ N_ 0.63043 0.258916 0.151001 -0.272
N_ N_ 0.873552 0.256941 0.14734 -0.272
N_ N_ 0.632862 0.271757 0.0171608 -0.12501
N_ N_ 0.868109 0.252939 0.0132028 -0.12501
O_ O_ 0.601767 0.304303 0.228562 -0.60745
O_ O_ 0.844843 0.296928 0.221605 -0.60745
O_ O_ 0.593798 0.296248 0.294321 -0.60745
O_ O_ 0.841509 0.293634 0.289508 -0.60745
O_ O_ 0.658124 0.29801 0.294723 -0.60745
O_ O_ 0.907366 0.296302 0.29078 -0.60745
O_ O_ 0.66286 0.29118 0.227377 -0.60745
O_ O_ 0.906974 0.298006 0.221971 -0.60745
O_ O_ 0.657692 0.208088 0.289942 -0.60745
O_ O_ 0.908377 0.210468 0.27833 -0.60745
O_ O_ 0.654124 0.203994 0.22117 -0.60745
O_ O_ 0.905346 0.206583 0.209407 -0.60745
O_ O_ 0.592243 0.215253 0.219918 -0.60745
O_ O_ 0.841286 0.211204 0.219222 -0.60745
O_ O_ 0.596125 0.207533 0.286119 -0.60745
O_ O_ 0.848601 0.202993 0.287321 -0.60745
Zn Zn 0.621996 0.248217 0.791499 0.9476
Zn Zn 0.876882 0.247958 0.783251 0.9476
Zn Zn 0.620836 0.250401 0.721774 0.9476
Zn Zn 0.876141 0.24535 0.714978 0.9476
H_ H_ 0.533428 0.416727 0.691725 0.10932
H_ H_ 0.780098 0.40987 0.680703 0.10932
H_ H_ 0.554636 0.349071 0.827162 0.10932
H_ H_ 0.830943 0.357942 0.811785 0.10932
H_ H_ 0.571509 0.366479 0.692373 0.10932
H_ H_ 0.803931 0.341565 0.685485 0.10932
H_ H_ 0.534057 0.418459 0.826059 0.10932
H_ H_ 0.795407 0.419731 0.815932 0.10932
H_ H_ 0.707895 0.420143 0.821135 0.10932
H_ H_ 0.954292 0.425607 0.812415 0.10932
H_ H_ 0.681672 0.347831 0.689505 0.10932
H_ H_ 0.957104 0.3349 0.686476 0.10932
H_ H_ 0.672868 0.363496 0.819801 0.10932
H_ H_ 0.923707 0.363148 0.809055 0.10932
H_ H_ 0.722001 0.403598 0.68801 0.10932
H_ H_ 0.982369 0.401883 0.684213 0.10932
H_ H_ 0.713445 0.080002 0.82037 0.10932
H_ H_ 0.953403 0.0671522 0.822218 0.10932
H_ H_ 0.698874 0.157967 0.685239 0.10932
H_ H_ 0.942414 0.148414 0.685785 0.10932
H_ H_ 0.687283 0.148849 0.818353 0.10932
H_ H_ 0.925898 0.134765 0.817179 0.10932
H_ H_ 0.723046 0.088308 0.686946 0.10932
H_ H_ 0.974097 0.0836421 0.687142 0.10932
H_ H_ 0.535346 0.0801339 0.686956 0.10932
H_ H_ 0.784335 0.0794914 0.687541 0.10932
H_ H_ 0.565453 0.14281 0.821908 0.10932
H_ H_ 0.819251 0.146692 0.820211 0.10932
H_ H_ 0.564646 0.145308 0.690443 0.10932
H_ H_ 0.808546 0.14586 0.683642 0.10932
H_ H_ 0.535022 0.0775432 0.821766 0.10932
H_ H_ 0.782958 0.0867342 0.820916 0.10932
H_ H_ 0.641914 0.310091 0.866249 0.10932
H_ H_ 0.839043 0.219175 0.8645 0.10932
H_ H_ 0.618364 0.181152 0.863596 0.10932
H_ H_ 0.916988 0.289694 0.855455 0.10932
H_ H_ 0.622569 0.178709 0.940526 0.10932
H_ H_ 0.924315 0.293267 0.931894 0.10932
H_ H_ 0.638938 0.309653 0.946272 0.10932
H_ H_ 0.84131 0.226931 0.945313 0.10932
H_ H_ 0.625173 0.188452 0.642076 0.10932
H_ H_ 0.925115 0.255117 0.647191 0.10932
H_ H_ 0.61332 0.317855 0.650431 0.10932
H_ H_ 0.830275 0.241282 0.634081 0.10932
H_ H_ 0.623115 0.326506 0.576658 0.10932
H_ H_ 0.834121 0.247089 0.558963 0.10932
H_ H_ 0.630695 0.19222 0.56644 0.10932
H_ H_ 0.930607 0.254041 0.571463 0.10932
C_ C_ 0.564429 0.349024 0.760274 -0.02249
C_ C_ 0.818976 0.346653 0.748008 -0.02249
C_ C_ 0.512385 0.464455 0.757971 -0.02249
C_ C_ 0.766071 0.45725 0.749443 -0.02249
C_ C_ 0.538415 0.405699 0.722464 -0.11473
C_ C_ 0.789858 0.398685 0.709921 -0.11473
C_ C_ 0.54878 0.36352 0.797076 -0.11473
C_ C_ 0.818899 0.370537 0.785441 -0.11473
C_ C_ 0.559378 0.373043 0.722507 -0.11473
C_ C_ 0.803733 0.361026 0.711291 -0.11473
C_ C_ 0.527943 0.42273 0.759321 -0.02249
C_ C_ 0.783833 0.418151 0.749308 -0.02249
C_ C_ 0.584257 0.310119 0.760144 0.6875
C_ C_ 0.837326 0.306873 0.747662 0.6875
C_ C_ 0.533356 0.400885 0.796798 -0.11473
C_ C_ 0.798425 0.403701 0.787002 -0.11473
C_ C_ 0.678801 0.348256 0.753417 -0.02249
C_ C_ 0.933302 0.347455 0.745918 -0.02249
C_ C_ 0.734327 0.456429 0.755895 -0.02249
C_ C_ 0.984709 0.460236 0.747391 -0.02249
C_ C_ 0.703952 0.403824 0.791343 -0.11473
C_ C_ 0.952052 0.408101 0.7823 -0.11473
C_ C_ 0.688467 0.364586 0.715751 -0.11473
C_ C_ 0.95251 0.356114 0.711812 -0.11473
C_ C_ 0.684985 0.369809 0.791015 -0.11473
C_ C_ 0.933172 0.374606 0.780212 -0.11473
C_ C_ 0.718113 0.416789 0.754858 -0.02249
C_ C_ 0.970369 0.419106 0.746558 -0.02249
C_ C_ 0.662345 0.309144 0.753867 0.6875
C_ C_ 0.918202 0.306099 0.747228 0.6875
C_ C_ 0.711565 0.396187 0.716217 -0.11473
C_ C_ 0.969525 0.394091 0.711951 -0.11473
C_ C_ 0.687286 0.157953 0.753685 -0.02249
C_ C_ 0.931994 0.145603 0.752085 -0.02249
C_ C_ 0.734571 0.0390165 0.753505 -0.02249
C_ C_ 0.982615 0.0313194 0.756521 -0.02249
C_ C_ 0.709562 0.0975638 0.790802 -0.11473
C_ C_ 0.952994 0.0865424 0.792187 -0.11473
C_ C_ 0.700081 0.141514 0.715299 -0.11473
C_ C_ 0.944107 0.130112 0.715628 -0.11473
C_ C_ 0.69654 0.137785 0.789407 -0.11473
C_ C_ 0.938318 0.124858 0.790709 -0.11473
C_ C_ 0.71896 0.0796157 0.754273 -0.02249
C_ C_ 0.966781 0.0718124 0.755022 -0.02249
C_ C_ 0.663189 0.190615 0.754415 0.6875
C_ C_ 0.913516 0.18525 0.751392 0.6875
C_ C_ 0.714824 0.101787 0.715589 -0.11473
C_ C_ 0.963775 0.0941941 0.716867 -0.11473
C_ C_ 0.571287 0.145904 0.756823 -0.02249
C_ C_ 0.81639 0.152596 0.75143 -0.02249
C_ C_ 0.517749 0.0325543 0.753867 -0.02249
C_ C_ 0.766175 0.0385922 0.757047 -0.02249
C_ C_ 0.54246 0.0926645 0.716978 -0.11473
C_ C_ 0.791784 0.0931701 0.716653 -0.11473
C_ C_ 0.558659 0.129831 0.792979 -0.11473
C_ C_ 0.809506 0.134951 0.79008 -0.11473
C_ C_ 0.560149 0.128076 0.719479 -0.11473
C_ C_ 0.804465 0.132858 0.71379 -0.11473
C_ C_ 0.53624 0.0723267 0.754824 -0.02249
C_ C_ 0.785095 0.0753126 0.754701 -0.02249
C_ C_ 0.587328 0.187204 0.758205 0.6875
C_ C_ 0.837528 0.18727 0.749353 0.6875
C_ C_ 0.544016 0.0904828 0.793042 -0.11473
C_ C_ 0.791485 0.0992124 0.791291 -0.11473
C_ C_ 0.63284 0.282978 0.883234 0.17695
C_ C_ 0.858065 0.233052 0.88121 0.17695
C_ C_ 0.621858 0.209872 0.881691 0.17695
C_ C_ 0.902763 0.270732 0.87439 0.17695
C_ C_ 0.623989 0.208697 0.925217 -0.11473
C_ C_ 0.905492 0.274909 0.918896 -0.11473
C_ C_ 0.626696 0.245209 0.947582 0.23465
C_ C_ 0.884371 0.25704 0.944327 0.23465
C_ C_ 0.633525 0.282148 0.927497 -0.11473
C_ C_ 0.860386 0.235369 0.926518 -0.11473
C_ C_ 0.624808 0.219359 0.628182 0.17695
C_ C_ 0.905292 0.250573 0.627953 0.17695
C_ C_ 0.616777 0.290615 0.632214 0.17695
C_ C_ 0.853004 0.243521 0.621785 0.17695
C_ C_ 0.619307 0.294959 0.589482 -0.11473
C_ C_ 0.854143 0.244785 0.578045 -0.11473
C_ C_ 0.623471 0.25964 0.564378 0.23465
C_ C_ 0.882832 0.249889 0.558539 0.23465
C_ C_ 0.626331 0.221103 0.584626 -0.11473
C_ C_ 0.908315 0.248472 0.584731 -0.11473
C_ C_ 0.5289 0.501543 0.760117 0.05793
C_ C_ 0.780962 0.496403 0.746751 0.05793
C_ C_ 0.718112 0.00107088 0.751371 0.05793
C_ C_ 0.967456 -0.006006999999999985 0.756471 0.05793
Br Br 0.572014 0.497118 0.775542 -0.17191
Br Br 0.82248 0.497164 0.729399 -0.17191
Br Br 0.678278 0.00273436 0.727868 -0.17191
Br Br 0.923456 -0.003946000000000005 0.763614 -0.17191
N_ N_ 0.62533 0.247313 0.861348 -0.272
N_ N_ 0.880129 0.247509 0.857759 -0.272
N_ N_ 0.627334 0.242283 0.993314 -0.12501
N_ N_ 0.888954 0.261496 0.988366 -0.12501
N_ N_ 0.616638 0.253367 0.651382 -0.272
N_ N_ 0.878737 0.244161 0.646526 -0.272
N_ N_ 0.625688 0.266161 0.519494 -0.12501
N_ N_ 0.885536 0.260011 0.514987 -0.12501
O_ O_ 0.592416 0.295389 0.723886 -0.60745
O_ O_ 0.842648 0.289812 0.71351 -0.60745
O_ O_ 0.590721 0.292666 0.794444 -0.60745
O_ O_ 0.847039 0.29114 0.781677 -0.60745
O_ O_ 0.651402 0.296187 0.788578 -0.60745
O_ O_ 0.909607 0.290958 0.781328 -0.60745
O_ O_ 0.650805 0.294909 0.718999 -0.60745
O_ O_ 0.908211 0.291953 0.71238 -0.60745
O_ O_ 0.653417 0.204388 0.790166 -0.60745
O_ O_ 0.904517 0.201731 0.785334 -0.60745
O_ O_ 0.653404 0.204641 0.718958 -0.60745
O_ O_ 0.906445 0.200355 0.716767 -0.60745
O_ O_ 0.596929 0.203691 0.724432 -0.60745
O_ O_ 0.845586 0.201794 0.714273 -0.60745
O_ O_ 0.59221 0.204152 0.793278 -0.60745
O_ O_ 0.844152 0.207084 0.782831 -0.60745
Zn Zn 0.622322 0.754832 0.28544 0.9476
Zn Zn 0.873451 0.752634 0.285998 0.9476
Zn Zn 0.623998 0.748656 0.217657 0.9476
Zn Zn 0.87382 0.750051 0.216558 0.9476
H_ H_ 0.515105 0.903166 0.189527 0.10932
H_ H_ 0.789575 0.923558 0.181594 0.10932
H_ H_ 0.590151 0.877526 0.30069 0.10932
H_ H_ 0.812005 0.850162 0.314331 0.10932
H_ H_ 0.541705 0.835702 0.193243 0.10932
H_ H_ 0.81859 0.858298 0.179164 0.10932
H_ H_ 0.56006 0.938463 0.305838 0.10932
H_ H_ 0.787198 0.921013 0.317494 0.10932
H_ H_ 0.703856 0.932717 0.311123 0.10932
H_ H_ 0.961874 0.921219 0.30595 0.10932
H_ H_ 0.696586 0.838399 0.187417 0.10932
H_ H_ 0.940438 0.844495 0.175534 0.10932
H_ H_ 0.668414 0.873165 0.310473 0.10932
H_ H_ 0.93665 0.858192 0.308661 0.10932
H_ H_ 0.724166 0.905948 0.184834 0.10932
H_ H_ 0.969773 0.911523 0.173833 0.10932
H_ H_ 0.700052 0.564499 0.310874 0.10932
H_ H_ 0.971332 0.591611 0.318209 0.10932
H_ H_ 0.700778 0.669557 0.196506 0.10932
H_ H_ 0.946947 0.659082 0.180296 0.10932
H_ H_ 0.662523 0.624175 0.308783 0.10932
H_ H_ 0.945196 0.657187 0.317495 0.10932
H_ H_ 0.73094 0.603416 0.189337 0.10932
H_ H_ 0.966852 0.587202 0.180267 0.10932
H_ H_ 0.547484 0.569742 0.191266 0.10932
H_ H_ 0.801626 0.563072 0.197554 0.10932
H_ H_ 0.550736 0.658147 0.320889 0.10932
H_ H_ 0.798497 0.662682 0.315599 0.10932
H_ H_ 0.558083 0.645572 0.186016 0.10932
H_ H_ 0.837193 0.620267 0.20265 0.10932
H_ H_ 0.528697 0.587087 0.323057 0.10932
H_ H_ 0.76747 0.603063 0.32072 0.10932
H_ H_ 0.612219 0.690988 0.367568 0.10932
H_ H_ 0.825734 0.742238 0.36585 0.10932
H_ H_ 0.618613 0.820641 0.354591 0.10932
H_ H_ 0.922062 0.766358 0.357786 0.10932
H_ H_ 0.617883 0.829164 0.432896 0.10932
H_ H_ 0.923632 0.779454 0.434532 0.10932
H_ H_ 0.618199 0.69374 0.442224 0.10932
H_ H_ 0.830995 0.744442 0.447029 0.10932
H_ H_ 0.601351 0.690667 0.143463 0.10932
H_ H_ 0.897532 0.698088 0.141135 0.10932
H_ H_ 0.632297 0.815238 0.144244 0.10932
H_ H_ 0.849016 0.808092 0.13433 0.10932
H_ H_ 0.62789 0.817779 0.0659667 0.10932
H_ H_ 0.84882 0.806489 0.0607776 0.10932
H_ H_ 0.596646 0.695065 0.0660032 0.10932
H_ H_ 0.893717 0.689808 0.0623132 0.10932
C_ C_ 0.56735 0.851267 0.248615 -0.02249
C_ C_ 0.813972 0.84728 0.247591 -0.02249
C_ C_ 0.517497 0.963415 0.247972 -0.02249
C_ C_ 0.766094 0.963983 0.252134 -0.02249
C_ C_ 0.531975 0.896429 0.21342 -0.11473
C_ C_ 0.790481 0.905698 0.210726 -0.11473
C_ C_ 0.569944 0.879039 0.281451 -0.11473
C_ C_ 0.805369 0.866767 0.286206 -0.11473
C_ C_ 0.545924 0.857846 0.217475 -0.11473
C_ C_ 0.807376 0.867708 0.208714 -0.11473
C_ C_ 0.534641 0.924531 0.248692 -0.02249
C_ C_ 0.782821 0.923273 0.249081 -0.02249
C_ C_ 0.585417 0.811208 0.248501 0.6875
C_ C_ 0.832054 0.809117 0.249412 0.6875
C_ C_ 0.552915 0.913927 0.282987 -0.11473
C_ C_ 0.790097 0.903587 0.286712 -0.11473
C_ C_ 0.684174 0.846395 0.252658 -0.02249
C_ C_ 0.934222 0.847556 0.243906 -0.02249
C_ C_ 0.734888 0.962536 0.248926 -0.02249
C_ C_ 0.983651 0.964134 0.237254 -0.02249
C_ C_ 0.702707 0.910709 0.284592 -0.11473
C_ C_ 0.956311 0.908394 0.276591 -0.11473
C_ C_ 0.698248 0.858155 0.21672 -0.11473
C_ C_ 0.943261 0.863403 0.204412 -0.11473
C_ C_ 0.684726 0.874678 0.286756 -0.11473
C_ C_ 0.94155 0.870287 0.27964 -0.11473
C_ C_ 0.718433 0.920918 0.248615 -0.02249
C_ C_ 0.967186 0.923313 0.239039 -0.02249
C_ C_ 0.666237 0.807787 0.253247 0.6875
C_ C_ 0.914553 0.810628 0.247055 0.6875
C_ C_ 0.713938 0.896528 0.212881 -0.11473
C_ C_ 0.961605 0.899189 0.202658 -0.11473
C_ C_ 0.681543 0.652443 0.254148 -0.02249
C_ C_ 0.943016 0.664145 0.249169 -0.02249
C_ C_ 0.732906 0.540379 0.250143 -0.02249
C_ C_ 0.98431 0.543969 0.247055 -0.02249
C_ C_ 0.696849 0.585442 0.283348 -0.11473
C_ C_ 0.964585 0.606669 0.287608 -0.11473
C_ C_ 0.701611 0.647311 0.221602 -0.11473
C_ C_ 0.951374 0.645148 0.211023 -0.11473
C_ C_ 0.678985 0.621605 0.285611 -0.11473
C_ C_ 0.950602 0.644749 0.288364 -0.11473
C_ C_ 0.714927 0.579688 0.249716 -0.02249
C_ C_ 0.968511 0.584809 0.249095 -0.02249
C_ C_ 0.66126 0.690122 0.253917 0.6875
C_ C_ 0.916355 0.695293 0.250181 0.6875
C_ C_ 0.71903 0.611143 0.219621 -0.11473
C_ C_ 0.962069 0.603809 0.210338 -0.11473
C_ C_ 0.561545 0.653268 0.253812 -0.02249
C_ C_ 0.819082 0.650755 0.256674 -0.02249
C_ C_ 0.515506 0.537373 0.252233 -0.02249
C_ C_ 0.763167 0.53907 0.25697 -0.02249
C_ C_ 0.546736 0.589121 0.218366 -0.11473
C_ C_ 0.799951 0.58673 0.224091 -0.11473
C_ C_ 0.549083 0.63885 0.291124 -0.11473
C_ C_ 0.801369 0.640243 0.290854 -0.11473
C_ C_ 0.558481 0.630054 0.216726 -0.11473
C_ C_ 0.819487 0.622125 0.224866 -0.11473
C_ C_ 0.53173 0.576959 0.25422 -0.02249
C_ C_ 0.781178 0.578693 0.256609 -0.02249
C_ C_ 0.582208 0.690501 0.253836 0.6875
C_ C_ 0.837983 0.689246 0.256307 0.6875
C_ C_ 0.535582 0.598864 0.292361 -0.11473
C_ C_ 0.780902 0.607052 0.291596 -0.11473
C_ C_ 0.61689 0.720819 0.380906 0.17695
C_ C_ 0.84762 0.75121 0.380786 0.17695
C_ C_ 0.61957 0.79468 0.375448 0.17695
C_ C_ 0.900754 0.766388 0.376636 0.17695
C_ C_ 0.61929 0.798078 0.419405 -0.11473
C_ C_ 0.903116 0.77038 0.420412 -0.11473
C_ C_ 0.618957 0.763084 0.445455 0.23465
C_ C_ 0.878182 0.759831 0.445327 0.23465
C_ C_ 0.61932 0.722689 0.426039 -0.11473
C_ C_ 0.850224 0.752475 0.425403 -0.11473
C_ C_ 0.610472 0.717114 0.124676 0.17695
C_ C_ 0.884717 0.719885 0.123531 0.17695
C_ C_ 0.627009 0.788425 0.126006 0.17695
C_ C_ 0.85955 0.782671 0.121102 0.17695
C_ C_ 0.62592 0.789545 0.0827004 -0.11473
C_ C_ 0.861099 0.782845 0.0774166 -0.11473
C_ C_ 0.617715 0.754258 0.0593744 0.23465
C_ C_ 0.874136 0.752528 0.0555024 0.23465
C_ C_ 0.608667 0.718477 0.0807782 -0.11473
C_ C_ 0.887097 0.719331 0.0798507 -0.11473
C_ C_ 0.533832 1.00127857 0.241435 0.05793
C_ C_ 0.782386 1.00184 0.254287 0.05793
C_ C_ 0.71768 0.50128 0.241221 0.05793
C_ C_ 0.966158 0.507717 0.248903 0.05793
Br Br 0.575911 1.00136 0.232748 -0.17191
Br Br 0.82487 0.99896 0.262385 -0.17191
Br Br 0.675964 0.503752 0.219045 -0.17191
Br Br 0.923892 0.508125 0.251136 -0.17191
N_ N_ 0.620923 0.755687 0.35744 -0.272
N_ N_ 0.873105 0.755206 0.356814 -0.272
N_ N_ 0.617473 0.767686 0.489611 -0.12501
N_ N_ 0.881257 0.764549 0.489404 -0.12501
N_ N_ 0.619749 0.751972 0.145546 -0.272
N_ N_ 0.873891 0.753163 0.143581 -0.272
N_ N_ 0.612087 0.757736 0.0154131 -0.12501
N_ N_ 0.865007 0.748425 0.0113604 -0.12501
O_ O_ 0.597449 0.798156 0.215519 -0.60745
O_ O_ 0.845185 0.793779 0.216606 -0.60745
O_ O_ 0.592706 0.795806 0.284602 -0.60745
O_ O_ 0.840311 0.794644 0.285503 -0.60745
O_ O_ 0.65249 0.799499 0.28637 -0.60745
O_ O_ 0.901566 0.800409 0.280628 -0.60745
O_ O_ 0.657836 0.790439 0.219281 -0.60745
O_ O_ 0.908782 0.789845 0.214678 -0.60745
O_ O_ 0.652647 0.707736 0.287833 -0.60745
O_ O_ 0.912708 0.719816 0.281635 -0.60745
O_ O_ 0.653245 0.704381 0.219303 -0.60745
O_ O_ 0.901246 0.701399 0.216773 -0.60745
O_ O_ 0.589909 0.707741 0.221534 -0.60745
O_ O_ 0.842208 0.706197 0.222029 -0.60745
O_ O_ 0.593752 0.703613 0.288421 -0.60745
O_ O_ 0.84702 0.707392 0.291012 -0.60745
Zn Zn 0.628141 0.748889 0.786184 0.9476
Zn Zn 0.871751 0.745845 0.785854 0.9476
Zn Zn 0.630682 0.748186 0.718428 0.9476
Zn Zn 0.87034 0.748264 0.716033 0.9476
H_ H_ 0.542636 0.916156 0.680284 0.10932
H_ H_ 0.780528 0.91606 0.69202 0.10932
H_ H_ 0.555806 0.844025 0.815193 0.10932
H_ H_ 0.800531 0.83649 0.821663 0.10932
H_ H_ 0.577157 0.856155 0.685997 0.10932
H_ H_ 0.81205 0.854225 0.689133 0.10932
H_ H_ 0.523342 0.904484 0.811784 0.10932
H_ H_ 0.775757 0.910631 0.824174 0.10932
H_ H_ 0.694826 0.934011 0.811516 0.10932
H_ H_ 0.965296 0.911913 0.819414 0.10932
H_ H_ 0.69981 0.843112 0.688672 0.10932
H_ H_ 0.928094 0.849478 0.685937 0.10932
H_ H_ 0.664078 0.86815 0.807946 0.10932
H_ H_ 0.941656 0.840003 0.820919 0.10932
H_ H_ 0.727556 0.908041 0.688876 0.10932
H_ H_ 0.95897 0.911971 0.684045 0.10932
H_ H_ 0.739666 0.596008 0.808076 0.10932
H_ H_ 0.95567 0.570062 0.812227 0.10932
H_ H_ 0.673641 0.632716 0.687915 0.10932
H_ H_ 0.934599 0.647617 0.680241 0.10932
H_ H_ 0.715794 0.662818 0.805335 0.10932
H_ H_ 0.925466 0.633499 0.815682 0.10932
H_ H_ 0.695033 0.563666 0.691597 0.10932
H_ H_ 0.962092 0.582883 0.677724 0.10932
H_ H_ 0.532295 0.585039 0.688236 0.10932
H_ H_ 0.773749 0.58228 0.683897 0.10932
H_ H_ 0.571692 0.639312 0.822877 0.10932
H_ H_ 0.832267 0.626094 0.810377 0.10932
H_ H_ 0.564252 0.647609 0.687179 0.10932
H_ H_ 0.806463 0.646358 0.681634 0.10932
H_ H_ 0.533248 0.582515 0.822993 0.10932
H_ H_ 0.806287 0.560753 0.808072 0.10932
H_ H_ 0.581309 0.753055 0.860279 0.10932
H_ H_ 0.887607 0.680974 0.852169 0.10932
H_ H_ 0.674688 0.74191 0.859017 0.10932
H_ H_ 0.867831 0.808802 0.860256 0.10932
H_ H_ 0.678432 0.752009 0.94164 0.10932
H_ H_ 0.872099 0.804123 0.939556 0.10932
H_ H_ 0.583879 0.745905 0.939814 0.10932
H_ H_ 0.888878 0.676288 0.930957 0.10932
H_ H_ 0.625474 0.685398 0.649972 0.10932
H_ H_ 0.875533 0.806265 0.643324 0.10932
H_ H_ 0.633252 0.814243 0.642888 0.10932
H_ H_ 0.865581 0.67848 0.643854 0.10932
H_ H_ 0.630813 0.80945 0.560044 0.10932
H_ H_ 0.857358 0.683045 0.564579 0.10932
H_ H_ 0.625402 0.677935 0.573672 0.10932
H_ H_ 0.86662 0.807169 0.566665 0.10932
C_ C_ 0.567447 0.842885 0.751521 -0.02249
C_ C_ 0.813277 0.844895 0.757297 -0.02249
C_ C_ 0.514071 0.956589 0.7443 -0.02249
C_ C_ 0.764668 0.961026 0.758917 -0.02249
C_ C_ 0.546021 0.902053 0.710653 -0.11473
C_ C_ 0.789185 0.902843 0.719478 -0.11473
C_ C_ 0.553723 0.859526 0.786836 -0.11473
C_ C_ 0.800608 0.857704 0.795156 -0.11473
C_ C_ 0.565692 0.866308 0.714625 -0.11473
C_ C_ 0.808206 0.868591 0.71946 -0.11473
C_ C_ 0.529184 0.914648 0.745672 -0.02249
C_ C_ 0.77983 0.919693 0.757668 -0.02249
C_ C_ 0.588557 0.807556 0.755891 0.6875
C_ C_ 0.833176 0.80703 0.754166 0.6875
C_ C_ 0.53611 0.89643 0.783738 -0.11473
C_ C_ 0.784453 0.896421 0.795314 -0.11473
C_ C_ 0.686897 0.846594 0.752535 -0.02249
C_ C_ 0.931716 0.840002 0.751882 -0.02249
C_ C_ 0.733047 0.962477 0.752991 -0.02249
C_ C_ 0.981627 0.955188 0.751466 -0.02249
C_ C_ 0.694736 0.915174 0.783936 -0.11473
C_ C_ 0.957631 0.898 0.790561 -0.11473
C_ C_ 0.70075 0.861407 0.716064 -0.11473
C_ C_ 0.938062 0.860415 0.714669 -0.11473
C_ C_ 0.678664 0.878281 0.78257 -0.11473
C_ C_ 0.940844 0.858749 0.791056 -0.11473
C_ C_ 0.715175 0.923375 0.752572 -0.02249
C_ C_ 0.963412 0.916844 0.750907 -0.02249
C_ C_ 0.671297 0.80569 0.75231 0.6875
C_ C_ 0.911006 0.804318 0.751899 0.6875
C_ C_ 0.714657 0.899871 0.715675 -0.11473
C_ C_ 0.953416 0.897147 0.71314 -0.11473
C_ C_ 0.687166 0.649884 0.752138 -0.02249
C_ C_ 0.926017 0.646537 0.746219 -0.02249
C_ C_ 0.7338 0.531859 0.752289 -0.02249
C_ C_ 0.980298 0.536761 0.741837 -0.02249
C_ C_ 0.723523 0.602316 0.783305 -0.11473
C_ C_ 0.950469 0.588624 0.78395 -0.11473
C_ C_ 0.685032 0.623548 0.716361 -0.11473
C_ C_ 0.938866 0.632815 0.708605 -0.11473
C_ C_ 0.707293 0.639003 0.784778 -0.11473
C_ C_ 0.930703 0.621901 0.785505 -0.11473
C_ C_ 0.715843 0.57165 0.753107 -0.02249
C_ C_ 0.962035 0.575668 0.744846 -0.02249
C_ C_ 0.669284 0.689151 0.752812 0.6875
C_ C_ 0.910746 0.686215 0.747444 0.6875
C_ C_ 0.694913 0.582338 0.719776 -0.11473
C_ C_ 0.955217 0.596858 0.70755 -0.11473
C_ C_ 0.572768 0.646829 0.755112 -0.02249
C_ C_ 0.817245 0.645191 0.749072 -0.02249
C_ C_ 0.513113 0.539924 0.754382 -0.02249
C_ C_ 0.76583 0.533663 0.749703 -0.02249
C_ C_ 0.541735 0.596783 0.716291 -0.11473
C_ C_ 0.784348 0.594358 0.711369 -0.11473
C_ C_ 0.562391 0.630758 0.79268 -0.11473
C_ C_ 0.816718 0.620879 0.784681 -0.11473
C_ C_ 0.560456 0.631855 0.716624 -0.11473
C_ C_ 0.801172 0.63086 0.711485 -0.11473
C_ C_ 0.532746 0.579008 0.753134 -0.02249
C_ C_ 0.783454 0.572323 0.74824 -0.02249
C_ C_ 0.590873 0.686254 0.755921 0.6875
C_ C_ 0.834522 0.684103 0.748834 0.6875
C_ C_ 0.541763 0.596984 0.792084 -0.11473
C_ C_ 0.800129 0.584304 0.78501 -0.11473
C_ C_ 0.602616 0.753312 0.878604 0.17695
C_ C_ 0.883183 0.708057 0.871495 0.17695
C_ C_ 0.655918 0.749448 0.879831 0.17695
C_ C_ 0.87302 0.780864 0.876592 0.17695
C_ C_ 0.657257 0.753589 0.924698 -0.11473
C_ C_ 0.875343 0.77837 0.921056 -0.11473
C_ C_ 0.630653 0.752027 0.946396 0.23465
C_ C_ 0.877329 0.739887 0.939243 0.23465
C_ C_ 0.603999 0.74984 0.923233 -0.11473
C_ C_ 0.884802 0.705597 0.914843 -0.11473
C_ C_ 0.624462 0.713302 0.630094 0.17695
C_ C_ 0.872898 0.779592 0.625731 0.17695
C_ C_ 0.628486 0.787053 0.625878 0.17695
C_ C_ 0.866499 0.706293 0.626892 0.17695
C_ C_ 0.627293 0.783808 0.580687 -0.11473
C_ C_ 0.865329 0.708636 0.582628 -0.11473
C_ C_ 0.628775 0.74407 0.560667 0.23465
C_ C_ 0.872237 0.744173 0.559369 0.23465
C_ C_ 0.624929 0.70955 0.587042 -0.11473
C_ C_ 0.873481 0.780134 0.581609 -0.11473
C_ C_ 0.532142 -0.006195999999999979 0.749233 0.05793
C_ C_ 0.780548 -0.0010799999999999699 0.754778 0.05793
C_ C_ 0.718002 0.492287 0.753945 0.05793
C_ C_ 0.966453 0.497688 0.743834 0.05793
Br Br 0.576147 -0.010175999999999963 0.757159 -0.17191
Br Br 0.824146 0.99743 0.753096 -0.17191
Br Br 0.674761 0.490364 0.757613 -0.17191
Br Br 0.9231 0.494402 0.748862 -0.17191
N_ N_ 0.628473 0.750792 0.85846 -0.272
N_ N_ 0.874373 0.745374 0.853219 -0.272
N_ N_ 0.631577 0.744502 0.990197 -0.12501
N_ N_ 0.88427 0.738234 0.984136 -0.12501
N_ N_ 0.625109 0.752303 0.64804 -0.272
N_ N_ 0.869198 0.742656 0.646763 -0.272
N_ N_ 0.629153 0.742218 0.514951 -0.12501
N_ N_ 0.865966 0.743664 0.514937 -0.12501
O_ O_ 0.599877 0.790399 0.721926 -0.60745
O_ O_ 0.840921 0.793566 0.718931 -0.60745
O_ O_ 0.596811 0.793587 0.79126 -0.60745
O_ O_ 0.840939 0.788425 0.788184 -0.60745
O_ O_ 0.658322 0.794574 0.785981 -0.60745
O_ O_ 0.899661 0.790622 0.785858 -0.60745
O_ O_ 0.661193 0.789395 0.718332 -0.60745
O_ O_ 0.901227 0.791012 0.717388 -0.60745
O_ O_ 0.662008 0.707651 0.786656 -0.60745
O_ O_ 0.902182 0.699988 0.782562 -0.60745
O_ O_ 0.664315 0.708291 0.720374 -0.60745
O_ O_ 0.900623 0.701877 0.713851 -0.60745
O_ O_ 0.598889 0.702588 0.721911 -0.60745
O_ O_ 0.838109 0.702616 0.715822 -0.60745
O_ O_ 0.596553 0.704993 0.790536 -0.60745
O_ O_ 0.842431 0.702038 0.783596 -0.60745
_cell_length_a 44.444
_cell_length_b 32.3360000049186
_cell_length_c 31.843999878906452
_cell_angle_alpha 89.99799923859553
_cell_angle_beta 91.13600050494348
_cell_angle_gamma 89.9990006550086
_symmetry_space_group_name_H-M         'P 1'
_symmetry_Int_Tables_number            1
loop_
_symmetry_equiv_pos_as_xyz
   'x, y, z'
                         
loop_
_atom_site_label
_atom_site_type_symbol
_atom_site_fract_x 
_atom_site_fract_y
_atom_site_fract_z
_atom_site_charge
Zn Zn 0.123971 0.253157 0.276288 0.9476
Zn Zn 0.374062 0.246961 0.283569 0.9476
Zn Zn 0.118785 0.252099 0.209512 0.9476
Zn Zn 0.375798 0.249392 0.215295 0.9476
H_ H_ 0.0197529 0.417111 0.182557 0.10932
H_ H_ 0.279519 0.411583 0.177179 0.10932
H_ H_ 0.0640728 0.356369 0.308358 0.10932
H_ H_ 0.320679 0.362474 0.317667 0.10932
H_ H_ 0.0443189 0.346643 0.176718 0.10932
H_ H_ 0.309667 0.345405 0.183119 0.10932
H_ H_ 0.0432295 0.423812 0.31202 0.10932
H_ H_ 0.290394 0.425192 0.311759 0.10932
H_ H_ 0.223083 0.41477 0.306001 0.10932
H_ H_ 0.454065 0.419788 0.322229 0.10932
H_ H_ 0.176043 0.361232 0.173333 0.10932
H_ H_ 0.441362 0.353281 0.183737 0.10932
H_ H_ 0.200398 0.344285 0.300718 0.10932
H_ H_ 0.428543 0.351863 0.314858 0.10932
H_ H_ 0.21213 0.423579 0.172061 0.10932
H_ H_ 0.468769 0.420568 0.190852 0.10932
H_ H_ 0.228295 0.0960923 0.310835 0.10932
H_ H_ 0.491155 0.103136 0.308126 0.10932
H_ H_ 0.16399 0.13566 0.189186 0.10932
H_ H_ 0.425756 0.136282 0.188302 0.10932
H_ H_ 0.201047 0.163394 0.314179 0.10932
H_ H_ 0.458435 0.165947 0.311794 0.10932
H_ H_ 0.195566 0.0732884 0.1853 0.10932
H_ H_ 0.453204 0.07317 0.18775 0.10932
H_ H_ 0.0376912 0.0784064 0.176042 0.10932
H_ H_ 0.274724 0.0948565 0.187807 0.10932
H_ H_ 0.0660027 0.150055 0.308228 0.10932
H_ H_ 0.331635 0.131797 0.317561 0.10932
H_ H_ 0.0579786 0.150104 0.17466 0.10932
H_ H_ 0.304993 0.156995 0.185835 0.10932
H_ H_ 0.0454654 0.0803791 0.310459 0.10932
H_ H_ 0.29477 0.0751917 0.315828 0.10932
H_ H_ 0.115706 0.324622 0.346519 0.10932
H_ H_ 0.382862 0.318635 0.36273 0.10932
H_ H_ 0.130717 0.192409 0.354977 0.10932
H_ H_ 0.371578 0.188646 0.354161 0.10932
H_ H_ 0.125026 0.196951 0.430568 0.10932
H_ H_ 0.369919 0.182837 0.429286 0.10932
H_ H_ 0.112847 0.326832 0.42104 0.10932
H_ H_ 0.383631 0.313985 0.439894 0.10932
H_ H_ 0.120113 0.315209 0.139132 0.10932
H_ H_ 0.380048 0.307881 0.143657 0.10932
H_ H_ 0.114422 0.187202 0.124626 0.10932
H_ H_ 0.363495 0.179658 0.141342 0.10932
H_ H_ 0.108543 0.197826 0.0462778 0.10932
H_ H_ 0.360748 0.182642 0.0598056 0.10932
H_ H_ 0.12177 0.326492 0.0637148 0.10932
H_ H_ 0.377416 0.313757 0.0693554 0.10932
C_ C_ 0.0614668 0.349255 0.241013 -0.02249
C_ C_ 0.318167 0.348183 0.249687 -0.02249
C_ C_ 0.0133991 0.465758 0.247419 -0.02249
C_ C_ 0.267144 0.464547 0.240886 -0.02249
C_ C_ 0.0302385 0.403473 0.208846 -0.11473
C_ C_ 0.288395 0.400152 0.208034 -0.11473
C_ C_ 0.0578431 0.370547 0.278739 -0.11473
C_ C_ 0.310715 0.37173 0.286269 -0.11473
C_ C_ 0.0469685 0.366375 0.205795 -0.11473
C_ C_ 0.303761 0.361229 0.212383 -0.11473
C_ C_ 0.0297637 0.426267 0.245338 -0.02249
C_ C_ 0.2846 0.423853 0.244274 -0.02249
C_ C_ 0.08174 0.311543 0.23651 0.6875
C_ C_ 0.336386 0.310153 0.250554 0.6875
C_ C_ 0.0439214 0.408022 0.280821 -0.11473
C_ C_ 0.295905 0.408784 0.282422 -0.11473
C_ C_ 0.183872 0.348569 0.239801 -0.02249
C_ C_ 0.428934 0.349685 0.248207 -0.02249
C_ C_ 0.234918 0.462625 0.239505 -0.02249
C_ C_ 0.483274 0.461161 0.257442 -0.02249
C_ C_ 0.217762 0.398264 0.2754 -0.11473
C_ C_ 0.453734 0.402987 0.292618 -0.11473
C_ C_ 0.186766 0.373308 0.201499 -0.11473
C_ C_ 0.444318 0.367496 0.21284 -0.11473
C_ C_ 0.199832 0.362793 0.275444 -0.11473
C_ C_ 0.432522 0.370039 0.287317 -0.11473
C_ C_ 0.22017 0.42055 0.238184 -0.02249
C_ C_ 0.466232 0.421737 0.256191 -0.02249
C_ C_ 0.162776 0.312008 0.242572 0.6875
C_ C_ 0.410096 0.310353 0.244429 0.6875
C_ C_ 0.207298 0.406665 0.200238 -0.11473
C_ C_ 0.46166 0.402759 0.218387 -0.11473
C_ C_ 0.1803 0.156199 0.251163 -0.02249
C_ C_ 0.441476 0.155475 0.24917 -0.02249
C_ C_ 0.231886 0.0421151 0.247243 -0.02249
C_ C_ 0.487895 0.0413503 0.251112 -0.02249
C_ C_ 0.216793 0.107851 0.283627 -0.11473
C_ C_ 0.475503 0.110045 0.284724 -0.11473
C_ C_ 0.179857 0.129572 0.215082 -0.11473
C_ C_ 0.443331 0.132188 0.212815 -0.11473
C_ C_ 0.199828 0.145486 0.285747 -0.11473
C_ C_ 0.457243 0.144646 0.285655 -0.11473
C_ C_ 0.213998 0.081421 0.249129 -0.02249
C_ C_ 0.472236 0.0815733 0.250742 -0.02249
C_ C_ 0.16121 0.19482 0.251879 0.6875
C_ C_ 0.420199 0.19238 0.249007 0.6875
C_ C_ 0.194598 0.0907677 0.21557 -0.11473
C_ C_ 0.455708 0.0931404 0.215014 -0.11473
C_ C_ 0.065946 0.152091 0.240605 -0.02249
C_ C_ 0.316285 0.154075 0.253938 -0.02249
C_ C_ 0.0172578 0.0379355 0.244302 -0.02249
C_ C_ 0.263747 0.0431247 0.250305 -0.02249
C_ C_ 0.0436322 0.0941042 0.205488 -0.11473
C_ C_ 0.287385 0.10277 0.214389 -0.11473
C_ C_ 0.061322 0.132697 0.279009 -0.11473
C_ C_ 0.315492 0.128789 0.2901 -0.11473
C_ C_ 0.056519 0.13369 0.203799 -0.11473
C_ C_ 0.30173 0.141386 0.216438 -0.11473
C_ C_ 0.0362317 0.0762342 0.243933 -0.02249
C_ C_ 0.281913 0.0820294 0.251694 -0.02249
C_ C_ 0.0828506 0.19215 0.240306 0.6875
C_ C_ 0.333728 0.192353 0.254658 0.6875
C_ C_ 0.0451716 0.0953666 0.281147 -0.11473
C_ C_ 0.29706 0.0932575 0.288114 -0.11473
C_ C_ 0.117719 0.294938 0.364445 0.17695
C_ C_ 0.380098 0.29019 0.377703 0.17695
C_ C_ 0.125744 0.222492 0.368559 0.17695
C_ C_ 0.374576 0.215915 0.373449 0.17695
C_ C_ 0.123522 0.224975 0.412243 -0.11473
C_ C_ 0.376113 0.212929 0.41661 -0.11473
C_ C_ 0.119714 0.263708 0.432594 0.23465
C_ C_ 0.378919 0.248848 0.441593 0.23465
C_ C_ 0.119081 0.299073 0.407806 -0.11473
C_ C_ 0.380991 0.288171 0.421112 -0.11473
C_ C_ 0.124949 0.288839 0.119451 0.17695
C_ C_ 0.372365 0.281604 0.12517 0.17695
C_ C_ 0.119287 0.216757 0.110821 0.17695
C_ C_ 0.368281 0.208469 0.124906 0.17695
C_ C_ 0.116871 0.222372 0.0681301 -0.11473
C_ C_ 0.365604 0.210158 0.0802695 -0.11473
C_ C_ 0.12235 0.260528 0.0486099 0.23465
C_ C_ 0.368541 0.247513 0.0586719 0.23465
C_ C_ 0.123879 0.294551 0.0760455 -0.11473
C_ C_ 0.372343 0.283872 0.081753 -0.11473
C_ C_ 0.029767 0.503715 0.244843 0.05793
C_ C_ 0.28087 0.502997 0.245753 0.05793
C_ C_ 0.217267 0.0050511 0.254344 0.05793
C_ C_ 0.471903 1.00386554 0.258114 0.05793
Br Br 0.0738281 0.501169 0.243899 -0.17191
Br Br 0.32286 0.503111 0.235082 -0.17191
Br Br 0.17492 0.00248867 0.261788 -0.17191
Br Br 0.4312 1.00648768 0.275114 -0.17191
N_ N_ 0.123131 0.258061 0.345518 -0.272
N_ N_ 0.378851 0.254231 0.354918 -0.272
N_ N_ 0.115622 0.267757 0.477838 -0.12501
N_ N_ 0.37641 0.24474 0.486458 -0.12501
N_ N_ 0.123539 0.249316 0.135891 -0.272
N_ N_ 0.369198 0.244733 0.146438 -0.272
N_ N_ 0.11879 0.268531 0.00479334 -0.12501
N_ N_ 0.380602 0.247662 0.0185675 -0.12501
O_ O_ 0.0861407 0.293427 0.20182 -0.60745
O_ O_ 0.343227 0.292629 0.217452 -0.60745
O_ O_ 0.0938572 0.296935 0.270357 -0.60745
O_ O_ 0.34565 0.295784 0.284911 -0.60745
O_ O_ 0.155975 0.296937 0.277352 -0.60745
O_ O_ 0.404186 0.289544 0.276 -0.60745
O_ O_ 0.149236 0.297287 0.209607 -0.60745
O_ O_ 0.40619 0.29412 0.208052 -0.60745
O_ O_ 0.157286 0.213934 0.285447 -0.60745
O_ O_ 0.406871 0.202934 0.283409 -0.60745
O_ O_ 0.150023 0.209837 0.218146 -0.60745
O_ O_ 0.410811 0.206657 0.214497 -0.60745
O_ O_ 0.087053 0.21182 0.206501 -0.60745
O_ O_ 0.345946 0.204639 0.221876 -0.60745
O_ O_ 0.0911061 0.208683 0.274972 -0.60745
O_ O_ 0.342675 0.206101 0.289079 -0.60745
Zn Zn 0.124063 0.246035 0.773693 0.9476
Zn Zn 0.375238 0.246504 0.789255 0.9476
Zn Zn 0.121101 0.248794 0.70692 0.9476
Zn Zn 0.377099 0.247853 0.719074 0.9476
H_ H_ 0.0393763 0.426065 0.677916 0.10932
H_ H_ 0.285652 0.407585 0.690007 0.10932
H_ H_ 0.0675567 0.355992 0.809658 0.10932
H_ H_ 0.318081 0.346238 0.823891 0.10932
H_ H_ 0.0650547 0.358281 0.675085 0.10932
H_ H_ 0.311405 0.34179 0.690786 0.10932
H_ H_ 0.0412013 0.423013 0.812037 0.10932
H_ H_ 0.292753 0.413524 0.823403 0.10932
H_ H_ 0.222506 0.407045 0.814165 0.10932
H_ H_ 0.467586 0.41624 0.82299 0.10932
H_ H_ 0.186785 0.346792 0.678744 0.10932
H_ H_ 0.434081 0.352224 0.688081 0.10932
H_ H_ 0.185276 0.347903 0.814727 0.10932
H_ H_ 0.443677 0.348631 0.82295 0.10932
H_ H_ 0.21428 0.413424 0.678962 0.10932
H_ H_ 0.468208 0.416524 0.692619 0.10932
H_ H_ 0.207837 0.0796491 0.814144 0.10932
H_ H_ 0.466987 0.0769661 0.818061 0.10932
H_ H_ 0.191706 0.151637 0.678497 0.10932
H_ H_ 0.436999 0.145255 0.684876 0.10932
H_ H_ 0.181128 0.144982 0.813252 0.10932
H_ H_ 0.446211 0.150125 0.819283 0.10932
H_ H_ 0.213648 0.0839361 0.677906 0.10932
H_ H_ 0.458275 0.0749245 0.684081 0.10932
H_ H_ 0.0329663 0.0687621 0.680235 0.10932
H_ H_ 0.276284 0.093731 0.678607 0.10932
H_ H_ 0.0602792 0.148023 0.807314 0.10932
H_ H_ 0.320546 0.140608 0.815879 0.10932
H_ H_ 0.064351 0.132809 0.67311 0.10932
H_ H_ 0.297844 0.163474 0.686787 0.10932
H_ H_ 0.0248536 0.0918854 0.811127 0.10932
H_ H_ 0.284777 0.0813434 0.813309 0.10932
H_ H_ 0.121749 0.30951 0.852435 0.10932
H_ H_ 0.368637 0.304357 0.857798 0.10932
H_ H_ 0.110787 0.180056 0.846756 0.10932
H_ H_ 0.388237 0.178194 0.863719 0.10932
H_ H_ 0.108177 0.18035 0.924616 0.10932
H_ H_ 0.384765 0.18001 0.942085 0.10932
H_ H_ 0.124183 0.308539 0.932242 0.10932
H_ H_ 0.364107 0.310969 0.930324 0.10932
H_ H_ 0.119329 0.182624 0.637198 0.10932
H_ H_ 0.369581 0.188406 0.633016 0.10932
H_ H_ 0.120194 0.310782 0.628964 0.10932
H_ H_ 0.381901 0.315507 0.651812 0.10932
H_ H_ 0.11168 0.308381 0.550518 0.10932
H_ H_ 0.386682 0.32696 0.571172 0.10932
H_ H_ 0.115068 0.175583 0.558686 0.10932
H_ H_ 0.374256 0.194403 0.557987 0.10932
C_ C_ 0.0672196 0.348524 0.742056 -0.02249
C_ C_ 0.314893 0.337994 0.7561 -0.02249
C_ C_ 0.0159147 0.463684 0.747479 -0.02249
C_ C_ 0.268596 0.455674 0.755594 -0.02249
C_ C_ 0.0440863 0.40838 0.70651 -0.11473
C_ C_ 0.290498 0.394804 0.718514 -0.11473
C_ C_ 0.062161 0.370312 0.779955 -0.11473
C_ C_ 0.310283 0.359919 0.794606 -0.11473
C_ C_ 0.059753 0.37065 0.704666 -0.11473
C_ C_ 0.305796 0.35647 0.717748 -0.11473
C_ C_ 0.0347894 0.425898 0.745361 -0.02249
C_ C_ 0.284249 0.414975 0.756249 -0.02249
C_ C_ 0.085922 0.311426 0.739108 0.6875
C_ C_ 0.333188 0.29833 0.757323 0.6875
C_ C_ 0.0470167 0.407567 0.781151 -0.11473
C_ C_ 0.295777 0.39892 0.793178 -0.11473
C_ C_ 0.180872 0.344231 0.746397 -0.02249
C_ C_ 0.431429 0.349572 0.755593 -0.02249
C_ C_ 0.236328 0.457283 0.750089 -0.02249
C_ C_ 0.481442 0.465587 0.756504 -0.02249
C_ C_ 0.211582 0.397013 0.786039 -0.11473
C_ C_ 0.457053 0.405098 0.794827 -0.11473
C_ C_ 0.191417 0.36303 0.70906 -0.11473
C_ C_ 0.439188 0.368006 0.717447 -0.11473
C_ C_ 0.192466 0.361024 0.785605 -0.11473
C_ C_ 0.443126 0.366733 0.79314 -0.11473
C_ C_ 0.215892 0.418526 0.748945 -0.02249
C_ C_ 0.462537 0.425337 0.757234 -0.02249
C_ C_ 0.159856 0.308627 0.746819 0.6875
C_ C_ 0.416426 0.307112 0.756289 0.6875
C_ C_ 0.206748 0.399601 0.709393 -0.11473
C_ C_ 0.457968 0.403471 0.719883 -0.11473
C_ C_ 0.183021 0.153372 0.746501 -0.02249
C_ C_ 0.436267 0.150534 0.752036 -0.02249
C_ C_ 0.229952 0.0372891 0.740979 -0.02249
C_ C_ 0.48605 0.0351378 0.751162 -0.02249
C_ C_ 0.201761 0.0940778 0.784676 -0.11473
C_ C_ 0.46133 0.0948351 0.788618 -0.11473
C_ C_ 0.193472 0.136513 0.708114 -0.11473
C_ C_ 0.442974 0.131438 0.714806 -0.11473
C_ C_ 0.18644 0.131776 0.784129 -0.11473
C_ C_ 0.444457 0.131388 0.790226 -0.11473
C_ C_ 0.211389 0.0768741 0.745147 -0.02249
C_ C_ 0.469883 0.075958 0.750765 -0.02249
C_ C_ 0.166206 0.1918 0.745637 0.6875
C_ C_ 0.415337 0.187304 0.752456 0.6875
C_ C_ 0.204747 0.097621 0.706781 -0.11473
C_ C_ 0.457175 0.0920176 0.713451 -0.11473
C_ C_ 0.0619687 0.148254 0.73944 -0.02249
C_ C_ 0.312511 0.155871 0.751492 -0.02249
C_ C_ 0.0140599 0.0323497 0.74827 -0.02249
C_ C_ 0.261976 0.0405692 0.741927 -0.02249
C_ C_ 0.0400281 0.0869059 0.706738 -0.11473
C_ C_ 0.282867 0.105331 0.709827 -0.11473
C_ C_ 0.0514633 0.132902 0.778392 -0.11473
C_ C_ 0.30841 0.131224 0.787326 -0.11473
C_ C_ 0.0538047 0.125351 0.702405 -0.11473
C_ C_ 0.298373 0.142322 0.713396 -0.11473
C_ C_ 0.030353 0.0727966 0.746017 -0.02249
C_ C_ 0.277284 0.0815699 0.744703 -0.02249
C_ C_ 0.0834868 0.183729 0.738862 0.6875
C_ C_ 0.332494 0.193605 0.751891 0.6875
C_ C_ 0.033243 0.0987609 0.78033 -0.11473
C_ C_ 0.290959 0.0944837 0.784214 -0.11473
C_ C_ 0.119979 0.279973 0.86749 0.17695
C_ C_ 0.373358 0.27948 0.876669 0.17695
C_ C_ 0.114275 0.207569 0.864159 0.17695
C_ C_ 0.382637 0.207559 0.880467 0.17695
C_ C_ 0.114438 0.20706 0.909409 -0.11473
C_ C_ 0.380829 0.207892 0.925166 -0.11473
C_ C_ 0.114369 0.243228 0.933158 0.23465
C_ C_ 0.373288 0.245546 0.944954 0.23465
C_ C_ 0.118248 0.281042 0.912774 -0.11473
C_ C_ 0.368591 0.280581 0.918975 -0.11473
C_ C_ 0.118189 0.209466 0.618383 0.17695
C_ C_ 0.375444 0.2181 0.619161 0.17695
C_ C_ 0.11815 0.280433 0.614457 0.17695
C_ C_ 0.383406 0.28834 0.630649 0.17695
C_ C_ 0.112683 0.279863 0.569799 -0.11473
C_ C_ 0.383979 0.295545 0.587036 -0.11473
C_ C_ 0.117228 0.242244 0.548753 0.23465
C_ C_ 0.380933 0.262245 0.559584 0.23465
C_ C_ 0.117587 0.205506 0.573333 -0.11473
C_ C_ 0.376962 0.222918 0.576556 -0.11473
C_ C_ 0.0300232 0.503473 0.744065 0.05793
C_ C_ 0.285831 0.4922 0.753738 0.05793
C_ C_ 0.215897 -0.0017519999999999758 0.739913 0.05793
C_ C_ 0.468658 0.999892 0.746092 0.05793
Br Br 0.0723524 0.509523 0.742051 -0.17191
Br Br 0.328193 0.488085 0.765315 -0.17191
Br Br 0.173025 -0.0050480000000000524 0.730925 -0.17191
Br Br 0.425056 1.00379183 0.743899 -0.17191
N_ N_ 0.121688 0.243502 0.845257 -0.272
N_ N_ 0.376421 0.24211 0.857951 -0.272
N_ N_ 0.113357 0.240107 0.978626 -0.12501
N_ N_ 0.362753 0.244904 0.986609 -0.12501
N_ N_ 0.120214 0.245869 0.637392 -0.272
N_ N_ 0.374616 0.25066 0.644927 -0.272
N_ N_ 0.11909 0.237834 0.503333 -0.12501
N_ N_ 0.384463 0.270514 0.513877 -0.12501
O_ O_ 0.0905694 0.294183 0.704961 -0.60745
O_ O_ 0.344628 0.284387 0.725091 -0.60745
O_ O_ 0.0944206 0.29318 0.773207 -0.60745
O_ O_ 0.342009 0.285189 0.793112 -0.60745
O_ O_ 0.15496 0.288628 0.780961 -0.60745
O_ O_ 0.407044 0.293815 0.78946 -0.60745
O_ O_ 0.150191 0.295614 0.711494 -0.60745
O_ O_ 0.40929 0.290572 0.723199 -0.60745
O_ O_ 0.15985 0.209198 0.779953 -0.60745
O_ O_ 0.403973 0.198862 0.787033 -0.60745
O_ O_ 0.1508 0.201044 0.711234 -0.60745
O_ O_ 0.409598 0.206964 0.719587 -0.60745
O_ O_ 0.0911946 0.201541 0.705739 -0.60745
O_ O_ 0.345293 0.205379 0.718545 -0.60745
O_ O_ 0.093343 0.19899 0.774362 -0.60745
O_ O_ 0.342947 0.20384 0.787828 -0.60745
Zn Zn 0.125012 0.752815 0.281964 0.9476
Zn Zn 0.376247 0.748874 0.286829 0.9476
Zn Zn 0.128417 0.753435 0.213054 0.9476
Zn Zn 0.372709 0.753234 0.216806 0.9476
H_ H_ 0.0265053 0.908381 0.172081 0.10932
H_ H_ 0.279609 0.917754 0.184977 0.10932
H_ H_ 0.0690277 0.862118 0.308185 0.10932
H_ H_ 0.322711 0.862946 0.319107 0.10932
H_ H_ 0.0563397 0.844637 0.176504 0.10932
H_ H_ 0.312629 0.859811 0.183641 0.10932
H_ H_ 0.035507 0.921694 0.307298 0.10932
H_ H_ 0.290672 0.925046 0.320195 0.10932
H_ H_ 0.224434 0.910698 0.320108 0.10932
H_ H_ 0.484744 0.906086 0.314013 0.10932
H_ H_ 0.175582 0.864269 0.18823 0.10932
H_ H_ 0.417234 0.874057 0.190453 0.10932
H_ H_ 0.198747 0.842261 0.314711 0.10932
H_ H_ 0.453833 0.845414 0.316254 0.10932
H_ H_ 0.199666 0.932863 0.191931 0.10932
H_ H_ 0.446603 0.93976 0.19492 0.10932
H_ H_ 0.202688 0.576193 0.31006 0.10932
H_ H_ 0.456907 0.573479 0.320132 0.10932
H_ H_ 0.206107 0.666604 0.185618 0.10932
H_ H_ 0.442981 0.656593 0.189439 0.10932
H_ H_ 0.185176 0.647889 0.31228 0.10932
H_ H_ 0.429064 0.642262 0.320071 0.10932
H_ H_ 0.22161 0.595353 0.181369 0.10932
H_ H_ 0.470956 0.589636 0.188421 0.10932
H_ H_ 0.0416174 0.577963 0.1761 0.10932
H_ H_ 0.280708 0.58291 0.181918 0.10932
H_ H_ 0.0554579 0.659005 0.307195 0.10932
H_ H_ 0.31697 0.646446 0.314794 0.10932
H_ H_ 0.0753775 0.639542 0.178135 0.10932
H_ H_ 0.307367 0.649031 0.177351 0.10932
H_ H_ 0.0289762 0.595317 0.312 0.10932
H_ H_ 0.289238 0.581048 0.317257 0.10932
H_ H_ 0.115644 0.817539 0.349519 0.10932
H_ H_ 0.375031 0.812271 0.359473 0.10932
H_ H_ 0.13167 0.686389 0.358589 0.10932
H_ H_ 0.370046 0.681029 0.359771 0.10932
H_ H_ 0.122795 0.689219 0.436812 0.10932
H_ H_ 0.36841 0.679598 0.437638 0.10932
H_ H_ 0.116652 0.824295 0.426342 0.10932
H_ H_ 0.377677 0.814982 0.437032 0.10932
H_ H_ 0.136157 0.687565 0.135569 0.10932
H_ H_ 0.377744 0.690443 0.149377 0.10932
H_ H_ 0.121578 0.818572 0.141285 0.10932
H_ H_ 0.363522 0.81995 0.13826 0.10932
H_ H_ 0.132801 0.823938 0.0647192 0.10932
H_ H_ 0.375396 0.813164 0.0640307 0.10932
H_ H_ 0.140532 0.691516 0.0618991 0.10932
H_ H_ 0.389631 0.686678 0.0731498 0.10932
C_ C_ 0.0636021 0.847127 0.242647 -0.02249
C_ C_ 0.318545 0.853723 0.251844 -0.02249
C_ C_ 0.0154423 0.96184 0.236482 -0.02249
C_ C_ 0.265479 0.966333 0.255343 -0.02249
C_ C_ 0.0357175 0.899139 0.202153 -0.11473
C_ C_ 0.291731 0.909618 0.214366 -0.11473
C_ C_ 0.0564691 0.867652 0.280746 -0.11473
C_ C_ 0.311986 0.873384 0.289831 -0.11473
C_ C_ 0.0534402 0.863793 0.204669 -0.11473
C_ C_ 0.308338 0.872709 0.214044 -0.11473
C_ C_ 0.0305734 0.922827 0.238513 -0.02249
C_ C_ 0.282096 0.927304 0.252764 -0.02249
C_ C_ 0.0871556 0.813792 0.244087 0.6875
C_ C_ 0.336958 0.814531 0.24984 0.6875
C_ C_ 0.0382206 0.904525 0.278149 -0.11473
C_ C_ 0.296547 0.911299 0.290323 -0.11473
C_ C_ 0.186148 0.849189 0.250801 -0.02249
C_ C_ 0.435921 0.849792 0.252276 -0.02249
C_ C_ 0.233223 0.967063 0.255325 -0.02249
C_ C_ 0.486282 0.965306 0.253117 -0.02249
C_ C_ 0.215509 0.900218 0.291017 -0.11473
C_ C_ 0.472495 0.897449 0.286412 -0.11473
C_ C_ 0.186694 0.87598 0.216271 -0.11473
C_ C_ 0.431897 0.879129 0.219268 -0.11473
C_ C_ 0.200575 0.861408 0.288436 -0.11473
C_ C_ 0.454266 0.860887 0.288017 -0.11473
C_ C_ 0.216983 0.925658 0.25462 -0.02249
C_ C_ 0.467889 0.927102 0.254274 -0.02249
C_ C_ 0.163702 0.814685 0.249392 0.6875
C_ C_ 0.414342 0.812986 0.252524 0.6875
C_ C_ 0.201189 0.913136 0.217838 -0.11473
C_ C_ 0.449993 0.915944 0.219883 -0.11473
C_ C_ 0.190309 0.66062 0.249085 -0.02249
C_ C_ 0.435527 0.655411 0.254996 -0.02249
C_ C_ 0.231525 0.539799 0.246555 -0.02249
C_ C_ 0.483201 0.537659 0.252427 -0.02249
C_ C_ 0.203027 0.595253 0.282885 -0.11473
C_ C_ 0.455748 0.59343 0.292487 -0.11473
C_ C_ 0.204684 0.645538 0.212322 -0.11473
C_ C_ 0.447657 0.639537 0.218286 -0.11473
C_ C_ 0.191551 0.635327 0.283658 -0.11473
C_ C_ 0.440592 0.632893 0.292269 -0.11473
C_ C_ 0.214833 0.581505 0.245535 -0.02249
C_ C_ 0.467093 0.578408 0.254407 -0.02249
C_ C_ 0.168883 0.696412 0.249422 0.6875
C_ C_ 0.41423 0.691291 0.255176 0.6875
C_ C_ 0.212438 0.603815 0.210027 -0.11473
C_ C_ 0.464598 0.603133 0.21794 -0.11473
C_ C_ 0.0682973 0.653247 0.243603 -0.02249
C_ C_ 0.314179 0.653311 0.247296 -0.02249
C_ C_ 0.0156623 0.542656 0.244869 -0.02249
C_ C_ 0.264697 0.541302 0.247418 -0.02249
C_ C_ 0.0492083 0.591409 0.207209 -0.11473
C_ C_ 0.28599 0.600016 0.210646 -0.11473
C_ C_ 0.0580626 0.639182 0.282476 -0.11473
C_ C_ 0.309628 0.631293 0.285976 -0.11473
C_ C_ 0.0657728 0.628932 0.207944 -0.11473
C_ C_ 0.301635 0.637885 0.208873 -0.11473
C_ C_ 0.0357815 0.579667 0.244908 -0.02249
C_ C_ 0.281361 0.580272 0.248675 -0.02249
C_ C_ 0.0895987 0.690698 0.244246 0.6875
C_ C_ 0.334228 0.691774 0.248657 0.6875
C_ C_ 0.0405271 0.601996 0.282657 -0.11473
C_ C_ 0.291358 0.596396 0.286184 -0.11473
C_ C_ 0.116601 0.788823 0.371036 0.17695
C_ C_ 0.375206 0.783892 0.377424 0.17695
C_ C_ 0.126237 0.715285 0.374462 0.17695
C_ C_ 0.371516 0.709916 0.377408 0.17695
C_ C_ 0.120717 0.717282 0.419044 -0.11473
C_ C_ 0.371814 0.710196 0.422702 -0.11473
C_ C_ 0.117044 0.756263 0.438861 0.23465
C_ C_ 0.375673 0.748578 0.444995 0.23465
C_ C_ 0.115703 0.792182 0.413716 -0.11473
C_ C_ 0.376206 0.784641 0.421687 -0.11473
C_ C_ 0.13613 0.718589 0.122446 0.17695
C_ C_ 0.379306 0.718126 0.131329 0.17695
C_ C_ 0.129215 0.791758 0.124041 0.17695
C_ C_ 0.367738 0.78825 0.124127 0.17695
C_ C_ 0.131153 0.793715 0.0795213 -0.11473
C_ C_ 0.374265 0.786469 0.0821005 -0.11473
C_ C_ 0.134702 0.757452 0.0572178 0.23465
C_ C_ 0.381825 0.749533 0.062124 0.23465
C_ C_ 0.136562 0.720605 0.0791578 -0.11473
C_ C_ 0.384866 0.71572 0.0875697 -0.11473
C_ C_ 0.0326823 0.998819 0.24232 0.05793
C_ C_ 0.280184 1.0045584 0.248502 0.05793
C_ C_ 0.217857 0.499123 0.241055 0.05793
C_ C_ 0.46729 0.499153 0.252229 0.05793
Br Br 0.0748694 -0.0023100000000000342 0.237447 -0.17191
Br Br 0.32345 1.00511539 0.23253 -0.17191
Br Br 0.173482 0.496048 0.236402 -0.17191
Br Br 0.424912 0.502358 0.247355 -0.17191
N_ N_ 0.122941 0.752217 0.351482 -0.272
N_ N_ 0.374932 0.746598 0.356444 -0.272
N_ N_ 0.113441 0.759377 0.482703 -0.12501
N_ N_ 0.37258 0.754751 0.489416 -0.12501
N_ N_ 0.129718 0.754272 0.143125 -0.272
N_ N_ 0.371783 0.754201 0.14788 -0.272
N_ N_ 0.132832 0.761783 0.0115624 -0.12501
N_ N_ 0.384908 0.743325 0.0171599 -0.12501
O_ O_ 0.0976286 0.798796 0.210513 -0.60745
O_ O_ 0.343655 0.798815 0.215474 -0.60745
O_ O_ 0.0915652 0.794373 0.277078 -0.60745
O_ O_ 0.342167 0.792872 0.283358 -0.60745
O_ O_ 0.156481 0.796506 0.283076 -0.60745
O_ O_ 0.407786 0.796766 0.287296 -0.60745
O_ O_ 0.155752 0.797904 0.214762 -0.60745
O_ O_ 0.401382 0.800777 0.219061 -0.60745
O_ O_ 0.154945 0.707565 0.281812 -0.60745
O_ O_ 0.405176 0.704381 0.289718 -0.60745
O_ O_ 0.16152 0.710728 0.213077 -0.60745
O_ O_ 0.406807 0.710225 0.222853 -0.60745
O_ O_ 0.0984383 0.707618 0.210742 -0.60745
O_ O_ 0.343673 0.704868 0.214604 -0.60745
O_ O_ 0.0936345 0.709506 0.278245 -0.60745
O_ O_ 0.344551 0.707032 0.282011 -0.60745
Zn Zn 0.12691 0.746449 0.785013 0.9476
Zn Zn 0.372783 0.749317 0.787434 0.9476
Zn Zn 0.128422 0.746462 0.711187 0.9476
Zn Zn 0.376749 0.746864 0.719238 0.9476
H_ H_ 0.0415573 0.923595 0.686776 0.10932
H_ H_ 0.296877 0.915767 0.677017 0.10932
H_ H_ 0.055024 0.834825 0.812046 0.10932
H_ H_ 0.308415 0.855613 0.818377 0.10932
H_ H_ 0.0711614 0.858433 0.683547 0.10932
H_ H_ 0.315452 0.844604 0.68593 0.10932
H_ H_ 0.0230238 0.899285 0.8155 0.10932
H_ H_ 0.280412 0.920869 0.806846 0.10932
H_ H_ 0.213367 0.920618 0.805553 0.10932
H_ H_ 0.452453 0.930745 0.812424 0.10932
H_ H_ 0.186255 0.84911 0.673522 0.10932
H_ H_ 0.449893 0.836839 0.686609 0.10932
H_ H_ 0.194706 0.848507 0.812954 0.10932
H_ H_ 0.42281 0.868191 0.815975 0.10932
H_ H_ 0.218812 0.909644 0.675698 0.10932
H_ H_ 0.474444 0.904628 0.687196 0.10932
H_ H_ 0.224412 0.582849 0.812168 0.10932
H_ H_ 0.458727 0.582127 0.818817 0.10932
H_ H_ 0.192731 0.646782 0.677587 0.10932
H_ H_ 0.447405 0.660873 0.689054 0.10932
H_ H_ 0.194652 0.645441 0.814518 0.10932
H_ H_ 0.432706 0.649254 0.820229 0.10932
H_ H_ 0.217995 0.579865 0.675077 0.10932
H_ H_ 0.476121 0.59305 0.687555 0.10932
H_ H_ 0.0311538 0.582649 0.679326 0.10932
H_ H_ 0.284967 0.580829 0.684134 0.10932
H_ H_ 0.0614254 0.645058 0.815617 0.10932
H_ H_ 0.313479 0.643 0.821335 0.10932
H_ H_ 0.0558821 0.649874 0.678742 0.10932
H_ H_ 0.310573 0.645018 0.685787 0.10932
H_ H_ 0.0333748 0.581571 0.811056 0.10932
H_ H_ 0.294365 0.571646 0.819454 0.10932
H_ H_ 0.135182 0.810612 0.866668 0.10932
H_ H_ 0.372312 0.823986 0.856857 0.10932
H_ H_ 0.128255 0.679378 0.850965 0.10932
H_ H_ 0.377547 0.6922 0.870638 0.10932
H_ H_ 0.137187 0.67223 0.929327 0.10932
H_ H_ 0.380464 0.698614 0.948487 0.10932
H_ H_ 0.14428 0.80263 0.945507 0.10932
H_ H_ 0.376615 0.829767 0.935843 0.10932
H_ H_ 0.173299 0.731884 0.638374 0.10932
H_ H_ 0.382659 0.676439 0.650383 0.10932
H_ H_ 0.0841227 0.771801 0.633796 0.10932
H_ H_ 0.359199 0.80418 0.637528 0.10932
H_ H_ 0.0817701 0.756823 0.554526 0.10932
H_ H_ 0.356612 0.795819 0.561288 0.10932
H_ H_ 0.174625 0.722545 0.557848 0.10932
H_ H_ 0.378664 0.667105 0.573532 0.10932
C_ C_ 0.0686321 0.844767 0.749815 -0.02249
C_ C_ 0.31396 0.843991 0.752542 -0.02249
C_ C_ 0.0144274 0.955151 0.751997 -0.02249
C_ C_ 0.265351 0.96418 0.736198 -0.02249
C_ C_ 0.0447907 0.90413 0.714667 -0.11473
C_ C_ 0.297104 0.902696 0.707454 -0.11473
C_ C_ 0.052008 0.854394 0.784888 -0.11473
C_ C_ 0.303975 0.866126 0.787389 -0.11473
C_ C_ 0.0619202 0.867368 0.712224 -0.11473
C_ C_ 0.310248 0.863339 0.71343 -0.11473
C_ C_ 0.0305489 0.914414 0.752069 -0.02249
C_ C_ 0.285354 0.924478 0.74128 -0.02249
C_ C_ 0.090004 0.808672 0.749828 0.6875
C_ C_ 0.332336 0.806323 0.757527 0.6875
C_ C_ 0.0337527 0.889556 0.787536 -0.11473
C_ C_ 0.288742 0.904843 0.781263 -0.11473
C_ C_ 0.185489 0.844698 0.74401 -0.02249
C_ C_ 0.430983 0.849148 0.751316 -0.02249
C_ C_ 0.233063 0.962048 0.738713 -0.02249
C_ C_ 0.481653 0.959788 0.746409 -0.02249
C_ C_ 0.209393 0.903243 0.778586 -0.11473
C_ C_ 0.450348 0.909905 0.785428 -0.11473
C_ C_ 0.195103 0.860296 0.704619 -0.11473
C_ C_ 0.44802 0.857662 0.71527 -0.11473
C_ C_ 0.19744 0.863603 0.781208 -0.11473
C_ C_ 0.434861 0.874347 0.787271 -0.11473
C_ C_ 0.217604 0.921088 0.740708 -0.02249
C_ C_ 0.463905 0.922297 0.749321 -0.02249
C_ C_ 0.169895 0.804085 0.745926 0.6875
C_ C_ 0.410571 0.810741 0.749686 0.6875
C_ C_ 0.212629 0.897926 0.703589 -0.11473
C_ C_ 0.463359 0.895319 0.714454 -0.11473
C_ C_ 0.189188 0.648112 0.74467 -0.02249
C_ C_ 0.438618 0.659716 0.7541 -0.02249
C_ C_ 0.237943 0.53301 0.745901 -0.02249
C_ C_ 0.482207 0.540992 0.750761 -0.02249
C_ C_ 0.215921 0.593873 0.783273 -0.11473
C_ C_ 0.454505 0.597795 0.788792 -0.11473
C_ C_ 0.19771 0.629701 0.707153 -0.11473
C_ C_ 0.449646 0.643021 0.716079 -0.11473
C_ C_ 0.199274 0.631872 0.784303 -0.11473
C_ C_ 0.441985 0.637533 0.79119 -0.11473
C_ C_ 0.223554 0.574868 0.744609 -0.02249
C_ C_ 0.467972 0.583174 0.7526 -0.02249
C_ C_ 0.170989 0.687754 0.744467 0.6875
C_ C_ 0.416561 0.692751 0.753527 0.6875
C_ C_ 0.212986 0.592608 0.706273 -0.11473
C_ C_ 0.464085 0.603931 0.714326 -0.11473
C_ C_ 0.0610587 0.654931 0.746003 -0.02249
C_ C_ 0.320966 0.644031 0.753713 -0.02249
C_ C_ 0.0120588 0.538837 0.746768 -0.02249
C_ C_ 0.269818 0.53063 0.752024 -0.02249
C_ C_ 0.0354446 0.597835 0.70762 -0.11473
C_ C_ 0.296188 0.58983 0.713697 -0.11473
C_ C_ 0.0544459 0.63416 0.78489 -0.11473
C_ C_ 0.312939 0.625651 0.790821 -0.11473
C_ C_ 0.0485732 0.639255 0.708789 -0.11473
C_ C_ 0.314127 0.625335 0.714801 -0.11473
C_ C_ 0.0282952 0.579357 0.745889 -0.02249
C_ C_ 0.28751 0.569297 0.752048 -0.02249
C_ C_ 0.0840924 0.688837 0.747849 0.6875
C_ C_ 0.338859 0.683641 0.755434 0.6875
C_ C_ 0.0360169 0.600014 0.783086 -0.11473
C_ C_ 0.297983 0.587701 0.790558 -0.11473
C_ C_ 0.139064 0.779703 0.880606 0.17695
C_ C_ 0.372494 0.796078 0.876987 0.17695
C_ C_ 0.133 0.706861 0.872561 0.17695
C_ C_ 0.377844 0.72247 0.883087 0.17695
C_ C_ 0.13616 0.702458 0.917675 -0.11473
C_ C_ 0.379439 0.726781 0.926879 -0.11473
C_ C_ 0.139941 0.736094 0.943361 0.23465
C_ C_ 0.376239 0.766388 0.946282 0.23465
C_ C_ 0.144718 0.775552 0.925034 -0.11473
C_ C_ 0.374772 0.800459 0.920011 -0.11473
C_ C_ 0.154019 0.737859 0.617729 0.17695
C_ C_ 0.382088 0.703542 0.631069 0.17695
C_ C_ 0.1032 0.756361 0.6164 0.17695
C_ C_ 0.366217 0.774243 0.622887 0.17695
C_ C_ 0.103148 0.753161 0.572465 -0.11473
C_ C_ 0.365143 0.769439 0.579136 -0.11473
C_ C_ 0.129507 0.741111 0.551685 0.23465
C_ C_ 0.372211 0.731524 0.559105 0.23465
C_ C_ 0.155454 0.733656 0.574257 -0.11473
C_ C_ 0.37871 0.698713 0.586164 -0.11473
C_ C_ 0.0299806 -0.005252999999999952 0.749446 0.05793
C_ C_ 0.278774 0.0038577 0.7328 0.05793
C_ C_ 0.220927 0.496355 0.744584 0.05793
C_ C_ 0.466275 0.503079 0.752334 0.05793
Br Br 0.071212 -0.004657000000000022 0.769549 -0.17191
Br Br 0.322416 0.00753129 0.73419 -0.17191
Br Br 0.17791 0.49994 0.735827 -0.17191
Br Br 0.422303 0.507514 0.753752 -0.17191
N_ N_ 0.134452 0.74616 0.855872 -0.272
N_ N_ 0.375764 0.757609 0.859307 -0.272
N_ N_ 0.139011 0.73194 0.987772 -0.12501
N_ N_ 0.380553 0.772273 0.991612 -0.12501
N_ N_ 0.128259 0.745618 0.638322 -0.272
N_ N_ 0.375 0.741608 0.647007 -0.272
N_ N_ 0.130692 0.738932 0.506524 -0.12501
N_ N_ 0.373707 0.725676 0.514859 -0.12501
O_ O_ 0.0962406 0.789803 0.716247 -0.60745
O_ O_ 0.340896 0.785436 0.726829 -0.60745
O_ O_ 0.0986826 0.793164 0.784117 -0.60745
O_ O_ 0.340451 0.792588 0.792723 -0.60745
O_ O_ 0.161288 0.788181 0.779538 -0.60745
O_ O_ 0.404382 0.793019 0.782808 -0.60745
O_ O_ 0.161448 0.788248 0.712726 -0.60745
O_ O_ 0.401827 0.795735 0.714861 -0.60745
O_ O_ 0.156111 0.696865 0.777418 -0.60745
O_ O_ 0.403167 0.704697 0.785537 -0.60745
O_ O_ 0.162915 0.704537 0.71014 -0.60745
O_ O_ 0.408934 0.706483 0.71782 -0.60745
O_ O_ 0.0978804 0.698513 0.714359 -0.60745
O_ O_ 0.348369 0.699839 0.721124 -0.60745
O_ O_ 0.0910647 0.706712 0.782336 -0.60745
O_ O_ 0.342977 0.699767 0.791268 -0.60745
Zn Zn 0.626505 0.252385 0.294132 0.9476
Zn Zn 0.87529 0.251907 0.288877 0.9476
Zn Zn 0.627453 0.250904 0.221307 0.9476
Zn Zn 0.876316 0.253618 0.217046 0.9476
H_ H_ 0.544597 0.424794 0.195843 0.10932
H_ H_ 0.802174 0.433144 0.197465 0.10932
H_ H_ 0.555133 0.344555 0.326407 0.10932
H_ H_ 0.800881 0.343644 0.322274 0.10932
H_ H_ 0.573028 0.363435 0.193424 0.10932
H_ H_ 0.82003 0.360662 0.193405 0.10932
H_ H_ 0.526806 0.409008 0.327796 0.10932
H_ H_ 0.775271 0.413424 0.319654 0.10932
H_ H_ 0.711492 0.430264 0.316363 0.10932
H_ H_ 0.971336 0.419985 0.318256 0.10932
H_ H_ 0.699925 0.337084 0.197428 0.10932
H_ H_ 0.930747 0.359069 0.186937 0.10932
H_ H_ 0.679195 0.36954 0.322633 0.10932
H_ H_ 0.94153 0.355544 0.31992 0.10932
H_ H_ 0.727278 0.402358 0.187106 0.10932
H_ H_ 0.960673 0.424439 0.183386 0.10932
H_ H_ 0.699372 0.0654174 0.318363 0.10932
H_ H_ 0.974079 0.0913304 0.307884 0.10932
H_ H_ 0.707668 0.163974 0.197527 0.10932
H_ H_ 0.936659 0.152263 0.173329 0.10932
H_ H_ 0.669266 0.135888 0.317065 0.10932
H_ H_ 0.947489 0.158657 0.308551 0.10932
H_ H_ 0.733584 0.0974466 0.199459 0.10932
H_ H_ 0.962376 0.0862448 0.173129 0.10932
H_ H_ 0.529593 0.0976372 0.180595 0.10932
H_ H_ 0.796991 0.0661642 0.193413 0.10932
H_ H_ 0.58381 0.135794 0.312893 0.10932
H_ H_ 0.804591 0.158006 0.316629 0.10932
H_ H_ 0.558336 0.160275 0.183202 0.10932
H_ H_ 0.828522 0.129006 0.187649 0.10932
H_ H_ 0.551978 0.0727394 0.309589 0.10932
H_ H_ 0.776243 0.0933107 0.32052 0.10932
H_ H_ 0.613614 0.187563 0.361931 0.10932
H_ H_ 0.896784 0.184612 0.36006 0.10932
H_ H_ 0.644735 0.311862 0.370309 0.10932
H_ H_ 0.865973 0.309509 0.364149 0.10932
H_ H_ 0.635399 0.307058 0.450662 0.10932
H_ H_ 0.855609 0.299575 0.442637 0.10932
H_ H_ 0.619004 0.178928 0.438506 0.10932
H_ H_ 0.889253 0.174786 0.437403 0.10932
H_ H_ 0.614102 0.198941 0.140969 0.10932
H_ H_ 0.827617 0.238356 0.143381 0.10932
H_ H_ 0.648803 0.321413 0.150418 0.10932
H_ H_ 0.91602 0.283749 0.141872 0.10932
H_ H_ 0.651417 0.326634 0.0729596 0.10932
H_ H_ 0.9157 0.280514 0.0616233 0.10932
H_ H_ 0.623552 0.203056 0.0617345 0.10932
H_ H_ 0.82819 0.223868 0.0691201 0.10932
C_ C_ 0.566238 0.346765 0.26018 -0.02249
C_ C_ 0.816133 0.349885 0.257207 -0.02249
C_ C_ 0.514791 0.460568 0.262121 -0.02249
C_ C_ 0.765404 0.464144 0.255253 -0.02249
C_ C_ 0.546597 0.407002 0.224759 -0.11473
C_ C_ 0.797961 0.411091 0.221795 -0.11473
C_ C_ 0.554843 0.362476 0.297636 -0.11473
C_ C_ 0.803762 0.365194 0.294563 -0.11473
C_ C_ 0.56077 0.369834 0.222284 -0.11473
C_ C_ 0.811387 0.372547 0.222075 -0.11473
C_ C_ 0.532804 0.42122 0.261775 -0.02249
C_ C_ 0.782078 0.423554 0.25543 -0.02249
C_ C_ 0.586598 0.31192 0.260294 0.6875
C_ C_ 0.835288 0.311261 0.25595 0.6875
C_ C_ 0.537499 0.397957 0.298636 -0.11473
C_ C_ 0.785742 0.400701 0.292538 -0.11473
C_ C_ 0.685759 0.349715 0.258378 -0.02249
C_ C_ 0.934927 0.351647 0.254072 -0.02249
C_ C_ 0.734257 0.464004 0.246646 -0.02249
C_ C_ 0.981758 0.467753 0.249764 -0.02249
C_ C_ 0.705269 0.411872 0.288559 -0.11473
C_ C_ 0.962488 0.407222 0.28885 -0.11473
C_ C_ 0.697721 0.360701 0.219805 -0.11473
C_ C_ 0.939015 0.372663 0.215828 -0.11473
C_ C_ 0.689941 0.375353 0.292974 -0.11473
C_ C_ 0.947837 0.368847 0.291036 -0.11473
C_ C_ 0.715099 0.42524 0.247087 -0.02249
C_ C_ 0.964367 0.429161 0.250978 -0.02249
C_ C_ 0.666369 0.311902 0.260655 0.6875
C_ C_ 0.914245 0.314035 0.256628 0.6875
C_ C_ 0.713331 0.397463 0.214906 -0.11473
C_ C_ 0.953559 0.412008 0.213111 -0.11473
C_ C_ 0.681444 0.151159 0.255129 -0.02249
C_ C_ 0.93581 0.155876 0.241808 -0.02249
C_ C_ 0.734594 0.0379766 0.252779 -0.02249
C_ C_ 0.985197 0.0404484 0.238124 -0.02249
C_ C_ 0.699081 0.0876948 0.289828 -0.11473
C_ C_ 0.964335 0.103128 0.278518 -0.11473
C_ C_ 0.700206 0.141586 0.220514 -0.11473
C_ C_ 0.945733 0.139865 0.203037 -0.11473
C_ C_ 0.681212 0.124856 0.28931 -0.11473
C_ C_ 0.949162 0.141024 0.279368 -0.11473
C_ C_ 0.716201 0.0770901 0.253646 -0.02249
C_ C_ 0.968382 0.0814417 0.241204 -0.02249
C_ C_ 0.665218 0.191349 0.255409 0.6875
C_ C_ 0.91812 0.196569 0.243928 0.6875
C_ C_ 0.716237 0.103703 0.22004 -0.11473
C_ C_ 0.960702 0.102335 0.203941 -0.11473
C_ C_ 0.569945 0.15518 0.249889 -0.02249
C_ C_ 0.819341 0.150393 0.252012 -0.02249
C_ C_ 0.519856 0.0394972 0.248124 -0.02249
C_ C_ 0.766533 0.0391806 0.259977 -0.02249
C_ C_ 0.537771 0.105858 0.211194 -0.11473
C_ C_ 0.795038 0.0905182 0.21645 -0.11473
C_ C_ 0.571008 0.127782 0.283305 -0.11473
C_ C_ 0.803111 0.140307 0.288807 -0.11473
C_ C_ 0.554737 0.143282 0.212862 -0.11473
C_ C_ 0.816103 0.122415 0.217275 -0.11473
C_ C_ 0.537589 0.0797595 0.246726 -0.02249
C_ C_ 0.781075 0.0795795 0.254448 -0.02249
C_ C_ 0.585083 0.196778 0.252234 0.6875
C_ C_ 0.839712 0.188519 0.252109 0.6875
C_ C_ 0.554315 0.0903651 0.281551 -0.11473
C_ C_ 0.783264 0.10703 0.289665 -0.11473
C_ C_ 0.62249 0.212249 0.380408 0.17695
C_ C_ 0.88859 0.210934 0.376944 0.17695
C_ C_ 0.634289 0.283251 0.387281 0.17695
C_ C_ 0.870575 0.280205 0.380685 0.17695
C_ C_ 0.632078 0.279959 0.432139 -0.11473
C_ C_ 0.867843 0.277326 0.424569 -0.11473
C_ C_ 0.624103 0.241487 0.44928 0.23465
C_ C_ 0.879106 0.240604 0.444022 0.23465
C_ C_ 0.619885 0.207772 0.422728 -0.11473
C_ C_ 0.886591 0.206816 0.420409 -0.11473
C_ C_ 0.623037 0.225883 0.126318 0.17695
C_ C_ 0.848104 0.244386 0.126669 0.17695
C_ C_ 0.641477 0.295719 0.132327 0.17695
C_ C_ 0.897898 0.269554 0.123909 0.17695
C_ C_ 0.642137 0.299268 0.0878841 -0.11473
C_ C_ 0.897171 0.267377 0.0785437 -0.11473
C_ C_ 0.632513 0.266722 0.0632565 0.23465
C_ C_ 0.87079 0.255028 0.0583426 0.23465
C_ C_ 0.627113 0.228612 0.0825809 -0.11473
C_ C_ 0.845444 0.24233 0.0831152 -0.11473
C_ C_ 0.531233 0.497727 0.257179 0.05793
C_ C_ 0.781013 0.501829 0.257647 0.05793
C_ C_ 0.719139 1.00104 0.251331 0.05793
C_ C_ 0.968574 1.00279359 0.235559 0.05793
Br Br 0.57441 0.496622 0.262475 -0.17191
Br Br 0.821355 0.503901 0.278915 -0.17191
Br Br 0.676225 -0.0015600000000000058 0.244828 -0.17191
Br Br 0.926469 0.00531577 0.230014 -0.17191
N_ N_ 0.627224 0.250051 0.362484 -0.272
N_ N_ 0.882011 0.247949 0.358043 -0.272
N_ N_ 0.621729 0.236272 0.495245 -0.12501
N_ N_ 0.873935 0.237301 0.48766 -0.12501
N_ N_ 0.63043 0.258916 0.151001 -0.272
N_ N_ 0.873552 0.256941 0.14734 -0.272
N_ N_ 0.632862 0.271757 0.0171608 -0.12501
N_ N_ 0.868109 0.252939 0.0132028 -0.12501
O_ O_ 0.601767 0.304303 0.228562 -0.60745
O_ O_ 0.844843 0.296928 0.221605 -0.60745
O_ O_ 0.593798 0.296248 0.294321 -0.60745
O_ O_ 0.841509 0.293634 0.289508 -0.60745
O_ O_ 0.658124 0.29801 0.294723 -0.60745
O_ O_ 0.907366 0.296302 0.29078 -0.60745
O_ O_ 0.66286 0.29118 0.227377 -0.60745
O_ O_ 0.906974 0.298006 0.221971 -0.60745
O_ O_ 0.657692 0.208088 0.289942 -0.60745
O_ O_ 0.908377 0.210468 0.27833 -0.60745
O_ O_ 0.654124 0.203994 0.22117 -0.60745
O_ O_ 0.905346 0.206583 0.209407 -0.60745
O_ O_ 0.592243 0.215253 0.219918 -0.60745
O_ O_ 0.841286 0.211204 0.219222 -0.60745
O_ O_ 0.596125 0.207533 0.286119 -0.60745
O_ O_ 0.848601 0.202993 0.287321 -0.60745
Zn Zn 0.621996 0.248217 0.791499 0.9476
Zn Zn 0.876882 0.247958 0.783251 0.9476
Zn Zn 0.620836 0.250401 0.721774 0.9476
Zn Zn 0.876141 0.24535 0.714978 0.9476
H_ H_ 0.533428 0.416727 0.691725 0.10932
H_ H_ 0.780098 0.40987 0.680703 0.10932
H_ H_ 0.554636 0.349071 0.827162 0.10932
H_ H_ 0.830943 0.357942 0.811785 0.10932
H_ H_ 0.571509 0.366479 0.692373 0.10932
H_ H_ 0.803931 0.341565 0.685485 0.10932
H_ H_ 0.534057 0.418459 0.826059 0.10932
H_ H_ 0.795407 0.419731 0.815932 0.10932
H_ H_ 0.707895 0.420143 0.821135 0.10932
H_ H_ 0.954292 0.425607 0.812415 0.10932
H_ H_ 0.681672 0.347831 0.689505 0.10932
H_ H_ 0.957104 0.3349 0.686476 0.10932
H_ H_ 0.672868 0.363496 0.819801 0.10932
H_ H_ 0.923707 0.363148 0.809055 0.10932
H_ H_ 0.722001 0.403598 0.68801 0.10932
H_ H_ 0.982369 0.401883 0.684213 0.10932
H_ H_ 0.713445 0.080002 0.82037 0.10932
H_ H_ 0.953403 0.0671522 0.822218 0.10932
H_ H_ 0.698874 0.157967 0.685239 0.10932
H_ H_ 0.942414 0.148414 0.685785 0.10932
H_ H_ 0.687283 0.148849 0.818353 0.10932
H_ H_ 0.925898 0.134765 0.817179 0.10932
H_ H_ 0.723046 0.088308 0.686946 0.10932
H_ H_ 0.974097 0.0836421 0.687142 0.10932
H_ H_ 0.535346 0.0801339 0.686956 0.10932
H_ H_ 0.784335 0.0794914 0.687541 0.10932
H_ H_ 0.565453 0.14281 0.821908 0.10932
H_ H_ 0.819251 0.146692 0.820211 0.10932
H_ H_ 0.564646 0.145308 0.690443 0.10932
H_ H_ 0.808546 0.14586 0.683642 0.10932
H_ H_ 0.535022 0.0775432 0.821766 0.10932
H_ H_ 0.782958 0.0867342 0.820916 0.10932
H_ H_ 0.641914 0.310091 0.866249 0.10932
H_ H_ 0.839043 0.219175 0.8645 0.10932
H_ H_ 0.618364 0.181152 0.863596 0.10932
H_ H_ 0.916988 0.289694 0.855455 0.10932
H_ H_ 0.622569 0.178709 0.940526 0.10932
H_ H_ 0.924315 0.293267 0.931894 0.10932
H_ H_ 0.638938 0.309653 0.946272 0.10932
H_ H_ 0.84131 0.226931 0.945313 0.10932
H_ H_ 0.625173 0.188452 0.642076 0.10932
H_ H_ 0.925115 0.255117 0.647191 0.10932
H_ H_ 0.61332 0.317855 0.650431 0.10932
H_ H_ 0.830275 0.241282 0.634081 0.10932
H_ H_ 0.623115 0.326506 0.576658 0.10932
H_ H_ 0.834121 0.247089 0.558963 0.10932
H_ H_ 0.630695 0.19222 0.56644 0.10932
H_ H_ 0.930607 0.254041 0.571463 0.10932
C_ C_ 0.564429 0.349024 0.760274 -0.02249
C_ C_ 0.818976 0.346653 0.748008 -0.02249
C_ C_ 0.512385 0.464455 0.757971 -0.02249
C_ C_ 0.766071 0.45725 0.749443 -0.02249
C_ C_ 0.538415 0.405699 0.722464 -0.11473
C_ C_ 0.789858 0.398685 0.709921 -0.11473
C_ C_ 0.54878 0.36352 0.797076 -0.11473
C_ C_ 0.818899 0.370537 0.785441 -0.11473
C_ C_ 0.559378 0.373043 0.722507 -0.11473
C_ C_ 0.803733 0.361026 0.711291 -0.11473
C_ C_ 0.527943 0.42273 0.759321 -0.02249
C_ C_ 0.783833 0.418151 0.749308 -0.02249
C_ C_ 0.584257 0.310119 0.760144 0.6875
C_ C_ 0.837326 0.306873 0.747662 0.6875
C_ C_ 0.533356 0.400885 0.796798 -0.11473
C_ C_ 0.798425 0.403701 0.787002 -0.11473
C_ C_ 0.678801 0.348256 0.753417 -0.02249
C_ C_ 0.933302 0.347455 0.745918 -0.02249
C_ C_ 0.734327 0.456429 0.755895 -0.02249
C_ C_ 0.984709 0.460236 0.747391 -0.02249
C_ C_ 0.703952 0.403824 0.791343 -0.11473
C_ C_ 0.952052 0.408101 0.7823 -0.11473
C_ C_ 0.688467 0.364586 0.715751 -0.11473
C_ C_ 0.95251 0.356114 0.711812 -0.11473
C_ C_ 0.684985 0.369809 0.791015 -0.11473
C_ C_ 0.933172 0.374606 0.780212 -0.11473
C_ C_ 0.718113 0.416789 0.754858 -0.02249
C_ C_ 0.970369 0.419106 0.746558 -0.02249
C_ C_ 0.662345 0.309144 0.753867 0.6875
C_ C_ 0.918202 0.306099 0.747228 0.6875
C_ C_ 0.711565 0.396187 0.716217 -0.11473
C_ C_ 0.969525 0.394091 0.711951 -0.11473
C_ C_ 0.687286 0.157953 0.753685 -0.02249
C_ C_ 0.931994 0.145603 0.752085 -0.02249
C_ C_ 0.734571 0.0390165 0.753505 -0.02249
C_ C_ 0.982615 0.0313194 0.756521 -0.02249
C_ C_ 0.709562 0.0975638 0.790802 -0.11473
C_ C_ 0.952994 0.0865424 0.792187 -0.11473
C_ C_ 0.700081 0.141514 0.715299 -0.11473
C_ C_ 0.944107 0.130112 0.715628 -0.11473
C_ C_ 0.69654 0.137785 0.789407 -0.11473
C_ C_ 0.938318 0.124858 0.790709 -0.11473
C_ C_ 0.71896 0.0796157 0.754273 -0.02249
C_ C_ 0.966781 0.0718124 0.755022 -0.02249
C_ C_ 0.663189 0.190615 0.754415 0.6875
C_ C_ 0.913516 0.18525 0.751392 0.6875
C_ C_ 0.714824 0.101787 0.715589 -0.11473
C_ C_ 0.963775 0.0941941 0.716867 -0.11473
C_ C_ 0.571287 0.145904 0.756823 -0.02249
C_ C_ 0.81639 0.152596 0.75143 -0.02249
C_ C_ 0.517749 0.0325543 0.753867 -0.02249
C_ C_ 0.766175 0.0385922 0.757047 -0.02249
C_ C_ 0.54246 0.0926645 0.716978 -0.11473
C_ C_ 0.791784 0.0931701 0.716653 -0.11473
C_ C_ 0.558659 0.129831 0.792979 -0.11473
C_ C_ 0.809506 0.134951 0.79008 -0.11473
C_ C_ 0.560149 0.128076 0.719479 -0.11473
C_ C_ 0.804465 0.132858 0.71379 -0.11473
C_ C_ 0.53624 0.0723267 0.754824 -0.02249
C_ C_ 0.785095 0.0753126 0.754701 -0.02249
C_ C_ 0.587328 0.187204 0.758205 0.6875
C_ C_ 0.837528 0.18727 0.749353 0.6875
C_ C_ 0.544016 0.0904828 0.793042 -0.11473
C_ C_ 0.791485 0.0992124 0.791291 -0.11473
C_ C_ 0.63284 0.282978 0.883234 0.17695
C_ C_ 0.858065 0.233052 0.88121 0.17695
C_ C_ 0.621858 0.209872 0.881691 0.17695
C_ C_ 0.902763 0.270732 0.87439 0.17695
C_ C_ 0.623989 0.208697 0.925217 -0.11473
C_ C_ 0.905492 0.274909 0.918896 -0.11473
C_ C_ 0.626696 0.245209 0.947582 0.23465
C_ C_ 0.884371 0.25704 0.944327 0.23465
C_ C_ 0.633525 0.282148 0.927497 -0.11473
C_ C_ 0.860386 0.235369 0.926518 -0.11473
C_ C_ 0.624808 0.219359 0.628182 0.17695
C_ C_ 0.905292 0.250573 0.627953 0.17695
C_ C_ 0.616777 0.290615 0.632214 0.17695
C_ C_ 0.853004 0.243521 0.621785 0.17695
C_ C_ 0.619307 0.294959 0.589482 -0.11473
C_ C_ 0.854143 0.244785 0.578045 -0.11473
C_ C_ 0.623471 0.25964 0.564378 0.23465
C_ C_ 0.882832 0.249889 0.558539 0.23465
C_ C_ 0.626331 0.221103 0.584626 -0.11473
C_ C_ 0.908315 0.248472 0.584731 -0.11473
C_ C_ 0.5289 0.501543 0.760117 0.05793
C_ C_ 0.780962 0.496403 0.746751 0.05793
C_ C_ 0.718112 0.00107088 0.751371 0.05793
C_ C_ 0.967456 -0.006006999999999985 0.756471 0.05793
Br Br 0.572014 0.497118 0.775542 -0.17191
Br Br 0.82248 0.497164 0.729399 -0.17191
Br Br 0.678278 0.00273436 0.727868 -0.17191
Br Br 0.923456 -0.003946000000000005 0.763614 -0.17191
N_ N_ 0.62533 0.247313 0.861348 -0.272
N_ N_ 0.880129 0.247509 0.857759 -0.272
N_ N_ 0.627334 0.242283 0.993314 -0.12501
N_ N_ 0.888954 0.261496 0.988366 -0.12501
N_ N_ 0.616638 0.253367 0.651382 -0.272
N_ N_ 0.878737 0.244161 0.646526 -0.272
N_ N_ 0.625688 0.266161 0.519494 -0.12501
N_ N_ 0.885536 0.260011 0.514987 -0.12501
O_ O_ 0.592416 0.295389 0.723886 -0.60745
O_ O_ 0.842648 0.289812 0.71351 -0.60745
O_ O_ 0.590721 0.292666 0.794444 -0.60745
O_ O_ 0.847039 0.29114 0.781677 -0.60745
O_ O_ 0.651402 0.296187 0.788578 -0.60745
O_ O_ 0.909607 0.290958 0.781328 -0.60745
O_ O_ 0.650805 0.294909 0.718999 -0.60745
O_ O_ 0.908211 0.291953 0.71238 -0.60745
O_ O_ 0.653417 0.204388 0.790166 -0.60745
O_ O_ 0.904517 0.201731 0.785334 -0.60745
O_ O_ 0.653404 0.204641 0.718958 -0.60745
O_ O_ 0.906445 0.200355 0.716767 -0.60745
O_ O_ 0.596929 0.203691 0.724432 -0.60745
O_ O_ 0.845586 0.201794 0.714273 -0.60745
O_ O_ 0.59221 0.204152 0.793278 -0.60745
O_ O_ 0.844152 0.207084 0.782831 -0.60745
Zn Zn 0.622322 0.754832 0.28544 0.9476
Zn Zn 0.873451 0.752634 0.285998 0.9476
Zn Zn 0.623998 0.748656 0.217657 0.9476
Zn Zn 0.87382 0.750051 0.216558 0.9476
H_ H_ 0.515105 0.903166 0.189527 0.10932
H_ H_ 0.789575 0.923558 0.181594 0.10932
H_ H_ 0.590151 0.877526 0.30069 0.10932
H_ H_ 0.812005 0.850162 0.314331 0.10932
H_ H_ 0.541705 0.835702 0.193243 0.10932
H_ H_ 0.81859 0.858298 0.179164 0.10932
H_ H_ 0.56006 0.938463 0.305838 0.10932
H_ H_ 0.787198 0.921013 0.317494 0.10932
H_ H_ 0.703856 0.932717 0.311123 0.10932
H_ H_ 0.961874 0.921219 0.30595 0.10932
H_ H_ 0.696586 0.838399 0.187417 0.10932
H_ H_ 0.940438 0.844495 0.175534 0.10932
H_ H_ 0.668414 0.873165 0.310473 0.10932
H_ H_ 0.93665 0.858192 0.308661 0.10932
H_ H_ 0.724166 0.905948 0.184834 0.10932
H_ H_ 0.969773 0.911523 0.173833 0.10932
H_ H_ 0.700052 0.564499 0.310874 0.10932
H_ H_ 0.971332 0.591611 0.318209 0.10932
H_ H_ 0.700778 0.669557 0.196506 0.10932
H_ H_ 0.946947 0.659082 0.180296 0.10932
H_ H_ 0.662523 0.624175 0.308783 0.10932
H_ H_ 0.945196 0.657187 0.317495 0.10932
H_ H_ 0.73094 0.603416 0.189337 0.10932
H_ H_ 0.966852 0.587202 0.180267 0.10932
H_ H_ 0.547484 0.569742 0.191266 0.10932
H_ H_ 0.801626 0.563072 0.197554 0.10932
H_ H_ 0.550736 0.658147 0.320889 0.10932
H_ H_ 0.798497 0.662682 0.315599 0.10932
H_ H_ 0.558083 0.645572 0.186016 0.10932
H_ H_ 0.837193 0.620267 0.20265 0.10932
H_ H_ 0.528697 0.587087 0.323057 0.10932
H_ H_ 0.76747 0.603063 0.32072 0.10932
H_ H_ 0.612219 0.690988 0.367568 0.10932
H_ H_ 0.825734 0.742238 0.36585 0.10932
H_ H_ 0.618613 0.820641 0.354591 0.10932
H_ H_ 0.922062 0.766358 0.357786 0.10932
H_ H_ 0.617883 0.829164 0.432896 0.10932
H_ H_ 0.923632 0.779454 0.434532 0.10932
H_ H_ 0.618199 0.69374 0.442224 0.10932
H_ H_ 0.830995 0.744442 0.447029 0.10932
H_ H_ 0.601351 0.690667 0.143463 0.10932
H_ H_ 0.897532 0.698088 0.141135 0.10932
H_ H_ 0.632297 0.815238 0.144244 0.10932
H_ H_ 0.849016 0.808092 0.13433 0.10932
H_ H_ 0.62789 0.817779 0.0659667 0.10932
H_ H_ 0.84882 0.806489 0.0607776 0.10932
H_ H_ 0.596646 0.695065 0.0660032 0.10932
H_ H_ 0.893717 0.689808 0.0623132 0.10932
C_ C_ 0.56735 0.851267 0.248615 -0.02249
C_ C_ 0.813972 0.84728 0.247591 -0.02249
C_ C_ 0.517497 0.963415 0.247972 -0.02249
C_ C_ 0.766094 0.963983 0.252134 -0.02249
C_ C_ 0.531975 0.896429 0.21342 -0.11473
C_ C_ 0.790481 0.905698 0.210726 -0.11473
C_ C_ 0.569944 0.879039 0.281451 -0.11473
C_ C_ 0.805369 0.866767 0.286206 -0.11473
C_ C_ 0.545924 0.857846 0.217475 -0.11473
C_ C_ 0.807376 0.867708 0.208714 -0.11473
C_ C_ 0.534641 0.924531 0.248692 -0.02249
C_ C_ 0.782821 0.923273 0.249081 -0.02249
C_ C_ 0.585417 0.811208 0.248501 0.6875
C_ C_ 0.832054 0.809117 0.249412 0.6875
C_ C_ 0.552915 0.913927 0.282987 -0.11473
C_ C_ 0.790097 0.903587 0.286712 -0.11473
C_ C_ 0.684174 0.846395 0.252658 -0.02249
C_ C_ 0.934222 0.847556 0.243906 -0.02249
C_ C_ 0.734888 0.962536 0.248926 -0.02249
C_ C_ 0.983651 0.964134 0.237254 -0.02249
C_ C_ 0.702707 0.910709 0.284592 -0.11473
C_ C_ 0.956311 0.908394 0.276591 -0.11473
C_ C_ 0.698248 0.858155 0.21672 -0.11473
C_ C_ 0.943261 0.863403 0.204412 -0.11473
C_ C_ 0.684726 0.874678 0.286756 -0.11473
C_ C_ 0.94155 0.870287 0.27964 -0.11473
C_ C_ 0.718433 0.920918 0.248615 -0.02249
C_ C_ 0.967186 0.923313 0.239039 -0.02249
C_ C_ 0.666237 0.807787 0.253247 0.6875
C_ C_ 0.914553 0.810628 0.247055 0.6875
C_ C_ 0.713938 0.896528 0.212881 -0.11473
C_ C_ 0.961605 0.899189 0.202658 -0.11473
C_ C_ 0.681543 0.652443 0.254148 -0.02249
C_ C_ 0.943016 0.664145 0.249169 -0.02249
C_ C_ 0.732906 0.540379 0.250143 -0.02249
C_ C_ 0.98431 0.543969 0.247055 -0.02249
C_ C_ 0.696849 0.585442 0.283348 -0.11473
C_ C_ 0.964585 0.606669 0.287608 -0.11473
C_ C_ 0.701611 0.647311 0.221602 -0.11473
C_ C_ 0.951374 0.645148 0.211023 -0.11473
C_ C_ 0.678985 0.621605 0.285611 -0.11473
C_ C_ 0.950602 0.644749 0.288364 -0.11473
C_ C_ 0.714927 0.579688 0.249716 -0.02249
C_ C_ 0.968511 0.584809 0.249095 -0.02249
C_ C_ 0.66126 0.690122 0.253917 0.6875
C_ C_ 0.916355 0.695293 0.250181 0.6875
C_ C_ 0.71903 0.611143 0.219621 -0.11473
C_ C_ 0.962069 0.603809 0.210338 -0.11473
C_ C_ 0.561545 0.653268 0.253812 -0.02249
C_ C_ 0.819082 0.650755 0.256674 -0.02249
C_ C_ 0.515506 0.537373 0.252233 -0.02249
C_ C_ 0.763167 0.53907 0.25697 -0.02249
C_ C_ 0.546736 0.589121 0.218366 -0.11473
C_ C_ 0.799951 0.58673 0.224091 -0.11473
C_ C_ 0.549083 0.63885 0.291124 -0.11473
C_ C_ 0.801369 0.640243 0.290854 -0.11473
C_ C_ 0.558481 0.630054 0.216726 -0.11473
C_ C_ 0.819487 0.622125 0.224866 -0.11473
C_ C_ 0.53173 0.576959 0.25422 -0.02249
C_ C_ 0.781178 0.578693 0.256609 -0.02249
C_ C_ 0.582208 0.690501 0.253836 0.6875
C_ C_ 0.837983 0.689246 0.256307 0.6875
C_ C_ 0.535582 0.598864 0.292361 -0.11473
C_ C_ 0.780902 0.607052 0.291596 -0.11473
C_ C_ 0.61689 0.720819 0.380906 0.17695
C_ C_ 0.84762 0.75121 0.380786 0.17695
C_ C_ 0.61957 0.79468 0.375448 0.17695
C_ C_ 0.900754 0.766388 0.376636 0.17695
C_ C_ 0.61929 0.798078 0.419405 -0.11473
C_ C_ 0.903116 0.77038 0.420412 -0.11473
C_ C_ 0.618957 0.763084 0.445455 0.23465
C_ C_ 0.878182 0.759831 0.445327 0.23465
C_ C_ 0.61932 0.722689 0.426039 -0.11473
C_ C_ 0.850224 0.752475 0.425403 -0.11473
C_ C_ 0.610472 0.717114 0.124676 0.17695
C_ C_ 0.884717 0.719885 0.123531 0.17695
C_ C_ 0.627009 0.788425 0.126006 0.17695
C_ C_ 0.85955 0.782671 0.121102 0.17695
C_ C_ 0.62592 0.789545 0.0827004 -0.11473
C_ C_ 0.861099 0.782845 0.0774166 -0.11473
C_ C_ 0.617715 0.754258 0.0593744 0.23465
C_ C_ 0.874136 0.752528 0.0555024 0.23465
C_ C_ 0.608667 0.718477 0.0807782 -0.11473
C_ C_ 0.887097 0.719331 0.0798507 -0.11473
C_ C_ 0.533832 1.00127857 0.241435 0.05793
C_ C_ 0.782386 1.00184 0.254287 0.05793
C_ C_ 0.71768 0.50128 0.241221 0.05793
C_ C_ 0.966158 0.507717 0.248903 0.05793
Br Br 0.575911 1.00136 0.232748 -0.17191
Br Br 0.82487 0.99896 0.262385 -0.17191
Br Br 0.675964 0.503752 0.219045 -0.17191
Br Br 0.923892 0.508125 0.251136 -0.17191
N_ N_ 0.620923 0.755687 0.35744 -0.272
N_ N_ 0.873105 0.755206 0.356814 -0.272
N_ N_ 0.617473 0.767686 0.489611 -0.12501
N_ N_ 0.881257 0.764549 0.489404 -0.12501
N_ N_ 0.619749 0.751972 0.145546 -0.272
N_ N_ 0.873891 0.753163 0.143581 -0.272
N_ N_ 0.612087 0.757736 0.0154131 -0.12501
N_ N_ 0.865007 0.748425 0.0113604 -0.12501
O_ O_ 0.597449 0.798156 0.215519 -0.60745
O_ O_ 0.845185 0.793779 0.216606 -0.60745
O_ O_ 0.592706 0.795806 0.284602 -0.60745
O_ O_ 0.840311 0.794644 0.285503 -0.60745
O_ O_ 0.65249 0.799499 0.28637 -0.60745
O_ O_ 0.901566 0.800409 0.280628 -0.60745
O_ O_ 0.657836 0.790439 0.219281 -0.60745
O_ O_ 0.908782 0.789845 0.214678 -0.60745
O_ O_ 0.652647 0.707736 0.287833 -0.60745
O_ O_ 0.912708 0.719816 0.281635 -0.60745
O_ O_ 0.653245 0.704381 0.219303 -0.60745
O_ O_ 0.901246 0.701399 0.216773 -0.60745
O_ O_ 0.589909 0.707741 0.221534 -0.60745
O_ O_ 0.842208 0.706197 0.222029 -0.60745
O_ O_ 0.593752 0.703613 0.288421 -0.60745
O_ O_ 0.84702 0.707392 0.291012 -0.60745
Zn Zn 0.628141 0.748889 0.786184 0.9476
Zn Zn 0.871751 0.745845 0.785854 0.9476
Zn Zn 0.630682 0.748186 0.718428 0.9476
Zn Zn 0.87034 0.748264 0.716033 0.9476
H_ H_ 0.542636 0.916156 0.680284 0.10932
H_ H_ 0.780528 0.91606 0.69202 0.10932
H_ H_ 0.555806 0.844025 0.815193 0.10932
H_ H_ 0.800531 0.83649 0.821663 0.10932
H_ H_ 0.577157 0.856155 0.685997 0.10932
H_ H_ 0.81205 0.854225 0.689133 0.10932
H_ H_ 0.523342 0.904484 0.811784 0.10932
H_ H_ 0.775757 0.910631 0.824174 0.10932
H_ H_ 0.694826 0.934011 0.811516 0.10932
H_ H_ 0.965296 0.911913 0.819414 0.10932
H_ H_ 0.69981 0.843112 0.688672 0.10932
H_ H_ 0.928094 0.849478 0.685937 0.10932
H_ H_ 0.664078 0.86815 0.807946 0.10932
H_ H_ 0.941656 0.840003 0.820919 0.10932
H_ H_ 0.727556 0.908041 0.688876 0.10932
H_ H_ 0.95897 0.911971 0.684045 0.10932
H_ H_ 0.739666 0.596008 0.808076 0.10932
H_ H_ 0.95567 0.570062 0.812227 0.10932
H_ H_ 0.673641 0.632716 0.687915 0.10932
H_ H_ 0.934599 0.647617 0.680241 0.10932
H_ H_ 0.715794 0.662818 0.805335 0.10932
H_ H_ 0.925466 0.633499 0.815682 0.10932
H_ H_ 0.695033 0.563666 0.691597 0.10932
H_ H_ 0.962092 0.582883 0.677724 0.10932
H_ H_ 0.532295 0.585039 0.688236 0.10932
H_ H_ 0.773749 0.58228 0.683897 0.10932
H_ H_ 0.571692 0.639312 0.822877 0.10932
H_ H_ 0.832267 0.626094 0.810377 0.10932
H_ H_ 0.564252 0.647609 0.687179 0.10932
H_ H_ 0.806463 0.646358 0.681634 0.10932
H_ H_ 0.533248 0.582515 0.822993 0.10932
H_ H_ 0.806287 0.560753 0.808072 0.10932
H_ H_ 0.581309 0.753055 0.860279 0.10932
H_ H_ 0.887607 0.680974 0.852169 0.10932
H_ H_ 0.674688 0.74191 0.859017 0.10932
H_ H_ 0.867831 0.808802 0.860256 0.10932
H_ H_ 0.678432 0.752009 0.94164 0.10932
H_ H_ 0.872099 0.804123 0.939556 0.10932
H_ H_ 0.583879 0.745905 0.939814 0.10932
H_ H_ 0.888878 0.676288 0.930957 0.10932
H_ H_ 0.625474 0.685398 0.649972 0.10932
H_ H_ 0.875533 0.806265 0.643324 0.10932
H_ H_ 0.633252 0.814243 0.642888 0.10932
H_ H_ 0.865581 0.67848 0.643854 0.10932
H_ H_ 0.630813 0.80945 0.560044 0.10932
H_ H_ 0.857358 0.683045 0.564579 0.10932
H_ H_ 0.625402 0.677935 0.573672 0.10932
H_ H_ 0.86662 0.807169 0.566665 0.10932
C_ C_ 0.567447 0.842885 0.751521 -0.02249
C_ C_ 0.813277 0.844895 0.757297 -0.02249
C_ C_ 0.514071 0.956589 0.7443 -0.02249
C_ C_ 0.764668 0.961026 0.758917 -0.02249
C_ C_ 0.546021 0.902053 0.710653 -0.11473
C_ C_ 0.789185 0.902843 0.719478 -0.11473
C_ C_ 0.553723 0.859526 0.786836 -0.11473
C_ C_ 0.800608 0.857704 0.795156 -0.11473
C_ C_ 0.565692 0.866308 0.714625 -0.11473
C_ C_ 0.808206 0.868591 0.71946 -0.11473
C_ C_ 0.529184 0.914648 0.745672 -0.02249
C_ C_ 0.77983 0.919693 0.757668 -0.02249
C_ C_ 0.588557 0.807556 0.755891 0.6875
C_ C_ 0.833176 0.80703 0.754166 0.6875
C_ C_ 0.53611 0.89643 0.783738 -0.11473
C_ C_ 0.784453 0.896421 0.795314 -0.11473
C_ C_ 0.686897 0.846594 0.752535 -0.02249
C_ C_ 0.931716 0.840002 0.751882 -0.02249
C_ C_ 0.733047 0.962477 0.752991 -0.02249
C_ C_ 0.981627 0.955188 0.751466 -0.02249
C_ C_ 0.694736 0.915174 0.783936 -0.11473
C_ C_ 0.957631 0.898 0.790561 -0.11473
C_ C_ 0.70075 0.861407 0.716064 -0.11473
C_ C_ 0.938062 0.860415 0.714669 -0.11473
C_ C_ 0.678664 0.878281 0.78257 -0.11473
C_ C_ 0.940844 0.858749 0.791056 -0.11473
C_ C_ 0.715175 0.923375 0.752572 -0.02249
C_ C_ 0.963412 0.916844 0.750907 -0.02249
C_ C_ 0.671297 0.80569 0.75231 0.6875
C_ C_ 0.911006 0.804318 0.751899 0.6875
C_ C_ 0.714657 0.899871 0.715675 -0.11473
C_ C_ 0.953416 0.897147 0.71314 -0.11473
C_ C_ 0.687166 0.649884 0.752138 -0.02249
C_ C_ 0.926017 0.646537 0.746219 -0.02249
C_ C_ 0.7338 0.531859 0.752289 -0.02249
C_ C_ 0.980298 0.536761 0.741837 -0.02249
C_ C_ 0.723523 0.602316 0.783305 -0.11473
C_ C_ 0.950469 0.588624 0.78395 -0.11473
C_ C_ 0.685032 0.623548 0.716361 -0.11473
C_ C_ 0.938866 0.632815 0.708605 -0.11473
C_ C_ 0.707293 0.639003 0.784778 -0.11473
C_ C_ 0.930703 0.621901 0.785505 -0.11473
C_ C_ 0.715843 0.57165 0.753107 -0.02249
C_ C_ 0.962035 0.575668 0.744846 -0.02249
C_ C_ 0.669284 0.689151 0.752812 0.6875
C_ C_ 0.910746 0.686215 0.747444 0.6875
C_ C_ 0.694913 0.582338 0.719776 -0.11473
C_ C_ 0.955217 0.596858 0.70755 -0.11473
C_ C_ 0.572768 0.646829 0.755112 -0.02249
C_ C_ 0.817245 0.645191 0.749072 -0.02249
C_ C_ 0.513113 0.539924 0.754382 -0.02249
C_ C_ 0.76583 0.533663 0.749703 -0.02249
C_ C_ 0.541735 0.596783 0.716291 -0.11473
C_ C_ 0.784348 0.594358 0.711369 -0.11473
C_ C_ 0.562391 0.630758 0.79268 -0.11473
C_ C_ 0.816718 0.620879 0.784681 -0.11473
C_ C_ 0.560456 0.631855 0.716624 -0.11473
C_ C_ 0.801172 0.63086 0.711485 -0.11473
C_ C_ 0.532746 0.579008 0.753134 -0.02249
C_ C_ 0.783454 0.572323 0.74824 -0.02249
C_ C_ 0.590873 0.686254 0.755921 0.6875
C_ C_ 0.834522 0.684103 0.748834 0.6875
C_ C_ 0.541763 0.596984 0.792084 -0.11473
C_ C_ 0.800129 0.584304 0.78501 -0.11473
C_ C_ 0.602616 0.753312 0.878604 0.17695
C_ C_ 0.883183 0.708057 0.871495 0.17695
C_ C_ 0.655918 0.749448 0.879831 0.17695
C_ C_ 0.87302 0.780864 0.876592 0.17695
C_ C_ 0.657257 0.753589 0.924698 -0.11473
C_ C_ 0.875343 0.77837 0.921056 -0.11473
C_ C_ 0.630653 0.752027 0.946396 0.23465
C_ C_ 0.877329 0.739887 0.939243 0.23465
C_ C_ 0.603999 0.74984 0.923233 -0.11473
C_ C_ 0.884802 0.705597 0.914843 -0.11473
C_ C_ 0.624462 0.713302 0.630094 0.17695
C_ C_ 0.872898 0.779592 0.625731 0.17695
C_ C_ 0.628486 0.787053 0.625878 0.17695
C_ C_ 0.866499 0.706293 0.626892 0.17695
C_ C_ 0.627293 0.783808 0.580687 -0.11473
C_ C_ 0.865329 0.708636 0.582628 -0.11473
C_ C_ 0.628775 0.74407 0.560667 0.23465
C_ C_ 0.872237 0.744173 0.559369 0.23465
C_ C_ 0.624929 0.70955 0.587042 -0.11473
C_ C_ 0.873481 0.780134 0.581609 -0.11473
C_ C_ 0.532142 -0.006195999999999979 0.749233 0.05793
C_ C_ 0.780548 -0.0010799999999999699 0.754778 0.05793
C_ C_ 0.718002 0.492287 0.753945 0.05793
C_ C_ 0.966453 0.497688 0.743834 0.05793
Br Br 0.576147 -0.010175999999999963 0.757159 -0.17191
Br Br 0.824146 0.99743 0.753096 -0.17191
Br Br 0.674761 0.490364 0.757613 -0.17191
Br Br 0.9231 0.494402 0.748862 -0.17191
N_ N_ 0.628473 0.750792 0.85846 -0.272
N_ N_ 0.874373 0.745374 0.853219 -0.272
N_ N_ 0.631577 0.744502 0.990197 -0.12501
N_ N_ 0.88427 0.738234 0.984136 -0.12501
N_ N_ 0.625109 0.752303 0.64804 -0.272
N_ N_ 0.869198 0.742656 0.646763 -0.272
N_ N_ 0.629153 0.742218 0.514951 -0.12501
N_ N_ 0.865966 0.743664 0.514937 -0.12501
O_ O_ 0.599877 0.790399 0.721926 -0.60745
O_ O_ 0.840921 0.793566 0.718931 -0.60745
O_ O_ 0.596811 0.793587 0.79126 -0.60745
O_ O_ 0.840939 0.788425 0.788184 -0.60745
O_ O_ 0.658322 0.794574 0.785981 -0.60745
O_ O_ 0.899661 0.790622 0.785858 -0.60745
O_ O_ 0.661193 0.789395 0.718332 -0.60745
O_ O_ 0.901227 0.791012 0.717388 -0.60745
O_ O_ 0.662008 0.707651 0.786656 -0.60745
O_ O_ 0.902182 0.699988 0.782562 -0.60745
O_ O_ 0.664315 0.708291 0.720374 -0.60745
O_ O_ 0.900623 0.701877 0.713851 -0.60745
O_ O_ 0.598889 0.702588 0.721911 -0.60745
O_ O_ 0.838109 0.702616 0.715822 -0.60745
O_ O_ 0.596553 0.704993 0.790536 -0.60745
O_ O_ 0.842431 0.702038 0.783596 -0.60745
