_cell_length_a 44.444
_cell_length_b 32.3360000049186
_cell_length_c 31.843999878906452
_cell_angle_alpha 89.99799923859553
_cell_angle_beta 91.13600050494348
_cell_angle_gamma 89.9990006550086
_symmetry_space_group_name_H-M         'P 1'
_symmetry_Int_Tables_number            1
loop_
_symmetry_equiv_pos_as_xyz
   'x, y, z'
                         
loop_
_atom_site_label
_atom_site_type_symbol
_atom_site_fract_x 
_atom_site_fract_y
_atom_site_fract_z
_atom_site_charge
Zn Zn 0.125464 0.253603 0.282982 0.9476
Zn Zn 0.373317 0.249506 0.285186 0.9476
Zn Zn 0.125398 0.251308 0.214491 0.9476
Zn Zn 0.371746 0.249607 0.217904 0.9476
H_ H_ 0.0291291 0.413857 0.175793 0.10932
H_ H_ 0.299154 0.43361 0.188168 0.10932
H_ H_ 0.0737411 0.377238 0.310714 0.10932
H_ H_ 0.305161 0.346533 0.316575 0.10932
H_ H_ 0.0608977 0.352758 0.179563 0.10932
H_ H_ 0.333686 0.373076 0.191507 0.10932
H_ H_ 0.0405113 0.428733 0.307747 0.10932
H_ H_ 0.277876 0.414097 0.318149 0.10932
H_ H_ 0.216462 0.419596 0.319284 0.10932
H_ H_ 0.482465 0.405201 0.312767 0.10932
H_ H_ 0.198337 0.34731 0.182591 0.10932
H_ H_ 0.426428 0.357608 0.185094 0.10932
H_ H_ 0.183929 0.359553 0.313782 0.10932
H_ H_ 0.450121 0.342078 0.316323 0.10932
H_ H_ 0.225448 0.417239 0.185505 0.10932
H_ H_ 0.455964 0.421982 0.185099 0.10932
H_ H_ 0.214668 0.0814753 0.323195 0.10932
H_ H_ 0.448819 0.0701376 0.324924 0.10932
H_ H_ 0.172429 0.13603 0.18952 0.10932
H_ H_ 0.446047 0.151998 0.191278 0.10932
H_ H_ 0.184614 0.146023 0.32404 0.10932
H_ H_ 0.414452 0.127753 0.317698 0.10932
H_ H_ 0.213447 0.0823087 0.190112 0.10932
H_ H_ 0.474903 0.0892389 0.192005 0.10932
H_ H_ 0.0482745 0.0755687 0.19141 0.10932
H_ H_ 0.272718 0.0896719 0.190035 0.10932
H_ H_ 0.056739 0.155415 0.322128 0.10932
H_ H_ 0.310161 0.149312 0.323733 0.10932
H_ H_ 0.0742767 0.137 0.189919 0.10932
H_ H_ 0.309148 0.150153 0.187484 0.10932
H_ H_ 0.0305555 0.0858916 0.320907 0.10932
H_ H_ 0.281483 0.0840309 0.323421 0.10932
H_ H_ 0.144576 0.320617 0.354057 0.10932
H_ H_ 0.393121 0.305963 0.360976 0.10932
H_ H_ 0.111491 0.198102 0.367727 0.10932
H_ H_ 0.363927 0.181818 0.364845 0.10932
H_ H_ 0.121954 0.200416 0.443106 0.10932
H_ H_ 0.367065 0.182972 0.441389 0.10932
H_ H_ 0.155323 0.322494 0.431913 0.10932
H_ H_ 0.404128 0.303244 0.437862 0.10932
H_ H_ 0.115448 0.32017 0.147849 0.10932
H_ H_ 0.394415 0.189151 0.143853 0.10932
H_ H_ 0.133124 0.193046 0.131397 0.10932
H_ H_ 0.357222 0.310084 0.142411 0.10932
H_ H_ 0.119896 0.201794 0.0548818 0.10932
H_ H_ 0.360386 0.310282 0.0637064 0.10932
H_ H_ 0.110134 0.332717 0.0728177 0.10932
H_ H_ 0.39601 0.190334 0.0650378 0.10932
C_ C_ 0.0698445 0.356083 0.245756 -0.02249
C_ C_ 0.320259 0.354041 0.253741 -0.02249
C_ C_ 0.0121979 0.465152 0.240721 -0.02249
C_ C_ 0.269569 0.467781 0.253794 -0.02249
C_ C_ 0.0375429 0.404316 0.20555 -0.11473
C_ C_ 0.302068 0.416762 0.217787 -0.11473
C_ C_ 0.0633435 0.380776 0.281237 -0.11473
C_ C_ 0.302112 0.363322 0.288195 -0.11473
C_ C_ 0.0558667 0.368278 0.207712 -0.11473
C_ C_ 0.320074 0.381581 0.218706 -0.11473
C_ C_ 0.0288221 0.425849 0.241189 -0.02249
C_ C_ 0.286178 0.428094 0.252477 -0.02249
C_ C_ 0.0902119 0.317705 0.247547 0.6875
C_ C_ 0.336371 0.313906 0.251051 0.6875
C_ C_ 0.0443476 0.413906 0.278276 -0.11473
C_ C_ 0.285952 0.40072 0.287772 -0.11473
C_ C_ 0.186868 0.348011 0.248259 -0.02249
C_ C_ 0.436116 0.343034 0.249557 -0.02249
C_ C_ 0.238501 0.464733 0.254676 -0.02249
C_ C_ 0.482828 0.458459 0.250462 -0.02249
C_ C_ 0.21252 0.403768 0.289349 -0.11473
C_ C_ 0.46831 0.39411 0.284713 -0.11473
C_ C_ 0.197032 0.367606 0.211143 -0.11473
C_ C_ 0.441396 0.363861 0.211486 -0.11473
C_ C_ 0.193866 0.369196 0.285695 -0.11473
C_ C_ 0.452987 0.356066 0.285447 -0.11473
C_ C_ 0.222457 0.422668 0.252117 -0.02249
C_ C_ 0.467689 0.419167 0.249414 -0.02249
C_ C_ 0.167428 0.308733 0.245422 0.6875
C_ C_ 0.416399 0.304094 0.250749 0.6875
C_ C_ 0.215816 0.403686 0.213493 -0.11473
C_ C_ 0.455622 0.401526 0.212579 -0.11473
C_ C_ 0.178294 0.149541 0.256242 -0.02249
C_ C_ 0.425639 0.143028 0.253111 -0.02249
C_ C_ 0.231967 0.0358853 0.25681 -0.02249
C_ C_ 0.483046 0.035618 0.260746 -0.02249
C_ C_ 0.208531 0.0963809 0.294972 -0.11473
C_ C_ 0.447202 0.0861179 0.294067 -0.11473
C_ C_ 0.185056 0.12779 0.218575 -0.11473
C_ C_ 0.444366 0.131566 0.219884 -0.11473
C_ C_ 0.189731 0.132402 0.294583 -0.11473
C_ C_ 0.428036 0.121116 0.290962 -0.11473
C_ C_ 0.212864 0.075826 0.25805 -0.02249
C_ C_ 0.463845 0.0721841 0.259235 -0.02249
C_ C_ 0.159413 0.185759 0.253169 0.6875
C_ C_ 0.40791 0.183989 0.254198 0.6875
C_ C_ 0.204549 0.0947459 0.219342 -0.11473
C_ C_ 0.462364 0.0958324 0.220477 -0.11473
C_ C_ 0.0652049 0.155589 0.254182 -0.02249
C_ C_ 0.308441 0.15727 0.255252 -0.02249
C_ C_ 0.0157383 0.0388516 0.25316 -0.02249
C_ C_ 0.262781 0.0378423 0.256565 -0.02249
C_ C_ 0.0436753 0.096498 0.215341 -0.11473
C_ C_ 0.284475 0.0997132 0.218394 -0.11473
C_ C_ 0.0549213 0.137141 0.292412 -0.11473
C_ C_ 0.30072 0.137296 0.293888 -0.11473
C_ C_ 0.0610796 0.132319 0.217807 -0.11473
C_ C_ 0.301328 0.137083 0.218164 -0.11473
C_ C_ 0.0312942 0.0796166 0.25291 -0.02249
C_ C_ 0.278124 0.0801882 0.25609 -0.02249
C_ C_ 0.0837666 0.195103 0.254343 0.6875
C_ C_ 0.328911 0.193985 0.255508 0.6875
C_ C_ 0.0380831 0.100402 0.291535 -0.11473
C_ C_ 0.285759 0.0992121 0.293595 -0.11473
C_ C_ 0.141328 0.292767 0.37253 0.17695
C_ C_ 0.385143 0.278445 0.378234 0.17695
C_ C_ 0.119941 0.225969 0.381571 0.17695
C_ C_ 0.369463 0.211372 0.380162 0.17695
C_ C_ 0.123145 0.229274 0.425099 -0.11473
C_ C_ 0.375614 0.209151 0.423381 -0.11473
C_ C_ 0.136897 0.263397 0.442545 0.23465
C_ C_ 0.38686 0.243302 0.444598 0.23465
C_ C_ 0.146177 0.29534 0.416689 -0.11473
C_ C_ 0.392118 0.277876 0.420976 -0.11473
C_ C_ 0.117055 0.296196 0.128195 0.17695
C_ C_ 0.386224 0.214406 0.125079 0.17695
C_ C_ 0.126278 0.22339 0.118559 0.17695
C_ C_ 0.364009 0.28195 0.125716 0.17695
C_ C_ 0.121691 0.228427 0.0751664 -0.11473
C_ C_ 0.363206 0.281231 0.0812057 -0.11473
C_ C_ 0.116414 0.266768 0.056319 0.23465
C_ C_ 0.372071 0.245887 0.0596144 0.23465
C_ C_ 0.115971 0.301534 0.084003 -0.11473
C_ C_ 0.386816 0.215065 0.081517 -0.11473
C_ C_ 0.027985 0.502234 0.233199 0.05793
C_ C_ 0.283968 0.506165 0.259048 0.05793
C_ C_ 0.216767 -0.0026450000000000085 0.258755 0.05793
C_ C_ 0.471325 0.995095 0.256989 0.05793
Br Br 0.0690402 0.500217 0.225622 -0.17191
Br Br 0.326623 0.514669 0.24875 -0.17191
Br Br 0.17487 -0.003798999999999997 0.266947 -0.17191
Br Br 0.428861 0.988127 0.24739 -0.17191
N_ N_ 0.128894 0.257144 0.354818 -0.272
N_ N_ 0.376264 0.244758 0.358005 -0.272
N_ N_ 0.138576 0.266141 0.487043 -0.12501
N_ N_ 0.390109 0.243747 0.49009 -0.12501
N_ N_ 0.120734 0.256327 0.145124 -0.272
N_ N_ 0.3735 0.247026 0.147042 -0.272
N_ N_ 0.121336 0.274128 0.0133154 -0.12501
N_ N_ 0.36796 0.243858 0.0137669 -0.12501
O_ O_ 0.094534 0.295686 0.213672 -0.60745
O_ O_ 0.346443 0.299675 0.217885 -0.60745
O_ O_ 0.10085 0.306284 0.281004 -0.60745
O_ O_ 0.344077 0.297378 0.285739 -0.60745
O_ O_ 0.158673 0.294117 0.279448 -0.60745
O_ O_ 0.407828 0.289849 0.28599 -0.60745
O_ O_ 0.153468 0.297462 0.210777 -0.60745
O_ O_ 0.403777 0.292055 0.216176 -0.60745
O_ O_ 0.150392 0.20297 0.285467 -0.60745
O_ O_ 0.401181 0.199901 0.290205 -0.60745
O_ O_ 0.156296 0.205147 0.217992 -0.60745
O_ O_ 0.401469 0.204635 0.220191 -0.60745
O_ O_ 0.0973689 0.205408 0.221969 -0.60745
O_ O_ 0.340089 0.205113 0.221257 -0.60745
O_ O_ 0.0887488 0.214173 0.287992 -0.60745
O_ O_ 0.337129 0.212994 0.28869 -0.60745
Zn Zn 0.131017 0.253068 0.784065 0.9476
Zn Zn 0.378487 0.249144 0.785417 0.9476
Zn Zn 0.12784 0.249838 0.715255 0.9476
Zn Zn 0.37049 0.247086 0.715976 0.9476
H_ H_ 0.0292257 0.406701 0.676729 0.10932
H_ H_ 0.281257 0.413256 0.674794 0.10932
H_ H_ 0.0660773 0.35148 0.81218 0.10932
H_ H_ 0.325395 0.35838 0.811041 0.10932
H_ H_ 0.0521611 0.339256 0.683426 0.10932
H_ H_ 0.305872 0.345111 0.674682 0.10932
H_ H_ 0.0434379 0.426843 0.809519 0.10932
H_ H_ 0.2999 0.428294 0.808264 0.10932
H_ H_ 0.221773 0.417521 0.808971 0.10932
H_ H_ 0.46392 0.415975 0.812215 0.10932
H_ H_ 0.200784 0.344484 0.678425 0.10932
H_ H_ 0.426003 0.355992 0.681237 0.10932
H_ H_ 0.197706 0.358019 0.815909 0.10932
H_ H_ 0.441583 0.348317 0.815839 0.10932
H_ H_ 0.217175 0.416127 0.675639 0.10932
H_ H_ 0.453273 0.421524 0.680393 0.10932
H_ H_ 0.227234 0.0928754 0.819748 0.10932
H_ H_ 0.447097 0.0624667 0.804959 0.10932
H_ H_ 0.181213 0.139643 0.687359 0.10932
H_ H_ 0.447943 0.159693 0.686892 0.10932
H_ H_ 0.20025 0.159659 0.819054 0.10932
H_ H_ 0.420965 0.1319 0.810464 0.10932
H_ H_ 0.204872 0.0734818 0.691284 0.10932
H_ H_ 0.474009 0.0937819 0.683255 0.10932
H_ H_ 0.0314666 0.0858315 0.691885 0.10932
H_ H_ 0.280335 0.0842981 0.689192 0.10932
H_ H_ 0.0825453 0.13892 0.821091 0.10932
H_ H_ 0.330776 0.137539 0.821482 0.10932
H_ H_ 0.0630489 0.145556 0.685947 0.10932
H_ H_ 0.303565 0.154214 0.688881 0.10932
H_ H_ 0.0500929 0.0731689 0.823264 0.10932
H_ H_ 0.302935 0.070693 0.818515 0.10932
H_ H_ 0.126515 0.316228 0.858993 0.10932
H_ H_ 0.338272 0.276152 0.862938 0.10932
H_ H_ 0.13017 0.189241 0.857417 0.10932
H_ H_ 0.421942 0.218414 0.861054 0.10932
H_ H_ 0.136108 0.187191 0.930086 0.10932
H_ H_ 0.425561 0.223806 0.942019 0.10932
H_ H_ 0.124097 0.316662 0.93568 0.10932
H_ H_ 0.339809 0.276473 0.941689 0.10932
H_ H_ 0.123015 0.191 0.642379 0.10932
H_ H_ 0.414576 0.273544 0.638294 0.10932
H_ H_ 0.135174 0.318536 0.638821 0.10932
H_ H_ 0.327634 0.217293 0.644099 0.10932
H_ H_ 0.129932 0.318413 0.56128 0.10932
H_ H_ 0.330668 0.201536 0.570383 0.10932
H_ H_ 0.122557 0.18428 0.565565 0.10932
H_ H_ 0.411247 0.273897 0.563829 0.10932
C_ C_ 0.0672072 0.344154 0.746404 -0.02249
C_ C_ 0.320923 0.349489 0.745251 -0.02249
C_ C_ 0.0175125 0.460451 0.741664 -0.02249
C_ C_ 0.26814 0.463814 0.744906 -0.02249
C_ C_ 0.0384317 0.396856 0.706625 -0.11473
C_ C_ 0.289468 0.400075 0.705645 -0.11473
C_ C_ 0.0612557 0.366752 0.783275 -0.11473
C_ C_ 0.316572 0.373024 0.782704 -0.11473
C_ C_ 0.0532707 0.357766 0.708793 -0.11473
C_ C_ 0.304342 0.362131 0.707751 -0.11473
C_ C_ 0.0350432 0.421218 0.743377 -0.02249
C_ C_ 0.284708 0.422265 0.743417 -0.02249
C_ C_ 0.0874461 0.306489 0.74573 0.6875
C_ C_ 0.340813 0.312025 0.745189 0.6875
C_ C_ 0.0460161 0.406087 0.783091 -0.11473
C_ C_ 0.299703 0.409475 0.780244 -0.11473
C_ C_ 0.195388 0.343572 0.745707 -0.02249
C_ C_ 0.434859 0.343161 0.746732 -0.02249
C_ C_ 0.236461 0.463273 0.741402 -0.02249
C_ C_ 0.485323 0.458872 0.744593 -0.02249
C_ C_ 0.219047 0.403069 0.780246 -0.11473
C_ C_ 0.46128 0.400395 0.783889 -0.11473
C_ C_ 0.205038 0.359506 0.706585 -0.11473
C_ C_ 0.437688 0.365786 0.708744 -0.11473
C_ C_ 0.204316 0.365759 0.782291 -0.11473
C_ C_ 0.446986 0.361644 0.784653 -0.11473
C_ C_ 0.22147 0.422282 0.741388 -0.02249
C_ C_ 0.466792 0.419141 0.745632 -0.02249
C_ C_ 0.171959 0.310496 0.748074 0.6875
C_ C_ 0.414768 0.306718 0.749716 0.6875
C_ C_ 0.2146 0.402246 0.704793 -0.11473
C_ C_ 0.454424 0.401819 0.709305 -0.11473
C_ C_ 0.188381 0.154973 0.75384 -0.02249
C_ C_ 0.435241 0.153951 0.749917 -0.02249
C_ C_ 0.237933 0.0381372 0.753484 -0.02249
C_ C_ 0.480314 0.0369735 0.742184 -0.02249
C_ C_ 0.220183 0.10507 0.790572 -0.11473
C_ C_ 0.449348 0.0874243 0.782594 -0.11473
C_ C_ 0.191271 0.130398 0.717314 -0.11473
C_ C_ 0.450529 0.142179 0.71607 -0.11473
C_ C_ 0.203109 0.142111 0.790321 -0.11473
C_ C_ 0.435916 0.126398 0.784646 -0.11473
C_ C_ 0.221828 0.0796705 0.754725 -0.02249
C_ C_ 0.463747 0.0764228 0.743251 -0.02249
C_ C_ 0.169441 0.193826 0.751871 0.6875
C_ C_ 0.412638 0.189081 0.750251 0.6875
C_ C_ 0.206197 0.0923743 0.717964 -0.11473
C_ C_ 0.46586 0.104908 0.712531 -0.11473
C_ C_ 0.072496 0.149647 0.753611 -0.02249
C_ C_ 0.316896 0.15463 0.754202 -0.02249
C_ C_ 0.0190104 0.0379751 0.759958 -0.02249
C_ C_ 0.269156 0.0361099 0.753018 -0.02249
C_ C_ 0.0417365 0.0980938 0.719864 -0.11473
C_ C_ 0.290628 0.0966536 0.71698 -0.11473
C_ C_ 0.0707476 0.126105 0.79137 -0.11473
C_ C_ 0.31739 0.128574 0.791535 -0.11473
C_ C_ 0.0590169 0.132784 0.716794 -0.11473
C_ C_ 0.303387 0.137452 0.718039 -0.11473
C_ C_ 0.0371536 0.0778927 0.758634 -0.02249
C_ C_ 0.286362 0.0763563 0.755846 -0.02249
C_ C_ 0.0909993 0.188152 0.751939 0.6875
C_ C_ 0.33427 0.193465 0.752127 0.6875
C_ C_ 0.0522301 0.0919627 0.794217 -0.11473
C_ C_ 0.302416 0.0901402 0.791985 -0.11473
C_ C_ 0.129352 0.288085 0.875531 0.17695
C_ C_ 0.359402 0.268027 0.880743 0.17695
C_ C_ 0.124972 0.216019 0.87298 0.17695
C_ C_ 0.406237 0.234988 0.879239 0.17695
C_ C_ 0.125137 0.213936 0.917405 -0.11473
C_ C_ 0.407854 0.238371 0.923781 -0.11473
C_ C_ 0.123834 0.24962 0.942012 0.23465
C_ C_ 0.384876 0.254024 0.946247 0.23465
C_ C_ 0.124645 0.288079 0.91983 -0.11473
C_ C_ 0.359565 0.26689 0.923882 -0.11473
C_ C_ 0.12819 0.216938 0.625148 0.17695
C_ C_ 0.394548 0.262416 0.623625 0.17695
C_ C_ 0.129948 0.290692 0.622736 0.17695
C_ C_ 0.346818 0.230311 0.626441 0.17695
C_ C_ 0.130612 0.2894 0.579418 -0.11473
C_ C_ 0.347404 0.223034 0.582782 -0.11473
C_ C_ 0.125329 0.250266 0.556763 0.23465
C_ C_ 0.370855 0.235841 0.559047 0.23465
C_ C_ 0.125376 0.21448 0.581302 -0.11473
C_ C_ 0.393366 0.259759 0.580398 -0.11473
C_ C_ 0.0324435 0.498304 0.740525 0.05793
C_ C_ 0.282654 0.501771 0.744807 0.05793
C_ C_ 0.221316 -0.0004170000000000007 0.752725 0.05793
C_ C_ 0.464862 0.997975 0.745988 0.05793
Br Br 0.0756386 0.496481 0.750361 -0.17191
Br Br 0.325341 0.507044 0.741289 -0.17191
Br Br 0.17841 0.00378648 0.75022 -0.17191
Br Br 0.422698 0.997493 0.742366 -0.17191
N_ N_ 0.129948 0.253013 0.853672 -0.272
N_ N_ 0.382226 0.251483 0.858122 -0.272
N_ N_ 0.117182 0.246651 0.985512 -0.12501
N_ N_ 0.387622 0.256979 0.989687 -0.12501
N_ N_ 0.127961 0.255086 0.64477 -0.272
N_ N_ 0.371563 0.246218 0.646614 -0.272
N_ N_ 0.121239 0.247596 0.511226 -0.12501
N_ N_ 0.371792 0.226173 0.51406 -0.12501
O_ O_ 0.0953018 0.292057 0.710881 -0.60745
O_ O_ 0.336791 0.285707 0.715384 -0.60745
O_ O_ 0.100751 0.29499 0.779834 -0.60745
O_ O_ 0.349049 0.298438 0.781313 -0.60745
O_ O_ 0.163365 0.298182 0.782975 -0.60745
O_ O_ 0.410533 0.291369 0.786234 -0.60745
O_ O_ 0.161226 0.292078 0.715287 -0.60745
O_ O_ 0.403168 0.290884 0.716014 -0.60745
O_ O_ 0.157299 0.204899 0.785467 -0.60745
O_ O_ 0.408941 0.206874 0.784786 -0.60745
O_ O_ 0.15841 0.206505 0.716865 -0.60745
O_ O_ 0.403207 0.20492 0.716091 -0.60745
O_ O_ 0.0959722 0.204491 0.716536 -0.60745
O_ O_ 0.34045 0.206992 0.716179 -0.60745
O_ O_ 0.101765 0.206444 0.784893 -0.60745
O_ O_ 0.347397 0.206111 0.784255 -0.60745
Zn Zn 0.120977 0.746802 0.289089 0.9476
Zn Zn 0.377612 0.750235 0.288401 0.9476
Zn Zn 0.124807 0.749096 0.219561 0.9476
Zn Zn 0.378757 0.751858 0.217678 0.9476
H_ H_ 0.016571 0.897947 0.187428 0.10932
H_ H_ 0.297894 0.927754 0.185069 0.10932
H_ H_ 0.085347 0.873796 0.305279 0.10932
H_ H_ 0.30109 0.835008 0.307014 0.10932
H_ H_ 0.0412468 0.83543 0.185805 0.10932
H_ H_ 0.33195 0.869974 0.185595 0.10932
H_ H_ 0.0496543 0.93361 0.305076 0.10932
H_ H_ 0.272865 0.896113 0.311843 0.10932
H_ H_ 0.216302 0.917979 0.322355 0.10932
H_ H_ 0.467602 0.914759 0.326575 0.10932
H_ H_ 0.186414 0.848994 0.189245 0.10932
H_ H_ 0.4573 0.836405 0.195129 0.10932
H_ H_ 0.188232 0.848263 0.323311 0.10932
H_ H_ 0.433566 0.859724 0.322746 0.10932
H_ H_ 0.214553 0.917897 0.189254 0.10932
H_ H_ 0.491249 0.897407 0.197909 0.10932
H_ H_ 0.205312 0.576004 0.327362 0.10932
H_ H_ 0.476106 0.581653 0.31913 0.10932
H_ H_ 0.188168 0.652722 0.195768 0.10932
H_ H_ 0.425006 0.640014 0.191652 0.10932
H_ H_ 0.17863 0.637519 0.330759 0.10932
H_ H_ 0.445966 0.649618 0.32338 0.10932
H_ H_ 0.225294 0.591878 0.197658 0.10932
H_ H_ 0.45013 0.571862 0.19099 0.10932
H_ H_ 0.0334875 0.587655 0.168993 0.10932
H_ H_ 0.284595 0.584855 0.188538 0.10932
H_ H_ 0.0552922 0.641863 0.313146 0.10932
H_ H_ 0.317878 0.653065 0.31724 0.10932
H_ H_ 0.0621188 0.653947 0.176674 0.10932
H_ H_ 0.310402 0.650568 0.18343 0.10932
H_ H_ 0.0301714 0.574345 0.301762 0.10932
H_ H_ 0.284517 0.594069 0.321363 0.10932
H_ H_ 0.116706 0.813774 0.363644 0.10932
H_ H_ 0.365946 0.69373 0.36416 0.10932
H_ H_ 0.111952 0.680875 0.362693 0.10932
H_ H_ 0.391815 0.821337 0.357913 0.10932
H_ H_ 0.124615 0.6782 0.435042 0.10932
H_ H_ 0.396985 0.824367 0.43741 0.10932
H_ H_ 0.125268 0.811504 0.440809 0.10932
H_ H_ 0.367426 0.69775 0.442491 0.10932
H_ H_ 0.13745 0.686468 0.148243 0.10932
H_ H_ 0.382943 0.813161 0.133554 0.10932
H_ H_ 0.122909 0.81329 0.144827 0.10932
H_ H_ 0.368206 0.685927 0.148703 0.10932
H_ H_ 0.11511 0.810998 0.0651698 0.10932
H_ H_ 0.372521 0.678777 0.0694576 0.10932
H_ H_ 0.133604 0.682449 0.0683829 0.10932
H_ H_ 0.38219 0.806049 0.0551142 0.10932
C_ C_ 0.0677157 0.848905 0.244042 -0.02249
C_ C_ 0.31772 0.844841 0.246021 -0.02249
C_ C_ 0.0169354 0.96375 0.241895 -0.02249
C_ C_ 0.265801 0.962051 0.25737 -0.02249
C_ C_ 0.0317406 0.894638 0.210187 -0.11473
C_ C_ 0.299307 0.910539 0.21363 -0.11473
C_ C_ 0.0699624 0.876953 0.279612 -0.11473
C_ C_ 0.302029 0.856359 0.281494 -0.11473
C_ C_ 0.046732 0.856104 0.211411 -0.11473
C_ C_ 0.317454 0.874592 0.212148 -0.11473
C_ C_ 0.0353412 0.925267 0.242446 -0.02249
C_ C_ 0.283848 0.922064 0.250599 -0.02249
C_ C_ 0.0859444 0.809583 0.244277 0.6875
C_ C_ 0.33663 0.805985 0.248361 0.6875
C_ C_ 0.050627 0.912616 0.279758 -0.11473
C_ C_ 0.285504 0.892449 0.283368 -0.11473
C_ C_ 0.183622 0.844377 0.255464 -0.02249
C_ C_ 0.438426 0.84809 0.254601 -0.02249
C_ C_ 0.233695 0.961128 0.256315 -0.02249
C_ C_ 0.490364 0.95903 0.259744 -0.02249
C_ C_ 0.211037 0.90136 0.293371 -0.11473
C_ C_ 0.461735 0.903627 0.294678 -0.11473
C_ C_ 0.194849 0.862105 0.217542 -0.11473
C_ C_ 0.456773 0.856571 0.221692 -0.11473
C_ C_ 0.193839 0.86292 0.293276 -0.11473
C_ C_ 0.442829 0.87079 0.292231 -0.11473
C_ C_ 0.218059 0.920393 0.255187 -0.02249
C_ C_ 0.476911 0.91679 0.260371 -0.02249
C_ C_ 0.165627 0.805916 0.2545 0.6875
C_ C_ 0.416133 0.813201 0.253869 0.6875
C_ C_ 0.210006 0.900025 0.218287 -0.11473
C_ C_ 0.475555 0.890747 0.223302 -0.11473
C_ C_ 0.186057 0.654478 0.262368 -0.02249
C_ C_ 0.433369 0.64932 0.258366 -0.02249
C_ C_ 0.235246 0.540356 0.262626 -0.02249
C_ C_ 0.480759 0.534338 0.251648 -0.02249
C_ C_ 0.202377 0.592196 0.298399 -0.11473
C_ C_ 0.463153 0.594879 0.293314 -0.11473
C_ C_ 0.195089 0.637817 0.224284 -0.11473
C_ C_ 0.435143 0.627483 0.221223 -0.11473
C_ C_ 0.186633 0.628942 0.298737 -0.11473
C_ C_ 0.448723 0.63304 0.294803 -0.11473
C_ C_ 0.215622 0.577746 0.261808 -0.02249
C_ C_ 0.463107 0.573764 0.256699 -0.02249
C_ C_ 0.165144 0.691343 0.262352 0.6875
C_ C_ 0.415278 0.687448 0.259783 0.6875
C_ C_ 0.213294 0.601818 0.22469 -0.11473
C_ C_ 0.449931 0.589697 0.218942 -0.11473
C_ C_ 0.0625979 0.65349 0.24584 -0.02249
C_ C_ 0.314021 0.659963 0.250543 -0.02249
C_ C_ 0.0110468 0.540741 0.231953 -0.02249
C_ C_ 0.266708 0.544052 0.260498 -0.02249
C_ C_ 0.038218 0.60044 0.199335 -0.11473
C_ C_ 0.288106 0.601579 0.216076 -0.11473
C_ C_ 0.0546738 0.628846 0.280527 -0.11473
C_ C_ 0.308961 0.640605 0.288588 -0.11473
C_ C_ 0.0560596 0.636059 0.20413 -0.11473
C_ C_ 0.301488 0.640451 0.213756 -0.11473
C_ C_ 0.0276209 0.578275 0.234573 -0.02249
C_ C_ 0.282588 0.584441 0.255401 -0.02249
C_ C_ 0.0800367 0.692399 0.250987 0.6875
C_ C_ 0.335044 0.695676 0.251421 0.6875
C_ C_ 0.0379975 0.591775 0.274572 -0.11473
C_ C_ 0.290436 0.606009 0.290798 -0.11473
C_ C_ 0.118966 0.783235 0.381189 0.17695
C_ C_ 0.373504 0.722355 0.380796 0.17695
C_ C_ 0.116754 0.709362 0.380399 0.17695
C_ C_ 0.386848 0.793495 0.378106 0.17695
C_ C_ 0.117043 0.707596 0.422249 -0.11473
C_ C_ 0.390223 0.794554 0.422309 -0.11473
C_ C_ 0.120681 0.743931 0.447036 0.23465
C_ C_ 0.377996 0.762756 0.445857 0.23465
C_ C_ 0.11987 0.782873 0.424035 -0.11473
C_ C_ 0.370296 0.726188 0.424815 -0.11473
C_ C_ 0.135625 0.712987 0.129511 0.17695
C_ C_ 0.382967 0.782569 0.117799 0.17695
C_ C_ 0.123117 0.783738 0.12662 0.17695
C_ C_ 0.371974 0.71387 0.127756 0.17695
C_ C_ 0.120993 0.782263 0.0810813 -0.11473
C_ C_ 0.370892 0.708163 0.0824842 -0.11473
C_ C_ 0.127159 0.744986 0.061165 0.23465
C_ C_ 0.374295 0.742172 0.0549228 0.23465
C_ C_ 0.131778 0.709835 0.0850261 -0.11473
C_ C_ 0.378197 0.779853 0.0745203 -0.11473
C_ C_ 0.0319735 1.0027917 0.244412 0.05793
C_ C_ 0.280252 1.00100167 0.254996 0.05793
C_ C_ 0.22083 0.500717 0.262695 0.05793
C_ C_ 0.466035 0.495239 0.257055 0.05793
Br Br 0.0750951 0.00574042 0.240861 -0.17191
Br Br 0.322144 1.00459073 0.259313 -0.17191
Br Br 0.178121 0.497242 0.264256 -0.17191
Br Br 0.423633 0.490995 0.267406 -0.17191
N_ N_ 0.1173 0.746061 0.358742 -0.272
N_ N_ 0.378656 0.757915 0.358619 -0.272
N_ N_ 0.126632 0.740729 0.490563 -0.12501
N_ N_ 0.377425 0.767239 0.490938 -0.12501
N_ N_ 0.126128 0.747886 0.148525 -0.272
N_ N_ 0.375472 0.751776 0.143852 -0.272
N_ N_ 0.122543 0.738978 0.0155172 -0.12501
N_ N_ 0.373025 0.73736 0.0093753 -0.12501
O_ O_ 0.0945844 0.793382 0.211365 -0.60745
O_ O_ 0.350456 0.796624 0.215688 -0.60745
O_ O_ 0.0914205 0.792206 0.279742 -0.60745
O_ O_ 0.346827 0.792765 0.284209 -0.60745
O_ O_ 0.151787 0.795298 0.287135 -0.60745
O_ O_ 0.409811 0.794636 0.28687 -0.60745
O_ O_ 0.157379 0.790516 0.22005 -0.60745
O_ O_ 0.410996 0.795339 0.218429 -0.60745
O_ O_ 0.15282 0.706127 0.295972 -0.60745
O_ O_ 0.407523 0.70531 0.293989 -0.60745
O_ O_ 0.155588 0.702854 0.226812 -0.60745
O_ O_ 0.407818 0.70505 0.226496 -0.60745
O_ O_ 0.0914261 0.707147 0.218977 -0.60745
O_ O_ 0.343053 0.710208 0.216557 -0.60745
O_ O_ 0.0916505 0.702076 0.28542 -0.60745
O_ O_ 0.34669 0.707076 0.286921 -0.60745
Zn Zn 0.124661 0.747662 0.788107 0.9476
Zn Zn 0.375441 0.744245 0.783421 0.9476
Zn Zn 0.123855 0.753604 0.718629 0.9476
Zn Zn 0.376124 0.748692 0.716676 0.9476
H_ H_ 0.0421226 0.93301 0.694035 0.10932
H_ H_ 0.291679 0.921622 0.692739 0.10932
H_ H_ 0.0630099 0.848076 0.820215 0.10932
H_ H_ 0.312006 0.845011 0.822676 0.10932
H_ H_ 0.070662 0.869801 0.688116 0.10932
H_ H_ 0.320658 0.857716 0.688925 0.10932
H_ H_ 0.03194 0.91174 0.827215 0.10932
H_ H_ 0.290549 0.913531 0.824063 0.10932
H_ H_ 0.217881 0.920659 0.825144 0.10932
H_ H_ 0.454421 0.920451 0.815102 0.10932
H_ H_ 0.189427 0.850289 0.691216 0.10932
H_ H_ 0.447826 0.839961 0.686625 0.10932
H_ H_ 0.189936 0.856553 0.825697 0.10932
H_ H_ 0.423897 0.861054 0.815181 0.10932
H_ H_ 0.220519 0.913935 0.689727 0.10932
H_ H_ 0.474044 0.905146 0.683173 0.10932
H_ H_ 0.206587 0.572924 0.817444 0.10932
H_ H_ 0.458306 0.574103 0.810512 0.10932
H_ H_ 0.188297 0.653571 0.689045 0.10932
H_ H_ 0.454873 0.663778 0.685679 0.10932
H_ H_ 0.185771 0.642243 0.821355 0.10932
H_ H_ 0.427266 0.628397 0.809966 0.10932
H_ H_ 0.21378 0.585741 0.684933 0.10932
H_ H_ 0.482053 0.598898 0.680907 0.10932
H_ H_ 0.045158 0.580116 0.677929 0.10932
H_ H_ 0.289995 0.57975 0.683901 0.10932
H_ H_ 0.0482546 0.66549 0.80614 0.10932
H_ H_ 0.313549 0.643931 0.820893 0.10932
H_ H_ 0.07114 0.638841 0.678982 0.10932
H_ H_ 0.310066 0.650113 0.684707 0.10932
H_ H_ 0.0219799 0.593596 0.810933 0.10932
H_ H_ 0.285177 0.577006 0.815941 0.10932
H_ H_ 0.121606 0.822988 0.854887 0.10932
H_ H_ 0.39396 0.811998 0.851069 0.10932
H_ H_ 0.126812 0.692403 0.869791 0.10932
H_ H_ 0.375571 0.685703 0.861455 0.10932
H_ H_ 0.126415 0.698207 0.944263 0.10932
H_ H_ 0.377352 0.689408 0.941285 0.10932
H_ H_ 0.124547 0.829735 0.930956 0.10932
H_ H_ 0.39054 0.821986 0.927675 0.10932
H_ H_ 0.124048 0.694056 0.640842 0.10932
H_ H_ 0.377464 0.810622 0.635496 0.10932
H_ H_ 0.13114 0.820842 0.648124 0.10932
H_ H_ 0.384438 0.680388 0.646043 0.10932
H_ H_ 0.129759 0.827354 0.571523 0.10932
H_ H_ 0.380622 0.674472 0.566434 0.10932
H_ H_ 0.116828 0.695814 0.563538 0.10932
H_ H_ 0.366896 0.807171 0.560256 0.10932
C_ C_ 0.0686832 0.851874 0.753737 -0.02249
C_ C_ 0.321115 0.846425 0.757001 -0.02249
C_ C_ 0.0165792 0.963306 0.766465 -0.02249
C_ C_ 0.26941 0.960261 0.759128 -0.02249
C_ C_ 0.0439575 0.912109 0.72131 -0.11473
C_ C_ 0.297107 0.905297 0.719661 -0.11473
C_ C_ 0.0566484 0.863366 0.792571 -0.11473
C_ C_ 0.313068 0.863899 0.794418 -0.11473
C_ C_ 0.0605012 0.875227 0.71931 -0.11473
C_ C_ 0.30968 0.867063 0.718718 -0.11473
C_ C_ 0.0322563 0.923486 0.760003 -0.02249
C_ C_ 0.287738 0.921049 0.757057 -0.02249
C_ C_ 0.0878199 0.813466 0.750846 0.6875
C_ C_ 0.3364 0.805062 0.756068 0.6875
C_ C_ 0.0416176 0.901537 0.796574 -0.11473
C_ C_ 0.296655 0.900952 0.79434 -0.11473
C_ C_ 0.189476 0.843782 0.759093 -0.02249
C_ C_ 0.434723 0.845584 0.749322 -0.02249
C_ C_ 0.237274 0.960863 0.754292 -0.02249
C_ C_ 0.481625 0.959759 0.747871 -0.02249
C_ C_ 0.209137 0.907093 0.794862 -0.11473
C_ C_ 0.451296 0.905813 0.785717 -0.11473
C_ C_ 0.199136 0.862177 0.720207 -0.11473
C_ C_ 0.452031 0.85597 0.71485 -0.11473
C_ C_ 0.196003 0.867321 0.796165 -0.11473
C_ C_ 0.433675 0.871281 0.784331 -0.11473
C_ C_ 0.219264 0.922497 0.755223 -0.02249
C_ C_ 0.464762 0.919361 0.749692 -0.02249
C_ C_ 0.165957 0.809281 0.759184 0.6875
C_ C_ 0.416142 0.805171 0.745365 0.6875
C_ C_ 0.214713 0.899649 0.719612 -0.11473
C_ C_ 0.46511 0.894994 0.71284 -0.11473
C_ C_ 0.18368 0.651948 0.75701 -0.02249
C_ C_ 0.435067 0.650865 0.747751 -0.02249
C_ C_ 0.233521 0.537366 0.750214 -0.02249
C_ C_ 0.487348 0.536478 0.742709 -0.02249
C_ C_ 0.20565 0.591821 0.790583 -0.11473
C_ C_ 0.45692 0.590395 0.781104 -0.11473
C_ C_ 0.192793 0.635547 0.717633 -0.11473
C_ C_ 0.452676 0.641075 0.711073 -0.11473
C_ C_ 0.189765 0.628947 0.792788 -0.11473
C_ C_ 0.438307 0.624606 0.780256 -0.11473
C_ C_ 0.214819 0.575465 0.751535 -0.02249
C_ C_ 0.471679 0.577702 0.744038 -0.02249
C_ C_ 0.162542 0.688781 0.758209 0.6875
C_ C_ 0.415521 0.686687 0.748794 0.6875
C_ C_ 0.209378 0.598319 0.716062 -0.11473
C_ C_ 0.467342 0.603158 0.707733 -0.11473
C_ C_ 0.0643138 0.65398 0.744512 -0.02249
C_ C_ 0.314451 0.652069 0.75272 -0.02249
C_ C_ 0.0162439 0.53631 0.742275 -0.02249
C_ C_ 0.265109 0.538822 0.74875 -0.02249
C_ C_ 0.0435858 0.595425 0.707196 -0.11473
C_ C_ 0.289708 0.597469 0.71243 -0.11473
C_ C_ 0.0481445 0.642912 0.779076 -0.11473
C_ C_ 0.307698 0.630865 0.789731 -0.11473
C_ C_ 0.0614533 0.630739 0.707751 -0.11473
C_ C_ 0.304056 0.636596 0.713274 -0.11473
C_ C_ 0.0322479 0.577733 0.744034 -0.02249
C_ C_ 0.280597 0.578715 0.749525 -0.02249
C_ C_ 0.0842948 0.691698 0.747242 0.6875
C_ C_ 0.335174 0.689106 0.753776 0.6875
C_ C_ 0.0329606 0.60391 0.781592 -0.11473
C_ C_ 0.288995 0.595545 0.787822 -0.11473
C_ C_ 0.120848 0.795072 0.874902 0.17695
C_ C_ 0.386402 0.786343 0.870016 0.17695
C_ C_ 0.124847 0.721191 0.883039 0.17695
C_ C_ 0.379752 0.714016 0.876479 0.17695
C_ C_ 0.126571 0.725568 0.927185 -0.11473
C_ C_ 0.379199 0.717374 0.921683 -0.11473
C_ C_ 0.124269 0.765303 0.946568 0.23465
C_ C_ 0.384418 0.756003 0.941468 0.23465
C_ C_ 0.122821 0.800507 0.917834 -0.11473
C_ C_ 0.385982 0.790605 0.915153 -0.11473
C_ C_ 0.123371 0.722299 0.624471 0.17695
C_ C_ 0.371168 0.78052 0.622233 0.17695
C_ C_ 0.132565 0.793435 0.629028 0.17695
C_ C_ 0.380293 0.70823 0.626412 0.17695
C_ C_ 0.126698 0.796793 0.586309 -0.11473
C_ C_ 0.378836 0.704854 0.582633 -0.11473
C_ C_ 0.121565 0.763114 0.560279 0.23465
C_ C_ 0.372229 0.74036 0.558861 0.23465
C_ C_ 0.119881 0.724544 0.581267 -0.11473
C_ C_ 0.36668 0.777572 0.578965 -0.11473
C_ C_ 0.0335797 0.000135439 0.762417 0.05793
C_ C_ 0.285534 -0.00145099999999998 0.758978 0.05793
C_ C_ 0.218283 0.499596 0.744912 0.05793
C_ C_ 0.471057 0.497867 0.740674 0.05793
Br Br 0.0763818 -0.0022170000000000245 0.758092 -0.17191
Br Br 0.328645 -0.0047359999999999625 0.760911 -0.17191
Br Br 0.175964 0.491803 0.75859 -0.17191
Br Br 0.426828 0.501279 0.736345 -0.17191
N_ N_ 0.121657 0.756009 0.858487 -0.272
N_ N_ 0.381635 0.747553 0.85217 -0.272
N_ N_ 0.124064 0.769302 0.991388 -0.12501
N_ N_ 0.386956 0.760884 0.986256 -0.12501
N_ N_ 0.12913 0.756588 0.648261 -0.272
N_ N_ 0.373456 0.744722 0.646158 -0.272
N_ N_ 0.118733 0.768331 0.51644 -0.12501
N_ N_ 0.373626 0.736588 0.514917 -0.12501
O_ O_ 0.0967056 0.800989 0.715353 -0.60745
O_ O_ 0.343188 0.789886 0.720594 -0.60745
O_ O_ 0.0967418 0.794858 0.783175 -0.60745
O_ O_ 0.349068 0.792339 0.790418 -0.60745
O_ O_ 0.156819 0.79588 0.793924 -0.60745
O_ O_ 0.409077 0.786382 0.778797 -0.60745
O_ O_ 0.15696 0.791865 0.725795 -0.60745
O_ O_ 0.403803 0.794606 0.710525 -0.60745
O_ O_ 0.157656 0.707008 0.793842 -0.60745
O_ O_ 0.404625 0.69969 0.783092 -0.60745
O_ O_ 0.151406 0.70412 0.723111 -0.60745
O_ O_ 0.407285 0.7042 0.713999 -0.60745
O_ O_ 0.0901664 0.712217 0.714148 -0.60745
O_ O_ 0.349022 0.700597 0.721913 -0.60745
O_ O_ 0.0961163 0.704515 0.782384 -0.60745
O_ O_ 0.34253 0.707026 0.787816 -0.60745
Zn Zn 0.621331 0.253967 0.277292 0.9476
Zn Zn 0.878213 0.250677 0.276991 0.9476
Zn Zn 0.620745 0.251829 0.205242 0.9476
Zn Zn 0.873879 0.247275 0.207982 0.9476
H_ H_ 0.511939 0.403246 0.183892 0.10932
H_ H_ 0.77237 0.410613 0.171137 0.10932
H_ H_ 0.565894 0.361377 0.308337 0.10932
H_ H_ 0.824823 0.362655 0.302484 0.10932
H_ H_ 0.542101 0.338764 0.181598 0.10932
H_ H_ 0.803526 0.346631 0.169159 0.10932
H_ H_ 0.547414 0.430691 0.298985 0.10932
H_ H_ 0.796489 0.426125 0.300514 0.10932
H_ H_ 0.726354 0.408823 0.299734 0.10932
H_ H_ 0.972777 0.410285 0.309862 0.10932
H_ H_ 0.666278 0.367556 0.175864 0.10932
H_ H_ 0.928705 0.358874 0.172928 0.10932
H_ H_ 0.69817 0.342858 0.302518 0.10932
H_ H_ 0.940216 0.349315 0.306961 0.10932
H_ H_ 0.697652 0.426384 0.172805 0.10932
H_ H_ 0.952073 0.427045 0.177067 0.10932
H_ H_ 0.707614 0.084716 0.312321 0.10932
H_ H_ 0.96033 0.0827215 0.319388 0.10932
H_ H_ 0.692233 0.158338 0.176869 0.10932
H_ H_ 0.933475 0.136032 0.182084 0.10932
H_ H_ 0.677224 0.143622 0.310279 0.10932
H_ H_ 0.944236 0.159294 0.311896 0.10932
H_ H_ 0.718333 0.0905515 0.178859 0.10932
H_ H_ 0.959265 0.0702095 0.184441 0.10932
H_ H_ 0.539082 0.0670999 0.193355 0.10932
H_ H_ 0.783116 0.0780562 0.186525 0.10932
H_ H_ 0.546795 0.174564 0.302681 0.10932
H_ H_ 0.810251 0.160529 0.315477 0.10932
H_ H_ 0.569619 0.129325 0.179518 0.10932
H_ H_ 0.812647 0.142718 0.179595 0.10932
H_ H_ 0.524197 0.106021 0.319731 0.10932
H_ H_ 0.78241 0.0960523 0.321233 0.10932
H_ H_ 0.607485 0.185811 0.340191 0.10932
H_ H_ 0.870251 0.188398 0.353586 0.10932
H_ H_ 0.627522 0.312741 0.36517 0.10932
H_ H_ 0.877237 0.315973 0.352566 0.10932
H_ H_ 0.623528 0.302286 0.438146 0.10932
H_ H_ 0.875815 0.31931 0.432828 0.10932
H_ H_ 0.614763 0.171055 0.419539 0.10932
H_ H_ 0.869387 0.185094 0.430635 0.10932
H_ H_ 0.630966 0.189342 0.125027 0.10932
H_ H_ 0.88451 0.305151 0.128365 0.10932
H_ H_ 0.615564 0.31463 0.135991 0.10932
H_ H_ 0.859478 0.180646 0.132518 0.10932
H_ H_ 0.600136 0.323271 0.0631006 0.10932
H_ H_ 0.854562 0.17631 0.0575944 0.10932
H_ H_ 0.624562 0.194756 0.0490586 0.10932
H_ H_ 0.889174 0.30135 0.0502721 0.10932
C_ C_ 0.561296 0.349017 0.242156 -0.02249
C_ C_ 0.814844 0.34586 0.23654 -0.02249
C_ C_ 0.513945 0.462534 0.238701 -0.02249
C_ C_ 0.765958 0.46252 0.236806 -0.02249
C_ C_ 0.530687 0.398982 0.20276 -0.11473
C_ C_ 0.785437 0.400854 0.199228 -0.11473
C_ C_ 0.556586 0.370883 0.278129 -0.11473
C_ C_ 0.814093 0.371429 0.272402 -0.11473
C_ C_ 0.545037 0.3607 0.204504 -0.11473
C_ C_ 0.800817 0.361906 0.198737 -0.11473
C_ C_ 0.531717 0.424752 0.237713 -0.02249
C_ C_ 0.783533 0.422298 0.235086 -0.02249
C_ C_ 0.583137 0.314034 0.24144 0.6875
C_ C_ 0.8364 0.311417 0.237416 0.6875
C_ C_ 0.54556 0.410838 0.275372 -0.11473
C_ C_ 0.795151 0.405736 0.272411 -0.11473
C_ C_ 0.677353 0.352172 0.239933 -0.02249
C_ C_ 0.933749 0.34762 0.240995 -0.02249
C_ C_ 0.733841 0.461183 0.235416 -0.02249
C_ C_ 0.979766 0.464743 0.244746 -0.02249
C_ C_ 0.716165 0.395527 0.271886 -0.11473
C_ C_ 0.962307 0.401223 0.281036 -0.11473
C_ C_ 0.67906 0.374559 0.202476 -0.11473
C_ C_ 0.935987 0.371906 0.20426 -0.11473
C_ C_ 0.697548 0.361364 0.273554 -0.11473
C_ C_ 0.946969 0.361607 0.278764 -0.11473
C_ C_ 0.716395 0.41996 0.23598 -0.02249
C_ C_ 0.963929 0.424302 0.244026 -0.02249
C_ C_ 0.659059 0.312812 0.242264 0.6875
C_ C_ 0.913707 0.309919 0.241102 0.6875
C_ C_ 0.695441 0.410867 0.201937 -0.11473
C_ C_ 0.950331 0.410213 0.206271 -0.11473
C_ C_ 0.683971 0.159243 0.244273 -0.02249
C_ C_ 0.933756 0.151647 0.247893 -0.02249
C_ C_ 0.733683 0.0411891 0.247822 -0.02249
C_ C_ 0.984637 0.0376495 0.259156 -0.02249
C_ C_ 0.705128 0.098873 0.282126 -0.11473
C_ C_ 0.959459 0.0990898 0.289947 -0.11473
C_ C_ 0.69512 0.141803 0.20673 -0.11473
C_ C_ 0.940753 0.126854 0.211443 -0.11473
C_ C_ 0.689176 0.135386 0.280772 -0.11473
C_ C_ 0.946317 0.138935 0.285262 -0.11473
C_ C_ 0.716284 0.082918 0.245301 -0.02249
C_ C_ 0.967238 0.0766393 0.25269 -0.02249
C_ C_ 0.663387 0.196882 0.244443 0.6875
C_ C_ 0.911914 0.186109 0.246431 0.6875
C_ C_ 0.709413 0.10378 0.205798 -0.11473
C_ C_ 0.955749 0.0889915 0.21408 -0.11473
C_ C_ 0.562798 0.154612 0.242645 -0.02249
C_ C_ 0.813127 0.157699 0.245595 -0.02249
C_ C_ 0.514699 0.0406188 0.262671 -0.02249
C_ C_ 0.764847 0.0407121 0.255434 -0.02249
C_ C_ 0.542622 0.0893638 0.217849 -0.11473
C_ C_ 0.791572 0.0936284 0.215388 -0.11473
C_ C_ 0.544712 0.151025 0.278862 -0.11473
C_ C_ 0.805796 0.142454 0.286501 -0.11473
C_ C_ 0.558219 0.125326 0.209913 -0.11473
C_ C_ 0.807794 0.130801 0.210775 -0.11473
C_ C_ 0.528358 0.0836672 0.255232 -0.02249
C_ C_ 0.78216 0.0804144 0.255409 -0.02249
C_ C_ 0.581227 0.191539 0.237886 0.6875
C_ C_ 0.834275 0.192351 0.241448 0.6875
C_ C_ 0.531917 0.113258 0.287234 -0.11473
C_ C_ 0.789369 0.103485 0.290725 -0.11473
C_ C_ 0.612934 0.209615 0.362691 0.17695
C_ C_ 0.873935 0.215861 0.370472 0.17695
C_ C_ 0.624611 0.280739 0.3769 0.17695
C_ C_ 0.873017 0.290213 0.371571 0.17695
C_ C_ 0.619577 0.274988 0.418572 -0.11473
C_ C_ 0.873059 0.289963 0.415339 -0.11473
C_ C_ 0.617482 0.235221 0.435832 0.23465
C_ C_ 0.870669 0.252545 0.43685 0.23465
C_ C_ 0.613283 0.201795 0.407452 -0.11473
C_ C_ 0.871724 0.21494 0.414289 -0.11473
C_ C_ 0.624165 0.218468 0.110687 0.17695
C_ C_ 0.880959 0.276953 0.111772 0.17695
C_ C_ 0.61251 0.28882 0.117606 0.17695
C_ C_ 0.868068 0.204858 0.11517 0.17695
C_ C_ 0.606503 0.293427 0.0746732 -0.11473
C_ C_ 0.866327 0.202718 0.072731 -0.11473
C_ C_ 0.612736 0.260792 0.0491529 0.23465
C_ C_ 0.873037 0.236539 0.0471905 0.23465
C_ C_ 0.6194 0.222264 0.0670641 -0.11473
C_ C_ 0.880474 0.274469 0.0676845 -0.11473
C_ C_ 0.528265 0.502025 0.236783 0.05793
C_ C_ 0.779971 0.50133 0.241465 0.05793
C_ C_ 0.717268 1.00288443 0.244509 0.05793
C_ C_ 0.969718 0.999462 0.257206 0.05793
Br Br 0.567745 0.504 0.213235 -0.17191
Br Br 0.824371 0.501885 0.238258 -0.17191
Br Br 0.675315 0.0072989 0.231102 -0.17191
Br Br 0.926117 0.000522653 0.268085 -0.17191
N_ N_ 0.61892 0.248415 0.348493 -0.272
N_ N_ 0.873138 0.253035 0.350347 -0.272
N_ N_ 0.616113 0.226722 0.480756 -0.12501
N_ N_ 0.866411 0.252168 0.480659 -0.12501
N_ N_ 0.621545 0.253571 0.135169 -0.272
N_ N_ 0.873753 0.242522 0.134685 -0.272
N_ N_ 0.617448 0.267867 0.0049064 -0.12501
N_ N_ 0.868433 0.234134 0.00290225 -0.12501
O_ O_ 0.591311 0.298469 0.206831 -0.60745
O_ O_ 0.839001 0.289113 0.203863 -0.60745
O_ O_ 0.592721 0.298904 0.276023 -0.60745
O_ O_ 0.850556 0.301022 0.270177 -0.60745
O_ O_ 0.653877 0.295207 0.277154 -0.60745
O_ O_ 0.913289 0.285704 0.273043 -0.60745
O_ O_ 0.651228 0.293182 0.208151 -0.60745
O_ O_ 0.902737 0.298171 0.207989 -0.60745
O_ O_ 0.652015 0.208505 0.278641 -0.60745
O_ O_ 0.904237 0.203156 0.279972 -0.60745
O_ O_ 0.650933 0.206415 0.208274 -0.60745
O_ O_ 0.906606 0.203248 0.212255 -0.60745
O_ O_ 0.590295 0.205507 0.20261 -0.60745
O_ O_ 0.839473 0.207488 0.206415 -0.60745
O_ O_ 0.587325 0.21299 0.270894 -0.60745
O_ O_ 0.844897 0.208335 0.27419 -0.60745
Zn Zn 0.623897 0.247384 0.774878 0.9476
Zn Zn 0.87266 0.248831 0.776421 0.9476
Zn Zn 0.624006 0.246992 0.707198 0.9476
Zn Zn 0.875031 0.247163 0.707959 0.9476
H_ H_ 0.545904 0.422245 0.684363 0.10932
H_ H_ 0.772857 0.411341 0.678226 0.10932
H_ H_ 0.552207 0.332235 0.811236 0.10932
H_ H_ 0.819673 0.356264 0.812403 0.10932
H_ H_ 0.575375 0.358906 0.684801 0.10932
H_ H_ 0.816365 0.3564 0.6795 0.10932
H_ H_ 0.525261 0.40198 0.814852 0.10932
H_ H_ 0.796704 0.425152 0.806905 0.10932
H_ H_ 0.712094 0.41365 0.811996 0.10932
H_ H_ 0.967017 0.415485 0.809267 0.10932
H_ H_ 0.677761 0.362503 0.673346 0.10932
H_ H_ 0.926536 0.36029 0.675366 0.10932
H_ H_ 0.685731 0.347202 0.805868 0.10932
H_ H_ 0.937133 0.34971 0.809729 0.10932
H_ H_ 0.701496 0.426636 0.680354 0.10932
H_ H_ 0.964558 0.414964 0.673814 0.10932
H_ H_ 0.730675 0.100884 0.809757 0.10932
H_ H_ 0.976109 0.100935 0.820607 0.10932
H_ H_ 0.66985 0.121501 0.679355 0.10932
H_ H_ 0.935683 0.136864 0.682971 0.10932
H_ H_ 0.698162 0.160945 0.802366 0.10932
H_ H_ 0.95165 0.165358 0.813748 0.10932
H_ H_ 0.702332 0.0601733 0.686547 0.10932
H_ H_ 0.961443 0.0701244 0.691947 0.10932
H_ H_ 0.538875 0.0772142 0.677382 0.10932
H_ H_ 0.767896 0.0914103 0.690066 0.10932
H_ H_ 0.55868 0.148411 0.810044 0.10932
H_ H_ 0.829369 0.132167 0.813544 0.10932
H_ H_ 0.56911 0.137596 0.677487 0.10932
H_ H_ 0.799574 0.15376 0.686961 0.10932
H_ H_ 0.529727 0.0871034 0.811676 0.10932
H_ H_ 0.799764 0.0656946 0.813876 0.10932
H_ H_ 0.613369 0.310182 0.850495 0.10932
H_ H_ 0.922154 0.245245 0.844345 0.10932
H_ H_ 0.636596 0.184331 0.848813 0.10932
H_ H_ 0.828602 0.254368 0.852852 0.10932
H_ H_ 0.62806 0.178818 0.924745 0.10932
H_ H_ 0.831751 0.240142 0.929991 0.10932
H_ H_ 0.613597 0.309169 0.928528 0.10932
H_ H_ 0.928708 0.252184 0.920548 0.10932
H_ H_ 0.614864 0.311905 0.638938 0.10932
H_ H_ 0.864966 0.300441 0.62858 0.10932
H_ H_ 0.627403 0.183231 0.630212 0.10932
H_ H_ 0.892649 0.175388 0.635469 0.10932
H_ H_ 0.631087 0.187181 0.557003 0.10932
H_ H_ 0.894489 0.172548 0.559911 0.10932
H_ H_ 0.606602 0.314567 0.558199 0.10932
H_ H_ 0.863127 0.295411 0.552006 0.10932
C_ C_ 0.565844 0.341912 0.749281 -0.02249
C_ C_ 0.814342 0.345719 0.744089 -0.02249
C_ C_ 0.517969 0.458499 0.750323 -0.02249
C_ C_ 0.764577 0.461589 0.746705 -0.02249
C_ C_ 0.548695 0.405663 0.714126 -0.11473
C_ C_ 0.78556 0.400549 0.706744 -0.11473
C_ C_ 0.551463 0.354748 0.785847 -0.11473
C_ C_ 0.807674 0.365551 0.782714 -0.11473
C_ C_ 0.563325 0.366745 0.712742 -0.11473
C_ C_ 0.804559 0.364596 0.707423 -0.11473
C_ C_ 0.535201 0.419253 0.750423 -0.02249
C_ C_ 0.780804 0.421936 0.743581 -0.02249
C_ C_ 0.585662 0.303715 0.748253 0.6875
C_ C_ 0.83457 0.308228 0.742351 0.6875
C_ C_ 0.537201 0.39293 0.78647 -0.11473
C_ C_ 0.794391 0.406606 0.780477 -0.11473
C_ C_ 0.68084 0.34796 0.739741 -0.02249
C_ C_ 0.93347 0.347028 0.741471 -0.02249
C_ C_ 0.733307 0.46149 0.749435 -0.02249
C_ C_ 0.986588 0.459591 0.740437 -0.02249
C_ C_ 0.707345 0.401283 0.781311 -0.11473
C_ C_ 0.961406 0.401505 0.780365 -0.11473
C_ C_ 0.687678 0.370509 0.704073 -0.11473
C_ C_ 0.940096 0.368473 0.703684 -0.11473
C_ C_ 0.688933 0.365771 0.779008 -0.11473
C_ C_ 0.943006 0.364705 0.779479 -0.11473
C_ C_ 0.715791 0.421529 0.745944 -0.02249
C_ C_ 0.972029 0.417487 0.742086 -0.02249
C_ C_ 0.661733 0.310509 0.73887 0.6875
C_ C_ 0.912815 0.310643 0.740728 0.6875
C_ C_ 0.70315 0.408398 0.707765 -0.11473
C_ C_ 0.958325 0.4019 0.703537 -0.11473
C_ C_ 0.683595 0.148917 0.740694 -0.02249
C_ C_ 0.940653 0.156854 0.747118 -0.02249
C_ C_ 0.735217 0.0347215 0.757324 -0.02249
C_ C_ 0.988388 0.0412103 0.76269 -0.02249
C_ C_ 0.714518 0.102311 0.783548 -0.11473
C_ C_ 0.96816 0.108873 0.791109 -0.11473
C_ C_ 0.684606 0.119179 0.707586 -0.11473
C_ C_ 0.945366 0.130493 0.71253 -0.11473
C_ C_ 0.699095 0.139245 0.779268 -0.11473
C_ C_ 0.955686 0.147545 0.786368 -0.11473
C_ C_ 0.717696 0.0741801 0.750411 -0.02249
C_ C_ 0.971695 0.0813533 0.757391 -0.02249
C_ C_ 0.662402 0.184652 0.739335 0.6875
C_ C_ 0.918491 0.1926 0.743116 0.6875
C_ C_ 0.702 0.0833272 0.711893 -0.11473
C_ C_ 0.960143 0.092169 0.717609 -0.11473
C_ C_ 0.565556 0.150716 0.744329 -0.02249
C_ C_ 0.818086 0.147228 0.749945 -0.02249
C_ C_ 0.51233 0.0368374 0.745289 -0.02249
C_ C_ 0.765879 0.0356503 0.749151 -0.02249
C_ C_ 0.54057 0.0937064 0.707346 -0.11473
C_ C_ 0.781419 0.100008 0.717073 -0.11473
C_ C_ 0.5546 0.133112 0.782436 -0.11473
C_ C_ 0.815872 0.123209 0.785691 -0.11473
C_ C_ 0.560178 0.128201 0.706734 -0.11473
C_ C_ 0.799062 0.137132 0.715337 -0.11473
C_ C_ 0.528989 0.0775983 0.74416 -0.02249
C_ C_ 0.783088 0.0749447 0.750489 -0.02249
C_ C_ 0.583085 0.190397 0.744742 0.6875
C_ C_ 0.836907 0.184603 0.749194 0.6875
C_ C_ 0.534632 0.0986099 0.781826 -0.11473
C_ C_ 0.797574 0.0881049 0.787266 -0.11473
C_ C_ 0.61606 0.281073 0.867241 0.17695
C_ C_ 0.903442 0.247854 0.865495 0.17695
C_ C_ 0.627846 0.210154 0.865329 0.17695
C_ C_ 0.850441 0.250701 0.869336 0.17695
C_ C_ 0.626862 0.207894 0.908993 -0.11473
C_ C_ 0.851387 0.247656 0.913069 -0.11473
C_ C_ 0.619572 0.243579 0.933508 0.23465
C_ C_ 0.879496 0.247943 0.933083 0.23465
C_ C_ 0.614609 0.2796 0.911546 -0.11473
C_ C_ 0.905817 0.248167 0.907693 -0.11473
C_ C_ 0.610458 0.283804 0.620714 0.17695
C_ C_ 0.872422 0.271739 0.614584 0.17695
C_ C_ 0.622406 0.213326 0.615533 0.17695
C_ C_ 0.881993 0.200881 0.619367 0.17695
C_ C_ 0.621963 0.215204 0.572842 -0.11473
C_ C_ 0.884301 0.199192 0.575553 -0.11473
C_ C_ 0.613632 0.252265 0.550948 0.23465
C_ C_ 0.880065 0.233032 0.549845 0.23465
C_ C_ 0.608528 0.286715 0.574493 -0.11473
C_ C_ 0.869759 0.269216 0.570375 -0.11473
C_ C_ 0.533453 0.496805 0.759261 0.05793
C_ C_ 0.781355 0.497322 0.747958 0.05793
C_ C_ 0.720126 -0.003510000000000013 0.757649 0.05793
C_ C_ 0.970373 0.00497719 0.764188 0.05793
Br Br 0.575312 0.4978 0.776924 -0.17191
Br Br 0.825448 0.494975 0.74047 -0.17191
Br Br 0.680363 -0.005969000000000002 0.778975 -0.17191
Br Br 0.927601 0.00926362 0.76661 -0.17191
N_ N_ 0.627087 0.247579 0.846143 -0.272
N_ N_ 0.876239 0.253602 0.845657 -0.272
N_ N_ 0.613623 0.239598 0.977561 -0.12501
N_ N_ 0.881839 0.256647 0.977221 -0.12501
N_ N_ 0.618348 0.247556 0.638321 -0.272
N_ N_ 0.874398 0.238774 0.63899 -0.272
N_ N_ 0.615896 0.256009 0.506695 -0.12501
N_ N_ 0.880364 0.228034 0.505022 -0.12501
O_ O_ 0.597622 0.293175 0.71421 -0.60745
O_ O_ 0.844196 0.294374 0.706988 -0.60745
O_ O_ 0.590187 0.282836 0.780734 -0.60745
O_ O_ 0.840964 0.290994 0.775996 -0.60745
O_ O_ 0.650795 0.29757 0.773201 -0.60745
O_ O_ 0.901185 0.298594 0.773737 -0.60745
O_ O_ 0.657838 0.291679 0.704797 -0.60745
O_ O_ 0.907492 0.289555 0.706756 -0.60745
O_ O_ 0.657633 0.205079 0.773187 -0.60745
O_ O_ 0.907098 0.209192 0.776176 -0.60745
O_ O_ 0.653783 0.199449 0.70445 -0.60745
O_ O_ 0.905668 0.202137 0.709006 -0.60745
O_ O_ 0.587962 0.209168 0.708261 -0.60745
O_ O_ 0.842097 0.202824 0.714676 -0.60745
O_ O_ 0.595228 0.202812 0.777845 -0.60745
O_ O_ 0.845274 0.201543 0.783299 -0.60745
Zn Zn 0.625425 0.750232 0.288361 0.9476
Zn Zn 0.874185 0.753022 0.284421 0.9476
Zn Zn 0.623129 0.752132 0.221346 0.9476
Zn Zn 0.86911 0.750292 0.216664 0.9476
H_ H_ 0.553753 0.937629 0.198647 0.10932
H_ H_ 0.787203 0.921159 0.180225 0.10932
H_ H_ 0.559535 0.844391 0.320811 0.10932
H_ H_ 0.806062 0.852326 0.312348 0.10932
H_ H_ 0.584478 0.874291 0.196201 0.10932
H_ H_ 0.812554 0.857691 0.178876 0.10932
H_ H_ 0.533 0.909248 0.324449 0.10932
H_ H_ 0.781278 0.918041 0.313931 0.10932
H_ H_ 0.723036 0.919978 0.314372 0.10932
H_ H_ 0.984953 0.904521 0.311557 0.10932
H_ H_ 0.688786 0.847499 0.184499 0.10932
H_ H_ 0.922985 0.85811 0.187569 0.10932
H_ H_ 0.692423 0.856295 0.320597 0.10932
H_ H_ 0.95632 0.837289 0.31426 0.10932
H_ H_ 0.710064 0.915236 0.180804 0.10932
H_ H_ 0.946661 0.927759 0.187799 0.10932
H_ H_ 0.718667 0.578717 0.309967 0.10932
H_ H_ 0.969774 0.587496 0.312568 0.10932
H_ H_ 0.674921 0.652389 0.183756 0.10932
H_ H_ 0.93471 0.660261 0.181495 0.10932
H_ H_ 0.681732 0.636362 0.317439 0.10932
H_ H_ 0.943525 0.653309 0.316008 0.10932
H_ H_ 0.701592 0.581131 0.17346 0.10932
H_ H_ 0.959314 0.590781 0.177662 0.10932
H_ H_ 0.513691 0.601043 0.190143 0.10932
H_ H_ 0.775415 0.58553 0.178757 0.10932
H_ H_ 0.583302 0.620544 0.306945 0.10932
H_ H_ 0.822721 0.636728 0.311162 0.10932
H_ H_ 0.541813 0.668208 0.195339 0.10932
H_ H_ 0.804221 0.648104 0.180508 0.10932
H_ H_ 0.555225 0.559817 0.30398 0.10932
H_ H_ 0.786284 0.57869 0.311933 0.10932
H_ H_ 0.612017 0.69674 0.363824 0.10932
H_ H_ 0.885182 0.813641 0.366788 0.10932
H_ H_ 0.634663 0.820667 0.364609 0.10932
H_ H_ 0.858228 0.686859 0.359398 0.10932
H_ H_ 0.636084 0.822999 0.445168 0.10932
H_ H_ 0.862781 0.678632 0.434485 0.10932
H_ H_ 0.602035 0.699187 0.438614 0.10932
H_ H_ 0.896172 0.805341 0.4429 0.10932
H_ H_ 0.624888 0.680706 0.15479 0.10932
H_ H_ 0.877305 0.688064 0.147785 0.10932
H_ H_ 0.61684 0.806112 0.136234 0.10932
H_ H_ 0.86449 0.818577 0.135664 0.10932
H_ H_ 0.614281 0.798347 0.057611 0.10932
H_ H_ 0.868928 0.811321 0.0571334 0.10932
H_ H_ 0.637134 0.669426 0.0756402 0.10932
H_ H_ 0.880419 0.682342 0.0715828 0.10932
C_ C_ 0.572357 0.854264 0.257333 -0.02249
C_ C_ 0.814266 0.849719 0.246272 -0.02249
C_ C_ 0.521816 0.96531 0.264238 -0.02249
C_ C_ 0.765335 0.96387 0.248842 -0.02249
C_ C_ 0.556137 0.917869 0.227689 -0.11473
C_ C_ 0.794349 0.909885 0.210423 -0.11473
C_ C_ 0.558902 0.866328 0.295436 -0.11473
C_ C_ 0.803723 0.868331 0.284408 -0.11473
C_ C_ 0.571637 0.881922 0.22432 -0.11473
C_ C_ 0.807437 0.870936 0.208373 -0.11473
C_ C_ 0.540995 0.928801 0.263889 -0.02249
C_ C_ 0.782326 0.925166 0.246456 -0.02249
C_ C_ 0.589788 0.815946 0.253538 0.6875
C_ C_ 0.832931 0.81136 0.250041 0.6875
C_ C_ 0.543437 0.903393 0.298174 -0.11473
C_ C_ 0.787605 0.904644 0.284416 -0.11473
C_ C_ 0.684211 0.848272 0.252938 -0.02249
C_ C_ 0.935857 0.845791 0.253181 -0.02249
C_ C_ 0.733387 0.963762 0.24152 -0.02249
C_ C_ 0.984679 0.961394 0.248726 -0.02249
C_ C_ 0.711418 0.906373 0.286714 -0.11473
C_ C_ 0.969383 0.896465 0.286424 -0.11473
C_ C_ 0.692041 0.863789 0.213576 -0.11473
C_ C_ 0.93614 0.869244 0.215277 -0.11473
C_ C_ 0.696594 0.868706 0.288995 -0.11473
C_ C_ 0.953444 0.858913 0.287879 -0.11473
C_ C_ 0.716107 0.923956 0.246623 -0.02249
C_ C_ 0.965942 0.922457 0.251529 -0.02249
C_ C_ 0.665408 0.80922 0.254766 0.6875
C_ C_ 0.913202 0.81105 0.256422 0.6875
C_ C_ 0.706336 0.903058 0.210923 -0.11473
C_ C_ 0.950208 0.908483 0.215042 -0.11473
C_ C_ 0.678374 0.648869 0.250315 -0.02249
C_ C_ 0.933989 0.658365 0.250676 -0.02249
C_ C_ 0.731185 0.536155 0.238159 -0.02249
C_ C_ 0.979644 0.540737 0.23935 -0.02249
C_ C_ 0.708411 0.593327 0.280045 -0.11473
C_ C_ 0.959158 0.599357 0.283189 -0.11473
C_ C_ 0.684682 0.63351 0.210624 -0.11473
C_ C_ 0.941542 0.642712 0.210644 -0.11473
C_ C_ 0.690514 0.627646 0.285443 -0.11473
C_ C_ 0.945523 0.638858 0.285926 -0.11473
C_ C_ 0.713045 0.574791 0.240136 -0.02249
C_ C_ 0.962202 0.580023 0.244749 -0.02249
C_ C_ 0.660605 0.687452 0.255446 0.6875
C_ C_ 0.912402 0.694911 0.252163 0.6875
C_ C_ 0.698532 0.594139 0.20545 -0.11473
C_ C_ 0.951283 0.601633 0.206964 -0.11473
C_ C_ 0.564922 0.650758 0.253756 -0.02249
C_ C_ 0.815418 0.649921 0.244954 -0.02249
C_ C_ 0.512088 0.537481 0.247358 -0.02249
C_ C_ 0.763306 0.538067 0.244162 -0.02249
C_ C_ 0.524523 0.608864 0.220479 -0.11473
C_ C_ 0.783289 0.598553 0.207415 -0.11473
C_ C_ 0.566289 0.619671 0.283727 -0.11473
C_ C_ 0.81035 0.629908 0.282546 -0.11473
C_ C_ 0.544463 0.643274 0.2195 -0.11473
C_ C_ 0.801296 0.632579 0.208875 -0.11473
C_ C_ 0.527124 0.579254 0.251711 -0.02249
C_ C_ 0.778297 0.577988 0.244981 -0.02249
C_ C_ 0.584341 0.689019 0.253871 0.6875
C_ C_ 0.835512 0.686658 0.245593 0.6875
C_ C_ 0.548845 0.584951 0.283556 -0.11473
C_ C_ 0.790667 0.594075 0.282726 -0.11473
C_ C_ 0.61388 0.725079 0.38143 0.17695
C_ C_ 0.886678 0.781929 0.380251 0.17695
C_ C_ 0.62737 0.795716 0.382225 0.17695
C_ C_ 0.867399 0.71302 0.376288 0.17695
C_ C_ 0.628609 0.796739 0.426913 -0.11473
C_ C_ 0.869101 0.70748 0.419458 -0.11473
C_ C_ 0.61835 0.761524 0.448567 0.23465
C_ C_ 0.878184 0.741827 0.442942 0.23465
C_ C_ 0.607645 0.727796 0.423815 -0.11473
C_ C_ 0.887377 0.779462 0.42425 -0.11473
C_ C_ 0.626744 0.705815 0.133506 0.17695
C_ C_ 0.875931 0.71462 0.12859 0.17695
C_ C_ 0.620627 0.776909 0.122471 0.17695
C_ C_ 0.866004 0.786767 0.121001 0.17695
C_ C_ 0.619843 0.771948 0.0781588 -0.11473
C_ C_ 0.867542 0.783886 0.0766071 -0.11473
C_ C_ 0.625437 0.732667 0.0612536 0.23465
C_ C_ 0.871488 0.745801 0.0571442 0.23465
C_ C_ 0.628395 0.698591 0.0889392 -0.11473
C_ C_ 0.875637 0.71172 0.0835331 -0.11473
C_ C_ 0.53337 1.00574834 0.270941 0.05793
C_ C_ 0.780544 1.00275538 0.257385 0.05793
C_ C_ 0.716068 0.498041 0.236082 0.05793
C_ C_ 0.96331 0.502721 0.243179 0.05793
Br Br 0.574803 1.0110688 0.283758 -0.17191
Br Br 0.823655 0.999583 0.260392 -0.17191
Br Br 0.673963 0.500939 0.244466 -0.17191
Br Br 0.921759 0.501225 0.259051 -0.17191
N_ N_ 0.619906 0.760302 0.360527 -0.272
N_ N_ 0.87633 0.749161 0.356607 -0.272
N_ N_ 0.612846 0.763632 0.491698 -0.12501
N_ N_ 0.876919 0.73752 0.488222 -0.12501
N_ N_ 0.625539 0.745006 0.149054 -0.272
N_ N_ 0.87021 0.751581 0.145013 -0.272
N_ N_ 0.627846 0.726897 0.0168144 -0.12501
N_ N_ 0.879123 0.740123 0.0143193 -0.12501
O_ O_ 0.594664 0.799135 0.217849 -0.60745
O_ O_ 0.842486 0.796086 0.216955 -0.60745
O_ O_ 0.595792 0.795121 0.286065 -0.60745
O_ O_ 0.842236 0.79752 0.284844 -0.60745
O_ O_ 0.656031 0.796201 0.289485 -0.60745
O_ O_ 0.907029 0.796491 0.291648 -0.60745
O_ O_ 0.654211 0.795624 0.220898 -0.60745
O_ O_ 0.899596 0.796758 0.223226 -0.60745
O_ O_ 0.656386 0.700982 0.293347 -0.60745
O_ O_ 0.904205 0.709092 0.286548 -0.60745
O_ O_ 0.654162 0.709633 0.224566 -0.60745
O_ O_ 0.90151 0.708446 0.216574 -0.60745
O_ O_ 0.590044 0.708168 0.219976 -0.60745
O_ O_ 0.836994 0.706901 0.212494 -0.60745
O_ O_ 0.594402 0.706114 0.289168 -0.60745
O_ O_ 0.843256 0.70363 0.27914 -0.60745
Zn Zn 0.627841 0.751673 0.790118 0.9476
Zn Zn 0.876819 0.747262 0.784804 0.9476
Zn Zn 0.622847 0.750405 0.721923 0.9476
Zn Zn 0.874841 0.746894 0.716531 0.9476
H_ H_ 0.556246 0.934362 0.693746 0.10932
H_ H_ 0.773989 0.906481 0.679945 0.10932
H_ H_ 0.546249 0.841575 0.818769 0.10932
H_ H_ 0.831256 0.863023 0.80808 0.10932
H_ H_ 0.58613 0.873296 0.69834 0.10932
H_ H_ 0.802317 0.842619 0.681565 0.10932
H_ H_ 0.514791 0.901898 0.810863 0.10932
H_ H_ 0.799267 0.926925 0.808677 0.10932
H_ H_ 0.733154 0.905749 0.814614 0.10932
H_ H_ 0.954508 0.924334 0.825321 0.10932
H_ H_ 0.676248 0.8557 0.68717 0.10932
H_ H_ 0.950356 0.84631 0.695505 0.10932
H_ H_ 0.701309 0.840844 0.818544 0.10932
H_ H_ 0.931985 0.856856 0.822748 0.10932
H_ H_ 0.706531 0.920168 0.684838 0.10932
H_ H_ 0.971749 0.915001 0.692702 0.10932
H_ H_ 0.708063 0.573343 0.81454 0.10932
H_ H_ 0.95349 0.564924 0.806638 0.10932
H_ H_ 0.692603 0.658598 0.687148 0.10932
H_ H_ 0.954922 0.665016 0.690017 0.10932
H_ H_ 0.67364 0.631631 0.818576 0.10932
H_ H_ 0.924435 0.629114 0.813256 0.10932
H_ H_ 0.721753 0.590118 0.68441 0.10932
H_ H_ 0.984161 0.599279 0.687646 0.10932
H_ H_ 0.55059 0.572894 0.686444 0.10932
H_ H_ 0.773171 0.586197 0.681889 0.10932
H_ H_ 0.559518 0.653287 0.820338 0.10932
H_ H_ 0.834218 0.624859 0.809472 0.10932
H_ H_ 0.579979 0.636314 0.687319 0.10932
H_ H_ 0.80095 0.65557 0.68573 0.10932
H_ H_ 0.524899 0.596741 0.81568 0.10932
H_ H_ 0.801685 0.56665 0.812975 0.10932
H_ H_ 0.620209 0.682717 0.868843 0.10932
H_ H_ 0.864785 0.691354 0.860343 0.10932
H_ H_ 0.63139 0.813905 0.859527 0.10932
H_ H_ 0.891257 0.819032 0.859289 0.10932
H_ H_ 0.623145 0.81733 0.9359 0.10932
H_ H_ 0.887879 0.822173 0.934346 0.10932
H_ H_ 0.626096 0.683995 0.946588 0.10932
H_ H_ 0.861532 0.694963 0.938614 0.10932
H_ H_ 0.626186 0.684162 0.642886 0.10932
H_ H_ 0.866038 0.818158 0.645017 0.10932
H_ H_ 0.625511 0.814507 0.648983 0.10932
H_ H_ 0.880995 0.690241 0.638922 0.10932
H_ H_ 0.626271 0.818345 0.571968 0.10932
H_ H_ 0.875161 0.694432 0.560976 0.10932
H_ H_ 0.623289 0.683288 0.56639 0.10932
H_ H_ 0.857115 0.822202 0.566216 0.10932
C_ C_ 0.56718 0.850823 0.756585 -0.02249
C_ C_ 0.814538 0.845345 0.747567 -0.02249
C_ C_ 0.514008 0.96171 0.74774 -0.02249
C_ C_ 0.767052 0.960097 0.748332 -0.02249
C_ C_ 0.552469 0.913344 0.71952 -0.11473
C_ C_ 0.785475 0.897578 0.708198 -0.11473
C_ C_ 0.547871 0.860163 0.789306 -0.11473
C_ C_ 0.814337 0.870845 0.782836 -0.11473
C_ C_ 0.569107 0.877847 0.722189 -0.11473
C_ C_ 0.802743 0.861726 0.709207 -0.11473
C_ C_ 0.533166 0.923403 0.752462 -0.02249
C_ C_ 0.783631 0.920849 0.745348 -0.02249
C_ C_ 0.588449 0.814879 0.757105 0.6875
C_ C_ 0.832859 0.805066 0.751451 0.6875
C_ C_ 0.52838 0.893726 0.78357 -0.11473
C_ C_ 0.798535 0.908443 0.78177 -0.11473
C_ C_ 0.686121 0.843467 0.753976 -0.02249
C_ C_ 0.935406 0.847697 0.756708 -0.02249
C_ C_ 0.735214 0.959304 0.749161 -0.02249
C_ C_ 0.98494 0.965441 0.762706 -0.02249
C_ C_ 0.717877 0.895804 0.788072 -0.11473
C_ C_ 0.953432 0.908262 0.795707 -0.11473
C_ C_ 0.686849 0.866707 0.716454 -0.11473
C_ C_ 0.950086 0.864114 0.722075 -0.11473
C_ C_ 0.702708 0.858155 0.789956 -0.11473
C_ C_ 0.939112 0.870722 0.79296 -0.11473
C_ C_ 0.718107 0.918824 0.750878 -0.02249
C_ C_ 0.967586 0.926371 0.761242 -0.02249
C_ C_ 0.669711 0.804296 0.757871 0.6875
C_ C_ 0.918162 0.807361 0.754454 0.6875
C_ C_ 0.702457 0.904959 0.715128 -0.11473
C_ C_ 0.96173 0.906687 0.721745 -0.11473
C_ C_ 0.682872 0.651857 0.754896 -0.02249
C_ C_ 0.937714 0.651631 0.752508 -0.02249
C_ C_ 0.734409 0.537693 0.748056 -0.02249
C_ C_ 0.985066 0.536447 0.745497 -0.02249
C_ C_ 0.704729 0.591726 0.788201 -0.11473
C_ C_ 0.952424 0.583556 0.780217 -0.11473
C_ C_ 0.696392 0.639804 0.715259 -0.11473
C_ C_ 0.955546 0.643916 0.716897 -0.11473
C_ C_ 0.686491 0.625783 0.789653 -0.11473
C_ C_ 0.939673 0.623266 0.786947 -0.11473
C_ C_ 0.717949 0.578398 0.750831 -0.02249
C_ C_ 0.968444 0.575618 0.744067 -0.02249
C_ C_ 0.662709 0.688648 0.755753 0.6875
C_ C_ 0.917709 0.690607 0.753153 0.6875
C_ C_ 0.71444 0.602431 0.714238 -0.11473
C_ C_ 0.969032 0.60465 0.713482 -0.11473
C_ C_ 0.568428 0.653378 0.752287 -0.02249
C_ C_ 0.821233 0.644396 0.74534 -0.02249
C_ C_ 0.518673 0.535637 0.752518 -0.02249
C_ C_ 0.766308 0.535532 0.747119 -0.02249
C_ C_ 0.550336 0.590872 0.715162 -0.11473
C_ C_ 0.786432 0.595279 0.710617 -0.11473
C_ C_ 0.554507 0.638958 0.790067 -0.11473
C_ C_ 0.820411 0.620168 0.781317 -0.11473
C_ C_ 0.566342 0.627903 0.715703 -0.11473
C_ C_ 0.800325 0.63407 0.712445 -0.11473
C_ C_ 0.536829 0.576841 0.752201 -0.02249
C_ C_ 0.784077 0.57345 0.748452 -0.02249
C_ C_ 0.587226 0.691148 0.751066 0.6875
C_ C_ 0.837932 0.685211 0.745066 0.6875
C_ C_ 0.538271 0.602179 0.788489 -0.11473
C_ C_ 0.802102 0.584571 0.783356 -0.11473
C_ C_ 0.622477 0.711597 0.88425 0.17695
C_ C_ 0.87027 0.720143 0.877489 0.17695
C_ C_ 0.628925 0.784943 0.877915 0.17695
C_ C_ 0.887646 0.789441 0.875315 0.17695
C_ C_ 0.628121 0.78746 0.922976 -0.11473
C_ C_ 0.883675 0.793722 0.919066 -0.11473
C_ C_ 0.628243 0.752475 0.948326 0.23465
C_ C_ 0.87493 0.759039 0.942075 0.23465
C_ C_ 0.624845 0.713107 0.928119 -0.11473
C_ C_ 0.869416 0.721418 0.92103 -0.11473
C_ C_ 0.623769 0.713654 0.627119 0.17695
C_ C_ 0.869165 0.792663 0.625665 0.17695
C_ C_ 0.625781 0.786596 0.630698 0.17695
C_ C_ 0.87626 0.720203 0.621978 0.17695
C_ C_ 0.627597 0.787913 0.586004 -0.11473
C_ C_ 0.87612 0.72138 0.578449 -0.11473
C_ C_ 0.628681 0.750194 0.561775 0.23465
C_ C_ 0.873314 0.758777 0.557105 0.23465
C_ C_ 0.627266 0.712804 0.583637 -0.11473
C_ C_ 0.86647 0.793286 0.58161 -0.11473
C_ C_ 0.528162 0.000645254 0.752825 0.05793
C_ C_ 0.781852 -0.001831000000000027 0.746395 0.05793
C_ C_ 0.717663 0.500209 0.750703 0.05793
C_ C_ 0.969615 0.497691 0.743527 0.05793
Br Br 0.57112 0.00369732 0.759632 -0.17191
Br Br 0.825291 0.998745 0.736322 -0.17191
Br Br 0.672931 0.500982 0.746205 -0.17191
Br Br 0.925531 0.494781 0.746374 -0.17191
N_ N_ 0.627557 0.746672 0.860076 -0.272
N_ N_ 0.879511 0.753697 0.854449 -0.272
N_ N_ 0.623511 0.756992 0.991748 -0.12501
N_ N_ 0.869269 0.763885 0.986079 -0.12501
N_ N_ 0.624451 0.7497 0.650181 -0.272
N_ N_ 0.875686 0.755325 0.644198 -0.272
N_ N_ 0.632853 0.750185 0.516735 -0.12501
N_ N_ 0.869683 0.764823 0.512211 -0.12501
O_ O_ 0.595442 0.799602 0.720556 -0.60745
O_ O_ 0.842559 0.789354 0.717213 -0.60745
O_ O_ 0.595249 0.796026 0.790165 -0.60745
O_ O_ 0.841366 0.791023 0.786058 -0.60745
O_ O_ 0.660444 0.790959 0.792446 -0.60745
O_ O_ 0.906655 0.792977 0.787174 -0.60745
O_ O_ 0.653745 0.79539 0.725395 -0.60745
O_ O_ 0.908984 0.794334 0.719025 -0.60745
O_ O_ 0.655542 0.703665 0.7926 -0.60745
O_ O_ 0.907386 0.705478 0.787059 -0.60745
O_ O_ 0.653198 0.705892 0.723055 -0.60745
O_ O_ 0.906548 0.704193 0.718255 -0.60745
O_ O_ 0.589742 0.711851 0.71585 -0.60745
O_ O_ 0.844269 0.701976 0.709227 -0.60745
O_ O_ 0.595381 0.707805 0.786481 -0.60745
O_ O_ 0.847451 0.702515 0.778669 -0.60745
_cell_length_a 44.444
_cell_length_b 32.3360000049186
_cell_length_c 31.843999878906452
_cell_angle_alpha 89.99799923859553
_cell_angle_beta 91.13600050494348
_cell_angle_gamma 89.9990006550086
_symmetry_space_group_name_H-M         'P 1'
_symmetry_Int_Tables_number            1
loop_
_symmetry_equiv_pos_as_xyz
   'x, y, z'
                         
loop_
_atom_site_label
_atom_site_type_symbol
_atom_site_fract_x 
_atom_site_fract_y
_atom_site_fract_z
_atom_site_charge
Zn Zn 0.125464 0.253603 0.282982 0.9476
Zn Zn 0.373317 0.249506 0.285186 0.9476
Zn Zn 0.125398 0.251308 0.214491 0.9476
Zn Zn 0.371746 0.249607 0.217904 0.9476
H_ H_ 0.0291291 0.413857 0.175793 0.10932
H_ H_ 0.299154 0.43361 0.188168 0.10932
H_ H_ 0.0737411 0.377238 0.310714 0.10932
H_ H_ 0.305161 0.346533 0.316575 0.10932
H_ H_ 0.0608977 0.352758 0.179563 0.10932
H_ H_ 0.333686 0.373076 0.191507 0.10932
H_ H_ 0.0405113 0.428733 0.307747 0.10932
H_ H_ 0.277876 0.414097 0.318149 0.10932
H_ H_ 0.216462 0.419596 0.319284 0.10932
H_ H_ 0.482465 0.405201 0.312767 0.10932
H_ H_ 0.198337 0.34731 0.182591 0.10932
H_ H_ 0.426428 0.357608 0.185094 0.10932
H_ H_ 0.183929 0.359553 0.313782 0.10932
H_ H_ 0.450121 0.342078 0.316323 0.10932
H_ H_ 0.225448 0.417239 0.185505 0.10932
H_ H_ 0.455964 0.421982 0.185099 0.10932
H_ H_ 0.214668 0.0814753 0.323195 0.10932
H_ H_ 0.448819 0.0701376 0.324924 0.10932
H_ H_ 0.172429 0.13603 0.18952 0.10932
H_ H_ 0.446047 0.151998 0.191278 0.10932
H_ H_ 0.184614 0.146023 0.32404 0.10932
H_ H_ 0.414452 0.127753 0.317698 0.10932
H_ H_ 0.213447 0.0823087 0.190112 0.10932
H_ H_ 0.474903 0.0892389 0.192005 0.10932
H_ H_ 0.0482745 0.0755687 0.19141 0.10932
H_ H_ 0.272718 0.0896719 0.190035 0.10932
H_ H_ 0.056739 0.155415 0.322128 0.10932
H_ H_ 0.310161 0.149312 0.323733 0.10932
H_ H_ 0.0742767 0.137 0.189919 0.10932
H_ H_ 0.309148 0.150153 0.187484 0.10932
H_ H_ 0.0305555 0.0858916 0.320907 0.10932
H_ H_ 0.281483 0.0840309 0.323421 0.10932
H_ H_ 0.144576 0.320617 0.354057 0.10932
H_ H_ 0.393121 0.305963 0.360976 0.10932
H_ H_ 0.111491 0.198102 0.367727 0.10932
H_ H_ 0.363927 0.181818 0.364845 0.10932
H_ H_ 0.121954 0.200416 0.443106 0.10932
H_ H_ 0.367065 0.182972 0.441389 0.10932
H_ H_ 0.155323 0.322494 0.431913 0.10932
H_ H_ 0.404128 0.303244 0.437862 0.10932
H_ H_ 0.115448 0.32017 0.147849 0.10932
H_ H_ 0.394415 0.189151 0.143853 0.10932
H_ H_ 0.133124 0.193046 0.131397 0.10932
H_ H_ 0.357222 0.310084 0.142411 0.10932
H_ H_ 0.119896 0.201794 0.0548818 0.10932
H_ H_ 0.360386 0.310282 0.0637064 0.10932
H_ H_ 0.110134 0.332717 0.0728177 0.10932
H_ H_ 0.39601 0.190334 0.0650378 0.10932
C_ C_ 0.0698445 0.356083 0.245756 -0.02249
C_ C_ 0.320259 0.354041 0.253741 -0.02249
C_ C_ 0.0121979 0.465152 0.240721 -0.02249
C_ C_ 0.269569 0.467781 0.253794 -0.02249
C_ C_ 0.0375429 0.404316 0.20555 -0.11473
C_ C_ 0.302068 0.416762 0.217787 -0.11473
C_ C_ 0.0633435 0.380776 0.281237 -0.11473
C_ C_ 0.302112 0.363322 0.288195 -0.11473
C_ C_ 0.0558667 0.368278 0.207712 -0.11473
C_ C_ 0.320074 0.381581 0.218706 -0.11473
C_ C_ 0.0288221 0.425849 0.241189 -0.02249
C_ C_ 0.286178 0.428094 0.252477 -0.02249
C_ C_ 0.0902119 0.317705 0.247547 0.6875
C_ C_ 0.336371 0.313906 0.251051 0.6875
C_ C_ 0.0443476 0.413906 0.278276 -0.11473
C_ C_ 0.285952 0.40072 0.287772 -0.11473
C_ C_ 0.186868 0.348011 0.248259 -0.02249
C_ C_ 0.436116 0.343034 0.249557 -0.02249
C_ C_ 0.238501 0.464733 0.254676 -0.02249
C_ C_ 0.482828 0.458459 0.250462 -0.02249
C_ C_ 0.21252 0.403768 0.289349 -0.11473
C_ C_ 0.46831 0.39411 0.284713 -0.11473
C_ C_ 0.197032 0.367606 0.211143 -0.11473
C_ C_ 0.441396 0.363861 0.211486 -0.11473
C_ C_ 0.193866 0.369196 0.285695 -0.11473
C_ C_ 0.452987 0.356066 0.285447 -0.11473
C_ C_ 0.222457 0.422668 0.252117 -0.02249
C_ C_ 0.467689 0.419167 0.249414 -0.02249
C_ C_ 0.167428 0.308733 0.245422 0.6875
C_ C_ 0.416399 0.304094 0.250749 0.6875
C_ C_ 0.215816 0.403686 0.213493 -0.11473
C_ C_ 0.455622 0.401526 0.212579 -0.11473
C_ C_ 0.178294 0.149541 0.256242 -0.02249
C_ C_ 0.425639 0.143028 0.253111 -0.02249
C_ C_ 0.231967 0.0358853 0.25681 -0.02249
C_ C_ 0.483046 0.035618 0.260746 -0.02249
C_ C_ 0.208531 0.0963809 0.294972 -0.11473
C_ C_ 0.447202 0.0861179 0.294067 -0.11473
C_ C_ 0.185056 0.12779 0.218575 -0.11473
C_ C_ 0.444366 0.131566 0.219884 -0.11473
C_ C_ 0.189731 0.132402 0.294583 -0.11473
C_ C_ 0.428036 0.121116 0.290962 -0.11473
C_ C_ 0.212864 0.075826 0.25805 -0.02249
C_ C_ 0.463845 0.0721841 0.259235 -0.02249
C_ C_ 0.159413 0.185759 0.253169 0.6875
C_ C_ 0.40791 0.183989 0.254198 0.6875
C_ C_ 0.204549 0.0947459 0.219342 -0.11473
C_ C_ 0.462364 0.0958324 0.220477 -0.11473
C_ C_ 0.0652049 0.155589 0.254182 -0.02249
C_ C_ 0.308441 0.15727 0.255252 -0.02249
C_ C_ 0.0157383 0.0388516 0.25316 -0.02249
C_ C_ 0.262781 0.0378423 0.256565 -0.02249
C_ C_ 0.0436753 0.096498 0.215341 -0.11473
C_ C_ 0.284475 0.0997132 0.218394 -0.11473
C_ C_ 0.0549213 0.137141 0.292412 -0.11473
C_ C_ 0.30072 0.137296 0.293888 -0.11473
C_ C_ 0.0610796 0.132319 0.217807 -0.11473
C_ C_ 0.301328 0.137083 0.218164 -0.11473
C_ C_ 0.0312942 0.0796166 0.25291 -0.02249
C_ C_ 0.278124 0.0801882 0.25609 -0.02249
C_ C_ 0.0837666 0.195103 0.254343 0.6875
C_ C_ 0.328911 0.193985 0.255508 0.6875
C_ C_ 0.0380831 0.100402 0.291535 -0.11473
C_ C_ 0.285759 0.0992121 0.293595 -0.11473
C_ C_ 0.141328 0.292767 0.37253 0.17695
C_ C_ 0.385143 0.278445 0.378234 0.17695
C_ C_ 0.119941 0.225969 0.381571 0.17695
C_ C_ 0.369463 0.211372 0.380162 0.17695
C_ C_ 0.123145 0.229274 0.425099 -0.11473
C_ C_ 0.375614 0.209151 0.423381 -0.11473
C_ C_ 0.136897 0.263397 0.442545 0.23465
C_ C_ 0.38686 0.243302 0.444598 0.23465
C_ C_ 0.146177 0.29534 0.416689 -0.11473
C_ C_ 0.392118 0.277876 0.420976 -0.11473
C_ C_ 0.117055 0.296196 0.128195 0.17695
C_ C_ 0.386224 0.214406 0.125079 0.17695
C_ C_ 0.126278 0.22339 0.118559 0.17695
C_ C_ 0.364009 0.28195 0.125716 0.17695
C_ C_ 0.121691 0.228427 0.0751664 -0.11473
C_ C_ 0.363206 0.281231 0.0812057 -0.11473
C_ C_ 0.116414 0.266768 0.056319 0.23465
C_ C_ 0.372071 0.245887 0.0596144 0.23465
C_ C_ 0.115971 0.301534 0.084003 -0.11473
C_ C_ 0.386816 0.215065 0.081517 -0.11473
C_ C_ 0.027985 0.502234 0.233199 0.05793
C_ C_ 0.283968 0.506165 0.259048 0.05793
C_ C_ 0.216767 -0.0026450000000000085 0.258755 0.05793
C_ C_ 0.471325 0.995095 0.256989 0.05793
Br Br 0.0690402 0.500217 0.225622 -0.17191
Br Br 0.326623 0.514669 0.24875 -0.17191
Br Br 0.17487 -0.003798999999999997 0.266947 -0.17191
Br Br 0.428861 0.988127 0.24739 -0.17191
N_ N_ 0.128894 0.257144 0.354818 -0.272
N_ N_ 0.376264 0.244758 0.358005 -0.272
N_ N_ 0.138576 0.266141 0.487043 -0.12501
N_ N_ 0.390109 0.243747 0.49009 -0.12501
N_ N_ 0.120734 0.256327 0.145124 -0.272
N_ N_ 0.3735 0.247026 0.147042 -0.272
N_ N_ 0.121336 0.274128 0.0133154 -0.12501
N_ N_ 0.36796 0.243858 0.0137669 -0.12501
O_ O_ 0.094534 0.295686 0.213672 -0.60745
O_ O_ 0.346443 0.299675 0.217885 -0.60745
O_ O_ 0.10085 0.306284 0.281004 -0.60745
O_ O_ 0.344077 0.297378 0.285739 -0.60745
O_ O_ 0.158673 0.294117 0.279448 -0.60745
O_ O_ 0.407828 0.289849 0.28599 -0.60745
O_ O_ 0.153468 0.297462 0.210777 -0.60745
O_ O_ 0.403777 0.292055 0.216176 -0.60745
O_ O_ 0.150392 0.20297 0.285467 -0.60745
O_ O_ 0.401181 0.199901 0.290205 -0.60745
O_ O_ 0.156296 0.205147 0.217992 -0.60745
O_ O_ 0.401469 0.204635 0.220191 -0.60745
O_ O_ 0.0973689 0.205408 0.221969 -0.60745
O_ O_ 0.340089 0.205113 0.221257 -0.60745
O_ O_ 0.0887488 0.214173 0.287992 -0.60745
O_ O_ 0.337129 0.212994 0.28869 -0.60745
Zn Zn 0.131017 0.253068 0.784065 0.9476
Zn Zn 0.378487 0.249144 0.785417 0.9476
Zn Zn 0.12784 0.249838 0.715255 0.9476
Zn Zn 0.37049 0.247086 0.715976 0.9476
H_ H_ 0.0292257 0.406701 0.676729 0.10932
H_ H_ 0.281257 0.413256 0.674794 0.10932
H_ H_ 0.0660773 0.35148 0.81218 0.10932
H_ H_ 0.325395 0.35838 0.811041 0.10932
H_ H_ 0.0521611 0.339256 0.683426 0.10932
H_ H_ 0.305872 0.345111 0.674682 0.10932
H_ H_ 0.0434379 0.426843 0.809519 0.10932
H_ H_ 0.2999 0.428294 0.808264 0.10932
H_ H_ 0.221773 0.417521 0.808971 0.10932
H_ H_ 0.46392 0.415975 0.812215 0.10932
H_ H_ 0.200784 0.344484 0.678425 0.10932
H_ H_ 0.426003 0.355992 0.681237 0.10932
H_ H_ 0.197706 0.358019 0.815909 0.10932
H_ H_ 0.441583 0.348317 0.815839 0.10932
H_ H_ 0.217175 0.416127 0.675639 0.10932
H_ H_ 0.453273 0.421524 0.680393 0.10932
H_ H_ 0.227234 0.0928754 0.819748 0.10932
H_ H_ 0.447097 0.0624667 0.804959 0.10932
H_ H_ 0.181213 0.139643 0.687359 0.10932
H_ H_ 0.447943 0.159693 0.686892 0.10932
H_ H_ 0.20025 0.159659 0.819054 0.10932
H_ H_ 0.420965 0.1319 0.810464 0.10932
H_ H_ 0.204872 0.0734818 0.691284 0.10932
H_ H_ 0.474009 0.0937819 0.683255 0.10932
H_ H_ 0.0314666 0.0858315 0.691885 0.10932
H_ H_ 0.280335 0.0842981 0.689192 0.10932
H_ H_ 0.0825453 0.13892 0.821091 0.10932
H_ H_ 0.330776 0.137539 0.821482 0.10932
H_ H_ 0.0630489 0.145556 0.685947 0.10932
H_ H_ 0.303565 0.154214 0.688881 0.10932
H_ H_ 0.0500929 0.0731689 0.823264 0.10932
H_ H_ 0.302935 0.070693 0.818515 0.10932
H_ H_ 0.126515 0.316228 0.858993 0.10932
H_ H_ 0.338272 0.276152 0.862938 0.10932
H_ H_ 0.13017 0.189241 0.857417 0.10932
H_ H_ 0.421942 0.218414 0.861054 0.10932
H_ H_ 0.136108 0.187191 0.930086 0.10932
H_ H_ 0.425561 0.223806 0.942019 0.10932
H_ H_ 0.124097 0.316662 0.93568 0.10932
H_ H_ 0.339809 0.276473 0.941689 0.10932
H_ H_ 0.123015 0.191 0.642379 0.10932
H_ H_ 0.414576 0.273544 0.638294 0.10932
H_ H_ 0.135174 0.318536 0.638821 0.10932
H_ H_ 0.327634 0.217293 0.644099 0.10932
H_ H_ 0.129932 0.318413 0.56128 0.10932
H_ H_ 0.330668 0.201536 0.570383 0.10932
H_ H_ 0.122557 0.18428 0.565565 0.10932
H_ H_ 0.411247 0.273897 0.563829 0.10932
C_ C_ 0.0672072 0.344154 0.746404 -0.02249
C_ C_ 0.320923 0.349489 0.745251 -0.02249
C_ C_ 0.0175125 0.460451 0.741664 -0.02249
C_ C_ 0.26814 0.463814 0.744906 -0.02249
C_ C_ 0.0384317 0.396856 0.706625 -0.11473
C_ C_ 0.289468 0.400075 0.705645 -0.11473
C_ C_ 0.0612557 0.366752 0.783275 -0.11473
C_ C_ 0.316572 0.373024 0.782704 -0.11473
C_ C_ 0.0532707 0.357766 0.708793 -0.11473
C_ C_ 0.304342 0.362131 0.707751 -0.11473
C_ C_ 0.0350432 0.421218 0.743377 -0.02249
C_ C_ 0.284708 0.422265 0.743417 -0.02249
C_ C_ 0.0874461 0.306489 0.74573 0.6875
C_ C_ 0.340813 0.312025 0.745189 0.6875
C_ C_ 0.0460161 0.406087 0.783091 -0.11473
C_ C_ 0.299703 0.409475 0.780244 -0.11473
C_ C_ 0.195388 0.343572 0.745707 -0.02249
C_ C_ 0.434859 0.343161 0.746732 -0.02249
C_ C_ 0.236461 0.463273 0.741402 -0.02249
C_ C_ 0.485323 0.458872 0.744593 -0.02249
C_ C_ 0.219047 0.403069 0.780246 -0.11473
C_ C_ 0.46128 0.400395 0.783889 -0.11473
C_ C_ 0.205038 0.359506 0.706585 -0.11473
C_ C_ 0.437688 0.365786 0.708744 -0.11473
C_ C_ 0.204316 0.365759 0.782291 -0.11473
C_ C_ 0.446986 0.361644 0.784653 -0.11473
C_ C_ 0.22147 0.422282 0.741388 -0.02249
C_ C_ 0.466792 0.419141 0.745632 -0.02249
C_ C_ 0.171959 0.310496 0.748074 0.6875
C_ C_ 0.414768 0.306718 0.749716 0.6875
C_ C_ 0.2146 0.402246 0.704793 -0.11473
C_ C_ 0.454424 0.401819 0.709305 -0.11473
C_ C_ 0.188381 0.154973 0.75384 -0.02249
C_ C_ 0.435241 0.153951 0.749917 -0.02249
C_ C_ 0.237933 0.0381372 0.753484 -0.02249
C_ C_ 0.480314 0.0369735 0.742184 -0.02249
C_ C_ 0.220183 0.10507 0.790572 -0.11473
C_ C_ 0.449348 0.0874243 0.782594 -0.11473
C_ C_ 0.191271 0.130398 0.717314 -0.11473
C_ C_ 0.450529 0.142179 0.71607 -0.11473
C_ C_ 0.203109 0.142111 0.790321 -0.11473
C_ C_ 0.435916 0.126398 0.784646 -0.11473
C_ C_ 0.221828 0.0796705 0.754725 -0.02249
C_ C_ 0.463747 0.0764228 0.743251 -0.02249
C_ C_ 0.169441 0.193826 0.751871 0.6875
C_ C_ 0.412638 0.189081 0.750251 0.6875
C_ C_ 0.206197 0.0923743 0.717964 -0.11473
C_ C_ 0.46586 0.104908 0.712531 -0.11473
C_ C_ 0.072496 0.149647 0.753611 -0.02249
C_ C_ 0.316896 0.15463 0.754202 -0.02249
C_ C_ 0.0190104 0.0379751 0.759958 -0.02249
C_ C_ 0.269156 0.0361099 0.753018 -0.02249
C_ C_ 0.0417365 0.0980938 0.719864 -0.11473
C_ C_ 0.290628 0.0966536 0.71698 -0.11473
C_ C_ 0.0707476 0.126105 0.79137 -0.11473
C_ C_ 0.31739 0.128574 0.791535 -0.11473
C_ C_ 0.0590169 0.132784 0.716794 -0.11473
C_ C_ 0.303387 0.137452 0.718039 -0.11473
C_ C_ 0.0371536 0.0778927 0.758634 -0.02249
C_ C_ 0.286362 0.0763563 0.755846 -0.02249
C_ C_ 0.0909993 0.188152 0.751939 0.6875
C_ C_ 0.33427 0.193465 0.752127 0.6875
C_ C_ 0.0522301 0.0919627 0.794217 -0.11473
C_ C_ 0.302416 0.0901402 0.791985 -0.11473
C_ C_ 0.129352 0.288085 0.875531 0.17695
C_ C_ 0.359402 0.268027 0.880743 0.17695
C_ C_ 0.124972 0.216019 0.87298 0.17695
C_ C_ 0.406237 0.234988 0.879239 0.17695
C_ C_ 0.125137 0.213936 0.917405 -0.11473
C_ C_ 0.407854 0.238371 0.923781 -0.11473
C_ C_ 0.123834 0.24962 0.942012 0.23465
C_ C_ 0.384876 0.254024 0.946247 0.23465
C_ C_ 0.124645 0.288079 0.91983 -0.11473
C_ C_ 0.359565 0.26689 0.923882 -0.11473
C_ C_ 0.12819 0.216938 0.625148 0.17695
C_ C_ 0.394548 0.262416 0.623625 0.17695
C_ C_ 0.129948 0.290692 0.622736 0.17695
C_ C_ 0.346818 0.230311 0.626441 0.17695
C_ C_ 0.130612 0.2894 0.579418 -0.11473
C_ C_ 0.347404 0.223034 0.582782 -0.11473
C_ C_ 0.125329 0.250266 0.556763 0.23465
C_ C_ 0.370855 0.235841 0.559047 0.23465
C_ C_ 0.125376 0.21448 0.581302 -0.11473
C_ C_ 0.393366 0.259759 0.580398 -0.11473
C_ C_ 0.0324435 0.498304 0.740525 0.05793
C_ C_ 0.282654 0.501771 0.744807 0.05793
C_ C_ 0.221316 -0.0004170000000000007 0.752725 0.05793
C_ C_ 0.464862 0.997975 0.745988 0.05793
Br Br 0.0756386 0.496481 0.750361 -0.17191
Br Br 0.325341 0.507044 0.741289 -0.17191
Br Br 0.17841 0.00378648 0.75022 -0.17191
Br Br 0.422698 0.997493 0.742366 -0.17191
N_ N_ 0.129948 0.253013 0.853672 -0.272
N_ N_ 0.382226 0.251483 0.858122 -0.272
N_ N_ 0.117182 0.246651 0.985512 -0.12501
N_ N_ 0.387622 0.256979 0.989687 -0.12501
N_ N_ 0.127961 0.255086 0.64477 -0.272
N_ N_ 0.371563 0.246218 0.646614 -0.272
N_ N_ 0.121239 0.247596 0.511226 -0.12501
N_ N_ 0.371792 0.226173 0.51406 -0.12501
O_ O_ 0.0953018 0.292057 0.710881 -0.60745
O_ O_ 0.336791 0.285707 0.715384 -0.60745
O_ O_ 0.100751 0.29499 0.779834 -0.60745
O_ O_ 0.349049 0.298438 0.781313 -0.60745
O_ O_ 0.163365 0.298182 0.782975 -0.60745
O_ O_ 0.410533 0.291369 0.786234 -0.60745
O_ O_ 0.161226 0.292078 0.715287 -0.60745
O_ O_ 0.403168 0.290884 0.716014 -0.60745
O_ O_ 0.157299 0.204899 0.785467 -0.60745
O_ O_ 0.408941 0.206874 0.784786 -0.60745
O_ O_ 0.15841 0.206505 0.716865 -0.60745
O_ O_ 0.403207 0.20492 0.716091 -0.60745
O_ O_ 0.0959722 0.204491 0.716536 -0.60745
O_ O_ 0.34045 0.206992 0.716179 -0.60745
O_ O_ 0.101765 0.206444 0.784893 -0.60745
O_ O_ 0.347397 0.206111 0.784255 -0.60745
Zn Zn 0.120977 0.746802 0.289089 0.9476
Zn Zn 0.377612 0.750235 0.288401 0.9476
Zn Zn 0.124807 0.749096 0.219561 0.9476
Zn Zn 0.378757 0.751858 0.217678 0.9476
H_ H_ 0.016571 0.897947 0.187428 0.10932
H_ H_ 0.297894 0.927754 0.185069 0.10932
H_ H_ 0.085347 0.873796 0.305279 0.10932
H_ H_ 0.30109 0.835008 0.307014 0.10932
H_ H_ 0.0412468 0.83543 0.185805 0.10932
H_ H_ 0.33195 0.869974 0.185595 0.10932
H_ H_ 0.0496543 0.93361 0.305076 0.10932
H_ H_ 0.272865 0.896113 0.311843 0.10932
H_ H_ 0.216302 0.917979 0.322355 0.10932
H_ H_ 0.467602 0.914759 0.326575 0.10932
H_ H_ 0.186414 0.848994 0.189245 0.10932
H_ H_ 0.4573 0.836405 0.195129 0.10932
H_ H_ 0.188232 0.848263 0.323311 0.10932
H_ H_ 0.433566 0.859724 0.322746 0.10932
H_ H_ 0.214553 0.917897 0.189254 0.10932
H_ H_ 0.491249 0.897407 0.197909 0.10932
H_ H_ 0.205312 0.576004 0.327362 0.10932
H_ H_ 0.476106 0.581653 0.31913 0.10932
H_ H_ 0.188168 0.652722 0.195768 0.10932
H_ H_ 0.425006 0.640014 0.191652 0.10932
H_ H_ 0.17863 0.637519 0.330759 0.10932
H_ H_ 0.445966 0.649618 0.32338 0.10932
H_ H_ 0.225294 0.591878 0.197658 0.10932
H_ H_ 0.45013 0.571862 0.19099 0.10932
H_ H_ 0.0334875 0.587655 0.168993 0.10932
H_ H_ 0.284595 0.584855 0.188538 0.10932
H_ H_ 0.0552922 0.641863 0.313146 0.10932
H_ H_ 0.317878 0.653065 0.31724 0.10932
H_ H_ 0.0621188 0.653947 0.176674 0.10932
H_ H_ 0.310402 0.650568 0.18343 0.10932
H_ H_ 0.0301714 0.574345 0.301762 0.10932
H_ H_ 0.284517 0.594069 0.321363 0.10932
H_ H_ 0.116706 0.813774 0.363644 0.10932
H_ H_ 0.365946 0.69373 0.36416 0.10932
H_ H_ 0.111952 0.680875 0.362693 0.10932
H_ H_ 0.391815 0.821337 0.357913 0.10932
H_ H_ 0.124615 0.6782 0.435042 0.10932
H_ H_ 0.396985 0.824367 0.43741 0.10932
H_ H_ 0.125268 0.811504 0.440809 0.10932
H_ H_ 0.367426 0.69775 0.442491 0.10932
H_ H_ 0.13745 0.686468 0.148243 0.10932
H_ H_ 0.382943 0.813161 0.133554 0.10932
H_ H_ 0.122909 0.81329 0.144827 0.10932
H_ H_ 0.368206 0.685927 0.148703 0.10932
H_ H_ 0.11511 0.810998 0.0651698 0.10932
H_ H_ 0.372521 0.678777 0.0694576 0.10932
H_ H_ 0.133604 0.682449 0.0683829 0.10932
H_ H_ 0.38219 0.806049 0.0551142 0.10932
C_ C_ 0.0677157 0.848905 0.244042 -0.02249
C_ C_ 0.31772 0.844841 0.246021 -0.02249
C_ C_ 0.0169354 0.96375 0.241895 -0.02249
C_ C_ 0.265801 0.962051 0.25737 -0.02249
C_ C_ 0.0317406 0.894638 0.210187 -0.11473
C_ C_ 0.299307 0.910539 0.21363 -0.11473
C_ C_ 0.0699624 0.876953 0.279612 -0.11473
C_ C_ 0.302029 0.856359 0.281494 -0.11473
C_ C_ 0.046732 0.856104 0.211411 -0.11473
C_ C_ 0.317454 0.874592 0.212148 -0.11473
C_ C_ 0.0353412 0.925267 0.242446 -0.02249
C_ C_ 0.283848 0.922064 0.250599 -0.02249
C_ C_ 0.0859444 0.809583 0.244277 0.6875
C_ C_ 0.33663 0.805985 0.248361 0.6875
C_ C_ 0.050627 0.912616 0.279758 -0.11473
C_ C_ 0.285504 0.892449 0.283368 -0.11473
C_ C_ 0.183622 0.844377 0.255464 -0.02249
C_ C_ 0.438426 0.84809 0.254601 -0.02249
C_ C_ 0.233695 0.961128 0.256315 -0.02249
C_ C_ 0.490364 0.95903 0.259744 -0.02249
C_ C_ 0.211037 0.90136 0.293371 -0.11473
C_ C_ 0.461735 0.903627 0.294678 -0.11473
C_ C_ 0.194849 0.862105 0.217542 -0.11473
C_ C_ 0.456773 0.856571 0.221692 -0.11473
C_ C_ 0.193839 0.86292 0.293276 -0.11473
C_ C_ 0.442829 0.87079 0.292231 -0.11473
C_ C_ 0.218059 0.920393 0.255187 -0.02249
C_ C_ 0.476911 0.91679 0.260371 -0.02249
C_ C_ 0.165627 0.805916 0.2545 0.6875
C_ C_ 0.416133 0.813201 0.253869 0.6875
C_ C_ 0.210006 0.900025 0.218287 -0.11473
C_ C_ 0.475555 0.890747 0.223302 -0.11473
C_ C_ 0.186057 0.654478 0.262368 -0.02249
C_ C_ 0.433369 0.64932 0.258366 -0.02249
C_ C_ 0.235246 0.540356 0.262626 -0.02249
C_ C_ 0.480759 0.534338 0.251648 -0.02249
C_ C_ 0.202377 0.592196 0.298399 -0.11473
C_ C_ 0.463153 0.594879 0.293314 -0.11473
C_ C_ 0.195089 0.637817 0.224284 -0.11473
C_ C_ 0.435143 0.627483 0.221223 -0.11473
C_ C_ 0.186633 0.628942 0.298737 -0.11473
C_ C_ 0.448723 0.63304 0.294803 -0.11473
C_ C_ 0.215622 0.577746 0.261808 -0.02249
C_ C_ 0.463107 0.573764 0.256699 -0.02249
C_ C_ 0.165144 0.691343 0.262352 0.6875
C_ C_ 0.415278 0.687448 0.259783 0.6875
C_ C_ 0.213294 0.601818 0.22469 -0.11473
C_ C_ 0.449931 0.589697 0.218942 -0.11473
C_ C_ 0.0625979 0.65349 0.24584 -0.02249
C_ C_ 0.314021 0.659963 0.250543 -0.02249
C_ C_ 0.0110468 0.540741 0.231953 -0.02249
C_ C_ 0.266708 0.544052 0.260498 -0.02249
C_ C_ 0.038218 0.60044 0.199335 -0.11473
C_ C_ 0.288106 0.601579 0.216076 -0.11473
C_ C_ 0.0546738 0.628846 0.280527 -0.11473
C_ C_ 0.308961 0.640605 0.288588 -0.11473
C_ C_ 0.0560596 0.636059 0.20413 -0.11473
C_ C_ 0.301488 0.640451 0.213756 -0.11473
C_ C_ 0.0276209 0.578275 0.234573 -0.02249
C_ C_ 0.282588 0.584441 0.255401 -0.02249
C_ C_ 0.0800367 0.692399 0.250987 0.6875
C_ C_ 0.335044 0.695676 0.251421 0.6875
C_ C_ 0.0379975 0.591775 0.274572 -0.11473
C_ C_ 0.290436 0.606009 0.290798 -0.11473
C_ C_ 0.118966 0.783235 0.381189 0.17695
C_ C_ 0.373504 0.722355 0.380796 0.17695
C_ C_ 0.116754 0.709362 0.380399 0.17695
C_ C_ 0.386848 0.793495 0.378106 0.17695
C_ C_ 0.117043 0.707596 0.422249 -0.11473
C_ C_ 0.390223 0.794554 0.422309 -0.11473
C_ C_ 0.120681 0.743931 0.447036 0.23465
C_ C_ 0.377996 0.762756 0.445857 0.23465
C_ C_ 0.11987 0.782873 0.424035 -0.11473
C_ C_ 0.370296 0.726188 0.424815 -0.11473
C_ C_ 0.135625 0.712987 0.129511 0.17695
C_ C_ 0.382967 0.782569 0.117799 0.17695
C_ C_ 0.123117 0.783738 0.12662 0.17695
C_ C_ 0.371974 0.71387 0.127756 0.17695
C_ C_ 0.120993 0.782263 0.0810813 -0.11473
C_ C_ 0.370892 0.708163 0.0824842 -0.11473
C_ C_ 0.127159 0.744986 0.061165 0.23465
C_ C_ 0.374295 0.742172 0.0549228 0.23465
C_ C_ 0.131778 0.709835 0.0850261 -0.11473
C_ C_ 0.378197 0.779853 0.0745203 -0.11473
C_ C_ 0.0319735 1.0027917 0.244412 0.05793
C_ C_ 0.280252 1.00100167 0.254996 0.05793
C_ C_ 0.22083 0.500717 0.262695 0.05793
C_ C_ 0.466035 0.495239 0.257055 0.05793
Br Br 0.0750951 0.00574042 0.240861 -0.17191
Br Br 0.322144 1.00459073 0.259313 -0.17191
Br Br 0.178121 0.497242 0.264256 -0.17191
Br Br 0.423633 0.490995 0.267406 -0.17191
N_ N_ 0.1173 0.746061 0.358742 -0.272
N_ N_ 0.378656 0.757915 0.358619 -0.272
N_ N_ 0.126632 0.740729 0.490563 -0.12501
N_ N_ 0.377425 0.767239 0.490938 -0.12501
N_ N_ 0.126128 0.747886 0.148525 -0.272
N_ N_ 0.375472 0.751776 0.143852 -0.272
N_ N_ 0.122543 0.738978 0.0155172 -0.12501
N_ N_ 0.373025 0.73736 0.0093753 -0.12501
O_ O_ 0.0945844 0.793382 0.211365 -0.60745
O_ O_ 0.350456 0.796624 0.215688 -0.60745
O_ O_ 0.0914205 0.792206 0.279742 -0.60745
O_ O_ 0.346827 0.792765 0.284209 -0.60745
O_ O_ 0.151787 0.795298 0.287135 -0.60745
O_ O_ 0.409811 0.794636 0.28687 -0.60745
O_ O_ 0.157379 0.790516 0.22005 -0.60745
O_ O_ 0.410996 0.795339 0.218429 -0.60745
O_ O_ 0.15282 0.706127 0.295972 -0.60745
O_ O_ 0.407523 0.70531 0.293989 -0.60745
O_ O_ 0.155588 0.702854 0.226812 -0.60745
O_ O_ 0.407818 0.70505 0.226496 -0.60745
O_ O_ 0.0914261 0.707147 0.218977 -0.60745
O_ O_ 0.343053 0.710208 0.216557 -0.60745
O_ O_ 0.0916505 0.702076 0.28542 -0.60745
O_ O_ 0.34669 0.707076 0.286921 -0.60745
Zn Zn 0.124661 0.747662 0.788107 0.9476
Zn Zn 0.375441 0.744245 0.783421 0.9476
Zn Zn 0.123855 0.753604 0.718629 0.9476
Zn Zn 0.376124 0.748692 0.716676 0.9476
H_ H_ 0.0421226 0.93301 0.694035 0.10932
H_ H_ 0.291679 0.921622 0.692739 0.10932
H_ H_ 0.0630099 0.848076 0.820215 0.10932
H_ H_ 0.312006 0.845011 0.822676 0.10932
H_ H_ 0.070662 0.869801 0.688116 0.10932
H_ H_ 0.320658 0.857716 0.688925 0.10932
H_ H_ 0.03194 0.91174 0.827215 0.10932
H_ H_ 0.290549 0.913531 0.824063 0.10932
H_ H_ 0.217881 0.920659 0.825144 0.10932
H_ H_ 0.454421 0.920451 0.815102 0.10932
H_ H_ 0.189427 0.850289 0.691216 0.10932
H_ H_ 0.447826 0.839961 0.686625 0.10932
H_ H_ 0.189936 0.856553 0.825697 0.10932
H_ H_ 0.423897 0.861054 0.815181 0.10932
H_ H_ 0.220519 0.913935 0.689727 0.10932
H_ H_ 0.474044 0.905146 0.683173 0.10932
H_ H_ 0.206587 0.572924 0.817444 0.10932
H_ H_ 0.458306 0.574103 0.810512 0.10932
H_ H_ 0.188297 0.653571 0.689045 0.10932
H_ H_ 0.454873 0.663778 0.685679 0.10932
H_ H_ 0.185771 0.642243 0.821355 0.10932
H_ H_ 0.427266 0.628397 0.809966 0.10932
H_ H_ 0.21378 0.585741 0.684933 0.10932
H_ H_ 0.482053 0.598898 0.680907 0.10932
H_ H_ 0.045158 0.580116 0.677929 0.10932
H_ H_ 0.289995 0.57975 0.683901 0.10932
H_ H_ 0.0482546 0.66549 0.80614 0.10932
H_ H_ 0.313549 0.643931 0.820893 0.10932
H_ H_ 0.07114 0.638841 0.678982 0.10932
H_ H_ 0.310066 0.650113 0.684707 0.10932
H_ H_ 0.0219799 0.593596 0.810933 0.10932
H_ H_ 0.285177 0.577006 0.815941 0.10932
H_ H_ 0.121606 0.822988 0.854887 0.10932
H_ H_ 0.39396 0.811998 0.851069 0.10932
H_ H_ 0.126812 0.692403 0.869791 0.10932
H_ H_ 0.375571 0.685703 0.861455 0.10932
H_ H_ 0.126415 0.698207 0.944263 0.10932
H_ H_ 0.377352 0.689408 0.941285 0.10932
H_ H_ 0.124547 0.829735 0.930956 0.10932
H_ H_ 0.39054 0.821986 0.927675 0.10932
H_ H_ 0.124048 0.694056 0.640842 0.10932
H_ H_ 0.377464 0.810622 0.635496 0.10932
H_ H_ 0.13114 0.820842 0.648124 0.10932
H_ H_ 0.384438 0.680388 0.646043 0.10932
H_ H_ 0.129759 0.827354 0.571523 0.10932
H_ H_ 0.380622 0.674472 0.566434 0.10932
H_ H_ 0.116828 0.695814 0.563538 0.10932
H_ H_ 0.366896 0.807171 0.560256 0.10932
C_ C_ 0.0686832 0.851874 0.753737 -0.02249
C_ C_ 0.321115 0.846425 0.757001 -0.02249
C_ C_ 0.0165792 0.963306 0.766465 -0.02249
C_ C_ 0.26941 0.960261 0.759128 -0.02249
C_ C_ 0.0439575 0.912109 0.72131 -0.11473
C_ C_ 0.297107 0.905297 0.719661 -0.11473
C_ C_ 0.0566484 0.863366 0.792571 -0.11473
C_ C_ 0.313068 0.863899 0.794418 -0.11473
C_ C_ 0.0605012 0.875227 0.71931 -0.11473
C_ C_ 0.30968 0.867063 0.718718 -0.11473
C_ C_ 0.0322563 0.923486 0.760003 -0.02249
C_ C_ 0.287738 0.921049 0.757057 -0.02249
C_ C_ 0.0878199 0.813466 0.750846 0.6875
C_ C_ 0.3364 0.805062 0.756068 0.6875
C_ C_ 0.0416176 0.901537 0.796574 -0.11473
C_ C_ 0.296655 0.900952 0.79434 -0.11473
C_ C_ 0.189476 0.843782 0.759093 -0.02249
C_ C_ 0.434723 0.845584 0.749322 -0.02249
C_ C_ 0.237274 0.960863 0.754292 -0.02249
C_ C_ 0.481625 0.959759 0.747871 -0.02249
C_ C_ 0.209137 0.907093 0.794862 -0.11473
C_ C_ 0.451296 0.905813 0.785717 -0.11473
C_ C_ 0.199136 0.862177 0.720207 -0.11473
C_ C_ 0.452031 0.85597 0.71485 -0.11473
C_ C_ 0.196003 0.867321 0.796165 -0.11473
C_ C_ 0.433675 0.871281 0.784331 -0.11473
C_ C_ 0.219264 0.922497 0.755223 -0.02249
C_ C_ 0.464762 0.919361 0.749692 -0.02249
C_ C_ 0.165957 0.809281 0.759184 0.6875
C_ C_ 0.416142 0.805171 0.745365 0.6875
C_ C_ 0.214713 0.899649 0.719612 -0.11473
C_ C_ 0.46511 0.894994 0.71284 -0.11473
C_ C_ 0.18368 0.651948 0.75701 -0.02249
C_ C_ 0.435067 0.650865 0.747751 -0.02249
C_ C_ 0.233521 0.537366 0.750214 -0.02249
C_ C_ 0.487348 0.536478 0.742709 -0.02249
C_ C_ 0.20565 0.591821 0.790583 -0.11473
C_ C_ 0.45692 0.590395 0.781104 -0.11473
C_ C_ 0.192793 0.635547 0.717633 -0.11473
C_ C_ 0.452676 0.641075 0.711073 -0.11473
C_ C_ 0.189765 0.628947 0.792788 -0.11473
C_ C_ 0.438307 0.624606 0.780256 -0.11473
C_ C_ 0.214819 0.575465 0.751535 -0.02249
C_ C_ 0.471679 0.577702 0.744038 -0.02249
C_ C_ 0.162542 0.688781 0.758209 0.6875
C_ C_ 0.415521 0.686687 0.748794 0.6875
C_ C_ 0.209378 0.598319 0.716062 -0.11473
C_ C_ 0.467342 0.603158 0.707733 -0.11473
C_ C_ 0.0643138 0.65398 0.744512 -0.02249
C_ C_ 0.314451 0.652069 0.75272 -0.02249
C_ C_ 0.0162439 0.53631 0.742275 -0.02249
C_ C_ 0.265109 0.538822 0.74875 -0.02249
C_ C_ 0.0435858 0.595425 0.707196 -0.11473
C_ C_ 0.289708 0.597469 0.71243 -0.11473
C_ C_ 0.0481445 0.642912 0.779076 -0.11473
C_ C_ 0.307698 0.630865 0.789731 -0.11473
C_ C_ 0.0614533 0.630739 0.707751 -0.11473
C_ C_ 0.304056 0.636596 0.713274 -0.11473
C_ C_ 0.0322479 0.577733 0.744034 -0.02249
C_ C_ 0.280597 0.578715 0.749525 -0.02249
C_ C_ 0.0842948 0.691698 0.747242 0.6875
C_ C_ 0.335174 0.689106 0.753776 0.6875
C_ C_ 0.0329606 0.60391 0.781592 -0.11473
C_ C_ 0.288995 0.595545 0.787822 -0.11473
C_ C_ 0.120848 0.795072 0.874902 0.17695
C_ C_ 0.386402 0.786343 0.870016 0.17695
C_ C_ 0.124847 0.721191 0.883039 0.17695
C_ C_ 0.379752 0.714016 0.876479 0.17695
C_ C_ 0.126571 0.725568 0.927185 -0.11473
C_ C_ 0.379199 0.717374 0.921683 -0.11473
C_ C_ 0.124269 0.765303 0.946568 0.23465
C_ C_ 0.384418 0.756003 0.941468 0.23465
C_ C_ 0.122821 0.800507 0.917834 -0.11473
C_ C_ 0.385982 0.790605 0.915153 -0.11473
C_ C_ 0.123371 0.722299 0.624471 0.17695
C_ C_ 0.371168 0.78052 0.622233 0.17695
C_ C_ 0.132565 0.793435 0.629028 0.17695
C_ C_ 0.380293 0.70823 0.626412 0.17695
C_ C_ 0.126698 0.796793 0.586309 -0.11473
C_ C_ 0.378836 0.704854 0.582633 -0.11473
C_ C_ 0.121565 0.763114 0.560279 0.23465
C_ C_ 0.372229 0.74036 0.558861 0.23465
C_ C_ 0.119881 0.724544 0.581267 -0.11473
C_ C_ 0.36668 0.777572 0.578965 -0.11473
C_ C_ 0.0335797 0.000135439 0.762417 0.05793
C_ C_ 0.285534 -0.00145099999999998 0.758978 0.05793
C_ C_ 0.218283 0.499596 0.744912 0.05793
C_ C_ 0.471057 0.497867 0.740674 0.05793
Br Br 0.0763818 -0.0022170000000000245 0.758092 -0.17191
Br Br 0.328645 -0.0047359999999999625 0.760911 -0.17191
Br Br 0.175964 0.491803 0.75859 -0.17191
Br Br 0.426828 0.501279 0.736345 -0.17191
N_ N_ 0.121657 0.756009 0.858487 -0.272
N_ N_ 0.381635 0.747553 0.85217 -0.272
N_ N_ 0.124064 0.769302 0.991388 -0.12501
N_ N_ 0.386956 0.760884 0.986256 -0.12501
N_ N_ 0.12913 0.756588 0.648261 -0.272
N_ N_ 0.373456 0.744722 0.646158 -0.272
N_ N_ 0.118733 0.768331 0.51644 -0.12501
N_ N_ 0.373626 0.736588 0.514917 -0.12501
O_ O_ 0.0967056 0.800989 0.715353 -0.60745
O_ O_ 0.343188 0.789886 0.720594 -0.60745
O_ O_ 0.0967418 0.794858 0.783175 -0.60745
O_ O_ 0.349068 0.792339 0.790418 -0.60745
O_ O_ 0.156819 0.79588 0.793924 -0.60745
O_ O_ 0.409077 0.786382 0.778797 -0.60745
O_ O_ 0.15696 0.791865 0.725795 -0.60745
O_ O_ 0.403803 0.794606 0.710525 -0.60745
O_ O_ 0.157656 0.707008 0.793842 -0.60745
O_ O_ 0.404625 0.69969 0.783092 -0.60745
O_ O_ 0.151406 0.70412 0.723111 -0.60745
O_ O_ 0.407285 0.7042 0.713999 -0.60745
O_ O_ 0.0901664 0.712217 0.714148 -0.60745
O_ O_ 0.349022 0.700597 0.721913 -0.60745
O_ O_ 0.0961163 0.704515 0.782384 -0.60745
O_ O_ 0.34253 0.707026 0.787816 -0.60745
Zn Zn 0.621331 0.253967 0.277292 0.9476
Zn Zn 0.878213 0.250677 0.276991 0.9476
Zn Zn 0.620745 0.251829 0.205242 0.9476
Zn Zn 0.873879 0.247275 0.207982 0.9476
H_ H_ 0.511939 0.403246 0.183892 0.10932
H_ H_ 0.77237 0.410613 0.171137 0.10932
H_ H_ 0.565894 0.361377 0.308337 0.10932
H_ H_ 0.824823 0.362655 0.302484 0.10932
H_ H_ 0.542101 0.338764 0.181598 0.10932
H_ H_ 0.803526 0.346631 0.169159 0.10932
H_ H_ 0.547414 0.430691 0.298985 0.10932
H_ H_ 0.796489 0.426125 0.300514 0.10932
H_ H_ 0.726354 0.408823 0.299734 0.10932
H_ H_ 0.972777 0.410285 0.309862 0.10932
H_ H_ 0.666278 0.367556 0.175864 0.10932
H_ H_ 0.928705 0.358874 0.172928 0.10932
H_ H_ 0.69817 0.342858 0.302518 0.10932
H_ H_ 0.940216 0.349315 0.306961 0.10932
H_ H_ 0.697652 0.426384 0.172805 0.10932
H_ H_ 0.952073 0.427045 0.177067 0.10932
H_ H_ 0.707614 0.084716 0.312321 0.10932
H_ H_ 0.96033 0.0827215 0.319388 0.10932
H_ H_ 0.692233 0.158338 0.176869 0.10932
H_ H_ 0.933475 0.136032 0.182084 0.10932
H_ H_ 0.677224 0.143622 0.310279 0.10932
H_ H_ 0.944236 0.159294 0.311896 0.10932
H_ H_ 0.718333 0.0905515 0.178859 0.10932
H_ H_ 0.959265 0.0702095 0.184441 0.10932
H_ H_ 0.539082 0.0670999 0.193355 0.10932
H_ H_ 0.783116 0.0780562 0.186525 0.10932
H_ H_ 0.546795 0.174564 0.302681 0.10932
H_ H_ 0.810251 0.160529 0.315477 0.10932
H_ H_ 0.569619 0.129325 0.179518 0.10932
H_ H_ 0.812647 0.142718 0.179595 0.10932
H_ H_ 0.524197 0.106021 0.319731 0.10932
H_ H_ 0.78241 0.0960523 0.321233 0.10932
H_ H_ 0.607485 0.185811 0.340191 0.10932
H_ H_ 0.870251 0.188398 0.353586 0.10932
H_ H_ 0.627522 0.312741 0.36517 0.10932
H_ H_ 0.877237 0.315973 0.352566 0.10932
H_ H_ 0.623528 0.302286 0.438146 0.10932
H_ H_ 0.875815 0.31931 0.432828 0.10932
H_ H_ 0.614763 0.171055 0.419539 0.10932
H_ H_ 0.869387 0.185094 0.430635 0.10932
H_ H_ 0.630966 0.189342 0.125027 0.10932
H_ H_ 0.88451 0.305151 0.128365 0.10932
H_ H_ 0.615564 0.31463 0.135991 0.10932
H_ H_ 0.859478 0.180646 0.132518 0.10932
H_ H_ 0.600136 0.323271 0.0631006 0.10932
H_ H_ 0.854562 0.17631 0.0575944 0.10932
H_ H_ 0.624562 0.194756 0.0490586 0.10932
H_ H_ 0.889174 0.30135 0.0502721 0.10932
C_ C_ 0.561296 0.349017 0.242156 -0.02249
C_ C_ 0.814844 0.34586 0.23654 -0.02249
C_ C_ 0.513945 0.462534 0.238701 -0.02249
C_ C_ 0.765958 0.46252 0.236806 -0.02249
C_ C_ 0.530687 0.398982 0.20276 -0.11473
C_ C_ 0.785437 0.400854 0.199228 -0.11473
C_ C_ 0.556586 0.370883 0.278129 -0.11473
C_ C_ 0.814093 0.371429 0.272402 -0.11473
C_ C_ 0.545037 0.3607 0.204504 -0.11473
C_ C_ 0.800817 0.361906 0.198737 -0.11473
C_ C_ 0.531717 0.424752 0.237713 -0.02249
C_ C_ 0.783533 0.422298 0.235086 -0.02249
C_ C_ 0.583137 0.314034 0.24144 0.6875
C_ C_ 0.8364 0.311417 0.237416 0.6875
C_ C_ 0.54556 0.410838 0.275372 -0.11473
C_ C_ 0.795151 0.405736 0.272411 -0.11473
C_ C_ 0.677353 0.352172 0.239933 -0.02249
C_ C_ 0.933749 0.34762 0.240995 -0.02249
C_ C_ 0.733841 0.461183 0.235416 -0.02249
C_ C_ 0.979766 0.464743 0.244746 -0.02249
C_ C_ 0.716165 0.395527 0.271886 -0.11473
C_ C_ 0.962307 0.401223 0.281036 -0.11473
C_ C_ 0.67906 0.374559 0.202476 -0.11473
C_ C_ 0.935987 0.371906 0.20426 -0.11473
C_ C_ 0.697548 0.361364 0.273554 -0.11473
C_ C_ 0.946969 0.361607 0.278764 -0.11473
C_ C_ 0.716395 0.41996 0.23598 -0.02249
C_ C_ 0.963929 0.424302 0.244026 -0.02249
C_ C_ 0.659059 0.312812 0.242264 0.6875
C_ C_ 0.913707 0.309919 0.241102 0.6875
C_ C_ 0.695441 0.410867 0.201937 -0.11473
C_ C_ 0.950331 0.410213 0.206271 -0.11473
C_ C_ 0.683971 0.159243 0.244273 -0.02249
C_ C_ 0.933756 0.151647 0.247893 -0.02249
C_ C_ 0.733683 0.0411891 0.247822 -0.02249
C_ C_ 0.984637 0.0376495 0.259156 -0.02249
C_ C_ 0.705128 0.098873 0.282126 -0.11473
C_ C_ 0.959459 0.0990898 0.289947 -0.11473
C_ C_ 0.69512 0.141803 0.20673 -0.11473
C_ C_ 0.940753 0.126854 0.211443 -0.11473
C_ C_ 0.689176 0.135386 0.280772 -0.11473
C_ C_ 0.946317 0.138935 0.285262 -0.11473
C_ C_ 0.716284 0.082918 0.245301 -0.02249
C_ C_ 0.967238 0.0766393 0.25269 -0.02249
C_ C_ 0.663387 0.196882 0.244443 0.6875
C_ C_ 0.911914 0.186109 0.246431 0.6875
C_ C_ 0.709413 0.10378 0.205798 -0.11473
C_ C_ 0.955749 0.0889915 0.21408 -0.11473
C_ C_ 0.562798 0.154612 0.242645 -0.02249
C_ C_ 0.813127 0.157699 0.245595 -0.02249
C_ C_ 0.514699 0.0406188 0.262671 -0.02249
C_ C_ 0.764847 0.0407121 0.255434 -0.02249
C_ C_ 0.542622 0.0893638 0.217849 -0.11473
C_ C_ 0.791572 0.0936284 0.215388 -0.11473
C_ C_ 0.544712 0.151025 0.278862 -0.11473
C_ C_ 0.805796 0.142454 0.286501 -0.11473
C_ C_ 0.558219 0.125326 0.209913 -0.11473
C_ C_ 0.807794 0.130801 0.210775 -0.11473
C_ C_ 0.528358 0.0836672 0.255232 -0.02249
C_ C_ 0.78216 0.0804144 0.255409 -0.02249
C_ C_ 0.581227 0.191539 0.237886 0.6875
C_ C_ 0.834275 0.192351 0.241448 0.6875
C_ C_ 0.531917 0.113258 0.287234 -0.11473
C_ C_ 0.789369 0.103485 0.290725 -0.11473
C_ C_ 0.612934 0.209615 0.362691 0.17695
C_ C_ 0.873935 0.215861 0.370472 0.17695
C_ C_ 0.624611 0.280739 0.3769 0.17695
C_ C_ 0.873017 0.290213 0.371571 0.17695
C_ C_ 0.619577 0.274988 0.418572 -0.11473
C_ C_ 0.873059 0.289963 0.415339 -0.11473
C_ C_ 0.617482 0.235221 0.435832 0.23465
C_ C_ 0.870669 0.252545 0.43685 0.23465
C_ C_ 0.613283 0.201795 0.407452 -0.11473
C_ C_ 0.871724 0.21494 0.414289 -0.11473
C_ C_ 0.624165 0.218468 0.110687 0.17695
C_ C_ 0.880959 0.276953 0.111772 0.17695
C_ C_ 0.61251 0.28882 0.117606 0.17695
C_ C_ 0.868068 0.204858 0.11517 0.17695
C_ C_ 0.606503 0.293427 0.0746732 -0.11473
C_ C_ 0.866327 0.202718 0.072731 -0.11473
C_ C_ 0.612736 0.260792 0.0491529 0.23465
C_ C_ 0.873037 0.236539 0.0471905 0.23465
C_ C_ 0.6194 0.222264 0.0670641 -0.11473
C_ C_ 0.880474 0.274469 0.0676845 -0.11473
C_ C_ 0.528265 0.502025 0.236783 0.05793
C_ C_ 0.779971 0.50133 0.241465 0.05793
C_ C_ 0.717268 1.00288443 0.244509 0.05793
C_ C_ 0.969718 0.999462 0.257206 0.05793
Br Br 0.567745 0.504 0.213235 -0.17191
Br Br 0.824371 0.501885 0.238258 -0.17191
Br Br 0.675315 0.0072989 0.231102 -0.17191
Br Br 0.926117 0.000522653 0.268085 -0.17191
N_ N_ 0.61892 0.248415 0.348493 -0.272
N_ N_ 0.873138 0.253035 0.350347 -0.272
N_ N_ 0.616113 0.226722 0.480756 -0.12501
N_ N_ 0.866411 0.252168 0.480659 -0.12501
N_ N_ 0.621545 0.253571 0.135169 -0.272
N_ N_ 0.873753 0.242522 0.134685 -0.272
N_ N_ 0.617448 0.267867 0.0049064 -0.12501
N_ N_ 0.868433 0.234134 0.00290225 -0.12501
O_ O_ 0.591311 0.298469 0.206831 -0.60745
O_ O_ 0.839001 0.289113 0.203863 -0.60745
O_ O_ 0.592721 0.298904 0.276023 -0.60745
O_ O_ 0.850556 0.301022 0.270177 -0.60745
O_ O_ 0.653877 0.295207 0.277154 -0.60745
O_ O_ 0.913289 0.285704 0.273043 -0.60745
O_ O_ 0.651228 0.293182 0.208151 -0.60745
O_ O_ 0.902737 0.298171 0.207989 -0.60745
O_ O_ 0.652015 0.208505 0.278641 -0.60745
O_ O_ 0.904237 0.203156 0.279972 -0.60745
O_ O_ 0.650933 0.206415 0.208274 -0.60745
O_ O_ 0.906606 0.203248 0.212255 -0.60745
O_ O_ 0.590295 0.205507 0.20261 -0.60745
O_ O_ 0.839473 0.207488 0.206415 -0.60745
O_ O_ 0.587325 0.21299 0.270894 -0.60745
O_ O_ 0.844897 0.208335 0.27419 -0.60745
Zn Zn 0.623897 0.247384 0.774878 0.9476
Zn Zn 0.87266 0.248831 0.776421 0.9476
Zn Zn 0.624006 0.246992 0.707198 0.9476
Zn Zn 0.875031 0.247163 0.707959 0.9476
H_ H_ 0.545904 0.422245 0.684363 0.10932
H_ H_ 0.772857 0.411341 0.678226 0.10932
H_ H_ 0.552207 0.332235 0.811236 0.10932
H_ H_ 0.819673 0.356264 0.812403 0.10932
H_ H_ 0.575375 0.358906 0.684801 0.10932
H_ H_ 0.816365 0.3564 0.6795 0.10932
H_ H_ 0.525261 0.40198 0.814852 0.10932
H_ H_ 0.796704 0.425152 0.806905 0.10932
H_ H_ 0.712094 0.41365 0.811996 0.10932
H_ H_ 0.967017 0.415485 0.809267 0.10932
H_ H_ 0.677761 0.362503 0.673346 0.10932
H_ H_ 0.926536 0.36029 0.675366 0.10932
H_ H_ 0.685731 0.347202 0.805868 0.10932
H_ H_ 0.937133 0.34971 0.809729 0.10932
H_ H_ 0.701496 0.426636 0.680354 0.10932
H_ H_ 0.964558 0.414964 0.673814 0.10932
H_ H_ 0.730675 0.100884 0.809757 0.10932
H_ H_ 0.976109 0.100935 0.820607 0.10932
H_ H_ 0.66985 0.121501 0.679355 0.10932
H_ H_ 0.935683 0.136864 0.682971 0.10932
H_ H_ 0.698162 0.160945 0.802366 0.10932
H_ H_ 0.95165 0.165358 0.813748 0.10932
H_ H_ 0.702332 0.0601733 0.686547 0.10932
H_ H_ 0.961443 0.0701244 0.691947 0.10932
H_ H_ 0.538875 0.0772142 0.677382 0.10932
H_ H_ 0.767896 0.0914103 0.690066 0.10932
H_ H_ 0.55868 0.148411 0.810044 0.10932
H_ H_ 0.829369 0.132167 0.813544 0.10932
H_ H_ 0.56911 0.137596 0.677487 0.10932
H_ H_ 0.799574 0.15376 0.686961 0.10932
H_ H_ 0.529727 0.0871034 0.811676 0.10932
H_ H_ 0.799764 0.0656946 0.813876 0.10932
H_ H_ 0.613369 0.310182 0.850495 0.10932
H_ H_ 0.922154 0.245245 0.844345 0.10932
H_ H_ 0.636596 0.184331 0.848813 0.10932
H_ H_ 0.828602 0.254368 0.852852 0.10932
H_ H_ 0.62806 0.178818 0.924745 0.10932
H_ H_ 0.831751 0.240142 0.929991 0.10932
H_ H_ 0.613597 0.309169 0.928528 0.10932
H_ H_ 0.928708 0.252184 0.920548 0.10932
H_ H_ 0.614864 0.311905 0.638938 0.10932
H_ H_ 0.864966 0.300441 0.62858 0.10932
H_ H_ 0.627403 0.183231 0.630212 0.10932
H_ H_ 0.892649 0.175388 0.635469 0.10932
H_ H_ 0.631087 0.187181 0.557003 0.10932
H_ H_ 0.894489 0.172548 0.559911 0.10932
H_ H_ 0.606602 0.314567 0.558199 0.10932
H_ H_ 0.863127 0.295411 0.552006 0.10932
C_ C_ 0.565844 0.341912 0.749281 -0.02249
C_ C_ 0.814342 0.345719 0.744089 -0.02249
C_ C_ 0.517969 0.458499 0.750323 -0.02249
C_ C_ 0.764577 0.461589 0.746705 -0.02249
C_ C_ 0.548695 0.405663 0.714126 -0.11473
C_ C_ 0.78556 0.400549 0.706744 -0.11473
C_ C_ 0.551463 0.354748 0.785847 -0.11473
C_ C_ 0.807674 0.365551 0.782714 -0.11473
C_ C_ 0.563325 0.366745 0.712742 -0.11473
C_ C_ 0.804559 0.364596 0.707423 -0.11473
C_ C_ 0.535201 0.419253 0.750423 -0.02249
C_ C_ 0.780804 0.421936 0.743581 -0.02249
C_ C_ 0.585662 0.303715 0.748253 0.6875
C_ C_ 0.83457 0.308228 0.742351 0.6875
C_ C_ 0.537201 0.39293 0.78647 -0.11473
C_ C_ 0.794391 0.406606 0.780477 -0.11473
C_ C_ 0.68084 0.34796 0.739741 -0.02249
C_ C_ 0.93347 0.347028 0.741471 -0.02249
C_ C_ 0.733307 0.46149 0.749435 -0.02249
C_ C_ 0.986588 0.459591 0.740437 -0.02249
C_ C_ 0.707345 0.401283 0.781311 -0.11473
C_ C_ 0.961406 0.401505 0.780365 -0.11473
C_ C_ 0.687678 0.370509 0.704073 -0.11473
C_ C_ 0.940096 0.368473 0.703684 -0.11473
C_ C_ 0.688933 0.365771 0.779008 -0.11473
C_ C_ 0.943006 0.364705 0.779479 -0.11473
C_ C_ 0.715791 0.421529 0.745944 -0.02249
C_ C_ 0.972029 0.417487 0.742086 -0.02249
C_ C_ 0.661733 0.310509 0.73887 0.6875
C_ C_ 0.912815 0.310643 0.740728 0.6875
C_ C_ 0.70315 0.408398 0.707765 -0.11473
C_ C_ 0.958325 0.4019 0.703537 -0.11473
C_ C_ 0.683595 0.148917 0.740694 -0.02249
C_ C_ 0.940653 0.156854 0.747118 -0.02249
C_ C_ 0.735217 0.0347215 0.757324 -0.02249
C_ C_ 0.988388 0.0412103 0.76269 -0.02249
C_ C_ 0.714518 0.102311 0.783548 -0.11473
C_ C_ 0.96816 0.108873 0.791109 -0.11473
C_ C_ 0.684606 0.119179 0.707586 -0.11473
C_ C_ 0.945366 0.130493 0.71253 -0.11473
C_ C_ 0.699095 0.139245 0.779268 -0.11473
C_ C_ 0.955686 0.147545 0.786368 -0.11473
C_ C_ 0.717696 0.0741801 0.750411 -0.02249
C_ C_ 0.971695 0.0813533 0.757391 -0.02249
C_ C_ 0.662402 0.184652 0.739335 0.6875
C_ C_ 0.918491 0.1926 0.743116 0.6875
C_ C_ 0.702 0.0833272 0.711893 -0.11473
C_ C_ 0.960143 0.092169 0.717609 -0.11473
C_ C_ 0.565556 0.150716 0.744329 -0.02249
C_ C_ 0.818086 0.147228 0.749945 -0.02249
C_ C_ 0.51233 0.0368374 0.745289 -0.02249
C_ C_ 0.765879 0.0356503 0.749151 -0.02249
C_ C_ 0.54057 0.0937064 0.707346 -0.11473
C_ C_ 0.781419 0.100008 0.717073 -0.11473
C_ C_ 0.5546 0.133112 0.782436 -0.11473
C_ C_ 0.815872 0.123209 0.785691 -0.11473
C_ C_ 0.560178 0.128201 0.706734 -0.11473
C_ C_ 0.799062 0.137132 0.715337 -0.11473
C_ C_ 0.528989 0.0775983 0.74416 -0.02249
C_ C_ 0.783088 0.0749447 0.750489 -0.02249
C_ C_ 0.583085 0.190397 0.744742 0.6875
C_ C_ 0.836907 0.184603 0.749194 0.6875
C_ C_ 0.534632 0.0986099 0.781826 -0.11473
C_ C_ 0.797574 0.0881049 0.787266 -0.11473
C_ C_ 0.61606 0.281073 0.867241 0.17695
C_ C_ 0.903442 0.247854 0.865495 0.17695
C_ C_ 0.627846 0.210154 0.865329 0.17695
C_ C_ 0.850441 0.250701 0.869336 0.17695
C_ C_ 0.626862 0.207894 0.908993 -0.11473
C_ C_ 0.851387 0.247656 0.913069 -0.11473
C_ C_ 0.619572 0.243579 0.933508 0.23465
C_ C_ 0.879496 0.247943 0.933083 0.23465
C_ C_ 0.614609 0.2796 0.911546 -0.11473
C_ C_ 0.905817 0.248167 0.907693 -0.11473
C_ C_ 0.610458 0.283804 0.620714 0.17695
C_ C_ 0.872422 0.271739 0.614584 0.17695
C_ C_ 0.622406 0.213326 0.615533 0.17695
C_ C_ 0.881993 0.200881 0.619367 0.17695
C_ C_ 0.621963 0.215204 0.572842 -0.11473
C_ C_ 0.884301 0.199192 0.575553 -0.11473
C_ C_ 0.613632 0.252265 0.550948 0.23465
C_ C_ 0.880065 0.233032 0.549845 0.23465
C_ C_ 0.608528 0.286715 0.574493 -0.11473
C_ C_ 0.869759 0.269216 0.570375 -0.11473
C_ C_ 0.533453 0.496805 0.759261 0.05793
C_ C_ 0.781355 0.497322 0.747958 0.05793
C_ C_ 0.720126 -0.003510000000000013 0.757649 0.05793
C_ C_ 0.970373 0.00497719 0.764188 0.05793
Br Br 0.575312 0.4978 0.776924 -0.17191
Br Br 0.825448 0.494975 0.74047 -0.17191
Br Br 0.680363 -0.005969000000000002 0.778975 -0.17191
Br Br 0.927601 0.00926362 0.76661 -0.17191
N_ N_ 0.627087 0.247579 0.846143 -0.272
N_ N_ 0.876239 0.253602 0.845657 -0.272
N_ N_ 0.613623 0.239598 0.977561 -0.12501
N_ N_ 0.881839 0.256647 0.977221 -0.12501
N_ N_ 0.618348 0.247556 0.638321 -0.272
N_ N_ 0.874398 0.238774 0.63899 -0.272
N_ N_ 0.615896 0.256009 0.506695 -0.12501
N_ N_ 0.880364 0.228034 0.505022 -0.12501
O_ O_ 0.597622 0.293175 0.71421 -0.60745
O_ O_ 0.844196 0.294374 0.706988 -0.60745
O_ O_ 0.590187 0.282836 0.780734 -0.60745
O_ O_ 0.840964 0.290994 0.775996 -0.60745
O_ O_ 0.650795 0.29757 0.773201 -0.60745
O_ O_ 0.901185 0.298594 0.773737 -0.60745
O_ O_ 0.657838 0.291679 0.704797 -0.60745
O_ O_ 0.907492 0.289555 0.706756 -0.60745
O_ O_ 0.657633 0.205079 0.773187 -0.60745
O_ O_ 0.907098 0.209192 0.776176 -0.60745
O_ O_ 0.653783 0.199449 0.70445 -0.60745
O_ O_ 0.905668 0.202137 0.709006 -0.60745
O_ O_ 0.587962 0.209168 0.708261 -0.60745
O_ O_ 0.842097 0.202824 0.714676 -0.60745
O_ O_ 0.595228 0.202812 0.777845 -0.60745
O_ O_ 0.845274 0.201543 0.783299 -0.60745
Zn Zn 0.625425 0.750232 0.288361 0.9476
Zn Zn 0.874185 0.753022 0.284421 0.9476
Zn Zn 0.623129 0.752132 0.221346 0.9476
Zn Zn 0.86911 0.750292 0.216664 0.9476
H_ H_ 0.553753 0.937629 0.198647 0.10932
H_ H_ 0.787203 0.921159 0.180225 0.10932
H_ H_ 0.559535 0.844391 0.320811 0.10932
H_ H_ 0.806062 0.852326 0.312348 0.10932
H_ H_ 0.584478 0.874291 0.196201 0.10932
H_ H_ 0.812554 0.857691 0.178876 0.10932
H_ H_ 0.533 0.909248 0.324449 0.10932
H_ H_ 0.781278 0.918041 0.313931 0.10932
H_ H_ 0.723036 0.919978 0.314372 0.10932
H_ H_ 0.984953 0.904521 0.311557 0.10932
H_ H_ 0.688786 0.847499 0.184499 0.10932
H_ H_ 0.922985 0.85811 0.187569 0.10932
H_ H_ 0.692423 0.856295 0.320597 0.10932
H_ H_ 0.95632 0.837289 0.31426 0.10932
H_ H_ 0.710064 0.915236 0.180804 0.10932
H_ H_ 0.946661 0.927759 0.187799 0.10932
H_ H_ 0.718667 0.578717 0.309967 0.10932
H_ H_ 0.969774 0.587496 0.312568 0.10932
H_ H_ 0.674921 0.652389 0.183756 0.10932
H_ H_ 0.93471 0.660261 0.181495 0.10932
H_ H_ 0.681732 0.636362 0.317439 0.10932
H_ H_ 0.943525 0.653309 0.316008 0.10932
H_ H_ 0.701592 0.581131 0.17346 0.10932
H_ H_ 0.959314 0.590781 0.177662 0.10932
H_ H_ 0.513691 0.601043 0.190143 0.10932
H_ H_ 0.775415 0.58553 0.178757 0.10932
H_ H_ 0.583302 0.620544 0.306945 0.10932
H_ H_ 0.822721 0.636728 0.311162 0.10932
H_ H_ 0.541813 0.668208 0.195339 0.10932
H_ H_ 0.804221 0.648104 0.180508 0.10932
H_ H_ 0.555225 0.559817 0.30398 0.10932
H_ H_ 0.786284 0.57869 0.311933 0.10932
H_ H_ 0.612017 0.69674 0.363824 0.10932
H_ H_ 0.885182 0.813641 0.366788 0.10932
H_ H_ 0.634663 0.820667 0.364609 0.10932
H_ H_ 0.858228 0.686859 0.359398 0.10932
H_ H_ 0.636084 0.822999 0.445168 0.10932
H_ H_ 0.862781 0.678632 0.434485 0.10932
H_ H_ 0.602035 0.699187 0.438614 0.10932
H_ H_ 0.896172 0.805341 0.4429 0.10932
H_ H_ 0.624888 0.680706 0.15479 0.10932
H_ H_ 0.877305 0.688064 0.147785 0.10932
H_ H_ 0.61684 0.806112 0.136234 0.10932
H_ H_ 0.86449 0.818577 0.135664 0.10932
H_ H_ 0.614281 0.798347 0.057611 0.10932
H_ H_ 0.868928 0.811321 0.0571334 0.10932
H_ H_ 0.637134 0.669426 0.0756402 0.10932
H_ H_ 0.880419 0.682342 0.0715828 0.10932
C_ C_ 0.572357 0.854264 0.257333 -0.02249
C_ C_ 0.814266 0.849719 0.246272 -0.02249
C_ C_ 0.521816 0.96531 0.264238 -0.02249
C_ C_ 0.765335 0.96387 0.248842 -0.02249
C_ C_ 0.556137 0.917869 0.227689 -0.11473
C_ C_ 0.794349 0.909885 0.210423 -0.11473
C_ C_ 0.558902 0.866328 0.295436 -0.11473
C_ C_ 0.803723 0.868331 0.284408 -0.11473
C_ C_ 0.571637 0.881922 0.22432 -0.11473
C_ C_ 0.807437 0.870936 0.208373 -0.11473
C_ C_ 0.540995 0.928801 0.263889 -0.02249
C_ C_ 0.782326 0.925166 0.246456 -0.02249
C_ C_ 0.589788 0.815946 0.253538 0.6875
C_ C_ 0.832931 0.81136 0.250041 0.6875
C_ C_ 0.543437 0.903393 0.298174 -0.11473
C_ C_ 0.787605 0.904644 0.284416 -0.11473
C_ C_ 0.684211 0.848272 0.252938 -0.02249
C_ C_ 0.935857 0.845791 0.253181 -0.02249
C_ C_ 0.733387 0.963762 0.24152 -0.02249
C_ C_ 0.984679 0.961394 0.248726 -0.02249
C_ C_ 0.711418 0.906373 0.286714 -0.11473
C_ C_ 0.969383 0.896465 0.286424 -0.11473
C_ C_ 0.692041 0.863789 0.213576 -0.11473
C_ C_ 0.93614 0.869244 0.215277 -0.11473
C_ C_ 0.696594 0.868706 0.288995 -0.11473
C_ C_ 0.953444 0.858913 0.287879 -0.11473
C_ C_ 0.716107 0.923956 0.246623 -0.02249
C_ C_ 0.965942 0.922457 0.251529 -0.02249
C_ C_ 0.665408 0.80922 0.254766 0.6875
C_ C_ 0.913202 0.81105 0.256422 0.6875
C_ C_ 0.706336 0.903058 0.210923 -0.11473
C_ C_ 0.950208 0.908483 0.215042 -0.11473
C_ C_ 0.678374 0.648869 0.250315 -0.02249
C_ C_ 0.933989 0.658365 0.250676 -0.02249
C_ C_ 0.731185 0.536155 0.238159 -0.02249
C_ C_ 0.979644 0.540737 0.23935 -0.02249
C_ C_ 0.708411 0.593327 0.280045 -0.11473
C_ C_ 0.959158 0.599357 0.283189 -0.11473
C_ C_ 0.684682 0.63351 0.210624 -0.11473
C_ C_ 0.941542 0.642712 0.210644 -0.11473
C_ C_ 0.690514 0.627646 0.285443 -0.11473
C_ C_ 0.945523 0.638858 0.285926 -0.11473
C_ C_ 0.713045 0.574791 0.240136 -0.02249
C_ C_ 0.962202 0.580023 0.244749 -0.02249
C_ C_ 0.660605 0.687452 0.255446 0.6875
C_ C_ 0.912402 0.694911 0.252163 0.6875
C_ C_ 0.698532 0.594139 0.20545 -0.11473
C_ C_ 0.951283 0.601633 0.206964 -0.11473
C_ C_ 0.564922 0.650758 0.253756 -0.02249
C_ C_ 0.815418 0.649921 0.244954 -0.02249
C_ C_ 0.512088 0.537481 0.247358 -0.02249
C_ C_ 0.763306 0.538067 0.244162 -0.02249
C_ C_ 0.524523 0.608864 0.220479 -0.11473
C_ C_ 0.783289 0.598553 0.207415 -0.11473
C_ C_ 0.566289 0.619671 0.283727 -0.11473
C_ C_ 0.81035 0.629908 0.282546 -0.11473
C_ C_ 0.544463 0.643274 0.2195 -0.11473
C_ C_ 0.801296 0.632579 0.208875 -0.11473
C_ C_ 0.527124 0.579254 0.251711 -0.02249
C_ C_ 0.778297 0.577988 0.244981 -0.02249
C_ C_ 0.584341 0.689019 0.253871 0.6875
C_ C_ 0.835512 0.686658 0.245593 0.6875
C_ C_ 0.548845 0.584951 0.283556 -0.11473
C_ C_ 0.790667 0.594075 0.282726 -0.11473
C_ C_ 0.61388 0.725079 0.38143 0.17695
C_ C_ 0.886678 0.781929 0.380251 0.17695
C_ C_ 0.62737 0.795716 0.382225 0.17695
C_ C_ 0.867399 0.71302 0.376288 0.17695
C_ C_ 0.628609 0.796739 0.426913 -0.11473
C_ C_ 0.869101 0.70748 0.419458 -0.11473
C_ C_ 0.61835 0.761524 0.448567 0.23465
C_ C_ 0.878184 0.741827 0.442942 0.23465
C_ C_ 0.607645 0.727796 0.423815 -0.11473
C_ C_ 0.887377 0.779462 0.42425 -0.11473
C_ C_ 0.626744 0.705815 0.133506 0.17695
C_ C_ 0.875931 0.71462 0.12859 0.17695
C_ C_ 0.620627 0.776909 0.122471 0.17695
C_ C_ 0.866004 0.786767 0.121001 0.17695
C_ C_ 0.619843 0.771948 0.0781588 -0.11473
C_ C_ 0.867542 0.783886 0.0766071 -0.11473
C_ C_ 0.625437 0.732667 0.0612536 0.23465
C_ C_ 0.871488 0.745801 0.0571442 0.23465
C_ C_ 0.628395 0.698591 0.0889392 -0.11473
C_ C_ 0.875637 0.71172 0.0835331 -0.11473
C_ C_ 0.53337 1.00574834 0.270941 0.05793
C_ C_ 0.780544 1.00275538 0.257385 0.05793
C_ C_ 0.716068 0.498041 0.236082 0.05793
C_ C_ 0.96331 0.502721 0.243179 0.05793
Br Br 0.574803 1.0110688 0.283758 -0.17191
Br Br 0.823655 0.999583 0.260392 -0.17191
Br Br 0.673963 0.500939 0.244466 -0.17191
Br Br 0.921759 0.501225 0.259051 -0.17191
N_ N_ 0.619906 0.760302 0.360527 -0.272
N_ N_ 0.87633 0.749161 0.356607 -0.272
N_ N_ 0.612846 0.763632 0.491698 -0.12501
N_ N_ 0.876919 0.73752 0.488222 -0.12501
N_ N_ 0.625539 0.745006 0.149054 -0.272
N_ N_ 0.87021 0.751581 0.145013 -0.272
N_ N_ 0.627846 0.726897 0.0168144 -0.12501
N_ N_ 0.879123 0.740123 0.0143193 -0.12501
O_ O_ 0.594664 0.799135 0.217849 -0.60745
O_ O_ 0.842486 0.796086 0.216955 -0.60745
O_ O_ 0.595792 0.795121 0.286065 -0.60745
O_ O_ 0.842236 0.79752 0.284844 -0.60745
O_ O_ 0.656031 0.796201 0.289485 -0.60745
O_ O_ 0.907029 0.796491 0.291648 -0.60745
O_ O_ 0.654211 0.795624 0.220898 -0.60745
O_ O_ 0.899596 0.796758 0.223226 -0.60745
O_ O_ 0.656386 0.700982 0.293347 -0.60745
O_ O_ 0.904205 0.709092 0.286548 -0.60745
O_ O_ 0.654162 0.709633 0.224566 -0.60745
O_ O_ 0.90151 0.708446 0.216574 -0.60745
O_ O_ 0.590044 0.708168 0.219976 -0.60745
O_ O_ 0.836994 0.706901 0.212494 -0.60745
O_ O_ 0.594402 0.706114 0.289168 -0.60745
O_ O_ 0.843256 0.70363 0.27914 -0.60745
Zn Zn 0.627841 0.751673 0.790118 0.9476
Zn Zn 0.876819 0.747262 0.784804 0.9476
Zn Zn 0.622847 0.750405 0.721923 0.9476
Zn Zn 0.874841 0.746894 0.716531 0.9476
H_ H_ 0.556246 0.934362 0.693746 0.10932
H_ H_ 0.773989 0.906481 0.679945 0.10932
H_ H_ 0.546249 0.841575 0.818769 0.10932
H_ H_ 0.831256 0.863023 0.80808 0.10932
H_ H_ 0.58613 0.873296 0.69834 0.10932
H_ H_ 0.802317 0.842619 0.681565 0.10932
H_ H_ 0.514791 0.901898 0.810863 0.10932
H_ H_ 0.799267 0.926925 0.808677 0.10932
H_ H_ 0.733154 0.905749 0.814614 0.10932
H_ H_ 0.954508 0.924334 0.825321 0.10932
H_ H_ 0.676248 0.8557 0.68717 0.10932
H_ H_ 0.950356 0.84631 0.695505 0.10932
H_ H_ 0.701309 0.840844 0.818544 0.10932
H_ H_ 0.931985 0.856856 0.822748 0.10932
H_ H_ 0.706531 0.920168 0.684838 0.10932
H_ H_ 0.971749 0.915001 0.692702 0.10932
H_ H_ 0.708063 0.573343 0.81454 0.10932
H_ H_ 0.95349 0.564924 0.806638 0.10932
H_ H_ 0.692603 0.658598 0.687148 0.10932
H_ H_ 0.954922 0.665016 0.690017 0.10932
H_ H_ 0.67364 0.631631 0.818576 0.10932
H_ H_ 0.924435 0.629114 0.813256 0.10932
H_ H_ 0.721753 0.590118 0.68441 0.10932
H_ H_ 0.984161 0.599279 0.687646 0.10932
H_ H_ 0.55059 0.572894 0.686444 0.10932
H_ H_ 0.773171 0.586197 0.681889 0.10932
H_ H_ 0.559518 0.653287 0.820338 0.10932
H_ H_ 0.834218 0.624859 0.809472 0.10932
H_ H_ 0.579979 0.636314 0.687319 0.10932
H_ H_ 0.80095 0.65557 0.68573 0.10932
H_ H_ 0.524899 0.596741 0.81568 0.10932
H_ H_ 0.801685 0.56665 0.812975 0.10932
H_ H_ 0.620209 0.682717 0.868843 0.10932
H_ H_ 0.864785 0.691354 0.860343 0.10932
H_ H_ 0.63139 0.813905 0.859527 0.10932
H_ H_ 0.891257 0.819032 0.859289 0.10932
H_ H_ 0.623145 0.81733 0.9359 0.10932
H_ H_ 0.887879 0.822173 0.934346 0.10932
H_ H_ 0.626096 0.683995 0.946588 0.10932
H_ H_ 0.861532 0.694963 0.938614 0.10932
H_ H_ 0.626186 0.684162 0.642886 0.10932
H_ H_ 0.866038 0.818158 0.645017 0.10932
H_ H_ 0.625511 0.814507 0.648983 0.10932
H_ H_ 0.880995 0.690241 0.638922 0.10932
H_ H_ 0.626271 0.818345 0.571968 0.10932
H_ H_ 0.875161 0.694432 0.560976 0.10932
H_ H_ 0.623289 0.683288 0.56639 0.10932
H_ H_ 0.857115 0.822202 0.566216 0.10932
C_ C_ 0.56718 0.850823 0.756585 -0.02249
C_ C_ 0.814538 0.845345 0.747567 -0.02249
C_ C_ 0.514008 0.96171 0.74774 -0.02249
C_ C_ 0.767052 0.960097 0.748332 -0.02249
C_ C_ 0.552469 0.913344 0.71952 -0.11473
C_ C_ 0.785475 0.897578 0.708198 -0.11473
C_ C_ 0.547871 0.860163 0.789306 -0.11473
C_ C_ 0.814337 0.870845 0.782836 -0.11473
C_ C_ 0.569107 0.877847 0.722189 -0.11473
C_ C_ 0.802743 0.861726 0.709207 -0.11473
C_ C_ 0.533166 0.923403 0.752462 -0.02249
C_ C_ 0.783631 0.920849 0.745348 -0.02249
C_ C_ 0.588449 0.814879 0.757105 0.6875
C_ C_ 0.832859 0.805066 0.751451 0.6875
C_ C_ 0.52838 0.893726 0.78357 -0.11473
C_ C_ 0.798535 0.908443 0.78177 -0.11473
C_ C_ 0.686121 0.843467 0.753976 -0.02249
C_ C_ 0.935406 0.847697 0.756708 -0.02249
C_ C_ 0.735214 0.959304 0.749161 -0.02249
C_ C_ 0.98494 0.965441 0.762706 -0.02249
C_ C_ 0.717877 0.895804 0.788072 -0.11473
C_ C_ 0.953432 0.908262 0.795707 -0.11473
C_ C_ 0.686849 0.866707 0.716454 -0.11473
C_ C_ 0.950086 0.864114 0.722075 -0.11473
C_ C_ 0.702708 0.858155 0.789956 -0.11473
C_ C_ 0.939112 0.870722 0.79296 -0.11473
C_ C_ 0.718107 0.918824 0.750878 -0.02249
C_ C_ 0.967586 0.926371 0.761242 -0.02249
C_ C_ 0.669711 0.804296 0.757871 0.6875
C_ C_ 0.918162 0.807361 0.754454 0.6875
C_ C_ 0.702457 0.904959 0.715128 -0.11473
C_ C_ 0.96173 0.906687 0.721745 -0.11473
C_ C_ 0.682872 0.651857 0.754896 -0.02249
C_ C_ 0.937714 0.651631 0.752508 -0.02249
C_ C_ 0.734409 0.537693 0.748056 -0.02249
C_ C_ 0.985066 0.536447 0.745497 -0.02249
C_ C_ 0.704729 0.591726 0.788201 -0.11473
C_ C_ 0.952424 0.583556 0.780217 -0.11473
C_ C_ 0.696392 0.639804 0.715259 -0.11473
C_ C_ 0.955546 0.643916 0.716897 -0.11473
C_ C_ 0.686491 0.625783 0.789653 -0.11473
C_ C_ 0.939673 0.623266 0.786947 -0.11473
C_ C_ 0.717949 0.578398 0.750831 -0.02249
C_ C_ 0.968444 0.575618 0.744067 -0.02249
C_ C_ 0.662709 0.688648 0.755753 0.6875
C_ C_ 0.917709 0.690607 0.753153 0.6875
C_ C_ 0.71444 0.602431 0.714238 -0.11473
C_ C_ 0.969032 0.60465 0.713482 -0.11473
C_ C_ 0.568428 0.653378 0.752287 -0.02249
C_ C_ 0.821233 0.644396 0.74534 -0.02249
C_ C_ 0.518673 0.535637 0.752518 -0.02249
C_ C_ 0.766308 0.535532 0.747119 -0.02249
C_ C_ 0.550336 0.590872 0.715162 -0.11473
C_ C_ 0.786432 0.595279 0.710617 -0.11473
C_ C_ 0.554507 0.638958 0.790067 -0.11473
C_ C_ 0.820411 0.620168 0.781317 -0.11473
C_ C_ 0.566342 0.627903 0.715703 -0.11473
C_ C_ 0.800325 0.63407 0.712445 -0.11473
C_ C_ 0.536829 0.576841 0.752201 -0.02249
C_ C_ 0.784077 0.57345 0.748452 -0.02249
C_ C_ 0.587226 0.691148 0.751066 0.6875
C_ C_ 0.837932 0.685211 0.745066 0.6875
C_ C_ 0.538271 0.602179 0.788489 -0.11473
C_ C_ 0.802102 0.584571 0.783356 -0.11473
C_ C_ 0.622477 0.711597 0.88425 0.17695
C_ C_ 0.87027 0.720143 0.877489 0.17695
C_ C_ 0.628925 0.784943 0.877915 0.17695
C_ C_ 0.887646 0.789441 0.875315 0.17695
C_ C_ 0.628121 0.78746 0.922976 -0.11473
C_ C_ 0.883675 0.793722 0.919066 -0.11473
C_ C_ 0.628243 0.752475 0.948326 0.23465
C_ C_ 0.87493 0.759039 0.942075 0.23465
C_ C_ 0.624845 0.713107 0.928119 -0.11473
C_ C_ 0.869416 0.721418 0.92103 -0.11473
C_ C_ 0.623769 0.713654 0.627119 0.17695
C_ C_ 0.869165 0.792663 0.625665 0.17695
C_ C_ 0.625781 0.786596 0.630698 0.17695
C_ C_ 0.87626 0.720203 0.621978 0.17695
C_ C_ 0.627597 0.787913 0.586004 -0.11473
C_ C_ 0.87612 0.72138 0.578449 -0.11473
C_ C_ 0.628681 0.750194 0.561775 0.23465
C_ C_ 0.873314 0.758777 0.557105 0.23465
C_ C_ 0.627266 0.712804 0.583637 -0.11473
C_ C_ 0.86647 0.793286 0.58161 -0.11473
C_ C_ 0.528162 0.000645254 0.752825 0.05793
C_ C_ 0.781852 -0.001831000000000027 0.746395 0.05793
C_ C_ 0.717663 0.500209 0.750703 0.05793
C_ C_ 0.969615 0.497691 0.743527 0.05793
Br Br 0.57112 0.00369732 0.759632 -0.17191
Br Br 0.825291 0.998745 0.736322 -0.17191
Br Br 0.672931 0.500982 0.746205 -0.17191
Br Br 0.925531 0.494781 0.746374 -0.17191
N_ N_ 0.627557 0.746672 0.860076 -0.272
N_ N_ 0.879511 0.753697 0.854449 -0.272
N_ N_ 0.623511 0.756992 0.991748 -0.12501
N_ N_ 0.869269 0.763885 0.986079 -0.12501
N_ N_ 0.624451 0.7497 0.650181 -0.272
N_ N_ 0.875686 0.755325 0.644198 -0.272
N_ N_ 0.632853 0.750185 0.516735 -0.12501
N_ N_ 0.869683 0.764823 0.512211 -0.12501
O_ O_ 0.595442 0.799602 0.720556 -0.60745
O_ O_ 0.842559 0.789354 0.717213 -0.60745
O_ O_ 0.595249 0.796026 0.790165 -0.60745
O_ O_ 0.841366 0.791023 0.786058 -0.60745
O_ O_ 0.660444 0.790959 0.792446 -0.60745
O_ O_ 0.906655 0.792977 0.787174 -0.60745
O_ O_ 0.653745 0.79539 0.725395 -0.60745
O_ O_ 0.908984 0.794334 0.719025 -0.60745
O_ O_ 0.655542 0.703665 0.7926 -0.60745
O_ O_ 0.907386 0.705478 0.787059 -0.60745
O_ O_ 0.653198 0.705892 0.723055 -0.60745
O_ O_ 0.906548 0.704193 0.718255 -0.60745
O_ O_ 0.589742 0.711851 0.71585 -0.60745
O_ O_ 0.844269 0.701976 0.709227 -0.60745
O_ O_ 0.595381 0.707805 0.786481 -0.60745
O_ O_ 0.847451 0.702515 0.778669 -0.60745
