_cell_length_a 44.444
_cell_length_b 32.3360000049186
_cell_length_c 31.843999878906452
_cell_angle_alpha 89.99799923859553
_cell_angle_beta 91.13600050494348
_cell_angle_gamma 89.9990006550086
_symmetry_space_group_name_H-M         'P 1'
_symmetry_Int_Tables_number            1
loop_
_symmetry_equiv_pos_as_xyz
   'x, y, z'
                         
loop_
_atom_site_label
_atom_site_type_symbol
_atom_site_fract_x 
_atom_site_fract_y
_atom_site_fract_z
_atom_site_charge
Zn Zn 0.126794 0.245528 0.292196 0.9476
Zn Zn 0.374779 0.250722 0.281829 0.9476
Zn Zn 0.122811 0.24654 0.2203 0.9476
Zn Zn 0.372917 0.251918 0.210349 0.9476
H_ H_ 0.0229758 0.410688 0.200414 0.10932
H_ H_ 0.290969 0.42698 0.18089 0.10932
H_ H_ 0.0771588 0.350816 0.328854 0.10932
H_ H_ 0.309038 0.351111 0.315785 0.10932
H_ H_ 0.0496485 0.344628 0.19602 0.10932
H_ H_ 0.314595 0.358729 0.18161 0.10932
H_ H_ 0.0447015 0.418553 0.333724 0.10932
H_ H_ 0.278452 0.412525 0.312012 0.10932
H_ H_ 0.222945 0.409579 0.318834 0.10932
H_ H_ 0.470128 0.410135 0.317119 0.10932
H_ H_ 0.173544 0.359895 0.190662 0.10932
H_ H_ 0.437831 0.347148 0.183349 0.10932
H_ H_ 0.19109 0.346575 0.32299 0.10932
H_ H_ 0.439441 0.345176 0.319561 0.10932
H_ H_ 0.203255 0.418758 0.186123 0.10932
H_ H_ 0.472288 0.409871 0.186176 0.10932
H_ H_ 0.223377 0.0742632 0.305978 0.10932
H_ H_ 0.454313 0.0732112 0.301624 0.10932
H_ H_ 0.183488 0.149133 0.18245 0.10932
H_ H_ 0.427603 0.145926 0.174069 0.10932
H_ H_ 0.192951 0.136464 0.31811 0.10932
H_ H_ 0.432488 0.141427 0.305582 0.10932
H_ H_ 0.215865 0.089084 0.173105 0.10932
H_ H_ 0.462018 0.0869956 0.168086 0.10932
H_ H_ 0.0266362 0.0862992 0.184438 0.10932
H_ H_ 0.288547 0.0818552 0.172389 0.10932
H_ H_ 0.0628466 0.142404 0.320617 0.10932
H_ H_ 0.303827 0.158175 0.304012 0.10932
H_ H_ 0.0542678 0.153664 0.187766 0.10932
H_ H_ 0.318102 0.145292 0.172647 0.10932
H_ H_ 0.0304874 0.0810054 0.318994 0.10932
H_ H_ 0.282425 0.0886635 0.307664 0.10932
H_ H_ 0.0939653 0.203415 0.366545 0.10932
H_ H_ 0.389869 0.310042 0.359703 0.10932
H_ H_ 0.168859 0.28401 0.365065 0.10932
H_ H_ 0.362349 0.183838 0.358909 0.10932
H_ H_ 0.164859 0.293345 0.441383 0.10932
H_ H_ 0.369431 0.182438 0.43509 0.10932
H_ H_ 0.0889825 0.213995 0.443724 0.10932
H_ H_ 0.395594 0.310403 0.435402 0.10932
H_ H_ 0.126768 0.317559 0.155708 0.10932
H_ H_ 0.328707 0.239636 0.128717 0.10932
H_ H_ 0.111706 0.189923 0.142117 0.10932
H_ H_ 0.420386 0.267895 0.144863 0.10932
H_ H_ 0.111098 0.198759 0.0649861 0.10932
H_ H_ 0.42552 0.275883 0.0659516 0.10932
H_ H_ 0.122634 0.328845 0.079161 0.10932
H_ H_ 0.333621 0.238744 0.0481563 0.10932
C_ C_ 0.0638779 0.343097 0.263168 -0.02249
C_ C_ 0.31689 0.352371 0.248852 -0.02249
C_ C_ 0.0195176 0.46075 0.268326 -0.02249
C_ C_ 0.263431 0.462796 0.247013 -0.02249
C_ C_ 0.0377054 0.40183 0.227721 -0.11473
C_ C_ 0.292756 0.408761 0.208967 -0.11473
C_ C_ 0.0644494 0.365295 0.301216 -0.11473
C_ C_ 0.304135 0.366789 0.285532 -0.11473
C_ C_ 0.0497488 0.36264 0.226476 -0.11473
C_ C_ 0.308451 0.371722 0.210953 -0.11473
C_ C_ 0.0353956 0.422496 0.266016 -0.02249
C_ C_ 0.281361 0.424504 0.247009 -0.02249
C_ C_ 0.08361 0.305145 0.261476 0.6875
C_ C_ 0.335421 0.313912 0.249137 0.6875
C_ C_ 0.048861 0.404358 0.303419 -0.11473
C_ C_ 0.289709 0.404796 0.285445 -0.11473
C_ C_ 0.181975 0.345465 0.254998 -0.02249
C_ C_ 0.436019 0.341837 0.253155 -0.02249
C_ C_ 0.231088 0.461017 0.249503 -0.02249
C_ C_ 0.483236 0.456719 0.254846 -0.02249
C_ C_ 0.212979 0.397303 0.290776 -0.11473
C_ C_ 0.461546 0.395986 0.289915 -0.11473
C_ C_ 0.187153 0.366567 0.216527 -0.11473
C_ C_ 0.441733 0.362517 0.214006 -0.11473
C_ C_ 0.19654 0.360078 0.2924 -0.11473
C_ C_ 0.444715 0.360332 0.290784 -0.11473
C_ C_ 0.213934 0.420468 0.253511 -0.02249
C_ C_ 0.465823 0.417955 0.252602 -0.02249
C_ C_ 0.162301 0.306704 0.255643 0.6875
C_ C_ 0.418398 0.302139 0.25149 0.6875
C_ C_ 0.201954 0.403116 0.216153 -0.11473
C_ C_ 0.459286 0.398864 0.213679 -0.11473
C_ C_ 0.185088 0.148524 0.248486 -0.02249
C_ C_ 0.42644 0.148383 0.238922 -0.02249
C_ C_ 0.236561 0.035362 0.234626 -0.02249
C_ C_ 0.478261 0.0351291 0.236009 -0.02249
C_ C_ 0.216059 0.0935677 0.278936 -0.11473
C_ C_ 0.448495 0.0883331 0.274426 -0.11473
C_ C_ 0.190975 0.132113 0.209313 -0.11473
C_ C_ 0.435776 0.132463 0.200912 -0.11473
C_ C_ 0.195871 0.125614 0.285214 -0.11473
C_ C_ 0.434841 0.127268 0.275766 -0.11473
C_ C_ 0.218316 0.0739149 0.239051 -0.02249
C_ C_ 0.45817 0.072036 0.236087 -0.02249
C_ C_ 0.166747 0.188103 0.252712 0.6875
C_ C_ 0.409998 0.187786 0.240606 0.6875
C_ C_ 0.208833 0.0967039 0.203978 -0.11473
C_ C_ 0.453129 0.0960151 0.199109 -0.11473
C_ C_ 0.0642508 0.150105 0.253573 -0.02249
C_ C_ 0.315716 0.15461 0.239324 -0.02249
C_ C_ 0.012276 0.0350161 0.248688 -0.02249
C_ C_ 0.269141 0.037084 0.238467 -0.02249
C_ C_ 0.0383187 0.0964633 0.214428 -0.11473
C_ C_ 0.292156 0.0969641 0.201661 -0.11473
C_ C_ 0.0547262 0.131289 0.291077 -0.11473
C_ C_ 0.303397 0.139649 0.276349 -0.11473
C_ C_ 0.0536369 0.134694 0.215744 -0.11473
C_ C_ 0.309118 0.134284 0.200278 -0.11473
C_ C_ 0.0278065 0.0768542 0.25093 -0.02249
C_ C_ 0.283606 0.0785973 0.239985 -0.02249
C_ C_ 0.0832277 0.188268 0.25567 0.6875
C_ C_ 0.334121 0.193915 0.240106 0.6875
C_ C_ 0.0374728 0.0947816 0.290522 -0.11473
C_ C_ 0.288824 0.100355 0.277917 -0.11473
C_ C_ 0.110662 0.221091 0.383196 0.17695
C_ C_ 0.386952 0.281535 0.37513 0.17695
C_ C_ 0.153414 0.265506 0.383664 0.17695
C_ C_ 0.374018 0.210833 0.374427 0.17695
C_ C_ 0.151771 0.269911 0.427438 -0.11473
C_ C_ 0.374775 0.21092 0.420006 -0.11473
C_ C_ 0.129736 0.250944 0.449515 0.23465
C_ C_ 0.385996 0.245824 0.441711 0.23465
C_ C_ 0.108661 0.226215 0.427613 -0.11473
C_ C_ 0.390795 0.28211 0.418497 -0.11473
C_ C_ 0.127213 0.291757 0.133634 0.17695
C_ C_ 0.349684 0.248281 0.113034 0.17695
C_ C_ 0.117366 0.219325 0.127071 0.17695
C_ C_ 0.401583 0.263232 0.122558 0.17695
C_ C_ 0.118193 0.222788 0.0837193 -0.11473
C_ C_ 0.406049 0.261494 0.078567 -0.11473
C_ C_ 0.12035 0.262351 0.064614 0.23465
C_ C_ 0.381657 0.25269 0.0512953 0.23465
C_ C_ 0.124358 0.297357 0.0911784 -0.11473
C_ C_ 0.352796 0.25001 0.0684825 -0.11473
C_ C_ 0.0324261 0.498873 0.255043 0.05793
C_ C_ 0.278039 0.501838 0.245057 0.05793
C_ C_ 0.221663 -0.003291000000000044 0.232587 0.05793
C_ C_ 0.464987 0.993339 0.236901 0.05793
Br Br 0.0741693 0.49846 0.240816 -0.17191
Br Br 0.321956 0.503087 0.242324 -0.17191
Br Br 0.180007 -0.0030160000000000187 0.220202 -0.17191
Br Br 0.420262 0.989024 0.243241 -0.17191
N_ N_ 0.131899 0.243132 0.362257 -0.272
N_ N_ 0.376492 0.24727 0.354243 -0.272
N_ N_ 0.126492 0.256374 0.493428 -0.12501
N_ N_ 0.388691 0.245705 0.486345 -0.12501
N_ N_ 0.121966 0.253039 0.150801 -0.272
N_ N_ 0.374102 0.257212 0.138511 -0.272
N_ N_ 0.117273 0.265625 0.0184679 -0.12501
N_ N_ 0.387045 0.250216 0.00715128 -0.12501
O_ O_ 0.0907296 0.2892 0.226722 -0.60745
O_ O_ 0.343324 0.298036 0.214155 -0.60745
O_ O_ 0.0989743 0.293415 0.293873 -0.60745
O_ O_ 0.345767 0.298444 0.282903 -0.60745
O_ O_ 0.158708 0.288201 0.290187 -0.60745
O_ O_ 0.406083 0.291263 0.285771 -0.60745
O_ O_ 0.155911 0.287651 0.221638 -0.60745
O_ O_ 0.407654 0.28818 0.217679 -0.60745
O_ O_ 0.160874 0.203317 0.289112 -0.60745
O_ O_ 0.403028 0.204865 0.275005 -0.60745
O_ O_ 0.154228 0.20143 0.220734 -0.60745
O_ O_ 0.401402 0.20387 0.205728 -0.60745
O_ O_ 0.0905188 0.207418 0.223366 -0.60745
O_ O_ 0.338323 0.214103 0.207733 -0.60745
O_ O_ 0.0956819 0.199116 0.289443 -0.60745
O_ O_ 0.344886 0.205608 0.274589 -0.60745
Zn Zn 0.133457 0.253107 0.79092 0.9476
Zn Zn 0.377777 0.255011 0.782169 0.9476
Zn Zn 0.131374 0.253937 0.721369 0.9476
Zn Zn 0.372073 0.251515 0.713682 0.9476
H_ H_ 0.024121 0.409099 0.694777 0.10932
H_ H_ 0.275877 0.423234 0.682485 0.10932
H_ H_ 0.0739493 0.356227 0.824239 0.10932
H_ H_ 0.342709 0.37939 0.800507 0.10932
H_ H_ 0.0556749 0.343608 0.688902 0.10932
H_ H_ 0.306116 0.357874 0.67797 0.10932
H_ H_ 0.0431057 0.419815 0.825631 0.10932
H_ H_ 0.307765 0.434819 0.810353 0.10932
H_ H_ 0.237457 0.41285 0.823734 0.10932
H_ H_ 0.484022 0.400718 0.808595 0.10932
H_ H_ 0.188449 0.358141 0.693858 0.10932
H_ H_ 0.419785 0.370786 0.682451 0.10932
H_ H_ 0.210119 0.344719 0.821107 0.10932
H_ H_ 0.457008 0.338427 0.803578 0.10932
H_ H_ 0.211803 0.425092 0.689804 0.10932
H_ H_ 0.444251 0.435534 0.689857 0.10932
H_ H_ 0.235714 0.0928817 0.818998 0.10932
H_ H_ 0.470988 0.0906552 0.818939 0.10932
H_ H_ 0.184252 0.149508 0.692717 0.10932
H_ H_ 0.413787 0.13356 0.691834 0.10932
H_ H_ 0.210785 0.159326 0.82668 0.10932
H_ H_ 0.446506 0.158703 0.815613 0.10932
H_ H_ 0.19805 0.0746552 0.693802 0.10932
H_ H_ 0.453939 0.0748372 0.685998 0.10932
H_ H_ 0.0341126 0.0895448 0.679849 0.10932
H_ H_ 0.26296 0.105543 0.69201 0.10932
H_ H_ 0.0708387 0.139942 0.818043 0.10932
H_ H_ 0.337882 0.131506 0.802261 0.10932
H_ H_ 0.0589045 0.158904 0.68731 0.10932
H_ H_ 0.295394 0.165747 0.686252 0.10932
H_ H_ 0.0416209 0.0790906 0.814106 0.10932
H_ H_ 0.30477 0.0690181 0.80733 0.10932
H_ H_ 0.132857 0.312994 0.86948 0.10932
H_ H_ 0.329408 0.275761 0.849404 0.10932
H_ H_ 0.131044 0.185049 0.860701 0.10932
H_ H_ 0.418925 0.245899 0.856454 0.10932
H_ H_ 0.126498 0.176243 0.936128 0.10932
H_ H_ 0.417917 0.247384 0.934665 0.10932
H_ H_ 0.133262 0.308722 0.948717 0.10932
H_ H_ 0.323965 0.271225 0.927886 0.10932
H_ H_ 0.116349 0.190734 0.650778 0.10932
H_ H_ 0.416431 0.245546 0.641946 0.10932
H_ H_ 0.148681 0.312094 0.649323 0.10932
H_ H_ 0.320656 0.252703 0.638964 0.10932
H_ H_ 0.147676 0.309973 0.570448 0.10932
H_ H_ 0.320107 0.250861 0.562521 0.10932
H_ H_ 0.12539 0.180072 0.574954 0.10932
H_ H_ 0.41592 0.238968 0.56389 0.10932
C_ C_ 0.0659581 0.34399 0.756072 -0.02249
C_ C_ 0.32259 0.358514 0.742411 -0.02249
C_ C_ 0.0178444 0.461207 0.758737 -0.02249
C_ C_ 0.268734 0.469248 0.753624 -0.02249
C_ C_ 0.0356676 0.396242 0.722685 -0.11473
C_ C_ 0.28717 0.409567 0.708487 -0.11473
C_ C_ 0.0624976 0.366339 0.795085 -0.11473
C_ C_ 0.324433 0.383709 0.778392 -0.11473
C_ C_ 0.0538722 0.360598 0.719902 -0.11473
C_ C_ 0.305293 0.372442 0.706666 -0.11473
C_ C_ 0.0341316 0.421032 0.759581 -0.02249
C_ C_ 0.286428 0.431561 0.746891 -0.02249
C_ C_ 0.0886201 0.309243 0.754666 0.6875
C_ C_ 0.340005 0.318008 0.744918 0.6875
C_ C_ 0.0451686 0.40217 0.797087 -0.11473
C_ C_ 0.304823 0.418392 0.781236 -0.11473
C_ C_ 0.193121 0.350739 0.75963 -0.02249
C_ C_ 0.433416 0.350989 0.746999 -0.02249
C_ C_ 0.237288 0.468381 0.759382 -0.02249
C_ C_ 0.481818 0.464289 0.748815 -0.02249
C_ C_ 0.221098 0.405312 0.796343 -0.11473
C_ C_ 0.467317 0.396042 0.781746 -0.11473
C_ C_ 0.199028 0.369096 0.722807 -0.11473
C_ C_ 0.431653 0.377308 0.712235 -0.11473
C_ C_ 0.205832 0.365491 0.797004 -0.11473
C_ C_ 0.451558 0.361478 0.780585 -0.11473
C_ C_ 0.223726 0.42778 0.757939 -0.02249
C_ C_ 0.464714 0.424761 0.749197 -0.02249
C_ C_ 0.173924 0.312127 0.759845 0.6875
C_ C_ 0.41546 0.311846 0.748074 0.6875
C_ C_ 0.209919 0.410937 0.722263 -0.11473
C_ C_ 0.44725 0.414534 0.713796 -0.11473
C_ C_ 0.193961 0.160814 0.758164 -0.02249
C_ C_ 0.431251 0.152659 0.752645 -0.02249
C_ C_ 0.235352 0.0406006 0.751194 -0.02249
C_ C_ 0.481988 0.0393987 0.752222 -0.02249
C_ C_ 0.221637 0.10529 0.792872 -0.11473
C_ C_ 0.461199 0.101566 0.78917 -0.11473
C_ C_ 0.193633 0.136435 0.721718 -0.11473
C_ C_ 0.431334 0.126993 0.716287 -0.11473
C_ C_ 0.208813 0.144619 0.795822 -0.11473
C_ C_ 0.446795 0.139123 0.786831 -0.11473
C_ C_ 0.217852 0.0796195 0.757387 -0.02249
C_ C_ 0.46334 0.076278 0.753438 -0.02249
C_ C_ 0.174526 0.19833 0.760267 0.6875
C_ C_ 0.41383 0.194182 0.75157 0.6875
C_ C_ 0.202255 0.0947615 0.722293 -0.11473
C_ C_ 0.448072 0.0902122 0.715515 -0.11473
C_ C_ 0.0728871 0.152621 0.750547 -0.02249
C_ C_ 0.316847 0.155719 0.748602 -0.02249
C_ C_ 0.0172225 0.0417719 0.743878 -0.02249
C_ C_ 0.267364 0.0404615 0.748312 -0.02249
C_ C_ 0.0428529 0.101625 0.710517 -0.11473
C_ C_ 0.282045 0.109383 0.713494 -0.11473
C_ C_ 0.0648226 0.130494 0.787196 -0.11473
C_ C_ 0.323252 0.125316 0.778543 -0.11473
C_ C_ 0.0598757 0.138699 0.713861 -0.11473
C_ C_ 0.29806 0.14597 0.714896 -0.11473
C_ C_ 0.0355589 0.0808442 0.747765 -0.02249
C_ C_ 0.285741 0.079586 0.744959 -0.02249
C_ C_ 0.0908964 0.191943 0.752238 0.6875
C_ C_ 0.335796 0.194754 0.745962 0.6875
C_ C_ 0.0455681 0.0953428 0.785597 -0.11473
C_ C_ 0.304391 0.0896901 0.779363 -0.11473
C_ C_ 0.134827 0.282562 0.885616 0.17695
C_ C_ 0.347725 0.267163 0.869689 0.17695
C_ C_ 0.13323 0.211172 0.881028 0.17695
C_ C_ 0.397872 0.245973 0.873562 0.17695
C_ C_ 0.13296 0.206642 0.924814 -0.11473
C_ C_ 0.397025 0.249792 0.91769 -0.11473
C_ C_ 0.128678 0.243595 0.950633 0.23465
C_ C_ 0.371628 0.264625 0.937868 0.23465
C_ C_ 0.135456 0.280841 0.930184 -0.11473
C_ C_ 0.345252 0.267405 0.913637 -0.11473
C_ C_ 0.128378 0.211838 0.634078 0.17695
C_ C_ 0.395282 0.247416 0.623095 0.17695
C_ C_ 0.142048 0.284059 0.63079 0.17695
C_ C_ 0.341812 0.251765 0.621861 0.17695
C_ C_ 0.141509 0.282375 0.586833 -0.11473
C_ C_ 0.341419 0.249977 0.577731 -0.11473
C_ C_ 0.13743 0.24382 0.565145 0.23465
C_ C_ 0.368456 0.252248 0.554508 0.23465
C_ C_ 0.13041 0.208252 0.590613 -0.11473
C_ C_ 0.394421 0.245087 0.579113 -0.11473
C_ C_ 0.0327986 0.500183 0.761839 0.05793
C_ C_ 0.282047 0.508895 0.75055 0.05793
C_ C_ 0.218791 0.00290434 0.749622 0.05793
C_ C_ 0.467167 0.99927 0.756344 0.05793
Br Br 0.075194 0.499031 0.767746 -0.17191
Br Br 0.325352 0.514074 0.747193 -0.17191
Br Br 0.175643 0.00350942 0.753552 -0.17191
Br Br 0.425624 0.996577 0.768661 -0.17191
N_ N_ 0.130319 0.24816 0.862788 -0.272
N_ N_ 0.373486 0.253887 0.850405 -0.272
N_ N_ 0.129888 0.239729 0.995651 -0.12501
N_ N_ 0.369689 0.268438 0.981717 -0.12501
N_ N_ 0.134281 0.249716 0.653238 -0.272
N_ N_ 0.36897 0.253715 0.643579 -0.272
N_ N_ 0.14383 0.241755 0.521202 -0.12501
N_ N_ 0.366572 0.246792 0.510063 -0.12501
O_ O_ 0.103507 0.303132 0.720545 -0.60745
O_ O_ 0.337597 0.291184 0.715124 -0.60745
O_ O_ 0.0983 0.290938 0.789156 -0.60745
O_ O_ 0.351445 0.306247 0.780686 -0.60745
O_ O_ 0.163855 0.29837 0.795408 -0.60745
O_ O_ 0.412498 0.293223 0.782188 -0.60745
O_ O_ 0.163986 0.29642 0.726048 -0.60745
O_ O_ 0.400037 0.300757 0.715858 -0.60745
O_ O_ 0.170002 0.216897 0.793983 -0.60745
O_ O_ 0.405814 0.209114 0.783889 -0.60745
O_ O_ 0.162078 0.210695 0.727374 -0.60745
O_ O_ 0.40425 0.20924 0.716603 -0.60745
O_ O_ 0.0977175 0.21118 0.718424 -0.60745
O_ O_ 0.347108 0.205347 0.712287 -0.60745
O_ O_ 0.10512 0.202648 0.785936 -0.60745
O_ O_ 0.342864 0.214926 0.777515 -0.60745
Zn Zn 0.123428 0.753682 0.287698 0.9476
Zn Zn 0.377482 0.746141 0.282837 0.9476
Zn Zn 0.124474 0.750458 0.218121 0.9476
Zn Zn 0.378242 0.742341 0.211036 0.9476
H_ H_ 0.0253227 0.914908 0.180245 0.10932
H_ H_ 0.308207 0.929217 0.178915 0.10932
H_ H_ 0.0675702 0.862089 0.317597 0.10932
H_ H_ 0.300946 0.835212 0.302063 0.10932
H_ H_ 0.0460437 0.839007 0.184055 0.10932
H_ H_ 0.343935 0.870037 0.185095 0.10932
H_ H_ 0.0360855 0.91996 0.314807 0.10932
H_ H_ 0.271947 0.898346 0.29919 0.10932
H_ H_ 0.207551 0.930562 0.300876 0.10932
H_ H_ 0.461615 0.921109 0.300772 0.10932
H_ H_ 0.201446 0.832375 0.182832 0.10932
H_ H_ 0.446376 0.838689 0.171393 0.10932
H_ H_ 0.18314 0.865528 0.307659 0.10932
H_ H_ 0.434683 0.85258 0.304101 0.10932
H_ H_ 0.23002 0.901333 0.175056 0.10932
H_ H_ 0.472122 0.902525 0.169427 0.10932
H_ H_ 0.205583 0.571823 0.316581 0.10932
H_ H_ 0.47025 0.580099 0.317289 0.10932
H_ H_ 0.19362 0.656881 0.188581 0.10932
H_ H_ 0.423097 0.627848 0.183641 0.10932
H_ H_ 0.185707 0.64692 0.320472 0.10932
H_ H_ 0.44331 0.64633 0.313824 0.10932
H_ H_ 0.208133 0.586052 0.182226 0.10932
H_ H_ 0.45705 0.566168 0.182739 0.10932
H_ H_ 0.0318524 0.582184 0.190086 0.10932
H_ H_ 0.281217 0.579409 0.178043 0.10932
H_ H_ 0.0637307 0.646973 0.325288 0.10932
H_ H_ 0.308852 0.652284 0.311195 0.10932
H_ H_ 0.0573456 0.648329 0.191425 0.10932
H_ H_ 0.309455 0.650553 0.178691 0.10932
H_ H_ 0.0365408 0.579911 0.325106 0.10932
H_ H_ 0.275766 0.59065 0.309998 0.10932
H_ H_ 0.14326 0.817612 0.358965 0.10932
H_ H_ 0.369567 0.679796 0.364531 0.10932
H_ H_ 0.108371 0.692551 0.364092 0.10932
H_ H_ 0.383662 0.807481 0.348579 0.10932
H_ H_ 0.106504 0.697068 0.441711 0.10932
H_ H_ 0.37377 0.817464 0.425468 0.10932
H_ H_ 0.140249 0.821375 0.435267 0.10932
H_ H_ 0.371261 0.688286 0.443814 0.10932
H_ H_ 0.116115 0.69225 0.147757 0.10932
H_ H_ 0.384439 0.805573 0.134031 0.10932
H_ H_ 0.126796 0.816417 0.141697 0.10932
H_ H_ 0.379948 0.677172 0.144145 0.10932
H_ H_ 0.126328 0.816558 0.0636501 0.10932
H_ H_ 0.364515 0.671087 0.0665854 0.10932
H_ H_ 0.120911 0.683453 0.0668461 0.10932
H_ H_ 0.383045 0.798561 0.0530447 0.10932
C_ C_ 0.0616546 0.845191 0.251121 -0.02249
C_ C_ 0.323473 0.845979 0.240503 -0.02249
C_ C_ 0.0123303 0.959434 0.244946 -0.02249
C_ C_ 0.270574 0.961544 0.239451 -0.02249
C_ C_ 0.0329473 0.89682 0.210508 -0.11473
C_ C_ 0.311245 0.914804 0.209436 -0.11473
C_ C_ 0.0553805 0.866591 0.287227 -0.11473
C_ C_ 0.302582 0.855619 0.273814 -0.11473
C_ C_ 0.0481431 0.859399 0.211957 -0.11473
C_ C_ 0.328801 0.877288 0.210238 -0.11473
C_ C_ 0.0296086 0.91933 0.247049 -0.02249
C_ C_ 0.290154 0.922402 0.240691 -0.02249
C_ C_ 0.0829199 0.810313 0.252197 0.6875
C_ C_ 0.340354 0.806 0.24237 0.6875
C_ C_ 0.0388943 0.902691 0.285148 -0.11473
C_ C_ 0.287315 0.892852 0.273009 -0.11473
C_ C_ 0.18494 0.848389 0.243677 -0.02249
C_ C_ 0.441005 0.836846 0.240778 -0.02249
C_ C_ 0.238381 0.959636 0.234334 -0.02249
C_ C_ 0.482202 0.956714 0.233733 -0.02249
C_ C_ 0.207723 0.908747 0.275455 -0.11473
C_ C_ 0.458714 0.900197 0.274421 -0.11473
C_ C_ 0.200469 0.856286 0.205625 -0.11473
C_ C_ 0.45043 0.853553 0.201732 -0.11473
C_ C_ 0.194332 0.871444 0.278741 -0.11473
C_ C_ 0.445787 0.860572 0.276661 -0.11473
C_ C_ 0.220887 0.918994 0.23661 -0.02249
C_ C_ 0.469034 0.915202 0.236351 -0.02249
C_ C_ 0.163858 0.812165 0.246337 0.6875
C_ C_ 0.419281 0.8009 0.243109 0.6875
C_ C_ 0.217529 0.893221 0.201821 -0.11473
C_ C_ 0.464398 0.892397 0.199951 -0.11473
C_ C_ 0.182827 0.653945 0.253638 -0.02249
C_ C_ 0.430623 0.643402 0.24729 -0.02249
C_ C_ 0.22981 0.537641 0.247729 -0.02249
C_ C_ 0.482351 0.532273 0.252804 -0.02249
C_ C_ 0.201687 0.591427 0.289211 -0.11473
C_ C_ 0.459357 0.590119 0.287752 -0.11473
C_ C_ 0.191156 0.63743 0.216015 -0.11473
C_ C_ 0.434687 0.618861 0.210966 -0.11473
C_ C_ 0.189658 0.632908 0.290735 -0.11473
C_ C_ 0.443639 0.628517 0.285044 -0.11473
C_ C_ 0.21271 0.577073 0.251233 -0.02249
C_ C_ 0.46499 0.568845 0.25101 -0.02249
C_ C_ 0.164524 0.693136 0.254244 0.6875
C_ C_ 0.414147 0.68237 0.24501 0.6875
C_ C_ 0.204959 0.598001 0.214346 -0.11473
C_ C_ 0.452644 0.583107 0.212548 -0.11473
C_ C_ 0.0661152 0.649589 0.258016 -0.02249
C_ C_ 0.315269 0.652979 0.243186 -0.02249
C_ C_ 0.0154105 0.53681 0.253815 -0.02249
C_ C_ 0.26116 0.538802 0.245487 -0.02249
C_ C_ 0.0387436 0.596422 0.219574 -0.11473
C_ C_ 0.288535 0.595455 0.207868 -0.11473
C_ C_ 0.0611305 0.629284 0.296416 -0.11473
C_ C_ 0.303292 0.637423 0.2808 -0.11473
C_ C_ 0.0570903 0.630692 0.220422 -0.11473
C_ C_ 0.306864 0.631955 0.205784 -0.11473
C_ C_ 0.0319447 0.575605 0.257218 -0.02249
C_ C_ 0.277663 0.580589 0.244888 -0.02249
C_ C_ 0.0820846 0.6895 0.255041 0.6875
C_ C_ 0.335494 0.690033 0.242656 0.6875
C_ C_ 0.0445425 0.592902 0.295715 -0.11473
C_ C_ 0.285913 0.601114 0.281603 -0.11473
C_ C_ 0.134618 0.791896 0.377725 0.17695
C_ C_ 0.374951 0.709384 0.378245 0.17695
C_ C_ 0.115653 0.721479 0.380843 0.17695
C_ C_ 0.381125 0.782121 0.369254 0.17695
C_ C_ 0.115299 0.723624 0.425979 -0.11473
C_ C_ 0.376541 0.788433 0.413111 -0.11473
C_ C_ 0.125703 0.759102 0.446191 0.23465
C_ C_ 0.371089 0.7554 0.439274 0.23465
C_ C_ 0.136819 0.79231 0.420516 -0.11473
C_ C_ 0.373281 0.715124 0.422493 -0.11473
C_ C_ 0.120386 0.717384 0.128483 0.17695
C_ C_ 0.382129 0.776635 0.118928 0.17695
C_ C_ 0.129754 0.78916 0.125283 0.17695
C_ C_ 0.377639 0.704877 0.124549 0.17695
C_ C_ 0.126166 0.787952 0.0809187 -0.11473
C_ C_ 0.373752 0.700274 0.0805949 -0.11473
C_ C_ 0.123433 0.750108 0.0617414 0.23465
C_ C_ 0.378243 0.733731 0.0545854 0.23465
C_ C_ 0.12063 0.713964 0.0851256 -0.11473
C_ C_ 0.380914 0.772551 0.0738126 -0.11473
C_ C_ 0.0287364 0.99705646 0.252569 0.05793
C_ C_ 0.285921 0.999881521 0.239135 0.05793
C_ C_ 0.2139 0.498156 0.252017 0.05793
C_ C_ 0.46713 0.493522 0.255556 0.05793
Br Br 0.071826 0.00140266 0.255226 -0.17191
Br Br 0.328415 1.00327289 0.248492 -0.17191
Br Br 0.171161 0.496165 0.257559 -0.17191
Br Br 0.423448 0.494053 0.249551 -0.17191
N_ N_ 0.126563 0.754737 0.356996 -0.272
N_ N_ 0.380078 0.742819 0.352973 -0.272
N_ N_ 0.125055 0.764227 0.490951 -0.12501
N_ N_ 0.370215 0.762939 0.4834 -0.12501
N_ N_ 0.124617 0.753486 0.146991 -0.272
N_ N_ 0.380168 0.742401 0.142638 -0.272
N_ N_ 0.124803 0.746922 0.0153294 -0.12501
N_ N_ 0.378016 0.727575 0.00966284 -0.12501
O_ O_ 0.0918235 0.795596 0.217848 -0.60745
O_ O_ 0.352075 0.791014 0.208324 -0.60745
O_ O_ 0.0935453 0.797059 0.286804 -0.60745
O_ O_ 0.345335 0.788509 0.278813 -0.60745
O_ O_ 0.155237 0.798775 0.281462 -0.60745
O_ O_ 0.406977 0.789484 0.277464 -0.60745
O_ O_ 0.155539 0.794784 0.212671 -0.60745
O_ O_ 0.41143 0.78343 0.210299 -0.60745
O_ O_ 0.156957 0.709382 0.289128 -0.60745
O_ O_ 0.409077 0.702849 0.277817 -0.60745
O_ O_ 0.156074 0.71 0.219796 -0.60745
O_ O_ 0.404295 0.694518 0.210049 -0.60745
O_ O_ 0.0920121 0.702595 0.221507 -0.60745
O_ O_ 0.343256 0.706944 0.209226 -0.60745
O_ O_ 0.0915479 0.708604 0.288138 -0.60745
O_ O_ 0.346747 0.70233 0.277945 -0.60745
Zn Zn 0.126278 0.756212 0.785976 0.9476
Zn Zn 0.374038 0.752096 0.785862 0.9476
Zn Zn 0.123859 0.749406 0.71671 0.9476
Zn Zn 0.376611 0.752665 0.71413 0.9476
H_ H_ 0.0408356 0.923402 0.671158 0.10932
H_ H_ 0.264763 0.904873 0.680795 0.10932
H_ H_ 0.0599664 0.856203 0.809201 0.10932
H_ H_ 0.333907 0.875436 0.801759 0.10932
H_ H_ 0.0695462 0.860816 0.670332 0.10932
H_ H_ 0.298664 0.844025 0.678569 0.10932
H_ H_ 0.0401615 0.926115 0.802975 0.10932
H_ H_ 0.308701 0.943207 0.795178 0.10932
H_ H_ 0.229627 0.910612 0.808263 0.10932
H_ H_ 0.465221 0.918078 0.824328 0.10932
H_ H_ 0.172815 0.865269 0.682317 0.10932
H_ H_ 0.444466 0.844672 0.686996 0.10932
H_ H_ 0.202105 0.845406 0.811109 0.10932
H_ H_ 0.429786 0.858571 0.819385 0.10932
H_ H_ 0.198558 0.93219 0.68622 0.10932
H_ H_ 0.469927 0.910357 0.684533 0.10932
H_ H_ 0.206638 0.584256 0.828497 0.10932
H_ H_ 0.470482 0.588428 0.824962 0.10932
H_ H_ 0.191055 0.65481 0.692093 0.10932
H_ H_ 0.428174 0.639861 0.690549 0.10932
H_ H_ 0.187107 0.654538 0.82986 0.10932
H_ H_ 0.431346 0.643903 0.820173 0.10932
H_ H_ 0.217875 0.592346 0.694407 0.10932
H_ H_ 0.461416 0.58163 0.689287 0.10932
H_ H_ 0.0486169 0.563764 0.694088 0.10932
H_ H_ 0.280895 0.592189 0.687057 0.10932
H_ H_ 0.0480944 0.661293 0.817482 0.10932
H_ H_ 0.314206 0.655875 0.820295 0.10932
H_ H_ 0.0769496 0.634886 0.686974 0.10932
H_ H_ 0.302932 0.661604 0.686498 0.10932
H_ H_ 0.0269159 0.594652 0.82237 0.10932
H_ H_ 0.285232 0.592706 0.822449 0.10932
H_ H_ 0.121432 0.824752 0.85103 0.10932
H_ H_ 0.389157 0.817377 0.859239 0.10932
H_ H_ 0.121665 0.694152 0.869409 0.10932
H_ H_ 0.366431 0.692769 0.85688 0.10932
H_ H_ 0.119977 0.701254 0.946469 0.10932
H_ H_ 0.368998 0.689319 0.932249 0.10932
H_ H_ 0.127346 0.834597 0.929503 0.10932
H_ H_ 0.393795 0.816809 0.934756 0.10932
H_ H_ 0.116861 0.681359 0.649035 0.10932
H_ H_ 0.383151 0.812253 0.632761 0.10932
H_ H_ 0.127304 0.809104 0.640385 0.10932
H_ H_ 0.364447 0.683713 0.641914 0.10932
H_ H_ 0.125095 0.806564 0.564653 0.10932
H_ H_ 0.37145 0.675215 0.566206 0.10932
H_ H_ 0.121379 0.675035 0.572715 0.10932
H_ H_ 0.377425 0.80556 0.555652 0.10932
C_ C_ 0.0676916 0.852236 0.738383 -0.02249
C_ C_ 0.318544 0.854483 0.741023 -0.02249
C_ C_ 0.0168323 0.967073 0.73566 -0.02249
C_ C_ 0.26568 0.964884 0.741519 -0.02249
C_ C_ 0.0487647 0.911728 0.700408 -0.11473
C_ C_ 0.281928 0.898525 0.705772 -0.11473
C_ C_ 0.0569244 0.870936 0.776512 -0.11473
C_ C_ 0.317883 0.880229 0.776033 -0.11473
C_ C_ 0.0630598 0.872182 0.699741 -0.11473
C_ C_ 0.297897 0.86091 0.706346 -0.11473
C_ C_ 0.0352872 0.92802 0.737714 -0.02249
C_ C_ 0.28304 0.926732 0.74067 -0.02249
C_ C_ 0.0872941 0.814107 0.74206 0.6875
C_ C_ 0.3394 0.816971 0.741366 0.6875
C_ C_ 0.0424457 0.908925 0.774847 -0.11473
C_ C_ 0.301676 0.916854 0.776254 -0.11473
C_ C_ 0.185033 0.847827 0.745593 -0.02249
C_ C_ 0.436848 0.845724 0.753207 -0.02249
C_ C_ 0.2344 0.964441 0.745143 -0.02249
C_ C_ 0.484995 0.962587 0.752408 -0.02249
C_ C_ 0.216341 0.900835 0.781814 -0.11473
C_ C_ 0.463813 0.901004 0.794348 -0.11473
C_ C_ 0.187973 0.872502 0.707849 -0.11473
C_ C_ 0.447231 0.862845 0.717112 -0.11473
C_ C_ 0.199366 0.864014 0.781528 -0.11473
C_ C_ 0.443113 0.865905 0.792204 -0.11473
C_ C_ 0.216852 0.923961 0.744661 -0.02249
C_ C_ 0.467998 0.921663 0.754798 -0.02249
C_ C_ 0.164428 0.811084 0.746146 0.6875
C_ C_ 0.415111 0.811635 0.751594 0.6875
C_ C_ 0.203495 0.909771 0.70905 -0.11473
C_ C_ 0.463481 0.89998 0.716633 -0.11473
C_ C_ 0.184601 0.658969 0.759384 -0.02249
C_ C_ 0.43228 0.654285 0.755491 -0.02249
C_ C_ 0.234819 0.544296 0.759747 -0.02249
C_ C_ 0.484458 0.539979 0.755113 -0.02249
C_ C_ 0.20451 0.599626 0.798074 -0.11473
C_ C_ 0.464501 0.603345 0.794424 -0.11473
C_ C_ 0.192906 0.638333 0.721068 -0.11473
C_ C_ 0.439335 0.633528 0.718194 -0.11473
C_ C_ 0.192659 0.6402 0.798067 -0.11473
C_ C_ 0.442841 0.636888 0.792647 -0.11473
C_ C_ 0.216956 0.582819 0.761696 -0.02249
C_ C_ 0.468078 0.580021 0.756986 -0.02249
C_ C_ 0.164555 0.696654 0.7568 0.6875
C_ C_ 0.411653 0.691189 0.75527 0.6875
C_ C_ 0.208092 0.601312 0.72297 -0.11473
C_ C_ 0.458428 0.597429 0.718642 -0.11473
C_ C_ 0.0661748 0.652939 0.752329 -0.02249
C_ C_ 0.310701 0.665743 0.754019 -0.02249
C_ C_ 0.0171007 0.537629 0.756914 -0.02249
C_ C_ 0.265785 0.546335 0.753038 -0.02249
C_ C_ 0.050753 0.587008 0.72156 -0.11473
C_ C_ 0.288346 0.60571 0.716728 -0.11473
C_ C_ 0.0510905 0.641198 0.790677 -0.11473
C_ C_ 0.303778 0.645801 0.792114 -0.11473
C_ C_ 0.0638956 0.627077 0.716198 -0.11473
C_ C_ 0.298653 0.647558 0.717046 -0.11473
C_ C_ 0.0339471 0.578637 0.757071 -0.02249
C_ C_ 0.281553 0.586339 0.754322 -0.02249
C_ C_ 0.0834912 0.692065 0.751657 0.6875
C_ C_ 0.334068 0.697809 0.751709 0.6875
C_ C_ 0.0353234 0.603292 0.792702 -0.11473
C_ C_ 0.289544 0.606026 0.791965 -0.11473
C_ C_ 0.122162 0.798042 0.873123 0.17695
C_ C_ 0.382703 0.790632 0.875416 0.17695
C_ C_ 0.122573 0.724889 0.882487 0.17695
C_ C_ 0.372577 0.719472 0.874317 0.17695
C_ C_ 0.119005 0.730332 0.925151 -0.11473
C_ C_ 0.373895 0.717571 0.917263 -0.11473
C_ C_ 0.122514 0.770321 0.944523 0.23465
C_ C_ 0.381328 0.752176 0.940688 0.23465
C_ C_ 0.120191 0.805293 0.916024 -0.11473
C_ C_ 0.385621 0.790273 0.918399 -0.11473
C_ C_ 0.118777 0.708914 0.630029 0.17695
C_ C_ 0.380847 0.782235 0.617763 0.17695
C_ C_ 0.12256 0.780443 0.624664 0.17695
C_ C_ 0.373512 0.709846 0.62331 0.17695
C_ C_ 0.121888 0.778653 0.581953 -0.11473
C_ C_ 0.372086 0.706187 0.578748 -0.11473
C_ C_ 0.120726 0.739956 0.560722 0.23465
C_ C_ 0.373087 0.741083 0.554028 0.23465
C_ C_ 0.118701 0.70495 0.586372 -0.11473
C_ C_ 0.378114 0.779647 0.573859 -0.11473
C_ C_ 0.0325303 0.00423175 0.737486 0.05793
C_ C_ 0.281058 0.00295458 0.735849 0.05793
C_ C_ 0.220185 0.50495 0.76443 0.05793
C_ C_ 0.467979 0.503794 0.752398 0.05793
Br Br 0.0761817 0.00269553 0.741673 -0.17191
Br Br 0.320678 -0.002210999999999963 0.71384 -0.17191
Br Br 0.177761 0.504717 0.770302 -0.17191
Br Br 0.423701 0.504299 0.760375 -0.17191
N_ N_ 0.123572 0.759136 0.856631 -0.272
N_ N_ 0.373796 0.756839 0.854889 -0.272
N_ N_ 0.122868 0.775927 0.989515 -0.12501
N_ N_ 0.377116 0.756362 0.98451 -0.12501
N_ N_ 0.120556 0.746481 0.647753 -0.272
N_ N_ 0.377393 0.747841 0.642718 -0.272
N_ N_ 0.119607 0.734677 0.514057 -0.12501
N_ N_ 0.371342 0.734389 0.510271 -0.12501
O_ O_ 0.0923485 0.792834 0.710104 -0.60745
O_ O_ 0.347139 0.79977 0.708358 -0.60745
O_ O_ 0.0974878 0.80319 0.776751 -0.60745
O_ O_ 0.347664 0.800486 0.776002 -0.60745
O_ O_ 0.158439 0.795008 0.779881 -0.60745
O_ O_ 0.405745 0.796232 0.785664 -0.60745
O_ O_ 0.153843 0.796757 0.711576 -0.60745
O_ O_ 0.411436 0.793446 0.716363 -0.60745
O_ O_ 0.154984 0.713006 0.79114 -0.60745
O_ O_ 0.400951 0.704861 0.788729 -0.60745
O_ O_ 0.157827 0.712413 0.722042 -0.60745
O_ O_ 0.405322 0.708617 0.721365 -0.60745
O_ O_ 0.0951916 0.704215 0.717901 -0.60745
O_ O_ 0.342423 0.710829 0.716243 -0.60745
O_ O_ 0.0916215 0.709322 0.784832 -0.60745
O_ O_ 0.340248 0.71772 0.784856 -0.60745
Zn Zn 0.622198 0.242936 0.288606 0.9476
Zn Zn 0.874785 0.248833 0.295955 0.9476
Zn Zn 0.623344 0.246523 0.217649 0.9476
Zn Zn 0.871803 0.249844 0.224725 0.9476
H_ H_ 0.533302 0.416941 0.183013 0.10932
H_ H_ 0.785907 0.41753 0.199987 0.10932
H_ H_ 0.550269 0.337775 0.31701 0.10932
H_ H_ 0.812442 0.349058 0.332493 0.10932
H_ H_ 0.567233 0.355429 0.182291 0.10932
H_ H_ 0.818387 0.360575 0.197353 0.10932
H_ H_ 0.518916 0.401049 0.315767 0.10932
H_ H_ 0.777504 0.410951 0.3339 0.10932
H_ H_ 0.697395 0.421812 0.327674 0.10932
H_ H_ 0.968424 0.407201 0.33769 0.10932
H_ H_ 0.684781 0.350165 0.191153 0.10932
H_ H_ 0.933985 0.363736 0.196483 0.10932
H_ H_ 0.66896 0.357003 0.324389 0.10932
H_ H_ 0.935648 0.350728 0.334325 0.10932
H_ H_ 0.718374 0.409686 0.197527 0.10932
H_ H_ 0.96376 0.426655 0.204956 0.10932
H_ H_ 0.724523 0.0759765 0.319116 0.10932
H_ H_ 0.95136 0.0668164 0.313063 0.10932
H_ H_ 0.688416 0.145669 0.187935 0.10932
H_ H_ 0.942562 0.161032 0.189035 0.10932
H_ H_ 0.691801 0.139811 0.323928 0.10932
H_ H_ 0.924515 0.131167 0.319546 0.10932
H_ H_ 0.716452 0.0822089 0.184652 0.10932
H_ H_ 0.971584 0.0929876 0.184782 0.10932
H_ H_ 0.531085 0.0863672 0.172742 0.10932
H_ H_ 0.791139 0.0810423 0.187923 0.10932
H_ H_ 0.555398 0.14355 0.314354 0.10932
H_ H_ 0.815796 0.136939 0.328895 0.10932
H_ H_ 0.558342 0.151323 0.181186 0.10932
H_ H_ 0.808691 0.151545 0.192458 0.10932
H_ H_ 0.524087 0.0837004 0.309193 0.10932
H_ H_ 0.794346 0.0678849 0.320959 0.10932
H_ H_ 0.625961 0.178472 0.357767 0.10932
H_ H_ 0.871673 0.18266 0.365949 0.10932
H_ H_ 0.620344 0.30942 0.366009 0.10932
H_ H_ 0.884293 0.313019 0.36842 0.10932
H_ H_ 0.621288 0.307238 0.438633 0.10932
H_ H_ 0.891862 0.307781 0.448514 0.10932
H_ H_ 0.614646 0.173527 0.437948 0.10932
H_ H_ 0.872571 0.179423 0.443607 0.10932
H_ H_ 0.629985 0.171513 0.147742 0.10932
H_ H_ 0.87107 0.317078 0.154284 0.10932
H_ H_ 0.616845 0.302491 0.139857 0.10932
H_ H_ 0.86651 0.18588 0.143948 0.10932
H_ H_ 0.610135 0.3025 0.0639034 0.10932
H_ H_ 0.870572 0.192056 0.0675104 0.10932
H_ H_ 0.628326 0.168985 0.0690326 0.10932
H_ H_ 0.86449 0.323553 0.0754719 0.10932
C_ C_ 0.56459 0.343351 0.250974 -0.02249
C_ C_ 0.816888 0.346424 0.265396 -0.02249
C_ C_ 0.515622 0.457095 0.252815 -0.02249
C_ C_ 0.763279 0.457056 0.266545 -0.02249
C_ C_ 0.539323 0.400496 0.213828 -0.11473
C_ C_ 0.78955 0.402844 0.22884 -0.11473
C_ C_ 0.551396 0.357077 0.289872 -0.11473
C_ C_ 0.806104 0.363369 0.303864 -0.11473
C_ C_ 0.555056 0.363683 0.212285 -0.11473
C_ C_ 0.80665 0.365178 0.227289 -0.11473
C_ C_ 0.531739 0.418196 0.251839 -0.02249
C_ C_ 0.779707 0.417921 0.266926 -0.02249
C_ C_ 0.584142 0.304645 0.248694 0.6875
C_ C_ 0.835494 0.307749 0.265865 0.6875
C_ C_ 0.535734 0.394592 0.28941 -0.11473
C_ C_ 0.787922 0.399611 0.305878 -0.11473
C_ C_ 0.677029 0.345507 0.259059 -0.02249
C_ C_ 0.934664 0.345635 0.264358 -0.02249
C_ C_ 0.731337 0.457432 0.264671 -0.02249
C_ C_ 0.987884 0.460192 0.275347 -0.02249
C_ C_ 0.700061 0.401699 0.300389 -0.11473
C_ C_ 0.96591 0.394287 0.306469 -0.11473
C_ C_ 0.691649 0.361079 0.22274 -0.11473
C_ C_ 0.941783 0.369292 0.227154 -0.11473
C_ C_ 0.68179 0.366472 0.298054 -0.11473
C_ C_ 0.946048 0.360214 0.303835 -0.11473
C_ C_ 0.712994 0.419379 0.264184 -0.02249
C_ C_ 0.972562 0.418454 0.271528 -0.02249
C_ C_ 0.657159 0.308136 0.256304 0.6875
C_ C_ 0.915773 0.307982 0.260336 0.6875
C_ C_ 0.707961 0.398081 0.225374 -0.11473
C_ C_ 0.958651 0.406852 0.233192 -0.11473
C_ C_ 0.687258 0.150807 0.255893 -0.02249
C_ C_ 0.929243 0.149823 0.253352 -0.02249
C_ C_ 0.735935 0.0351365 0.249751 -0.02249
C_ C_ 0.979352 0.0348459 0.246448 -0.02249
C_ C_ 0.714944 0.0929487 0.290876 -0.11473
C_ C_ 0.949115 0.0871755 0.285737 -0.11473
C_ C_ 0.694114 0.132052 0.216859 -0.11473
C_ C_ 0.942612 0.136796 0.215345 -0.11473
C_ C_ 0.697823 0.129517 0.293992 -0.11473
C_ C_ 0.932774 0.123366 0.288975 -0.11473
C_ C_ 0.721037 0.0757754 0.251674 -0.02249
C_ C_ 0.962025 0.0748356 0.247968 -0.02249
C_ C_ 0.665024 0.185645 0.257495 0.6875
C_ C_ 0.912653 0.189849 0.2565 0.6875
C_ C_ 0.711036 0.0944176 0.215891 -0.11473
C_ C_ 0.960164 0.101076 0.212194 -0.11473
C_ C_ 0.565851 0.146583 0.248765 -0.02249
C_ C_ 0.815275 0.15142 0.260328 -0.02249
C_ C_ 0.510139 0.0374021 0.23564 -0.02249
C_ C_ 0.76803 0.0336794 0.248199 -0.02249
C_ C_ 0.534487 0.0997466 0.203947 -0.11473
C_ C_ 0.793259 0.0944745 0.217204 -0.11473
C_ C_ 0.552017 0.129127 0.28383 -0.11473
C_ C_ 0.810601 0.126914 0.296595 -0.11473
C_ C_ 0.554111 0.133777 0.208703 -0.11473
C_ C_ 0.805299 0.134562 0.220867 -0.11473
C_ C_ 0.525551 0.0784031 0.239778 -0.02249
C_ C_ 0.787948 0.0714818 0.253241 -0.02249
C_ C_ 0.583881 0.183125 0.252315 0.6875
C_ C_ 0.833198 0.191821 0.262361 0.6875
C_ C_ 0.531542 0.0959394 0.280664 -0.11473
C_ C_ 0.796939 0.0877827 0.292136 -0.11473
C_ C_ 0.618951 0.205988 0.376067 0.17695
C_ C_ 0.871837 0.210619 0.383587 0.17695
C_ C_ 0.620705 0.278721 0.382746 0.17695
C_ C_ 0.880815 0.283675 0.38628 0.17695
C_ C_ 0.623699 0.277423 0.42558 -0.11473
C_ C_ 0.887395 0.281233 0.4304 -0.11473
C_ C_ 0.618745 0.239363 0.446323 0.23465
C_ C_ 0.878539 0.246236 0.452096 0.23465
C_ C_ 0.61513 0.203498 0.420893 -0.11473
C_ C_ 0.872665 0.209409 0.429116 -0.11473
C_ C_ 0.6279 0.201122 0.127744 0.17695
C_ C_ 0.868577 0.290187 0.133296 0.17695
C_ C_ 0.617761 0.272556 0.12291 0.17695
C_ C_ 0.866095 0.216746 0.128693 0.17695
C_ C_ 0.615987 0.27227 0.0779411 -0.11473
C_ C_ 0.867517 0.21978 0.0848874 -0.11473
C_ C_ 0.622628 0.234395 0.0585659 0.23465
C_ C_ 0.868748 0.258378 0.064268 0.23465
C_ C_ 0.626982 0.199205 0.0835523 -0.11473
C_ C_ 0.868259 0.294138 0.0890462 -0.11473
C_ C_ 0.530213 0.495399 0.254444 0.05793
C_ C_ 0.778816 0.494672 0.267068 0.05793
C_ C_ 0.717707 0.997224 0.249961 0.05793
C_ C_ 0.963868 0.996698 0.244269 0.05793
Br Br 0.574638 0.499681 0.257577 -0.17191
Br Br 0.821866 0.491361 0.265202 -0.17191
Br Br 0.674624 0.00297526 0.242706 -0.17191
Br Br 0.92181 -0.0029730000000000034 0.228805 -0.17191
N_ N_ 0.622081 0.244027 0.35882 -0.272
N_ N_ 0.878278 0.246448 0.364091 -0.272
N_ N_ 0.612703 0.234914 0.489964 -0.12501
N_ N_ 0.879452 0.242398 0.496456 -0.12501
N_ N_ 0.622648 0.237368 0.146837 -0.272
N_ N_ 0.866614 0.251685 0.152145 -0.272
N_ N_ 0.618763 0.229068 0.0139006 -0.12501
N_ N_ 0.86568 0.261515 0.0197031 -0.12501
O_ O_ 0.594197 0.289949 0.214879 -0.60745
O_ O_ 0.840521 0.290405 0.231135 -0.60745
O_ O_ 0.59009 0.286003 0.282739 -0.60745
O_ O_ 0.844394 0.292883 0.298261 -0.60745
O_ O_ 0.648628 0.291217 0.288738 -0.60745
O_ O_ 0.904558 0.294285 0.294005 -0.60745
O_ O_ 0.655412 0.28958 0.220869 -0.60745
O_ O_ 0.904406 0.295252 0.225749 -0.60745
O_ O_ 0.660024 0.203805 0.292338 -0.60745
O_ O_ 0.903822 0.199738 0.29205 -0.60745
O_ O_ 0.652607 0.199902 0.22471 -0.60745
O_ O_ 0.903283 0.210774 0.224241 -0.60745
O_ O_ 0.593053 0.201854 0.220137 -0.60745
O_ O_ 0.839933 0.209367 0.229417 -0.60745
O_ O_ 0.592738 0.194827 0.288774 -0.60745
O_ O_ 0.844915 0.203766 0.298334 -0.60745
Zn Zn 0.622856 0.251051 0.788196 0.9476
Zn Zn 0.875189 0.251606 0.791415 0.9476
Zn Zn 0.625329 0.252006 0.71914 0.9476
Zn Zn 0.873441 0.255361 0.721203 0.9476
H_ H_ 0.51981 0.400068 0.692347 0.10932
H_ H_ 0.769875 0.404065 0.691334 0.10932
H_ H_ 0.575295 0.363834 0.819172 0.10932
H_ H_ 0.816074 0.363698 0.82553 0.10932
H_ H_ 0.550344 0.338987 0.691995 0.10932
H_ H_ 0.800015 0.343479 0.693297 0.10932
H_ H_ 0.551998 0.430665 0.81245 0.10932
H_ H_ 0.795319 0.43071 0.820857 0.10932
H_ H_ 0.72425 0.404634 0.821323 0.10932
H_ H_ 0.971664 0.413889 0.823128 0.10932
H_ H_ 0.670111 0.369333 0.689216 0.10932
H_ H_ 0.930577 0.358697 0.691187 0.10932
H_ H_ 0.682211 0.361641 0.823713 0.10932
H_ H_ 0.93664 0.355074 0.822349 0.10932
H_ H_ 0.701609 0.430466 0.689476 0.10932
H_ H_ 0.955179 0.425761 0.690936 0.10932
H_ H_ 0.706092 0.0729143 0.804089 0.10932
H_ H_ 0.981562 0.0962244 0.81287 0.10932
H_ H_ 0.693355 0.164418 0.681867 0.10932
H_ H_ 0.927475 0.144588 0.681377 0.10932
H_ H_ 0.682653 0.141688 0.812952 0.10932
H_ H_ 0.953596 0.162402 0.814452 0.10932
H_ H_ 0.723602 0.0985483 0.677412 0.10932
H_ H_ 0.959795 0.0830433 0.681126 0.10932
H_ H_ 0.527207 0.0907229 0.678423 0.10932
H_ H_ 0.787468 0.0821282 0.684709 0.10932
H_ H_ 0.569898 0.142176 0.814173 0.10932
H_ H_ 0.812862 0.148529 0.819448 0.10932
H_ H_ 0.550709 0.159354 0.680544 0.10932
H_ H_ 0.814337 0.147746 0.682953 0.10932
H_ H_ 0.545576 0.070757 0.809225 0.10932
H_ H_ 0.786368 0.0823253 0.81722 0.10932
H_ H_ 0.616418 0.313641 0.860756 0.10932
H_ H_ 0.925028 0.240476 0.864952 0.10932
H_ H_ 0.633147 0.186684 0.86071 0.10932
H_ H_ 0.83246 0.256862 0.869832 0.10932
H_ H_ 0.632536 0.181352 0.938414 0.10932
H_ H_ 0.834115 0.266403 0.945533 0.10932
H_ H_ 0.626422 0.315254 0.937591 0.10932
H_ H_ 0.930338 0.238444 0.93799 0.10932
H_ H_ 0.633373 0.316786 0.649982 0.10932
H_ H_ 0.859107 0.32371 0.654115 0.10932
H_ H_ 0.616601 0.188086 0.641177 0.10932
H_ H_ 0.886161 0.198696 0.640284 0.10932
H_ H_ 0.606093 0.195598 0.563967 0.10932
H_ H_ 0.875373 0.2016 0.567064 0.10932
H_ H_ 0.632011 0.323938 0.568476 0.10932
H_ H_ 0.855829 0.331266 0.578823 0.10932
C_ C_ 0.567328 0.34761 0.75459 -0.02249
C_ C_ 0.811926 0.348174 0.760096 -0.02249
C_ C_ 0.514256 0.462858 0.746328 -0.02249
C_ C_ 0.764567 0.46368 0.757064 -0.02249
C_ C_ 0.534581 0.395219 0.716749 -0.11473
C_ C_ 0.781329 0.398624 0.720086 -0.11473
C_ C_ 0.562714 0.372154 0.79083 -0.11473
C_ C_ 0.807868 0.37219 0.796163 -0.11473
C_ C_ 0.552054 0.360088 0.716907 -0.11473
C_ C_ 0.797988 0.361659 0.721632 -0.11473
C_ C_ 0.53155 0.421734 0.74976 -0.02249
C_ C_ 0.780522 0.423452 0.755351 -0.02249
C_ C_ 0.583032 0.30799 0.756439 0.6875
C_ C_ 0.834424 0.313242 0.758955 0.6875
C_ C_ 0.548217 0.410925 0.786571 -0.11473
C_ C_ 0.796713 0.411237 0.791614 -0.11473
C_ C_ 0.676194 0.354569 0.754475 -0.02249
C_ C_ 0.936911 0.349038 0.755512 -0.02249
C_ C_ 0.733615 0.464885 0.755243 -0.02249
C_ C_ 0.985567 0.462554 0.758464 -0.02249
C_ C_ 0.71314 0.398981 0.791837 -0.11473
C_ C_ 0.963068 0.401806 0.793009 -0.11473
C_ C_ 0.682982 0.376414 0.717296 -0.11473
C_ C_ 0.942244 0.368764 0.719247 -0.11473
C_ C_ 0.690272 0.369634 0.792943 -0.11473
C_ C_ 0.946365 0.366339 0.793857 -0.11473
C_ C_ 0.715772 0.423795 0.755653 -0.02249
C_ C_ 0.967672 0.424447 0.757294 -0.02249
C_ C_ 0.656956 0.31616 0.752888 0.6875
C_ C_ 0.915212 0.312779 0.756012 0.6875
C_ C_ 0.700286 0.41248 0.718918 -0.11473
C_ C_ 0.957504 0.407622 0.719652 -0.11473
C_ C_ 0.684992 0.156941 0.748183 -0.02249
C_ C_ 0.936778 0.158117 0.748005 -0.02249
C_ C_ 0.733489 0.0407974 0.740281 -0.02249
C_ C_ 0.985356 0.0429258 0.746422 -0.02249
C_ C_ 0.70654 0.0944227 0.777513 -0.11473
C_ C_ 0.969776 0.107009 0.782491 -0.11473
C_ C_ 0.696206 0.143708 0.708934 -0.11473
C_ C_ 0.940642 0.136177 0.710296 -0.11473
C_ C_ 0.691488 0.132517 0.781652 -0.11473
C_ C_ 0.952818 0.144416 0.784254 -0.11473
C_ C_ 0.717138 0.0813565 0.739104 -0.02249
C_ C_ 0.968575 0.0821369 0.747206 -0.02249
C_ C_ 0.665783 0.195032 0.75081 0.6875
C_ C_ 0.915561 0.193651 0.749953 0.6875
C_ C_ 0.713011 0.107251 0.705177 -0.11473
C_ C_ 0.956655 0.0999084 0.710555 -0.11473
C_ C_ 0.560714 0.155362 0.747692 -0.02249
C_ C_ 0.813884 0.156208 0.751194 -0.02249
C_ C_ 0.513302 0.0393717 0.741739 -0.02249
C_ C_ 0.765033 0.0413297 0.749787 -0.02249
C_ C_ 0.533437 0.103028 0.708529 -0.11473
C_ C_ 0.789362 0.10025 0.713251 -0.11473
C_ C_ 0.5593 0.129113 0.783745 -0.11473
C_ C_ 0.806371 0.136209 0.78899 -0.11473
C_ C_ 0.547429 0.142804 0.710402 -0.11473
C_ C_ 0.807535 0.134274 0.71288 -0.11473
C_ C_ 0.531835 0.0786659 0.744063 -0.02249
C_ C_ 0.780819 0.0814473 0.751166 -0.02249
C_ C_ 0.58157 0.191542 0.751316 0.6875
C_ C_ 0.833058 0.193846 0.754797 0.6875
C_ C_ 0.545654 0.0906993 0.7806 -0.11473
C_ C_ 0.790095 0.0984945 0.789206 -0.11473
C_ C_ 0.621365 0.286235 0.877755 0.17695
C_ C_ 0.906092 0.247986 0.881192 0.17695
C_ C_ 0.62487 0.212285 0.877954 0.17695
C_ C_ 0.853833 0.256581 0.884489 0.17695
C_ C_ 0.62701 0.210481 0.922073 -0.11473
C_ C_ 0.854949 0.260691 0.928433 -0.11473
C_ C_ 0.628826 0.247661 0.944638 0.23465
C_ C_ 0.883747 0.253236 0.949751 0.23465
C_ C_ 0.626231 0.286412 0.921874 -0.11473
C_ C_ 0.908527 0.245518 0.924241 -0.11473
C_ C_ 0.625329 0.290096 0.630303 0.17695
C_ C_ 0.863053 0.296959 0.634893 0.17695
C_ C_ 0.616931 0.218004 0.624357 0.17695
C_ C_ 0.878941 0.227217 0.627503 0.17695
C_ C_ 0.613206 0.221547 0.581035 -0.11473
C_ C_ 0.874406 0.229274 0.585381 -0.11473
C_ C_ 0.617093 0.258897 0.55995 0.23465
C_ C_ 0.868337 0.267219 0.56408 0.23465
C_ C_ 0.6259 0.293836 0.58515 -0.11473
C_ C_ 0.861454 0.301406 0.592286 -0.11473
C_ C_ 0.530818 0.500985 0.746477 0.05793
C_ C_ 0.781562 0.501439 0.752556 0.05793
C_ C_ 0.719591 0.00386645 0.730834 0.05793
C_ C_ 0.969367 0.00364761 0.739664 0.05793
Br Br 0.573512 0.49933 0.73684 -0.17191
Br Br 0.824022 0.500119 0.743666 -0.17191
Br Br 0.678628 0.00446844 0.712407 -0.17191
Br Br 0.925669 0.0061853 0.730899 -0.17191
N_ N_ 0.623696 0.249274 0.857266 -0.272
N_ N_ 0.879595 0.250562 0.861578 -0.272
N_ N_ 0.635494 0.248589 0.98915 -0.12501
N_ N_ 0.886332 0.249023 0.996074 -0.12501
N_ N_ 0.622529 0.252594 0.648587 -0.272
N_ N_ 0.869306 0.258748 0.6527 -0.272
N_ N_ 0.616541 0.264273 0.516468 -0.12501
N_ N_ 0.868907 0.270331 0.519805 -0.12501
O_ O_ 0.592804 0.292782 0.722786 -0.60745
O_ O_ 0.844177 0.30105 0.722911 -0.60745
O_ O_ 0.588999 0.291032 0.790755 -0.60745
O_ O_ 0.843824 0.294394 0.792358 -0.60745
O_ O_ 0.648365 0.299783 0.785556 -0.60745
O_ O_ 0.909381 0.294359 0.790468 -0.60745
O_ O_ 0.651829 0.297815 0.717584 -0.60745
O_ O_ 0.903877 0.299387 0.723022 -0.60745
O_ O_ 0.657532 0.210497 0.786561 -0.60745
O_ O_ 0.908244 0.207238 0.783944 -0.60745
O_ O_ 0.657653 0.212322 0.716854 -0.60745
O_ O_ 0.905461 0.210773 0.71681 -0.60745
O_ O_ 0.590931 0.205164 0.716703 -0.60745
O_ O_ 0.840502 0.213892 0.722016 -0.60745
O_ O_ 0.595363 0.202962 0.785273 -0.60745
O_ O_ 0.842845 0.206339 0.789779 -0.60745
Zn Zn 0.623092 0.746072 0.277121 0.9476
Zn Zn 0.874244 0.746777 0.282775 0.9476
Zn Zn 0.620445 0.743888 0.205694 0.9476
Zn Zn 0.872751 0.745032 0.214994 0.9476
H_ H_ 0.532801 0.914029 0.165488 0.10932
H_ H_ 0.791303 0.916872 0.175855 0.10932
H_ H_ 0.571521 0.860607 0.300099 0.10932
H_ H_ 0.800974 0.840811 0.310042 0.10932
H_ H_ 0.563183 0.850316 0.166701 0.10932
H_ H_ 0.809643 0.84286 0.174422 0.10932
H_ H_ 0.545736 0.931536 0.298179 0.10932
H_ H_ 0.780537 0.909497 0.310124 0.10932
H_ H_ 0.713019 0.910412 0.314605 0.10932
H_ H_ 0.95133 0.926921 0.30563 0.10932
H_ H_ 0.681516 0.854697 0.172256 0.10932
H_ H_ 0.941423 0.840355 0.178279 0.10932
H_ H_ 0.693021 0.841125 0.308061 0.10932
H_ H_ 0.932784 0.856062 0.31014 0.10932
H_ H_ 0.714675 0.915061 0.175982 0.10932
H_ H_ 0.964588 0.909038 0.174646 0.10932
H_ H_ 0.715561 0.58445 0.322622 0.10932
H_ H_ 0.969168 0.589245 0.326818 0.10932
H_ H_ 0.676809 0.63421 0.189607 0.10932
H_ H_ 0.93004 0.630325 0.189195 0.10932
H_ H_ 0.680639 0.644524 0.31644 0.10932
H_ H_ 0.943642 0.652914 0.321824 0.10932
H_ H_ 0.713797 0.577541 0.190824 0.10932
H_ H_ 0.958572 0.569963 0.19428 0.10932
H_ H_ 0.540973 0.567731 0.182816 0.10932
H_ H_ 0.785076 0.56901 0.195085 0.10932
H_ H_ 0.547953 0.656241 0.309542 0.10932
H_ H_ 0.808174 0.649451 0.322803 0.10932
H_ H_ 0.572519 0.632497 0.182541 0.10932
H_ H_ 0.815073 0.636008 0.188901 0.10932
H_ H_ 0.527541 0.583912 0.313185 0.10932
H_ H_ 0.783194 0.583259 0.326527 0.10932
H_ H_ 0.623466 0.68137 0.351129 0.10932
H_ H_ 0.888438 0.811907 0.366106 0.10932
H_ H_ 0.636347 0.811303 0.348819 0.10932
H_ H_ 0.882946 0.682946 0.353399 0.10932
H_ H_ 0.628141 0.816786 0.424998 0.10932
H_ H_ 0.875341 0.675769 0.431104 0.10932
H_ H_ 0.625327 0.682703 0.429387 0.10932
H_ H_ 0.898698 0.805824 0.438791 0.10932
H_ H_ 0.618333 0.672525 0.138291 0.10932
H_ H_ 0.897059 0.690138 0.137547 0.10932
H_ H_ 0.632213 0.800611 0.130552 0.10932
H_ H_ 0.840083 0.79931 0.138265 0.10932
H_ H_ 0.635776 0.797303 0.052308 0.10932
H_ H_ 0.845125 0.801117 0.0588819 0.10932
H_ H_ 0.618282 0.667044 0.0616348 0.10932
H_ H_ 0.899014 0.691059 0.0620905 0.10932
C_ C_ 0.564057 0.847144 0.234558 -0.02249
C_ C_ 0.809523 0.836418 0.244336 -0.02249
C_ C_ 0.514074 0.96054 0.228271 -0.02249
C_ C_ 0.763473 0.956962 0.243444 -0.02249
C_ C_ 0.540085 0.903294 0.194568 -0.11473
C_ C_ 0.791892 0.899318 0.20506 -0.11473
C_ C_ 0.560312 0.870713 0.271198 -0.11473
C_ C_ 0.798822 0.856982 0.280113 -0.11473
C_ C_ 0.556626 0.86564 0.195337 -0.11473
C_ C_ 0.804283 0.858022 0.204429 -0.11473
C_ C_ 0.53359 0.923868 0.230913 -0.02249
C_ C_ 0.778753 0.916204 0.242659 -0.02249
C_ C_ 0.583346 0.809829 0.236878 0.6875
C_ C_ 0.832774 0.802123 0.246749 0.6875
C_ C_ 0.545554 0.909438 0.268645 -0.11473
C_ C_ 0.786055 0.896376 0.279234 -0.11473
C_ C_ 0.685273 0.83927 0.240278 -0.02249
C_ C_ 0.930591 0.843933 0.242685 -0.02249
C_ C_ 0.73229 0.959014 0.245046 -0.02249
C_ C_ 0.980355 0.959829 0.242026 -0.02249
C_ C_ 0.710363 0.897011 0.283263 -0.11473
C_ C_ 0.95047 0.907349 0.277608 -0.11473
C_ C_ 0.691078 0.863127 0.20364 -0.11473
C_ C_ 0.940837 0.860291 0.2052 -0.11473
C_ C_ 0.695441 0.85713 0.28002 -0.11473
C_ C_ 0.937101 0.868311 0.279832 -0.11473
C_ C_ 0.714778 0.918832 0.244795 -0.02249
C_ C_ 0.962289 0.920742 0.240996 -0.02249
C_ C_ 0.666114 0.801001 0.239108 0.6875
C_ C_ 0.908739 0.809086 0.244596 0.6875
C_ C_ 0.706919 0.900302 0.205342 -0.11473
C_ C_ 0.957467 0.897327 0.204122 -0.11473
C_ C_ 0.68165 0.648073 0.252814 -0.02249
C_ C_ 0.935425 0.649812 0.252353 -0.02249
C_ C_ 0.733316 0.53312 0.260471 -0.02249
C_ C_ 0.985099 0.534983 0.263562 -0.02249
C_ C_ 0.709479 0.59632 0.294159 -0.11473
C_ C_ 0.961781 0.598634 0.296796 -0.11473
C_ C_ 0.690731 0.627262 0.217029 -0.11473
C_ C_ 0.940777 0.62557 0.217818 -0.11473
C_ C_ 0.691197 0.631536 0.29102 -0.11473
C_ C_ 0.949281 0.637337 0.293007 -0.11473
C_ C_ 0.71674 0.574484 0.258204 -0.02249
C_ C_ 0.967795 0.574395 0.261446 -0.02249
C_ C_ 0.662131 0.684927 0.24978 0.6875
C_ C_ 0.914245 0.687359 0.250732 0.6875
C_ C_ 0.706393 0.590353 0.219617 -0.11473
C_ C_ 0.955987 0.587972 0.223262 -0.11473
C_ C_ 0.563239 0.64762 0.24512 -0.02249
C_ C_ 0.817438 0.645551 0.257027 -0.02249
C_ C_ 0.513756 0.533132 0.250759 -0.02249
C_ C_ 0.765013 0.533137 0.26699 -0.02249
C_ C_ 0.542632 0.585794 0.209727 -0.11473
C_ C_ 0.793678 0.585124 0.222653 -0.11473
C_ C_ 0.549619 0.635083 0.282414 -0.11473
C_ C_ 0.808027 0.629762 0.295466 -0.11473
C_ C_ 0.559169 0.622577 0.208629 -0.11473
C_ C_ 0.807162 0.625689 0.220163 -0.11473
C_ C_ 0.529557 0.573458 0.24689 -0.02249
C_ C_ 0.78133 0.572957 0.26081 -0.02249
C_ C_ 0.579931 0.687557 0.24146 0.6875
C_ C_ 0.835927 0.684418 0.253668 0.6875
C_ C_ 0.534016 0.596917 0.283539 -0.11473
C_ C_ 0.791031 0.594816 0.297249 -0.11473
C_ C_ 0.623716 0.711928 0.36799 0.17695
C_ C_ 0.885628 0.782323 0.379739 0.17695
C_ C_ 0.629028 0.7843 0.366579 0.17695
C_ C_ 0.880347 0.710631 0.371551 0.17695
C_ C_ 0.628118 0.785679 0.410212 -0.11473
C_ C_ 0.88126 0.705799 0.41672 -0.11473
C_ C_ 0.628495 0.749043 0.435285 0.23465
C_ C_ 0.887064 0.739691 0.442142 0.23465
C_ C_ 0.624249 0.711243 0.413661 -0.11473
C_ C_ 0.89155 0.778467 0.422467 -0.11473
C_ C_ 0.62292 0.700098 0.118727 0.17695
C_ C_ 0.88361 0.714813 0.12136 0.17695
C_ C_ 0.626916 0.771923 0.113655 0.17695
C_ C_ 0.854748 0.776406 0.120674 0.17695
C_ C_ 0.63102 0.770916 0.0705837 -0.11473
C_ C_ 0.856132 0.776547 0.0762322 -0.11473
C_ C_ 0.627255 0.732279 0.0508084 0.23465
C_ C_ 0.872606 0.746629 0.0543695 0.23465
C_ C_ 0.622161 0.697416 0.0747149 -0.11473
C_ C_ 0.88796 0.718102 0.078065 -0.11473
C_ C_ 0.528061 1.0000848831 0.230377 0.05793
C_ C_ 0.780953 0.993699 0.246997 0.05793
C_ C_ 0.715698 0.495001 0.258553 0.05793
C_ C_ 0.971029 0.496978 0.27151 0.05793
Br Br 0.571735 1.00494184 0.22667 -0.17191
Br Br 0.825782 0.989724 0.257391 -0.17191
Br Br 0.672486 0.502458 0.265895 -0.17191
Br Br 0.928118 0.493332 0.273116 -0.17191
N_ N_ 0.623403 0.748437 0.345999 -0.272
N_ N_ 0.881168 0.748584 0.353761 -0.272
N_ N_ 0.632014 0.753316 0.480088 -0.12501
N_ N_ 0.889388 0.735586 0.486392 -0.12501
N_ N_ 0.626243 0.737294 0.136945 -0.272
N_ N_ 0.870259 0.747217 0.141925 -0.272
N_ N_ 0.623214 0.728623 0.00665393 -0.12501
N_ N_ 0.872123 0.743547 0.0100174 -0.12501
O_ O_ 0.590079 0.789995 0.204047 -0.60745
O_ O_ 0.837998 0.782115 0.214282 -0.60745
O_ O_ 0.593404 0.795987 0.271889 -0.60745
O_ O_ 0.843912 0.793186 0.281219 -0.60745
O_ O_ 0.658309 0.785667 0.273838 -0.60745
O_ O_ 0.904281 0.7908 0.278911 -0.60745
O_ O_ 0.654722 0.787356 0.205438 -0.60745
O_ O_ 0.897078 0.796673 0.210701 -0.60745
O_ O_ 0.650908 0.700608 0.28152 -0.60745
O_ O_ 0.901354 0.699082 0.284068 -0.60745
O_ O_ 0.652287 0.697186 0.213724 -0.60745
O_ O_ 0.909587 0.706925 0.217075 -0.60745
O_ O_ 0.587163 0.701317 0.206222 -0.60745
O_ O_ 0.847856 0.69509 0.218559 -0.60745
O_ O_ 0.589079 0.705556 0.274547 -0.60745
O_ O_ 0.840885 0.704109 0.285675 -0.60745
Zn Zn 0.626713 0.751037 0.777736 0.9476
Zn Zn 0.881563 0.753981 0.785157 0.9476
Zn Zn 0.623098 0.753865 0.708467 0.9476
Zn Zn 0.876888 0.749446 0.714765 0.9476
H_ H_ 0.537506 0.924814 0.6746 0.10932
H_ H_ 0.793564 0.928073 0.679989 0.10932
H_ H_ 0.565037 0.852732 0.806509 0.10932
H_ H_ 0.805121 0.846374 0.808921 0.10932
H_ H_ 0.560435 0.85791 0.669632 0.10932
H_ H_ 0.833087 0.873072 0.685469 0.10932
H_ H_ 0.533278 0.916577 0.80969 0.10932
H_ H_ 0.776655 0.909204 0.81379 0.10932
H_ H_ 0.721714 0.914919 0.803858 0.10932
H_ H_ 0.95957 0.93031 0.807292 0.10932
H_ H_ 0.680514 0.860768 0.671695 0.10932
H_ H_ 0.946388 0.84661 0.677745 0.10932
H_ H_ 0.695854 0.849454 0.803858 0.10932
H_ H_ 0.92792 0.864909 0.807423 0.10932
H_ H_ 0.713804 0.9212 0.671824 0.10932
H_ H_ 0.969239 0.91589 0.674079 0.10932
H_ H_ 0.72982 0.601428 0.816418 0.10932
H_ H_ 0.960875 0.576574 0.821883 0.10932
H_ H_ 0.682714 0.644066 0.684526 0.10932
H_ H_ 0.942183 0.651323 0.688748 0.10932
H_ H_ 0.693583 0.65831 0.814066 0.10932
H_ H_ 0.930818 0.641838 0.818355 0.10932
H_ H_ 0.711604 0.577773 0.688884 0.10932
H_ H_ 0.975585 0.590203 0.688055 0.10932
H_ H_ 0.531763 0.582852 0.683183 0.10932
H_ H_ 0.777999 0.596034 0.688771 0.10932
H_ H_ 0.559238 0.656502 0.815093 0.10932
H_ H_ 0.836115 0.634035 0.812755 0.10932
H_ H_ 0.562804 0.642514 0.682634 0.10932
H_ H_ 0.801456 0.659947 0.687728 0.10932
H_ H_ 0.539705 0.586577 0.819856 0.10932
H_ H_ 0.800573 0.572578 0.81514 0.10932
H_ H_ 0.61653 0.687686 0.851657 0.10932
H_ H_ 0.863488 0.699328 0.861305 0.10932
H_ H_ 0.626725 0.81766 0.849356 0.10932
H_ H_ 0.888052 0.82581 0.855268 0.10932
H_ H_ 0.623855 0.821761 0.925142 0.10932
H_ H_ 0.882916 0.833128 0.933779 0.10932
H_ H_ 0.622819 0.687654 0.928699 0.10932
H_ H_ 0.856993 0.703435 0.938535 0.10932
H_ H_ 0.625632 0.683461 0.645312 0.10932
H_ H_ 0.876701 0.81323 0.644916 0.10932
H_ H_ 0.628177 0.809833 0.627254 0.10932
H_ H_ 0.879187 0.681911 0.6335 0.10932
H_ H_ 0.629716 0.801903 0.551578 0.10932
H_ H_ 0.877129 0.688621 0.554643 0.10932
H_ H_ 0.621952 0.669724 0.56875 0.10932
H_ H_ 0.876215 0.820535 0.564803 0.10932
C_ C_ 0.566738 0.851374 0.738085 -0.02249
C_ C_ 0.820292 0.851323 0.746829 -0.02249
C_ C_ 0.515489 0.963259 0.743884 -0.02249
C_ C_ 0.766071 0.965583 0.746281 -0.02249
C_ C_ 0.539248 0.90615 0.702672 -0.11473
C_ C_ 0.796763 0.910522 0.708895 -0.11473
C_ C_ 0.558806 0.86844 0.778375 -0.11473
C_ C_ 0.805713 0.866212 0.78301 -0.11473
C_ C_ 0.553534 0.867328 0.700624 -0.11473
C_ C_ 0.816337 0.874967 0.709727 -0.11473
C_ C_ 0.532526 0.922794 0.741437 -0.02249
C_ C_ 0.782958 0.924934 0.745989 -0.02249
C_ C_ 0.583212 0.810619 0.736268 0.6875
C_ C_ 0.839784 0.813816 0.746626 0.6875
C_ C_ 0.540589 0.903773 0.779806 -0.11473
C_ C_ 0.786779 0.900318 0.782517 -0.11473
C_ C_ 0.683056 0.85139 0.738621 -0.02249
C_ C_ 0.938097 0.848418 0.743094 -0.02249
C_ C_ 0.734635 0.96616 0.736697 -0.02249
C_ C_ 0.986036 0.966169 0.737336 -0.02249
C_ C_ 0.71144 0.905354 0.774949 -0.11473
C_ C_ 0.956389 0.912848 0.779156 -0.11473
C_ C_ 0.692738 0.868866 0.700145 -0.11473
C_ C_ 0.949589 0.864186 0.706515 -0.11473
C_ C_ 0.696735 0.866477 0.774329 -0.11473
C_ C_ 0.939666 0.874039 0.77996 -0.11473
C_ C_ 0.716709 0.926956 0.737355 -0.02249
C_ C_ 0.967719 0.926361 0.739606 -0.02249
C_ C_ 0.662747 0.815246 0.73935 0.6875
C_ C_ 0.919906 0.809816 0.745754 0.6875
C_ C_ 0.707694 0.907274 0.700604 -0.11473
C_ C_ 0.964647 0.900952 0.7048 -0.11473
C_ C_ 0.681263 0.652453 0.749607 -0.02249
C_ C_ 0.938583 0.654617 0.755617 -0.02249
C_ C_ 0.735011 0.54172 0.756872 -0.02249
C_ C_ 0.985304 0.537533 0.751309 -0.02249
C_ C_ 0.713159 0.602122 0.789663 -0.11473
C_ C_ 0.956758 0.593287 0.790733 -0.11473
C_ C_ 0.689076 0.630593 0.714109 -0.11473
C_ C_ 0.948619 0.63671 0.71807 -0.11473
C_ C_ 0.69246 0.637976 0.788164 -0.11473
C_ C_ 0.93971 0.628463 0.790134 -0.11473
C_ C_ 0.720167 0.581834 0.753359 -0.02249
C_ C_ 0.968526 0.57673 0.752285 -0.02249
C_ C_ 0.661814 0.69024 0.748055 0.6875
C_ C_ 0.919596 0.693002 0.754045 0.6875
C_ C_ 0.704781 0.59367 0.717726 -0.11473
C_ C_ 0.966297 0.601 0.717183 -0.11473
C_ C_ 0.566129 0.654516 0.747659 -0.02249
C_ C_ 0.819195 0.65578 0.752227 -0.02249
C_ C_ 0.516426 0.538623 0.753871 -0.02249
C_ C_ 0.766585 0.540501 0.752846 -0.02249
C_ C_ 0.539268 0.59706 0.712736 -0.11473
C_ C_ 0.787441 0.604759 0.717562 -0.11473
C_ C_ 0.55644 0.639605 0.785878 -0.11473
C_ C_ 0.820213 0.628121 0.786865 -0.11473
C_ C_ 0.555203 0.634598 0.711635 -0.11473
C_ C_ 0.800812 0.643609 0.717619 -0.11473
C_ C_ 0.533276 0.578562 0.752024 -0.02249
C_ C_ 0.784525 0.581449 0.753551 -0.02249
C_ C_ 0.587037 0.690515 0.745522 0.6875
C_ C_ 0.840109 0.692505 0.749381 0.6875
C_ C_ 0.542884 0.599991 0.788272 -0.11473
C_ C_ 0.801186 0.59324 0.788238 -0.11473
C_ C_ 0.622293 0.715756 0.86872 0.17695
C_ C_ 0.870757 0.727367 0.878011 0.17695
C_ C_ 0.62363 0.790053 0.867625 0.17695
C_ C_ 0.88555 0.796573 0.874635 0.17695
C_ C_ 0.623904 0.790818 0.91227 -0.11473
C_ C_ 0.879165 0.801882 0.918012 -0.11473
C_ C_ 0.621111 0.754332 0.93559 0.23465
C_ C_ 0.870406 0.767389 0.94066 0.23465
C_ C_ 0.623414 0.716232 0.912963 -0.11473
C_ C_ 0.864063 0.729979 0.920273 -0.11473
C_ C_ 0.624665 0.707942 0.623378 0.17695
C_ C_ 0.877821 0.786848 0.624746 0.17695
C_ C_ 0.630251 0.778967 0.61325 0.17695
C_ C_ 0.880053 0.712814 0.617656 0.17695
C_ C_ 0.632286 0.773126 0.569362 -0.11473
C_ C_ 0.876684 0.716158 0.573366 -0.11473
C_ C_ 0.626469 0.734948 0.551414 0.23465
C_ C_ 0.877221 0.754945 0.553943 0.23465
C_ C_ 0.625181 0.701038 0.579795 -0.11473
C_ C_ 0.878404 0.79068 0.580479 -0.11473
C_ C_ 0.529379 0.00219422 0.736573 0.05793
C_ C_ 0.781686 0.00346282 0.752434 0.05793
C_ C_ 0.718942 0.503205 0.757806 0.05793
C_ C_ 0.969278 0.501155 0.75528 0.05793
Br Br 0.572965 0.0023497 0.727452 -0.17191
Br Br 0.824784 1.00226079 0.765496 -0.17191
Br Br 0.677492 0.501144 0.777291 -0.17191
Br Br 0.925046 0.503234 0.751647 -0.17191
N_ N_ 0.622293 0.752603 0.847453 -0.272
N_ N_ 0.879211 0.760746 0.854263 -0.272
N_ N_ 0.62666 0.757868 0.980438 -0.12501
N_ N_ 0.867062 0.772364 0.985409 -0.12501
N_ N_ 0.625179 0.746349 0.638861 -0.272
N_ N_ 0.879195 0.747956 0.642066 -0.272
N_ N_ 0.62468 0.72727 0.506144 -0.12501
N_ N_ 0.872869 0.757414 0.510108 -0.12501
O_ O_ 0.594339 0.800032 0.702237 -0.60745
O_ O_ 0.8458 0.795727 0.712003 -0.60745
O_ O_ 0.592712 0.793292 0.770569 -0.60745
O_ O_ 0.84879 0.797559 0.781745 -0.60745
O_ O_ 0.654782 0.80069 0.77525 -0.60745
O_ O_ 0.912455 0.796215 0.781591 -0.60745
O_ O_ 0.654202 0.795918 0.706334 -0.60745
O_ O_ 0.909693 0.791905 0.713341 -0.60745
O_ O_ 0.660196 0.711556 0.780357 -0.60745
O_ O_ 0.909383 0.705808 0.788064 -0.60745
O_ O_ 0.648968 0.701496 0.713889 -0.60745
O_ O_ 0.906135 0.702993 0.71918 -0.60745
O_ O_ 0.590902 0.709255 0.710673 -0.60745
O_ O_ 0.845792 0.707371 0.714896 -0.60745
O_ O_ 0.598931 0.704843 0.779177 -0.60745
O_ O_ 0.853435 0.706273 0.783643 -0.60745
_cell_length_a 44.444
_cell_length_b 32.3360000049186
_cell_length_c 31.843999878906452
_cell_angle_alpha 89.99799923859553
_cell_angle_beta 91.13600050494348
_cell_angle_gamma 89.9990006550086
_symmetry_space_group_name_H-M         'P 1'
_symmetry_Int_Tables_number            1
loop_
_symmetry_equiv_pos_as_xyz
   'x, y, z'
                         
loop_
_atom_site_label
_atom_site_type_symbol
_atom_site_fract_x 
_atom_site_fract_y
_atom_site_fract_z
_atom_site_charge
Zn Zn 0.126794 0.245528 0.292196 0.9476
Zn Zn 0.374779 0.250722 0.281829 0.9476
Zn Zn 0.122811 0.24654 0.2203 0.9476
Zn Zn 0.372917 0.251918 0.210349 0.9476
H_ H_ 0.0229758 0.410688 0.200414 0.10932
H_ H_ 0.290969 0.42698 0.18089 0.10932
H_ H_ 0.0771588 0.350816 0.328854 0.10932
H_ H_ 0.309038 0.351111 0.315785 0.10932
H_ H_ 0.0496485 0.344628 0.19602 0.10932
H_ H_ 0.314595 0.358729 0.18161 0.10932
H_ H_ 0.0447015 0.418553 0.333724 0.10932
H_ H_ 0.278452 0.412525 0.312012 0.10932
H_ H_ 0.222945 0.409579 0.318834 0.10932
H_ H_ 0.470128 0.410135 0.317119 0.10932
H_ H_ 0.173544 0.359895 0.190662 0.10932
H_ H_ 0.437831 0.347148 0.183349 0.10932
H_ H_ 0.19109 0.346575 0.32299 0.10932
H_ H_ 0.439441 0.345176 0.319561 0.10932
H_ H_ 0.203255 0.418758 0.186123 0.10932
H_ H_ 0.472288 0.409871 0.186176 0.10932
H_ H_ 0.223377 0.0742632 0.305978 0.10932
H_ H_ 0.454313 0.0732112 0.301624 0.10932
H_ H_ 0.183488 0.149133 0.18245 0.10932
H_ H_ 0.427603 0.145926 0.174069 0.10932
H_ H_ 0.192951 0.136464 0.31811 0.10932
H_ H_ 0.432488 0.141427 0.305582 0.10932
H_ H_ 0.215865 0.089084 0.173105 0.10932
H_ H_ 0.462018 0.0869956 0.168086 0.10932
H_ H_ 0.0266362 0.0862992 0.184438 0.10932
H_ H_ 0.288547 0.0818552 0.172389 0.10932
H_ H_ 0.0628466 0.142404 0.320617 0.10932
H_ H_ 0.303827 0.158175 0.304012 0.10932
H_ H_ 0.0542678 0.153664 0.187766 0.10932
H_ H_ 0.318102 0.145292 0.172647 0.10932
H_ H_ 0.0304874 0.0810054 0.318994 0.10932
H_ H_ 0.282425 0.0886635 0.307664 0.10932
H_ H_ 0.0939653 0.203415 0.366545 0.10932
H_ H_ 0.389869 0.310042 0.359703 0.10932
H_ H_ 0.168859 0.28401 0.365065 0.10932
H_ H_ 0.362349 0.183838 0.358909 0.10932
H_ H_ 0.164859 0.293345 0.441383 0.10932
H_ H_ 0.369431 0.182438 0.43509 0.10932
H_ H_ 0.0889825 0.213995 0.443724 0.10932
H_ H_ 0.395594 0.310403 0.435402 0.10932
H_ H_ 0.126768 0.317559 0.155708 0.10932
H_ H_ 0.328707 0.239636 0.128717 0.10932
H_ H_ 0.111706 0.189923 0.142117 0.10932
H_ H_ 0.420386 0.267895 0.144863 0.10932
H_ H_ 0.111098 0.198759 0.0649861 0.10932
H_ H_ 0.42552 0.275883 0.0659516 0.10932
H_ H_ 0.122634 0.328845 0.079161 0.10932
H_ H_ 0.333621 0.238744 0.0481563 0.10932
C_ C_ 0.0638779 0.343097 0.263168 -0.02249
C_ C_ 0.31689 0.352371 0.248852 -0.02249
C_ C_ 0.0195176 0.46075 0.268326 -0.02249
C_ C_ 0.263431 0.462796 0.247013 -0.02249
C_ C_ 0.0377054 0.40183 0.227721 -0.11473
C_ C_ 0.292756 0.408761 0.208967 -0.11473
C_ C_ 0.0644494 0.365295 0.301216 -0.11473
C_ C_ 0.304135 0.366789 0.285532 -0.11473
C_ C_ 0.0497488 0.36264 0.226476 -0.11473
C_ C_ 0.308451 0.371722 0.210953 -0.11473
C_ C_ 0.0353956 0.422496 0.266016 -0.02249
C_ C_ 0.281361 0.424504 0.247009 -0.02249
C_ C_ 0.08361 0.305145 0.261476 0.6875
C_ C_ 0.335421 0.313912 0.249137 0.6875
C_ C_ 0.048861 0.404358 0.303419 -0.11473
C_ C_ 0.289709 0.404796 0.285445 -0.11473
C_ C_ 0.181975 0.345465 0.254998 -0.02249
C_ C_ 0.436019 0.341837 0.253155 -0.02249
C_ C_ 0.231088 0.461017 0.249503 -0.02249
C_ C_ 0.483236 0.456719 0.254846 -0.02249
C_ C_ 0.212979 0.397303 0.290776 -0.11473
C_ C_ 0.461546 0.395986 0.289915 -0.11473
C_ C_ 0.187153 0.366567 0.216527 -0.11473
C_ C_ 0.441733 0.362517 0.214006 -0.11473
C_ C_ 0.19654 0.360078 0.2924 -0.11473
C_ C_ 0.444715 0.360332 0.290784 -0.11473
C_ C_ 0.213934 0.420468 0.253511 -0.02249
C_ C_ 0.465823 0.417955 0.252602 -0.02249
C_ C_ 0.162301 0.306704 0.255643 0.6875
C_ C_ 0.418398 0.302139 0.25149 0.6875
C_ C_ 0.201954 0.403116 0.216153 -0.11473
C_ C_ 0.459286 0.398864 0.213679 -0.11473
C_ C_ 0.185088 0.148524 0.248486 -0.02249
C_ C_ 0.42644 0.148383 0.238922 -0.02249
C_ C_ 0.236561 0.035362 0.234626 -0.02249
C_ C_ 0.478261 0.0351291 0.236009 -0.02249
C_ C_ 0.216059 0.0935677 0.278936 -0.11473
C_ C_ 0.448495 0.0883331 0.274426 -0.11473
C_ C_ 0.190975 0.132113 0.209313 -0.11473
C_ C_ 0.435776 0.132463 0.200912 -0.11473
C_ C_ 0.195871 0.125614 0.285214 -0.11473
C_ C_ 0.434841 0.127268 0.275766 -0.11473
C_ C_ 0.218316 0.0739149 0.239051 -0.02249
C_ C_ 0.45817 0.072036 0.236087 -0.02249
C_ C_ 0.166747 0.188103 0.252712 0.6875
C_ C_ 0.409998 0.187786 0.240606 0.6875
C_ C_ 0.208833 0.0967039 0.203978 -0.11473
C_ C_ 0.453129 0.0960151 0.199109 -0.11473
C_ C_ 0.0642508 0.150105 0.253573 -0.02249
C_ C_ 0.315716 0.15461 0.239324 -0.02249
C_ C_ 0.012276 0.0350161 0.248688 -0.02249
C_ C_ 0.269141 0.037084 0.238467 -0.02249
C_ C_ 0.0383187 0.0964633 0.214428 -0.11473
C_ C_ 0.292156 0.0969641 0.201661 -0.11473
C_ C_ 0.0547262 0.131289 0.291077 -0.11473
C_ C_ 0.303397 0.139649 0.276349 -0.11473
C_ C_ 0.0536369 0.134694 0.215744 -0.11473
C_ C_ 0.309118 0.134284 0.200278 -0.11473
C_ C_ 0.0278065 0.0768542 0.25093 -0.02249
C_ C_ 0.283606 0.0785973 0.239985 -0.02249
C_ C_ 0.0832277 0.188268 0.25567 0.6875
C_ C_ 0.334121 0.193915 0.240106 0.6875
C_ C_ 0.0374728 0.0947816 0.290522 -0.11473
C_ C_ 0.288824 0.100355 0.277917 -0.11473
C_ C_ 0.110662 0.221091 0.383196 0.17695
C_ C_ 0.386952 0.281535 0.37513 0.17695
C_ C_ 0.153414 0.265506 0.383664 0.17695
C_ C_ 0.374018 0.210833 0.374427 0.17695
C_ C_ 0.151771 0.269911 0.427438 -0.11473
C_ C_ 0.374775 0.21092 0.420006 -0.11473
C_ C_ 0.129736 0.250944 0.449515 0.23465
C_ C_ 0.385996 0.245824 0.441711 0.23465
C_ C_ 0.108661 0.226215 0.427613 -0.11473
C_ C_ 0.390795 0.28211 0.418497 -0.11473
C_ C_ 0.127213 0.291757 0.133634 0.17695
C_ C_ 0.349684 0.248281 0.113034 0.17695
C_ C_ 0.117366 0.219325 0.127071 0.17695
C_ C_ 0.401583 0.263232 0.122558 0.17695
C_ C_ 0.118193 0.222788 0.0837193 -0.11473
C_ C_ 0.406049 0.261494 0.078567 -0.11473
C_ C_ 0.12035 0.262351 0.064614 0.23465
C_ C_ 0.381657 0.25269 0.0512953 0.23465
C_ C_ 0.124358 0.297357 0.0911784 -0.11473
C_ C_ 0.352796 0.25001 0.0684825 -0.11473
C_ C_ 0.0324261 0.498873 0.255043 0.05793
C_ C_ 0.278039 0.501838 0.245057 0.05793
C_ C_ 0.221663 -0.003291000000000044 0.232587 0.05793
C_ C_ 0.464987 0.993339 0.236901 0.05793
Br Br 0.0741693 0.49846 0.240816 -0.17191
Br Br 0.321956 0.503087 0.242324 -0.17191
Br Br 0.180007 -0.0030160000000000187 0.220202 -0.17191
Br Br 0.420262 0.989024 0.243241 -0.17191
N_ N_ 0.131899 0.243132 0.362257 -0.272
N_ N_ 0.376492 0.24727 0.354243 -0.272
N_ N_ 0.126492 0.256374 0.493428 -0.12501
N_ N_ 0.388691 0.245705 0.486345 -0.12501
N_ N_ 0.121966 0.253039 0.150801 -0.272
N_ N_ 0.374102 0.257212 0.138511 -0.272
N_ N_ 0.117273 0.265625 0.0184679 -0.12501
N_ N_ 0.387045 0.250216 0.00715128 -0.12501
O_ O_ 0.0907296 0.2892 0.226722 -0.60745
O_ O_ 0.343324 0.298036 0.214155 -0.60745
O_ O_ 0.0989743 0.293415 0.293873 -0.60745
O_ O_ 0.345767 0.298444 0.282903 -0.60745
O_ O_ 0.158708 0.288201 0.290187 -0.60745
O_ O_ 0.406083 0.291263 0.285771 -0.60745
O_ O_ 0.155911 0.287651 0.221638 -0.60745
O_ O_ 0.407654 0.28818 0.217679 -0.60745
O_ O_ 0.160874 0.203317 0.289112 -0.60745
O_ O_ 0.403028 0.204865 0.275005 -0.60745
O_ O_ 0.154228 0.20143 0.220734 -0.60745
O_ O_ 0.401402 0.20387 0.205728 -0.60745
O_ O_ 0.0905188 0.207418 0.223366 -0.60745
O_ O_ 0.338323 0.214103 0.207733 -0.60745
O_ O_ 0.0956819 0.199116 0.289443 -0.60745
O_ O_ 0.344886 0.205608 0.274589 -0.60745
Zn Zn 0.133457 0.253107 0.79092 0.9476
Zn Zn 0.377777 0.255011 0.782169 0.9476
Zn Zn 0.131374 0.253937 0.721369 0.9476
Zn Zn 0.372073 0.251515 0.713682 0.9476
H_ H_ 0.024121 0.409099 0.694777 0.10932
H_ H_ 0.275877 0.423234 0.682485 0.10932
H_ H_ 0.0739493 0.356227 0.824239 0.10932
H_ H_ 0.342709 0.37939 0.800507 0.10932
H_ H_ 0.0556749 0.343608 0.688902 0.10932
H_ H_ 0.306116 0.357874 0.67797 0.10932
H_ H_ 0.0431057 0.419815 0.825631 0.10932
H_ H_ 0.307765 0.434819 0.810353 0.10932
H_ H_ 0.237457 0.41285 0.823734 0.10932
H_ H_ 0.484022 0.400718 0.808595 0.10932
H_ H_ 0.188449 0.358141 0.693858 0.10932
H_ H_ 0.419785 0.370786 0.682451 0.10932
H_ H_ 0.210119 0.344719 0.821107 0.10932
H_ H_ 0.457008 0.338427 0.803578 0.10932
H_ H_ 0.211803 0.425092 0.689804 0.10932
H_ H_ 0.444251 0.435534 0.689857 0.10932
H_ H_ 0.235714 0.0928817 0.818998 0.10932
H_ H_ 0.470988 0.0906552 0.818939 0.10932
H_ H_ 0.184252 0.149508 0.692717 0.10932
H_ H_ 0.413787 0.13356 0.691834 0.10932
H_ H_ 0.210785 0.159326 0.82668 0.10932
H_ H_ 0.446506 0.158703 0.815613 0.10932
H_ H_ 0.19805 0.0746552 0.693802 0.10932
H_ H_ 0.453939 0.0748372 0.685998 0.10932
H_ H_ 0.0341126 0.0895448 0.679849 0.10932
H_ H_ 0.26296 0.105543 0.69201 0.10932
H_ H_ 0.0708387 0.139942 0.818043 0.10932
H_ H_ 0.337882 0.131506 0.802261 0.10932
H_ H_ 0.0589045 0.158904 0.68731 0.10932
H_ H_ 0.295394 0.165747 0.686252 0.10932
H_ H_ 0.0416209 0.0790906 0.814106 0.10932
H_ H_ 0.30477 0.0690181 0.80733 0.10932
H_ H_ 0.132857 0.312994 0.86948 0.10932
H_ H_ 0.329408 0.275761 0.849404 0.10932
H_ H_ 0.131044 0.185049 0.860701 0.10932
H_ H_ 0.418925 0.245899 0.856454 0.10932
H_ H_ 0.126498 0.176243 0.936128 0.10932
H_ H_ 0.417917 0.247384 0.934665 0.10932
H_ H_ 0.133262 0.308722 0.948717 0.10932
H_ H_ 0.323965 0.271225 0.927886 0.10932
H_ H_ 0.116349 0.190734 0.650778 0.10932
H_ H_ 0.416431 0.245546 0.641946 0.10932
H_ H_ 0.148681 0.312094 0.649323 0.10932
H_ H_ 0.320656 0.252703 0.638964 0.10932
H_ H_ 0.147676 0.309973 0.570448 0.10932
H_ H_ 0.320107 0.250861 0.562521 0.10932
H_ H_ 0.12539 0.180072 0.574954 0.10932
H_ H_ 0.41592 0.238968 0.56389 0.10932
C_ C_ 0.0659581 0.34399 0.756072 -0.02249
C_ C_ 0.32259 0.358514 0.742411 -0.02249
C_ C_ 0.0178444 0.461207 0.758737 -0.02249
C_ C_ 0.268734 0.469248 0.753624 -0.02249
C_ C_ 0.0356676 0.396242 0.722685 -0.11473
C_ C_ 0.28717 0.409567 0.708487 -0.11473
C_ C_ 0.0624976 0.366339 0.795085 -0.11473
C_ C_ 0.324433 0.383709 0.778392 -0.11473
C_ C_ 0.0538722 0.360598 0.719902 -0.11473
C_ C_ 0.305293 0.372442 0.706666 -0.11473
C_ C_ 0.0341316 0.421032 0.759581 -0.02249
C_ C_ 0.286428 0.431561 0.746891 -0.02249
C_ C_ 0.0886201 0.309243 0.754666 0.6875
C_ C_ 0.340005 0.318008 0.744918 0.6875
C_ C_ 0.0451686 0.40217 0.797087 -0.11473
C_ C_ 0.304823 0.418392 0.781236 -0.11473
C_ C_ 0.193121 0.350739 0.75963 -0.02249
C_ C_ 0.433416 0.350989 0.746999 -0.02249
C_ C_ 0.237288 0.468381 0.759382 -0.02249
C_ C_ 0.481818 0.464289 0.748815 -0.02249
C_ C_ 0.221098 0.405312 0.796343 -0.11473
C_ C_ 0.467317 0.396042 0.781746 -0.11473
C_ C_ 0.199028 0.369096 0.722807 -0.11473
C_ C_ 0.431653 0.377308 0.712235 -0.11473
C_ C_ 0.205832 0.365491 0.797004 -0.11473
C_ C_ 0.451558 0.361478 0.780585 -0.11473
C_ C_ 0.223726 0.42778 0.757939 -0.02249
C_ C_ 0.464714 0.424761 0.749197 -0.02249
C_ C_ 0.173924 0.312127 0.759845 0.6875
C_ C_ 0.41546 0.311846 0.748074 0.6875
C_ C_ 0.209919 0.410937 0.722263 -0.11473
C_ C_ 0.44725 0.414534 0.713796 -0.11473
C_ C_ 0.193961 0.160814 0.758164 -0.02249
C_ C_ 0.431251 0.152659 0.752645 -0.02249
C_ C_ 0.235352 0.0406006 0.751194 -0.02249
C_ C_ 0.481988 0.0393987 0.752222 -0.02249
C_ C_ 0.221637 0.10529 0.792872 -0.11473
C_ C_ 0.461199 0.101566 0.78917 -0.11473
C_ C_ 0.193633 0.136435 0.721718 -0.11473
C_ C_ 0.431334 0.126993 0.716287 -0.11473
C_ C_ 0.208813 0.144619 0.795822 -0.11473
C_ C_ 0.446795 0.139123 0.786831 -0.11473
C_ C_ 0.217852 0.0796195 0.757387 -0.02249
C_ C_ 0.46334 0.076278 0.753438 -0.02249
C_ C_ 0.174526 0.19833 0.760267 0.6875
C_ C_ 0.41383 0.194182 0.75157 0.6875
C_ C_ 0.202255 0.0947615 0.722293 -0.11473
C_ C_ 0.448072 0.0902122 0.715515 -0.11473
C_ C_ 0.0728871 0.152621 0.750547 -0.02249
C_ C_ 0.316847 0.155719 0.748602 -0.02249
C_ C_ 0.0172225 0.0417719 0.743878 -0.02249
C_ C_ 0.267364 0.0404615 0.748312 -0.02249
C_ C_ 0.0428529 0.101625 0.710517 -0.11473
C_ C_ 0.282045 0.109383 0.713494 -0.11473
C_ C_ 0.0648226 0.130494 0.787196 -0.11473
C_ C_ 0.323252 0.125316 0.778543 -0.11473
C_ C_ 0.0598757 0.138699 0.713861 -0.11473
C_ C_ 0.29806 0.14597 0.714896 -0.11473
C_ C_ 0.0355589 0.0808442 0.747765 -0.02249
C_ C_ 0.285741 0.079586 0.744959 -0.02249
C_ C_ 0.0908964 0.191943 0.752238 0.6875
C_ C_ 0.335796 0.194754 0.745962 0.6875
C_ C_ 0.0455681 0.0953428 0.785597 -0.11473
C_ C_ 0.304391 0.0896901 0.779363 -0.11473
C_ C_ 0.134827 0.282562 0.885616 0.17695
C_ C_ 0.347725 0.267163 0.869689 0.17695
C_ C_ 0.13323 0.211172 0.881028 0.17695
C_ C_ 0.397872 0.245973 0.873562 0.17695
C_ C_ 0.13296 0.206642 0.924814 -0.11473
C_ C_ 0.397025 0.249792 0.91769 -0.11473
C_ C_ 0.128678 0.243595 0.950633 0.23465
C_ C_ 0.371628 0.264625 0.937868 0.23465
C_ C_ 0.135456 0.280841 0.930184 -0.11473
C_ C_ 0.345252 0.267405 0.913637 -0.11473
C_ C_ 0.128378 0.211838 0.634078 0.17695
C_ C_ 0.395282 0.247416 0.623095 0.17695
C_ C_ 0.142048 0.284059 0.63079 0.17695
C_ C_ 0.341812 0.251765 0.621861 0.17695
C_ C_ 0.141509 0.282375 0.586833 -0.11473
C_ C_ 0.341419 0.249977 0.577731 -0.11473
C_ C_ 0.13743 0.24382 0.565145 0.23465
C_ C_ 0.368456 0.252248 0.554508 0.23465
C_ C_ 0.13041 0.208252 0.590613 -0.11473
C_ C_ 0.394421 0.245087 0.579113 -0.11473
C_ C_ 0.0327986 0.500183 0.761839 0.05793
C_ C_ 0.282047 0.508895 0.75055 0.05793
C_ C_ 0.218791 0.00290434 0.749622 0.05793
C_ C_ 0.467167 0.99927 0.756344 0.05793
Br Br 0.075194 0.499031 0.767746 -0.17191
Br Br 0.325352 0.514074 0.747193 -0.17191
Br Br 0.175643 0.00350942 0.753552 -0.17191
Br Br 0.425624 0.996577 0.768661 -0.17191
N_ N_ 0.130319 0.24816 0.862788 -0.272
N_ N_ 0.373486 0.253887 0.850405 -0.272
N_ N_ 0.129888 0.239729 0.995651 -0.12501
N_ N_ 0.369689 0.268438 0.981717 -0.12501
N_ N_ 0.134281 0.249716 0.653238 -0.272
N_ N_ 0.36897 0.253715 0.643579 -0.272
N_ N_ 0.14383 0.241755 0.521202 -0.12501
N_ N_ 0.366572 0.246792 0.510063 -0.12501
O_ O_ 0.103507 0.303132 0.720545 -0.60745
O_ O_ 0.337597 0.291184 0.715124 -0.60745
O_ O_ 0.0983 0.290938 0.789156 -0.60745
O_ O_ 0.351445 0.306247 0.780686 -0.60745
O_ O_ 0.163855 0.29837 0.795408 -0.60745
O_ O_ 0.412498 0.293223 0.782188 -0.60745
O_ O_ 0.163986 0.29642 0.726048 -0.60745
O_ O_ 0.400037 0.300757 0.715858 -0.60745
O_ O_ 0.170002 0.216897 0.793983 -0.60745
O_ O_ 0.405814 0.209114 0.783889 -0.60745
O_ O_ 0.162078 0.210695 0.727374 -0.60745
O_ O_ 0.40425 0.20924 0.716603 -0.60745
O_ O_ 0.0977175 0.21118 0.718424 -0.60745
O_ O_ 0.347108 0.205347 0.712287 -0.60745
O_ O_ 0.10512 0.202648 0.785936 -0.60745
O_ O_ 0.342864 0.214926 0.777515 -0.60745
Zn Zn 0.123428 0.753682 0.287698 0.9476
Zn Zn 0.377482 0.746141 0.282837 0.9476
Zn Zn 0.124474 0.750458 0.218121 0.9476
Zn Zn 0.378242 0.742341 0.211036 0.9476
H_ H_ 0.0253227 0.914908 0.180245 0.10932
H_ H_ 0.308207 0.929217 0.178915 0.10932
H_ H_ 0.0675702 0.862089 0.317597 0.10932
H_ H_ 0.300946 0.835212 0.302063 0.10932
H_ H_ 0.0460437 0.839007 0.184055 0.10932
H_ H_ 0.343935 0.870037 0.185095 0.10932
H_ H_ 0.0360855 0.91996 0.314807 0.10932
H_ H_ 0.271947 0.898346 0.29919 0.10932
H_ H_ 0.207551 0.930562 0.300876 0.10932
H_ H_ 0.461615 0.921109 0.300772 0.10932
H_ H_ 0.201446 0.832375 0.182832 0.10932
H_ H_ 0.446376 0.838689 0.171393 0.10932
H_ H_ 0.18314 0.865528 0.307659 0.10932
H_ H_ 0.434683 0.85258 0.304101 0.10932
H_ H_ 0.23002 0.901333 0.175056 0.10932
H_ H_ 0.472122 0.902525 0.169427 0.10932
H_ H_ 0.205583 0.571823 0.316581 0.10932
H_ H_ 0.47025 0.580099 0.317289 0.10932
H_ H_ 0.19362 0.656881 0.188581 0.10932
H_ H_ 0.423097 0.627848 0.183641 0.10932
H_ H_ 0.185707 0.64692 0.320472 0.10932
H_ H_ 0.44331 0.64633 0.313824 0.10932
H_ H_ 0.208133 0.586052 0.182226 0.10932
H_ H_ 0.45705 0.566168 0.182739 0.10932
H_ H_ 0.0318524 0.582184 0.190086 0.10932
H_ H_ 0.281217 0.579409 0.178043 0.10932
H_ H_ 0.0637307 0.646973 0.325288 0.10932
H_ H_ 0.308852 0.652284 0.311195 0.10932
H_ H_ 0.0573456 0.648329 0.191425 0.10932
H_ H_ 0.309455 0.650553 0.178691 0.10932
H_ H_ 0.0365408 0.579911 0.325106 0.10932
H_ H_ 0.275766 0.59065 0.309998 0.10932
H_ H_ 0.14326 0.817612 0.358965 0.10932
H_ H_ 0.369567 0.679796 0.364531 0.10932
H_ H_ 0.108371 0.692551 0.364092 0.10932
H_ H_ 0.383662 0.807481 0.348579 0.10932
H_ H_ 0.106504 0.697068 0.441711 0.10932
H_ H_ 0.37377 0.817464 0.425468 0.10932
H_ H_ 0.140249 0.821375 0.435267 0.10932
H_ H_ 0.371261 0.688286 0.443814 0.10932
H_ H_ 0.116115 0.69225 0.147757 0.10932
H_ H_ 0.384439 0.805573 0.134031 0.10932
H_ H_ 0.126796 0.816417 0.141697 0.10932
H_ H_ 0.379948 0.677172 0.144145 0.10932
H_ H_ 0.126328 0.816558 0.0636501 0.10932
H_ H_ 0.364515 0.671087 0.0665854 0.10932
H_ H_ 0.120911 0.683453 0.0668461 0.10932
H_ H_ 0.383045 0.798561 0.0530447 0.10932
C_ C_ 0.0616546 0.845191 0.251121 -0.02249
C_ C_ 0.323473 0.845979 0.240503 -0.02249
C_ C_ 0.0123303 0.959434 0.244946 -0.02249
C_ C_ 0.270574 0.961544 0.239451 -0.02249
C_ C_ 0.0329473 0.89682 0.210508 -0.11473
C_ C_ 0.311245 0.914804 0.209436 -0.11473
C_ C_ 0.0553805 0.866591 0.287227 -0.11473
C_ C_ 0.302582 0.855619 0.273814 -0.11473
C_ C_ 0.0481431 0.859399 0.211957 -0.11473
C_ C_ 0.328801 0.877288 0.210238 -0.11473
C_ C_ 0.0296086 0.91933 0.247049 -0.02249
C_ C_ 0.290154 0.922402 0.240691 -0.02249
C_ C_ 0.0829199 0.810313 0.252197 0.6875
C_ C_ 0.340354 0.806 0.24237 0.6875
C_ C_ 0.0388943 0.902691 0.285148 -0.11473
C_ C_ 0.287315 0.892852 0.273009 -0.11473
C_ C_ 0.18494 0.848389 0.243677 -0.02249
C_ C_ 0.441005 0.836846 0.240778 -0.02249
C_ C_ 0.238381 0.959636 0.234334 -0.02249
C_ C_ 0.482202 0.956714 0.233733 -0.02249
C_ C_ 0.207723 0.908747 0.275455 -0.11473
C_ C_ 0.458714 0.900197 0.274421 -0.11473
C_ C_ 0.200469 0.856286 0.205625 -0.11473
C_ C_ 0.45043 0.853553 0.201732 -0.11473
C_ C_ 0.194332 0.871444 0.278741 -0.11473
C_ C_ 0.445787 0.860572 0.276661 -0.11473
C_ C_ 0.220887 0.918994 0.23661 -0.02249
C_ C_ 0.469034 0.915202 0.236351 -0.02249
C_ C_ 0.163858 0.812165 0.246337 0.6875
C_ C_ 0.419281 0.8009 0.243109 0.6875
C_ C_ 0.217529 0.893221 0.201821 -0.11473
C_ C_ 0.464398 0.892397 0.199951 -0.11473
C_ C_ 0.182827 0.653945 0.253638 -0.02249
C_ C_ 0.430623 0.643402 0.24729 -0.02249
C_ C_ 0.22981 0.537641 0.247729 -0.02249
C_ C_ 0.482351 0.532273 0.252804 -0.02249
C_ C_ 0.201687 0.591427 0.289211 -0.11473
C_ C_ 0.459357 0.590119 0.287752 -0.11473
C_ C_ 0.191156 0.63743 0.216015 -0.11473
C_ C_ 0.434687 0.618861 0.210966 -0.11473
C_ C_ 0.189658 0.632908 0.290735 -0.11473
C_ C_ 0.443639 0.628517 0.285044 -0.11473
C_ C_ 0.21271 0.577073 0.251233 -0.02249
C_ C_ 0.46499 0.568845 0.25101 -0.02249
C_ C_ 0.164524 0.693136 0.254244 0.6875
C_ C_ 0.414147 0.68237 0.24501 0.6875
C_ C_ 0.204959 0.598001 0.214346 -0.11473
C_ C_ 0.452644 0.583107 0.212548 -0.11473
C_ C_ 0.0661152 0.649589 0.258016 -0.02249
C_ C_ 0.315269 0.652979 0.243186 -0.02249
C_ C_ 0.0154105 0.53681 0.253815 -0.02249
C_ C_ 0.26116 0.538802 0.245487 -0.02249
C_ C_ 0.0387436 0.596422 0.219574 -0.11473
C_ C_ 0.288535 0.595455 0.207868 -0.11473
C_ C_ 0.0611305 0.629284 0.296416 -0.11473
C_ C_ 0.303292 0.637423 0.2808 -0.11473
C_ C_ 0.0570903 0.630692 0.220422 -0.11473
C_ C_ 0.306864 0.631955 0.205784 -0.11473
C_ C_ 0.0319447 0.575605 0.257218 -0.02249
C_ C_ 0.277663 0.580589 0.244888 -0.02249
C_ C_ 0.0820846 0.6895 0.255041 0.6875
C_ C_ 0.335494 0.690033 0.242656 0.6875
C_ C_ 0.0445425 0.592902 0.295715 -0.11473
C_ C_ 0.285913 0.601114 0.281603 -0.11473
C_ C_ 0.134618 0.791896 0.377725 0.17695
C_ C_ 0.374951 0.709384 0.378245 0.17695
C_ C_ 0.115653 0.721479 0.380843 0.17695
C_ C_ 0.381125 0.782121 0.369254 0.17695
C_ C_ 0.115299 0.723624 0.425979 -0.11473
C_ C_ 0.376541 0.788433 0.413111 -0.11473
C_ C_ 0.125703 0.759102 0.446191 0.23465
C_ C_ 0.371089 0.7554 0.439274 0.23465
C_ C_ 0.136819 0.79231 0.420516 -0.11473
C_ C_ 0.373281 0.715124 0.422493 -0.11473
C_ C_ 0.120386 0.717384 0.128483 0.17695
C_ C_ 0.382129 0.776635 0.118928 0.17695
C_ C_ 0.129754 0.78916 0.125283 0.17695
C_ C_ 0.377639 0.704877 0.124549 0.17695
C_ C_ 0.126166 0.787952 0.0809187 -0.11473
C_ C_ 0.373752 0.700274 0.0805949 -0.11473
C_ C_ 0.123433 0.750108 0.0617414 0.23465
C_ C_ 0.378243 0.733731 0.0545854 0.23465
C_ C_ 0.12063 0.713964 0.0851256 -0.11473
C_ C_ 0.380914 0.772551 0.0738126 -0.11473
C_ C_ 0.0287364 0.99705646 0.252569 0.05793
C_ C_ 0.285921 0.999881521 0.239135 0.05793
C_ C_ 0.2139 0.498156 0.252017 0.05793
C_ C_ 0.46713 0.493522 0.255556 0.05793
Br Br 0.071826 0.00140266 0.255226 -0.17191
Br Br 0.328415 1.00327289 0.248492 -0.17191
Br Br 0.171161 0.496165 0.257559 -0.17191
Br Br 0.423448 0.494053 0.249551 -0.17191
N_ N_ 0.126563 0.754737 0.356996 -0.272
N_ N_ 0.380078 0.742819 0.352973 -0.272
N_ N_ 0.125055 0.764227 0.490951 -0.12501
N_ N_ 0.370215 0.762939 0.4834 -0.12501
N_ N_ 0.124617 0.753486 0.146991 -0.272
N_ N_ 0.380168 0.742401 0.142638 -0.272
N_ N_ 0.124803 0.746922 0.0153294 -0.12501
N_ N_ 0.378016 0.727575 0.00966284 -0.12501
O_ O_ 0.0918235 0.795596 0.217848 -0.60745
O_ O_ 0.352075 0.791014 0.208324 -0.60745
O_ O_ 0.0935453 0.797059 0.286804 -0.60745
O_ O_ 0.345335 0.788509 0.278813 -0.60745
O_ O_ 0.155237 0.798775 0.281462 -0.60745
O_ O_ 0.406977 0.789484 0.277464 -0.60745
O_ O_ 0.155539 0.794784 0.212671 -0.60745
O_ O_ 0.41143 0.78343 0.210299 -0.60745
O_ O_ 0.156957 0.709382 0.289128 -0.60745
O_ O_ 0.409077 0.702849 0.277817 -0.60745
O_ O_ 0.156074 0.71 0.219796 -0.60745
O_ O_ 0.404295 0.694518 0.210049 -0.60745
O_ O_ 0.0920121 0.702595 0.221507 -0.60745
O_ O_ 0.343256 0.706944 0.209226 -0.60745
O_ O_ 0.0915479 0.708604 0.288138 -0.60745
O_ O_ 0.346747 0.70233 0.277945 -0.60745
Zn Zn 0.126278 0.756212 0.785976 0.9476
Zn Zn 0.374038 0.752096 0.785862 0.9476
Zn Zn 0.123859 0.749406 0.71671 0.9476
Zn Zn 0.376611 0.752665 0.71413 0.9476
H_ H_ 0.0408356 0.923402 0.671158 0.10932
H_ H_ 0.264763 0.904873 0.680795 0.10932
H_ H_ 0.0599664 0.856203 0.809201 0.10932
H_ H_ 0.333907 0.875436 0.801759 0.10932
H_ H_ 0.0695462 0.860816 0.670332 0.10932
H_ H_ 0.298664 0.844025 0.678569 0.10932
H_ H_ 0.0401615 0.926115 0.802975 0.10932
H_ H_ 0.308701 0.943207 0.795178 0.10932
H_ H_ 0.229627 0.910612 0.808263 0.10932
H_ H_ 0.465221 0.918078 0.824328 0.10932
H_ H_ 0.172815 0.865269 0.682317 0.10932
H_ H_ 0.444466 0.844672 0.686996 0.10932
H_ H_ 0.202105 0.845406 0.811109 0.10932
H_ H_ 0.429786 0.858571 0.819385 0.10932
H_ H_ 0.198558 0.93219 0.68622 0.10932
H_ H_ 0.469927 0.910357 0.684533 0.10932
H_ H_ 0.206638 0.584256 0.828497 0.10932
H_ H_ 0.470482 0.588428 0.824962 0.10932
H_ H_ 0.191055 0.65481 0.692093 0.10932
H_ H_ 0.428174 0.639861 0.690549 0.10932
H_ H_ 0.187107 0.654538 0.82986 0.10932
H_ H_ 0.431346 0.643903 0.820173 0.10932
H_ H_ 0.217875 0.592346 0.694407 0.10932
H_ H_ 0.461416 0.58163 0.689287 0.10932
H_ H_ 0.0486169 0.563764 0.694088 0.10932
H_ H_ 0.280895 0.592189 0.687057 0.10932
H_ H_ 0.0480944 0.661293 0.817482 0.10932
H_ H_ 0.314206 0.655875 0.820295 0.10932
H_ H_ 0.0769496 0.634886 0.686974 0.10932
H_ H_ 0.302932 0.661604 0.686498 0.10932
H_ H_ 0.0269159 0.594652 0.82237 0.10932
H_ H_ 0.285232 0.592706 0.822449 0.10932
H_ H_ 0.121432 0.824752 0.85103 0.10932
H_ H_ 0.389157 0.817377 0.859239 0.10932
H_ H_ 0.121665 0.694152 0.869409 0.10932
H_ H_ 0.366431 0.692769 0.85688 0.10932
H_ H_ 0.119977 0.701254 0.946469 0.10932
H_ H_ 0.368998 0.689319 0.932249 0.10932
H_ H_ 0.127346 0.834597 0.929503 0.10932
H_ H_ 0.393795 0.816809 0.934756 0.10932
H_ H_ 0.116861 0.681359 0.649035 0.10932
H_ H_ 0.383151 0.812253 0.632761 0.10932
H_ H_ 0.127304 0.809104 0.640385 0.10932
H_ H_ 0.364447 0.683713 0.641914 0.10932
H_ H_ 0.125095 0.806564 0.564653 0.10932
H_ H_ 0.37145 0.675215 0.566206 0.10932
H_ H_ 0.121379 0.675035 0.572715 0.10932
H_ H_ 0.377425 0.80556 0.555652 0.10932
C_ C_ 0.0676916 0.852236 0.738383 -0.02249
C_ C_ 0.318544 0.854483 0.741023 -0.02249
C_ C_ 0.0168323 0.967073 0.73566 -0.02249
C_ C_ 0.26568 0.964884 0.741519 -0.02249
C_ C_ 0.0487647 0.911728 0.700408 -0.11473
C_ C_ 0.281928 0.898525 0.705772 -0.11473
C_ C_ 0.0569244 0.870936 0.776512 -0.11473
C_ C_ 0.317883 0.880229 0.776033 -0.11473
C_ C_ 0.0630598 0.872182 0.699741 -0.11473
C_ C_ 0.297897 0.86091 0.706346 -0.11473
C_ C_ 0.0352872 0.92802 0.737714 -0.02249
C_ C_ 0.28304 0.926732 0.74067 -0.02249
C_ C_ 0.0872941 0.814107 0.74206 0.6875
C_ C_ 0.3394 0.816971 0.741366 0.6875
C_ C_ 0.0424457 0.908925 0.774847 -0.11473
C_ C_ 0.301676 0.916854 0.776254 -0.11473
C_ C_ 0.185033 0.847827 0.745593 -0.02249
C_ C_ 0.436848 0.845724 0.753207 -0.02249
C_ C_ 0.2344 0.964441 0.745143 -0.02249
C_ C_ 0.484995 0.962587 0.752408 -0.02249
C_ C_ 0.216341 0.900835 0.781814 -0.11473
C_ C_ 0.463813 0.901004 0.794348 -0.11473
C_ C_ 0.187973 0.872502 0.707849 -0.11473
C_ C_ 0.447231 0.862845 0.717112 -0.11473
C_ C_ 0.199366 0.864014 0.781528 -0.11473
C_ C_ 0.443113 0.865905 0.792204 -0.11473
C_ C_ 0.216852 0.923961 0.744661 -0.02249
C_ C_ 0.467998 0.921663 0.754798 -0.02249
C_ C_ 0.164428 0.811084 0.746146 0.6875
C_ C_ 0.415111 0.811635 0.751594 0.6875
C_ C_ 0.203495 0.909771 0.70905 -0.11473
C_ C_ 0.463481 0.89998 0.716633 -0.11473
C_ C_ 0.184601 0.658969 0.759384 -0.02249
C_ C_ 0.43228 0.654285 0.755491 -0.02249
C_ C_ 0.234819 0.544296 0.759747 -0.02249
C_ C_ 0.484458 0.539979 0.755113 -0.02249
C_ C_ 0.20451 0.599626 0.798074 -0.11473
C_ C_ 0.464501 0.603345 0.794424 -0.11473
C_ C_ 0.192906 0.638333 0.721068 -0.11473
C_ C_ 0.439335 0.633528 0.718194 -0.11473
C_ C_ 0.192659 0.6402 0.798067 -0.11473
C_ C_ 0.442841 0.636888 0.792647 -0.11473
C_ C_ 0.216956 0.582819 0.761696 -0.02249
C_ C_ 0.468078 0.580021 0.756986 -0.02249
C_ C_ 0.164555 0.696654 0.7568 0.6875
C_ C_ 0.411653 0.691189 0.75527 0.6875
C_ C_ 0.208092 0.601312 0.72297 -0.11473
C_ C_ 0.458428 0.597429 0.718642 -0.11473
C_ C_ 0.0661748 0.652939 0.752329 -0.02249
C_ C_ 0.310701 0.665743 0.754019 -0.02249
C_ C_ 0.0171007 0.537629 0.756914 -0.02249
C_ C_ 0.265785 0.546335 0.753038 -0.02249
C_ C_ 0.050753 0.587008 0.72156 -0.11473
C_ C_ 0.288346 0.60571 0.716728 -0.11473
C_ C_ 0.0510905 0.641198 0.790677 -0.11473
C_ C_ 0.303778 0.645801 0.792114 -0.11473
C_ C_ 0.0638956 0.627077 0.716198 -0.11473
C_ C_ 0.298653 0.647558 0.717046 -0.11473
C_ C_ 0.0339471 0.578637 0.757071 -0.02249
C_ C_ 0.281553 0.586339 0.754322 -0.02249
C_ C_ 0.0834912 0.692065 0.751657 0.6875
C_ C_ 0.334068 0.697809 0.751709 0.6875
C_ C_ 0.0353234 0.603292 0.792702 -0.11473
C_ C_ 0.289544 0.606026 0.791965 -0.11473
C_ C_ 0.122162 0.798042 0.873123 0.17695
C_ C_ 0.382703 0.790632 0.875416 0.17695
C_ C_ 0.122573 0.724889 0.882487 0.17695
C_ C_ 0.372577 0.719472 0.874317 0.17695
C_ C_ 0.119005 0.730332 0.925151 -0.11473
C_ C_ 0.373895 0.717571 0.917263 -0.11473
C_ C_ 0.122514 0.770321 0.944523 0.23465
C_ C_ 0.381328 0.752176 0.940688 0.23465
C_ C_ 0.120191 0.805293 0.916024 -0.11473
C_ C_ 0.385621 0.790273 0.918399 -0.11473
C_ C_ 0.118777 0.708914 0.630029 0.17695
C_ C_ 0.380847 0.782235 0.617763 0.17695
C_ C_ 0.12256 0.780443 0.624664 0.17695
C_ C_ 0.373512 0.709846 0.62331 0.17695
C_ C_ 0.121888 0.778653 0.581953 -0.11473
C_ C_ 0.372086 0.706187 0.578748 -0.11473
C_ C_ 0.120726 0.739956 0.560722 0.23465
C_ C_ 0.373087 0.741083 0.554028 0.23465
C_ C_ 0.118701 0.70495 0.586372 -0.11473
C_ C_ 0.378114 0.779647 0.573859 -0.11473
C_ C_ 0.0325303 0.00423175 0.737486 0.05793
C_ C_ 0.281058 0.00295458 0.735849 0.05793
C_ C_ 0.220185 0.50495 0.76443 0.05793
C_ C_ 0.467979 0.503794 0.752398 0.05793
Br Br 0.0761817 0.00269553 0.741673 -0.17191
Br Br 0.320678 -0.002210999999999963 0.71384 -0.17191
Br Br 0.177761 0.504717 0.770302 -0.17191
Br Br 0.423701 0.504299 0.760375 -0.17191
N_ N_ 0.123572 0.759136 0.856631 -0.272
N_ N_ 0.373796 0.756839 0.854889 -0.272
N_ N_ 0.122868 0.775927 0.989515 -0.12501
N_ N_ 0.377116 0.756362 0.98451 -0.12501
N_ N_ 0.120556 0.746481 0.647753 -0.272
N_ N_ 0.377393 0.747841 0.642718 -0.272
N_ N_ 0.119607 0.734677 0.514057 -0.12501
N_ N_ 0.371342 0.734389 0.510271 -0.12501
O_ O_ 0.0923485 0.792834 0.710104 -0.60745
O_ O_ 0.347139 0.79977 0.708358 -0.60745
O_ O_ 0.0974878 0.80319 0.776751 -0.60745
O_ O_ 0.347664 0.800486 0.776002 -0.60745
O_ O_ 0.158439 0.795008 0.779881 -0.60745
O_ O_ 0.405745 0.796232 0.785664 -0.60745
O_ O_ 0.153843 0.796757 0.711576 -0.60745
O_ O_ 0.411436 0.793446 0.716363 -0.60745
O_ O_ 0.154984 0.713006 0.79114 -0.60745
O_ O_ 0.400951 0.704861 0.788729 -0.60745
O_ O_ 0.157827 0.712413 0.722042 -0.60745
O_ O_ 0.405322 0.708617 0.721365 -0.60745
O_ O_ 0.0951916 0.704215 0.717901 -0.60745
O_ O_ 0.342423 0.710829 0.716243 -0.60745
O_ O_ 0.0916215 0.709322 0.784832 -0.60745
O_ O_ 0.340248 0.71772 0.784856 -0.60745
Zn Zn 0.622198 0.242936 0.288606 0.9476
Zn Zn 0.874785 0.248833 0.295955 0.9476
Zn Zn 0.623344 0.246523 0.217649 0.9476
Zn Zn 0.871803 0.249844 0.224725 0.9476
H_ H_ 0.533302 0.416941 0.183013 0.10932
H_ H_ 0.785907 0.41753 0.199987 0.10932
H_ H_ 0.550269 0.337775 0.31701 0.10932
H_ H_ 0.812442 0.349058 0.332493 0.10932
H_ H_ 0.567233 0.355429 0.182291 0.10932
H_ H_ 0.818387 0.360575 0.197353 0.10932
H_ H_ 0.518916 0.401049 0.315767 0.10932
H_ H_ 0.777504 0.410951 0.3339 0.10932
H_ H_ 0.697395 0.421812 0.327674 0.10932
H_ H_ 0.968424 0.407201 0.33769 0.10932
H_ H_ 0.684781 0.350165 0.191153 0.10932
H_ H_ 0.933985 0.363736 0.196483 0.10932
H_ H_ 0.66896 0.357003 0.324389 0.10932
H_ H_ 0.935648 0.350728 0.334325 0.10932
H_ H_ 0.718374 0.409686 0.197527 0.10932
H_ H_ 0.96376 0.426655 0.204956 0.10932
H_ H_ 0.724523 0.0759765 0.319116 0.10932
H_ H_ 0.95136 0.0668164 0.313063 0.10932
H_ H_ 0.688416 0.145669 0.187935 0.10932
H_ H_ 0.942562 0.161032 0.189035 0.10932
H_ H_ 0.691801 0.139811 0.323928 0.10932
H_ H_ 0.924515 0.131167 0.319546 0.10932
H_ H_ 0.716452 0.0822089 0.184652 0.10932
H_ H_ 0.971584 0.0929876 0.184782 0.10932
H_ H_ 0.531085 0.0863672 0.172742 0.10932
H_ H_ 0.791139 0.0810423 0.187923 0.10932
H_ H_ 0.555398 0.14355 0.314354 0.10932
H_ H_ 0.815796 0.136939 0.328895 0.10932
H_ H_ 0.558342 0.151323 0.181186 0.10932
H_ H_ 0.808691 0.151545 0.192458 0.10932
H_ H_ 0.524087 0.0837004 0.309193 0.10932
H_ H_ 0.794346 0.0678849 0.320959 0.10932
H_ H_ 0.625961 0.178472 0.357767 0.10932
H_ H_ 0.871673 0.18266 0.365949 0.10932
H_ H_ 0.620344 0.30942 0.366009 0.10932
H_ H_ 0.884293 0.313019 0.36842 0.10932
H_ H_ 0.621288 0.307238 0.438633 0.10932
H_ H_ 0.891862 0.307781 0.448514 0.10932
H_ H_ 0.614646 0.173527 0.437948 0.10932
H_ H_ 0.872571 0.179423 0.443607 0.10932
H_ H_ 0.629985 0.171513 0.147742 0.10932
H_ H_ 0.87107 0.317078 0.154284 0.10932
H_ H_ 0.616845 0.302491 0.139857 0.10932
H_ H_ 0.86651 0.18588 0.143948 0.10932
H_ H_ 0.610135 0.3025 0.0639034 0.10932
H_ H_ 0.870572 0.192056 0.0675104 0.10932
H_ H_ 0.628326 0.168985 0.0690326 0.10932
H_ H_ 0.86449 0.323553 0.0754719 0.10932
C_ C_ 0.56459 0.343351 0.250974 -0.02249
C_ C_ 0.816888 0.346424 0.265396 -0.02249
C_ C_ 0.515622 0.457095 0.252815 -0.02249
C_ C_ 0.763279 0.457056 0.266545 -0.02249
C_ C_ 0.539323 0.400496 0.213828 -0.11473
C_ C_ 0.78955 0.402844 0.22884 -0.11473
C_ C_ 0.551396 0.357077 0.289872 -0.11473
C_ C_ 0.806104 0.363369 0.303864 -0.11473
C_ C_ 0.555056 0.363683 0.212285 -0.11473
C_ C_ 0.80665 0.365178 0.227289 -0.11473
C_ C_ 0.531739 0.418196 0.251839 -0.02249
C_ C_ 0.779707 0.417921 0.266926 -0.02249
C_ C_ 0.584142 0.304645 0.248694 0.6875
C_ C_ 0.835494 0.307749 0.265865 0.6875
C_ C_ 0.535734 0.394592 0.28941 -0.11473
C_ C_ 0.787922 0.399611 0.305878 -0.11473
C_ C_ 0.677029 0.345507 0.259059 -0.02249
C_ C_ 0.934664 0.345635 0.264358 -0.02249
C_ C_ 0.731337 0.457432 0.264671 -0.02249
C_ C_ 0.987884 0.460192 0.275347 -0.02249
C_ C_ 0.700061 0.401699 0.300389 -0.11473
C_ C_ 0.96591 0.394287 0.306469 -0.11473
C_ C_ 0.691649 0.361079 0.22274 -0.11473
C_ C_ 0.941783 0.369292 0.227154 -0.11473
C_ C_ 0.68179 0.366472 0.298054 -0.11473
C_ C_ 0.946048 0.360214 0.303835 -0.11473
C_ C_ 0.712994 0.419379 0.264184 -0.02249
C_ C_ 0.972562 0.418454 0.271528 -0.02249
C_ C_ 0.657159 0.308136 0.256304 0.6875
C_ C_ 0.915773 0.307982 0.260336 0.6875
C_ C_ 0.707961 0.398081 0.225374 -0.11473
C_ C_ 0.958651 0.406852 0.233192 -0.11473
C_ C_ 0.687258 0.150807 0.255893 -0.02249
C_ C_ 0.929243 0.149823 0.253352 -0.02249
C_ C_ 0.735935 0.0351365 0.249751 -0.02249
C_ C_ 0.979352 0.0348459 0.246448 -0.02249
C_ C_ 0.714944 0.0929487 0.290876 -0.11473
C_ C_ 0.949115 0.0871755 0.285737 -0.11473
C_ C_ 0.694114 0.132052 0.216859 -0.11473
C_ C_ 0.942612 0.136796 0.215345 -0.11473
C_ C_ 0.697823 0.129517 0.293992 -0.11473
C_ C_ 0.932774 0.123366 0.288975 -0.11473
C_ C_ 0.721037 0.0757754 0.251674 -0.02249
C_ C_ 0.962025 0.0748356 0.247968 -0.02249
C_ C_ 0.665024 0.185645 0.257495 0.6875
C_ C_ 0.912653 0.189849 0.2565 0.6875
C_ C_ 0.711036 0.0944176 0.215891 -0.11473
C_ C_ 0.960164 0.101076 0.212194 -0.11473
C_ C_ 0.565851 0.146583 0.248765 -0.02249
C_ C_ 0.815275 0.15142 0.260328 -0.02249
C_ C_ 0.510139 0.0374021 0.23564 -0.02249
C_ C_ 0.76803 0.0336794 0.248199 -0.02249
C_ C_ 0.534487 0.0997466 0.203947 -0.11473
C_ C_ 0.793259 0.0944745 0.217204 -0.11473
C_ C_ 0.552017 0.129127 0.28383 -0.11473
C_ C_ 0.810601 0.126914 0.296595 -0.11473
C_ C_ 0.554111 0.133777 0.208703 -0.11473
C_ C_ 0.805299 0.134562 0.220867 -0.11473
C_ C_ 0.525551 0.0784031 0.239778 -0.02249
C_ C_ 0.787948 0.0714818 0.253241 -0.02249
C_ C_ 0.583881 0.183125 0.252315 0.6875
C_ C_ 0.833198 0.191821 0.262361 0.6875
C_ C_ 0.531542 0.0959394 0.280664 -0.11473
C_ C_ 0.796939 0.0877827 0.292136 -0.11473
C_ C_ 0.618951 0.205988 0.376067 0.17695
C_ C_ 0.871837 0.210619 0.383587 0.17695
C_ C_ 0.620705 0.278721 0.382746 0.17695
C_ C_ 0.880815 0.283675 0.38628 0.17695
C_ C_ 0.623699 0.277423 0.42558 -0.11473
C_ C_ 0.887395 0.281233 0.4304 -0.11473
C_ C_ 0.618745 0.239363 0.446323 0.23465
C_ C_ 0.878539 0.246236 0.452096 0.23465
C_ C_ 0.61513 0.203498 0.420893 -0.11473
C_ C_ 0.872665 0.209409 0.429116 -0.11473
C_ C_ 0.6279 0.201122 0.127744 0.17695
C_ C_ 0.868577 0.290187 0.133296 0.17695
C_ C_ 0.617761 0.272556 0.12291 0.17695
C_ C_ 0.866095 0.216746 0.128693 0.17695
C_ C_ 0.615987 0.27227 0.0779411 -0.11473
C_ C_ 0.867517 0.21978 0.0848874 -0.11473
C_ C_ 0.622628 0.234395 0.0585659 0.23465
C_ C_ 0.868748 0.258378 0.064268 0.23465
C_ C_ 0.626982 0.199205 0.0835523 -0.11473
C_ C_ 0.868259 0.294138 0.0890462 -0.11473
C_ C_ 0.530213 0.495399 0.254444 0.05793
C_ C_ 0.778816 0.494672 0.267068 0.05793
C_ C_ 0.717707 0.997224 0.249961 0.05793
C_ C_ 0.963868 0.996698 0.244269 0.05793
Br Br 0.574638 0.499681 0.257577 -0.17191
Br Br 0.821866 0.491361 0.265202 -0.17191
Br Br 0.674624 0.00297526 0.242706 -0.17191
Br Br 0.92181 -0.0029730000000000034 0.228805 -0.17191
N_ N_ 0.622081 0.244027 0.35882 -0.272
N_ N_ 0.878278 0.246448 0.364091 -0.272
N_ N_ 0.612703 0.234914 0.489964 -0.12501
N_ N_ 0.879452 0.242398 0.496456 -0.12501
N_ N_ 0.622648 0.237368 0.146837 -0.272
N_ N_ 0.866614 0.251685 0.152145 -0.272
N_ N_ 0.618763 0.229068 0.0139006 -0.12501
N_ N_ 0.86568 0.261515 0.0197031 -0.12501
O_ O_ 0.594197 0.289949 0.214879 -0.60745
O_ O_ 0.840521 0.290405 0.231135 -0.60745
O_ O_ 0.59009 0.286003 0.282739 -0.60745
O_ O_ 0.844394 0.292883 0.298261 -0.60745
O_ O_ 0.648628 0.291217 0.288738 -0.60745
O_ O_ 0.904558 0.294285 0.294005 -0.60745
O_ O_ 0.655412 0.28958 0.220869 -0.60745
O_ O_ 0.904406 0.295252 0.225749 -0.60745
O_ O_ 0.660024 0.203805 0.292338 -0.60745
O_ O_ 0.903822 0.199738 0.29205 -0.60745
O_ O_ 0.652607 0.199902 0.22471 -0.60745
O_ O_ 0.903283 0.210774 0.224241 -0.60745
O_ O_ 0.593053 0.201854 0.220137 -0.60745
O_ O_ 0.839933 0.209367 0.229417 -0.60745
O_ O_ 0.592738 0.194827 0.288774 -0.60745
O_ O_ 0.844915 0.203766 0.298334 -0.60745
Zn Zn 0.622856 0.251051 0.788196 0.9476
Zn Zn 0.875189 0.251606 0.791415 0.9476
Zn Zn 0.625329 0.252006 0.71914 0.9476
Zn Zn 0.873441 0.255361 0.721203 0.9476
H_ H_ 0.51981 0.400068 0.692347 0.10932
H_ H_ 0.769875 0.404065 0.691334 0.10932
H_ H_ 0.575295 0.363834 0.819172 0.10932
H_ H_ 0.816074 0.363698 0.82553 0.10932
H_ H_ 0.550344 0.338987 0.691995 0.10932
H_ H_ 0.800015 0.343479 0.693297 0.10932
H_ H_ 0.551998 0.430665 0.81245 0.10932
H_ H_ 0.795319 0.43071 0.820857 0.10932
H_ H_ 0.72425 0.404634 0.821323 0.10932
H_ H_ 0.971664 0.413889 0.823128 0.10932
H_ H_ 0.670111 0.369333 0.689216 0.10932
H_ H_ 0.930577 0.358697 0.691187 0.10932
H_ H_ 0.682211 0.361641 0.823713 0.10932
H_ H_ 0.93664 0.355074 0.822349 0.10932
H_ H_ 0.701609 0.430466 0.689476 0.10932
H_ H_ 0.955179 0.425761 0.690936 0.10932
H_ H_ 0.706092 0.0729143 0.804089 0.10932
H_ H_ 0.981562 0.0962244 0.81287 0.10932
H_ H_ 0.693355 0.164418 0.681867 0.10932
H_ H_ 0.927475 0.144588 0.681377 0.10932
H_ H_ 0.682653 0.141688 0.812952 0.10932
H_ H_ 0.953596 0.162402 0.814452 0.10932
H_ H_ 0.723602 0.0985483 0.677412 0.10932
H_ H_ 0.959795 0.0830433 0.681126 0.10932
H_ H_ 0.527207 0.0907229 0.678423 0.10932
H_ H_ 0.787468 0.0821282 0.684709 0.10932
H_ H_ 0.569898 0.142176 0.814173 0.10932
H_ H_ 0.812862 0.148529 0.819448 0.10932
H_ H_ 0.550709 0.159354 0.680544 0.10932
H_ H_ 0.814337 0.147746 0.682953 0.10932
H_ H_ 0.545576 0.070757 0.809225 0.10932
H_ H_ 0.786368 0.0823253 0.81722 0.10932
H_ H_ 0.616418 0.313641 0.860756 0.10932
H_ H_ 0.925028 0.240476 0.864952 0.10932
H_ H_ 0.633147 0.186684 0.86071 0.10932
H_ H_ 0.83246 0.256862 0.869832 0.10932
H_ H_ 0.632536 0.181352 0.938414 0.10932
H_ H_ 0.834115 0.266403 0.945533 0.10932
H_ H_ 0.626422 0.315254 0.937591 0.10932
H_ H_ 0.930338 0.238444 0.93799 0.10932
H_ H_ 0.633373 0.316786 0.649982 0.10932
H_ H_ 0.859107 0.32371 0.654115 0.10932
H_ H_ 0.616601 0.188086 0.641177 0.10932
H_ H_ 0.886161 0.198696 0.640284 0.10932
H_ H_ 0.606093 0.195598 0.563967 0.10932
H_ H_ 0.875373 0.2016 0.567064 0.10932
H_ H_ 0.632011 0.323938 0.568476 0.10932
H_ H_ 0.855829 0.331266 0.578823 0.10932
C_ C_ 0.567328 0.34761 0.75459 -0.02249
C_ C_ 0.811926 0.348174 0.760096 -0.02249
C_ C_ 0.514256 0.462858 0.746328 -0.02249
C_ C_ 0.764567 0.46368 0.757064 -0.02249
C_ C_ 0.534581 0.395219 0.716749 -0.11473
C_ C_ 0.781329 0.398624 0.720086 -0.11473
C_ C_ 0.562714 0.372154 0.79083 -0.11473
C_ C_ 0.807868 0.37219 0.796163 -0.11473
C_ C_ 0.552054 0.360088 0.716907 -0.11473
C_ C_ 0.797988 0.361659 0.721632 -0.11473
C_ C_ 0.53155 0.421734 0.74976 -0.02249
C_ C_ 0.780522 0.423452 0.755351 -0.02249
C_ C_ 0.583032 0.30799 0.756439 0.6875
C_ C_ 0.834424 0.313242 0.758955 0.6875
C_ C_ 0.548217 0.410925 0.786571 -0.11473
C_ C_ 0.796713 0.411237 0.791614 -0.11473
C_ C_ 0.676194 0.354569 0.754475 -0.02249
C_ C_ 0.936911 0.349038 0.755512 -0.02249
C_ C_ 0.733615 0.464885 0.755243 -0.02249
C_ C_ 0.985567 0.462554 0.758464 -0.02249
C_ C_ 0.71314 0.398981 0.791837 -0.11473
C_ C_ 0.963068 0.401806 0.793009 -0.11473
C_ C_ 0.682982 0.376414 0.717296 -0.11473
C_ C_ 0.942244 0.368764 0.719247 -0.11473
C_ C_ 0.690272 0.369634 0.792943 -0.11473
C_ C_ 0.946365 0.366339 0.793857 -0.11473
C_ C_ 0.715772 0.423795 0.755653 -0.02249
C_ C_ 0.967672 0.424447 0.757294 -0.02249
C_ C_ 0.656956 0.31616 0.752888 0.6875
C_ C_ 0.915212 0.312779 0.756012 0.6875
C_ C_ 0.700286 0.41248 0.718918 -0.11473
C_ C_ 0.957504 0.407622 0.719652 -0.11473
C_ C_ 0.684992 0.156941 0.748183 -0.02249
C_ C_ 0.936778 0.158117 0.748005 -0.02249
C_ C_ 0.733489 0.0407974 0.740281 -0.02249
C_ C_ 0.985356 0.0429258 0.746422 -0.02249
C_ C_ 0.70654 0.0944227 0.777513 -0.11473
C_ C_ 0.969776 0.107009 0.782491 -0.11473
C_ C_ 0.696206 0.143708 0.708934 -0.11473
C_ C_ 0.940642 0.136177 0.710296 -0.11473
C_ C_ 0.691488 0.132517 0.781652 -0.11473
C_ C_ 0.952818 0.144416 0.784254 -0.11473
C_ C_ 0.717138 0.0813565 0.739104 -0.02249
C_ C_ 0.968575 0.0821369 0.747206 -0.02249
C_ C_ 0.665783 0.195032 0.75081 0.6875
C_ C_ 0.915561 0.193651 0.749953 0.6875
C_ C_ 0.713011 0.107251 0.705177 -0.11473
C_ C_ 0.956655 0.0999084 0.710555 -0.11473
C_ C_ 0.560714 0.155362 0.747692 -0.02249
C_ C_ 0.813884 0.156208 0.751194 -0.02249
C_ C_ 0.513302 0.0393717 0.741739 -0.02249
C_ C_ 0.765033 0.0413297 0.749787 -0.02249
C_ C_ 0.533437 0.103028 0.708529 -0.11473
C_ C_ 0.789362 0.10025 0.713251 -0.11473
C_ C_ 0.5593 0.129113 0.783745 -0.11473
C_ C_ 0.806371 0.136209 0.78899 -0.11473
C_ C_ 0.547429 0.142804 0.710402 -0.11473
C_ C_ 0.807535 0.134274 0.71288 -0.11473
C_ C_ 0.531835 0.0786659 0.744063 -0.02249
C_ C_ 0.780819 0.0814473 0.751166 -0.02249
C_ C_ 0.58157 0.191542 0.751316 0.6875
C_ C_ 0.833058 0.193846 0.754797 0.6875
C_ C_ 0.545654 0.0906993 0.7806 -0.11473
C_ C_ 0.790095 0.0984945 0.789206 -0.11473
C_ C_ 0.621365 0.286235 0.877755 0.17695
C_ C_ 0.906092 0.247986 0.881192 0.17695
C_ C_ 0.62487 0.212285 0.877954 0.17695
C_ C_ 0.853833 0.256581 0.884489 0.17695
C_ C_ 0.62701 0.210481 0.922073 -0.11473
C_ C_ 0.854949 0.260691 0.928433 -0.11473
C_ C_ 0.628826 0.247661 0.944638 0.23465
C_ C_ 0.883747 0.253236 0.949751 0.23465
C_ C_ 0.626231 0.286412 0.921874 -0.11473
C_ C_ 0.908527 0.245518 0.924241 -0.11473
C_ C_ 0.625329 0.290096 0.630303 0.17695
C_ C_ 0.863053 0.296959 0.634893 0.17695
C_ C_ 0.616931 0.218004 0.624357 0.17695
C_ C_ 0.878941 0.227217 0.627503 0.17695
C_ C_ 0.613206 0.221547 0.581035 -0.11473
C_ C_ 0.874406 0.229274 0.585381 -0.11473
C_ C_ 0.617093 0.258897 0.55995 0.23465
C_ C_ 0.868337 0.267219 0.56408 0.23465
C_ C_ 0.6259 0.293836 0.58515 -0.11473
C_ C_ 0.861454 0.301406 0.592286 -0.11473
C_ C_ 0.530818 0.500985 0.746477 0.05793
C_ C_ 0.781562 0.501439 0.752556 0.05793
C_ C_ 0.719591 0.00386645 0.730834 0.05793
C_ C_ 0.969367 0.00364761 0.739664 0.05793
Br Br 0.573512 0.49933 0.73684 -0.17191
Br Br 0.824022 0.500119 0.743666 -0.17191
Br Br 0.678628 0.00446844 0.712407 -0.17191
Br Br 0.925669 0.0061853 0.730899 -0.17191
N_ N_ 0.623696 0.249274 0.857266 -0.272
N_ N_ 0.879595 0.250562 0.861578 -0.272
N_ N_ 0.635494 0.248589 0.98915 -0.12501
N_ N_ 0.886332 0.249023 0.996074 -0.12501
N_ N_ 0.622529 0.252594 0.648587 -0.272
N_ N_ 0.869306 0.258748 0.6527 -0.272
N_ N_ 0.616541 0.264273 0.516468 -0.12501
N_ N_ 0.868907 0.270331 0.519805 -0.12501
O_ O_ 0.592804 0.292782 0.722786 -0.60745
O_ O_ 0.844177 0.30105 0.722911 -0.60745
O_ O_ 0.588999 0.291032 0.790755 -0.60745
O_ O_ 0.843824 0.294394 0.792358 -0.60745
O_ O_ 0.648365 0.299783 0.785556 -0.60745
O_ O_ 0.909381 0.294359 0.790468 -0.60745
O_ O_ 0.651829 0.297815 0.717584 -0.60745
O_ O_ 0.903877 0.299387 0.723022 -0.60745
O_ O_ 0.657532 0.210497 0.786561 -0.60745
O_ O_ 0.908244 0.207238 0.783944 -0.60745
O_ O_ 0.657653 0.212322 0.716854 -0.60745
O_ O_ 0.905461 0.210773 0.71681 -0.60745
O_ O_ 0.590931 0.205164 0.716703 -0.60745
O_ O_ 0.840502 0.213892 0.722016 -0.60745
O_ O_ 0.595363 0.202962 0.785273 -0.60745
O_ O_ 0.842845 0.206339 0.789779 -0.60745
Zn Zn 0.623092 0.746072 0.277121 0.9476
Zn Zn 0.874244 0.746777 0.282775 0.9476
Zn Zn 0.620445 0.743888 0.205694 0.9476
Zn Zn 0.872751 0.745032 0.214994 0.9476
H_ H_ 0.532801 0.914029 0.165488 0.10932
H_ H_ 0.791303 0.916872 0.175855 0.10932
H_ H_ 0.571521 0.860607 0.300099 0.10932
H_ H_ 0.800974 0.840811 0.310042 0.10932
H_ H_ 0.563183 0.850316 0.166701 0.10932
H_ H_ 0.809643 0.84286 0.174422 0.10932
H_ H_ 0.545736 0.931536 0.298179 0.10932
H_ H_ 0.780537 0.909497 0.310124 0.10932
H_ H_ 0.713019 0.910412 0.314605 0.10932
H_ H_ 0.95133 0.926921 0.30563 0.10932
H_ H_ 0.681516 0.854697 0.172256 0.10932
H_ H_ 0.941423 0.840355 0.178279 0.10932
H_ H_ 0.693021 0.841125 0.308061 0.10932
H_ H_ 0.932784 0.856062 0.31014 0.10932
H_ H_ 0.714675 0.915061 0.175982 0.10932
H_ H_ 0.964588 0.909038 0.174646 0.10932
H_ H_ 0.715561 0.58445 0.322622 0.10932
H_ H_ 0.969168 0.589245 0.326818 0.10932
H_ H_ 0.676809 0.63421 0.189607 0.10932
H_ H_ 0.93004 0.630325 0.189195 0.10932
H_ H_ 0.680639 0.644524 0.31644 0.10932
H_ H_ 0.943642 0.652914 0.321824 0.10932
H_ H_ 0.713797 0.577541 0.190824 0.10932
H_ H_ 0.958572 0.569963 0.19428 0.10932
H_ H_ 0.540973 0.567731 0.182816 0.10932
H_ H_ 0.785076 0.56901 0.195085 0.10932
H_ H_ 0.547953 0.656241 0.309542 0.10932
H_ H_ 0.808174 0.649451 0.322803 0.10932
H_ H_ 0.572519 0.632497 0.182541 0.10932
H_ H_ 0.815073 0.636008 0.188901 0.10932
H_ H_ 0.527541 0.583912 0.313185 0.10932
H_ H_ 0.783194 0.583259 0.326527 0.10932
H_ H_ 0.623466 0.68137 0.351129 0.10932
H_ H_ 0.888438 0.811907 0.366106 0.10932
H_ H_ 0.636347 0.811303 0.348819 0.10932
H_ H_ 0.882946 0.682946 0.353399 0.10932
H_ H_ 0.628141 0.816786 0.424998 0.10932
H_ H_ 0.875341 0.675769 0.431104 0.10932
H_ H_ 0.625327 0.682703 0.429387 0.10932
H_ H_ 0.898698 0.805824 0.438791 0.10932
H_ H_ 0.618333 0.672525 0.138291 0.10932
H_ H_ 0.897059 0.690138 0.137547 0.10932
H_ H_ 0.632213 0.800611 0.130552 0.10932
H_ H_ 0.840083 0.79931 0.138265 0.10932
H_ H_ 0.635776 0.797303 0.052308 0.10932
H_ H_ 0.845125 0.801117 0.0588819 0.10932
H_ H_ 0.618282 0.667044 0.0616348 0.10932
H_ H_ 0.899014 0.691059 0.0620905 0.10932
C_ C_ 0.564057 0.847144 0.234558 -0.02249
C_ C_ 0.809523 0.836418 0.244336 -0.02249
C_ C_ 0.514074 0.96054 0.228271 -0.02249
C_ C_ 0.763473 0.956962 0.243444 -0.02249
C_ C_ 0.540085 0.903294 0.194568 -0.11473
C_ C_ 0.791892 0.899318 0.20506 -0.11473
C_ C_ 0.560312 0.870713 0.271198 -0.11473
C_ C_ 0.798822 0.856982 0.280113 -0.11473
C_ C_ 0.556626 0.86564 0.195337 -0.11473
C_ C_ 0.804283 0.858022 0.204429 -0.11473
C_ C_ 0.53359 0.923868 0.230913 -0.02249
C_ C_ 0.778753 0.916204 0.242659 -0.02249
C_ C_ 0.583346 0.809829 0.236878 0.6875
C_ C_ 0.832774 0.802123 0.246749 0.6875
C_ C_ 0.545554 0.909438 0.268645 -0.11473
C_ C_ 0.786055 0.896376 0.279234 -0.11473
C_ C_ 0.685273 0.83927 0.240278 -0.02249
C_ C_ 0.930591 0.843933 0.242685 -0.02249
C_ C_ 0.73229 0.959014 0.245046 -0.02249
C_ C_ 0.980355 0.959829 0.242026 -0.02249
C_ C_ 0.710363 0.897011 0.283263 -0.11473
C_ C_ 0.95047 0.907349 0.277608 -0.11473
C_ C_ 0.691078 0.863127 0.20364 -0.11473
C_ C_ 0.940837 0.860291 0.2052 -0.11473
C_ C_ 0.695441 0.85713 0.28002 -0.11473
C_ C_ 0.937101 0.868311 0.279832 -0.11473
C_ C_ 0.714778 0.918832 0.244795 -0.02249
C_ C_ 0.962289 0.920742 0.240996 -0.02249
C_ C_ 0.666114 0.801001 0.239108 0.6875
C_ C_ 0.908739 0.809086 0.244596 0.6875
C_ C_ 0.706919 0.900302 0.205342 -0.11473
C_ C_ 0.957467 0.897327 0.204122 -0.11473
C_ C_ 0.68165 0.648073 0.252814 -0.02249
C_ C_ 0.935425 0.649812 0.252353 -0.02249
C_ C_ 0.733316 0.53312 0.260471 -0.02249
C_ C_ 0.985099 0.534983 0.263562 -0.02249
C_ C_ 0.709479 0.59632 0.294159 -0.11473
C_ C_ 0.961781 0.598634 0.296796 -0.11473
C_ C_ 0.690731 0.627262 0.217029 -0.11473
C_ C_ 0.940777 0.62557 0.217818 -0.11473
C_ C_ 0.691197 0.631536 0.29102 -0.11473
C_ C_ 0.949281 0.637337 0.293007 -0.11473
C_ C_ 0.71674 0.574484 0.258204 -0.02249
C_ C_ 0.967795 0.574395 0.261446 -0.02249
C_ C_ 0.662131 0.684927 0.24978 0.6875
C_ C_ 0.914245 0.687359 0.250732 0.6875
C_ C_ 0.706393 0.590353 0.219617 -0.11473
C_ C_ 0.955987 0.587972 0.223262 -0.11473
C_ C_ 0.563239 0.64762 0.24512 -0.02249
C_ C_ 0.817438 0.645551 0.257027 -0.02249
C_ C_ 0.513756 0.533132 0.250759 -0.02249
C_ C_ 0.765013 0.533137 0.26699 -0.02249
C_ C_ 0.542632 0.585794 0.209727 -0.11473
C_ C_ 0.793678 0.585124 0.222653 -0.11473
C_ C_ 0.549619 0.635083 0.282414 -0.11473
C_ C_ 0.808027 0.629762 0.295466 -0.11473
C_ C_ 0.559169 0.622577 0.208629 -0.11473
C_ C_ 0.807162 0.625689 0.220163 -0.11473
C_ C_ 0.529557 0.573458 0.24689 -0.02249
C_ C_ 0.78133 0.572957 0.26081 -0.02249
C_ C_ 0.579931 0.687557 0.24146 0.6875
C_ C_ 0.835927 0.684418 0.253668 0.6875
C_ C_ 0.534016 0.596917 0.283539 -0.11473
C_ C_ 0.791031 0.594816 0.297249 -0.11473
C_ C_ 0.623716 0.711928 0.36799 0.17695
C_ C_ 0.885628 0.782323 0.379739 0.17695
C_ C_ 0.629028 0.7843 0.366579 0.17695
C_ C_ 0.880347 0.710631 0.371551 0.17695
C_ C_ 0.628118 0.785679 0.410212 -0.11473
C_ C_ 0.88126 0.705799 0.41672 -0.11473
C_ C_ 0.628495 0.749043 0.435285 0.23465
C_ C_ 0.887064 0.739691 0.442142 0.23465
C_ C_ 0.624249 0.711243 0.413661 -0.11473
C_ C_ 0.89155 0.778467 0.422467 -0.11473
C_ C_ 0.62292 0.700098 0.118727 0.17695
C_ C_ 0.88361 0.714813 0.12136 0.17695
C_ C_ 0.626916 0.771923 0.113655 0.17695
C_ C_ 0.854748 0.776406 0.120674 0.17695
C_ C_ 0.63102 0.770916 0.0705837 -0.11473
C_ C_ 0.856132 0.776547 0.0762322 -0.11473
C_ C_ 0.627255 0.732279 0.0508084 0.23465
C_ C_ 0.872606 0.746629 0.0543695 0.23465
C_ C_ 0.622161 0.697416 0.0747149 -0.11473
C_ C_ 0.88796 0.718102 0.078065 -0.11473
C_ C_ 0.528061 1.0000848831 0.230377 0.05793
C_ C_ 0.780953 0.993699 0.246997 0.05793
C_ C_ 0.715698 0.495001 0.258553 0.05793
C_ C_ 0.971029 0.496978 0.27151 0.05793
Br Br 0.571735 1.00494184 0.22667 -0.17191
Br Br 0.825782 0.989724 0.257391 -0.17191
Br Br 0.672486 0.502458 0.265895 -0.17191
Br Br 0.928118 0.493332 0.273116 -0.17191
N_ N_ 0.623403 0.748437 0.345999 -0.272
N_ N_ 0.881168 0.748584 0.353761 -0.272
N_ N_ 0.632014 0.753316 0.480088 -0.12501
N_ N_ 0.889388 0.735586 0.486392 -0.12501
N_ N_ 0.626243 0.737294 0.136945 -0.272
N_ N_ 0.870259 0.747217 0.141925 -0.272
N_ N_ 0.623214 0.728623 0.00665393 -0.12501
N_ N_ 0.872123 0.743547 0.0100174 -0.12501
O_ O_ 0.590079 0.789995 0.204047 -0.60745
O_ O_ 0.837998 0.782115 0.214282 -0.60745
O_ O_ 0.593404 0.795987 0.271889 -0.60745
O_ O_ 0.843912 0.793186 0.281219 -0.60745
O_ O_ 0.658309 0.785667 0.273838 -0.60745
O_ O_ 0.904281 0.7908 0.278911 -0.60745
O_ O_ 0.654722 0.787356 0.205438 -0.60745
O_ O_ 0.897078 0.796673 0.210701 -0.60745
O_ O_ 0.650908 0.700608 0.28152 -0.60745
O_ O_ 0.901354 0.699082 0.284068 -0.60745
O_ O_ 0.652287 0.697186 0.213724 -0.60745
O_ O_ 0.909587 0.706925 0.217075 -0.60745
O_ O_ 0.587163 0.701317 0.206222 -0.60745
O_ O_ 0.847856 0.69509 0.218559 -0.60745
O_ O_ 0.589079 0.705556 0.274547 -0.60745
O_ O_ 0.840885 0.704109 0.285675 -0.60745
Zn Zn 0.626713 0.751037 0.777736 0.9476
Zn Zn 0.881563 0.753981 0.785157 0.9476
Zn Zn 0.623098 0.753865 0.708467 0.9476
Zn Zn 0.876888 0.749446 0.714765 0.9476
H_ H_ 0.537506 0.924814 0.6746 0.10932
H_ H_ 0.793564 0.928073 0.679989 0.10932
H_ H_ 0.565037 0.852732 0.806509 0.10932
H_ H_ 0.805121 0.846374 0.808921 0.10932
H_ H_ 0.560435 0.85791 0.669632 0.10932
H_ H_ 0.833087 0.873072 0.685469 0.10932
H_ H_ 0.533278 0.916577 0.80969 0.10932
H_ H_ 0.776655 0.909204 0.81379 0.10932
H_ H_ 0.721714 0.914919 0.803858 0.10932
H_ H_ 0.95957 0.93031 0.807292 0.10932
H_ H_ 0.680514 0.860768 0.671695 0.10932
H_ H_ 0.946388 0.84661 0.677745 0.10932
H_ H_ 0.695854 0.849454 0.803858 0.10932
H_ H_ 0.92792 0.864909 0.807423 0.10932
H_ H_ 0.713804 0.9212 0.671824 0.10932
H_ H_ 0.969239 0.91589 0.674079 0.10932
H_ H_ 0.72982 0.601428 0.816418 0.10932
H_ H_ 0.960875 0.576574 0.821883 0.10932
H_ H_ 0.682714 0.644066 0.684526 0.10932
H_ H_ 0.942183 0.651323 0.688748 0.10932
H_ H_ 0.693583 0.65831 0.814066 0.10932
H_ H_ 0.930818 0.641838 0.818355 0.10932
H_ H_ 0.711604 0.577773 0.688884 0.10932
H_ H_ 0.975585 0.590203 0.688055 0.10932
H_ H_ 0.531763 0.582852 0.683183 0.10932
H_ H_ 0.777999 0.596034 0.688771 0.10932
H_ H_ 0.559238 0.656502 0.815093 0.10932
H_ H_ 0.836115 0.634035 0.812755 0.10932
H_ H_ 0.562804 0.642514 0.682634 0.10932
H_ H_ 0.801456 0.659947 0.687728 0.10932
H_ H_ 0.539705 0.586577 0.819856 0.10932
H_ H_ 0.800573 0.572578 0.81514 0.10932
H_ H_ 0.61653 0.687686 0.851657 0.10932
H_ H_ 0.863488 0.699328 0.861305 0.10932
H_ H_ 0.626725 0.81766 0.849356 0.10932
H_ H_ 0.888052 0.82581 0.855268 0.10932
H_ H_ 0.623855 0.821761 0.925142 0.10932
H_ H_ 0.882916 0.833128 0.933779 0.10932
H_ H_ 0.622819 0.687654 0.928699 0.10932
H_ H_ 0.856993 0.703435 0.938535 0.10932
H_ H_ 0.625632 0.683461 0.645312 0.10932
H_ H_ 0.876701 0.81323 0.644916 0.10932
H_ H_ 0.628177 0.809833 0.627254 0.10932
H_ H_ 0.879187 0.681911 0.6335 0.10932
H_ H_ 0.629716 0.801903 0.551578 0.10932
H_ H_ 0.877129 0.688621 0.554643 0.10932
H_ H_ 0.621952 0.669724 0.56875 0.10932
H_ H_ 0.876215 0.820535 0.564803 0.10932
C_ C_ 0.566738 0.851374 0.738085 -0.02249
C_ C_ 0.820292 0.851323 0.746829 -0.02249
C_ C_ 0.515489 0.963259 0.743884 -0.02249
C_ C_ 0.766071 0.965583 0.746281 -0.02249
C_ C_ 0.539248 0.90615 0.702672 -0.11473
C_ C_ 0.796763 0.910522 0.708895 -0.11473
C_ C_ 0.558806 0.86844 0.778375 -0.11473
C_ C_ 0.805713 0.866212 0.78301 -0.11473
C_ C_ 0.553534 0.867328 0.700624 -0.11473
C_ C_ 0.816337 0.874967 0.709727 -0.11473
C_ C_ 0.532526 0.922794 0.741437 -0.02249
C_ C_ 0.782958 0.924934 0.745989 -0.02249
C_ C_ 0.583212 0.810619 0.736268 0.6875
C_ C_ 0.839784 0.813816 0.746626 0.6875
C_ C_ 0.540589 0.903773 0.779806 -0.11473
C_ C_ 0.786779 0.900318 0.782517 -0.11473
C_ C_ 0.683056 0.85139 0.738621 -0.02249
C_ C_ 0.938097 0.848418 0.743094 -0.02249
C_ C_ 0.734635 0.96616 0.736697 -0.02249
C_ C_ 0.986036 0.966169 0.737336 -0.02249
C_ C_ 0.71144 0.905354 0.774949 -0.11473
C_ C_ 0.956389 0.912848 0.779156 -0.11473
C_ C_ 0.692738 0.868866 0.700145 -0.11473
C_ C_ 0.949589 0.864186 0.706515 -0.11473
C_ C_ 0.696735 0.866477 0.774329 -0.11473
C_ C_ 0.939666 0.874039 0.77996 -0.11473
C_ C_ 0.716709 0.926956 0.737355 -0.02249
C_ C_ 0.967719 0.926361 0.739606 -0.02249
C_ C_ 0.662747 0.815246 0.73935 0.6875
C_ C_ 0.919906 0.809816 0.745754 0.6875
C_ C_ 0.707694 0.907274 0.700604 -0.11473
C_ C_ 0.964647 0.900952 0.7048 -0.11473
C_ C_ 0.681263 0.652453 0.749607 -0.02249
C_ C_ 0.938583 0.654617 0.755617 -0.02249
C_ C_ 0.735011 0.54172 0.756872 -0.02249
C_ C_ 0.985304 0.537533 0.751309 -0.02249
C_ C_ 0.713159 0.602122 0.789663 -0.11473
C_ C_ 0.956758 0.593287 0.790733 -0.11473
C_ C_ 0.689076 0.630593 0.714109 -0.11473
C_ C_ 0.948619 0.63671 0.71807 -0.11473
C_ C_ 0.69246 0.637976 0.788164 -0.11473
C_ C_ 0.93971 0.628463 0.790134 -0.11473
C_ C_ 0.720167 0.581834 0.753359 -0.02249
C_ C_ 0.968526 0.57673 0.752285 -0.02249
C_ C_ 0.661814 0.69024 0.748055 0.6875
C_ C_ 0.919596 0.693002 0.754045 0.6875
C_ C_ 0.704781 0.59367 0.717726 -0.11473
C_ C_ 0.966297 0.601 0.717183 -0.11473
C_ C_ 0.566129 0.654516 0.747659 -0.02249
C_ C_ 0.819195 0.65578 0.752227 -0.02249
C_ C_ 0.516426 0.538623 0.753871 -0.02249
C_ C_ 0.766585 0.540501 0.752846 -0.02249
C_ C_ 0.539268 0.59706 0.712736 -0.11473
C_ C_ 0.787441 0.604759 0.717562 -0.11473
C_ C_ 0.55644 0.639605 0.785878 -0.11473
C_ C_ 0.820213 0.628121 0.786865 -0.11473
C_ C_ 0.555203 0.634598 0.711635 -0.11473
C_ C_ 0.800812 0.643609 0.717619 -0.11473
C_ C_ 0.533276 0.578562 0.752024 -0.02249
C_ C_ 0.784525 0.581449 0.753551 -0.02249
C_ C_ 0.587037 0.690515 0.745522 0.6875
C_ C_ 0.840109 0.692505 0.749381 0.6875
C_ C_ 0.542884 0.599991 0.788272 -0.11473
C_ C_ 0.801186 0.59324 0.788238 -0.11473
C_ C_ 0.622293 0.715756 0.86872 0.17695
C_ C_ 0.870757 0.727367 0.878011 0.17695
C_ C_ 0.62363 0.790053 0.867625 0.17695
C_ C_ 0.88555 0.796573 0.874635 0.17695
C_ C_ 0.623904 0.790818 0.91227 -0.11473
C_ C_ 0.879165 0.801882 0.918012 -0.11473
C_ C_ 0.621111 0.754332 0.93559 0.23465
C_ C_ 0.870406 0.767389 0.94066 0.23465
C_ C_ 0.623414 0.716232 0.912963 -0.11473
C_ C_ 0.864063 0.729979 0.920273 -0.11473
C_ C_ 0.624665 0.707942 0.623378 0.17695
C_ C_ 0.877821 0.786848 0.624746 0.17695
C_ C_ 0.630251 0.778967 0.61325 0.17695
C_ C_ 0.880053 0.712814 0.617656 0.17695
C_ C_ 0.632286 0.773126 0.569362 -0.11473
C_ C_ 0.876684 0.716158 0.573366 -0.11473
C_ C_ 0.626469 0.734948 0.551414 0.23465
C_ C_ 0.877221 0.754945 0.553943 0.23465
C_ C_ 0.625181 0.701038 0.579795 -0.11473
C_ C_ 0.878404 0.79068 0.580479 -0.11473
C_ C_ 0.529379 0.00219422 0.736573 0.05793
C_ C_ 0.781686 0.00346282 0.752434 0.05793
C_ C_ 0.718942 0.503205 0.757806 0.05793
C_ C_ 0.969278 0.501155 0.75528 0.05793
Br Br 0.572965 0.0023497 0.727452 -0.17191
Br Br 0.824784 1.00226079 0.765496 -0.17191
Br Br 0.677492 0.501144 0.777291 -0.17191
Br Br 0.925046 0.503234 0.751647 -0.17191
N_ N_ 0.622293 0.752603 0.847453 -0.272
N_ N_ 0.879211 0.760746 0.854263 -0.272
N_ N_ 0.62666 0.757868 0.980438 -0.12501
N_ N_ 0.867062 0.772364 0.985409 -0.12501
N_ N_ 0.625179 0.746349 0.638861 -0.272
N_ N_ 0.879195 0.747956 0.642066 -0.272
N_ N_ 0.62468 0.72727 0.506144 -0.12501
N_ N_ 0.872869 0.757414 0.510108 -0.12501
O_ O_ 0.594339 0.800032 0.702237 -0.60745
O_ O_ 0.8458 0.795727 0.712003 -0.60745
O_ O_ 0.592712 0.793292 0.770569 -0.60745
O_ O_ 0.84879 0.797559 0.781745 -0.60745
O_ O_ 0.654782 0.80069 0.77525 -0.60745
O_ O_ 0.912455 0.796215 0.781591 -0.60745
O_ O_ 0.654202 0.795918 0.706334 -0.60745
O_ O_ 0.909693 0.791905 0.713341 -0.60745
O_ O_ 0.660196 0.711556 0.780357 -0.60745
O_ O_ 0.909383 0.705808 0.788064 -0.60745
O_ O_ 0.648968 0.701496 0.713889 -0.60745
O_ O_ 0.906135 0.702993 0.71918 -0.60745
O_ O_ 0.590902 0.709255 0.710673 -0.60745
O_ O_ 0.845792 0.707371 0.714896 -0.60745
O_ O_ 0.598931 0.704843 0.779177 -0.60745
O_ O_ 0.853435 0.706273 0.783643 -0.60745
