_cell_length_a 44.444
_cell_length_b 32.3360000049186
_cell_length_c 31.843999878906452
_cell_angle_alpha 89.99799923859553
_cell_angle_beta 91.13600050494348
_cell_angle_gamma 89.9990006550086
_symmetry_space_group_name_H-M         'P 1'
_symmetry_Int_Tables_number            1
loop_
_symmetry_equiv_pos_as_xyz
   'x, y, z'
                         
loop_
_atom_site_label
_atom_site_type_symbol
_atom_site_fract_x 
_atom_site_fract_y
_atom_site_fract_z
_atom_site_charge
Zn Zn 0.131844 0.256666 0.281107 0.9476
Zn Zn 0.380919 0.249515 0.284824 0.9476
Zn Zn 0.125033 0.251397 0.210781 0.9476
Zn Zn 0.377901 0.250829 0.213636 0.9476
H_ H_ 0.0401449 0.429746 0.180488 0.10932
H_ H_ 0.28164 0.409056 0.182955 0.10932
H_ H_ 0.0621406 0.35869 0.312646 0.10932
H_ H_ 0.323336 0.355018 0.318822 0.10932
H_ H_ 0.067305 0.361415 0.180465 0.10932
H_ H_ 0.307458 0.342603 0.186635 0.10932
H_ H_ 0.0343041 0.418702 0.314164 0.10932
H_ H_ 0.297775 0.428982 0.314096 0.10932
H_ H_ 0.23509 0.406543 0.31014 0.10932
H_ H_ 0.457096 0.423787 0.315893 0.10932
H_ H_ 0.177485 0.362033 0.18119 0.10932
H_ H_ 0.440408 0.349133 0.181789 0.10932
H_ H_ 0.208624 0.340975 0.310894 0.10932
H_ H_ 0.418885 0.371178 0.309839 0.10932
H_ H_ 0.208548 0.427319 0.179779 0.10932
H_ H_ 0.47155 0.410461 0.181299 0.10932
H_ H_ 0.232103 0.0968145 0.317086 0.10932
H_ H_ 0.474645 0.0878344 0.317319 0.10932
H_ H_ 0.172853 0.130437 0.187172 0.10932
H_ H_ 0.430737 0.140449 0.181805 0.10932
H_ H_ 0.203446 0.162857 0.310519 0.10932
H_ H_ 0.455866 0.161161 0.310947 0.10932
H_ H_ 0.196594 0.0600365 0.19555 0.10932
H_ H_ 0.457307 0.0713684 0.187355 0.10932
H_ H_ 0.0245815 0.091465 0.193009 0.10932
H_ H_ 0.26668 0.101286 0.186108 0.10932
H_ H_ 0.0723932 0.150661 0.318376 0.10932
H_ H_ 0.329789 0.137671 0.313954 0.10932
H_ H_ 0.0454192 0.161662 0.190004 0.10932
H_ H_ 0.296077 0.163605 0.185256 0.10932
H_ H_ 0.0518334 0.0790499 0.320832 0.10932
H_ H_ 0.304615 0.0718309 0.311892 0.10932
H_ H_ 0.12997 0.19473 0.344181 0.10932
H_ H_ 0.362631 0.302855 0.361873 0.10932
H_ H_ 0.13905 0.320402 0.362614 0.10932
H_ H_ 0.38823 0.180523 0.355659 0.10932
H_ H_ 0.136389 0.311872 0.439181 0.10932
H_ H_ 0.38591 0.170749 0.432967 0.10932
H_ H_ 0.121647 0.182192 0.41998 0.10932
H_ H_ 0.360032 0.30107 0.442351 0.10932
H_ H_ 0.127273 0.318807 0.144705 0.10932
H_ H_ 0.355296 0.310758 0.144288 0.10932
H_ H_ 0.130361 0.188298 0.130991 0.10932
H_ H_ 0.40527 0.204973 0.13653 0.10932
H_ H_ 0.122736 0.194052 0.0533068 0.10932
H_ H_ 0.404761 0.206426 0.0570057 0.10932
H_ H_ 0.131898 0.325563 0.0656671 0.10932
H_ H_ 0.349705 0.314503 0.065286 0.10932
C_ C_ 0.0720741 0.35757 0.246255 -0.02249
C_ C_ 0.318501 0.345158 0.251088 -0.02249
C_ C_ 0.0150014 0.466821 0.243863 -0.02249
C_ C_ 0.271014 0.461808 0.246828 -0.02249
C_ C_ 0.0469022 0.414876 0.208343 -0.11473
C_ C_ 0.289527 0.397367 0.213405 -0.11473
C_ C_ 0.0607019 0.375644 0.284609 -0.11473
C_ C_ 0.315051 0.368494 0.289286 -0.11473
C_ C_ 0.0637293 0.377475 0.208231 -0.11473
C_ C_ 0.307765 0.361706 0.214345 -0.11473
C_ C_ 0.032011 0.427483 0.245111 -0.02249
C_ C_ 0.287324 0.42171 0.250114 -0.02249
C_ C_ 0.0865636 0.314793 0.245613 0.6875
C_ C_ 0.338865 0.309577 0.249145 0.6875
C_ C_ 0.0421301 0.409338 0.282956 -0.11473
C_ C_ 0.299994 0.407143 0.286214 -0.11473
C_ C_ 0.192333 0.346742 0.245733 -0.02249
C_ C_ 0.43152 0.351272 0.247337 -0.02249
C_ C_ 0.239014 0.462965 0.244666 -0.02249
C_ C_ 0.485633 0.461537 0.244732 -0.02249
C_ C_ 0.221848 0.398383 0.281952 -0.11473
C_ C_ 0.45598 0.407178 0.285436 -0.11473
C_ C_ 0.190021 0.372211 0.210185 -0.11473
C_ C_ 0.445296 0.364469 0.210772 -0.11473
C_ C_ 0.207167 0.360456 0.282898 -0.11473
C_ C_ 0.434375 0.375039 0.284072 -0.11473
C_ C_ 0.223225 0.424004 0.244553 -0.02249
C_ C_ 0.469669 0.421375 0.247488 -0.02249
C_ C_ 0.172088 0.309913 0.247126 0.6875
C_ C_ 0.418637 0.309746 0.25033 0.6875
C_ C_ 0.208991 0.408466 0.207468 -0.11473
C_ C_ 0.462511 0.399272 0.209974 -0.11473
C_ C_ 0.186949 0.151615 0.247789 -0.02249
C_ C_ 0.439384 0.154329 0.248031 -0.02249
C_ C_ 0.235398 0.0358173 0.256648 -0.02249
C_ C_ 0.484632 0.0360557 0.253732 -0.02249
C_ C_ 0.217715 0.102638 0.289848 -0.11473
C_ C_ 0.463569 0.0998325 0.287125 -0.11473
C_ C_ 0.185875 0.122034 0.214255 -0.11473
C_ C_ 0.442679 0.130643 0.210906 -0.11473
C_ C_ 0.202327 0.141202 0.285234 -0.11473
C_ C_ 0.45072 0.138821 0.285809 -0.11473
C_ C_ 0.216752 0.0742901 0.256718 -0.02249
C_ C_ 0.465687 0.0742839 0.252007 -0.02249
C_ C_ 0.168565 0.192032 0.245556 0.6875
C_ C_ 0.420032 0.191124 0.250369 0.6875
C_ C_ 0.19762 0.0820769 0.221082 -0.11473
C_ C_ 0.455279 0.0905629 0.213204 -0.11473
C_ C_ 0.0667837 0.157739 0.251394 -0.02249
C_ C_ 0.317161 0.154305 0.248031 -0.02249
C_ C_ 0.0212424 0.0400146 0.257661 -0.02249
C_ C_ 0.267065 0.0382926 0.248991 -0.02249
C_ C_ 0.0355956 0.103863 0.219298 -0.11473
C_ C_ 0.279133 0.109255 0.215654 -0.11473
C_ C_ 0.0673028 0.134972 0.288379 -0.11473
C_ C_ 0.315139 0.131162 0.28587 -0.11473
C_ C_ 0.0477148 0.143055 0.218236 -0.11473
C_ C_ 0.29809 0.142772 0.213219 -0.11473
C_ C_ 0.0389932 0.0798497 0.255457 -0.02249
C_ C_ 0.281442 0.0819446 0.250445 -0.02249
C_ C_ 0.0886394 0.194391 0.24568 0.6875
C_ C_ 0.336739 0.191391 0.246042 0.6875
C_ C_ 0.0538846 0.0962698 0.291188 -0.11473
C_ C_ 0.299813 0.0937565 0.286184 -0.11473
C_ C_ 0.130546 0.219498 0.365758 0.17695
C_ C_ 0.367651 0.275365 0.378702 0.17695
C_ C_ 0.136987 0.289542 0.377087 0.17695
C_ C_ 0.3813 0.205199 0.374752 0.17695
C_ C_ 0.133318 0.284551 0.41992 -0.11473
C_ C_ 0.377371 0.198859 0.418479 -0.11473
C_ C_ 0.129676 0.245941 0.436399 0.23465
C_ C_ 0.368278 0.233103 0.441226 0.23465
C_ C_ 0.126447 0.213554 0.409024 -0.11473
C_ C_ 0.364429 0.272768 0.423169 -0.11473
C_ C_ 0.12671 0.291088 0.123684 0.17695
C_ C_ 0.361151 0.286052 0.12341 0.17695
C_ C_ 0.12732 0.219155 0.116075 0.17695
C_ C_ 0.39437 0.229148 0.119506 0.17695
C_ C_ 0.124343 0.223538 0.071466 -0.11473
C_ C_ 0.391115 0.227707 0.0759323 -0.11473
C_ C_ 0.126615 0.261978 0.0530845 0.23465
C_ C_ 0.377182 0.261349 0.0546443 0.23465
C_ C_ 0.125644 0.295624 0.0795381 -0.11473
C_ C_ 0.361447 0.291009 0.0797845 -0.11473
C_ C_ 0.0309982 0.504998 0.243762 0.05793
C_ C_ 0.285653 0.499093 0.251695 0.05793
C_ C_ 0.221791 -0.0029050000000000464 0.260686 0.05793
C_ C_ 0.469812 0.998768 0.258002 0.05793
Br Br 0.0742223 0.505429 0.249804 -0.17191
Br Br 0.328763 0.498249 0.253403 -0.17191
Br Br 0.178022 -0.009438999999999975 0.270382 -0.17191
Br Br 0.427772 0.993136 0.272101 -0.17191
N_ N_ 0.130863 0.257256 0.350936 -0.272
N_ N_ 0.37663 0.242063 0.355952 -0.272
N_ N_ 0.132631 0.237519 0.480174 -0.12501
N_ N_ 0.372469 0.229026 0.48691 -0.12501
N_ N_ 0.125777 0.253468 0.141354 -0.272
N_ N_ 0.376968 0.255523 0.141598 -0.272
N_ N_ 0.127758 0.267295 0.00817591 -0.12501
N_ N_ 0.38021 0.268389 0.010276 -0.12501
O_ O_ 0.0925351 0.295146 0.21313 -0.60745
O_ O_ 0.350173 0.298045 0.214608 -0.60745
O_ O_ 0.100828 0.305627 0.27962 -0.60745
O_ O_ 0.348907 0.293832 0.282355 -0.60745
O_ O_ 0.165011 0.297153 0.283197 -0.60745
O_ O_ 0.409292 0.296489 0.285782 -0.60745
O_ O_ 0.158668 0.297119 0.213177 -0.60745
O_ O_ 0.411479 0.290169 0.217372 -0.60745
O_ O_ 0.162395 0.209398 0.279971 -0.60745
O_ O_ 0.41217 0.20513 0.285434 -0.60745
O_ O_ 0.156281 0.20506 0.211881 -0.60745
O_ O_ 0.408559 0.206806 0.217061 -0.60745
O_ O_ 0.0959304 0.206266 0.209437 -0.60745
O_ O_ 0.341381 0.209883 0.212404 -0.60745
O_ O_ 0.0974849 0.21393 0.278331 -0.60745
O_ O_ 0.351 0.202 0.278992 -0.60745
Zn Zn 0.126831 0.250758 0.778243 0.9476
Zn Zn 0.380174 0.250174 0.782269 0.9476
Zn Zn 0.120636 0.252205 0.711096 0.9476
Zn Zn 0.369853 0.249412 0.714963 0.9476
H_ H_ 0.0150192 0.404951 0.68171 0.10932
H_ H_ 0.288718 0.418179 0.685166 0.10932
H_ H_ 0.08358 0.373565 0.80452 0.10932
H_ H_ 0.315975 0.350616 0.825061 0.10932
H_ H_ 0.0460345 0.342101 0.680513 0.10932
H_ H_ 0.31204 0.348792 0.689064 0.10932
H_ H_ 0.0509603 0.438104 0.801238 0.10932
H_ H_ 0.289042 0.420366 0.823362 0.10932
H_ H_ 0.211938 0.417342 0.812708 0.10932
H_ H_ 0.464089 0.417994 0.810095 0.10932
H_ H_ 0.179753 0.353548 0.679504 0.10932
H_ H_ 0.430351 0.356362 0.674912 0.10932
H_ H_ 0.1855 0.353835 0.817765 0.10932
H_ H_ 0.438511 0.350544 0.812452 0.10932
H_ H_ 0.21414 0.413959 0.681805 0.10932
H_ H_ 0.458483 0.424582 0.677384 0.10932
H_ H_ 0.214586 0.0810128 0.8045 0.10932
H_ H_ 0.47191 0.0843295 0.806844 0.10932
H_ H_ 0.188862 0.155495 0.675317 0.10932
H_ H_ 0.429637 0.1407 0.67497 0.10932
H_ H_ 0.183746 0.147528 0.811277 0.10932
H_ H_ 0.453728 0.159609 0.804287 0.10932
H_ H_ 0.22095 0.0942102 0.675429 0.10932
H_ H_ 0.458377 0.0769616 0.674775 0.10932
H_ H_ 0.0271135 0.0811534 0.686376 0.10932
H_ H_ 0.301701 0.0745554 0.683937 0.10932
H_ H_ 0.077485 0.142263 0.811031 0.10932
H_ H_ 0.321393 0.137111 0.820918 0.10932
H_ H_ 0.0571138 0.140115 0.675994 0.10932
H_ H_ 0.326231 0.141141 0.684772 0.10932
H_ H_ 0.0427323 0.0842298 0.820154 0.10932
H_ H_ 0.280637 0.0891118 0.81543 0.10932
H_ H_ 0.128307 0.31238 0.855344 0.10932
H_ H_ 0.336078 0.250351 0.856415 0.10932
H_ H_ 0.128052 0.182631 0.849834 0.10932
H_ H_ 0.430052 0.253084 0.857426 0.10932
H_ H_ 0.131634 0.177856 0.926774 0.10932
H_ H_ 0.433222 0.240285 0.934567 0.10932
H_ H_ 0.125946 0.310731 0.93216 0.10932
H_ H_ 0.334833 0.241996 0.936581 0.10932
H_ H_ 0.146106 0.199422 0.635488 0.10932
H_ H_ 0.319983 0.23003 0.647777 0.10932
H_ H_ 0.0959512 0.309475 0.635491 0.10932
H_ H_ 0.410622 0.267299 0.635795 0.10932
H_ H_ 0.0918546 0.306241 0.557425 0.10932
H_ H_ 0.407565 0.262073 0.556926 0.10932
H_ H_ 0.157078 0.205282 0.558765 0.10932
H_ H_ 0.314519 0.224937 0.568352 0.10932
C_ C_ 0.0657477 0.350468 0.744104 -0.02249
C_ C_ 0.313783 0.343853 0.756477 -0.02249
C_ C_ 0.0161566 0.466298 0.737277 -0.02249
C_ C_ 0.266162 0.460536 0.751301 -0.02249
C_ C_ 0.030183 0.396785 0.706852 -0.11473
C_ C_ 0.29201 0.403088 0.716417 -0.11473
C_ C_ 0.0686938 0.379435 0.777503 -0.11473
C_ C_ 0.309796 0.366609 0.794495 -0.11473
C_ C_ 0.050038 0.363709 0.705835 -0.11473
C_ C_ 0.304819 0.362831 0.718571 -0.11473
C_ C_ 0.0343746 0.426552 0.739299 -0.02249
C_ C_ 0.28366 0.422035 0.75537 -0.02249
C_ C_ 0.0823975 0.310141 0.744982 0.6875
C_ C_ 0.332007 0.303665 0.756243 0.6875
C_ C_ 0.0515583 0.417048 0.775316 -0.11473
C_ C_ 0.295613 0.404895 0.793857 -0.11473
C_ C_ 0.18279 0.346648 0.750163 -0.02249
C_ C_ 0.431058 0.34797 0.743068 -0.02249
C_ C_ 0.234253 0.458268 0.743238 -0.02249
C_ C_ 0.478125 0.465014 0.747071 -0.02249
C_ C_ 0.209695 0.403002 0.784604 -0.11473
C_ C_ 0.457906 0.404063 0.781668 -0.11473
C_ C_ 0.190647 0.363115 0.709873 -0.11473
C_ C_ 0.437653 0.368672 0.705116 -0.11473
C_ C_ 0.19279 0.365644 0.786149 -0.11473
C_ C_ 0.442849 0.364693 0.781864 -0.11473
C_ C_ 0.218216 0.420544 0.746519 -0.02249
C_ C_ 0.46166 0.425978 0.742952 -0.02249
C_ C_ 0.163138 0.310037 0.750835 0.6875
C_ C_ 0.413147 0.309491 0.744235 0.6875
C_ C_ 0.209476 0.399078 0.709196 -0.11473
C_ C_ 0.454438 0.405255 0.706142 -0.11473
C_ C_ 0.182113 0.155411 0.742371 -0.02249
C_ C_ 0.4359 0.152628 0.740425 -0.02249
C_ C_ 0.23463 0.0426902 0.736857 -0.02249
C_ C_ 0.481611 0.0352734 0.740494 -0.02249
C_ C_ 0.208351 0.0983136 0.777895 -0.11473
C_ C_ 0.464534 0.0995654 0.778692 -0.11473
C_ C_ 0.193671 0.140677 0.704509 -0.11473
C_ C_ 0.44006 0.130535 0.703385 -0.11473
C_ C_ 0.191058 0.135699 0.780412 -0.11473
C_ C_ 0.453451 0.140119 0.77798 -0.11473
C_ C_ 0.217861 0.0829333 0.740355 -0.02249
C_ C_ 0.465412 0.0745529 0.741926 -0.02249
C_ C_ 0.16182 0.191624 0.743213 0.6875
C_ C_ 0.415226 0.189751 0.742379 0.6875
C_ C_ 0.212399 0.106051 0.70367 -0.11473
C_ C_ 0.45513 0.0932844 0.703874 -0.11473
C_ C_ 0.0686105 0.148437 0.743924 -0.02249
C_ C_ 0.319693 0.151213 0.752864 -0.02249
C_ C_ 0.01494 0.0372953 0.758171 -0.02249
C_ C_ 0.266135 0.0430242 0.749774 -0.02249
C_ C_ 0.0341122 0.0959104 0.715077 -0.11473
C_ C_ 0.297782 0.094479 0.711451 -0.11473
C_ C_ 0.063427 0.13331 0.784696 -0.11473
C_ C_ 0.309812 0.131544 0.788666 -0.11473
C_ C_ 0.052784 0.130974 0.709227 -0.11473
C_ C_ 0.314315 0.132601 0.712442 -0.11473
C_ C_ 0.0320093 0.0768658 0.754026 -0.02249
C_ C_ 0.28407 0.0793648 0.748176 -0.02249
C_ C_ 0.0858291 0.189356 0.740315 0.6875
C_ C_ 0.337742 0.189142 0.751836 0.6875
C_ C_ 0.0440502 0.099353 0.789292 -0.11473
C_ C_ 0.288548 0.101189 0.786227 -0.11473
C_ C_ 0.125231 0.282924 0.871523 0.17695
C_ C_ 0.356204 0.246295 0.874957 0.17695
C_ C_ 0.130248 0.211942 0.868938 0.17695
C_ C_ 0.409322 0.251635 0.875855 0.17695
C_ C_ 0.131717 0.207901 0.912652 -0.11473
C_ C_ 0.411264 0.245507 0.919479 -0.11473
C_ C_ 0.130857 0.242665 0.939093 0.23465
C_ C_ 0.383796 0.244182 0.941291 0.23465
C_ C_ 0.123545 0.280836 0.917097 -0.11473
C_ C_ 0.356226 0.24418 0.919873 -0.11473
C_ C_ 0.136991 0.224854 0.617534 0.17695
C_ C_ 0.338487 0.238293 0.626709 0.17695
C_ C_ 0.105316 0.283222 0.616725 0.17695
C_ C_ 0.388951 0.259928 0.620024 0.17695
C_ C_ 0.108175 0.286897 0.572208 -0.11473
C_ C_ 0.388013 0.254498 0.57701 -0.11473
C_ C_ 0.125438 0.258793 0.550108 0.23465
C_ C_ 0.359507 0.243128 0.557237 0.23465
C_ C_ 0.140496 0.226859 0.57366 -0.11473
C_ C_ 0.335579 0.232528 0.582462 -0.11473
C_ C_ 0.0307415 0.504159 0.731122 0.05793
C_ C_ 0.280787 0.500682 0.752964 0.05793
C_ C_ 0.219108 0.0054894 0.738274 0.05793
C_ C_ 0.46665 0.995371 0.746621 0.05793
Br Br 0.0731371 0.504411 0.722348 -0.17191
Br Br 0.323535 0.505468 0.753729 -0.17191
Br Br 0.176239 0.00585305 0.724791 -0.17191
Br Br 0.42467 0.993992 0.744513 -0.17191
N_ N_ 0.125574 0.248612 0.848488 -0.272
N_ N_ 0.382919 0.248962 0.8535 -0.272
N_ N_ 0.129368 0.237866 0.982857 -0.12501
N_ N_ 0.382854 0.238372 0.985058 -0.12501
N_ N_ 0.121453 0.254384 0.638675 -0.272
N_ N_ 0.364592 0.252116 0.64431 -0.272
N_ N_ 0.130887 0.266481 0.506109 -0.12501
N_ N_ 0.355681 0.247447 0.513371 -0.12501
O_ O_ 0.0886141 0.291983 0.710899 -0.60745
O_ O_ 0.337339 0.289098 0.721414 -0.60745
O_ O_ 0.0950244 0.298766 0.778328 -0.60745
O_ O_ 0.347158 0.293604 0.788569 -0.60745
O_ O_ 0.155892 0.295886 0.786538 -0.60745
O_ O_ 0.414244 0.288178 0.778217 -0.60745
O_ O_ 0.149291 0.297952 0.717164 -0.60745
O_ O_ 0.397524 0.299421 0.711045 -0.60745
O_ O_ 0.158614 0.211955 0.777071 -0.60745
O_ O_ 0.407775 0.201609 0.778679 -0.60745
O_ O_ 0.151046 0.208226 0.711037 -0.60745
O_ O_ 0.402865 0.207107 0.711424 -0.60745
O_ O_ 0.0930553 0.20544 0.705748 -0.60745
O_ O_ 0.342952 0.203543 0.716078 -0.60745
O_ O_ 0.0936931 0.207752 0.773646 -0.60745
O_ O_ 0.34703 0.208302 0.784397 -0.60745
Zn Zn 0.127982 0.750453 0.285355 0.9476
Zn Zn 0.377726 0.748227 0.285427 0.9476
Zn Zn 0.126097 0.752475 0.216421 0.9476
Zn Zn 0.377423 0.751445 0.217892 0.9476
H_ H_ 0.0306499 0.913723 0.187113 0.10932
H_ H_ 0.286072 0.918785 0.183276 0.10932
H_ H_ 0.0840043 0.868422 0.31752 0.10932
H_ H_ 0.32815 0.858564 0.314274 0.10932
H_ H_ 0.0604638 0.851438 0.186141 0.10932
H_ H_ 0.324806 0.864815 0.179903 0.10932
H_ H_ 0.0440101 0.925278 0.32042 0.10932
H_ H_ 0.297017 0.923788 0.31631 0.10932
H_ H_ 0.235578 0.901222 0.317902 0.10932
H_ H_ 0.478161 0.907141 0.324041 0.10932
H_ H_ 0.170376 0.871562 0.191132 0.10932
H_ H_ 0.422713 0.859103 0.193125 0.10932
H_ H_ 0.211084 0.832083 0.30813 0.10932
H_ H_ 0.455753 0.837854 0.324543 0.10932
H_ H_ 0.198675 0.93271 0.191409 0.10932
H_ H_ 0.450972 0.929152 0.195839 0.10932
H_ H_ 0.217865 0.583341 0.315569 0.10932
H_ H_ 0.455806 0.566884 0.31588 0.10932
H_ H_ 0.184489 0.645588 0.182064 0.10932
H_ H_ 0.452245 0.659834 0.19135 0.10932
H_ H_ 0.191412 0.645811 0.319323 0.10932
H_ H_ 0.433189 0.636288 0.322496 0.10932
H_ H_ 0.212763 0.582103 0.182928 0.10932
H_ H_ 0.478122 0.592299 0.189817 0.10932
H_ H_ 0.0356142 0.587615 0.181234 0.10932
H_ H_ 0.304983 0.573723 0.186111 0.10932
H_ H_ 0.0625568 0.650123 0.31602 0.10932
H_ H_ 0.30128 0.662792 0.309975 0.10932
H_ H_ 0.0762121 0.641994 0.185675 0.10932
H_ H_ 0.335585 0.633924 0.187108 0.10932
H_ H_ 0.0329983 0.587789 0.313444 0.10932
H_ H_ 0.281196 0.591184 0.316387 0.10932
H_ H_ 0.146454 0.815835 0.358701 0.10932
H_ H_ 0.370485 0.683304 0.357419 0.10932
H_ H_ 0.12742 0.689226 0.364542 0.10932
H_ H_ 0.381203 0.812833 0.361514 0.10932
H_ H_ 0.118175 0.694452 0.438135 0.10932
H_ H_ 0.374622 0.813663 0.439461 0.10932
H_ H_ 0.139277 0.82626 0.431229 0.10932
H_ H_ 0.372142 0.682229 0.437495 0.10932
H_ H_ 0.113717 0.688969 0.15015 0.10932
H_ H_ 0.385849 0.815672 0.137127 0.10932
H_ H_ 0.126382 0.816476 0.137043 0.10932
H_ H_ 0.377016 0.686095 0.147854 0.10932
H_ H_ 0.133497 0.810279 0.0581563 0.10932
H_ H_ 0.364664 0.68061 0.0699081 0.10932
H_ H_ 0.11223 0.68436 0.0683391 0.10932
H_ H_ 0.367562 0.81187 0.0637083 0.10932
C_ C_ 0.0726777 0.852805 0.251588 -0.02249
C_ C_ 0.324726 0.853363 0.249442 -0.02249
C_ C_ 0.0186523 0.964187 0.253476 -0.02249
C_ C_ 0.270465 0.963238 0.24942 -0.02249
C_ C_ 0.0389366 0.902103 0.215499 -0.11473
C_ C_ 0.297044 0.908197 0.212342 -0.11473
C_ C_ 0.0692246 0.875787 0.289847 -0.11473
C_ C_ 0.319561 0.873695 0.287605 -0.11473
C_ C_ 0.0571152 0.866643 0.215598 -0.11473
C_ C_ 0.316485 0.87445 0.210905 -0.11473
C_ C_ 0.0353047 0.923603 0.253184 -0.02249
C_ C_ 0.288759 0.924823 0.249952 -0.02249
C_ C_ 0.0916496 0.815632 0.249646 0.6875
C_ C_ 0.341428 0.813113 0.248206 0.6875
C_ C_ 0.0502169 0.910507 0.29143 -0.11473
C_ C_ 0.29829 0.907591 0.288068 -0.11473
C_ C_ 0.192944 0.841933 0.245539 -0.02249
C_ C_ 0.438239 0.8433 0.25773 -0.02249
C_ C_ 0.238188 0.960233 0.256006 -0.02249
C_ C_ 0.485094 0.96012 0.257275 -0.02249
C_ C_ 0.224493 0.892611 0.286788 -0.11473
C_ C_ 0.469258 0.896053 0.293914 -0.11473
C_ C_ 0.190841 0.872329 0.212742 -0.11473
C_ C_ 0.438513 0.867812 0.218415 -0.11473
C_ C_ 0.211572 0.851795 0.281539 -0.11473
C_ C_ 0.455754 0.856002 0.293928 -0.11473
C_ C_ 0.221744 0.92141 0.253552 -0.02249
C_ C_ 0.468742 0.920521 0.256804 -0.02249
C_ C_ 0.170707 0.808482 0.247492 0.6875
C_ C_ 0.418535 0.805828 0.256284 0.6875
C_ C_ 0.204555 0.909883 0.216119 -0.11473
C_ C_ 0.455321 0.905011 0.218456 -0.11473
C_ C_ 0.188617 0.654754 0.251331 -0.02249
C_ C_ 0.436489 0.64942 0.256215 -0.02249
C_ C_ 0.238422 0.538994 0.246026 -0.02249
C_ C_ 0.484568 0.535998 0.249549 -0.02249
C_ C_ 0.215018 0.598805 0.285938 -0.11473
C_ C_ 0.45676 0.589219 0.290667 -0.11473
C_ C_ 0.196762 0.637492 0.210751 -0.11473
C_ C_ 0.452023 0.638648 0.219234 -0.11473
C_ C_ 0.197901 0.634332 0.288495 -0.11473
C_ C_ 0.4399 0.624954 0.291697 -0.11473
C_ C_ 0.221145 0.579507 0.247767 -0.02249
C_ C_ 0.467963 0.575508 0.251078 -0.02249
C_ C_ 0.166928 0.689571 0.251736 0.6875
C_ C_ 0.417274 0.689389 0.256597 0.6875
C_ C_ 0.21278 0.600624 0.210383 -0.11473
C_ C_ 0.465709 0.600672 0.216197 -0.11473
C_ C_ 0.0706041 0.65288 0.250184 -0.02249
C_ C_ 0.318007 0.654937 0.24787 -0.02249
C_ C_ 0.0163021 0.542444 0.250246 -0.02249
C_ C_ 0.270419 0.537208 0.249041 -0.02249
C_ C_ 0.0457883 0.598842 0.210563 -0.11473
C_ C_ 0.303171 0.591667 0.213174 -0.11473
C_ C_ 0.0557919 0.638375 0.286593 -0.11473
C_ C_ 0.304136 0.641468 0.285138 -0.11473
C_ C_ 0.0650214 0.632414 0.212558 -0.11473
C_ C_ 0.320312 0.627919 0.214071 -0.11473
C_ C_ 0.0335627 0.581529 0.248385 -0.02249
C_ C_ 0.286885 0.577803 0.249676 -0.02249
C_ C_ 0.0894468 0.692105 0.252197 0.6875
C_ C_ 0.336178 0.692454 0.251497 0.6875
C_ C_ 0.0413273 0.600469 0.285917 -0.11473
C_ C_ 0.289825 0.60169 0.285815 -0.11473
C_ C_ 0.139364 0.789133 0.374906 0.17695
C_ C_ 0.3724 0.710822 0.375463 0.17695
C_ C_ 0.125731 0.719054 0.378801 0.17695
C_ C_ 0.374526 0.784591 0.377459 0.17695
C_ C_ 0.127 0.720969 0.42156 -0.11473
C_ C_ 0.371708 0.783871 0.420307 -0.11473
C_ C_ 0.131066 0.759107 0.442465 0.23465
C_ C_ 0.371137 0.746275 0.442214 0.23465
C_ C_ 0.137511 0.794404 0.418508 -0.11473
C_ C_ 0.372043 0.709051 0.419205 -0.11473
C_ C_ 0.114707 0.715727 0.129005 0.17695
C_ C_ 0.383061 0.784838 0.123173 0.17695
C_ C_ 0.126599 0.78595 0.121898 0.17695
C_ C_ 0.37516 0.711721 0.128177 0.17695
C_ C_ 0.129637 0.782681 0.0777229 -0.11473
C_ C_ 0.371955 0.70836 0.083873 -0.11473
C_ C_ 0.123475 0.745435 0.0590583 0.23465
C_ C_ 0.371167 0.744838 0.0584746 0.23465
C_ C_ 0.117784 0.710758 0.0845056 -0.11473
C_ C_ 0.373314 0.782932 0.0797504 -0.11473
C_ C_ 0.0358221 1.00191434 0.250592 0.05793
C_ C_ 0.283984 1.00212003 0.248246 0.05793
C_ C_ 0.223298 0.501271 0.246809 0.05793
C_ C_ 0.468339 0.498929 0.244571 0.05793
Br Br 0.0788534 -0.00032902 0.250645 -0.17191
Br Br 0.32547 1.00396494 0.231392 -0.17191
Br Br 0.180248 0.498505 0.239517 -0.17191
Br Br 0.426361 0.502599 0.228649 -0.17191
N_ N_ 0.13404 0.75223 0.356123 -0.272
N_ N_ 0.374104 0.748193 0.355646 -0.272
N_ N_ 0.12974 0.763496 0.486877 -0.12501
N_ N_ 0.380097 0.746243 0.486403 -0.12501
N_ N_ 0.120981 0.751986 0.146616 -0.272
N_ N_ 0.37927 0.749658 0.146265 -0.272
N_ N_ 0.123435 0.739419 0.0142414 -0.12501
N_ N_ 0.36727 0.738758 0.0140418 -0.12501
O_ O_ 0.0946265 0.795391 0.217108 -0.60745
O_ O_ 0.34974 0.798451 0.214008 -0.60745
O_ O_ 0.0998014 0.800395 0.283859 -0.60745
O_ O_ 0.349693 0.79778 0.2823 -0.60745
O_ O_ 0.162827 0.79363 0.282541 -0.60745
O_ O_ 0.407193 0.792348 0.289044 -0.60745
O_ O_ 0.156063 0.796177 0.214229 -0.60745
O_ O_ 0.412299 0.789737 0.221745 -0.60745
O_ O_ 0.156173 0.702836 0.285191 -0.60745
O_ O_ 0.410228 0.705205 0.290842 -0.60745
O_ O_ 0.158189 0.705125 0.216918 -0.60745
O_ O_ 0.404561 0.70335 0.223556 -0.60745
O_ O_ 0.0975476 0.709404 0.21789 -0.60745
O_ O_ 0.340986 0.712645 0.21779 -0.60745
O_ O_ 0.0959772 0.707931 0.287424 -0.60745
O_ O_ 0.345642 0.706835 0.287146 -0.60745
Zn Zn 0.128407 0.75007 0.786109 0.9476
Zn Zn 0.367103 0.753661 0.781585 0.9476
Zn Zn 0.126745 0.753937 0.716946 0.9476
Zn Zn 0.36511 0.752296 0.716677 0.9476
H_ H_ 0.0419243 0.927709 0.69386 0.10932
H_ H_ 0.290547 0.93488 0.687419 0.10932
H_ H_ 0.0584282 0.845547 0.821545 0.10932
H_ H_ 0.30378 0.850964 0.812786 0.10932
H_ H_ 0.0678831 0.858514 0.690843 0.10932
H_ H_ 0.315486 0.865013 0.678134 0.10932
H_ H_ 0.0205416 0.902557 0.823931 0.10932
H_ H_ 0.27334 0.914868 0.813122 0.10932
H_ H_ 0.210316 0.928 0.808752 0.10932
H_ H_ 0.460999 0.91984 0.811612 0.10932
H_ H_ 0.187192 0.854487 0.673299 0.10932
H_ H_ 0.432677 0.843611 0.683489 0.10932
H_ H_ 0.181355 0.86327 0.807782 0.10932
H_ H_ 0.431652 0.858101 0.818384 0.10932
H_ H_ 0.211453 0.92461 0.675898 0.10932
H_ H_ 0.464229 0.907223 0.679082 0.10932
H_ H_ 0.193493 0.564087 0.808402 0.10932
H_ H_ 0.468528 0.591043 0.813735 0.10932
H_ H_ 0.202124 0.664091 0.690643 0.10932
H_ H_ 0.422548 0.648151 0.681508 0.10932
H_ H_ 0.170088 0.630866 0.811456 0.10932
H_ H_ 0.438948 0.653623 0.818016 0.10932
H_ H_ 0.228721 0.597666 0.688011 0.10932
H_ H_ 0.446206 0.579398 0.682385 0.10932
H_ H_ 0.0293836 0.600581 0.680573 0.10932
H_ H_ 0.296737 0.572273 0.688609 0.10932
H_ H_ 0.0693563 0.644583 0.816832 0.10932
H_ H_ 0.295278 0.661254 0.817131 0.10932
H_ H_ 0.0562809 0.661204 0.686145 0.10932
H_ H_ 0.319614 0.64091 0.686374 0.10932
H_ H_ 0.0336733 0.578888 0.811764 0.10932
H_ H_ 0.263783 0.596834 0.810686 0.10932
H_ H_ 0.130418 0.820046 0.855074 0.10932
H_ H_ 0.353935 0.818999 0.854584 0.10932
H_ H_ 0.124164 0.6872 0.86454 0.10932
H_ H_ 0.388163 0.692596 0.864556 0.10932
H_ H_ 0.118215 0.697994 0.943181 0.10932
H_ H_ 0.390194 0.701881 0.942078 0.10932
H_ H_ 0.131209 0.825838 0.93463 0.10932
H_ H_ 0.354003 0.824856 0.930198 0.10932
H_ H_ 0.130391 0.682438 0.642355 0.10932
H_ H_ 0.376145 0.810408 0.636323 0.10932
H_ H_ 0.114273 0.813424 0.631776 0.10932
H_ H_ 0.365586 0.682744 0.645364 0.10932
H_ H_ 0.114725 0.804618 0.552101 0.10932
H_ H_ 0.363431 0.674116 0.5697 0.10932
H_ H_ 0.13199 0.674658 0.56876 0.10932
H_ H_ 0.373001 0.805864 0.557295 0.10932
C_ C_ 0.0666427 0.848989 0.757957 -0.02249
C_ C_ 0.312409 0.854433 0.746717 -0.02249
C_ C_ 0.0144332 0.960557 0.76004 -0.02249
C_ C_ 0.264768 0.968519 0.750844 -0.02249
C_ C_ 0.042204 0.906532 0.721537 -0.11473
C_ C_ 0.292719 0.914272 0.713038 -0.11473
C_ C_ 0.0547795 0.863074 0.794856 -0.11473
C_ C_ 0.30166 0.869429 0.78563 -0.11473
C_ C_ 0.0598062 0.870964 0.72116 -0.11473
C_ C_ 0.309605 0.878417 0.710392 -0.11473
C_ C_ 0.0305148 0.920346 0.759616 -0.02249
C_ C_ 0.280744 0.929286 0.752069 -0.02249
C_ C_ 0.0876786 0.811183 0.756832 0.6875
C_ C_ 0.330959 0.816005 0.745089 0.6875
C_ C_ 0.0338731 0.896295 0.795953 -0.11473
C_ C_ 0.28752 0.907479 0.787816 -0.11473
C_ C_ 0.183633 0.85164 0.742882 -0.02249
C_ C_ 0.431231 0.845971 0.750916 -0.02249
C_ C_ 0.233595 0.967892 0.743249 -0.02249
C_ C_ 0.483967 0.957161 0.743508 -0.02249
C_ C_ 0.208514 0.908294 0.780732 -0.11473
C_ C_ 0.457399 0.903134 0.783078 -0.11473
C_ C_ 0.192191 0.869437 0.703735 -0.11473
C_ C_ 0.441671 0.857792 0.710352 -0.11473
C_ C_ 0.190271 0.873452 0.780389 -0.11473
C_ C_ 0.438382 0.868891 0.786873 -0.11473
C_ C_ 0.215444 0.926379 0.742788 -0.02249
C_ C_ 0.466282 0.916766 0.744868 -0.02249
C_ C_ 0.164986 0.812925 0.744405 0.6875
C_ C_ 0.4088 0.810528 0.751317 0.6875
C_ C_ 0.20439 0.909813 0.705422 -0.11473
C_ C_ 0.461345 0.89363 0.708577 -0.11473
C_ C_ 0.18271 0.651235 0.749259 -0.02249
C_ C_ 0.427204 0.655191 0.749337 -0.02249
C_ C_ 0.232023 0.534777 0.747696 -0.02249
C_ C_ 0.477108 0.54041 0.74569 -0.02249
C_ C_ 0.193015 0.583169 0.779674 -0.11473
C_ C_ 0.45692 0.600124 0.785075 -0.11473
C_ C_ 0.199476 0.641268 0.715117 -0.11473
C_ C_ 0.431855 0.635469 0.712231 -0.11473
C_ C_ 0.179699 0.622874 0.782359 -0.11473
C_ C_ 0.440319 0.636429 0.787117 -0.11473
C_ C_ 0.211994 0.5725 0.745805 -0.02249
C_ C_ 0.459894 0.580029 0.747318 -0.02249
C_ C_ 0.166768 0.690992 0.749515 0.6875
C_ C_ 0.40597 0.692669 0.751041 0.6875
C_ C_ 0.214916 0.602351 0.714856 -0.11473
C_ C_ 0.446135 0.597032 0.71177 -0.11473
C_ C_ 0.0613895 0.660962 0.753434 -0.02249
C_ C_ 0.308447 0.65465 0.750706 -0.02249
C_ C_ 0.0147844 0.541673 0.741488 -0.02249
C_ C_ 0.26463 0.537323 0.751541 -0.02249
C_ C_ 0.0342345 0.609932 0.710984 -0.11473
C_ C_ 0.294432 0.59228 0.715644 -0.11473
C_ C_ 0.0554408 0.636743 0.789943 -0.11473
C_ C_ 0.293157 0.642103 0.78769 -0.11473
C_ C_ 0.0502336 0.64779 0.714403 -0.11473
C_ C_ 0.306035 0.631855 0.713435 -0.11473
C_ C_ 0.0308587 0.583131 0.744283 -0.02249
C_ C_ 0.280882 0.577708 0.751884 -0.02249
C_ C_ 0.0849792 0.693008 0.753567 0.6875
C_ C_ 0.32569 0.693473 0.750055 0.6875
C_ C_ 0.0399572 0.597705 0.784388 -0.11473
C_ C_ 0.278395 0.60453 0.786063 -0.11473
C_ C_ 0.128559 0.791461 0.874321 0.17695
C_ C_ 0.362004 0.792108 0.872918 0.17695
C_ C_ 0.125108 0.718762 0.880078 0.17695
C_ C_ 0.378371 0.721809 0.879708 0.17695
C_ C_ 0.123974 0.722494 0.924476 -0.11473
C_ C_ 0.379535 0.72594 0.923948 -0.11473
C_ C_ 0.125991 0.761671 0.9453 0.23465
C_ C_ 0.368668 0.762514 0.943523 0.23465
C_ C_ 0.127394 0.795995 0.917419 -0.11473
C_ C_ 0.363582 0.79678 0.915943 -0.11473
C_ C_ 0.130177 0.712312 0.625566 0.17695
C_ C_ 0.373734 0.781202 0.620772 0.17695
C_ C_ 0.119114 0.783208 0.618052 0.17695
C_ C_ 0.36744 0.709245 0.627019 0.17695
C_ C_ 0.12164 0.778702 0.572342 -0.11473
C_ C_ 0.365165 0.704778 0.583464 -0.11473
C_ C_ 0.126735 0.740218 0.555554 0.23465
C_ C_ 0.369026 0.739358 0.557689 0.23465
C_ C_ 0.128973 0.705921 0.581976 -0.11473
C_ C_ 0.375452 0.777023 0.57672 -0.11473
C_ C_ 0.0300108 -0.000573208 0.759094 0.05793
C_ C_ 0.281148 0.00568312 0.756248 0.05793
C_ C_ 0.21769 0.495018 0.737084 0.05793
C_ C_ 0.461254 0.501834 0.745098 0.05793
Br Br 0.0731147 0.00075763 0.757037 -0.17191
Br Br 0.322934 -0.0014607 0.774814 -0.17191
Br Br 0.175621 0.490977 0.718498 -0.17191
Br Br 0.418301 0.500243 0.738796 -0.17191
N_ N_ 0.12843 0.75347 0.855363 -0.272
N_ N_ 0.366217 0.754587 0.8553 -0.272
N_ N_ 0.129231 0.768116 0.989071 -0.12501
N_ N_ 0.368639 0.768352 0.987704 -0.12501
N_ N_ 0.123366 0.74971 0.644158 -0.272
N_ N_ 0.368516 0.747542 0.645141 -0.272
N_ N_ 0.127796 0.734096 0.511178 -0.12501
N_ N_ 0.360686 0.740158 0.513993 -0.12501
O_ O_ 0.0943291 0.795456 0.722376 -0.60745
O_ O_ 0.340579 0.801971 0.710892 -0.60745
O_ O_ 0.0964921 0.794241 0.791144 -0.60745
O_ O_ 0.334606 0.794624 0.777598 -0.60745
O_ O_ 0.158329 0.798962 0.780547 -0.60745
O_ O_ 0.394923 0.800785 0.783792 -0.60745
O_ O_ 0.154976 0.794987 0.710896 -0.60745
O_ O_ 0.399701 0.793889 0.717614 -0.60745
O_ O_ 0.160794 0.70699 0.785269 -0.60745
O_ O_ 0.402044 0.710451 0.785029 -0.60745
O_ O_ 0.155864 0.706953 0.716275 -0.60745
O_ O_ 0.39261 0.70475 0.717141 -0.60745
O_ O_ 0.0936585 0.707437 0.720315 -0.60745
O_ O_ 0.330845 0.710989 0.715212 -0.60745
O_ O_ 0.0972719 0.703789 0.787027 -0.60745
O_ O_ 0.338766 0.705981 0.782356 -0.60745
Zn Zn 0.626718 0.248729 0.282974 0.9476
Zn Zn 0.876676 0.24804 0.282042 0.9476
Zn Zn 0.623646 0.248423 0.214712 0.9476
Zn Zn 0.875787 0.245732 0.209851 0.9476
H_ H_ 0.544521 0.425808 0.181992 0.10932
H_ H_ 0.795313 0.417365 0.178123 0.10932
H_ H_ 0.559492 0.342881 0.312246 0.10932
H_ H_ 0.8009 0.336725 0.309227 0.10932
H_ H_ 0.57604 0.360455 0.180962 0.10932
H_ H_ 0.821545 0.35068 0.181239 0.10932
H_ H_ 0.529798 0.409819 0.313918 0.10932
H_ H_ 0.767631 0.395258 0.306848 0.10932
H_ H_ 0.699282 0.433614 0.306493 0.10932
H_ H_ 0.956793 0.425196 0.315898 0.10932
H_ H_ 0.704651 0.327738 0.190748 0.10932
H_ H_ 0.938192 0.352497 0.179391 0.10932
H_ H_ 0.672895 0.366428 0.311891 0.10932
H_ H_ 0.927546 0.360497 0.313594 0.10932
H_ H_ 0.731074 0.398147 0.185903 0.10932
H_ H_ 0.974461 0.407971 0.18435 0.10932
H_ H_ 0.725479 0.092475 0.318294 0.10932
H_ H_ 0.975666 0.0938031 0.321324 0.10932
H_ H_ 0.682762 0.141545 0.183576 0.10932
H_ H_ 0.937586 0.13386 0.183265 0.10932
H_ H_ 0.703129 0.159781 0.317189 0.10932
H_ H_ 0.944208 0.15872 0.317991 0.10932
H_ H_ 0.70741 0.0746123 0.185969 0.10932
H_ H_ 0.965502 0.071797 0.189379 0.10932
H_ H_ 0.533684 0.0862665 0.181525 0.10932
H_ H_ 0.782323 0.0793042 0.18485 0.10932
H_ H_ 0.573412 0.140813 0.315014 0.10932
H_ H_ 0.828978 0.129419 0.313416 0.10932
H_ H_ 0.554305 0.156246 0.183223 0.10932
H_ H_ 0.808229 0.146511 0.180798 0.10932
H_ H_ 0.542805 0.0753088 0.316655 0.10932
H_ H_ 0.800629 0.0687421 0.313561 0.10932
H_ H_ 0.625902 0.183972 0.352748 0.10932
H_ H_ 0.868198 0.181712 0.353618 0.10932
H_ H_ 0.617931 0.311549 0.357934 0.10932
H_ H_ 0.86597 0.312533 0.357955 0.10932
H_ H_ 0.604284 0.310306 0.435388 0.10932
H_ H_ 0.865734 0.306561 0.440266 0.10932
H_ H_ 0.6199 0.177807 0.430515 0.10932
H_ H_ 0.875706 0.174343 0.43082 0.10932
H_ H_ 0.619774 0.183862 0.1433 0.10932
H_ H_ 0.841109 0.202028 0.13842 0.10932
H_ H_ 0.62911 0.312742 0.133003 0.10932
H_ H_ 0.914187 0.288636 0.132335 0.10932
H_ H_ 0.633764 0.307067 0.0585137 0.10932
H_ H_ 0.906705 0.29232 0.0540108 0.10932
H_ H_ 0.612058 0.176983 0.0674763 0.10932
H_ H_ 0.840737 0.196218 0.0596036 0.10932
C_ C_ 0.566975 0.347907 0.245388 -0.02249
C_ C_ 0.814964 0.340299 0.245686 -0.02249
C_ C_ 0.5182 0.461818 0.250199 -0.02249
C_ C_ 0.766669 0.457531 0.243009 -0.02249
C_ C_ 0.547778 0.409967 0.210681 -0.11473
C_ C_ 0.79646 0.398503 0.207191 -0.11473
C_ C_ 0.55559 0.362577 0.283218 -0.11473
C_ C_ 0.799668 0.354332 0.27971 -0.11473
C_ C_ 0.562561 0.371342 0.208922 -0.11473
C_ C_ 0.813583 0.36304 0.209926 -0.11473
C_ C_ 0.533948 0.422368 0.248626 -0.02249
C_ C_ 0.782777 0.41601 0.243387 -0.02249
C_ C_ 0.584739 0.309052 0.243869 0.6875
C_ C_ 0.833408 0.303604 0.249271 0.6875
C_ C_ 0.539946 0.400141 0.284613 -0.11473
C_ C_ 0.780199 0.388098 0.279017 -0.11473
C_ C_ 0.683083 0.34589 0.249219 -0.02249
C_ C_ 0.933467 0.35065 0.248266 -0.02249
C_ C_ 0.734631 0.458433 0.243213 -0.02249
C_ C_ 0.982698 0.467261 0.246863 -0.02249
C_ C_ 0.698431 0.413486 0.279911 -0.11473
C_ C_ 0.954971 0.407615 0.285737 -0.11473
C_ C_ 0.701888 0.352031 0.215016 -0.11473
C_ C_ 0.943693 0.367135 0.211002 -0.11473
C_ C_ 0.683751 0.375548 0.282601 -0.11473
C_ C_ 0.935399 0.373711 0.285705 -0.11473
C_ C_ 0.717099 0.420017 0.24491 -0.02249
C_ C_ 0.965867 0.425838 0.247642 -0.02249
C_ C_ 0.662782 0.3091 0.251216 0.6875
C_ C_ 0.91691 0.308402 0.249598 0.6875
C_ C_ 0.715934 0.391705 0.21165 -0.11473
C_ C_ 0.962614 0.400835 0.211293 -0.11473
C_ C_ 0.687191 0.153132 0.251113 -0.02249
C_ C_ 0.935978 0.149832 0.249481 -0.02249
C_ C_ 0.735847 0.0367836 0.255445 -0.02249
C_ C_ 0.989637 0.0410333 0.260978 -0.02249
C_ C_ 0.71744 0.102492 0.288827 -0.11473
C_ C_ 0.965074 0.103503 0.291802 -0.11473
C_ C_ 0.692911 0.131309 0.213805 -0.11473
C_ C_ 0.945023 0.125749 0.214239 -0.11473
C_ C_ 0.700774 0.140105 0.288819 -0.11473
C_ C_ 0.949399 0.140244 0.289358 -0.11473
C_ C_ 0.719233 0.0781165 0.252158 -0.02249
C_ C_ 0.974433 0.0815258 0.255838 -0.02249
C_ C_ 0.665061 0.189427 0.249853 0.6875
C_ C_ 0.914472 0.18467 0.245439 0.6875
C_ C_ 0.708096 0.0948112 0.21338 -0.11473
C_ C_ 0.962004 0.0907682 0.217763 -0.11473
C_ C_ 0.562543 0.154833 0.249828 -0.02249
C_ C_ 0.818726 0.148131 0.250064 -0.02249
C_ C_ 0.516012 0.0379522 0.248099 -0.02249
C_ C_ 0.767066 0.0358122 0.253992 -0.02249
C_ C_ 0.5357 0.100476 0.212458 -0.11473
C_ C_ 0.78684 0.0976618 0.21401 -0.11473
C_ C_ 0.559224 0.132938 0.287824 -0.11473
C_ C_ 0.817036 0.123569 0.285799 -0.11473
C_ C_ 0.547532 0.140942 0.212991 -0.11473
C_ C_ 0.805144 0.131768 0.211962 -0.11473
C_ C_ 0.533241 0.0778015 0.249462 -0.02249
C_ C_ 0.783778 0.0751047 0.251496 -0.02249
C_ C_ 0.584173 0.191882 0.247869 0.6875
C_ C_ 0.837703 0.18594 0.246814 0.6875
C_ C_ 0.544835 0.093901 0.287547 -0.11473
C_ C_ 0.79845 0.0896877 0.288508 -0.11473
C_ C_ 0.620809 0.21096 0.37161 0.17695
C_ C_ 0.869901 0.209414 0.372445 0.17695
C_ C_ 0.615914 0.282993 0.375152 0.17695
C_ C_ 0.868796 0.282426 0.375396 0.17695
C_ C_ 0.61156 0.281374 0.419098 -0.11473
C_ C_ 0.86615 0.280196 0.419632 -0.11473
C_ C_ 0.608396 0.243809 0.439316 0.23465
C_ C_ 0.869211 0.241714 0.439546 0.23465
C_ C_ 0.615991 0.207533 0.416323 -0.11473
C_ C_ 0.872119 0.206501 0.416599 -0.11473
C_ C_ 0.623912 0.209397 0.123701 0.17695
C_ C_ 0.856724 0.219794 0.119285 0.17695
C_ C_ 0.629541 0.281828 0.119294 0.17695
C_ C_ 0.897753 0.267199 0.115817 0.17695
C_ C_ 0.6334 0.27799 0.0758859 -0.11473
C_ C_ 0.896167 0.266302 0.0702635 -0.11473
C_ C_ 0.627773 0.240057 0.0551736 0.23465
C_ C_ 0.873502 0.243199 0.0502751 0.23465
C_ C_ 0.623052 0.204484 0.0789021 -0.11473
C_ C_ 0.854057 0.220016 0.0758267 -0.11473
C_ C_ 0.532796 0.498865 0.255742 0.05793
C_ C_ 0.782841 0.495141 0.241954 0.05793
C_ C_ 0.719299 0.998999 0.257184 0.05793
C_ C_ 0.973039 1.00358234 0.259516 0.05793
Br Br 0.577389 0.499023 0.255661 -0.17191
Br Br 0.826624 0.492965 0.237856 -0.17191
Br Br 0.675331 -0.002387000000000028 0.261538 -0.17191
Br Br 0.929535 0.00445261 0.257599 -0.17191
N_ N_ 0.618869 0.248471 0.352515 -0.272
N_ N_ 0.870293 0.247067 0.352912 -0.272
N_ N_ 0.608672 0.23805 0.484945 -0.12501
N_ N_ 0.868335 0.23856 0.485859 -0.12501
N_ N_ 0.626743 0.24737 0.142987 -0.272
N_ N_ 0.877629 0.245082 0.137242 -0.272
N_ N_ 0.625036 0.235393 0.0106222 -0.12501
N_ N_ 0.870035 0.240553 0.00568573 -0.12501
O_ O_ 0.593736 0.294531 0.209749 -0.60745
O_ O_ 0.840912 0.286337 0.214706 -0.60745
O_ O_ 0.592816 0.29043 0.278882 -0.60745
O_ O_ 0.845512 0.293098 0.283948 -0.60745
O_ O_ 0.653739 0.296735 0.288127 -0.60745
O_ O_ 0.907243 0.292882 0.283897 -0.60745
O_ O_ 0.655143 0.288328 0.217834 -0.60745
O_ O_ 0.906774 0.294168 0.214207 -0.60745
O_ O_ 0.658301 0.205357 0.283824 -0.60745
O_ O_ 0.902381 0.198955 0.279541 -0.60745
O_ O_ 0.65596 0.203702 0.215286 -0.60745
O_ O_ 0.907137 0.199536 0.209765 -0.60745
O_ O_ 0.589766 0.210074 0.213372 -0.60745
O_ O_ 0.846525 0.199385 0.212777 -0.60745
O_ O_ 0.599467 0.200143 0.279775 -0.60745
O_ O_ 0.843357 0.204994 0.280183 -0.60745
Zn Zn 0.619538 0.250628 0.780809 0.9476
Zn Zn 0.875604 0.25344 0.782478 0.9476
Zn Zn 0.622187 0.25138 0.712358 0.9476
Zn Zn 0.8718 0.252921 0.714085 0.9476
H_ H_ 0.52135 0.412663 0.679157 0.10932
H_ H_ 0.794627 0.426784 0.680257 0.10932
H_ H_ 0.565946 0.360245 0.81336 0.10932
H_ H_ 0.800656 0.339026 0.810224 0.10932
H_ H_ 0.558724 0.35505 0.67829 0.10932
H_ H_ 0.824405 0.362769 0.680779 0.10932
H_ H_ 0.533321 0.424343 0.814842 0.10932
H_ H_ 0.774063 0.403268 0.811004 0.10932
H_ H_ 0.696894 0.433411 0.808375 0.10932
H_ H_ 0.983322 0.403607 0.808964 0.10932
H_ H_ 0.703771 0.338176 0.686624 0.10932
H_ H_ 0.91925 0.372078 0.684794 0.10932
H_ H_ 0.662227 0.368505 0.803512 0.10932
H_ H_ 0.95462 0.341009 0.810442 0.10932
H_ H_ 0.727439 0.404487 0.684703 0.10932
H_ H_ 0.949655 0.436186 0.6857 0.10932
H_ H_ 0.710707 0.0831889 0.821543 0.10932
H_ H_ 0.976113 0.0968205 0.821294 0.10932
H_ H_ 0.682364 0.143894 0.686048 0.10932
H_ H_ 0.931048 0.138832 0.687008 0.10932
H_ H_ 0.678979 0.144532 0.818919 0.10932
H_ H_ 0.944088 0.15962 0.818137 0.10932
H_ H_ 0.713652 0.0798665 0.688469 0.10932
H_ H_ 0.954031 0.0693557 0.69296 0.10932
H_ H_ 0.535947 0.081895 0.671508 0.10932
H_ H_ 0.764992 0.0934947 0.696666 0.10932
H_ H_ 0.558294 0.142462 0.808609 0.10932
H_ H_ 0.828807 0.135765 0.818282 0.10932
H_ H_ 0.561093 0.150035 0.675505 0.10932
H_ H_ 0.794335 0.160711 0.692186 0.10932
H_ H_ 0.53491 0.0749989 0.803627 0.10932
H_ H_ 0.806045 0.0686075 0.816334 0.10932
H_ H_ 0.625288 0.320307 0.850636 0.10932
H_ H_ 0.92426 0.236972 0.850525 0.10932
H_ H_ 0.614411 0.190613 0.860157 0.10932
H_ H_ 0.833216 0.275183 0.860301 0.10932
H_ H_ 0.622649 0.19465 0.936905 0.10932
H_ H_ 0.838809 0.280639 0.935087 0.10932
H_ H_ 0.633301 0.326479 0.928927 0.10932
H_ H_ 0.928905 0.233425 0.925003 0.10932
H_ H_ 0.63247 0.319127 0.64439 0.10932
H_ H_ 0.874031 0.319298 0.644511 0.10932
H_ H_ 0.601317 0.196992 0.630058 0.10932
H_ H_ 0.875703 0.187189 0.630729 0.10932
H_ H_ 0.594816 0.204595 0.555924 0.10932
H_ H_ 0.874502 0.196882 0.552513 0.10932
H_ H_ 0.63534 0.3238 0.561863 0.10932
H_ H_ 0.866007 0.327049 0.568545 0.10932
C_ C_ 0.563655 0.350931 0.747903 -0.02249
C_ C_ 0.811933 0.34416 0.743596 -0.02249
C_ C_ 0.510803 0.465902 0.74496 -0.02249
C_ C_ 0.764958 0.459051 0.748332 -0.02249
C_ C_ 0.531029 0.402202 0.711016 -0.11473
C_ C_ 0.79746 0.409823 0.710327 -0.11473
C_ C_ 0.557642 0.373089 0.784374 -0.11473
C_ C_ 0.797751 0.355923 0.779957 -0.11473
C_ C_ 0.550848 0.368217 0.709839 -0.11473
C_ C_ 0.813037 0.372352 0.708657 -0.11473
C_ C_ 0.52703 0.423884 0.747626 -0.02249
C_ C_ 0.782944 0.421067 0.747046 -0.02249
C_ C_ 0.58295 0.311939 0.748372 0.6875
C_ C_ 0.833109 0.309312 0.746834 0.6875
C_ C_ 0.539956 0.409245 0.785104 -0.11473
C_ C_ 0.782645 0.394204 0.781977 -0.11473
C_ C_ 0.679317 0.34805 0.744402 -0.02249
C_ C_ 0.935048 0.347831 0.74598 -0.02249
C_ C_ 0.733634 0.461443 0.741999 -0.02249
C_ C_ 0.98452 0.464529 0.747996 -0.02249
C_ C_ 0.697133 0.412546 0.780128 -0.11473
C_ C_ 0.970351 0.396766 0.781436 -0.11473
C_ C_ 0.697342 0.360601 0.710281 -0.11473
C_ C_ 0.934589 0.37671 0.711632 -0.11473
C_ C_ 0.679225 0.374545 0.778881 -0.11473
C_ C_ 0.954414 0.358205 0.780852 -0.11473
C_ C_ 0.714756 0.423161 0.744897 -0.02249
C_ C_ 0.967173 0.425093 0.749619 -0.02249
C_ C_ 0.661135 0.308993 0.746006 0.6875
C_ C_ 0.916487 0.310998 0.748474 0.6875
C_ C_ 0.713213 0.399079 0.710572 -0.11473
C_ C_ 0.949634 0.415026 0.713476 -0.11473
C_ C_ 0.676335 0.149189 0.750992 -0.02249
C_ C_ 0.933682 0.154212 0.753429 -0.02249
C_ C_ 0.731898 0.0365361 0.760482 -0.02249
C_ C_ 0.982927 0.0361497 0.761522 -0.02249
C_ C_ 0.703689 0.0960664 0.792025 -0.11473
C_ C_ 0.96492 0.105092 0.793579 -0.11473
C_ C_ 0.687164 0.12959 0.714982 -0.11473
C_ C_ 0.938695 0.128442 0.717051 -0.11473
C_ C_ 0.686267 0.132324 0.789393 -0.11473
C_ C_ 0.948015 0.141891 0.790191 -0.11473
C_ C_ 0.714061 0.0758754 0.755176 -0.02249
C_ C_ 0.967316 0.0770826 0.759111 -0.02249
C_ C_ 0.657518 0.1876 0.746561 0.6875
C_ C_ 0.915251 0.194701 0.751663 0.6875
C_ C_ 0.70263 0.0909052 0.717483 -0.11473
C_ C_ 0.954259 0.0891179 0.71976 -0.11473
C_ C_ 0.55635 0.158642 0.742737 -0.02249
C_ C_ 0.814966 0.151754 0.755089 -0.02249
C_ C_ 0.513183 0.0357329 0.735552 -0.02249
C_ C_ 0.763853 0.0367156 0.758408 -0.02249
C_ C_ 0.537016 0.0990765 0.70166 -0.11473
C_ C_ 0.780496 0.102599 0.721532 -0.11473
C_ C_ 0.549494 0.133229 0.778813 -0.11473
C_ C_ 0.814765 0.126448 0.792168 -0.11473
C_ C_ 0.551229 0.139298 0.703533 -0.11473
C_ C_ 0.797399 0.139993 0.719627 -0.11473
C_ C_ 0.527529 0.0779259 0.738229 -0.02249
C_ C_ 0.779856 0.077247 0.758021 -0.02249
C_ C_ 0.577415 0.194143 0.745799 0.6875
C_ C_ 0.835003 0.189218 0.752452 0.6875
C_ C_ 0.535514 0.0927304 0.775722 -0.11473
C_ C_ 0.799233 0.0900002 0.791371 -0.11473
C_ C_ 0.626105 0.292661 0.871387 0.17695
C_ C_ 0.90452 0.2448 0.868677 0.17695
C_ C_ 0.617367 0.220657 0.875551 0.17695
C_ C_ 0.852257 0.258877 0.872656 0.17695
C_ C_ 0.621217 0.222764 0.919351 -0.11473
C_ C_ 0.855802 0.264595 0.917021 -0.11473
C_ C_ 0.627549 0.261565 0.939561 0.23465
C_ C_ 0.882628 0.2535 0.936697 0.23465
C_ C_ 0.628899 0.296442 0.914848 -0.11473
C_ C_ 0.907571 0.244087 0.911608 -0.11473
C_ C_ 0.63085 0.292366 0.623569 0.17695
C_ C_ 0.874613 0.291745 0.625806 0.17695
C_ C_ 0.60738 0.227885 0.616275 0.17695
C_ C_ 0.873633 0.219111 0.617128 0.17695
C_ C_ 0.607435 0.228736 0.573393 -0.11473
C_ C_ 0.872369 0.222978 0.573926 -0.11473
C_ C_ 0.61971 0.262279 0.553417 0.23465
C_ C_ 0.873042 0.263544 0.554794 0.23465
C_ C_ 0.628654 0.297414 0.578732 -0.11473
C_ C_ 0.873948 0.297636 0.582619 -0.11473
C_ C_ 0.52606 0.504153 0.743909 0.05793
C_ C_ 0.78036 0.495401 0.754443 0.05793
C_ C_ 0.715733 -0.0009630000000000472 0.76262 0.05793
C_ C_ 0.966545 -0.0011470000000000091 0.761495 0.05793
Br Br 0.568987 0.510508 0.752859 -0.17191
Br Br 0.825442 0.489765 0.761866 -0.17191
Br Br 0.673712 -0.0012919999999999598 0.778388 -0.17191
Br Br 0.923278 -0.0015500000000000513 0.763756 -0.17191
N_ N_ 0.62177 0.255603 0.852585 -0.272
N_ N_ 0.87703 0.249909 0.849598 -0.272
N_ N_ 0.628098 0.266303 0.985655 -0.12501
N_ N_ 0.88737 0.258635 0.98162 -0.12501
N_ N_ 0.622014 0.255483 0.640952 -0.272
N_ N_ 0.873398 0.252527 0.643946 -0.272
N_ N_ 0.620043 0.265086 0.508884 -0.12501
N_ N_ 0.870567 0.268543 0.509642 -0.12501
O_ O_ 0.594322 0.298934 0.713952 -0.60745
O_ O_ 0.842286 0.292873 0.713038 -0.60745
O_ O_ 0.589095 0.293773 0.782465 -0.60745
O_ O_ 0.844059 0.298651 0.782993 -0.60745
O_ O_ 0.650875 0.296633 0.782055 -0.60745
O_ O_ 0.908481 0.296108 0.78337 -0.60745
O_ O_ 0.655656 0.288135 0.713259 -0.60745
O_ O_ 0.903064 0.298347 0.715198 -0.60745
O_ O_ 0.651572 0.207253 0.779114 -0.60745
O_ O_ 0.906417 0.211968 0.785632 -0.60745
O_ O_ 0.649247 0.201517 0.709513 -0.60745
O_ O_ 0.90467 0.207307 0.717738 -0.60745
O_ O_ 0.587677 0.209601 0.712772 -0.60745
O_ O_ 0.838749 0.207468 0.718979 -0.60745
O_ O_ 0.587757 0.205021 0.781579 -0.60745
O_ O_ 0.844227 0.207142 0.786233 -0.60745
Zn Zn 0.627488 0.747324 0.291348 0.9476
Zn Zn 0.876481 0.746107 0.292126 0.9476
Zn Zn 0.626171 0.75015 0.220513 0.9476
Zn Zn 0.875202 0.752245 0.224899 0.9476
H_ H_ 0.528089 0.91246 0.185195 0.10932
H_ H_ 0.778913 0.906614 0.186722 0.10932
H_ H_ 0.575873 0.864307 0.32083 0.10932
H_ H_ 0.811695 0.849801 0.324187 0.10932
H_ H_ 0.55363 0.8435 0.186474 0.10932
H_ H_ 0.808068 0.841643 0.190729 0.10932
H_ H_ 0.549936 0.927299 0.314819 0.10932
H_ H_ 0.789428 0.919709 0.321341 0.10932
H_ H_ 0.722017 0.909524 0.319575 0.10932
H_ H_ 0.965616 0.921021 0.325099 0.10932
H_ H_ 0.677797 0.854375 0.187748 0.10932
H_ H_ 0.922815 0.866295 0.192506 0.10932
H_ H_ 0.691374 0.8472 0.323054 0.10932
H_ H_ 0.941945 0.850652 0.32617 0.10932
H_ H_ 0.703592 0.91865 0.186525 0.10932
H_ H_ 0.957015 0.927798 0.19028 0.10932
H_ H_ 0.698272 0.557128 0.307598 0.10932
H_ H_ 0.950624 0.565462 0.31358 0.10932
H_ H_ 0.70701 0.664008 0.195778 0.10932
H_ H_ 0.945124 0.665926 0.191374 0.10932
H_ H_ 0.674715 0.627261 0.315468 0.10932
H_ H_ 0.923207 0.633466 0.320092 0.10932
H_ H_ 0.735619 0.599213 0.188548 0.10932
H_ H_ 0.973482 0.596594 0.18803 0.10932
H_ H_ 0.548865 0.570544 0.186652 0.10932
H_ H_ 0.80152 0.57236 0.184032 0.10932
H_ H_ 0.542865 0.663791 0.312329 0.10932
H_ H_ 0.810421 0.644098 0.321496 0.10932
H_ H_ 0.575517 0.640058 0.186265 0.10932
H_ H_ 0.832991 0.632565 0.191504 0.10932
H_ H_ 0.515728 0.598813 0.31131 0.10932
H_ H_ 0.772258 0.585215 0.310213 0.10932
H_ H_ 0.63354 0.678829 0.366524 0.10932
H_ H_ 0.873284 0.808455 0.371876 0.10932
H_ H_ 0.617744 0.811144 0.364608 0.10932
H_ H_ 0.883445 0.681771 0.363453 0.10932
H_ H_ 0.622505 0.814005 0.440253 0.10932
H_ H_ 0.885191 0.674255 0.440882 0.10932
H_ H_ 0.636992 0.680399 0.442274 0.10932
H_ H_ 0.877533 0.802433 0.453351 0.10932
H_ H_ 0.622708 0.68977 0.152498 0.10932
H_ H_ 0.907286 0.792753 0.14512 0.10932
H_ H_ 0.635623 0.81778 0.142088 0.10932
H_ H_ 0.841113 0.692122 0.153617 0.10932
H_ H_ 0.628999 0.81264 0.0635327 0.10932
H_ H_ 0.846406 0.683042 0.0764089 0.10932
H_ H_ 0.620652 0.680573 0.0750386 0.10932
H_ H_ 0.901233 0.790616 0.067912 0.10932
C_ C_ 0.566381 0.846873 0.251849 -0.02249
C_ C_ 0.809597 0.840083 0.256803 -0.02249
C_ C_ 0.5166 0.961051 0.252128 -0.02249
C_ C_ 0.766706 0.959716 0.252354 -0.02249
C_ C_ 0.537452 0.899571 0.214241 -0.11473
C_ C_ 0.788314 0.896141 0.215975 -0.11473
C_ C_ 0.566066 0.873056 0.289138 -0.11473
C_ C_ 0.804644 0.863355 0.29367 -0.11473
C_ C_ 0.551928 0.860728 0.214688 -0.11473
C_ C_ 0.799537 0.855385 0.219176 -0.11473
C_ C_ 0.534934 0.92286 0.250976 -0.02249
C_ C_ 0.782542 0.919495 0.252256 -0.02249
C_ C_ 0.587882 0.809137 0.252115 0.6875
C_ C_ 0.82904 0.802014 0.257278 0.6875
C_ C_ 0.549192 0.909966 0.288125 -0.11473
C_ C_ 0.790176 0.902637 0.292516 -0.11473
C_ C_ 0.685695 0.842885 0.255405 -0.02249
C_ C_ 0.930732 0.854119 0.258808 -0.02249
C_ C_ 0.734099 0.959608 0.251442 -0.02249
C_ C_ 0.986874 0.96553 0.254588 -0.02249
C_ C_ 0.711671 0.898319 0.290935 -0.11473
C_ C_ 0.959793 0.907339 0.295764 -0.11473
C_ C_ 0.686744 0.866227 0.216754 -0.11473
C_ C_ 0.93429 0.876099 0.220657 -0.11473
C_ C_ 0.699009 0.859241 0.291678 -0.11473
C_ C_ 0.945747 0.867633 0.296212 -0.11473
C_ C_ 0.715969 0.918517 0.253155 -0.02249
C_ C_ 0.967368 0.926272 0.257271 -0.02249
C_ C_ 0.667517 0.804955 0.255268 0.6875
C_ C_ 0.912217 0.815508 0.258499 0.6875
C_ C_ 0.704248 0.901935 0.215746 -0.11473
C_ C_ 0.955307 0.908971 0.219866 -0.11473
C_ C_ 0.68483 0.649103 0.253388 -0.02249
C_ C_ 0.933538 0.654032 0.255218 -0.02249
C_ C_ 0.736173 0.533637 0.245101 -0.02249
C_ C_ 0.984277 0.541719 0.246871 -0.02249
C_ C_ 0.702732 0.582432 0.283835 -0.11473
C_ C_ 0.950771 0.588156 0.287503 -0.11473
C_ C_ 0.706209 0.641902 0.220029 -0.11473
C_ C_ 0.948625 0.643457 0.218439 -0.11473
C_ C_ 0.68601 0.618082 0.285735 -0.11473
C_ C_ 0.936246 0.627703 0.29144 -0.11473
C_ C_ 0.719645 0.574373 0.247946 -0.02249
C_ C_ 0.96847 0.580721 0.253614 -0.02249
C_ C_ 0.666653 0.686775 0.255514 0.6875
C_ C_ 0.913977 0.691977 0.257509 0.6875
C_ C_ 0.721267 0.603764 0.215906 -0.11473
C_ C_ 0.964161 0.605229 0.217272 -0.11473
C_ C_ 0.563643 0.654749 0.250456 -0.02249
C_ C_ 0.822276 0.644106 0.257303 -0.02249
C_ C_ 0.517074 0.536754 0.253675 -0.02249
C_ C_ 0.767745 0.532562 0.245749 -0.02249
C_ C_ 0.549431 0.590883 0.215833 -0.11473
C_ C_ 0.803566 0.586842 0.214792 -0.11473
C_ C_ 0.544982 0.644472 0.284271 -0.11473
C_ C_ 0.809325 0.625633 0.293004 -0.11473
C_ C_ 0.564425 0.628851 0.213846 -0.11473
C_ C_ 0.821531 0.622202 0.219808 -0.11473
C_ C_ 0.533364 0.577938 0.251994 -0.02249
C_ C_ 0.786272 0.570651 0.247357 -0.02249
C_ C_ 0.585268 0.691102 0.255135 0.6875
C_ C_ 0.839142 0.684093 0.262032 0.6875
C_ C_ 0.53034 0.606801 0.284833 -0.11473
C_ C_ 0.789113 0.591466 0.285988 -0.11473
C_ C_ 0.632855 0.710104 0.38245 0.17695
C_ C_ 0.877637 0.779516 0.387825 0.17695
C_ C_ 0.620851 0.781875 0.382172 0.17695
C_ C_ 0.881507 0.70806 0.383397 0.17695
C_ C_ 0.619482 0.782472 0.426295 -0.11473
C_ C_ 0.884778 0.703856 0.427293 -0.11473
C_ C_ 0.625578 0.745477 0.449238 0.23465
C_ C_ 0.880139 0.738095 0.452114 0.23465
C_ C_ 0.631279 0.709651 0.426041 -0.11473
C_ C_ 0.874854 0.776111 0.432002 -0.11473
C_ C_ 0.621785 0.71641 0.132392 0.17695
C_ C_ 0.890952 0.770797 0.130028 0.17695
C_ C_ 0.632625 0.787378 0.127256 0.17695
C_ C_ 0.856429 0.714355 0.134665 0.17695
C_ C_ 0.628227 0.784156 0.0829457 -0.11473
C_ C_ 0.85436 0.711062 0.09015 -0.11473
C_ C_ 0.622992 0.746479 0.0625918 0.23465
C_ C_ 0.868151 0.740241 0.0660087 0.23465
C_ C_ 0.620683 0.711546 0.0881875 -0.11473
C_ C_ 0.888745 0.769515 0.0865557 -0.11473
C_ C_ 0.531552 0.999692 0.244717 0.05793
C_ C_ 0.782269 0.996624 0.251456 0.05793
C_ C_ 0.719756 0.497888 0.238499 0.05793
C_ C_ 0.967926 0.504877 0.241786 0.05793
Br Br 0.574771 1.00007 0.240018 -0.17191
Br Br 0.824953 0.995369 0.241126 -0.17191
Br Br 0.678 0.498132 0.227045 -0.17191
Br Br 0.924481 0.504917 0.23905 -0.17191
N_ N_ 0.628953 0.746559 0.361614 -0.272
N_ N_ 0.88044 0.745399 0.364078 -0.272
N_ N_ 0.630729 0.748319 0.494359 -0.12501
N_ N_ 0.88435 0.734823 0.497503 -0.12501
N_ N_ 0.628716 0.752949 0.151342 -0.272
N_ N_ 0.872608 0.745343 0.153963 -0.272
N_ N_ 0.618447 0.742606 0.0175788 -0.12501
N_ N_ 0.862063 0.740033 0.0222073 -0.12501
O_ O_ 0.597015 0.794112 0.218071 -0.60745
O_ O_ 0.838086 0.789063 0.223122 -0.60745
O_ O_ 0.594997 0.791607 0.286855 -0.60745
O_ O_ 0.845743 0.792154 0.289815 -0.60745
O_ O_ 0.656261 0.792234 0.288998 -0.60745
O_ O_ 0.905769 0.797418 0.294283 -0.60745
O_ O_ 0.657786 0.79134 0.219785 -0.60745
O_ O_ 0.90398 0.799981 0.223664 -0.60745
O_ O_ 0.659677 0.704737 0.289384 -0.60745
O_ O_ 0.90678 0.705655 0.293408 -0.60745
O_ O_ 0.654311 0.699653 0.222549 -0.60745
O_ O_ 0.909289 0.714476 0.224813 -0.60745
O_ O_ 0.592703 0.710013 0.22277 -0.60745
O_ O_ 0.848193 0.700685 0.228535 -0.60745
O_ O_ 0.59345 0.705131 0.291036 -0.60745
O_ O_ 0.849515 0.696971 0.297412 -0.60745
Zn Zn 0.625087 0.746892 0.788006 0.9476
Zn Zn 0.874435 0.746542 0.79388 0.9476
Zn Zn 0.624863 0.746856 0.720097 0.9476
Zn Zn 0.87045 0.751866 0.724889 0.9476
H_ H_ 0.538266 0.918742 0.68039 0.10932
H_ H_ 0.772361 0.909416 0.690387 0.10932
H_ H_ 0.574198 0.857995 0.814938 0.10932
H_ H_ 0.819715 0.856003 0.821725 0.10932
H_ H_ 0.564858 0.84907 0.680386 0.10932
H_ H_ 0.794263 0.840264 0.691585 0.10932
H_ H_ 0.538929 0.916748 0.812705 0.10932
H_ H_ 0.791019 0.922343 0.819457 0.10932
H_ H_ 0.725884 0.90612 0.826101 0.10932
H_ H_ 0.963219 0.918644 0.826002 0.10932
H_ H_ 0.669925 0.864705 0.698775 0.10932
H_ H_ 0.937198 0.845921 0.691707 0.10932
H_ H_ 0.701034 0.838824 0.823063 0.10932
H_ H_ 0.938429 0.853874 0.828945 0.10932
H_ H_ 0.69765 0.930093 0.696827 0.10932
H_ H_ 0.970114 0.907726 0.693592 0.10932
H_ H_ 0.707714 0.569218 0.818313 0.10932
H_ H_ 0.959041 0.57763 0.818444 0.10932
H_ H_ 0.695334 0.658168 0.693715 0.10932
H_ H_ 0.929412 0.650533 0.688488 0.10932
H_ H_ 0.673576 0.624067 0.821587 0.10932
H_ H_ 0.932574 0.646137 0.82268 0.10932
H_ H_ 0.714209 0.590144 0.686213 0.10932
H_ H_ 0.958426 0.583647 0.685519 0.10932
H_ H_ 0.522583 0.59342 0.680812 0.10932
H_ H_ 0.775267 0.588174 0.691221 0.10932
H_ H_ 0.568526 0.637243 0.815489 0.10932
H_ H_ 0.829373 0.630154 0.822913 0.10932
H_ H_ 0.555998 0.654805 0.681208 0.10932
H_ H_ 0.797327 0.660791 0.69638 0.10932
H_ H_ 0.531386 0.581313 0.814013 0.10932
H_ H_ 0.806458 0.565972 0.820926 0.10932
H_ H_ 0.63334 0.684716 0.871005 0.10932
H_ H_ 0.890664 0.689154 0.873146 0.10932
H_ H_ 0.622208 0.813142 0.855793 0.10932
H_ H_ 0.852746 0.804612 0.864958 0.10932
H_ H_ 0.623031 0.8257 0.933502 0.10932
H_ H_ 0.856241 0.812135 0.943913 0.10932
H_ H_ 0.63255 0.694819 0.95117 0.10932
H_ H_ 0.89177 0.690683 0.948948 0.10932
H_ H_ 0.620894 0.672222 0.652641 0.10932
H_ H_ 0.88075 0.815634 0.652717 0.10932
H_ H_ 0.61621 0.800858 0.643343 0.10932
H_ H_ 0.866309 0.686399 0.647439 0.10932
H_ H_ 0.61783 0.797289 0.564434 0.10932
H_ H_ 0.861945 0.688098 0.569632 0.10932
H_ H_ 0.621304 0.665831 0.573953 0.10932
H_ H_ 0.874529 0.818026 0.575511 0.10932
C_ C_ 0.569918 0.846474 0.748 -0.02249
C_ C_ 0.81179 0.844803 0.755272 -0.02249
C_ C_ 0.515638 0.960264 0.743184 -0.02249
C_ C_ 0.764218 0.960523 0.758057 -0.02249
C_ C_ 0.544402 0.902429 0.709852 -0.11473
C_ C_ 0.78396 0.899202 0.718566 -0.11473
C_ C_ 0.564264 0.868037 0.784471 -0.11473
C_ C_ 0.808584 0.866416 0.792324 -0.11473
C_ C_ 0.560815 0.865621 0.710195 -0.11473
C_ C_ 0.797339 0.86027 0.718332 -0.11473
C_ C_ 0.534427 0.920331 0.746103 -0.02249
C_ C_ 0.780759 0.920965 0.756132 -0.02249
C_ C_ 0.587301 0.807909 0.747928 0.6875
C_ C_ 0.831027 0.807611 0.754281 0.6875
C_ C_ 0.543256 0.901444 0.784205 -0.11473
C_ C_ 0.793608 0.905606 0.792729 -0.11473
C_ C_ 0.687439 0.842783 0.757153 -0.02249
C_ C_ 0.931208 0.845372 0.761007 -0.02249
C_ C_ 0.731952 0.961683 0.760982 -0.02249
C_ C_ 0.981586 0.959423 0.758573 -0.02249
C_ C_ 0.717987 0.893692 0.796261 -0.11473
C_ C_ 0.957339 0.902509 0.796171 -0.11473
C_ C_ 0.68539 0.871369 0.723452 -0.11473
C_ C_ 0.941194 0.862063 0.721396 -0.11473
C_ C_ 0.703039 0.855609 0.793716 -0.11473
C_ C_ 0.940766 0.866826 0.79801 -0.11473
C_ C_ 0.714464 0.922357 0.761228 -0.02249
C_ C_ 0.964823 0.920076 0.759005 -0.02249
C_ C_ 0.668062 0.805225 0.753409 0.6875
C_ C_ 0.911877 0.807575 0.760577 0.6875
C_ C_ 0.700091 0.909246 0.724461 -0.11473
C_ C_ 0.960226 0.89763 0.721086 -0.11473
C_ C_ 0.683602 0.649461 0.759907 -0.02249
C_ C_ 0.934506 0.655049 0.75582 -0.02249
C_ C_ 0.734899 0.537024 0.751451 -0.02249
C_ C_ 0.983372 0.539807 0.752539 -0.02249
C_ C_ 0.706245 0.590166 0.792706 -0.11473
C_ C_ 0.956873 0.596687 0.791497 -0.11473
C_ C_ 0.699643 0.640658 0.723458 -0.11473
C_ C_ 0.939357 0.634993 0.715802 -0.11473
C_ C_ 0.687799 0.621937 0.793977 -0.11473
C_ C_ 0.941851 0.635325 0.792618 -0.11473
C_ C_ 0.718081 0.577173 0.753942 -0.02249
C_ C_ 0.965814 0.579299 0.752947 -0.02249
C_ C_ 0.659597 0.681764 0.759451 0.6875
C_ C_ 0.913492 0.690328 0.758421 0.6875
C_ C_ 0.71195 0.600408 0.717213 -0.11473
C_ C_ 0.957061 0.600171 0.714752 -0.11473
C_ C_ 0.561905 0.654107 0.750195 -0.02249
C_ C_ 0.816713 0.649791 0.758943 -0.02249
C_ C_ 0.509372 0.541899 0.746945 -0.02249
C_ C_ 0.76628 0.535588 0.753489 -0.02249
C_ C_ 0.531333 0.604537 0.710112 -0.11473
C_ C_ 0.785053 0.601521 0.721596 -0.11473
C_ C_ 0.555472 0.632005 0.786526 -0.11473
C_ C_ 0.818666 0.62166 0.793722 -0.11473
C_ C_ 0.550528 0.639288 0.712014 -0.11473
C_ C_ 0.799316 0.639122 0.722001 -0.11473
C_ C_ 0.525853 0.582317 0.748186 -0.02249
C_ C_ 0.785201 0.574204 0.756264 -0.02249
C_ C_ 0.584538 0.689229 0.75337 0.6875
C_ C_ 0.834299 0.689111 0.760774 0.6875
C_ C_ 0.536358 0.598247 0.786398 -0.11473
C_ C_ 0.802908 0.584241 0.79221 -0.11473
C_ C_ 0.630739 0.716133 0.886197 0.17695
C_ C_ 0.881838 0.716339 0.887875 0.17695
C_ C_ 0.623536 0.788354 0.877569 0.17695
C_ C_ 0.860682 0.78083 0.884451 0.17695
C_ C_ 0.627599 0.794719 0.920975 -0.11473
C_ C_ 0.862733 0.785147 0.928844 -0.11473
C_ C_ 0.630314 0.761049 0.948702 0.23465
C_ C_ 0.872842 0.751979 0.951791 0.23465
C_ C_ 0.631571 0.72163 0.930724 -0.11473
C_ C_ 0.881319 0.715487 0.931947 -0.11473
C_ C_ 0.625985 0.698624 0.632011 0.17695
C_ C_ 0.877468 0.786373 0.633755 0.17695
C_ C_ 0.62116 0.772465 0.626573 0.17695
C_ C_ 0.871471 0.713722 0.631029 0.17695
C_ C_ 0.618236 0.770359 0.582541 -0.11473
C_ C_ 0.868392 0.71621 0.588385 -0.11473
C_ C_ 0.620875 0.731831 0.56291 0.23465
C_ C_ 0.873339 0.753815 0.567118 0.23465
C_ C_ 0.623148 0.696611 0.587798 -0.11473
C_ C_ 0.872984 0.789886 0.590353 -0.11473
C_ C_ 0.530285 -0.0007110000000000172 0.739761 0.05793
C_ C_ 0.779545 -0.00100293 0.752239 0.05793
C_ C_ 0.718731 0.500703 0.746401 0.05793
C_ C_ 0.969837 0.500029 0.757856 0.05793
Br Br 0.574042 0.00234078 0.742024 -0.17191
Br Br 0.822133 1.00130868 0.752066 -0.17191
Br Br 0.675233 0.504485 0.734798 -0.17191
Br Br 0.926229 0.500879 0.754706 -0.17191
N_ N_ 0.626449 0.749513 0.860663 -0.272
N_ N_ 0.871718 0.747955 0.864553 -0.272
N_ N_ 0.630855 0.767894 0.99427 -0.12501
N_ N_ 0.877612 0.758206 0.995546 -0.12501
N_ N_ 0.624933 0.737108 0.650041 -0.272
N_ N_ 0.874688 0.748903 0.653687 -0.272
N_ N_ 0.616636 0.72804 0.519258 -0.12501
N_ N_ 0.869095 0.75628 0.521518 -0.12501
O_ O_ 0.59277 0.788218 0.713888 -0.60745
O_ O_ 0.840017 0.794059 0.720232 -0.60745
O_ O_ 0.599411 0.796914 0.78237 -0.60745
O_ O_ 0.841141 0.789515 0.788475 -0.60745
O_ O_ 0.659278 0.789443 0.787375 -0.60745
O_ O_ 0.905618 0.790027 0.794393 -0.60745
O_ O_ 0.659236 0.792748 0.717408 -0.60745
O_ O_ 0.900721 0.794628 0.725301 -0.60745
O_ O_ 0.650347 0.697101 0.792907 -0.60745
O_ O_ 0.908829 0.706428 0.794453 -0.60745
O_ O_ 0.655387 0.703157 0.725838 -0.60745
O_ O_ 0.900244 0.705269 0.726223 -0.60745
O_ O_ 0.595488 0.701967 0.720192 -0.60745
O_ O_ 0.839985 0.706794 0.726859 -0.60745
O_ O_ 0.592604 0.705488 0.788555 -0.60745
O_ O_ 0.847936 0.70003 0.795686 -0.60745
_cell_length_a 44.444
_cell_length_b 32.3360000049186
_cell_length_c 31.843999878906452
_cell_angle_alpha 89.99799923859553
_cell_angle_beta 91.13600050494348
_cell_angle_gamma 89.9990006550086
_symmetry_space_group_name_H-M         'P 1'
_symmetry_Int_Tables_number            1
loop_
_symmetry_equiv_pos_as_xyz
   'x, y, z'
                         
loop_
_atom_site_label
_atom_site_type_symbol
_atom_site_fract_x 
_atom_site_fract_y
_atom_site_fract_z
_atom_site_charge
Zn Zn 0.131844 0.256666 0.281107 0.9476
Zn Zn 0.380919 0.249515 0.284824 0.9476
Zn Zn 0.125033 0.251397 0.210781 0.9476
Zn Zn 0.377901 0.250829 0.213636 0.9476
H_ H_ 0.0401449 0.429746 0.180488 0.10932
H_ H_ 0.28164 0.409056 0.182955 0.10932
H_ H_ 0.0621406 0.35869 0.312646 0.10932
H_ H_ 0.323336 0.355018 0.318822 0.10932
H_ H_ 0.067305 0.361415 0.180465 0.10932
H_ H_ 0.307458 0.342603 0.186635 0.10932
H_ H_ 0.0343041 0.418702 0.314164 0.10932
H_ H_ 0.297775 0.428982 0.314096 0.10932
H_ H_ 0.23509 0.406543 0.31014 0.10932
H_ H_ 0.457096 0.423787 0.315893 0.10932
H_ H_ 0.177485 0.362033 0.18119 0.10932
H_ H_ 0.440408 0.349133 0.181789 0.10932
H_ H_ 0.208624 0.340975 0.310894 0.10932
H_ H_ 0.418885 0.371178 0.309839 0.10932
H_ H_ 0.208548 0.427319 0.179779 0.10932
H_ H_ 0.47155 0.410461 0.181299 0.10932
H_ H_ 0.232103 0.0968145 0.317086 0.10932
H_ H_ 0.474645 0.0878344 0.317319 0.10932
H_ H_ 0.172853 0.130437 0.187172 0.10932
H_ H_ 0.430737 0.140449 0.181805 0.10932
H_ H_ 0.203446 0.162857 0.310519 0.10932
H_ H_ 0.455866 0.161161 0.310947 0.10932
H_ H_ 0.196594 0.0600365 0.19555 0.10932
H_ H_ 0.457307 0.0713684 0.187355 0.10932
H_ H_ 0.0245815 0.091465 0.193009 0.10932
H_ H_ 0.26668 0.101286 0.186108 0.10932
H_ H_ 0.0723932 0.150661 0.318376 0.10932
H_ H_ 0.329789 0.137671 0.313954 0.10932
H_ H_ 0.0454192 0.161662 0.190004 0.10932
H_ H_ 0.296077 0.163605 0.185256 0.10932
H_ H_ 0.0518334 0.0790499 0.320832 0.10932
H_ H_ 0.304615 0.0718309 0.311892 0.10932
H_ H_ 0.12997 0.19473 0.344181 0.10932
H_ H_ 0.362631 0.302855 0.361873 0.10932
H_ H_ 0.13905 0.320402 0.362614 0.10932
H_ H_ 0.38823 0.180523 0.355659 0.10932
H_ H_ 0.136389 0.311872 0.439181 0.10932
H_ H_ 0.38591 0.170749 0.432967 0.10932
H_ H_ 0.121647 0.182192 0.41998 0.10932
H_ H_ 0.360032 0.30107 0.442351 0.10932
H_ H_ 0.127273 0.318807 0.144705 0.10932
H_ H_ 0.355296 0.310758 0.144288 0.10932
H_ H_ 0.130361 0.188298 0.130991 0.10932
H_ H_ 0.40527 0.204973 0.13653 0.10932
H_ H_ 0.122736 0.194052 0.0533068 0.10932
H_ H_ 0.404761 0.206426 0.0570057 0.10932
H_ H_ 0.131898 0.325563 0.0656671 0.10932
H_ H_ 0.349705 0.314503 0.065286 0.10932
C_ C_ 0.0720741 0.35757 0.246255 -0.02249
C_ C_ 0.318501 0.345158 0.251088 -0.02249
C_ C_ 0.0150014 0.466821 0.243863 -0.02249
C_ C_ 0.271014 0.461808 0.246828 -0.02249
C_ C_ 0.0469022 0.414876 0.208343 -0.11473
C_ C_ 0.289527 0.397367 0.213405 -0.11473
C_ C_ 0.0607019 0.375644 0.284609 -0.11473
C_ C_ 0.315051 0.368494 0.289286 -0.11473
C_ C_ 0.0637293 0.377475 0.208231 -0.11473
C_ C_ 0.307765 0.361706 0.214345 -0.11473
C_ C_ 0.032011 0.427483 0.245111 -0.02249
C_ C_ 0.287324 0.42171 0.250114 -0.02249
C_ C_ 0.0865636 0.314793 0.245613 0.6875
C_ C_ 0.338865 0.309577 0.249145 0.6875
C_ C_ 0.0421301 0.409338 0.282956 -0.11473
C_ C_ 0.299994 0.407143 0.286214 -0.11473
C_ C_ 0.192333 0.346742 0.245733 -0.02249
C_ C_ 0.43152 0.351272 0.247337 -0.02249
C_ C_ 0.239014 0.462965 0.244666 -0.02249
C_ C_ 0.485633 0.461537 0.244732 -0.02249
C_ C_ 0.221848 0.398383 0.281952 -0.11473
C_ C_ 0.45598 0.407178 0.285436 -0.11473
C_ C_ 0.190021 0.372211 0.210185 -0.11473
C_ C_ 0.445296 0.364469 0.210772 -0.11473
C_ C_ 0.207167 0.360456 0.282898 -0.11473
C_ C_ 0.434375 0.375039 0.284072 -0.11473
C_ C_ 0.223225 0.424004 0.244553 -0.02249
C_ C_ 0.469669 0.421375 0.247488 -0.02249
C_ C_ 0.172088 0.309913 0.247126 0.6875
C_ C_ 0.418637 0.309746 0.25033 0.6875
C_ C_ 0.208991 0.408466 0.207468 -0.11473
C_ C_ 0.462511 0.399272 0.209974 -0.11473
C_ C_ 0.186949 0.151615 0.247789 -0.02249
C_ C_ 0.439384 0.154329 0.248031 -0.02249
C_ C_ 0.235398 0.0358173 0.256648 -0.02249
C_ C_ 0.484632 0.0360557 0.253732 -0.02249
C_ C_ 0.217715 0.102638 0.289848 -0.11473
C_ C_ 0.463569 0.0998325 0.287125 -0.11473
C_ C_ 0.185875 0.122034 0.214255 -0.11473
C_ C_ 0.442679 0.130643 0.210906 -0.11473
C_ C_ 0.202327 0.141202 0.285234 -0.11473
C_ C_ 0.45072 0.138821 0.285809 -0.11473
C_ C_ 0.216752 0.0742901 0.256718 -0.02249
C_ C_ 0.465687 0.0742839 0.252007 -0.02249
C_ C_ 0.168565 0.192032 0.245556 0.6875
C_ C_ 0.420032 0.191124 0.250369 0.6875
C_ C_ 0.19762 0.0820769 0.221082 -0.11473
C_ C_ 0.455279 0.0905629 0.213204 -0.11473
C_ C_ 0.0667837 0.157739 0.251394 -0.02249
C_ C_ 0.317161 0.154305 0.248031 -0.02249
C_ C_ 0.0212424 0.0400146 0.257661 -0.02249
C_ C_ 0.267065 0.0382926 0.248991 -0.02249
C_ C_ 0.0355956 0.103863 0.219298 -0.11473
C_ C_ 0.279133 0.109255 0.215654 -0.11473
C_ C_ 0.0673028 0.134972 0.288379 -0.11473
C_ C_ 0.315139 0.131162 0.28587 -0.11473
C_ C_ 0.0477148 0.143055 0.218236 -0.11473
C_ C_ 0.29809 0.142772 0.213219 -0.11473
C_ C_ 0.0389932 0.0798497 0.255457 -0.02249
C_ C_ 0.281442 0.0819446 0.250445 -0.02249
C_ C_ 0.0886394 0.194391 0.24568 0.6875
C_ C_ 0.336739 0.191391 0.246042 0.6875
C_ C_ 0.0538846 0.0962698 0.291188 -0.11473
C_ C_ 0.299813 0.0937565 0.286184 -0.11473
C_ C_ 0.130546 0.219498 0.365758 0.17695
C_ C_ 0.367651 0.275365 0.378702 0.17695
C_ C_ 0.136987 0.289542 0.377087 0.17695
C_ C_ 0.3813 0.205199 0.374752 0.17695
C_ C_ 0.133318 0.284551 0.41992 -0.11473
C_ C_ 0.377371 0.198859 0.418479 -0.11473
C_ C_ 0.129676 0.245941 0.436399 0.23465
C_ C_ 0.368278 0.233103 0.441226 0.23465
C_ C_ 0.126447 0.213554 0.409024 -0.11473
C_ C_ 0.364429 0.272768 0.423169 -0.11473
C_ C_ 0.12671 0.291088 0.123684 0.17695
C_ C_ 0.361151 0.286052 0.12341 0.17695
C_ C_ 0.12732 0.219155 0.116075 0.17695
C_ C_ 0.39437 0.229148 0.119506 0.17695
C_ C_ 0.124343 0.223538 0.071466 -0.11473
C_ C_ 0.391115 0.227707 0.0759323 -0.11473
C_ C_ 0.126615 0.261978 0.0530845 0.23465
C_ C_ 0.377182 0.261349 0.0546443 0.23465
C_ C_ 0.125644 0.295624 0.0795381 -0.11473
C_ C_ 0.361447 0.291009 0.0797845 -0.11473
C_ C_ 0.0309982 0.504998 0.243762 0.05793
C_ C_ 0.285653 0.499093 0.251695 0.05793
C_ C_ 0.221791 -0.0029050000000000464 0.260686 0.05793
C_ C_ 0.469812 0.998768 0.258002 0.05793
Br Br 0.0742223 0.505429 0.249804 -0.17191
Br Br 0.328763 0.498249 0.253403 -0.17191
Br Br 0.178022 -0.009438999999999975 0.270382 -0.17191
Br Br 0.427772 0.993136 0.272101 -0.17191
N_ N_ 0.130863 0.257256 0.350936 -0.272
N_ N_ 0.37663 0.242063 0.355952 -0.272
N_ N_ 0.132631 0.237519 0.480174 -0.12501
N_ N_ 0.372469 0.229026 0.48691 -0.12501
N_ N_ 0.125777 0.253468 0.141354 -0.272
N_ N_ 0.376968 0.255523 0.141598 -0.272
N_ N_ 0.127758 0.267295 0.00817591 -0.12501
N_ N_ 0.38021 0.268389 0.010276 -0.12501
O_ O_ 0.0925351 0.295146 0.21313 -0.60745
O_ O_ 0.350173 0.298045 0.214608 -0.60745
O_ O_ 0.100828 0.305627 0.27962 -0.60745
O_ O_ 0.348907 0.293832 0.282355 -0.60745
O_ O_ 0.165011 0.297153 0.283197 -0.60745
O_ O_ 0.409292 0.296489 0.285782 -0.60745
O_ O_ 0.158668 0.297119 0.213177 -0.60745
O_ O_ 0.411479 0.290169 0.217372 -0.60745
O_ O_ 0.162395 0.209398 0.279971 -0.60745
O_ O_ 0.41217 0.20513 0.285434 -0.60745
O_ O_ 0.156281 0.20506 0.211881 -0.60745
O_ O_ 0.408559 0.206806 0.217061 -0.60745
O_ O_ 0.0959304 0.206266 0.209437 -0.60745
O_ O_ 0.341381 0.209883 0.212404 -0.60745
O_ O_ 0.0974849 0.21393 0.278331 -0.60745
O_ O_ 0.351 0.202 0.278992 -0.60745
Zn Zn 0.126831 0.250758 0.778243 0.9476
Zn Zn 0.380174 0.250174 0.782269 0.9476
Zn Zn 0.120636 0.252205 0.711096 0.9476
Zn Zn 0.369853 0.249412 0.714963 0.9476
H_ H_ 0.0150192 0.404951 0.68171 0.10932
H_ H_ 0.288718 0.418179 0.685166 0.10932
H_ H_ 0.08358 0.373565 0.80452 0.10932
H_ H_ 0.315975 0.350616 0.825061 0.10932
H_ H_ 0.0460345 0.342101 0.680513 0.10932
H_ H_ 0.31204 0.348792 0.689064 0.10932
H_ H_ 0.0509603 0.438104 0.801238 0.10932
H_ H_ 0.289042 0.420366 0.823362 0.10932
H_ H_ 0.211938 0.417342 0.812708 0.10932
H_ H_ 0.464089 0.417994 0.810095 0.10932
H_ H_ 0.179753 0.353548 0.679504 0.10932
H_ H_ 0.430351 0.356362 0.674912 0.10932
H_ H_ 0.1855 0.353835 0.817765 0.10932
H_ H_ 0.438511 0.350544 0.812452 0.10932
H_ H_ 0.21414 0.413959 0.681805 0.10932
H_ H_ 0.458483 0.424582 0.677384 0.10932
H_ H_ 0.214586 0.0810128 0.8045 0.10932
H_ H_ 0.47191 0.0843295 0.806844 0.10932
H_ H_ 0.188862 0.155495 0.675317 0.10932
H_ H_ 0.429637 0.1407 0.67497 0.10932
H_ H_ 0.183746 0.147528 0.811277 0.10932
H_ H_ 0.453728 0.159609 0.804287 0.10932
H_ H_ 0.22095 0.0942102 0.675429 0.10932
H_ H_ 0.458377 0.0769616 0.674775 0.10932
H_ H_ 0.0271135 0.0811534 0.686376 0.10932
H_ H_ 0.301701 0.0745554 0.683937 0.10932
H_ H_ 0.077485 0.142263 0.811031 0.10932
H_ H_ 0.321393 0.137111 0.820918 0.10932
H_ H_ 0.0571138 0.140115 0.675994 0.10932
H_ H_ 0.326231 0.141141 0.684772 0.10932
H_ H_ 0.0427323 0.0842298 0.820154 0.10932
H_ H_ 0.280637 0.0891118 0.81543 0.10932
H_ H_ 0.128307 0.31238 0.855344 0.10932
H_ H_ 0.336078 0.250351 0.856415 0.10932
H_ H_ 0.128052 0.182631 0.849834 0.10932
H_ H_ 0.430052 0.253084 0.857426 0.10932
H_ H_ 0.131634 0.177856 0.926774 0.10932
H_ H_ 0.433222 0.240285 0.934567 0.10932
H_ H_ 0.125946 0.310731 0.93216 0.10932
H_ H_ 0.334833 0.241996 0.936581 0.10932
H_ H_ 0.146106 0.199422 0.635488 0.10932
H_ H_ 0.319983 0.23003 0.647777 0.10932
H_ H_ 0.0959512 0.309475 0.635491 0.10932
H_ H_ 0.410622 0.267299 0.635795 0.10932
H_ H_ 0.0918546 0.306241 0.557425 0.10932
H_ H_ 0.407565 0.262073 0.556926 0.10932
H_ H_ 0.157078 0.205282 0.558765 0.10932
H_ H_ 0.314519 0.224937 0.568352 0.10932
C_ C_ 0.0657477 0.350468 0.744104 -0.02249
C_ C_ 0.313783 0.343853 0.756477 -0.02249
C_ C_ 0.0161566 0.466298 0.737277 -0.02249
C_ C_ 0.266162 0.460536 0.751301 -0.02249
C_ C_ 0.030183 0.396785 0.706852 -0.11473
C_ C_ 0.29201 0.403088 0.716417 -0.11473
C_ C_ 0.0686938 0.379435 0.777503 -0.11473
C_ C_ 0.309796 0.366609 0.794495 -0.11473
C_ C_ 0.050038 0.363709 0.705835 -0.11473
C_ C_ 0.304819 0.362831 0.718571 -0.11473
C_ C_ 0.0343746 0.426552 0.739299 -0.02249
C_ C_ 0.28366 0.422035 0.75537 -0.02249
C_ C_ 0.0823975 0.310141 0.744982 0.6875
C_ C_ 0.332007 0.303665 0.756243 0.6875
C_ C_ 0.0515583 0.417048 0.775316 -0.11473
C_ C_ 0.295613 0.404895 0.793857 -0.11473
C_ C_ 0.18279 0.346648 0.750163 -0.02249
C_ C_ 0.431058 0.34797 0.743068 -0.02249
C_ C_ 0.234253 0.458268 0.743238 -0.02249
C_ C_ 0.478125 0.465014 0.747071 -0.02249
C_ C_ 0.209695 0.403002 0.784604 -0.11473
C_ C_ 0.457906 0.404063 0.781668 -0.11473
C_ C_ 0.190647 0.363115 0.709873 -0.11473
C_ C_ 0.437653 0.368672 0.705116 -0.11473
C_ C_ 0.19279 0.365644 0.786149 -0.11473
C_ C_ 0.442849 0.364693 0.781864 -0.11473
C_ C_ 0.218216 0.420544 0.746519 -0.02249
C_ C_ 0.46166 0.425978 0.742952 -0.02249
C_ C_ 0.163138 0.310037 0.750835 0.6875
C_ C_ 0.413147 0.309491 0.744235 0.6875
C_ C_ 0.209476 0.399078 0.709196 -0.11473
C_ C_ 0.454438 0.405255 0.706142 -0.11473
C_ C_ 0.182113 0.155411 0.742371 -0.02249
C_ C_ 0.4359 0.152628 0.740425 -0.02249
C_ C_ 0.23463 0.0426902 0.736857 -0.02249
C_ C_ 0.481611 0.0352734 0.740494 -0.02249
C_ C_ 0.208351 0.0983136 0.777895 -0.11473
C_ C_ 0.464534 0.0995654 0.778692 -0.11473
C_ C_ 0.193671 0.140677 0.704509 -0.11473
C_ C_ 0.44006 0.130535 0.703385 -0.11473
C_ C_ 0.191058 0.135699 0.780412 -0.11473
C_ C_ 0.453451 0.140119 0.77798 -0.11473
C_ C_ 0.217861 0.0829333 0.740355 -0.02249
C_ C_ 0.465412 0.0745529 0.741926 -0.02249
C_ C_ 0.16182 0.191624 0.743213 0.6875
C_ C_ 0.415226 0.189751 0.742379 0.6875
C_ C_ 0.212399 0.106051 0.70367 -0.11473
C_ C_ 0.45513 0.0932844 0.703874 -0.11473
C_ C_ 0.0686105 0.148437 0.743924 -0.02249
C_ C_ 0.319693 0.151213 0.752864 -0.02249
C_ C_ 0.01494 0.0372953 0.758171 -0.02249
C_ C_ 0.266135 0.0430242 0.749774 -0.02249
C_ C_ 0.0341122 0.0959104 0.715077 -0.11473
C_ C_ 0.297782 0.094479 0.711451 -0.11473
C_ C_ 0.063427 0.13331 0.784696 -0.11473
C_ C_ 0.309812 0.131544 0.788666 -0.11473
C_ C_ 0.052784 0.130974 0.709227 -0.11473
C_ C_ 0.314315 0.132601 0.712442 -0.11473
C_ C_ 0.0320093 0.0768658 0.754026 -0.02249
C_ C_ 0.28407 0.0793648 0.748176 -0.02249
C_ C_ 0.0858291 0.189356 0.740315 0.6875
C_ C_ 0.337742 0.189142 0.751836 0.6875
C_ C_ 0.0440502 0.099353 0.789292 -0.11473
C_ C_ 0.288548 0.101189 0.786227 -0.11473
C_ C_ 0.125231 0.282924 0.871523 0.17695
C_ C_ 0.356204 0.246295 0.874957 0.17695
C_ C_ 0.130248 0.211942 0.868938 0.17695
C_ C_ 0.409322 0.251635 0.875855 0.17695
C_ C_ 0.131717 0.207901 0.912652 -0.11473
C_ C_ 0.411264 0.245507 0.919479 -0.11473
C_ C_ 0.130857 0.242665 0.939093 0.23465
C_ C_ 0.383796 0.244182 0.941291 0.23465
C_ C_ 0.123545 0.280836 0.917097 -0.11473
C_ C_ 0.356226 0.24418 0.919873 -0.11473
C_ C_ 0.136991 0.224854 0.617534 0.17695
C_ C_ 0.338487 0.238293 0.626709 0.17695
C_ C_ 0.105316 0.283222 0.616725 0.17695
C_ C_ 0.388951 0.259928 0.620024 0.17695
C_ C_ 0.108175 0.286897 0.572208 -0.11473
C_ C_ 0.388013 0.254498 0.57701 -0.11473
C_ C_ 0.125438 0.258793 0.550108 0.23465
C_ C_ 0.359507 0.243128 0.557237 0.23465
C_ C_ 0.140496 0.226859 0.57366 -0.11473
C_ C_ 0.335579 0.232528 0.582462 -0.11473
C_ C_ 0.0307415 0.504159 0.731122 0.05793
C_ C_ 0.280787 0.500682 0.752964 0.05793
C_ C_ 0.219108 0.0054894 0.738274 0.05793
C_ C_ 0.46665 0.995371 0.746621 0.05793
Br Br 0.0731371 0.504411 0.722348 -0.17191
Br Br 0.323535 0.505468 0.753729 -0.17191
Br Br 0.176239 0.00585305 0.724791 -0.17191
Br Br 0.42467 0.993992 0.744513 -0.17191
N_ N_ 0.125574 0.248612 0.848488 -0.272
N_ N_ 0.382919 0.248962 0.8535 -0.272
N_ N_ 0.129368 0.237866 0.982857 -0.12501
N_ N_ 0.382854 0.238372 0.985058 -0.12501
N_ N_ 0.121453 0.254384 0.638675 -0.272
N_ N_ 0.364592 0.252116 0.64431 -0.272
N_ N_ 0.130887 0.266481 0.506109 -0.12501
N_ N_ 0.355681 0.247447 0.513371 -0.12501
O_ O_ 0.0886141 0.291983 0.710899 -0.60745
O_ O_ 0.337339 0.289098 0.721414 -0.60745
O_ O_ 0.0950244 0.298766 0.778328 -0.60745
O_ O_ 0.347158 0.293604 0.788569 -0.60745
O_ O_ 0.155892 0.295886 0.786538 -0.60745
O_ O_ 0.414244 0.288178 0.778217 -0.60745
O_ O_ 0.149291 0.297952 0.717164 -0.60745
O_ O_ 0.397524 0.299421 0.711045 -0.60745
O_ O_ 0.158614 0.211955 0.777071 -0.60745
O_ O_ 0.407775 0.201609 0.778679 -0.60745
O_ O_ 0.151046 0.208226 0.711037 -0.60745
O_ O_ 0.402865 0.207107 0.711424 -0.60745
O_ O_ 0.0930553 0.20544 0.705748 -0.60745
O_ O_ 0.342952 0.203543 0.716078 -0.60745
O_ O_ 0.0936931 0.207752 0.773646 -0.60745
O_ O_ 0.34703 0.208302 0.784397 -0.60745
Zn Zn 0.127982 0.750453 0.285355 0.9476
Zn Zn 0.377726 0.748227 0.285427 0.9476
Zn Zn 0.126097 0.752475 0.216421 0.9476
Zn Zn 0.377423 0.751445 0.217892 0.9476
H_ H_ 0.0306499 0.913723 0.187113 0.10932
H_ H_ 0.286072 0.918785 0.183276 0.10932
H_ H_ 0.0840043 0.868422 0.31752 0.10932
H_ H_ 0.32815 0.858564 0.314274 0.10932
H_ H_ 0.0604638 0.851438 0.186141 0.10932
H_ H_ 0.324806 0.864815 0.179903 0.10932
H_ H_ 0.0440101 0.925278 0.32042 0.10932
H_ H_ 0.297017 0.923788 0.31631 0.10932
H_ H_ 0.235578 0.901222 0.317902 0.10932
H_ H_ 0.478161 0.907141 0.324041 0.10932
H_ H_ 0.170376 0.871562 0.191132 0.10932
H_ H_ 0.422713 0.859103 0.193125 0.10932
H_ H_ 0.211084 0.832083 0.30813 0.10932
H_ H_ 0.455753 0.837854 0.324543 0.10932
H_ H_ 0.198675 0.93271 0.191409 0.10932
H_ H_ 0.450972 0.929152 0.195839 0.10932
H_ H_ 0.217865 0.583341 0.315569 0.10932
H_ H_ 0.455806 0.566884 0.31588 0.10932
H_ H_ 0.184489 0.645588 0.182064 0.10932
H_ H_ 0.452245 0.659834 0.19135 0.10932
H_ H_ 0.191412 0.645811 0.319323 0.10932
H_ H_ 0.433189 0.636288 0.322496 0.10932
H_ H_ 0.212763 0.582103 0.182928 0.10932
H_ H_ 0.478122 0.592299 0.189817 0.10932
H_ H_ 0.0356142 0.587615 0.181234 0.10932
H_ H_ 0.304983 0.573723 0.186111 0.10932
H_ H_ 0.0625568 0.650123 0.31602 0.10932
H_ H_ 0.30128 0.662792 0.309975 0.10932
H_ H_ 0.0762121 0.641994 0.185675 0.10932
H_ H_ 0.335585 0.633924 0.187108 0.10932
H_ H_ 0.0329983 0.587789 0.313444 0.10932
H_ H_ 0.281196 0.591184 0.316387 0.10932
H_ H_ 0.146454 0.815835 0.358701 0.10932
H_ H_ 0.370485 0.683304 0.357419 0.10932
H_ H_ 0.12742 0.689226 0.364542 0.10932
H_ H_ 0.381203 0.812833 0.361514 0.10932
H_ H_ 0.118175 0.694452 0.438135 0.10932
H_ H_ 0.374622 0.813663 0.439461 0.10932
H_ H_ 0.139277 0.82626 0.431229 0.10932
H_ H_ 0.372142 0.682229 0.437495 0.10932
H_ H_ 0.113717 0.688969 0.15015 0.10932
H_ H_ 0.385849 0.815672 0.137127 0.10932
H_ H_ 0.126382 0.816476 0.137043 0.10932
H_ H_ 0.377016 0.686095 0.147854 0.10932
H_ H_ 0.133497 0.810279 0.0581563 0.10932
H_ H_ 0.364664 0.68061 0.0699081 0.10932
H_ H_ 0.11223 0.68436 0.0683391 0.10932
H_ H_ 0.367562 0.81187 0.0637083 0.10932
C_ C_ 0.0726777 0.852805 0.251588 -0.02249
C_ C_ 0.324726 0.853363 0.249442 -0.02249
C_ C_ 0.0186523 0.964187 0.253476 -0.02249
C_ C_ 0.270465 0.963238 0.24942 -0.02249
C_ C_ 0.0389366 0.902103 0.215499 -0.11473
C_ C_ 0.297044 0.908197 0.212342 -0.11473
C_ C_ 0.0692246 0.875787 0.289847 -0.11473
C_ C_ 0.319561 0.873695 0.287605 -0.11473
C_ C_ 0.0571152 0.866643 0.215598 -0.11473
C_ C_ 0.316485 0.87445 0.210905 -0.11473
C_ C_ 0.0353047 0.923603 0.253184 -0.02249
C_ C_ 0.288759 0.924823 0.249952 -0.02249
C_ C_ 0.0916496 0.815632 0.249646 0.6875
C_ C_ 0.341428 0.813113 0.248206 0.6875
C_ C_ 0.0502169 0.910507 0.29143 -0.11473
C_ C_ 0.29829 0.907591 0.288068 -0.11473
C_ C_ 0.192944 0.841933 0.245539 -0.02249
C_ C_ 0.438239 0.8433 0.25773 -0.02249
C_ C_ 0.238188 0.960233 0.256006 -0.02249
C_ C_ 0.485094 0.96012 0.257275 -0.02249
C_ C_ 0.224493 0.892611 0.286788 -0.11473
C_ C_ 0.469258 0.896053 0.293914 -0.11473
C_ C_ 0.190841 0.872329 0.212742 -0.11473
C_ C_ 0.438513 0.867812 0.218415 -0.11473
C_ C_ 0.211572 0.851795 0.281539 -0.11473
C_ C_ 0.455754 0.856002 0.293928 -0.11473
C_ C_ 0.221744 0.92141 0.253552 -0.02249
C_ C_ 0.468742 0.920521 0.256804 -0.02249
C_ C_ 0.170707 0.808482 0.247492 0.6875
C_ C_ 0.418535 0.805828 0.256284 0.6875
C_ C_ 0.204555 0.909883 0.216119 -0.11473
C_ C_ 0.455321 0.905011 0.218456 -0.11473
C_ C_ 0.188617 0.654754 0.251331 -0.02249
C_ C_ 0.436489 0.64942 0.256215 -0.02249
C_ C_ 0.238422 0.538994 0.246026 -0.02249
C_ C_ 0.484568 0.535998 0.249549 -0.02249
C_ C_ 0.215018 0.598805 0.285938 -0.11473
C_ C_ 0.45676 0.589219 0.290667 -0.11473
C_ C_ 0.196762 0.637492 0.210751 -0.11473
C_ C_ 0.452023 0.638648 0.219234 -0.11473
C_ C_ 0.197901 0.634332 0.288495 -0.11473
C_ C_ 0.4399 0.624954 0.291697 -0.11473
C_ C_ 0.221145 0.579507 0.247767 -0.02249
C_ C_ 0.467963 0.575508 0.251078 -0.02249
C_ C_ 0.166928 0.689571 0.251736 0.6875
C_ C_ 0.417274 0.689389 0.256597 0.6875
C_ C_ 0.21278 0.600624 0.210383 -0.11473
C_ C_ 0.465709 0.600672 0.216197 -0.11473
C_ C_ 0.0706041 0.65288 0.250184 -0.02249
C_ C_ 0.318007 0.654937 0.24787 -0.02249
C_ C_ 0.0163021 0.542444 0.250246 -0.02249
C_ C_ 0.270419 0.537208 0.249041 -0.02249
C_ C_ 0.0457883 0.598842 0.210563 -0.11473
C_ C_ 0.303171 0.591667 0.213174 -0.11473
C_ C_ 0.0557919 0.638375 0.286593 -0.11473
C_ C_ 0.304136 0.641468 0.285138 -0.11473
C_ C_ 0.0650214 0.632414 0.212558 -0.11473
C_ C_ 0.320312 0.627919 0.214071 -0.11473
C_ C_ 0.0335627 0.581529 0.248385 -0.02249
C_ C_ 0.286885 0.577803 0.249676 -0.02249
C_ C_ 0.0894468 0.692105 0.252197 0.6875
C_ C_ 0.336178 0.692454 0.251497 0.6875
C_ C_ 0.0413273 0.600469 0.285917 -0.11473
C_ C_ 0.289825 0.60169 0.285815 -0.11473
C_ C_ 0.139364 0.789133 0.374906 0.17695
C_ C_ 0.3724 0.710822 0.375463 0.17695
C_ C_ 0.125731 0.719054 0.378801 0.17695
C_ C_ 0.374526 0.784591 0.377459 0.17695
C_ C_ 0.127 0.720969 0.42156 -0.11473
C_ C_ 0.371708 0.783871 0.420307 -0.11473
C_ C_ 0.131066 0.759107 0.442465 0.23465
C_ C_ 0.371137 0.746275 0.442214 0.23465
C_ C_ 0.137511 0.794404 0.418508 -0.11473
C_ C_ 0.372043 0.709051 0.419205 -0.11473
C_ C_ 0.114707 0.715727 0.129005 0.17695
C_ C_ 0.383061 0.784838 0.123173 0.17695
C_ C_ 0.126599 0.78595 0.121898 0.17695
C_ C_ 0.37516 0.711721 0.128177 0.17695
C_ C_ 0.129637 0.782681 0.0777229 -0.11473
C_ C_ 0.371955 0.70836 0.083873 -0.11473
C_ C_ 0.123475 0.745435 0.0590583 0.23465
C_ C_ 0.371167 0.744838 0.0584746 0.23465
C_ C_ 0.117784 0.710758 0.0845056 -0.11473
C_ C_ 0.373314 0.782932 0.0797504 -0.11473
C_ C_ 0.0358221 1.00191434 0.250592 0.05793
C_ C_ 0.283984 1.00212003 0.248246 0.05793
C_ C_ 0.223298 0.501271 0.246809 0.05793
C_ C_ 0.468339 0.498929 0.244571 0.05793
Br Br 0.0788534 -0.00032902 0.250645 -0.17191
Br Br 0.32547 1.00396494 0.231392 -0.17191
Br Br 0.180248 0.498505 0.239517 -0.17191
Br Br 0.426361 0.502599 0.228649 -0.17191
N_ N_ 0.13404 0.75223 0.356123 -0.272
N_ N_ 0.374104 0.748193 0.355646 -0.272
N_ N_ 0.12974 0.763496 0.486877 -0.12501
N_ N_ 0.380097 0.746243 0.486403 -0.12501
N_ N_ 0.120981 0.751986 0.146616 -0.272
N_ N_ 0.37927 0.749658 0.146265 -0.272
N_ N_ 0.123435 0.739419 0.0142414 -0.12501
N_ N_ 0.36727 0.738758 0.0140418 -0.12501
O_ O_ 0.0946265 0.795391 0.217108 -0.60745
O_ O_ 0.34974 0.798451 0.214008 -0.60745
O_ O_ 0.0998014 0.800395 0.283859 -0.60745
O_ O_ 0.349693 0.79778 0.2823 -0.60745
O_ O_ 0.162827 0.79363 0.282541 -0.60745
O_ O_ 0.407193 0.792348 0.289044 -0.60745
O_ O_ 0.156063 0.796177 0.214229 -0.60745
O_ O_ 0.412299 0.789737 0.221745 -0.60745
O_ O_ 0.156173 0.702836 0.285191 -0.60745
O_ O_ 0.410228 0.705205 0.290842 -0.60745
O_ O_ 0.158189 0.705125 0.216918 -0.60745
O_ O_ 0.404561 0.70335 0.223556 -0.60745
O_ O_ 0.0975476 0.709404 0.21789 -0.60745
O_ O_ 0.340986 0.712645 0.21779 -0.60745
O_ O_ 0.0959772 0.707931 0.287424 -0.60745
O_ O_ 0.345642 0.706835 0.287146 -0.60745
Zn Zn 0.128407 0.75007 0.786109 0.9476
Zn Zn 0.367103 0.753661 0.781585 0.9476
Zn Zn 0.126745 0.753937 0.716946 0.9476
Zn Zn 0.36511 0.752296 0.716677 0.9476
H_ H_ 0.0419243 0.927709 0.69386 0.10932
H_ H_ 0.290547 0.93488 0.687419 0.10932
H_ H_ 0.0584282 0.845547 0.821545 0.10932
H_ H_ 0.30378 0.850964 0.812786 0.10932
H_ H_ 0.0678831 0.858514 0.690843 0.10932
H_ H_ 0.315486 0.865013 0.678134 0.10932
H_ H_ 0.0205416 0.902557 0.823931 0.10932
H_ H_ 0.27334 0.914868 0.813122 0.10932
H_ H_ 0.210316 0.928 0.808752 0.10932
H_ H_ 0.460999 0.91984 0.811612 0.10932
H_ H_ 0.187192 0.854487 0.673299 0.10932
H_ H_ 0.432677 0.843611 0.683489 0.10932
H_ H_ 0.181355 0.86327 0.807782 0.10932
H_ H_ 0.431652 0.858101 0.818384 0.10932
H_ H_ 0.211453 0.92461 0.675898 0.10932
H_ H_ 0.464229 0.907223 0.679082 0.10932
H_ H_ 0.193493 0.564087 0.808402 0.10932
H_ H_ 0.468528 0.591043 0.813735 0.10932
H_ H_ 0.202124 0.664091 0.690643 0.10932
H_ H_ 0.422548 0.648151 0.681508 0.10932
H_ H_ 0.170088 0.630866 0.811456 0.10932
H_ H_ 0.438948 0.653623 0.818016 0.10932
H_ H_ 0.228721 0.597666 0.688011 0.10932
H_ H_ 0.446206 0.579398 0.682385 0.10932
H_ H_ 0.0293836 0.600581 0.680573 0.10932
H_ H_ 0.296737 0.572273 0.688609 0.10932
H_ H_ 0.0693563 0.644583 0.816832 0.10932
H_ H_ 0.295278 0.661254 0.817131 0.10932
H_ H_ 0.0562809 0.661204 0.686145 0.10932
H_ H_ 0.319614 0.64091 0.686374 0.10932
H_ H_ 0.0336733 0.578888 0.811764 0.10932
H_ H_ 0.263783 0.596834 0.810686 0.10932
H_ H_ 0.130418 0.820046 0.855074 0.10932
H_ H_ 0.353935 0.818999 0.854584 0.10932
H_ H_ 0.124164 0.6872 0.86454 0.10932
H_ H_ 0.388163 0.692596 0.864556 0.10932
H_ H_ 0.118215 0.697994 0.943181 0.10932
H_ H_ 0.390194 0.701881 0.942078 0.10932
H_ H_ 0.131209 0.825838 0.93463 0.10932
H_ H_ 0.354003 0.824856 0.930198 0.10932
H_ H_ 0.130391 0.682438 0.642355 0.10932
H_ H_ 0.376145 0.810408 0.636323 0.10932
H_ H_ 0.114273 0.813424 0.631776 0.10932
H_ H_ 0.365586 0.682744 0.645364 0.10932
H_ H_ 0.114725 0.804618 0.552101 0.10932
H_ H_ 0.363431 0.674116 0.5697 0.10932
H_ H_ 0.13199 0.674658 0.56876 0.10932
H_ H_ 0.373001 0.805864 0.557295 0.10932
C_ C_ 0.0666427 0.848989 0.757957 -0.02249
C_ C_ 0.312409 0.854433 0.746717 -0.02249
C_ C_ 0.0144332 0.960557 0.76004 -0.02249
C_ C_ 0.264768 0.968519 0.750844 -0.02249
C_ C_ 0.042204 0.906532 0.721537 -0.11473
C_ C_ 0.292719 0.914272 0.713038 -0.11473
C_ C_ 0.0547795 0.863074 0.794856 -0.11473
C_ C_ 0.30166 0.869429 0.78563 -0.11473
C_ C_ 0.0598062 0.870964 0.72116 -0.11473
C_ C_ 0.309605 0.878417 0.710392 -0.11473
C_ C_ 0.0305148 0.920346 0.759616 -0.02249
C_ C_ 0.280744 0.929286 0.752069 -0.02249
C_ C_ 0.0876786 0.811183 0.756832 0.6875
C_ C_ 0.330959 0.816005 0.745089 0.6875
C_ C_ 0.0338731 0.896295 0.795953 -0.11473
C_ C_ 0.28752 0.907479 0.787816 -0.11473
C_ C_ 0.183633 0.85164 0.742882 -0.02249
C_ C_ 0.431231 0.845971 0.750916 -0.02249
C_ C_ 0.233595 0.967892 0.743249 -0.02249
C_ C_ 0.483967 0.957161 0.743508 -0.02249
C_ C_ 0.208514 0.908294 0.780732 -0.11473
C_ C_ 0.457399 0.903134 0.783078 -0.11473
C_ C_ 0.192191 0.869437 0.703735 -0.11473
C_ C_ 0.441671 0.857792 0.710352 -0.11473
C_ C_ 0.190271 0.873452 0.780389 -0.11473
C_ C_ 0.438382 0.868891 0.786873 -0.11473
C_ C_ 0.215444 0.926379 0.742788 -0.02249
C_ C_ 0.466282 0.916766 0.744868 -0.02249
C_ C_ 0.164986 0.812925 0.744405 0.6875
C_ C_ 0.4088 0.810528 0.751317 0.6875
C_ C_ 0.20439 0.909813 0.705422 -0.11473
C_ C_ 0.461345 0.89363 0.708577 -0.11473
C_ C_ 0.18271 0.651235 0.749259 -0.02249
C_ C_ 0.427204 0.655191 0.749337 -0.02249
C_ C_ 0.232023 0.534777 0.747696 -0.02249
C_ C_ 0.477108 0.54041 0.74569 -0.02249
C_ C_ 0.193015 0.583169 0.779674 -0.11473
C_ C_ 0.45692 0.600124 0.785075 -0.11473
C_ C_ 0.199476 0.641268 0.715117 -0.11473
C_ C_ 0.431855 0.635469 0.712231 -0.11473
C_ C_ 0.179699 0.622874 0.782359 -0.11473
C_ C_ 0.440319 0.636429 0.787117 -0.11473
C_ C_ 0.211994 0.5725 0.745805 -0.02249
C_ C_ 0.459894 0.580029 0.747318 -0.02249
C_ C_ 0.166768 0.690992 0.749515 0.6875
C_ C_ 0.40597 0.692669 0.751041 0.6875
C_ C_ 0.214916 0.602351 0.714856 -0.11473
C_ C_ 0.446135 0.597032 0.71177 -0.11473
C_ C_ 0.0613895 0.660962 0.753434 -0.02249
C_ C_ 0.308447 0.65465 0.750706 -0.02249
C_ C_ 0.0147844 0.541673 0.741488 -0.02249
C_ C_ 0.26463 0.537323 0.751541 -0.02249
C_ C_ 0.0342345 0.609932 0.710984 -0.11473
C_ C_ 0.294432 0.59228 0.715644 -0.11473
C_ C_ 0.0554408 0.636743 0.789943 -0.11473
C_ C_ 0.293157 0.642103 0.78769 -0.11473
C_ C_ 0.0502336 0.64779 0.714403 -0.11473
C_ C_ 0.306035 0.631855 0.713435 -0.11473
C_ C_ 0.0308587 0.583131 0.744283 -0.02249
C_ C_ 0.280882 0.577708 0.751884 -0.02249
C_ C_ 0.0849792 0.693008 0.753567 0.6875
C_ C_ 0.32569 0.693473 0.750055 0.6875
C_ C_ 0.0399572 0.597705 0.784388 -0.11473
C_ C_ 0.278395 0.60453 0.786063 -0.11473
C_ C_ 0.128559 0.791461 0.874321 0.17695
C_ C_ 0.362004 0.792108 0.872918 0.17695
C_ C_ 0.125108 0.718762 0.880078 0.17695
C_ C_ 0.378371 0.721809 0.879708 0.17695
C_ C_ 0.123974 0.722494 0.924476 -0.11473
C_ C_ 0.379535 0.72594 0.923948 -0.11473
C_ C_ 0.125991 0.761671 0.9453 0.23465
C_ C_ 0.368668 0.762514 0.943523 0.23465
C_ C_ 0.127394 0.795995 0.917419 -0.11473
C_ C_ 0.363582 0.79678 0.915943 -0.11473
C_ C_ 0.130177 0.712312 0.625566 0.17695
C_ C_ 0.373734 0.781202 0.620772 0.17695
C_ C_ 0.119114 0.783208 0.618052 0.17695
C_ C_ 0.36744 0.709245 0.627019 0.17695
C_ C_ 0.12164 0.778702 0.572342 -0.11473
C_ C_ 0.365165 0.704778 0.583464 -0.11473
C_ C_ 0.126735 0.740218 0.555554 0.23465
C_ C_ 0.369026 0.739358 0.557689 0.23465
C_ C_ 0.128973 0.705921 0.581976 -0.11473
C_ C_ 0.375452 0.777023 0.57672 -0.11473
C_ C_ 0.0300108 -0.000573208 0.759094 0.05793
C_ C_ 0.281148 0.00568312 0.756248 0.05793
C_ C_ 0.21769 0.495018 0.737084 0.05793
C_ C_ 0.461254 0.501834 0.745098 0.05793
Br Br 0.0731147 0.00075763 0.757037 -0.17191
Br Br 0.322934 -0.0014607 0.774814 -0.17191
Br Br 0.175621 0.490977 0.718498 -0.17191
Br Br 0.418301 0.500243 0.738796 -0.17191
N_ N_ 0.12843 0.75347 0.855363 -0.272
N_ N_ 0.366217 0.754587 0.8553 -0.272
N_ N_ 0.129231 0.768116 0.989071 -0.12501
N_ N_ 0.368639 0.768352 0.987704 -0.12501
N_ N_ 0.123366 0.74971 0.644158 -0.272
N_ N_ 0.368516 0.747542 0.645141 -0.272
N_ N_ 0.127796 0.734096 0.511178 -0.12501
N_ N_ 0.360686 0.740158 0.513993 -0.12501
O_ O_ 0.0943291 0.795456 0.722376 -0.60745
O_ O_ 0.340579 0.801971 0.710892 -0.60745
O_ O_ 0.0964921 0.794241 0.791144 -0.60745
O_ O_ 0.334606 0.794624 0.777598 -0.60745
O_ O_ 0.158329 0.798962 0.780547 -0.60745
O_ O_ 0.394923 0.800785 0.783792 -0.60745
O_ O_ 0.154976 0.794987 0.710896 -0.60745
O_ O_ 0.399701 0.793889 0.717614 -0.60745
O_ O_ 0.160794 0.70699 0.785269 -0.60745
O_ O_ 0.402044 0.710451 0.785029 -0.60745
O_ O_ 0.155864 0.706953 0.716275 -0.60745
O_ O_ 0.39261 0.70475 0.717141 -0.60745
O_ O_ 0.0936585 0.707437 0.720315 -0.60745
O_ O_ 0.330845 0.710989 0.715212 -0.60745
O_ O_ 0.0972719 0.703789 0.787027 -0.60745
O_ O_ 0.338766 0.705981 0.782356 -0.60745
Zn Zn 0.626718 0.248729 0.282974 0.9476
Zn Zn 0.876676 0.24804 0.282042 0.9476
Zn Zn 0.623646 0.248423 0.214712 0.9476
Zn Zn 0.875787 0.245732 0.209851 0.9476
H_ H_ 0.544521 0.425808 0.181992 0.10932
H_ H_ 0.795313 0.417365 0.178123 0.10932
H_ H_ 0.559492 0.342881 0.312246 0.10932
H_ H_ 0.8009 0.336725 0.309227 0.10932
H_ H_ 0.57604 0.360455 0.180962 0.10932
H_ H_ 0.821545 0.35068 0.181239 0.10932
H_ H_ 0.529798 0.409819 0.313918 0.10932
H_ H_ 0.767631 0.395258 0.306848 0.10932
H_ H_ 0.699282 0.433614 0.306493 0.10932
H_ H_ 0.956793 0.425196 0.315898 0.10932
H_ H_ 0.704651 0.327738 0.190748 0.10932
H_ H_ 0.938192 0.352497 0.179391 0.10932
H_ H_ 0.672895 0.366428 0.311891 0.10932
H_ H_ 0.927546 0.360497 0.313594 0.10932
H_ H_ 0.731074 0.398147 0.185903 0.10932
H_ H_ 0.974461 0.407971 0.18435 0.10932
H_ H_ 0.725479 0.092475 0.318294 0.10932
H_ H_ 0.975666 0.0938031 0.321324 0.10932
H_ H_ 0.682762 0.141545 0.183576 0.10932
H_ H_ 0.937586 0.13386 0.183265 0.10932
H_ H_ 0.703129 0.159781 0.317189 0.10932
H_ H_ 0.944208 0.15872 0.317991 0.10932
H_ H_ 0.70741 0.0746123 0.185969 0.10932
H_ H_ 0.965502 0.071797 0.189379 0.10932
H_ H_ 0.533684 0.0862665 0.181525 0.10932
H_ H_ 0.782323 0.0793042 0.18485 0.10932
H_ H_ 0.573412 0.140813 0.315014 0.10932
H_ H_ 0.828978 0.129419 0.313416 0.10932
H_ H_ 0.554305 0.156246 0.183223 0.10932
H_ H_ 0.808229 0.146511 0.180798 0.10932
H_ H_ 0.542805 0.0753088 0.316655 0.10932
H_ H_ 0.800629 0.0687421 0.313561 0.10932
H_ H_ 0.625902 0.183972 0.352748 0.10932
H_ H_ 0.868198 0.181712 0.353618 0.10932
H_ H_ 0.617931 0.311549 0.357934 0.10932
H_ H_ 0.86597 0.312533 0.357955 0.10932
H_ H_ 0.604284 0.310306 0.435388 0.10932
H_ H_ 0.865734 0.306561 0.440266 0.10932
H_ H_ 0.6199 0.177807 0.430515 0.10932
H_ H_ 0.875706 0.174343 0.43082 0.10932
H_ H_ 0.619774 0.183862 0.1433 0.10932
H_ H_ 0.841109 0.202028 0.13842 0.10932
H_ H_ 0.62911 0.312742 0.133003 0.10932
H_ H_ 0.914187 0.288636 0.132335 0.10932
H_ H_ 0.633764 0.307067 0.0585137 0.10932
H_ H_ 0.906705 0.29232 0.0540108 0.10932
H_ H_ 0.612058 0.176983 0.0674763 0.10932
H_ H_ 0.840737 0.196218 0.0596036 0.10932
C_ C_ 0.566975 0.347907 0.245388 -0.02249
C_ C_ 0.814964 0.340299 0.245686 -0.02249
C_ C_ 0.5182 0.461818 0.250199 -0.02249
C_ C_ 0.766669 0.457531 0.243009 -0.02249
C_ C_ 0.547778 0.409967 0.210681 -0.11473
C_ C_ 0.79646 0.398503 0.207191 -0.11473
C_ C_ 0.55559 0.362577 0.283218 -0.11473
C_ C_ 0.799668 0.354332 0.27971 -0.11473
C_ C_ 0.562561 0.371342 0.208922 -0.11473
C_ C_ 0.813583 0.36304 0.209926 -0.11473
C_ C_ 0.533948 0.422368 0.248626 -0.02249
C_ C_ 0.782777 0.41601 0.243387 -0.02249
C_ C_ 0.584739 0.309052 0.243869 0.6875
C_ C_ 0.833408 0.303604 0.249271 0.6875
C_ C_ 0.539946 0.400141 0.284613 -0.11473
C_ C_ 0.780199 0.388098 0.279017 -0.11473
C_ C_ 0.683083 0.34589 0.249219 -0.02249
C_ C_ 0.933467 0.35065 0.248266 -0.02249
C_ C_ 0.734631 0.458433 0.243213 -0.02249
C_ C_ 0.982698 0.467261 0.246863 -0.02249
C_ C_ 0.698431 0.413486 0.279911 -0.11473
C_ C_ 0.954971 0.407615 0.285737 -0.11473
C_ C_ 0.701888 0.352031 0.215016 -0.11473
C_ C_ 0.943693 0.367135 0.211002 -0.11473
C_ C_ 0.683751 0.375548 0.282601 -0.11473
C_ C_ 0.935399 0.373711 0.285705 -0.11473
C_ C_ 0.717099 0.420017 0.24491 -0.02249
C_ C_ 0.965867 0.425838 0.247642 -0.02249
C_ C_ 0.662782 0.3091 0.251216 0.6875
C_ C_ 0.91691 0.308402 0.249598 0.6875
C_ C_ 0.715934 0.391705 0.21165 -0.11473
C_ C_ 0.962614 0.400835 0.211293 -0.11473
C_ C_ 0.687191 0.153132 0.251113 -0.02249
C_ C_ 0.935978 0.149832 0.249481 -0.02249
C_ C_ 0.735847 0.0367836 0.255445 -0.02249
C_ C_ 0.989637 0.0410333 0.260978 -0.02249
C_ C_ 0.71744 0.102492 0.288827 -0.11473
C_ C_ 0.965074 0.103503 0.291802 -0.11473
C_ C_ 0.692911 0.131309 0.213805 -0.11473
C_ C_ 0.945023 0.125749 0.214239 -0.11473
C_ C_ 0.700774 0.140105 0.288819 -0.11473
C_ C_ 0.949399 0.140244 0.289358 -0.11473
C_ C_ 0.719233 0.0781165 0.252158 -0.02249
C_ C_ 0.974433 0.0815258 0.255838 -0.02249
C_ C_ 0.665061 0.189427 0.249853 0.6875
C_ C_ 0.914472 0.18467 0.245439 0.6875
C_ C_ 0.708096 0.0948112 0.21338 -0.11473
C_ C_ 0.962004 0.0907682 0.217763 -0.11473
C_ C_ 0.562543 0.154833 0.249828 -0.02249
C_ C_ 0.818726 0.148131 0.250064 -0.02249
C_ C_ 0.516012 0.0379522 0.248099 -0.02249
C_ C_ 0.767066 0.0358122 0.253992 -0.02249
C_ C_ 0.5357 0.100476 0.212458 -0.11473
C_ C_ 0.78684 0.0976618 0.21401 -0.11473
C_ C_ 0.559224 0.132938 0.287824 -0.11473
C_ C_ 0.817036 0.123569 0.285799 -0.11473
C_ C_ 0.547532 0.140942 0.212991 -0.11473
C_ C_ 0.805144 0.131768 0.211962 -0.11473
C_ C_ 0.533241 0.0778015 0.249462 -0.02249
C_ C_ 0.783778 0.0751047 0.251496 -0.02249
C_ C_ 0.584173 0.191882 0.247869 0.6875
C_ C_ 0.837703 0.18594 0.246814 0.6875
C_ C_ 0.544835 0.093901 0.287547 -0.11473
C_ C_ 0.79845 0.0896877 0.288508 -0.11473
C_ C_ 0.620809 0.21096 0.37161 0.17695
C_ C_ 0.869901 0.209414 0.372445 0.17695
C_ C_ 0.615914 0.282993 0.375152 0.17695
C_ C_ 0.868796 0.282426 0.375396 0.17695
C_ C_ 0.61156 0.281374 0.419098 -0.11473
C_ C_ 0.86615 0.280196 0.419632 -0.11473
C_ C_ 0.608396 0.243809 0.439316 0.23465
C_ C_ 0.869211 0.241714 0.439546 0.23465
C_ C_ 0.615991 0.207533 0.416323 -0.11473
C_ C_ 0.872119 0.206501 0.416599 -0.11473
C_ C_ 0.623912 0.209397 0.123701 0.17695
C_ C_ 0.856724 0.219794 0.119285 0.17695
C_ C_ 0.629541 0.281828 0.119294 0.17695
C_ C_ 0.897753 0.267199 0.115817 0.17695
C_ C_ 0.6334 0.27799 0.0758859 -0.11473
C_ C_ 0.896167 0.266302 0.0702635 -0.11473
C_ C_ 0.627773 0.240057 0.0551736 0.23465
C_ C_ 0.873502 0.243199 0.0502751 0.23465
C_ C_ 0.623052 0.204484 0.0789021 -0.11473
C_ C_ 0.854057 0.220016 0.0758267 -0.11473
C_ C_ 0.532796 0.498865 0.255742 0.05793
C_ C_ 0.782841 0.495141 0.241954 0.05793
C_ C_ 0.719299 0.998999 0.257184 0.05793
C_ C_ 0.973039 1.00358234 0.259516 0.05793
Br Br 0.577389 0.499023 0.255661 -0.17191
Br Br 0.826624 0.492965 0.237856 -0.17191
Br Br 0.675331 -0.002387000000000028 0.261538 -0.17191
Br Br 0.929535 0.00445261 0.257599 -0.17191
N_ N_ 0.618869 0.248471 0.352515 -0.272
N_ N_ 0.870293 0.247067 0.352912 -0.272
N_ N_ 0.608672 0.23805 0.484945 -0.12501
N_ N_ 0.868335 0.23856 0.485859 -0.12501
N_ N_ 0.626743 0.24737 0.142987 -0.272
N_ N_ 0.877629 0.245082 0.137242 -0.272
N_ N_ 0.625036 0.235393 0.0106222 -0.12501
N_ N_ 0.870035 0.240553 0.00568573 -0.12501
O_ O_ 0.593736 0.294531 0.209749 -0.60745
O_ O_ 0.840912 0.286337 0.214706 -0.60745
O_ O_ 0.592816 0.29043 0.278882 -0.60745
O_ O_ 0.845512 0.293098 0.283948 -0.60745
O_ O_ 0.653739 0.296735 0.288127 -0.60745
O_ O_ 0.907243 0.292882 0.283897 -0.60745
O_ O_ 0.655143 0.288328 0.217834 -0.60745
O_ O_ 0.906774 0.294168 0.214207 -0.60745
O_ O_ 0.658301 0.205357 0.283824 -0.60745
O_ O_ 0.902381 0.198955 0.279541 -0.60745
O_ O_ 0.65596 0.203702 0.215286 -0.60745
O_ O_ 0.907137 0.199536 0.209765 -0.60745
O_ O_ 0.589766 0.210074 0.213372 -0.60745
O_ O_ 0.846525 0.199385 0.212777 -0.60745
O_ O_ 0.599467 0.200143 0.279775 -0.60745
O_ O_ 0.843357 0.204994 0.280183 -0.60745
Zn Zn 0.619538 0.250628 0.780809 0.9476
Zn Zn 0.875604 0.25344 0.782478 0.9476
Zn Zn 0.622187 0.25138 0.712358 0.9476
Zn Zn 0.8718 0.252921 0.714085 0.9476
H_ H_ 0.52135 0.412663 0.679157 0.10932
H_ H_ 0.794627 0.426784 0.680257 0.10932
H_ H_ 0.565946 0.360245 0.81336 0.10932
H_ H_ 0.800656 0.339026 0.810224 0.10932
H_ H_ 0.558724 0.35505 0.67829 0.10932
H_ H_ 0.824405 0.362769 0.680779 0.10932
H_ H_ 0.533321 0.424343 0.814842 0.10932
H_ H_ 0.774063 0.403268 0.811004 0.10932
H_ H_ 0.696894 0.433411 0.808375 0.10932
H_ H_ 0.983322 0.403607 0.808964 0.10932
H_ H_ 0.703771 0.338176 0.686624 0.10932
H_ H_ 0.91925 0.372078 0.684794 0.10932
H_ H_ 0.662227 0.368505 0.803512 0.10932
H_ H_ 0.95462 0.341009 0.810442 0.10932
H_ H_ 0.727439 0.404487 0.684703 0.10932
H_ H_ 0.949655 0.436186 0.6857 0.10932
H_ H_ 0.710707 0.0831889 0.821543 0.10932
H_ H_ 0.976113 0.0968205 0.821294 0.10932
H_ H_ 0.682364 0.143894 0.686048 0.10932
H_ H_ 0.931048 0.138832 0.687008 0.10932
H_ H_ 0.678979 0.144532 0.818919 0.10932
H_ H_ 0.944088 0.15962 0.818137 0.10932
H_ H_ 0.713652 0.0798665 0.688469 0.10932
H_ H_ 0.954031 0.0693557 0.69296 0.10932
H_ H_ 0.535947 0.081895 0.671508 0.10932
H_ H_ 0.764992 0.0934947 0.696666 0.10932
H_ H_ 0.558294 0.142462 0.808609 0.10932
H_ H_ 0.828807 0.135765 0.818282 0.10932
H_ H_ 0.561093 0.150035 0.675505 0.10932
H_ H_ 0.794335 0.160711 0.692186 0.10932
H_ H_ 0.53491 0.0749989 0.803627 0.10932
H_ H_ 0.806045 0.0686075 0.816334 0.10932
H_ H_ 0.625288 0.320307 0.850636 0.10932
H_ H_ 0.92426 0.236972 0.850525 0.10932
H_ H_ 0.614411 0.190613 0.860157 0.10932
H_ H_ 0.833216 0.275183 0.860301 0.10932
H_ H_ 0.622649 0.19465 0.936905 0.10932
H_ H_ 0.838809 0.280639 0.935087 0.10932
H_ H_ 0.633301 0.326479 0.928927 0.10932
H_ H_ 0.928905 0.233425 0.925003 0.10932
H_ H_ 0.63247 0.319127 0.64439 0.10932
H_ H_ 0.874031 0.319298 0.644511 0.10932
H_ H_ 0.601317 0.196992 0.630058 0.10932
H_ H_ 0.875703 0.187189 0.630729 0.10932
H_ H_ 0.594816 0.204595 0.555924 0.10932
H_ H_ 0.874502 0.196882 0.552513 0.10932
H_ H_ 0.63534 0.3238 0.561863 0.10932
H_ H_ 0.866007 0.327049 0.568545 0.10932
C_ C_ 0.563655 0.350931 0.747903 -0.02249
C_ C_ 0.811933 0.34416 0.743596 -0.02249
C_ C_ 0.510803 0.465902 0.74496 -0.02249
C_ C_ 0.764958 0.459051 0.748332 -0.02249
C_ C_ 0.531029 0.402202 0.711016 -0.11473
C_ C_ 0.79746 0.409823 0.710327 -0.11473
C_ C_ 0.557642 0.373089 0.784374 -0.11473
C_ C_ 0.797751 0.355923 0.779957 -0.11473
C_ C_ 0.550848 0.368217 0.709839 -0.11473
C_ C_ 0.813037 0.372352 0.708657 -0.11473
C_ C_ 0.52703 0.423884 0.747626 -0.02249
C_ C_ 0.782944 0.421067 0.747046 -0.02249
C_ C_ 0.58295 0.311939 0.748372 0.6875
C_ C_ 0.833109 0.309312 0.746834 0.6875
C_ C_ 0.539956 0.409245 0.785104 -0.11473
C_ C_ 0.782645 0.394204 0.781977 -0.11473
C_ C_ 0.679317 0.34805 0.744402 -0.02249
C_ C_ 0.935048 0.347831 0.74598 -0.02249
C_ C_ 0.733634 0.461443 0.741999 -0.02249
C_ C_ 0.98452 0.464529 0.747996 -0.02249
C_ C_ 0.697133 0.412546 0.780128 -0.11473
C_ C_ 0.970351 0.396766 0.781436 -0.11473
C_ C_ 0.697342 0.360601 0.710281 -0.11473
C_ C_ 0.934589 0.37671 0.711632 -0.11473
C_ C_ 0.679225 0.374545 0.778881 -0.11473
C_ C_ 0.954414 0.358205 0.780852 -0.11473
C_ C_ 0.714756 0.423161 0.744897 -0.02249
C_ C_ 0.967173 0.425093 0.749619 -0.02249
C_ C_ 0.661135 0.308993 0.746006 0.6875
C_ C_ 0.916487 0.310998 0.748474 0.6875
C_ C_ 0.713213 0.399079 0.710572 -0.11473
C_ C_ 0.949634 0.415026 0.713476 -0.11473
C_ C_ 0.676335 0.149189 0.750992 -0.02249
C_ C_ 0.933682 0.154212 0.753429 -0.02249
C_ C_ 0.731898 0.0365361 0.760482 -0.02249
C_ C_ 0.982927 0.0361497 0.761522 -0.02249
C_ C_ 0.703689 0.0960664 0.792025 -0.11473
C_ C_ 0.96492 0.105092 0.793579 -0.11473
C_ C_ 0.687164 0.12959 0.714982 -0.11473
C_ C_ 0.938695 0.128442 0.717051 -0.11473
C_ C_ 0.686267 0.132324 0.789393 -0.11473
C_ C_ 0.948015 0.141891 0.790191 -0.11473
C_ C_ 0.714061 0.0758754 0.755176 -0.02249
C_ C_ 0.967316 0.0770826 0.759111 -0.02249
C_ C_ 0.657518 0.1876 0.746561 0.6875
C_ C_ 0.915251 0.194701 0.751663 0.6875
C_ C_ 0.70263 0.0909052 0.717483 -0.11473
C_ C_ 0.954259 0.0891179 0.71976 -0.11473
C_ C_ 0.55635 0.158642 0.742737 -0.02249
C_ C_ 0.814966 0.151754 0.755089 -0.02249
C_ C_ 0.513183 0.0357329 0.735552 -0.02249
C_ C_ 0.763853 0.0367156 0.758408 -0.02249
C_ C_ 0.537016 0.0990765 0.70166 -0.11473
C_ C_ 0.780496 0.102599 0.721532 -0.11473
C_ C_ 0.549494 0.133229 0.778813 -0.11473
C_ C_ 0.814765 0.126448 0.792168 -0.11473
C_ C_ 0.551229 0.139298 0.703533 -0.11473
C_ C_ 0.797399 0.139993 0.719627 -0.11473
C_ C_ 0.527529 0.0779259 0.738229 -0.02249
C_ C_ 0.779856 0.077247 0.758021 -0.02249
C_ C_ 0.577415 0.194143 0.745799 0.6875
C_ C_ 0.835003 0.189218 0.752452 0.6875
C_ C_ 0.535514 0.0927304 0.775722 -0.11473
C_ C_ 0.799233 0.0900002 0.791371 -0.11473
C_ C_ 0.626105 0.292661 0.871387 0.17695
C_ C_ 0.90452 0.2448 0.868677 0.17695
C_ C_ 0.617367 0.220657 0.875551 0.17695
C_ C_ 0.852257 0.258877 0.872656 0.17695
C_ C_ 0.621217 0.222764 0.919351 -0.11473
C_ C_ 0.855802 0.264595 0.917021 -0.11473
C_ C_ 0.627549 0.261565 0.939561 0.23465
C_ C_ 0.882628 0.2535 0.936697 0.23465
C_ C_ 0.628899 0.296442 0.914848 -0.11473
C_ C_ 0.907571 0.244087 0.911608 -0.11473
C_ C_ 0.63085 0.292366 0.623569 0.17695
C_ C_ 0.874613 0.291745 0.625806 0.17695
C_ C_ 0.60738 0.227885 0.616275 0.17695
C_ C_ 0.873633 0.219111 0.617128 0.17695
C_ C_ 0.607435 0.228736 0.573393 -0.11473
C_ C_ 0.872369 0.222978 0.573926 -0.11473
C_ C_ 0.61971 0.262279 0.553417 0.23465
C_ C_ 0.873042 0.263544 0.554794 0.23465
C_ C_ 0.628654 0.297414 0.578732 -0.11473
C_ C_ 0.873948 0.297636 0.582619 -0.11473
C_ C_ 0.52606 0.504153 0.743909 0.05793
C_ C_ 0.78036 0.495401 0.754443 0.05793
C_ C_ 0.715733 -0.0009630000000000472 0.76262 0.05793
C_ C_ 0.966545 -0.0011470000000000091 0.761495 0.05793
Br Br 0.568987 0.510508 0.752859 -0.17191
Br Br 0.825442 0.489765 0.761866 -0.17191
Br Br 0.673712 -0.0012919999999999598 0.778388 -0.17191
Br Br 0.923278 -0.0015500000000000513 0.763756 -0.17191
N_ N_ 0.62177 0.255603 0.852585 -0.272
N_ N_ 0.87703 0.249909 0.849598 -0.272
N_ N_ 0.628098 0.266303 0.985655 -0.12501
N_ N_ 0.88737 0.258635 0.98162 -0.12501
N_ N_ 0.622014 0.255483 0.640952 -0.272
N_ N_ 0.873398 0.252527 0.643946 -0.272
N_ N_ 0.620043 0.265086 0.508884 -0.12501
N_ N_ 0.870567 0.268543 0.509642 -0.12501
O_ O_ 0.594322 0.298934 0.713952 -0.60745
O_ O_ 0.842286 0.292873 0.713038 -0.60745
O_ O_ 0.589095 0.293773 0.782465 -0.60745
O_ O_ 0.844059 0.298651 0.782993 -0.60745
O_ O_ 0.650875 0.296633 0.782055 -0.60745
O_ O_ 0.908481 0.296108 0.78337 -0.60745
O_ O_ 0.655656 0.288135 0.713259 -0.60745
O_ O_ 0.903064 0.298347 0.715198 -0.60745
O_ O_ 0.651572 0.207253 0.779114 -0.60745
O_ O_ 0.906417 0.211968 0.785632 -0.60745
O_ O_ 0.649247 0.201517 0.709513 -0.60745
O_ O_ 0.90467 0.207307 0.717738 -0.60745
O_ O_ 0.587677 0.209601 0.712772 -0.60745
O_ O_ 0.838749 0.207468 0.718979 -0.60745
O_ O_ 0.587757 0.205021 0.781579 -0.60745
O_ O_ 0.844227 0.207142 0.786233 -0.60745
Zn Zn 0.627488 0.747324 0.291348 0.9476
Zn Zn 0.876481 0.746107 0.292126 0.9476
Zn Zn 0.626171 0.75015 0.220513 0.9476
Zn Zn 0.875202 0.752245 0.224899 0.9476
H_ H_ 0.528089 0.91246 0.185195 0.10932
H_ H_ 0.778913 0.906614 0.186722 0.10932
H_ H_ 0.575873 0.864307 0.32083 0.10932
H_ H_ 0.811695 0.849801 0.324187 0.10932
H_ H_ 0.55363 0.8435 0.186474 0.10932
H_ H_ 0.808068 0.841643 0.190729 0.10932
H_ H_ 0.549936 0.927299 0.314819 0.10932
H_ H_ 0.789428 0.919709 0.321341 0.10932
H_ H_ 0.722017 0.909524 0.319575 0.10932
H_ H_ 0.965616 0.921021 0.325099 0.10932
H_ H_ 0.677797 0.854375 0.187748 0.10932
H_ H_ 0.922815 0.866295 0.192506 0.10932
H_ H_ 0.691374 0.8472 0.323054 0.10932
H_ H_ 0.941945 0.850652 0.32617 0.10932
H_ H_ 0.703592 0.91865 0.186525 0.10932
H_ H_ 0.957015 0.927798 0.19028 0.10932
H_ H_ 0.698272 0.557128 0.307598 0.10932
H_ H_ 0.950624 0.565462 0.31358 0.10932
H_ H_ 0.70701 0.664008 0.195778 0.10932
H_ H_ 0.945124 0.665926 0.191374 0.10932
H_ H_ 0.674715 0.627261 0.315468 0.10932
H_ H_ 0.923207 0.633466 0.320092 0.10932
H_ H_ 0.735619 0.599213 0.188548 0.10932
H_ H_ 0.973482 0.596594 0.18803 0.10932
H_ H_ 0.548865 0.570544 0.186652 0.10932
H_ H_ 0.80152 0.57236 0.184032 0.10932
H_ H_ 0.542865 0.663791 0.312329 0.10932
H_ H_ 0.810421 0.644098 0.321496 0.10932
H_ H_ 0.575517 0.640058 0.186265 0.10932
H_ H_ 0.832991 0.632565 0.191504 0.10932
H_ H_ 0.515728 0.598813 0.31131 0.10932
H_ H_ 0.772258 0.585215 0.310213 0.10932
H_ H_ 0.63354 0.678829 0.366524 0.10932
H_ H_ 0.873284 0.808455 0.371876 0.10932
H_ H_ 0.617744 0.811144 0.364608 0.10932
H_ H_ 0.883445 0.681771 0.363453 0.10932
H_ H_ 0.622505 0.814005 0.440253 0.10932
H_ H_ 0.885191 0.674255 0.440882 0.10932
H_ H_ 0.636992 0.680399 0.442274 0.10932
H_ H_ 0.877533 0.802433 0.453351 0.10932
H_ H_ 0.622708 0.68977 0.152498 0.10932
H_ H_ 0.907286 0.792753 0.14512 0.10932
H_ H_ 0.635623 0.81778 0.142088 0.10932
H_ H_ 0.841113 0.692122 0.153617 0.10932
H_ H_ 0.628999 0.81264 0.0635327 0.10932
H_ H_ 0.846406 0.683042 0.0764089 0.10932
H_ H_ 0.620652 0.680573 0.0750386 0.10932
H_ H_ 0.901233 0.790616 0.067912 0.10932
C_ C_ 0.566381 0.846873 0.251849 -0.02249
C_ C_ 0.809597 0.840083 0.256803 -0.02249
C_ C_ 0.5166 0.961051 0.252128 -0.02249
C_ C_ 0.766706 0.959716 0.252354 -0.02249
C_ C_ 0.537452 0.899571 0.214241 -0.11473
C_ C_ 0.788314 0.896141 0.215975 -0.11473
C_ C_ 0.566066 0.873056 0.289138 -0.11473
C_ C_ 0.804644 0.863355 0.29367 -0.11473
C_ C_ 0.551928 0.860728 0.214688 -0.11473
C_ C_ 0.799537 0.855385 0.219176 -0.11473
C_ C_ 0.534934 0.92286 0.250976 -0.02249
C_ C_ 0.782542 0.919495 0.252256 -0.02249
C_ C_ 0.587882 0.809137 0.252115 0.6875
C_ C_ 0.82904 0.802014 0.257278 0.6875
C_ C_ 0.549192 0.909966 0.288125 -0.11473
C_ C_ 0.790176 0.902637 0.292516 -0.11473
C_ C_ 0.685695 0.842885 0.255405 -0.02249
C_ C_ 0.930732 0.854119 0.258808 -0.02249
C_ C_ 0.734099 0.959608 0.251442 -0.02249
C_ C_ 0.986874 0.96553 0.254588 -0.02249
C_ C_ 0.711671 0.898319 0.290935 -0.11473
C_ C_ 0.959793 0.907339 0.295764 -0.11473
C_ C_ 0.686744 0.866227 0.216754 -0.11473
C_ C_ 0.93429 0.876099 0.220657 -0.11473
C_ C_ 0.699009 0.859241 0.291678 -0.11473
C_ C_ 0.945747 0.867633 0.296212 -0.11473
C_ C_ 0.715969 0.918517 0.253155 -0.02249
C_ C_ 0.967368 0.926272 0.257271 -0.02249
C_ C_ 0.667517 0.804955 0.255268 0.6875
C_ C_ 0.912217 0.815508 0.258499 0.6875
C_ C_ 0.704248 0.901935 0.215746 -0.11473
C_ C_ 0.955307 0.908971 0.219866 -0.11473
C_ C_ 0.68483 0.649103 0.253388 -0.02249
C_ C_ 0.933538 0.654032 0.255218 -0.02249
C_ C_ 0.736173 0.533637 0.245101 -0.02249
C_ C_ 0.984277 0.541719 0.246871 -0.02249
C_ C_ 0.702732 0.582432 0.283835 -0.11473
C_ C_ 0.950771 0.588156 0.287503 -0.11473
C_ C_ 0.706209 0.641902 0.220029 -0.11473
C_ C_ 0.948625 0.643457 0.218439 -0.11473
C_ C_ 0.68601 0.618082 0.285735 -0.11473
C_ C_ 0.936246 0.627703 0.29144 -0.11473
C_ C_ 0.719645 0.574373 0.247946 -0.02249
C_ C_ 0.96847 0.580721 0.253614 -0.02249
C_ C_ 0.666653 0.686775 0.255514 0.6875
C_ C_ 0.913977 0.691977 0.257509 0.6875
C_ C_ 0.721267 0.603764 0.215906 -0.11473
C_ C_ 0.964161 0.605229 0.217272 -0.11473
C_ C_ 0.563643 0.654749 0.250456 -0.02249
C_ C_ 0.822276 0.644106 0.257303 -0.02249
C_ C_ 0.517074 0.536754 0.253675 -0.02249
C_ C_ 0.767745 0.532562 0.245749 -0.02249
C_ C_ 0.549431 0.590883 0.215833 -0.11473
C_ C_ 0.803566 0.586842 0.214792 -0.11473
C_ C_ 0.544982 0.644472 0.284271 -0.11473
C_ C_ 0.809325 0.625633 0.293004 -0.11473
C_ C_ 0.564425 0.628851 0.213846 -0.11473
C_ C_ 0.821531 0.622202 0.219808 -0.11473
C_ C_ 0.533364 0.577938 0.251994 -0.02249
C_ C_ 0.786272 0.570651 0.247357 -0.02249
C_ C_ 0.585268 0.691102 0.255135 0.6875
C_ C_ 0.839142 0.684093 0.262032 0.6875
C_ C_ 0.53034 0.606801 0.284833 -0.11473
C_ C_ 0.789113 0.591466 0.285988 -0.11473
C_ C_ 0.632855 0.710104 0.38245 0.17695
C_ C_ 0.877637 0.779516 0.387825 0.17695
C_ C_ 0.620851 0.781875 0.382172 0.17695
C_ C_ 0.881507 0.70806 0.383397 0.17695
C_ C_ 0.619482 0.782472 0.426295 -0.11473
C_ C_ 0.884778 0.703856 0.427293 -0.11473
C_ C_ 0.625578 0.745477 0.449238 0.23465
C_ C_ 0.880139 0.738095 0.452114 0.23465
C_ C_ 0.631279 0.709651 0.426041 -0.11473
C_ C_ 0.874854 0.776111 0.432002 -0.11473
C_ C_ 0.621785 0.71641 0.132392 0.17695
C_ C_ 0.890952 0.770797 0.130028 0.17695
C_ C_ 0.632625 0.787378 0.127256 0.17695
C_ C_ 0.856429 0.714355 0.134665 0.17695
C_ C_ 0.628227 0.784156 0.0829457 -0.11473
C_ C_ 0.85436 0.711062 0.09015 -0.11473
C_ C_ 0.622992 0.746479 0.0625918 0.23465
C_ C_ 0.868151 0.740241 0.0660087 0.23465
C_ C_ 0.620683 0.711546 0.0881875 -0.11473
C_ C_ 0.888745 0.769515 0.0865557 -0.11473
C_ C_ 0.531552 0.999692 0.244717 0.05793
C_ C_ 0.782269 0.996624 0.251456 0.05793
C_ C_ 0.719756 0.497888 0.238499 0.05793
C_ C_ 0.967926 0.504877 0.241786 0.05793
Br Br 0.574771 1.00007 0.240018 -0.17191
Br Br 0.824953 0.995369 0.241126 -0.17191
Br Br 0.678 0.498132 0.227045 -0.17191
Br Br 0.924481 0.504917 0.23905 -0.17191
N_ N_ 0.628953 0.746559 0.361614 -0.272
N_ N_ 0.88044 0.745399 0.364078 -0.272
N_ N_ 0.630729 0.748319 0.494359 -0.12501
N_ N_ 0.88435 0.734823 0.497503 -0.12501
N_ N_ 0.628716 0.752949 0.151342 -0.272
N_ N_ 0.872608 0.745343 0.153963 -0.272
N_ N_ 0.618447 0.742606 0.0175788 -0.12501
N_ N_ 0.862063 0.740033 0.0222073 -0.12501
O_ O_ 0.597015 0.794112 0.218071 -0.60745
O_ O_ 0.838086 0.789063 0.223122 -0.60745
O_ O_ 0.594997 0.791607 0.286855 -0.60745
O_ O_ 0.845743 0.792154 0.289815 -0.60745
O_ O_ 0.656261 0.792234 0.288998 -0.60745
O_ O_ 0.905769 0.797418 0.294283 -0.60745
O_ O_ 0.657786 0.79134 0.219785 -0.60745
O_ O_ 0.90398 0.799981 0.223664 -0.60745
O_ O_ 0.659677 0.704737 0.289384 -0.60745
O_ O_ 0.90678 0.705655 0.293408 -0.60745
O_ O_ 0.654311 0.699653 0.222549 -0.60745
O_ O_ 0.909289 0.714476 0.224813 -0.60745
O_ O_ 0.592703 0.710013 0.22277 -0.60745
O_ O_ 0.848193 0.700685 0.228535 -0.60745
O_ O_ 0.59345 0.705131 0.291036 -0.60745
O_ O_ 0.849515 0.696971 0.297412 -0.60745
Zn Zn 0.625087 0.746892 0.788006 0.9476
Zn Zn 0.874435 0.746542 0.79388 0.9476
Zn Zn 0.624863 0.746856 0.720097 0.9476
Zn Zn 0.87045 0.751866 0.724889 0.9476
H_ H_ 0.538266 0.918742 0.68039 0.10932
H_ H_ 0.772361 0.909416 0.690387 0.10932
H_ H_ 0.574198 0.857995 0.814938 0.10932
H_ H_ 0.819715 0.856003 0.821725 0.10932
H_ H_ 0.564858 0.84907 0.680386 0.10932
H_ H_ 0.794263 0.840264 0.691585 0.10932
H_ H_ 0.538929 0.916748 0.812705 0.10932
H_ H_ 0.791019 0.922343 0.819457 0.10932
H_ H_ 0.725884 0.90612 0.826101 0.10932
H_ H_ 0.963219 0.918644 0.826002 0.10932
H_ H_ 0.669925 0.864705 0.698775 0.10932
H_ H_ 0.937198 0.845921 0.691707 0.10932
H_ H_ 0.701034 0.838824 0.823063 0.10932
H_ H_ 0.938429 0.853874 0.828945 0.10932
H_ H_ 0.69765 0.930093 0.696827 0.10932
H_ H_ 0.970114 0.907726 0.693592 0.10932
H_ H_ 0.707714 0.569218 0.818313 0.10932
H_ H_ 0.959041 0.57763 0.818444 0.10932
H_ H_ 0.695334 0.658168 0.693715 0.10932
H_ H_ 0.929412 0.650533 0.688488 0.10932
H_ H_ 0.673576 0.624067 0.821587 0.10932
H_ H_ 0.932574 0.646137 0.82268 0.10932
H_ H_ 0.714209 0.590144 0.686213 0.10932
H_ H_ 0.958426 0.583647 0.685519 0.10932
H_ H_ 0.522583 0.59342 0.680812 0.10932
H_ H_ 0.775267 0.588174 0.691221 0.10932
H_ H_ 0.568526 0.637243 0.815489 0.10932
H_ H_ 0.829373 0.630154 0.822913 0.10932
H_ H_ 0.555998 0.654805 0.681208 0.10932
H_ H_ 0.797327 0.660791 0.69638 0.10932
H_ H_ 0.531386 0.581313 0.814013 0.10932
H_ H_ 0.806458 0.565972 0.820926 0.10932
H_ H_ 0.63334 0.684716 0.871005 0.10932
H_ H_ 0.890664 0.689154 0.873146 0.10932
H_ H_ 0.622208 0.813142 0.855793 0.10932
H_ H_ 0.852746 0.804612 0.864958 0.10932
H_ H_ 0.623031 0.8257 0.933502 0.10932
H_ H_ 0.856241 0.812135 0.943913 0.10932
H_ H_ 0.63255 0.694819 0.95117 0.10932
H_ H_ 0.89177 0.690683 0.948948 0.10932
H_ H_ 0.620894 0.672222 0.652641 0.10932
H_ H_ 0.88075 0.815634 0.652717 0.10932
H_ H_ 0.61621 0.800858 0.643343 0.10932
H_ H_ 0.866309 0.686399 0.647439 0.10932
H_ H_ 0.61783 0.797289 0.564434 0.10932
H_ H_ 0.861945 0.688098 0.569632 0.10932
H_ H_ 0.621304 0.665831 0.573953 0.10932
H_ H_ 0.874529 0.818026 0.575511 0.10932
C_ C_ 0.569918 0.846474 0.748 -0.02249
C_ C_ 0.81179 0.844803 0.755272 -0.02249
C_ C_ 0.515638 0.960264 0.743184 -0.02249
C_ C_ 0.764218 0.960523 0.758057 -0.02249
C_ C_ 0.544402 0.902429 0.709852 -0.11473
C_ C_ 0.78396 0.899202 0.718566 -0.11473
C_ C_ 0.564264 0.868037 0.784471 -0.11473
C_ C_ 0.808584 0.866416 0.792324 -0.11473
C_ C_ 0.560815 0.865621 0.710195 -0.11473
C_ C_ 0.797339 0.86027 0.718332 -0.11473
C_ C_ 0.534427 0.920331 0.746103 -0.02249
C_ C_ 0.780759 0.920965 0.756132 -0.02249
C_ C_ 0.587301 0.807909 0.747928 0.6875
C_ C_ 0.831027 0.807611 0.754281 0.6875
C_ C_ 0.543256 0.901444 0.784205 -0.11473
C_ C_ 0.793608 0.905606 0.792729 -0.11473
C_ C_ 0.687439 0.842783 0.757153 -0.02249
C_ C_ 0.931208 0.845372 0.761007 -0.02249
C_ C_ 0.731952 0.961683 0.760982 -0.02249
C_ C_ 0.981586 0.959423 0.758573 -0.02249
C_ C_ 0.717987 0.893692 0.796261 -0.11473
C_ C_ 0.957339 0.902509 0.796171 -0.11473
C_ C_ 0.68539 0.871369 0.723452 -0.11473
C_ C_ 0.941194 0.862063 0.721396 -0.11473
C_ C_ 0.703039 0.855609 0.793716 -0.11473
C_ C_ 0.940766 0.866826 0.79801 -0.11473
C_ C_ 0.714464 0.922357 0.761228 -0.02249
C_ C_ 0.964823 0.920076 0.759005 -0.02249
C_ C_ 0.668062 0.805225 0.753409 0.6875
C_ C_ 0.911877 0.807575 0.760577 0.6875
C_ C_ 0.700091 0.909246 0.724461 -0.11473
C_ C_ 0.960226 0.89763 0.721086 -0.11473
C_ C_ 0.683602 0.649461 0.759907 -0.02249
C_ C_ 0.934506 0.655049 0.75582 -0.02249
C_ C_ 0.734899 0.537024 0.751451 -0.02249
C_ C_ 0.983372 0.539807 0.752539 -0.02249
C_ C_ 0.706245 0.590166 0.792706 -0.11473
C_ C_ 0.956873 0.596687 0.791497 -0.11473
C_ C_ 0.699643 0.640658 0.723458 -0.11473
C_ C_ 0.939357 0.634993 0.715802 -0.11473
C_ C_ 0.687799 0.621937 0.793977 -0.11473
C_ C_ 0.941851 0.635325 0.792618 -0.11473
C_ C_ 0.718081 0.577173 0.753942 -0.02249
C_ C_ 0.965814 0.579299 0.752947 -0.02249
C_ C_ 0.659597 0.681764 0.759451 0.6875
C_ C_ 0.913492 0.690328 0.758421 0.6875
C_ C_ 0.71195 0.600408 0.717213 -0.11473
C_ C_ 0.957061 0.600171 0.714752 -0.11473
C_ C_ 0.561905 0.654107 0.750195 -0.02249
C_ C_ 0.816713 0.649791 0.758943 -0.02249
C_ C_ 0.509372 0.541899 0.746945 -0.02249
C_ C_ 0.76628 0.535588 0.753489 -0.02249
C_ C_ 0.531333 0.604537 0.710112 -0.11473
C_ C_ 0.785053 0.601521 0.721596 -0.11473
C_ C_ 0.555472 0.632005 0.786526 -0.11473
C_ C_ 0.818666 0.62166 0.793722 -0.11473
C_ C_ 0.550528 0.639288 0.712014 -0.11473
C_ C_ 0.799316 0.639122 0.722001 -0.11473
C_ C_ 0.525853 0.582317 0.748186 -0.02249
C_ C_ 0.785201 0.574204 0.756264 -0.02249
C_ C_ 0.584538 0.689229 0.75337 0.6875
C_ C_ 0.834299 0.689111 0.760774 0.6875
C_ C_ 0.536358 0.598247 0.786398 -0.11473
C_ C_ 0.802908 0.584241 0.79221 -0.11473
C_ C_ 0.630739 0.716133 0.886197 0.17695
C_ C_ 0.881838 0.716339 0.887875 0.17695
C_ C_ 0.623536 0.788354 0.877569 0.17695
C_ C_ 0.860682 0.78083 0.884451 0.17695
C_ C_ 0.627599 0.794719 0.920975 -0.11473
C_ C_ 0.862733 0.785147 0.928844 -0.11473
C_ C_ 0.630314 0.761049 0.948702 0.23465
C_ C_ 0.872842 0.751979 0.951791 0.23465
C_ C_ 0.631571 0.72163 0.930724 -0.11473
C_ C_ 0.881319 0.715487 0.931947 -0.11473
C_ C_ 0.625985 0.698624 0.632011 0.17695
C_ C_ 0.877468 0.786373 0.633755 0.17695
C_ C_ 0.62116 0.772465 0.626573 0.17695
C_ C_ 0.871471 0.713722 0.631029 0.17695
C_ C_ 0.618236 0.770359 0.582541 -0.11473
C_ C_ 0.868392 0.71621 0.588385 -0.11473
C_ C_ 0.620875 0.731831 0.56291 0.23465
C_ C_ 0.873339 0.753815 0.567118 0.23465
C_ C_ 0.623148 0.696611 0.587798 -0.11473
C_ C_ 0.872984 0.789886 0.590353 -0.11473
C_ C_ 0.530285 -0.0007110000000000172 0.739761 0.05793
C_ C_ 0.779545 -0.00100293 0.752239 0.05793
C_ C_ 0.718731 0.500703 0.746401 0.05793
C_ C_ 0.969837 0.500029 0.757856 0.05793
Br Br 0.574042 0.00234078 0.742024 -0.17191
Br Br 0.822133 1.00130868 0.752066 -0.17191
Br Br 0.675233 0.504485 0.734798 -0.17191
Br Br 0.926229 0.500879 0.754706 -0.17191
N_ N_ 0.626449 0.749513 0.860663 -0.272
N_ N_ 0.871718 0.747955 0.864553 -0.272
N_ N_ 0.630855 0.767894 0.99427 -0.12501
N_ N_ 0.877612 0.758206 0.995546 -0.12501
N_ N_ 0.624933 0.737108 0.650041 -0.272
N_ N_ 0.874688 0.748903 0.653687 -0.272
N_ N_ 0.616636 0.72804 0.519258 -0.12501
N_ N_ 0.869095 0.75628 0.521518 -0.12501
O_ O_ 0.59277 0.788218 0.713888 -0.60745
O_ O_ 0.840017 0.794059 0.720232 -0.60745
O_ O_ 0.599411 0.796914 0.78237 -0.60745
O_ O_ 0.841141 0.789515 0.788475 -0.60745
O_ O_ 0.659278 0.789443 0.787375 -0.60745
O_ O_ 0.905618 0.790027 0.794393 -0.60745
O_ O_ 0.659236 0.792748 0.717408 -0.60745
O_ O_ 0.900721 0.794628 0.725301 -0.60745
O_ O_ 0.650347 0.697101 0.792907 -0.60745
O_ O_ 0.908829 0.706428 0.794453 -0.60745
O_ O_ 0.655387 0.703157 0.725838 -0.60745
O_ O_ 0.900244 0.705269 0.726223 -0.60745
O_ O_ 0.595488 0.701967 0.720192 -0.60745
O_ O_ 0.839985 0.706794 0.726859 -0.60745
O_ O_ 0.592604 0.705488 0.788555 -0.60745
O_ O_ 0.847936 0.70003 0.795686 -0.60745
