_cell_length_a 44.444
_cell_length_b 32.3360000049186
_cell_length_c 31.843999878906452
_cell_angle_alpha 89.99799923859553
_cell_angle_beta 91.13600050494348
_cell_angle_gamma 89.9990006550086
_symmetry_space_group_name_H-M         'P 1'
_symmetry_Int_Tables_number            1
loop_
_symmetry_equiv_pos_as_xyz
   'x, y, z'
                         
loop_
_atom_site_label
_atom_site_type_symbol
_atom_site_fract_x 
_atom_site_fract_y
_atom_site_fract_z
_atom_site_charge
Zn Zn 0.125554 0.249099 0.280817 0.9476
Zn Zn 0.371397 0.245182 0.291368 0.9476
Zn Zn 0.127353 0.250287 0.209667 0.9476
Zn Zn 0.367648 0.247007 0.217145 0.9476
H_ H_ 0.0311148 0.419561 0.175947 0.10932
H_ H_ 0.279922 0.416136 0.190348 0.10932
H_ H_ 0.0690951 0.3556 0.311839 0.10932
H_ H_ 0.31931 0.356611 0.323399 0.10932
H_ H_ 0.0656457 0.358775 0.17728 0.10932
H_ H_ 0.305204 0.347463 0.190571 0.10932
H_ H_ 0.0263575 0.413362 0.311206 0.10932
H_ H_ 0.295073 0.421996 0.322239 0.10932
H_ H_ 0.220443 0.415942 0.324842 0.10932
H_ H_ 0.480114 0.390156 0.317285 0.10932
H_ H_ 0.186079 0.356013 0.189703 0.10932
H_ H_ 0.414108 0.356819 0.194299 0.10932
H_ H_ 0.188537 0.348377 0.323105 0.10932
H_ H_ 0.451377 0.324581 0.316272 0.10932
H_ H_ 0.21119 0.422939 0.191042 0.10932
H_ H_ 0.437937 0.423112 0.19628 0.10932
H_ H_ 0.192604 0.0640046 0.310656 0.10932
H_ H_ 0.455483 0.0743338 0.320853 0.10932
H_ H_ 0.200685 0.150891 0.180812 0.10932
H_ H_ 0.439603 0.153167 0.188418 0.10932
H_ H_ 0.15952 0.125179 0.297662 0.10932
H_ H_ 0.427239 0.136957 0.322725 0.10932
H_ H_ 0.220346 0.082258 0.180612 0.10932
H_ H_ 0.472898 0.0915535 0.188687 0.10932
H_ H_ 0.0114306 0.102799 0.185598 0.10932
H_ H_ 0.291344 0.0660768 0.189967 0.10932
H_ H_ 0.0869481 0.122265 0.301417 0.10932
H_ H_ 0.291546 0.159302 0.314983 0.10932
H_ H_ 0.04614 0.164127 0.185114 0.10932
H_ H_ 0.318612 0.13331 0.190061 0.10932
H_ H_ 0.054334 0.0616267 0.298611 0.10932
H_ H_ 0.264393 0.0910173 0.316485 0.10932
H_ H_ 0.126677 0.184747 0.351996 0.10932
H_ H_ 0.376179 0.308355 0.365245 0.10932
H_ H_ 0.12405 0.315332 0.358435 0.10932
H_ H_ 0.362528 0.180659 0.357866 0.10932
H_ H_ 0.13095 0.313344 0.4389 0.10932
H_ H_ 0.359668 0.175435 0.437789 0.10932
H_ H_ 0.121256 0.179521 0.429098 0.10932
H_ H_ 0.371411 0.307309 0.44245 0.10932
H_ H_ 0.134988 0.313944 0.133689 0.10932
H_ H_ 0.403904 0.20341 0.14099 0.10932
H_ H_ 0.126919 0.185859 0.13782 0.10932
H_ H_ 0.326655 0.272072 0.144773 0.10932
H_ H_ 0.134536 0.18155 0.0590763 0.10932
H_ H_ 0.328202 0.285947 0.0641472 0.10932
H_ H_ 0.134387 0.311707 0.054229 0.10932
H_ H_ 0.407501 0.214667 0.060497 0.10932
C_ C_ 0.0640204 0.348431 0.24354 -0.02249
C_ C_ 0.317818 0.34955 0.255493 -0.02249
C_ C_ 0.012235 0.462545 0.245809 -0.02249
C_ C_ 0.267354 0.463602 0.259453 -0.02249
C_ C_ 0.0368486 0.404693 0.207087 -0.11473
C_ C_ 0.288031 0.402397 0.218878 -0.11473
C_ C_ 0.0567828 0.36678 0.282597 -0.11473
C_ C_ 0.313398 0.370974 0.294503 -0.11473
C_ C_ 0.0561435 0.370504 0.207492 -0.11473
C_ C_ 0.304347 0.365866 0.218752 -0.11473
C_ C_ 0.0305361 0.423344 0.246023 -0.02249
C_ C_ 0.284725 0.42412 0.257634 -0.02249
C_ C_ 0.0860525 0.311554 0.243316 0.6875
C_ C_ 0.336982 0.311546 0.256572 0.6875
C_ C_ 0.0341659 0.399731 0.282934 -0.11473
C_ C_ 0.296189 0.40647 0.29482 -0.11473
C_ C_ 0.185843 0.348646 0.255478 -0.02249
C_ C_ 0.428954 0.338167 0.255239 -0.02249
C_ C_ 0.235157 0.46131 0.262412 -0.02249
C_ C_ 0.478032 0.451052 0.258677 -0.02249
C_ C_ 0.213498 0.399842 0.295998 -0.11473
C_ C_ 0.465481 0.382072 0.291022 -0.11473
C_ C_ 0.191693 0.369283 0.219617 -0.11473
C_ C_ 0.427834 0.364288 0.221422 -0.11473
C_ C_ 0.196098 0.361946 0.294691 -0.11473
C_ C_ 0.447366 0.347094 0.291053 -0.11473
C_ C_ 0.22043 0.420851 0.259299 -0.02249
C_ C_ 0.461079 0.411639 0.258956 -0.02249
C_ C_ 0.167068 0.310037 0.25286 0.6875
C_ C_ 0.408299 0.302416 0.256144 0.6875
C_ C_ 0.207966 0.405823 0.220709 -0.11473
C_ C_ 0.442575 0.403138 0.223275 -0.11473
C_ C_ 0.182781 0.147587 0.246284 -0.02249
C_ C_ 0.430714 0.14993 0.255518 -0.02249
C_ C_ 0.228612 0.0305524 0.249851 -0.02249
C_ C_ 0.48399 0.0386513 0.254117 -0.02249
C_ C_ 0.195734 0.0822908 0.28255 -0.11473
C_ C_ 0.453397 0.0912165 0.293672 -0.11473
C_ C_ 0.198956 0.132239 0.210913 -0.11473
C_ C_ 0.442427 0.135608 0.216767 -0.11473
C_ C_ 0.179125 0.120064 0.278864 -0.11473
C_ C_ 0.438433 0.128898 0.294273 -0.11473
C_ C_ 0.211621 0.067635 0.247581 -0.02249
C_ C_ 0.467783 0.079401 0.255304 -0.02249
C_ C_ 0.166738 0.188439 0.246735 0.6875
C_ C_ 0.410113 0.186568 0.25362 0.6875
C_ C_ 0.210486 0.0918479 0.21083 -0.11473
C_ C_ 0.460914 0.102021 0.216843 -0.11473
C_ C_ 0.0671861 0.150431 0.244281 -0.02249
C_ C_ 0.308159 0.150458 0.251044 -0.02249
C_ C_ 0.0127216 0.0386084 0.238314 -0.02249
C_ C_ 0.260483 0.033435 0.254012 -0.02249
C_ C_ 0.0289087 0.108127 0.210368 -0.11473
C_ C_ 0.290442 0.086694 0.21598 -0.11473
C_ C_ 0.0705215 0.120823 0.276432 -0.11473
C_ C_ 0.29095 0.141296 0.287871 -0.11473
C_ C_ 0.0486214 0.140961 0.208757 -0.11473
C_ C_ 0.305872 0.124495 0.216057 -0.11473
C_ C_ 0.0310932 0.0794989 0.242187 -0.02249
C_ C_ 0.277411 0.0754051 0.25325 -0.02249
C_ C_ 0.0863126 0.187542 0.245466 0.6875
C_ C_ 0.328496 0.185981 0.249889 0.6875
C_ C_ 0.0522794 0.085761 0.274474 -0.11473
C_ C_ 0.27663 0.102167 0.288113 -0.11473
C_ C_ 0.12737 0.212434 0.371568 0.17695
C_ C_ 0.373547 0.279116 0.38253 0.17695
C_ C_ 0.126684 0.286741 0.375602 0.17695
C_ C_ 0.367383 0.206274 0.379294 0.17695
C_ C_ 0.129496 0.285324 0.420307 -0.11473
C_ C_ 0.365205 0.204599 0.422994 -0.11473
C_ C_ 0.128296 0.245365 0.44078 0.23465
C_ C_ 0.368813 0.240625 0.447434 0.23465
C_ C_ 0.126846 0.209317 0.416086 -0.11473
C_ C_ 0.370241 0.278317 0.4268 -0.11473
C_ C_ 0.129131 0.286086 0.116781 0.17695
C_ C_ 0.38809 0.223439 0.122514 0.17695
C_ C_ 0.126556 0.213331 0.118967 0.17695
C_ C_ 0.345859 0.266498 0.125661 0.17695
C_ C_ 0.130073 0.211561 0.0734562 -0.11473
C_ C_ 0.344613 0.26881 0.0812079 -0.11473
C_ C_ 0.131675 0.248126 0.0505866 0.23465
C_ C_ 0.367385 0.251983 0.0571861 0.23465
C_ C_ 0.130951 0.285779 0.0718129 -0.11473
C_ C_ 0.390377 0.231257 0.0794122 -0.11473
C_ C_ 0.0281612 0.499109 0.24664 0.05793
C_ C_ 0.281978 0.501198 0.25514 0.05793
C_ C_ 0.215194 -0.008589999999999987 0.245894 0.05793
C_ C_ 0.469606 0.9999838691 0.246239 0.05793
Br Br 0.0714337 0.499807 0.249093 -0.17191
Br Br 0.324442 0.504152 0.260937 -0.17191
Br Br 0.17139 -0.009048999999999974 0.229529 -0.17191
Br Br 0.430872 1.00207779 0.220046 -0.17191
N_ N_ 0.128265 0.251369 0.352379 -0.272
N_ N_ 0.372395 0.244007 0.359774 -0.272
N_ N_ 0.129682 0.239037 0.485245 -0.12501
N_ N_ 0.368329 0.234341 0.493047 -0.12501
N_ N_ 0.126148 0.25137 0.138246 -0.272
N_ N_ 0.369539 0.248483 0.144745 -0.272
N_ N_ 0.1376 0.246595 0.00672503 -0.12501
N_ N_ 0.365471 0.250694 0.0130274 -0.12501
O_ O_ 0.0942819 0.296163 0.208526 -0.60745
O_ O_ 0.343406 0.29485 0.222237 -0.60745
O_ O_ 0.0942383 0.295884 0.277503 -0.60745
O_ O_ 0.341338 0.292166 0.291331 -0.60745
O_ O_ 0.160765 0.289935 0.285778 -0.60745
O_ O_ 0.400859 0.286998 0.290889 -0.60745
O_ O_ 0.159127 0.296947 0.216691 -0.60745
O_ O_ 0.398591 0.287572 0.220216 -0.60745
O_ O_ 0.156478 0.203578 0.280665 -0.60745
O_ O_ 0.40291 0.203058 0.289219 -0.60745
O_ O_ 0.158137 0.204022 0.211587 -0.60745
O_ O_ 0.397858 0.200331 0.219026 -0.60745
O_ O_ 0.0967059 0.200534 0.211796 -0.60745
O_ O_ 0.335704 0.202704 0.214457 -0.60745
O_ O_ 0.0939505 0.204258 0.279131 -0.60745
O_ O_ 0.341042 0.19932 0.283567 -0.60745
Zn Zn 0.128487 0.252148 0.781692 0.9476
Zn Zn 0.381944 0.249355 0.786124 0.9476
Zn Zn 0.125394 0.254254 0.714129 0.9476
Zn Zn 0.377227 0.256091 0.718511 0.9476
H_ H_ 0.0254648 0.418351 0.692976 0.10932
H_ H_ 0.264521 0.403131 0.696391 0.10932
H_ H_ 0.0633918 0.346986 0.823792 0.10932
H_ H_ 0.334715 0.37438 0.810767 0.10932
H_ H_ 0.0559982 0.353399 0.691658 0.10932
H_ H_ 0.296177 0.338284 0.694658 0.10932
H_ H_ 0.0355018 0.416363 0.82766 0.10932
H_ H_ 0.301187 0.432333 0.816977 0.10932
H_ H_ 0.231728 0.406287 0.827087 0.10932
H_ H_ 0.464226 0.423009 0.815874 0.10932
H_ H_ 0.168827 0.376863 0.697283 0.10932
H_ H_ 0.442084 0.354983 0.680201 0.10932
H_ H_ 0.202007 0.338402 0.819398 0.10932
H_ H_ 0.43479 0.357311 0.811885 0.10932
H_ H_ 0.196536 0.440931 0.702172 0.10932
H_ H_ 0.476653 0.420421 0.684363 0.10932
H_ H_ 0.223119 0.0895622 0.818154 0.10932
H_ H_ 0.476757 0.0933601 0.812925 0.10932
H_ H_ 0.181186 0.146573 0.683317 0.10932
H_ H_ 0.429427 0.148095 0.683987 0.10932
H_ H_ 0.194249 0.155049 0.816714 0.10932
H_ H_ 0.452289 0.161115 0.814754 0.10932
H_ H_ 0.216132 0.0843552 0.681168 0.10932
H_ H_ 0.452547 0.073869 0.685414 0.10932
H_ H_ 0.0431174 0.082817 0.675271 0.10932
H_ H_ 0.293757 0.0831515 0.688502 0.10932
H_ H_ 0.0633562 0.158115 0.8096 0.10932
H_ H_ 0.327718 0.142219 0.821209 0.10932
H_ H_ 0.0705384 0.149532 0.675698 0.10932
H_ H_ 0.326078 0.145504 0.689299 0.10932
H_ H_ 0.0284236 0.102522 0.805682 0.10932
H_ H_ 0.293438 0.0825663 0.823723 0.10932
H_ H_ 0.138493 0.315531 0.85743 0.10932
H_ H_ 0.335705 0.252481 0.860202 0.10932
H_ H_ 0.118421 0.190398 0.851832 0.10932
H_ H_ 0.429427 0.266976 0.858836 0.10932
H_ H_ 0.104668 0.192641 0.928456 0.10932
H_ H_ 0.431128 0.268056 0.938757 0.10932
H_ H_ 0.138053 0.317203 0.934611 0.10932
H_ H_ 0.336436 0.244763 0.938621 0.10932
H_ H_ 0.140885 0.193689 0.637663 0.10932
H_ H_ 0.420326 0.266181 0.641315 0.10932
H_ H_ 0.119604 0.320735 0.641799 0.10932
H_ H_ 0.325424 0.246903 0.645409 0.10932
H_ H_ 0.114988 0.326216 0.56724 0.10932
H_ H_ 0.322135 0.251148 0.568411 0.10932
H_ H_ 0.138259 0.195902 0.559548 0.10932
H_ H_ 0.416536 0.264952 0.563688 0.10932
C_ C_ 0.0655864 0.350692 0.756783 -0.02249
C_ C_ 0.313802 0.34593 0.757107 -0.02249
C_ C_ 0.015937 0.463658 0.762488 -0.02249
C_ C_ 0.265274 0.465323 0.758607 -0.02249
C_ C_ 0.0356864 0.405214 0.722318 -0.11473
C_ C_ 0.279529 0.395692 0.722319 -0.11473
C_ C_ 0.0588057 0.368051 0.797159 -0.11473
C_ C_ 0.31728 0.375088 0.789576 -0.11473
C_ C_ 0.0505213 0.366627 0.720792 -0.11473
C_ C_ 0.294481 0.35787 0.723319 -0.11473
C_ C_ 0.0326938 0.423091 0.760292 -0.02249
C_ C_ 0.280997 0.423382 0.756735 -0.02249
C_ C_ 0.0853787 0.312639 0.752547 0.6875
C_ C_ 0.335907 0.31011 0.753071 0.6875
C_ C_ 0.0441 0.405131 0.797792 -0.11473
C_ C_ 0.299449 0.411618 0.791398 -0.11473
C_ C_ 0.183964 0.35223 0.755748 -0.02249
C_ C_ 0.435311 0.354089 0.745767 -0.02249
C_ C_ 0.234284 0.466105 0.766087 -0.02249
C_ C_ 0.487766 0.464441 0.752867 -0.02249
C_ C_ 0.215937 0.398697 0.798253 -0.11473
C_ C_ 0.459789 0.406514 0.78558 -0.11473
C_ C_ 0.182575 0.382612 0.724272 -0.11473
C_ C_ 0.445888 0.371777 0.708441 -0.11473
C_ C_ 0.20278 0.359869 0.79327 -0.11473
C_ C_ 0.444013 0.369934 0.784222 -0.11473
C_ C_ 0.214097 0.429194 0.766812 -0.02249
C_ C_ 0.472157 0.424858 0.749923 -0.02249
C_ C_ 0.169654 0.30964 0.753355 0.6875
C_ C_ 0.415401 0.315818 0.745286 0.6875
C_ C_ 0.196762 0.418811 0.730518 -0.11473
C_ C_ 0.46704 0.406448 0.710919 -0.11473
C_ C_ 0.189565 0.158035 0.749516 -0.02249
C_ C_ 0.43547 0.155063 0.750364 -0.02249
C_ C_ 0.237377 0.0438403 0.751192 -0.02249
C_ C_ 0.483545 0.0401715 0.747703 -0.02249
C_ C_ 0.216599 0.105003 0.787893 -0.11473
C_ C_ 0.464397 0.10305 0.784643 -0.11473
C_ C_ 0.19458 0.137248 0.710931 -0.11473
C_ C_ 0.436973 0.132316 0.712866 -0.11473
C_ C_ 0.199908 0.140741 0.78837 -0.11473
C_ C_ 0.449022 0.139495 0.787094 -0.11473
C_ C_ 0.224081 0.0858941 0.749052 -0.02249
C_ C_ 0.467327 0.0801259 0.747896 -0.02249
C_ C_ 0.167947 0.194649 0.749487 0.6875
C_ C_ 0.420736 0.196547 0.75187 0.6875
C_ C_ 0.210559 0.0998571 0.711255 -0.11473
C_ C_ 0.453672 0.0951738 0.711312 -0.11473
C_ C_ 0.07117 0.157341 0.742196 -0.02249
C_ C_ 0.326516 0.149778 0.754784 -0.02249
C_ C_ 0.0234395 0.042774 0.744933 -0.02249
C_ C_ 0.270679 0.0404779 0.753787 -0.02249
C_ C_ 0.0485141 0.0996601 0.703929 -0.11473
C_ C_ 0.302965 0.0922727 0.71822 -0.11473
C_ C_ 0.0614176 0.140684 0.779509 -0.11473
C_ C_ 0.320187 0.130566 0.792899 -0.11473
C_ C_ 0.0649482 0.135976 0.704029 -0.11473
C_ C_ 0.31789 0.130415 0.717974 -0.11473
C_ C_ 0.038244 0.0832374 0.741506 -0.02249
C_ C_ 0.289866 0.0773592 0.755161 -0.02249
C_ C_ 0.0890372 0.19726 0.743523 0.6875
C_ C_ 0.34221 0.192027 0.756146 0.6875
C_ C_ 0.0421647 0.106472 0.779352 -0.11473
C_ C_ 0.300753 0.0938793 0.792815 -0.11473
C_ C_ 0.135585 0.287911 0.874281 0.17695
C_ C_ 0.357125 0.252694 0.87864 0.17695
C_ C_ 0.120366 0.218724 0.870418 0.17695
C_ C_ 0.41005 0.263246 0.87777 0.17695
C_ C_ 0.115472 0.217966 0.914213 -0.11473
C_ C_ 0.41149 0.258512 0.921298 -0.11473
C_ C_ 0.122379 0.254321 0.939014 0.23465
C_ C_ 0.385305 0.25239 0.944217 0.23465
C_ C_ 0.133079 0.28868 0.917339 -0.11473
C_ C_ 0.357338 0.249436 0.923116 -0.11473
C_ C_ 0.132964 0.221396 0.620133 0.17695
C_ C_ 0.398555 0.258277 0.62617 0.17695
C_ C_ 0.115747 0.290277 0.624611 0.17695
C_ C_ 0.345555 0.249777 0.629186 0.17695
C_ C_ 0.116407 0.295129 0.581151 -0.11473
C_ C_ 0.343073 0.253899 0.585054 -0.11473
C_ C_ 0.122407 0.260367 0.556403 0.23465
C_ C_ 0.368129 0.2592 0.559634 0.23465
C_ C_ 0.132169 0.222629 0.576184 -0.11473
C_ C_ 0.396069 0.257779 0.581108 -0.11473
C_ C_ 0.0316095 0.501443 0.763919 0.05793
C_ C_ 0.282344 0.501456 0.752369 0.05793
C_ C_ 0.220145 0.00655963 0.748917 0.05793
C_ C_ 0.467636 1.00238049 0.743548 0.05793
Br Br 0.0741723 0.500438 0.778193 -0.17191
Br Br 0.323868 0.497541 0.738915 -0.17191
Br Br 0.177123 0.00956776 0.75708 -0.17191
Br Br 0.423688 1.00351441 0.741455 -0.17191
N_ N_ 0.131368 0.252637 0.851872 -0.272
N_ N_ 0.383032 0.261069 0.857249 -0.272
N_ N_ 0.117521 0.258321 0.981657 -0.12501
N_ N_ 0.388451 0.24876 0.99031 -0.12501
N_ N_ 0.125276 0.254942 0.643134 -0.272
N_ N_ 0.37349 0.251792 0.649056 -0.272
N_ N_ 0.123398 0.267061 0.510827 -0.12501
N_ N_ 0.366472 0.263428 0.516852 -0.12501
O_ O_ 0.0905153 0.295922 0.716786 -0.60745
O_ O_ 0.343429 0.298017 0.71626 -0.60745
O_ O_ 0.0985586 0.299124 0.785498 -0.60745
O_ O_ 0.347235 0.29243 0.785635 -0.60745
O_ O_ 0.162134 0.291118 0.786881 -0.60745
O_ O_ 0.410161 0.297099 0.780149 -0.60745
O_ O_ 0.156219 0.299081 0.719429 -0.60745
O_ O_ 0.405251 0.301773 0.711635 -0.60745
O_ O_ 0.157119 0.205477 0.784327 -0.60745
O_ O_ 0.41133 0.207717 0.788089 -0.60745
O_ O_ 0.15805 0.21191 0.715134 -0.60745
O_ O_ 0.40762 0.211599 0.719064 -0.60745
O_ O_ 0.0964807 0.214334 0.708837 -0.60745
O_ O_ 0.348358 0.210779 0.723401 -0.60745
O_ O_ 0.0987336 0.209761 0.778486 -0.60745
O_ O_ 0.350321 0.207194 0.792058 -0.60745
Zn Zn 0.12419 0.7471 0.279396 0.9476
Zn Zn 0.376375 0.749566 0.287247 0.9476
Zn Zn 0.122982 0.747207 0.20991 0.9476
Zn Zn 0.376418 0.750113 0.213476 0.9476
H_ H_ 0.022197 0.907931 0.169857 0.10932
H_ H_ 0.287052 0.922506 0.188089 0.10932
H_ H_ 0.0695653 0.863207 0.302535 0.10932
H_ H_ 0.309322 0.841408 0.3182 0.10932
H_ H_ 0.055684 0.843796 0.173959 0.10932
H_ H_ 0.320956 0.862416 0.187123 0.10932
H_ H_ 0.0405421 0.926991 0.302565 0.10932
H_ H_ 0.282885 0.90783 0.323745 0.10932
H_ H_ 0.222249 0.898295 0.31056 0.10932
H_ H_ 0.46996 0.915356 0.313544 0.10932
H_ H_ 0.180641 0.855029 0.174468 0.10932
H_ H_ 0.440861 0.847652 0.181494 0.10932
H_ H_ 0.197599 0.832841 0.307943 0.10932
H_ H_ 0.447734 0.8461 0.314224 0.10932
H_ H_ 0.214036 0.915593 0.176941 0.10932
H_ H_ 0.464087 0.915875 0.180116 0.10932
H_ H_ 0.216175 0.583139 0.317095 0.10932
H_ H_ 0.464408 0.576397 0.317346 0.10932
H_ H_ 0.188112 0.646139 0.18112 0.10932
H_ H_ 0.434271 0.639656 0.183993 0.10932
H_ H_ 0.186729 0.64848 0.315767 0.10932
H_ H_ 0.428549 0.637078 0.3173 0.10932
H_ H_ 0.212758 0.578018 0.184047 0.10932
H_ H_ 0.452179 0.563759 0.184837 0.10932
H_ H_ 0.033593 0.579964 0.17585 0.10932
H_ H_ 0.278697 0.583962 0.181865 0.10932
H_ H_ 0.0658012 0.644055 0.312071 0.10932
H_ H_ 0.309044 0.652226 0.317416 0.10932
H_ H_ 0.0753641 0.630124 0.177303 0.10932
H_ H_ 0.306202 0.650107 0.180396 0.10932
H_ H_ 0.0314675 0.576956 0.310057 0.10932
H_ H_ 0.285823 0.583651 0.319035 0.10932
H_ H_ 0.130906 0.819372 0.351432 0.10932
H_ H_ 0.37847 0.683609 0.356877 0.10932
H_ H_ 0.122713 0.689064 0.358711 0.10932
H_ H_ 0.378543 0.814579 0.36233 0.10932
H_ H_ 0.125631 0.691084 0.434141 0.10932
H_ H_ 0.377437 0.814991 0.438821 0.10932
H_ H_ 0.145977 0.820537 0.425226 0.10932
H_ H_ 0.377646 0.679816 0.434084 0.10932
H_ H_ 0.122848 0.67354 0.145604 0.10932
H_ H_ 0.369828 0.823486 0.143588 0.10932
H_ H_ 0.118612 0.803389 0.135409 0.10932
H_ H_ 0.387335 0.694526 0.136909 0.10932
H_ H_ 0.126439 0.800601 0.0596069 0.10932
H_ H_ 0.38428 0.692569 0.0591051 0.10932
H_ H_ 0.118606 0.666528 0.063221 0.10932
H_ H_ 0.369787 0.827135 0.0638951 0.10932
C_ C_ 0.0634252 0.847474 0.240165 -0.02249
C_ C_ 0.317745 0.847496 0.252109 -0.02249
C_ C_ 0.0124634 0.960929 0.236742 -0.02249
C_ C_ 0.264092 0.95916 0.257215 -0.02249
C_ C_ 0.0306058 0.89649 0.20049 -0.11473
C_ C_ 0.293149 0.90725 0.216926 -0.11473
C_ C_ 0.0560175 0.869709 0.277157 -0.11473
C_ C_ 0.304473 0.8601 0.289533 -0.11473
C_ C_ 0.0487861 0.861017 0.201459 -0.11473
C_ C_ 0.311323 0.871581 0.215785 -0.11473
C_ C_ 0.0278092 0.91909 0.238422 -0.02249
C_ C_ 0.282555 0.919272 0.253814 -0.02249
C_ C_ 0.0848863 0.810533 0.241891 0.6875
C_ C_ 0.337673 0.809501 0.252021 0.6875
C_ C_ 0.0402905 0.905688 0.275867 -0.11473
C_ C_ 0.288329 0.896307 0.291676 -0.11473
C_ C_ 0.18623 0.838347 0.240093 -0.02249
C_ C_ 0.438585 0.844968 0.249377 -0.02249
C_ C_ 0.232959 0.95575 0.250899 -0.02249
C_ C_ 0.485575 0.962152 0.248091 -0.02249
C_ C_ 0.214462 0.888318 0.28165 -0.11473
C_ C_ 0.461785 0.90158 0.2846 -0.11473
C_ C_ 0.19033 0.862658 0.203191 -0.11473
C_ C_ 0.448619 0.861736 0.210677 -0.11473
C_ C_ 0.201977 0.850023 0.27824 -0.11473
C_ C_ 0.447186 0.863557 0.286041 -0.11473
C_ C_ 0.218234 0.914603 0.246266 -0.02249
C_ C_ 0.467842 0.921178 0.2466 -0.02249
C_ C_ 0.16416 0.804042 0.240294 0.6875
C_ C_ 0.417075 0.810593 0.250582 0.6875
C_ C_ 0.208648 0.899812 0.20603 -0.11473
C_ C_ 0.463329 0.899264 0.21031 -0.11473
C_ C_ 0.182758 0.651106 0.247446 -0.02249
C_ C_ 0.427527 0.642155 0.249889 -0.02249
C_ C_ 0.233074 0.537628 0.254269 -0.02249
C_ C_ 0.478017 0.527043 0.252338 -0.02249
C_ C_ 0.207925 0.596419 0.287666 -0.11473
C_ C_ 0.454963 0.588661 0.287944 -0.11473
C_ C_ 0.192169 0.631421 0.211124 -0.11473
C_ C_ 0.434695 0.622548 0.212043 -0.11473
C_ C_ 0.193068 0.633692 0.286746 -0.11473
C_ C_ 0.435611 0.624258 0.288409 -0.11473
C_ C_ 0.214675 0.575298 0.250545 -0.02249
C_ C_ 0.461554 0.566653 0.251145 -0.02249
C_ C_ 0.161528 0.686344 0.246842 0.6875
C_ C_ 0.412228 0.684203 0.249287 0.6875
C_ C_ 0.205912 0.592488 0.212835 -0.11473
C_ C_ 0.451813 0.584922 0.212252 -0.11473
C_ C_ 0.0684659 0.647015 0.243797 -0.02249
C_ C_ 0.311764 0.653962 0.248819 -0.02249
C_ C_ 0.013812 0.5366 0.242012 -0.02249
C_ C_ 0.265362 0.53834 0.251673 -0.02249
C_ C_ 0.040853 0.593191 0.205517 -0.11473
C_ C_ 0.287633 0.597567 0.212063 -0.11473
C_ C_ 0.057097 0.630344 0.282072 -0.11473
C_ C_ 0.305062 0.634464 0.288105 -0.11473
C_ C_ 0.0607019 0.62732 0.205959 -0.11473
C_ C_ 0.300424 0.638265 0.210867 -0.11473
C_ C_ 0.0312832 0.575494 0.243121 -0.02249
C_ C_ 0.282121 0.577462 0.250817 -0.02249
C_ C_ 0.0860337 0.686559 0.246888 0.6875
C_ C_ 0.331312 0.692865 0.248841 0.6875
C_ C_ 0.0415505 0.592199 0.281598 -0.11473
C_ C_ 0.291084 0.596366 0.288699 -0.11473
C_ C_ 0.133545 0.791298 0.368398 0.17695
C_ C_ 0.379436 0.712928 0.37695 0.17695
C_ C_ 0.125954 0.718003 0.373239 0.17695
C_ C_ 0.378731 0.78588 0.379094 0.17695
C_ C_ 0.126542 0.719904 0.417042 -0.11473
C_ C_ 0.379929 0.786939 0.422843 -0.11473
C_ C_ 0.131986 0.758742 0.437241 0.23465
C_ C_ 0.377387 0.749373 0.444064 0.23465
C_ C_ 0.137718 0.792212 0.411768 -0.11473
C_ C_ 0.377877 0.71167 0.42052 -0.11473
C_ C_ 0.120238 0.701658 0.123465 0.17695
C_ C_ 0.370869 0.795582 0.123402 0.17695
C_ C_ 0.120764 0.774167 0.118857 0.17695
C_ C_ 0.383453 0.724212 0.120742 0.17695
C_ C_ 0.124858 0.770982 0.0752379 -0.11473
C_ C_ 0.381142 0.723099 0.0762117 -0.11473
C_ C_ 0.126357 0.731457 0.0551036 0.23465
C_ C_ 0.37605 0.760678 0.0566322 0.23465
C_ C_ 0.123013 0.696603 0.0795355 -0.11473
C_ C_ 0.372794 0.797883 0.0788961 -0.11473
C_ C_ 0.0284005 0.999562 0.233012 0.05793
C_ C_ 0.277891 0.997137 0.258635 0.05793
C_ C_ 0.218833 0.499428 0.263467 0.05793
C_ C_ 0.46316 0.490173 0.263335 0.05793
Br Br 0.067707 0.000520000000000076 0.214142 -0.17191
Br Br 0.321515 1.000796913 0.265746 -0.17191
Br Br 0.176514 0.49556 0.266369 -0.17191
Br Br 0.42143 0.49145 0.277537 -0.17191
N_ N_ 0.126955 0.754339 0.349639 -0.272
N_ N_ 0.378287 0.750039 0.356614 -0.272
N_ N_ 0.129236 0.763664 0.482059 -0.12501
N_ N_ 0.373899 0.746238 0.488599 -0.12501
N_ N_ 0.121749 0.739643 0.141791 -0.272
N_ N_ 0.374742 0.75737 0.142571 -0.272
N_ N_ 0.128624 0.727953 0.00995542 -0.12501
N_ N_ 0.37365 0.761728 0.0109376 -0.12501
O_ O_ 0.0887429 0.787589 0.208628 -0.60745
O_ O_ 0.347508 0.795962 0.216612 -0.60745
O_ O_ 0.0956087 0.796806 0.276911 -0.60745
O_ O_ 0.346582 0.795327 0.28757 -0.60745
O_ O_ 0.155334 0.790052 0.274552 -0.60745
O_ O_ 0.40503 0.797702 0.284887 -0.60745
O_ O_ 0.152968 0.790917 0.206389 -0.60745
O_ O_ 0.410266 0.793205 0.217567 -0.60745
O_ O_ 0.153826 0.702792 0.282265 -0.60745
O_ O_ 0.406621 0.701328 0.28438 -0.60745
O_ O_ 0.156501 0.706518 0.213024 -0.60745
O_ O_ 0.404331 0.70104 0.214507 -0.60745
O_ O_ 0.0959282 0.700175 0.213414 -0.60745
O_ O_ 0.341651 0.706807 0.21353 -0.60745
O_ O_ 0.0952008 0.702813 0.280951 -0.60745
O_ O_ 0.34281 0.705962 0.282173 -0.60745
Zn Zn 0.125839 0.752488 0.779523 0.9476
Zn Zn 0.375707 0.752057 0.786651 0.9476
Zn Zn 0.124101 0.748128 0.710501 0.9476
Zn Zn 0.373069 0.752977 0.715942 0.9476
H_ H_ 0.0417053 0.926528 0.673581 0.10932
H_ H_ 0.273522 0.910275 0.689342 0.10932
H_ H_ 0.0550425 0.850547 0.808937 0.10932
H_ H_ 0.329214 0.867475 0.818569 0.10932
H_ H_ 0.0671 0.857346 0.673383 0.10932
H_ H_ 0.300155 0.842224 0.694382 0.10932
H_ H_ 0.033719 0.919279 0.80477 0.10932
H_ H_ 0.305305 0.938834 0.81326 0.10932
H_ H_ 0.228185 0.905279 0.812555 0.10932
H_ H_ 0.459691 0.925916 0.821496 0.10932
H_ H_ 0.177288 0.86555 0.68154 0.10932
H_ H_ 0.445878 0.840853 0.689505 0.10932
H_ H_ 0.1917 0.84646 0.813364 0.10932
H_ H_ 0.431964 0.859252 0.823735 0.10932
H_ H_ 0.206749 0.931317 0.68452 0.10932
H_ H_ 0.468385 0.910137 0.685954 0.10932
H_ H_ 0.218778 0.59446 0.826102 0.10932
H_ H_ 0.466742 0.590719 0.822893 0.10932
H_ H_ 0.180068 0.639118 0.689428 0.10932
H_ H_ 0.433654 0.643024 0.686055 0.10932
H_ H_ 0.183295 0.649383 0.822959 0.10932
H_ H_ 0.433948 0.650781 0.818475 0.10932
H_ H_ 0.219188 0.582703 0.691503 0.10932
H_ H_ 0.46221 0.578505 0.689651 0.10932
H_ H_ 0.0544633 0.556206 0.698036 0.10932
H_ H_ 0.288086 0.582691 0.686869 0.10932
H_ H_ 0.0454732 0.671228 0.804085 0.10932
H_ H_ 0.31599 0.655283 0.817746 0.10932
H_ H_ 0.0880917 0.624368 0.693993 0.10932
H_ H_ 0.30366 0.657255 0.685234 0.10932
H_ H_ 0.0181595 0.605967 0.81084 0.10932
H_ H_ 0.294505 0.582947 0.819739 0.10932
H_ H_ 0.138933 0.815498 0.854209 0.10932
H_ H_ 0.369199 0.80592 0.864951 0.10932
H_ H_ 0.117582 0.690143 0.856414 0.10932
H_ H_ 0.388982 0.679952 0.853886 0.10932
H_ H_ 0.10709 0.695615 0.93343 0.10932
H_ H_ 0.395315 0.675488 0.933297 0.10932
H_ H_ 0.140921 0.818681 0.932037 0.10932
H_ H_ 0.371361 0.801217 0.942944 0.10932
H_ H_ 0.128341 0.678964 0.640687 0.10932
H_ H_ 0.364306 0.825297 0.647274 0.10932
H_ H_ 0.136091 0.811506 0.627999 0.10932
H_ H_ 0.383826 0.698351 0.633847 0.10932
H_ H_ 0.133266 0.805756 0.554344 0.10932
H_ H_ 0.383047 0.705131 0.556964 0.10932
H_ H_ 0.127288 0.672372 0.564696 0.10932
H_ H_ 0.357387 0.832458 0.570432 0.10932
C_ C_ 0.0651398 0.848022 0.740815 -0.02249
C_ C_ 0.315341 0.849822 0.755 -0.02249
C_ C_ 0.0223136 0.967899 0.74029 -0.02249
C_ C_ 0.266168 0.963387 0.751146 -0.02249
C_ C_ 0.0472992 0.911042 0.701778 -0.11473
C_ C_ 0.285497 0.900353 0.717768 -0.11473
C_ C_ 0.0551567 0.866818 0.778659 -0.11473
C_ C_ 0.315402 0.875838 0.791039 -0.11473
C_ C_ 0.0593097 0.870533 0.701497 -0.11473
C_ C_ 0.299719 0.862342 0.718974 -0.11473
C_ C_ 0.039886 0.929701 0.738981 -0.02249
C_ C_ 0.280414 0.922589 0.753878 -0.02249
C_ C_ 0.083903 0.808916 0.742917 0.6875
C_ C_ 0.334876 0.812168 0.755314 0.6875
C_ C_ 0.0410839 0.905252 0.776763 -0.11473
C_ C_ 0.299387 0.913671 0.790316 -0.11473
C_ C_ 0.180949 0.853397 0.745718 -0.02249
C_ C_ 0.434676 0.846325 0.757138 -0.02249
C_ C_ 0.234319 0.966948 0.750826 -0.02249
C_ C_ 0.48293 0.963269 0.750782 -0.02249
C_ C_ 0.212535 0.903818 0.785909 -0.11473
C_ C_ 0.455478 0.909339 0.791184 -0.11473
C_ C_ 0.187521 0.876085 0.710299 -0.11473
C_ C_ 0.447792 0.860357 0.719061 -0.11473
C_ C_ 0.192687 0.868867 0.785393 -0.11473
C_ C_ 0.439771 0.870437 0.794354 -0.11473
C_ C_ 0.215494 0.928629 0.749857 -0.02249
C_ C_ 0.466583 0.923019 0.752786 -0.02249
C_ C_ 0.162315 0.813104 0.744945 0.6875
C_ C_ 0.414006 0.809698 0.755118 0.6875
C_ C_ 0.202633 0.913903 0.711916 -0.11473
C_ C_ 0.459966 0.900149 0.717807 -0.11473
C_ C_ 0.183922 0.65462 0.754963 -0.02249
C_ C_ 0.430783 0.652879 0.75232 -0.02249
C_ C_ 0.237016 0.543537 0.761523 -0.02249
C_ C_ 0.484137 0.540167 0.758084 -0.02249
C_ C_ 0.214293 0.606088 0.79611 -0.11473
C_ C_ 0.459465 0.601788 0.792978 -0.11473
C_ C_ 0.192988 0.632917 0.71904 -0.11473
C_ C_ 0.438299 0.62925 0.715607 -0.11473
C_ C_ 0.194542 0.640808 0.794409 -0.11473
C_ C_ 0.441643 0.63769 0.79088 -0.11473
C_ C_ 0.22186 0.584113 0.759035 -0.02249
C_ C_ 0.465427 0.578296 0.757377 -0.02249
C_ C_ 0.16398 0.692571 0.751769 0.6875
C_ C_ 0.411873 0.692308 0.749723 0.6875
C_ C_ 0.211933 0.597698 0.720808 -0.11473
C_ C_ 0.456891 0.594483 0.718111 -0.11473
C_ C_ 0.0667406 0.652959 0.746598 -0.02249
C_ C_ 0.316382 0.657681 0.750559 -0.02249
C_ C_ 0.0157988 0.537866 0.756267 -0.02249
C_ C_ 0.268436 0.540714 0.75332 -0.02249
C_ C_ 0.052713 0.583215 0.71845 -0.11473
C_ C_ 0.293673 0.598463 0.715183 -0.11473
C_ C_ 0.0467549 0.645976 0.77902 -0.11473
C_ C_ 0.309671 0.638904 0.789327 -0.11473
C_ C_ 0.0701392 0.619772 0.717569 -0.11473
C_ C_ 0.30555 0.63918 0.712503 -0.11473
C_ C_ 0.032144 0.579282 0.752078 -0.02249
C_ C_ 0.287083 0.578146 0.753858 -0.02249
C_ C_ 0.0865538 0.689657 0.744784 0.6875
C_ C_ 0.332025 0.699379 0.749259 0.6875
C_ C_ 0.0288591 0.61089 0.781213 -0.11473
C_ C_ 0.297324 0.598739 0.789867 -0.11473
C_ C_ 0.136372 0.787697 0.872063 0.17695
C_ C_ 0.373032 0.777171 0.88053 0.17695
C_ C_ 0.119087 0.719498 0.873321 0.17695
C_ C_ 0.388439 0.708561 0.873995 0.17695
C_ C_ 0.11752 0.720294 0.916016 -0.11473
C_ C_ 0.388959 0.704263 0.917837 -0.11473
C_ C_ 0.125483 0.756187 0.938851 0.23465
C_ C_ 0.382306 0.736799 0.94269 0.23465
C_ C_ 0.134269 0.791218 0.915254 -0.11473
C_ C_ 0.373159 0.773022 0.924286 -0.11473
C_ C_ 0.12741 0.706856 0.621338 0.17695
C_ C_ 0.367027 0.798438 0.626995 0.17695
C_ C_ 0.132992 0.780594 0.614849 0.17695
C_ C_ 0.38101 0.729175 0.619339 0.17695
C_ C_ 0.132777 0.777389 0.571906 -0.11473
C_ C_ 0.379161 0.731704 0.575005 -0.11473
C_ C_ 0.132519 0.738007 0.551537 0.23465
C_ C_ 0.371435 0.76942 0.556272 0.23465
C_ C_ 0.131864 0.702207 0.576623 -0.11473
C_ C_ 0.364723 0.802927 0.58175 -0.11473
C_ C_ 0.038139 0.00447246 0.738469 0.05793
C_ C_ 0.283689 0.0009300000000000974 0.751512 0.05793
C_ C_ 0.220244 0.506035 0.771531 0.05793
C_ C_ 0.47054 0.501413 0.749414 0.05793
Br Br 0.0818625 0.00566608 0.732413 -0.17191
Br Br 0.328242 -0.007198000000000038 0.746847 -0.17191
Br Br 0.178479 0.507411 0.784221 -0.17191
Br Br 0.427537 0.497464 0.737516 -0.17191
N_ N_ 0.124691 0.754827 0.851237 -0.272
N_ N_ 0.37953 0.744727 0.855926 -0.272
N_ N_ 0.124322 0.758725 0.984552 -0.12501
N_ N_ 0.380202 0.732193 0.988126 -0.12501
N_ N_ 0.125152 0.746106 0.637518 -0.272
N_ N_ 0.375496 0.762202 0.644876 -0.272
N_ N_ 0.130892 0.733629 0.506619 -0.12501
N_ N_ 0.369442 0.775539 0.51297 -0.12501
O_ O_ 0.091607 0.78969 0.709766 -0.60745
O_ O_ 0.343459 0.797954 0.720567 -0.60745
O_ O_ 0.0966558 0.798913 0.776358 -0.60745
O_ O_ 0.340739 0.792604 0.788787 -0.60745
O_ O_ 0.157729 0.793287 0.77994 -0.60745
O_ O_ 0.404758 0.795315 0.790139 -0.60745
O_ O_ 0.150848 0.800032 0.710177 -0.60745
O_ O_ 0.406118 0.794529 0.720337 -0.60745
O_ O_ 0.153078 0.70576 0.784096 -0.60745
O_ O_ 0.404642 0.709171 0.784711 -0.60745
O_ O_ 0.156009 0.707773 0.716219 -0.60745
O_ O_ 0.400194 0.704347 0.715055 -0.60745
O_ O_ 0.0982841 0.697072 0.708883 -0.60745
O_ O_ 0.339296 0.715835 0.713415 -0.60745
O_ O_ 0.0959243 0.706267 0.77955 -0.60745
O_ O_ 0.344844 0.70999 0.783439 -0.60745
Zn Zn 0.624346 0.249284 0.286626 0.9476
Zn Zn 0.872968 0.248037 0.290159 0.9476
Zn Zn 0.625784 0.246414 0.217806 0.9476
Zn Zn 0.871599 0.248932 0.215444 0.9476
H_ H_ 0.525468 0.406441 0.18154 0.10932
H_ H_ 0.783973 0.421556 0.191594 0.10932
H_ H_ 0.571558 0.361699 0.313443 0.10932
H_ H_ 0.820688 0.354702 0.321244 0.10932
H_ H_ 0.550342 0.337083 0.185466 0.10932
H_ H_ 0.811894 0.357573 0.186518 0.10932
H_ H_ 0.540165 0.417632 0.311874 0.10932
H_ H_ 0.78738 0.41831 0.324372 0.10932
H_ H_ 0.720132 0.409516 0.327333 0.10932
H_ H_ 0.967626 0.416777 0.319119 0.10932
H_ H_ 0.688413 0.35001 0.191405 0.10932
H_ H_ 0.925996 0.355093 0.188451 0.10932
H_ H_ 0.692669 0.343459 0.322654 0.10932
H_ H_ 0.947173 0.345711 0.320758 0.10932
H_ H_ 0.710736 0.421269 0.194015 0.10932
H_ H_ 0.95046 0.42574 0.187667 0.10932
H_ H_ 0.712125 0.0698953 0.319454 0.10932
H_ H_ 0.980527 0.0958477 0.307584 0.10932
H_ H_ 0.681761 0.142017 0.186394 0.10932
H_ H_ 0.913477 0.135253 0.188721 0.10932
H_ H_ 0.681787 0.137189 0.321691 0.10932
H_ H_ 0.951143 0.157638 0.312718 0.10932
H_ H_ 0.713551 0.0795982 0.185921 0.10932
H_ H_ 0.950951 0.0785182 0.178929 0.10932
H_ H_ 0.541198 0.0713104 0.188861 0.10932
H_ H_ 0.788611 0.0679281 0.190639 0.10932
H_ H_ 0.549498 0.161574 0.315178 0.10932
H_ H_ 0.798569 0.155208 0.318972 0.10932
H_ H_ 0.576823 0.130629 0.188587 0.10932
H_ H_ 0.817765 0.133503 0.186618 0.10932
H_ H_ 0.524239 0.0927909 0.319979 0.10932
H_ H_ 0.771463 0.084584 0.319381 0.10932
H_ H_ 0.625701 0.18499 0.36181 0.10932
H_ H_ 0.886162 0.193436 0.367103 0.10932
H_ H_ 0.622271 0.312191 0.356845 0.10932
H_ H_ 0.856708 0.316375 0.360917 0.10932
H_ H_ 0.607645 0.319981 0.429578 0.10932
H_ H_ 0.854966 0.322281 0.436973 0.10932
H_ H_ 0.619266 0.189097 0.441612 0.10932
H_ H_ 0.888278 0.197461 0.443209 0.10932
H_ H_ 0.623859 0.181731 0.146191 0.10932
H_ H_ 0.916317 0.225459 0.143515 0.10932
H_ H_ 0.634398 0.308881 0.133435 0.10932
H_ H_ 0.832784 0.290184 0.139585 0.10932
H_ H_ 0.633354 0.301228 0.0566788 0.10932
H_ H_ 0.838515 0.296842 0.0612809 0.10932
H_ H_ 0.629855 0.170795 0.0725367 0.10932
H_ H_ 0.917411 0.224926 0.0637051 0.10932
C_ C_ 0.565687 0.342866 0.247693 -0.02249
C_ C_ 0.820032 0.351649 0.255027 -0.02249
C_ C_ 0.509602 0.452739 0.249623 -0.02249
C_ C_ 0.764655 0.461683 0.260365 -0.02249
C_ C_ 0.53465 0.394208 0.209988 -0.11473
C_ C_ 0.79072 0.406889 0.219114 -0.11473
C_ C_ 0.558082 0.363439 0.286021 -0.11473
C_ C_ 0.813045 0.370571 0.29371 -0.11473
C_ C_ 0.552103 0.358153 0.209018 -0.11473
C_ C_ 0.809564 0.372087 0.217235 -0.11473
C_ C_ 0.528187 0.413969 0.249214 -0.02249
C_ C_ 0.780448 0.421461 0.257771 -0.02249
C_ C_ 0.586117 0.305309 0.250458 0.6875
C_ C_ 0.833695 0.308264 0.251245 0.6875
C_ C_ 0.540151 0.398201 0.285778 -0.11473
C_ C_ 0.794864 0.404988 0.294779 -0.11473
C_ C_ 0.685921 0.342212 0.2583 -0.02249
C_ C_ 0.931558 0.34868 0.25551 -0.02249
C_ C_ 0.733621 0.461918 0.262737 -0.02249
C_ C_ 0.980969 0.461955 0.25418 -0.02249
C_ C_ 0.712634 0.397952 0.296343 -0.11473
C_ C_ 0.958734 0.40393 0.292104 -0.11473
C_ C_ 0.692764 0.364179 0.220478 -0.11473
C_ C_ 0.933861 0.369826 0.217153 -0.11473
C_ C_ 0.696875 0.36004 0.294593 -0.11473
C_ C_ 0.947382 0.363504 0.291212 -0.11473
C_ C_ 0.716289 0.421368 0.25947 -0.02249
C_ C_ 0.964487 0.422708 0.253841 -0.02249
C_ C_ 0.665757 0.305615 0.257845 0.6875
C_ C_ 0.910096 0.311649 0.257082 0.6875
C_ C_ 0.708138 0.402588 0.222145 -0.11473
C_ C_ 0.951749 0.406255 0.216146 -0.11473
C_ C_ 0.684038 0.148208 0.255757 -0.02249
C_ C_ 0.932152 0.15409 0.249968 -0.02249
C_ C_ 0.729943 0.0324345 0.253875 -0.02249
C_ C_ 0.981395 0.0386165 0.244561 -0.02249
C_ C_ 0.704056 0.0874556 0.290758 -0.11473
C_ C_ 0.967543 0.104005 0.280552 -0.11473
C_ C_ 0.689306 0.128983 0.215816 -0.11473
C_ C_ 0.930267 0.129223 0.213362 -0.11473
C_ C_ 0.689677 0.126108 0.292127 -0.11473
C_ C_ 0.950199 0.140645 0.284545 -0.11473
C_ C_ 0.713053 0.0708058 0.252908 -0.02249
C_ C_ 0.965558 0.0789627 0.24452 -0.02249
C_ C_ 0.664572 0.186863 0.255241 0.6875
C_ C_ 0.914115 0.192292 0.250834 0.6875
C_ C_ 0.706045 0.090836 0.21511 -0.11473
C_ C_ 0.949637 0.0953354 0.208278 -0.11473
C_ C_ 0.56623 0.149486 0.251304 -0.02249
C_ C_ 0.809963 0.150705 0.251799 -0.02249
C_ C_ 0.515714 0.0379498 0.257438 -0.02249
C_ C_ 0.762384 0.0319326 0.25327 -0.02249
C_ C_ 0.546633 0.0875167 0.217283 -0.11473
C_ C_ 0.793507 0.0868141 0.216813 -0.11473
C_ C_ 0.550774 0.140095 0.289093 -0.11473
C_ C_ 0.797909 0.135659 0.289522 -0.11473
C_ C_ 0.563245 0.124002 0.214879 -0.11473
C_ C_ 0.807991 0.124369 0.215449 -0.11473
C_ C_ 0.53288 0.0762728 0.255196 -0.02249
C_ C_ 0.781038 0.0725042 0.253971 -0.02249
C_ C_ 0.585686 0.187739 0.249224 0.6875
C_ C_ 0.833767 0.183526 0.252201 0.6875
C_ C_ 0.533268 0.103162 0.289825 -0.11473
C_ C_ 0.78272 0.097156 0.291205 -0.11473
C_ C_ 0.623829 0.213964 0.379281 0.17695
C_ C_ 0.880966 0.222172 0.38335 0.17695
C_ C_ 0.617523 0.287024 0.374387 0.17695
C_ C_ 0.865057 0.291111 0.379189 0.17695
C_ C_ 0.615661 0.290577 0.418256 -0.11473
C_ C_ 0.86141 0.292879 0.421825 -0.11473
C_ C_ 0.615379 0.25481 0.443844 0.23465
C_ C_ 0.870771 0.259311 0.446971 0.23465
C_ C_ 0.621275 0.217107 0.424945 -0.11473
C_ C_ 0.880526 0.224327 0.428 -0.11473
C_ C_ 0.625198 0.208003 0.126904 0.17695
C_ C_ 0.896842 0.236514 0.124293 0.17695
C_ C_ 0.631069 0.278917 0.120168 0.17695
C_ C_ 0.852832 0.275198 0.122179 0.17695
C_ C_ 0.631723 0.275033 0.0760541 -0.11473
C_ C_ 0.853772 0.2784 0.0783989 -0.11473
C_ C_ 0.633806 0.235868 0.0565634 0.23465
C_ C_ 0.874537 0.256463 0.056961 0.23465
C_ C_ 0.63317 0.202598 0.0844617 -0.11473
C_ C_ 0.897311 0.236386 0.0792185 -0.11473
C_ C_ 0.525479 0.491275 0.249235 0.05793
C_ C_ 0.779448 0.4995 0.257572 0.05793
C_ C_ 0.713593 0.994525 0.253552 0.05793
C_ C_ 0.965514 1.00252026 0.246507 0.05793
Br Br 0.566917 0.490366 0.231354 -0.17191
Br Br 0.822135 0.503536 0.255206 -0.17191
Br Br 0.670581 -0.009301000000000004 0.240226 -0.17191
Br Br 0.922979 0.00461288 0.255024 -0.17191
N_ N_ 0.621289 0.24944 0.356479 -0.272
N_ N_ 0.871877 0.255905 0.360508 -0.272
N_ N_ 0.609241 0.258061 0.488405 -0.12501
N_ N_ 0.873047 0.26483 0.49033 -0.12501
N_ N_ 0.626334 0.245872 0.14518 -0.272
N_ N_ 0.874822 0.257393 0.144452 -0.272
N_ N_ 0.6375 0.231106 0.0134008 -0.12501
N_ N_ 0.876268 0.262551 0.0121953 -0.12501
O_ O_ 0.593293 0.285415 0.218992 -0.60745
O_ O_ 0.840245 0.293856 0.216666 -0.60745
O_ O_ 0.596824 0.296905 0.285857 -0.60745
O_ O_ 0.839873 0.288431 0.284795 -0.60745
O_ O_ 0.658715 0.289072 0.292194 -0.60745
O_ O_ 0.902056 0.294409 0.29119 -0.60745
O_ O_ 0.651221 0.298244 0.223636 -0.60745
O_ O_ 0.90352 0.294436 0.222207 -0.60745
O_ O_ 0.652874 0.200374 0.288669 -0.60745
O_ O_ 0.90695 0.206584 0.285087 -0.60745
O_ O_ 0.658027 0.204765 0.220916 -0.60745
O_ O_ 0.899752 0.202484 0.21742 -0.60745
O_ O_ 0.600162 0.194412 0.216907 -0.60745
O_ O_ 0.838225 0.204554 0.218138 -0.60745
O_ O_ 0.589685 0.212122 0.280424 -0.60745
O_ O_ 0.843288 0.198753 0.287862 -0.60745
Zn Zn 0.628387 0.245961 0.788248 0.9476
Zn Zn 0.877637 0.24922 0.788622 0.9476
Zn Zn 0.625287 0.250318 0.720156 0.9476
Zn Zn 0.875643 0.249065 0.717526 0.9476
H_ H_ 0.536396 0.417362 0.694089 0.10932
H_ H_ 0.800973 0.431506 0.684443 0.10932
H_ H_ 0.574373 0.359234 0.825712 0.10932
H_ H_ 0.807392 0.351397 0.817629 0.10932
H_ H_ 0.552974 0.345807 0.695974 0.10932
H_ H_ 0.827215 0.362055 0.683872 0.10932
H_ H_ 0.546636 0.423199 0.827366 0.10932
H_ H_ 0.778695 0.41165 0.813981 0.10932
H_ H_ 0.716189 0.417266 0.819156 0.10932
H_ H_ 0.968803 0.417992 0.823971 0.10932
H_ H_ 0.683635 0.353008 0.685167 0.10932
H_ H_ 0.931851 0.357822 0.687372 0.10932
H_ H_ 0.693485 0.35335 0.820521 0.10932
H_ H_ 0.939623 0.349495 0.821816 0.10932
H_ H_ 0.713701 0.418413 0.68302 0.10932
H_ H_ 0.965371 0.417057 0.68931 0.10932
H_ H_ 0.721765 0.0782427 0.819262 0.10932
H_ H_ 0.964714 0.0761467 0.816838 0.10932
H_ H_ 0.686049 0.14225 0.683649 0.10932
H_ H_ 0.944542 0.155424 0.685075 0.10932
H_ H_ 0.685729 0.138249 0.819862 0.10932
H_ H_ 0.933996 0.140246 0.814932 0.10932
H_ H_ 0.71794 0.0809727 0.684102 0.10932
H_ H_ 0.973125 0.0877741 0.680771 0.10932
H_ H_ 0.526168 0.0961319 0.685357 0.10932
H_ H_ 0.78508 0.0931116 0.679362 0.10932
H_ H_ 0.572184 0.131216 0.825338 0.10932
H_ H_ 0.823372 0.140364 0.818869 0.10932
H_ H_ 0.557553 0.156177 0.691954 0.10932
H_ H_ 0.808486 0.158309 0.687012 0.10932
H_ H_ 0.535467 0.0750947 0.818239 0.10932
H_ H_ 0.794793 0.071075 0.811082 0.10932
H_ H_ 0.6274 0.317181 0.855909 0.10932
H_ H_ 0.926136 0.234677 0.858096 0.10932
H_ H_ 0.627984 0.185649 0.864529 0.10932
H_ H_ 0.83099 0.252911 0.860124 0.10932
H_ H_ 0.625757 0.190423 0.942269 0.10932
H_ H_ 0.831715 0.251476 0.937936 0.10932
H_ H_ 0.637227 0.320294 0.93619 0.10932
H_ H_ 0.928147 0.236083 0.934102 0.10932
H_ H_ 0.618027 0.311731 0.634485 0.10932
H_ H_ 0.886582 0.310883 0.640278 0.10932
H_ H_ 0.626346 0.179695 0.6433 0.10932
H_ H_ 0.848878 0.190382 0.641852 0.10932
H_ H_ 0.625979 0.17379 0.569786 0.10932
H_ H_ 0.860671 0.179772 0.56998 0.10932
H_ H_ 0.61264 0.300938 0.556211 0.10932
H_ H_ 0.889925 0.305126 0.563231 0.10932
C_ C_ 0.570198 0.348655 0.757998 -0.02249
C_ C_ 0.822668 0.35187 0.751776 -0.02249
C_ C_ 0.519182 0.466566 0.758273 -0.02249
C_ C_ 0.766471 0.463129 0.748491 -0.02249
C_ C_ 0.544105 0.404952 0.721991 -0.11473
C_ C_ 0.798533 0.409458 0.710886 -0.11473
C_ C_ 0.565384 0.371091 0.796279 -0.11473
C_ C_ 0.80758 0.366885 0.788574 -0.11473
C_ C_ 0.555932 0.364546 0.721815 -0.11473
C_ C_ 0.815402 0.372491 0.711829 -0.11473
C_ C_ 0.538879 0.426999 0.759958 -0.02249
C_ C_ 0.783763 0.422242 0.746445 -0.02249
C_ C_ 0.588558 0.309661 0.7551 0.6875
C_ C_ 0.84065 0.312261 0.752378 0.6875
C_ C_ 0.549465 0.409551 0.797856 -0.11473
C_ C_ 0.790017 0.402678 0.784558 -0.11473
C_ C_ 0.685235 0.347058 0.753575 -0.02249
C_ C_ 0.934072 0.347811 0.754366 -0.02249
C_ C_ 0.735162 0.463065 0.75108 -0.02249
C_ C_ 0.983544 0.46213 0.757897 -0.02249
C_ C_ 0.710064 0.404649 0.789731 -0.11473
C_ C_ 0.961982 0.401572 0.795787 -0.11473
C_ C_ 0.691509 0.366469 0.714778 -0.11473
C_ C_ 0.941753 0.36751 0.717048 -0.11473
C_ C_ 0.695084 0.367376 0.79117 -0.11473
C_ C_ 0.945141 0.364813 0.793774 -0.11473
C_ C_ 0.71769 0.423025 0.75162 -0.02249
C_ C_ 0.968784 0.42141 0.756857 -0.02249
C_ C_ 0.666308 0.308179 0.753342 0.6875
C_ C_ 0.915496 0.309518 0.754046 0.6875
C_ C_ 0.707707 0.403574 0.713585 -0.11473
C_ C_ 0.958845 0.404744 0.718647 -0.11473
C_ C_ 0.687341 0.148759 0.753708 -0.02249
C_ C_ 0.938361 0.153631 0.749853 -0.02249
C_ C_ 0.737837 0.0365449 0.74836 -0.02249
C_ C_ 0.990502 0.0430777 0.747689 -0.02249
C_ C_ 0.714152 0.0927539 0.789639 -0.11473
C_ C_ 0.962353 0.0949871 0.786815 -0.11473
C_ C_ 0.695735 0.130745 0.715049 -0.11473
C_ C_ 0.948615 0.137245 0.71321 -0.11473
C_ C_ 0.693306 0.126814 0.790829 -0.11473
C_ C_ 0.942174 0.12924 0.785939 -0.11473
C_ C_ 0.721832 0.0759758 0.750593 -0.02249
C_ C_ 0.973716 0.0815926 0.748434 -0.02249
C_ C_ 0.668501 0.18704 0.755458 0.6875
C_ C_ 0.916213 0.188186 0.751451 0.6875
C_ C_ 0.713044 0.094685 0.71302 -0.11473
C_ C_ 0.966295 0.101648 0.711537 -0.11473
C_ C_ 0.565937 0.150199 0.75926 -0.02249
C_ C_ 0.820618 0.152206 0.752284 -0.02249
C_ C_ 0.514719 0.0381056 0.748026 -0.02249
C_ C_ 0.769481 0.0393919 0.742484 -0.02249
C_ C_ 0.535682 0.102249 0.715876 -0.11473
C_ C_ 0.789159 0.105266 0.710765 -0.11473
C_ C_ 0.560044 0.125767 0.795871 -0.11473
C_ C_ 0.815505 0.128334 0.787254 -0.11473
C_ C_ 0.552509 0.138677 0.720686 -0.11473
C_ C_ 0.805451 0.14101 0.714616 -0.11473
C_ C_ 0.533407 0.0776106 0.751743 -0.02249
C_ C_ 0.785961 0.0789194 0.744891 -0.02249
C_ C_ 0.587229 0.18711 0.759358 0.6875
C_ C_ 0.835618 0.191793 0.754965 0.6875
C_ C_ 0.53923 0.0937372 0.790558 -0.11473
C_ C_ 0.799068 0.0902408 0.783222 -0.11473
C_ C_ 0.627076 0.289327 0.87525 0.17695
C_ C_ 0.904193 0.237016 0.875677 0.17695
C_ C_ 0.630266 0.216322 0.879883 0.17695
C_ C_ 0.852455 0.252407 0.878293 0.17695
C_ C_ 0.627784 0.218178 0.92382 -0.11473
C_ C_ 0.853052 0.250102 0.921904 -0.11473
C_ C_ 0.627265 0.25608 0.944107 0.23465
C_ C_ 0.881347 0.242615 0.942185 0.23465
C_ C_ 0.629562 0.292007 0.920728 -0.11473
C_ C_ 0.906973 0.240268 0.918402 -0.11473
C_ C_ 0.620063 0.280165 0.620392 0.17695
C_ C_ 0.880627 0.282219 0.624925 0.17695
C_ C_ 0.621683 0.207039 0.627528 0.17695
C_ C_ 0.863234 0.214253 0.627169 0.17695
C_ C_ 0.621368 0.202841 0.584276 -0.11473
C_ C_ 0.866309 0.208994 0.584046 -0.11473
C_ C_ 0.615963 0.235979 0.559246 0.23465
C_ C_ 0.877778 0.240837 0.558477 0.23465
C_ C_ 0.615213 0.274269 0.576768 -0.11473
C_ C_ 0.88456 0.277907 0.581295 -0.11473
C_ C_ 0.532296 0.505765 0.762533 0.05793
C_ C_ 0.782214 0.502295 0.742335 0.05793
C_ C_ 0.72314 -0.0011109999999999731 0.740721 0.05793
C_ C_ 0.975741 0.00563504 0.746589 0.05793
Br Br 0.575323 0.509049 0.762213 -0.17191
Br Br 0.826163 0.503695 0.737149 -0.17191
Br Br 0.67997 -0.0023619999999999752 0.746723 -0.17191
Br Br 0.932136 0.00596905 0.744192 -0.17191
N_ N_ 0.626995 0.251752 0.855714 -0.272
N_ N_ 0.877754 0.245817 0.85504 -0.272
N_ N_ 0.625361 0.258199 0.989389 -0.12501
N_ N_ 0.883646 0.234665 0.986901 -0.12501
N_ N_ 0.622373 0.245238 0.64618 -0.272
N_ N_ 0.871789 0.25033 0.648082 -0.272
N_ N_ 0.616718 0.230502 0.515436 -0.12501
N_ N_ 0.880594 0.236583 0.515691 -0.12501
O_ O_ 0.590154 0.288269 0.720863 -0.60745
O_ O_ 0.845262 0.294342 0.718556 -0.60745
O_ O_ 0.600297 0.294248 0.789037 -0.60745
O_ O_ 0.848889 0.296189 0.786781 -0.60745
O_ O_ 0.663053 0.288142 0.787196 -0.60745
O_ O_ 0.908717 0.29094 0.787175 -0.60745
O_ O_ 0.652573 0.296916 0.71988 -0.60745
O_ O_ 0.905779 0.295009 0.719745 -0.60745
O_ O_ 0.65616 0.196483 0.790182 -0.60745
O_ O_ 0.903602 0.199014 0.785616 -0.60745
O_ O_ 0.660736 0.20699 0.722307 -0.60745
O_ O_ 0.90956 0.207808 0.718002 -0.60745
O_ O_ 0.600637 0.197605 0.725572 -0.60745
O_ O_ 0.846132 0.20621 0.721119 -0.60745
O_ O_ 0.592231 0.207188 0.792702 -0.60745
O_ O_ 0.845078 0.205569 0.790158 -0.60745
Zn Zn 0.617336 0.744237 0.289036 0.9476
Zn Zn 0.877357 0.749186 0.270955 0.9476
Zn Zn 0.620508 0.744943 0.218315 0.9476
Zn Zn 0.872824 0.746835 0.204367 0.9476
H_ H_ 0.545525 0.928597 0.188538 0.10932
H_ H_ 0.781247 0.918039 0.181677 0.10932
H_ H_ 0.559207 0.843164 0.316686 0.10932
H_ H_ 0.806243 0.839448 0.308786 0.10932
H_ H_ 0.571966 0.862705 0.184857 0.10932
H_ H_ 0.81107 0.855193 0.174671 0.10932
H_ H_ 0.533036 0.908898 0.322804 0.10932
H_ H_ 0.782322 0.903949 0.316729 0.10932
H_ H_ 0.696202 0.926468 0.316857 0.10932
H_ H_ 0.976215 0.906931 0.307477 0.10932
H_ H_ 0.689338 0.835426 0.192843 0.10932
H_ H_ 0.910693 0.873466 0.181997 0.10932
H_ H_ 0.671735 0.861461 0.323738 0.10932
H_ H_ 0.954704 0.837905 0.300183 0.10932
H_ H_ 0.722989 0.893096 0.191681 0.10932
H_ H_ 0.946592 0.928427 0.178621 0.10932
H_ H_ 0.720398 0.589915 0.32472 0.10932
H_ H_ 0.970181 0.587833 0.310516 0.10932
H_ H_ 0.684647 0.646468 0.189574 0.10932
H_ H_ 0.935189 0.649155 0.175456 0.10932
H_ H_ 0.692093 0.655656 0.323815 0.10932
H_ H_ 0.94114 0.653821 0.307283 0.10932
H_ H_ 0.708297 0.575993 0.192322 0.10932
H_ H_ 0.969489 0.589081 0.174232 0.10932
H_ H_ 0.531683 0.571471 0.182893 0.10932
H_ H_ 0.786141 0.571986 0.179882 0.10932
H_ H_ 0.557048 0.642185 0.313881 0.10932
H_ H_ 0.811799 0.651539 0.307507 0.10932
H_ H_ 0.567004 0.628058 0.18012 0.10932
H_ H_ 0.812293 0.639028 0.171043 0.10932
H_ H_ 0.525979 0.581424 0.314812 0.10932
H_ H_ 0.782867 0.592056 0.312356 0.10932
H_ H_ 0.614552 0.694354 0.36836 0.10932
H_ H_ 0.872442 0.812378 0.344819 0.10932
H_ H_ 0.630275 0.820765 0.359081 0.10932
H_ H_ 0.882445 0.681921 0.337256 0.10932
H_ H_ 0.632256 0.826133 0.4325 0.10932
H_ H_ 0.882428 0.678915 0.421034 0.10932
H_ H_ 0.616292 0.697578 0.445036 0.10932
H_ H_ 0.877475 0.811231 0.422609 0.10932
H_ H_ 0.612507 0.678073 0.144052 0.10932
H_ H_ 0.843978 0.693818 0.133053 0.10932
H_ H_ 0.63305 0.805136 0.145834 0.10932
H_ H_ 0.899121 0.802856 0.121444 0.10932
H_ H_ 0.632602 0.808725 0.0717823 0.10932
H_ H_ 0.901449 0.792139 0.0465555 0.10932
H_ H_ 0.599684 0.683275 0.0686565 0.10932
H_ H_ 0.840484 0.68751 0.0553333 0.10932
C_ C_ 0.56216 0.844198 0.251895 -0.02249
C_ C_ 0.809678 0.839061 0.240387 -0.02249
C_ C_ 0.516563 0.960517 0.257938 -0.02249
C_ C_ 0.761028 0.955161 0.252116 -0.02249
C_ C_ 0.546374 0.908994 0.217657 -0.11473
C_ C_ 0.784979 0.900066 0.210096 -0.11473
C_ C_ 0.551822 0.858065 0.289976 -0.11473
C_ C_ 0.799085 0.85308 0.280493 -0.11473
C_ C_ 0.559497 0.869695 0.215128 -0.11473
C_ C_ 0.80109 0.862356 0.204423 -0.11473
C_ C_ 0.534253 0.921663 0.25713 -0.02249
C_ C_ 0.776488 0.914202 0.249656 -0.02249
C_ C_ 0.579797 0.804158 0.251636 0.6875
C_ C_ 0.831665 0.804455 0.236184 0.6875
C_ C_ 0.538293 0.89559 0.292441 -0.11473
C_ C_ 0.786108 0.891922 0.28488 -0.11473
C_ C_ 0.677833 0.841988 0.257958 -0.02249
C_ C_ 0.93061 0.850236 0.242387 -0.02249
C_ C_ 0.72912 0.956048 0.252256 -0.02249
C_ C_ 0.980263 0.963614 0.239081 -0.02249
C_ C_ 0.698484 0.904517 0.291062 -0.11473
C_ C_ 0.96463 0.898464 0.278311 -0.11473
C_ C_ 0.693074 0.854365 0.221079 -0.11473
C_ C_ 0.926422 0.879497 0.209199 -0.11473
C_ C_ 0.679462 0.869867 0.293522 -0.11473
C_ C_ 0.950414 0.859821 0.275718 -0.11473
C_ C_ 0.71276 0.915518 0.253919 -0.02249
C_ C_ 0.961978 0.92517 0.243265 -0.02249
C_ C_ 0.656013 0.805642 0.257955 0.6875
C_ C_ 0.912134 0.812816 0.240975 0.6875
C_ C_ 0.708339 0.891208 0.21873 -0.11473
C_ C_ 0.946483 0.91233 0.206704 -0.11473
C_ C_ 0.679749 0.651672 0.25726 -0.02249
C_ C_ 0.934499 0.653418 0.242068 -0.02249
C_ C_ 0.73176 0.537493 0.256888 -0.02249
C_ C_ 0.982394 0.536689 0.245513 -0.02249
C_ C_ 0.713105 0.60104 0.294787 -0.11473
C_ C_ 0.959731 0.597981 0.281853 -0.11473
C_ C_ 0.685662 0.628276 0.220207 -0.11473
C_ C_ 0.942513 0.633369 0.204016 -0.11473
C_ C_ 0.696693 0.638493 0.295436 -0.11473
C_ C_ 0.945925 0.63651 0.279437 -0.11473
C_ C_ 0.715495 0.578607 0.257099 -0.02249
C_ C_ 0.967133 0.57773 0.244465 -0.02249
C_ C_ 0.659966 0.688162 0.254992 0.6875
C_ C_ 0.915637 0.690541 0.238444 0.6875
C_ C_ 0.704677 0.59431 0.219658 -0.11473
C_ C_ 0.960754 0.598842 0.204839 -0.11473
C_ C_ 0.565397 0.640148 0.249023 -0.02249
C_ C_ 0.812742 0.651643 0.2396 -0.02249
C_ C_ 0.509984 0.529223 0.248066 -0.02249
C_ C_ 0.763266 0.537543 0.252418 -0.02249
C_ C_ 0.53579 0.58717 0.209825 -0.11473
C_ C_ 0.792362 0.589704 0.20744 -0.11473
C_ C_ 0.551824 0.626519 0.284931 -0.11473
C_ C_ 0.802777 0.637254 0.278189 -0.11473
C_ C_ 0.556773 0.620593 0.21072 -0.11473
C_ C_ 0.807733 0.628532 0.203049 -0.11473
C_ C_ 0.526349 0.570335 0.247028 -0.02249
C_ C_ 0.778659 0.578344 0.246614 -0.02249
C_ C_ 0.582279 0.679461 0.251099 0.6875
C_ C_ 0.834547 0.68838 0.240174 0.6875
C_ C_ 0.534593 0.590581 0.286244 -0.11473
C_ C_ 0.786417 0.60245 0.281419 -0.11473
C_ C_ 0.615182 0.722447 0.382703 0.17695
C_ C_ 0.8755 0.783479 0.361593 0.17695
C_ C_ 0.624508 0.793351 0.376557 0.17695
C_ C_ 0.880964 0.710243 0.358181 0.17695
C_ C_ 0.626104 0.797468 0.419869 -0.11473
C_ C_ 0.882718 0.70863 0.40357 -0.11473
C_ C_ 0.621081 0.763298 0.445984 0.23465
C_ C_ 0.878218 0.743861 0.427303 0.23465
C_ C_ 0.614195 0.72472 0.426774 -0.11473
C_ C_ 0.876534 0.78197 0.406028 -0.11473
C_ C_ 0.615461 0.706253 0.127107 0.17695
C_ C_ 0.85516 0.716668 0.112636 0.17695
C_ C_ 0.627138 0.77867 0.128068 0.17695
C_ C_ 0.885902 0.777651 0.107181 0.17695
C_ C_ 0.624988 0.780122 0.0840056 -0.11473
C_ C_ 0.886179 0.772589 0.0647142 -0.11473
C_ C_ 0.61547 0.745512 0.0613407 0.23465
C_ C_ 0.869151 0.741077 0.044018 0.23465
C_ C_ 0.610181 0.708327 0.0846279 -0.11473
C_ C_ 0.854872 0.712342 0.0686466 -0.11473
C_ C_ 0.532313 0.999219487 0.260519 0.05793
C_ C_ 0.777162 0.992931 0.251997 0.05793
C_ C_ 0.717844 0.498829 0.266634 0.05793
C_ C_ 0.96523 0.50078 0.25226 0.05793
Br Br 0.573453 1.00226998 0.28097 -0.17191
Br Br 0.819372 0.992591 0.247172 -0.17191
Br Br 0.67708 0.497459 0.287656 -0.17191
Br Br 0.923783 0.505813 0.268171 -0.17191
N_ N_ 0.617505 0.756979 0.358242 -0.272
N_ N_ 0.876906 0.748092 0.339061 -0.272
N_ N_ 0.627294 0.769176 0.490814 -0.12501
N_ N_ 0.884714 0.744768 0.47154 -0.12501
N_ N_ 0.620332 0.743227 0.148478 -0.272
N_ N_ 0.870503 0.749712 0.131953 -0.272
N_ N_ 0.612567 0.745554 0.0164746 -0.12501
N_ N_ 0.865069 0.738548 -0.0019259999999999833 -0.12501
O_ O_ 0.589382 0.791231 0.216766 -0.60745
O_ O_ 0.843175 0.793712 0.201214 -0.60745
O_ O_ 0.584324 0.783171 0.285526 -0.60745
O_ O_ 0.838957 0.784526 0.267748 -0.60745
O_ O_ 0.644053 0.791802 0.290485 -0.60745
O_ O_ 0.902679 0.798171 0.275052 -0.60745
O_ O_ 0.6527 0.78589 0.224108 -0.60745
O_ O_ 0.90474 0.792418 0.207289 -0.60745
O_ O_ 0.652223 0.705628 0.289024 -0.60745
O_ O_ 0.913019 0.715898 0.269399 -0.60745
O_ O_ 0.647625 0.699924 0.220939 -0.60745
O_ O_ 0.900913 0.698607 0.204941 -0.60745
O_ O_ 0.586582 0.700389 0.217596 -0.60745
O_ O_ 0.841921 0.707364 0.205084 -0.60745
O_ O_ 0.58816 0.696866 0.287364 -0.60745
O_ O_ 0.848883 0.700302 0.273995 -0.60745
Zn Zn 0.627017 0.754379 0.78425 0.9476
Zn Zn 0.881038 0.754631 0.76984 0.9476
Zn Zn 0.623852 0.753707 0.718146 0.9476
Zn Zn 0.879193 0.752567 0.70065 0.9476
H_ H_ 0.535391 0.924058 0.692096 0.10932
H_ H_ 0.785859 0.912947 0.663741 0.10932
H_ H_ 0.556163 0.846218 0.82073 0.10932
H_ H_ 0.828662 0.865313 0.796269 0.10932
H_ H_ 0.563941 0.860998 0.689768 0.10932
H_ H_ 0.81216 0.846838 0.663015 0.10932
H_ H_ 0.528952 0.917069 0.824938 0.10932
H_ H_ 0.801969 0.929181 0.796992 0.10932
H_ H_ 0.732048 0.913393 0.807953 0.10932
H_ H_ 0.974625 0.919436 0.801419 0.10932
H_ H_ 0.681981 0.855586 0.679757 0.10932
H_ H_ 0.942477 0.857465 0.668788 0.10932
H_ H_ 0.7007 0.849503 0.812025 0.10932
H_ H_ 0.945485 0.851084 0.804105 0.10932
H_ H_ 0.712911 0.919111 0.677374 0.10932
H_ H_ 0.972946 0.91639 0.66724 0.10932
H_ H_ 0.719814 0.587901 0.820347 0.10932
H_ H_ 0.948758 0.575584 0.815909 0.10932
H_ H_ 0.68465 0.64552 0.687052 0.10932
H_ H_ 0.947703 0.652019 0.678884 0.10932
H_ H_ 0.676289 0.64253 0.821782 0.10932
H_ H_ 0.925329 0.641969 0.809345 0.10932
H_ H_ 0.713352 0.581741 0.685611 0.10932
H_ H_ 0.975953 0.584154 0.684371 0.10932
H_ H_ 0.53354 0.584588 0.692853 0.10932
H_ H_ 0.78106 0.592714 0.677669 0.10932
H_ H_ 0.571684 0.649227 0.825719 0.10932
H_ H_ 0.833571 0.636405 0.804468 0.10932
H_ H_ 0.557558 0.658461 0.692783 0.10932
H_ H_ 0.805351 0.658943 0.676106 0.10932
H_ H_ 0.534001 0.587241 0.828401 0.10932
H_ H_ 0.79423 0.580815 0.8085 0.10932
H_ H_ 0.611999 0.696144 0.867183 0.10932
H_ H_ 0.88193 0.691873 0.845626 0.10932
H_ H_ 0.646882 0.817854 0.859313 0.10932
H_ H_ 0.874352 0.817918 0.844276 0.10932
H_ H_ 0.638866 0.826282 0.937904 0.10932
H_ H_ 0.876507 0.823852 0.920905 0.10932
H_ H_ 0.615745 0.700614 0.945337 0.10932
H_ H_ 0.882598 0.687512 0.922186 0.10932
H_ H_ 0.626622 0.690225 0.64709 0.10932
H_ H_ 0.886771 0.817826 0.631115 0.10932
H_ H_ 0.625879 0.819261 0.641792 0.10932
H_ H_ 0.880475 0.686616 0.620405 0.10932
H_ H_ 0.62143 0.819315 0.56247 0.10932
H_ H_ 0.874633 0.693482 0.543475 0.10932
H_ H_ 0.62699 0.687364 0.568189 0.10932
H_ H_ 0.875935 0.827189 0.55599 0.10932
C_ C_ 0.562959 0.849522 0.75569 -0.02249
C_ C_ 0.819255 0.846997 0.73102 -0.02249
C_ C_ 0.514674 0.963709 0.757492 -0.02249
C_ C_ 0.770723 0.963891 0.731324 -0.02249
C_ C_ 0.541868 0.909652 0.720807 -0.11473
C_ C_ 0.790699 0.900345 0.694263 -0.11473
C_ C_ 0.555159 0.866354 0.794507 -0.11473
C_ C_ 0.816838 0.871309 0.76782 -0.11473
C_ C_ 0.556929 0.872645 0.718961 -0.11473
C_ C_ 0.806895 0.862252 0.692694 -0.11473
C_ C_ 0.532715 0.925298 0.758926 -0.02249
C_ C_ 0.788286 0.925367 0.730569 -0.02249
C_ C_ 0.584363 0.811708 0.75445 0.6875
C_ C_ 0.837684 0.808673 0.732478 0.6875
C_ C_ 0.538279 0.903474 0.795837 -0.11473
C_ C_ 0.801874 0.908878 0.766871 -0.11473
C_ C_ 0.691887 0.843855 0.745188 -0.02249
C_ C_ 0.938156 0.8524 0.736107 -0.02249
C_ C_ 0.739999 0.961784 0.738331 -0.02249
C_ C_ 0.990397 0.96846 0.739287 -0.02249
C_ C_ 0.720262 0.900886 0.779695 -0.11473
C_ C_ 0.966809 0.905567 0.773281 -0.11473
C_ C_ 0.697914 0.863093 0.706257 -0.11473
C_ C_ 0.947833 0.870482 0.698781 -0.11473
C_ C_ 0.703696 0.862788 0.781896 -0.11473
C_ C_ 0.95189 0.866093 0.773682 -0.11473
C_ C_ 0.724729 0.920582 0.741205 -0.02249
C_ C_ 0.974151 0.926874 0.736143 -0.02249
C_ C_ 0.669468 0.810091 0.747376 0.6875
C_ C_ 0.917026 0.816089 0.736391 0.6875
C_ C_ 0.71256 0.901794 0.705106 -0.11473
C_ C_ 0.966817 0.904941 0.699173 -0.11473
C_ C_ 0.682295 0.656171 0.754297 -0.02249
C_ C_ 0.93498 0.652804 0.743765 -0.02249
C_ C_ 0.735621 0.54094 0.752198 -0.02249
C_ C_ 0.983494 0.537452 0.754067 -0.02249
C_ C_ 0.711086 0.600327 0.791114 -0.11473
C_ C_ 0.94908 0.59302 0.786688 -0.11473
C_ C_ 0.690829 0.634571 0.716584 -0.11473
C_ C_ 0.947473 0.635065 0.707864 -0.11473
C_ C_ 0.68968 0.63468 0.793048 -0.11473
C_ C_ 0.934575 0.629861 0.782293 -0.11473
C_ C_ 0.718427 0.581187 0.753616 -0.02249
C_ C_ 0.965496 0.576921 0.751109 -0.02249
C_ C_ 0.66475 0.697281 0.753993 0.6875
C_ C_ 0.91679 0.691114 0.738971 0.6875
C_ C_ 0.708125 0.599252 0.716229 -0.11473
C_ C_ 0.965546 0.598575 0.711771 -0.11473
C_ C_ 0.566492 0.658075 0.758524 -0.02249
C_ C_ 0.822345 0.655062 0.740188 -0.02249
C_ C_ 0.515078 0.542483 0.76139 -0.02249
C_ C_ 0.767494 0.54207 0.743267 -0.02249
C_ C_ 0.539246 0.603019 0.722182 -0.11473
C_ C_ 0.790326 0.602664 0.706237 -0.11473
C_ C_ 0.561178 0.637802 0.797943 -0.11473
C_ C_ 0.818611 0.630893 0.77689 -0.11473
C_ C_ 0.554096 0.641974 0.721019 -0.11473
C_ C_ 0.807658 0.64027 0.704487 -0.11473
C_ C_ 0.530929 0.58507 0.761015 -0.02249
C_ C_ 0.784661 0.581807 0.743331 -0.02249
C_ C_ 0.584197 0.695954 0.756256 0.6875
C_ C_ 0.840255 0.693775 0.738974 0.6875
C_ C_ 0.541645 0.601596 0.798912 -0.11473
C_ C_ 0.796813 0.598427 0.779907 -0.11473
C_ C_ 0.618611 0.724579 0.882973 0.17695
C_ C_ 0.878594 0.719605 0.86214 0.17695
C_ C_ 0.639117 0.791844 0.878429 0.17695
C_ C_ 0.874839 0.790973 0.862692 0.17695
C_ C_ 0.636492 0.796567 0.922139 -0.11473
C_ C_ 0.87677 0.792642 0.905823 -0.11473
C_ C_ 0.627225 0.763769 0.947663 0.23465
C_ C_ 0.879206 0.75518 0.928969 0.23465
C_ C_ 0.620717 0.726469 0.927398 -0.11473
C_ C_ 0.879884 0.718526 0.907049 -0.11473
C_ C_ 0.62543 0.719071 0.629201 0.17695
C_ C_ 0.880604 0.789823 0.612595 0.17695
C_ C_ 0.619275 0.791219 0.625665 0.17695
C_ C_ 0.879036 0.716021 0.605937 0.17695
C_ C_ 0.620377 0.790046 0.581855 -0.11473
C_ C_ 0.87621 0.720059 0.562168 -0.11473
C_ C_ 0.622321 0.752418 0.560948 0.23465
C_ C_ 0.876531 0.759646 0.543253 0.23465
C_ C_ 0.628438 0.71691 0.584468 -0.11473
C_ C_ 0.875153 0.795203 0.569329 -0.11473
C_ C_ 0.529013 0.00240347 0.759468 0.05793
C_ C_ 0.78585 0.00207194 0.734687 0.05793
C_ C_ 0.719911 0.501892 0.75461 0.05793
C_ C_ 0.968174 0.49939 0.748583 0.05793
Br Br 0.572358 0.0037445 0.777359 -0.17191
Br Br 0.827806 1.00718602 0.729547 -0.17191
Br Br 0.677465 0.503567 0.761023 -0.17191
Br Br 0.925164 0.49426 0.737003 -0.17191
N_ N_ 0.62875 0.757071 0.859014 -0.272
N_ N_ 0.876902 0.755495 0.841322 -0.272
N_ N_ 0.625599 0.77057 0.992261 -0.12501
N_ N_ 0.882611 0.756422 0.973587 -0.12501
N_ N_ 0.622586 0.755762 0.648337 -0.272
N_ N_ 0.878477 0.750946 0.631467 -0.272
N_ N_ 0.61331 0.749208 0.518214 -0.12501
N_ N_ 0.869268 0.762473 0.498579 -0.12501
O_ O_ 0.596169 0.800213 0.719858 -0.60745
O_ O_ 0.84928 0.796217 0.699855 -0.60745
O_ O_ 0.594804 0.797609 0.789207 -0.60745
O_ O_ 0.848113 0.795722 0.765225 -0.60745
O_ O_ 0.657253 0.802761 0.781667 -0.60745
O_ O_ 0.91006 0.798841 0.770782 -0.60745
O_ O_ 0.658818 0.792271 0.714345 -0.60745
O_ O_ 0.908073 0.800095 0.701795 -0.60745
O_ O_ 0.657411 0.714411 0.787415 -0.60745
O_ O_ 0.911793 0.713314 0.771892 -0.60745
O_ O_ 0.654091 0.710161 0.718706 -0.60745
O_ O_ 0.909376 0.705636 0.703118 -0.60745
O_ O_ 0.589965 0.711826 0.722385 -0.60745
O_ O_ 0.846725 0.712611 0.704997 -0.60745
O_ O_ 0.596916 0.710535 0.787489 -0.60745
O_ O_ 0.851257 0.706851 0.772663 -0.60745
_cell_length_a 44.444
_cell_length_b 32.3360000049186
_cell_length_c 31.843999878906452
_cell_angle_alpha 89.99799923859553
_cell_angle_beta 91.13600050494348
_cell_angle_gamma 89.9990006550086
_symmetry_space_group_name_H-M         'P 1'
_symmetry_Int_Tables_number            1
loop_
_symmetry_equiv_pos_as_xyz
   'x, y, z'
                         
loop_
_atom_site_label
_atom_site_type_symbol
_atom_site_fract_x 
_atom_site_fract_y
_atom_site_fract_z
_atom_site_charge
Zn Zn 0.125554 0.249099 0.280817 0.9476
Zn Zn 0.371397 0.245182 0.291368 0.9476
Zn Zn 0.127353 0.250287 0.209667 0.9476
Zn Zn 0.367648 0.247007 0.217145 0.9476
H_ H_ 0.0311148 0.419561 0.175947 0.10932
H_ H_ 0.279922 0.416136 0.190348 0.10932
H_ H_ 0.0690951 0.3556 0.311839 0.10932
H_ H_ 0.31931 0.356611 0.323399 0.10932
H_ H_ 0.0656457 0.358775 0.17728 0.10932
H_ H_ 0.305204 0.347463 0.190571 0.10932
H_ H_ 0.0263575 0.413362 0.311206 0.10932
H_ H_ 0.295073 0.421996 0.322239 0.10932
H_ H_ 0.220443 0.415942 0.324842 0.10932
H_ H_ 0.480114 0.390156 0.317285 0.10932
H_ H_ 0.186079 0.356013 0.189703 0.10932
H_ H_ 0.414108 0.356819 0.194299 0.10932
H_ H_ 0.188537 0.348377 0.323105 0.10932
H_ H_ 0.451377 0.324581 0.316272 0.10932
H_ H_ 0.21119 0.422939 0.191042 0.10932
H_ H_ 0.437937 0.423112 0.19628 0.10932
H_ H_ 0.192604 0.0640046 0.310656 0.10932
H_ H_ 0.455483 0.0743338 0.320853 0.10932
H_ H_ 0.200685 0.150891 0.180812 0.10932
H_ H_ 0.439603 0.153167 0.188418 0.10932
H_ H_ 0.15952 0.125179 0.297662 0.10932
H_ H_ 0.427239 0.136957 0.322725 0.10932
H_ H_ 0.220346 0.082258 0.180612 0.10932
H_ H_ 0.472898 0.0915535 0.188687 0.10932
H_ H_ 0.0114306 0.102799 0.185598 0.10932
H_ H_ 0.291344 0.0660768 0.189967 0.10932
H_ H_ 0.0869481 0.122265 0.301417 0.10932
H_ H_ 0.291546 0.159302 0.314983 0.10932
H_ H_ 0.04614 0.164127 0.185114 0.10932
H_ H_ 0.318612 0.13331 0.190061 0.10932
H_ H_ 0.054334 0.0616267 0.298611 0.10932
H_ H_ 0.264393 0.0910173 0.316485 0.10932
H_ H_ 0.126677 0.184747 0.351996 0.10932
H_ H_ 0.376179 0.308355 0.365245 0.10932
H_ H_ 0.12405 0.315332 0.358435 0.10932
H_ H_ 0.362528 0.180659 0.357866 0.10932
H_ H_ 0.13095 0.313344 0.4389 0.10932
H_ H_ 0.359668 0.175435 0.437789 0.10932
H_ H_ 0.121256 0.179521 0.429098 0.10932
H_ H_ 0.371411 0.307309 0.44245 0.10932
H_ H_ 0.134988 0.313944 0.133689 0.10932
H_ H_ 0.403904 0.20341 0.14099 0.10932
H_ H_ 0.126919 0.185859 0.13782 0.10932
H_ H_ 0.326655 0.272072 0.144773 0.10932
H_ H_ 0.134536 0.18155 0.0590763 0.10932
H_ H_ 0.328202 0.285947 0.0641472 0.10932
H_ H_ 0.134387 0.311707 0.054229 0.10932
H_ H_ 0.407501 0.214667 0.060497 0.10932
C_ C_ 0.0640204 0.348431 0.24354 -0.02249
C_ C_ 0.317818 0.34955 0.255493 -0.02249
C_ C_ 0.012235 0.462545 0.245809 -0.02249
C_ C_ 0.267354 0.463602 0.259453 -0.02249
C_ C_ 0.0368486 0.404693 0.207087 -0.11473
C_ C_ 0.288031 0.402397 0.218878 -0.11473
C_ C_ 0.0567828 0.36678 0.282597 -0.11473
C_ C_ 0.313398 0.370974 0.294503 -0.11473
C_ C_ 0.0561435 0.370504 0.207492 -0.11473
C_ C_ 0.304347 0.365866 0.218752 -0.11473
C_ C_ 0.0305361 0.423344 0.246023 -0.02249
C_ C_ 0.284725 0.42412 0.257634 -0.02249
C_ C_ 0.0860525 0.311554 0.243316 0.6875
C_ C_ 0.336982 0.311546 0.256572 0.6875
C_ C_ 0.0341659 0.399731 0.282934 -0.11473
C_ C_ 0.296189 0.40647 0.29482 -0.11473
C_ C_ 0.185843 0.348646 0.255478 -0.02249
C_ C_ 0.428954 0.338167 0.255239 -0.02249
C_ C_ 0.235157 0.46131 0.262412 -0.02249
C_ C_ 0.478032 0.451052 0.258677 -0.02249
C_ C_ 0.213498 0.399842 0.295998 -0.11473
C_ C_ 0.465481 0.382072 0.291022 -0.11473
C_ C_ 0.191693 0.369283 0.219617 -0.11473
C_ C_ 0.427834 0.364288 0.221422 -0.11473
C_ C_ 0.196098 0.361946 0.294691 -0.11473
C_ C_ 0.447366 0.347094 0.291053 -0.11473
C_ C_ 0.22043 0.420851 0.259299 -0.02249
C_ C_ 0.461079 0.411639 0.258956 -0.02249
C_ C_ 0.167068 0.310037 0.25286 0.6875
C_ C_ 0.408299 0.302416 0.256144 0.6875
C_ C_ 0.207966 0.405823 0.220709 -0.11473
C_ C_ 0.442575 0.403138 0.223275 -0.11473
C_ C_ 0.182781 0.147587 0.246284 -0.02249
C_ C_ 0.430714 0.14993 0.255518 -0.02249
C_ C_ 0.228612 0.0305524 0.249851 -0.02249
C_ C_ 0.48399 0.0386513 0.254117 -0.02249
C_ C_ 0.195734 0.0822908 0.28255 -0.11473
C_ C_ 0.453397 0.0912165 0.293672 -0.11473
C_ C_ 0.198956 0.132239 0.210913 -0.11473
C_ C_ 0.442427 0.135608 0.216767 -0.11473
C_ C_ 0.179125 0.120064 0.278864 -0.11473
C_ C_ 0.438433 0.128898 0.294273 -0.11473
C_ C_ 0.211621 0.067635 0.247581 -0.02249
C_ C_ 0.467783 0.079401 0.255304 -0.02249
C_ C_ 0.166738 0.188439 0.246735 0.6875
C_ C_ 0.410113 0.186568 0.25362 0.6875
C_ C_ 0.210486 0.0918479 0.21083 -0.11473
C_ C_ 0.460914 0.102021 0.216843 -0.11473
C_ C_ 0.0671861 0.150431 0.244281 -0.02249
C_ C_ 0.308159 0.150458 0.251044 -0.02249
C_ C_ 0.0127216 0.0386084 0.238314 -0.02249
C_ C_ 0.260483 0.033435 0.254012 -0.02249
C_ C_ 0.0289087 0.108127 0.210368 -0.11473
C_ C_ 0.290442 0.086694 0.21598 -0.11473
C_ C_ 0.0705215 0.120823 0.276432 -0.11473
C_ C_ 0.29095 0.141296 0.287871 -0.11473
C_ C_ 0.0486214 0.140961 0.208757 -0.11473
C_ C_ 0.305872 0.124495 0.216057 -0.11473
C_ C_ 0.0310932 0.0794989 0.242187 -0.02249
C_ C_ 0.277411 0.0754051 0.25325 -0.02249
C_ C_ 0.0863126 0.187542 0.245466 0.6875
C_ C_ 0.328496 0.185981 0.249889 0.6875
C_ C_ 0.0522794 0.085761 0.274474 -0.11473
C_ C_ 0.27663 0.102167 0.288113 -0.11473
C_ C_ 0.12737 0.212434 0.371568 0.17695
C_ C_ 0.373547 0.279116 0.38253 0.17695
C_ C_ 0.126684 0.286741 0.375602 0.17695
C_ C_ 0.367383 0.206274 0.379294 0.17695
C_ C_ 0.129496 0.285324 0.420307 -0.11473
C_ C_ 0.365205 0.204599 0.422994 -0.11473
C_ C_ 0.128296 0.245365 0.44078 0.23465
C_ C_ 0.368813 0.240625 0.447434 0.23465
C_ C_ 0.126846 0.209317 0.416086 -0.11473
C_ C_ 0.370241 0.278317 0.4268 -0.11473
C_ C_ 0.129131 0.286086 0.116781 0.17695
C_ C_ 0.38809 0.223439 0.122514 0.17695
C_ C_ 0.126556 0.213331 0.118967 0.17695
C_ C_ 0.345859 0.266498 0.125661 0.17695
C_ C_ 0.130073 0.211561 0.0734562 -0.11473
C_ C_ 0.344613 0.26881 0.0812079 -0.11473
C_ C_ 0.131675 0.248126 0.0505866 0.23465
C_ C_ 0.367385 0.251983 0.0571861 0.23465
C_ C_ 0.130951 0.285779 0.0718129 -0.11473
C_ C_ 0.390377 0.231257 0.0794122 -0.11473
C_ C_ 0.0281612 0.499109 0.24664 0.05793
C_ C_ 0.281978 0.501198 0.25514 0.05793
C_ C_ 0.215194 -0.008589999999999987 0.245894 0.05793
C_ C_ 0.469606 0.9999838691 0.246239 0.05793
Br Br 0.0714337 0.499807 0.249093 -0.17191
Br Br 0.324442 0.504152 0.260937 -0.17191
Br Br 0.17139 -0.009048999999999974 0.229529 -0.17191
Br Br 0.430872 1.00207779 0.220046 -0.17191
N_ N_ 0.128265 0.251369 0.352379 -0.272
N_ N_ 0.372395 0.244007 0.359774 -0.272
N_ N_ 0.129682 0.239037 0.485245 -0.12501
N_ N_ 0.368329 0.234341 0.493047 -0.12501
N_ N_ 0.126148 0.25137 0.138246 -0.272
N_ N_ 0.369539 0.248483 0.144745 -0.272
N_ N_ 0.1376 0.246595 0.00672503 -0.12501
N_ N_ 0.365471 0.250694 0.0130274 -0.12501
O_ O_ 0.0942819 0.296163 0.208526 -0.60745
O_ O_ 0.343406 0.29485 0.222237 -0.60745
O_ O_ 0.0942383 0.295884 0.277503 -0.60745
O_ O_ 0.341338 0.292166 0.291331 -0.60745
O_ O_ 0.160765 0.289935 0.285778 -0.60745
O_ O_ 0.400859 0.286998 0.290889 -0.60745
O_ O_ 0.159127 0.296947 0.216691 -0.60745
O_ O_ 0.398591 0.287572 0.220216 -0.60745
O_ O_ 0.156478 0.203578 0.280665 -0.60745
O_ O_ 0.40291 0.203058 0.289219 -0.60745
O_ O_ 0.158137 0.204022 0.211587 -0.60745
O_ O_ 0.397858 0.200331 0.219026 -0.60745
O_ O_ 0.0967059 0.200534 0.211796 -0.60745
O_ O_ 0.335704 0.202704 0.214457 -0.60745
O_ O_ 0.0939505 0.204258 0.279131 -0.60745
O_ O_ 0.341042 0.19932 0.283567 -0.60745
Zn Zn 0.128487 0.252148 0.781692 0.9476
Zn Zn 0.381944 0.249355 0.786124 0.9476
Zn Zn 0.125394 0.254254 0.714129 0.9476
Zn Zn 0.377227 0.256091 0.718511 0.9476
H_ H_ 0.0254648 0.418351 0.692976 0.10932
H_ H_ 0.264521 0.403131 0.696391 0.10932
H_ H_ 0.0633918 0.346986 0.823792 0.10932
H_ H_ 0.334715 0.37438 0.810767 0.10932
H_ H_ 0.0559982 0.353399 0.691658 0.10932
H_ H_ 0.296177 0.338284 0.694658 0.10932
H_ H_ 0.0355018 0.416363 0.82766 0.10932
H_ H_ 0.301187 0.432333 0.816977 0.10932
H_ H_ 0.231728 0.406287 0.827087 0.10932
H_ H_ 0.464226 0.423009 0.815874 0.10932
H_ H_ 0.168827 0.376863 0.697283 0.10932
H_ H_ 0.442084 0.354983 0.680201 0.10932
H_ H_ 0.202007 0.338402 0.819398 0.10932
H_ H_ 0.43479 0.357311 0.811885 0.10932
H_ H_ 0.196536 0.440931 0.702172 0.10932
H_ H_ 0.476653 0.420421 0.684363 0.10932
H_ H_ 0.223119 0.0895622 0.818154 0.10932
H_ H_ 0.476757 0.0933601 0.812925 0.10932
H_ H_ 0.181186 0.146573 0.683317 0.10932
H_ H_ 0.429427 0.148095 0.683987 0.10932
H_ H_ 0.194249 0.155049 0.816714 0.10932
H_ H_ 0.452289 0.161115 0.814754 0.10932
H_ H_ 0.216132 0.0843552 0.681168 0.10932
H_ H_ 0.452547 0.073869 0.685414 0.10932
H_ H_ 0.0431174 0.082817 0.675271 0.10932
H_ H_ 0.293757 0.0831515 0.688502 0.10932
H_ H_ 0.0633562 0.158115 0.8096 0.10932
H_ H_ 0.327718 0.142219 0.821209 0.10932
H_ H_ 0.0705384 0.149532 0.675698 0.10932
H_ H_ 0.326078 0.145504 0.689299 0.10932
H_ H_ 0.0284236 0.102522 0.805682 0.10932
H_ H_ 0.293438 0.0825663 0.823723 0.10932
H_ H_ 0.138493 0.315531 0.85743 0.10932
H_ H_ 0.335705 0.252481 0.860202 0.10932
H_ H_ 0.118421 0.190398 0.851832 0.10932
H_ H_ 0.429427 0.266976 0.858836 0.10932
H_ H_ 0.104668 0.192641 0.928456 0.10932
H_ H_ 0.431128 0.268056 0.938757 0.10932
H_ H_ 0.138053 0.317203 0.934611 0.10932
H_ H_ 0.336436 0.244763 0.938621 0.10932
H_ H_ 0.140885 0.193689 0.637663 0.10932
H_ H_ 0.420326 0.266181 0.641315 0.10932
H_ H_ 0.119604 0.320735 0.641799 0.10932
H_ H_ 0.325424 0.246903 0.645409 0.10932
H_ H_ 0.114988 0.326216 0.56724 0.10932
H_ H_ 0.322135 0.251148 0.568411 0.10932
H_ H_ 0.138259 0.195902 0.559548 0.10932
H_ H_ 0.416536 0.264952 0.563688 0.10932
C_ C_ 0.0655864 0.350692 0.756783 -0.02249
C_ C_ 0.313802 0.34593 0.757107 -0.02249
C_ C_ 0.015937 0.463658 0.762488 -0.02249
C_ C_ 0.265274 0.465323 0.758607 -0.02249
C_ C_ 0.0356864 0.405214 0.722318 -0.11473
C_ C_ 0.279529 0.395692 0.722319 -0.11473
C_ C_ 0.0588057 0.368051 0.797159 -0.11473
C_ C_ 0.31728 0.375088 0.789576 -0.11473
C_ C_ 0.0505213 0.366627 0.720792 -0.11473
C_ C_ 0.294481 0.35787 0.723319 -0.11473
C_ C_ 0.0326938 0.423091 0.760292 -0.02249
C_ C_ 0.280997 0.423382 0.756735 -0.02249
C_ C_ 0.0853787 0.312639 0.752547 0.6875
C_ C_ 0.335907 0.31011 0.753071 0.6875
C_ C_ 0.0441 0.405131 0.797792 -0.11473
C_ C_ 0.299449 0.411618 0.791398 -0.11473
C_ C_ 0.183964 0.35223 0.755748 -0.02249
C_ C_ 0.435311 0.354089 0.745767 -0.02249
C_ C_ 0.234284 0.466105 0.766087 -0.02249
C_ C_ 0.487766 0.464441 0.752867 -0.02249
C_ C_ 0.215937 0.398697 0.798253 -0.11473
C_ C_ 0.459789 0.406514 0.78558 -0.11473
C_ C_ 0.182575 0.382612 0.724272 -0.11473
C_ C_ 0.445888 0.371777 0.708441 -0.11473
C_ C_ 0.20278 0.359869 0.79327 -0.11473
C_ C_ 0.444013 0.369934 0.784222 -0.11473
C_ C_ 0.214097 0.429194 0.766812 -0.02249
C_ C_ 0.472157 0.424858 0.749923 -0.02249
C_ C_ 0.169654 0.30964 0.753355 0.6875
C_ C_ 0.415401 0.315818 0.745286 0.6875
C_ C_ 0.196762 0.418811 0.730518 -0.11473
C_ C_ 0.46704 0.406448 0.710919 -0.11473
C_ C_ 0.189565 0.158035 0.749516 -0.02249
C_ C_ 0.43547 0.155063 0.750364 -0.02249
C_ C_ 0.237377 0.0438403 0.751192 -0.02249
C_ C_ 0.483545 0.0401715 0.747703 -0.02249
C_ C_ 0.216599 0.105003 0.787893 -0.11473
C_ C_ 0.464397 0.10305 0.784643 -0.11473
C_ C_ 0.19458 0.137248 0.710931 -0.11473
C_ C_ 0.436973 0.132316 0.712866 -0.11473
C_ C_ 0.199908 0.140741 0.78837 -0.11473
C_ C_ 0.449022 0.139495 0.787094 -0.11473
C_ C_ 0.224081 0.0858941 0.749052 -0.02249
C_ C_ 0.467327 0.0801259 0.747896 -0.02249
C_ C_ 0.167947 0.194649 0.749487 0.6875
C_ C_ 0.420736 0.196547 0.75187 0.6875
C_ C_ 0.210559 0.0998571 0.711255 -0.11473
C_ C_ 0.453672 0.0951738 0.711312 -0.11473
C_ C_ 0.07117 0.157341 0.742196 -0.02249
C_ C_ 0.326516 0.149778 0.754784 -0.02249
C_ C_ 0.0234395 0.042774 0.744933 -0.02249
C_ C_ 0.270679 0.0404779 0.753787 -0.02249
C_ C_ 0.0485141 0.0996601 0.703929 -0.11473
C_ C_ 0.302965 0.0922727 0.71822 -0.11473
C_ C_ 0.0614176 0.140684 0.779509 -0.11473
C_ C_ 0.320187 0.130566 0.792899 -0.11473
C_ C_ 0.0649482 0.135976 0.704029 -0.11473
C_ C_ 0.31789 0.130415 0.717974 -0.11473
C_ C_ 0.038244 0.0832374 0.741506 -0.02249
C_ C_ 0.289866 0.0773592 0.755161 -0.02249
C_ C_ 0.0890372 0.19726 0.743523 0.6875
C_ C_ 0.34221 0.192027 0.756146 0.6875
C_ C_ 0.0421647 0.106472 0.779352 -0.11473
C_ C_ 0.300753 0.0938793 0.792815 -0.11473
C_ C_ 0.135585 0.287911 0.874281 0.17695
C_ C_ 0.357125 0.252694 0.87864 0.17695
C_ C_ 0.120366 0.218724 0.870418 0.17695
C_ C_ 0.41005 0.263246 0.87777 0.17695
C_ C_ 0.115472 0.217966 0.914213 -0.11473
C_ C_ 0.41149 0.258512 0.921298 -0.11473
C_ C_ 0.122379 0.254321 0.939014 0.23465
C_ C_ 0.385305 0.25239 0.944217 0.23465
C_ C_ 0.133079 0.28868 0.917339 -0.11473
C_ C_ 0.357338 0.249436 0.923116 -0.11473
C_ C_ 0.132964 0.221396 0.620133 0.17695
C_ C_ 0.398555 0.258277 0.62617 0.17695
C_ C_ 0.115747 0.290277 0.624611 0.17695
C_ C_ 0.345555 0.249777 0.629186 0.17695
C_ C_ 0.116407 0.295129 0.581151 -0.11473
C_ C_ 0.343073 0.253899 0.585054 -0.11473
C_ C_ 0.122407 0.260367 0.556403 0.23465
C_ C_ 0.368129 0.2592 0.559634 0.23465
C_ C_ 0.132169 0.222629 0.576184 -0.11473
C_ C_ 0.396069 0.257779 0.581108 -0.11473
C_ C_ 0.0316095 0.501443 0.763919 0.05793
C_ C_ 0.282344 0.501456 0.752369 0.05793
C_ C_ 0.220145 0.00655963 0.748917 0.05793
C_ C_ 0.467636 1.00238049 0.743548 0.05793
Br Br 0.0741723 0.500438 0.778193 -0.17191
Br Br 0.323868 0.497541 0.738915 -0.17191
Br Br 0.177123 0.00956776 0.75708 -0.17191
Br Br 0.423688 1.00351441 0.741455 -0.17191
N_ N_ 0.131368 0.252637 0.851872 -0.272
N_ N_ 0.383032 0.261069 0.857249 -0.272
N_ N_ 0.117521 0.258321 0.981657 -0.12501
N_ N_ 0.388451 0.24876 0.99031 -0.12501
N_ N_ 0.125276 0.254942 0.643134 -0.272
N_ N_ 0.37349 0.251792 0.649056 -0.272
N_ N_ 0.123398 0.267061 0.510827 -0.12501
N_ N_ 0.366472 0.263428 0.516852 -0.12501
O_ O_ 0.0905153 0.295922 0.716786 -0.60745
O_ O_ 0.343429 0.298017 0.71626 -0.60745
O_ O_ 0.0985586 0.299124 0.785498 -0.60745
O_ O_ 0.347235 0.29243 0.785635 -0.60745
O_ O_ 0.162134 0.291118 0.786881 -0.60745
O_ O_ 0.410161 0.297099 0.780149 -0.60745
O_ O_ 0.156219 0.299081 0.719429 -0.60745
O_ O_ 0.405251 0.301773 0.711635 -0.60745
O_ O_ 0.157119 0.205477 0.784327 -0.60745
O_ O_ 0.41133 0.207717 0.788089 -0.60745
O_ O_ 0.15805 0.21191 0.715134 -0.60745
O_ O_ 0.40762 0.211599 0.719064 -0.60745
O_ O_ 0.0964807 0.214334 0.708837 -0.60745
O_ O_ 0.348358 0.210779 0.723401 -0.60745
O_ O_ 0.0987336 0.209761 0.778486 -0.60745
O_ O_ 0.350321 0.207194 0.792058 -0.60745
Zn Zn 0.12419 0.7471 0.279396 0.9476
Zn Zn 0.376375 0.749566 0.287247 0.9476
Zn Zn 0.122982 0.747207 0.20991 0.9476
Zn Zn 0.376418 0.750113 0.213476 0.9476
H_ H_ 0.022197 0.907931 0.169857 0.10932
H_ H_ 0.287052 0.922506 0.188089 0.10932
H_ H_ 0.0695653 0.863207 0.302535 0.10932
H_ H_ 0.309322 0.841408 0.3182 0.10932
H_ H_ 0.055684 0.843796 0.173959 0.10932
H_ H_ 0.320956 0.862416 0.187123 0.10932
H_ H_ 0.0405421 0.926991 0.302565 0.10932
H_ H_ 0.282885 0.90783 0.323745 0.10932
H_ H_ 0.222249 0.898295 0.31056 0.10932
H_ H_ 0.46996 0.915356 0.313544 0.10932
H_ H_ 0.180641 0.855029 0.174468 0.10932
H_ H_ 0.440861 0.847652 0.181494 0.10932
H_ H_ 0.197599 0.832841 0.307943 0.10932
H_ H_ 0.447734 0.8461 0.314224 0.10932
H_ H_ 0.214036 0.915593 0.176941 0.10932
H_ H_ 0.464087 0.915875 0.180116 0.10932
H_ H_ 0.216175 0.583139 0.317095 0.10932
H_ H_ 0.464408 0.576397 0.317346 0.10932
H_ H_ 0.188112 0.646139 0.18112 0.10932
H_ H_ 0.434271 0.639656 0.183993 0.10932
H_ H_ 0.186729 0.64848 0.315767 0.10932
H_ H_ 0.428549 0.637078 0.3173 0.10932
H_ H_ 0.212758 0.578018 0.184047 0.10932
H_ H_ 0.452179 0.563759 0.184837 0.10932
H_ H_ 0.033593 0.579964 0.17585 0.10932
H_ H_ 0.278697 0.583962 0.181865 0.10932
H_ H_ 0.0658012 0.644055 0.312071 0.10932
H_ H_ 0.309044 0.652226 0.317416 0.10932
H_ H_ 0.0753641 0.630124 0.177303 0.10932
H_ H_ 0.306202 0.650107 0.180396 0.10932
H_ H_ 0.0314675 0.576956 0.310057 0.10932
H_ H_ 0.285823 0.583651 0.319035 0.10932
H_ H_ 0.130906 0.819372 0.351432 0.10932
H_ H_ 0.37847 0.683609 0.356877 0.10932
H_ H_ 0.122713 0.689064 0.358711 0.10932
H_ H_ 0.378543 0.814579 0.36233 0.10932
H_ H_ 0.125631 0.691084 0.434141 0.10932
H_ H_ 0.377437 0.814991 0.438821 0.10932
H_ H_ 0.145977 0.820537 0.425226 0.10932
H_ H_ 0.377646 0.679816 0.434084 0.10932
H_ H_ 0.122848 0.67354 0.145604 0.10932
H_ H_ 0.369828 0.823486 0.143588 0.10932
H_ H_ 0.118612 0.803389 0.135409 0.10932
H_ H_ 0.387335 0.694526 0.136909 0.10932
H_ H_ 0.126439 0.800601 0.0596069 0.10932
H_ H_ 0.38428 0.692569 0.0591051 0.10932
H_ H_ 0.118606 0.666528 0.063221 0.10932
H_ H_ 0.369787 0.827135 0.0638951 0.10932
C_ C_ 0.0634252 0.847474 0.240165 -0.02249
C_ C_ 0.317745 0.847496 0.252109 -0.02249
C_ C_ 0.0124634 0.960929 0.236742 -0.02249
C_ C_ 0.264092 0.95916 0.257215 -0.02249
C_ C_ 0.0306058 0.89649 0.20049 -0.11473
C_ C_ 0.293149 0.90725 0.216926 -0.11473
C_ C_ 0.0560175 0.869709 0.277157 -0.11473
C_ C_ 0.304473 0.8601 0.289533 -0.11473
C_ C_ 0.0487861 0.861017 0.201459 -0.11473
C_ C_ 0.311323 0.871581 0.215785 -0.11473
C_ C_ 0.0278092 0.91909 0.238422 -0.02249
C_ C_ 0.282555 0.919272 0.253814 -0.02249
C_ C_ 0.0848863 0.810533 0.241891 0.6875
C_ C_ 0.337673 0.809501 0.252021 0.6875
C_ C_ 0.0402905 0.905688 0.275867 -0.11473
C_ C_ 0.288329 0.896307 0.291676 -0.11473
C_ C_ 0.18623 0.838347 0.240093 -0.02249
C_ C_ 0.438585 0.844968 0.249377 -0.02249
C_ C_ 0.232959 0.95575 0.250899 -0.02249
C_ C_ 0.485575 0.962152 0.248091 -0.02249
C_ C_ 0.214462 0.888318 0.28165 -0.11473
C_ C_ 0.461785 0.90158 0.2846 -0.11473
C_ C_ 0.19033 0.862658 0.203191 -0.11473
C_ C_ 0.448619 0.861736 0.210677 -0.11473
C_ C_ 0.201977 0.850023 0.27824 -0.11473
C_ C_ 0.447186 0.863557 0.286041 -0.11473
C_ C_ 0.218234 0.914603 0.246266 -0.02249
C_ C_ 0.467842 0.921178 0.2466 -0.02249
C_ C_ 0.16416 0.804042 0.240294 0.6875
C_ C_ 0.417075 0.810593 0.250582 0.6875
C_ C_ 0.208648 0.899812 0.20603 -0.11473
C_ C_ 0.463329 0.899264 0.21031 -0.11473
C_ C_ 0.182758 0.651106 0.247446 -0.02249
C_ C_ 0.427527 0.642155 0.249889 -0.02249
C_ C_ 0.233074 0.537628 0.254269 -0.02249
C_ C_ 0.478017 0.527043 0.252338 -0.02249
C_ C_ 0.207925 0.596419 0.287666 -0.11473
C_ C_ 0.454963 0.588661 0.287944 -0.11473
C_ C_ 0.192169 0.631421 0.211124 -0.11473
C_ C_ 0.434695 0.622548 0.212043 -0.11473
C_ C_ 0.193068 0.633692 0.286746 -0.11473
C_ C_ 0.435611 0.624258 0.288409 -0.11473
C_ C_ 0.214675 0.575298 0.250545 -0.02249
C_ C_ 0.461554 0.566653 0.251145 -0.02249
C_ C_ 0.161528 0.686344 0.246842 0.6875
C_ C_ 0.412228 0.684203 0.249287 0.6875
C_ C_ 0.205912 0.592488 0.212835 -0.11473
C_ C_ 0.451813 0.584922 0.212252 -0.11473
C_ C_ 0.0684659 0.647015 0.243797 -0.02249
C_ C_ 0.311764 0.653962 0.248819 -0.02249
C_ C_ 0.013812 0.5366 0.242012 -0.02249
C_ C_ 0.265362 0.53834 0.251673 -0.02249
C_ C_ 0.040853 0.593191 0.205517 -0.11473
C_ C_ 0.287633 0.597567 0.212063 -0.11473
C_ C_ 0.057097 0.630344 0.282072 -0.11473
C_ C_ 0.305062 0.634464 0.288105 -0.11473
C_ C_ 0.0607019 0.62732 0.205959 -0.11473
C_ C_ 0.300424 0.638265 0.210867 -0.11473
C_ C_ 0.0312832 0.575494 0.243121 -0.02249
C_ C_ 0.282121 0.577462 0.250817 -0.02249
C_ C_ 0.0860337 0.686559 0.246888 0.6875
C_ C_ 0.331312 0.692865 0.248841 0.6875
C_ C_ 0.0415505 0.592199 0.281598 -0.11473
C_ C_ 0.291084 0.596366 0.288699 -0.11473
C_ C_ 0.133545 0.791298 0.368398 0.17695
C_ C_ 0.379436 0.712928 0.37695 0.17695
C_ C_ 0.125954 0.718003 0.373239 0.17695
C_ C_ 0.378731 0.78588 0.379094 0.17695
C_ C_ 0.126542 0.719904 0.417042 -0.11473
C_ C_ 0.379929 0.786939 0.422843 -0.11473
C_ C_ 0.131986 0.758742 0.437241 0.23465
C_ C_ 0.377387 0.749373 0.444064 0.23465
C_ C_ 0.137718 0.792212 0.411768 -0.11473
C_ C_ 0.377877 0.71167 0.42052 -0.11473
C_ C_ 0.120238 0.701658 0.123465 0.17695
C_ C_ 0.370869 0.795582 0.123402 0.17695
C_ C_ 0.120764 0.774167 0.118857 0.17695
C_ C_ 0.383453 0.724212 0.120742 0.17695
C_ C_ 0.124858 0.770982 0.0752379 -0.11473
C_ C_ 0.381142 0.723099 0.0762117 -0.11473
C_ C_ 0.126357 0.731457 0.0551036 0.23465
C_ C_ 0.37605 0.760678 0.0566322 0.23465
C_ C_ 0.123013 0.696603 0.0795355 -0.11473
C_ C_ 0.372794 0.797883 0.0788961 -0.11473
C_ C_ 0.0284005 0.999562 0.233012 0.05793
C_ C_ 0.277891 0.997137 0.258635 0.05793
C_ C_ 0.218833 0.499428 0.263467 0.05793
C_ C_ 0.46316 0.490173 0.263335 0.05793
Br Br 0.067707 0.000520000000000076 0.214142 -0.17191
Br Br 0.321515 1.000796913 0.265746 -0.17191
Br Br 0.176514 0.49556 0.266369 -0.17191
Br Br 0.42143 0.49145 0.277537 -0.17191
N_ N_ 0.126955 0.754339 0.349639 -0.272
N_ N_ 0.378287 0.750039 0.356614 -0.272
N_ N_ 0.129236 0.763664 0.482059 -0.12501
N_ N_ 0.373899 0.746238 0.488599 -0.12501
N_ N_ 0.121749 0.739643 0.141791 -0.272
N_ N_ 0.374742 0.75737 0.142571 -0.272
N_ N_ 0.128624 0.727953 0.00995542 -0.12501
N_ N_ 0.37365 0.761728 0.0109376 -0.12501
O_ O_ 0.0887429 0.787589 0.208628 -0.60745
O_ O_ 0.347508 0.795962 0.216612 -0.60745
O_ O_ 0.0956087 0.796806 0.276911 -0.60745
O_ O_ 0.346582 0.795327 0.28757 -0.60745
O_ O_ 0.155334 0.790052 0.274552 -0.60745
O_ O_ 0.40503 0.797702 0.284887 -0.60745
O_ O_ 0.152968 0.790917 0.206389 -0.60745
O_ O_ 0.410266 0.793205 0.217567 -0.60745
O_ O_ 0.153826 0.702792 0.282265 -0.60745
O_ O_ 0.406621 0.701328 0.28438 -0.60745
O_ O_ 0.156501 0.706518 0.213024 -0.60745
O_ O_ 0.404331 0.70104 0.214507 -0.60745
O_ O_ 0.0959282 0.700175 0.213414 -0.60745
O_ O_ 0.341651 0.706807 0.21353 -0.60745
O_ O_ 0.0952008 0.702813 0.280951 -0.60745
O_ O_ 0.34281 0.705962 0.282173 -0.60745
Zn Zn 0.125839 0.752488 0.779523 0.9476
Zn Zn 0.375707 0.752057 0.786651 0.9476
Zn Zn 0.124101 0.748128 0.710501 0.9476
Zn Zn 0.373069 0.752977 0.715942 0.9476
H_ H_ 0.0417053 0.926528 0.673581 0.10932
H_ H_ 0.273522 0.910275 0.689342 0.10932
H_ H_ 0.0550425 0.850547 0.808937 0.10932
H_ H_ 0.329214 0.867475 0.818569 0.10932
H_ H_ 0.0671 0.857346 0.673383 0.10932
H_ H_ 0.300155 0.842224 0.694382 0.10932
H_ H_ 0.033719 0.919279 0.80477 0.10932
H_ H_ 0.305305 0.938834 0.81326 0.10932
H_ H_ 0.228185 0.905279 0.812555 0.10932
H_ H_ 0.459691 0.925916 0.821496 0.10932
H_ H_ 0.177288 0.86555 0.68154 0.10932
H_ H_ 0.445878 0.840853 0.689505 0.10932
H_ H_ 0.1917 0.84646 0.813364 0.10932
H_ H_ 0.431964 0.859252 0.823735 0.10932
H_ H_ 0.206749 0.931317 0.68452 0.10932
H_ H_ 0.468385 0.910137 0.685954 0.10932
H_ H_ 0.218778 0.59446 0.826102 0.10932
H_ H_ 0.466742 0.590719 0.822893 0.10932
H_ H_ 0.180068 0.639118 0.689428 0.10932
H_ H_ 0.433654 0.643024 0.686055 0.10932
H_ H_ 0.183295 0.649383 0.822959 0.10932
H_ H_ 0.433948 0.650781 0.818475 0.10932
H_ H_ 0.219188 0.582703 0.691503 0.10932
H_ H_ 0.46221 0.578505 0.689651 0.10932
H_ H_ 0.0544633 0.556206 0.698036 0.10932
H_ H_ 0.288086 0.582691 0.686869 0.10932
H_ H_ 0.0454732 0.671228 0.804085 0.10932
H_ H_ 0.31599 0.655283 0.817746 0.10932
H_ H_ 0.0880917 0.624368 0.693993 0.10932
H_ H_ 0.30366 0.657255 0.685234 0.10932
H_ H_ 0.0181595 0.605967 0.81084 0.10932
H_ H_ 0.294505 0.582947 0.819739 0.10932
H_ H_ 0.138933 0.815498 0.854209 0.10932
H_ H_ 0.369199 0.80592 0.864951 0.10932
H_ H_ 0.117582 0.690143 0.856414 0.10932
H_ H_ 0.388982 0.679952 0.853886 0.10932
H_ H_ 0.10709 0.695615 0.93343 0.10932
H_ H_ 0.395315 0.675488 0.933297 0.10932
H_ H_ 0.140921 0.818681 0.932037 0.10932
H_ H_ 0.371361 0.801217 0.942944 0.10932
H_ H_ 0.128341 0.678964 0.640687 0.10932
H_ H_ 0.364306 0.825297 0.647274 0.10932
H_ H_ 0.136091 0.811506 0.627999 0.10932
H_ H_ 0.383826 0.698351 0.633847 0.10932
H_ H_ 0.133266 0.805756 0.554344 0.10932
H_ H_ 0.383047 0.705131 0.556964 0.10932
H_ H_ 0.127288 0.672372 0.564696 0.10932
H_ H_ 0.357387 0.832458 0.570432 0.10932
C_ C_ 0.0651398 0.848022 0.740815 -0.02249
C_ C_ 0.315341 0.849822 0.755 -0.02249
C_ C_ 0.0223136 0.967899 0.74029 -0.02249
C_ C_ 0.266168 0.963387 0.751146 -0.02249
C_ C_ 0.0472992 0.911042 0.701778 -0.11473
C_ C_ 0.285497 0.900353 0.717768 -0.11473
C_ C_ 0.0551567 0.866818 0.778659 -0.11473
C_ C_ 0.315402 0.875838 0.791039 -0.11473
C_ C_ 0.0593097 0.870533 0.701497 -0.11473
C_ C_ 0.299719 0.862342 0.718974 -0.11473
C_ C_ 0.039886 0.929701 0.738981 -0.02249
C_ C_ 0.280414 0.922589 0.753878 -0.02249
C_ C_ 0.083903 0.808916 0.742917 0.6875
C_ C_ 0.334876 0.812168 0.755314 0.6875
C_ C_ 0.0410839 0.905252 0.776763 -0.11473
C_ C_ 0.299387 0.913671 0.790316 -0.11473
C_ C_ 0.180949 0.853397 0.745718 -0.02249
C_ C_ 0.434676 0.846325 0.757138 -0.02249
C_ C_ 0.234319 0.966948 0.750826 -0.02249
C_ C_ 0.48293 0.963269 0.750782 -0.02249
C_ C_ 0.212535 0.903818 0.785909 -0.11473
C_ C_ 0.455478 0.909339 0.791184 -0.11473
C_ C_ 0.187521 0.876085 0.710299 -0.11473
C_ C_ 0.447792 0.860357 0.719061 -0.11473
C_ C_ 0.192687 0.868867 0.785393 -0.11473
C_ C_ 0.439771 0.870437 0.794354 -0.11473
C_ C_ 0.215494 0.928629 0.749857 -0.02249
C_ C_ 0.466583 0.923019 0.752786 -0.02249
C_ C_ 0.162315 0.813104 0.744945 0.6875
C_ C_ 0.414006 0.809698 0.755118 0.6875
C_ C_ 0.202633 0.913903 0.711916 -0.11473
C_ C_ 0.459966 0.900149 0.717807 -0.11473
C_ C_ 0.183922 0.65462 0.754963 -0.02249
C_ C_ 0.430783 0.652879 0.75232 -0.02249
C_ C_ 0.237016 0.543537 0.761523 -0.02249
C_ C_ 0.484137 0.540167 0.758084 -0.02249
C_ C_ 0.214293 0.606088 0.79611 -0.11473
C_ C_ 0.459465 0.601788 0.792978 -0.11473
C_ C_ 0.192988 0.632917 0.71904 -0.11473
C_ C_ 0.438299 0.62925 0.715607 -0.11473
C_ C_ 0.194542 0.640808 0.794409 -0.11473
C_ C_ 0.441643 0.63769 0.79088 -0.11473
C_ C_ 0.22186 0.584113 0.759035 -0.02249
C_ C_ 0.465427 0.578296 0.757377 -0.02249
C_ C_ 0.16398 0.692571 0.751769 0.6875
C_ C_ 0.411873 0.692308 0.749723 0.6875
C_ C_ 0.211933 0.597698 0.720808 -0.11473
C_ C_ 0.456891 0.594483 0.718111 -0.11473
C_ C_ 0.0667406 0.652959 0.746598 -0.02249
C_ C_ 0.316382 0.657681 0.750559 -0.02249
C_ C_ 0.0157988 0.537866 0.756267 -0.02249
C_ C_ 0.268436 0.540714 0.75332 -0.02249
C_ C_ 0.052713 0.583215 0.71845 -0.11473
C_ C_ 0.293673 0.598463 0.715183 -0.11473
C_ C_ 0.0467549 0.645976 0.77902 -0.11473
C_ C_ 0.309671 0.638904 0.789327 -0.11473
C_ C_ 0.0701392 0.619772 0.717569 -0.11473
C_ C_ 0.30555 0.63918 0.712503 -0.11473
C_ C_ 0.032144 0.579282 0.752078 -0.02249
C_ C_ 0.287083 0.578146 0.753858 -0.02249
C_ C_ 0.0865538 0.689657 0.744784 0.6875
C_ C_ 0.332025 0.699379 0.749259 0.6875
C_ C_ 0.0288591 0.61089 0.781213 -0.11473
C_ C_ 0.297324 0.598739 0.789867 -0.11473
C_ C_ 0.136372 0.787697 0.872063 0.17695
C_ C_ 0.373032 0.777171 0.88053 0.17695
C_ C_ 0.119087 0.719498 0.873321 0.17695
C_ C_ 0.388439 0.708561 0.873995 0.17695
C_ C_ 0.11752 0.720294 0.916016 -0.11473
C_ C_ 0.388959 0.704263 0.917837 -0.11473
C_ C_ 0.125483 0.756187 0.938851 0.23465
C_ C_ 0.382306 0.736799 0.94269 0.23465
C_ C_ 0.134269 0.791218 0.915254 -0.11473
C_ C_ 0.373159 0.773022 0.924286 -0.11473
C_ C_ 0.12741 0.706856 0.621338 0.17695
C_ C_ 0.367027 0.798438 0.626995 0.17695
C_ C_ 0.132992 0.780594 0.614849 0.17695
C_ C_ 0.38101 0.729175 0.619339 0.17695
C_ C_ 0.132777 0.777389 0.571906 -0.11473
C_ C_ 0.379161 0.731704 0.575005 -0.11473
C_ C_ 0.132519 0.738007 0.551537 0.23465
C_ C_ 0.371435 0.76942 0.556272 0.23465
C_ C_ 0.131864 0.702207 0.576623 -0.11473
C_ C_ 0.364723 0.802927 0.58175 -0.11473
C_ C_ 0.038139 0.00447246 0.738469 0.05793
C_ C_ 0.283689 0.0009300000000000974 0.751512 0.05793
C_ C_ 0.220244 0.506035 0.771531 0.05793
C_ C_ 0.47054 0.501413 0.749414 0.05793
Br Br 0.0818625 0.00566608 0.732413 -0.17191
Br Br 0.328242 -0.007198000000000038 0.746847 -0.17191
Br Br 0.178479 0.507411 0.784221 -0.17191
Br Br 0.427537 0.497464 0.737516 -0.17191
N_ N_ 0.124691 0.754827 0.851237 -0.272
N_ N_ 0.37953 0.744727 0.855926 -0.272
N_ N_ 0.124322 0.758725 0.984552 -0.12501
N_ N_ 0.380202 0.732193 0.988126 -0.12501
N_ N_ 0.125152 0.746106 0.637518 -0.272
N_ N_ 0.375496 0.762202 0.644876 -0.272
N_ N_ 0.130892 0.733629 0.506619 -0.12501
N_ N_ 0.369442 0.775539 0.51297 -0.12501
O_ O_ 0.091607 0.78969 0.709766 -0.60745
O_ O_ 0.343459 0.797954 0.720567 -0.60745
O_ O_ 0.0966558 0.798913 0.776358 -0.60745
O_ O_ 0.340739 0.792604 0.788787 -0.60745
O_ O_ 0.157729 0.793287 0.77994 -0.60745
O_ O_ 0.404758 0.795315 0.790139 -0.60745
O_ O_ 0.150848 0.800032 0.710177 -0.60745
O_ O_ 0.406118 0.794529 0.720337 -0.60745
O_ O_ 0.153078 0.70576 0.784096 -0.60745
O_ O_ 0.404642 0.709171 0.784711 -0.60745
O_ O_ 0.156009 0.707773 0.716219 -0.60745
O_ O_ 0.400194 0.704347 0.715055 -0.60745
O_ O_ 0.0982841 0.697072 0.708883 -0.60745
O_ O_ 0.339296 0.715835 0.713415 -0.60745
O_ O_ 0.0959243 0.706267 0.77955 -0.60745
O_ O_ 0.344844 0.70999 0.783439 -0.60745
Zn Zn 0.624346 0.249284 0.286626 0.9476
Zn Zn 0.872968 0.248037 0.290159 0.9476
Zn Zn 0.625784 0.246414 0.217806 0.9476
Zn Zn 0.871599 0.248932 0.215444 0.9476
H_ H_ 0.525468 0.406441 0.18154 0.10932
H_ H_ 0.783973 0.421556 0.191594 0.10932
H_ H_ 0.571558 0.361699 0.313443 0.10932
H_ H_ 0.820688 0.354702 0.321244 0.10932
H_ H_ 0.550342 0.337083 0.185466 0.10932
H_ H_ 0.811894 0.357573 0.186518 0.10932
H_ H_ 0.540165 0.417632 0.311874 0.10932
H_ H_ 0.78738 0.41831 0.324372 0.10932
H_ H_ 0.720132 0.409516 0.327333 0.10932
H_ H_ 0.967626 0.416777 0.319119 0.10932
H_ H_ 0.688413 0.35001 0.191405 0.10932
H_ H_ 0.925996 0.355093 0.188451 0.10932
H_ H_ 0.692669 0.343459 0.322654 0.10932
H_ H_ 0.947173 0.345711 0.320758 0.10932
H_ H_ 0.710736 0.421269 0.194015 0.10932
H_ H_ 0.95046 0.42574 0.187667 0.10932
H_ H_ 0.712125 0.0698953 0.319454 0.10932
H_ H_ 0.980527 0.0958477 0.307584 0.10932
H_ H_ 0.681761 0.142017 0.186394 0.10932
H_ H_ 0.913477 0.135253 0.188721 0.10932
H_ H_ 0.681787 0.137189 0.321691 0.10932
H_ H_ 0.951143 0.157638 0.312718 0.10932
H_ H_ 0.713551 0.0795982 0.185921 0.10932
H_ H_ 0.950951 0.0785182 0.178929 0.10932
H_ H_ 0.541198 0.0713104 0.188861 0.10932
H_ H_ 0.788611 0.0679281 0.190639 0.10932
H_ H_ 0.549498 0.161574 0.315178 0.10932
H_ H_ 0.798569 0.155208 0.318972 0.10932
H_ H_ 0.576823 0.130629 0.188587 0.10932
H_ H_ 0.817765 0.133503 0.186618 0.10932
H_ H_ 0.524239 0.0927909 0.319979 0.10932
H_ H_ 0.771463 0.084584 0.319381 0.10932
H_ H_ 0.625701 0.18499 0.36181 0.10932
H_ H_ 0.886162 0.193436 0.367103 0.10932
H_ H_ 0.622271 0.312191 0.356845 0.10932
H_ H_ 0.856708 0.316375 0.360917 0.10932
H_ H_ 0.607645 0.319981 0.429578 0.10932
H_ H_ 0.854966 0.322281 0.436973 0.10932
H_ H_ 0.619266 0.189097 0.441612 0.10932
H_ H_ 0.888278 0.197461 0.443209 0.10932
H_ H_ 0.623859 0.181731 0.146191 0.10932
H_ H_ 0.916317 0.225459 0.143515 0.10932
H_ H_ 0.634398 0.308881 0.133435 0.10932
H_ H_ 0.832784 0.290184 0.139585 0.10932
H_ H_ 0.633354 0.301228 0.0566788 0.10932
H_ H_ 0.838515 0.296842 0.0612809 0.10932
H_ H_ 0.629855 0.170795 0.0725367 0.10932
H_ H_ 0.917411 0.224926 0.0637051 0.10932
C_ C_ 0.565687 0.342866 0.247693 -0.02249
C_ C_ 0.820032 0.351649 0.255027 -0.02249
C_ C_ 0.509602 0.452739 0.249623 -0.02249
C_ C_ 0.764655 0.461683 0.260365 -0.02249
C_ C_ 0.53465 0.394208 0.209988 -0.11473
C_ C_ 0.79072 0.406889 0.219114 -0.11473
C_ C_ 0.558082 0.363439 0.286021 -0.11473
C_ C_ 0.813045 0.370571 0.29371 -0.11473
C_ C_ 0.552103 0.358153 0.209018 -0.11473
C_ C_ 0.809564 0.372087 0.217235 -0.11473
C_ C_ 0.528187 0.413969 0.249214 -0.02249
C_ C_ 0.780448 0.421461 0.257771 -0.02249
C_ C_ 0.586117 0.305309 0.250458 0.6875
C_ C_ 0.833695 0.308264 0.251245 0.6875
C_ C_ 0.540151 0.398201 0.285778 -0.11473
C_ C_ 0.794864 0.404988 0.294779 -0.11473
C_ C_ 0.685921 0.342212 0.2583 -0.02249
C_ C_ 0.931558 0.34868 0.25551 -0.02249
C_ C_ 0.733621 0.461918 0.262737 -0.02249
C_ C_ 0.980969 0.461955 0.25418 -0.02249
C_ C_ 0.712634 0.397952 0.296343 -0.11473
C_ C_ 0.958734 0.40393 0.292104 -0.11473
C_ C_ 0.692764 0.364179 0.220478 -0.11473
C_ C_ 0.933861 0.369826 0.217153 -0.11473
C_ C_ 0.696875 0.36004 0.294593 -0.11473
C_ C_ 0.947382 0.363504 0.291212 -0.11473
C_ C_ 0.716289 0.421368 0.25947 -0.02249
C_ C_ 0.964487 0.422708 0.253841 -0.02249
C_ C_ 0.665757 0.305615 0.257845 0.6875
C_ C_ 0.910096 0.311649 0.257082 0.6875
C_ C_ 0.708138 0.402588 0.222145 -0.11473
C_ C_ 0.951749 0.406255 0.216146 -0.11473
C_ C_ 0.684038 0.148208 0.255757 -0.02249
C_ C_ 0.932152 0.15409 0.249968 -0.02249
C_ C_ 0.729943 0.0324345 0.253875 -0.02249
C_ C_ 0.981395 0.0386165 0.244561 -0.02249
C_ C_ 0.704056 0.0874556 0.290758 -0.11473
C_ C_ 0.967543 0.104005 0.280552 -0.11473
C_ C_ 0.689306 0.128983 0.215816 -0.11473
C_ C_ 0.930267 0.129223 0.213362 -0.11473
C_ C_ 0.689677 0.126108 0.292127 -0.11473
C_ C_ 0.950199 0.140645 0.284545 -0.11473
C_ C_ 0.713053 0.0708058 0.252908 -0.02249
C_ C_ 0.965558 0.0789627 0.24452 -0.02249
C_ C_ 0.664572 0.186863 0.255241 0.6875
C_ C_ 0.914115 0.192292 0.250834 0.6875
C_ C_ 0.706045 0.090836 0.21511 -0.11473
C_ C_ 0.949637 0.0953354 0.208278 -0.11473
C_ C_ 0.56623 0.149486 0.251304 -0.02249
C_ C_ 0.809963 0.150705 0.251799 -0.02249
C_ C_ 0.515714 0.0379498 0.257438 -0.02249
C_ C_ 0.762384 0.0319326 0.25327 -0.02249
C_ C_ 0.546633 0.0875167 0.217283 -0.11473
C_ C_ 0.793507 0.0868141 0.216813 -0.11473
C_ C_ 0.550774 0.140095 0.289093 -0.11473
C_ C_ 0.797909 0.135659 0.289522 -0.11473
C_ C_ 0.563245 0.124002 0.214879 -0.11473
C_ C_ 0.807991 0.124369 0.215449 -0.11473
C_ C_ 0.53288 0.0762728 0.255196 -0.02249
C_ C_ 0.781038 0.0725042 0.253971 -0.02249
C_ C_ 0.585686 0.187739 0.249224 0.6875
C_ C_ 0.833767 0.183526 0.252201 0.6875
C_ C_ 0.533268 0.103162 0.289825 -0.11473
C_ C_ 0.78272 0.097156 0.291205 -0.11473
C_ C_ 0.623829 0.213964 0.379281 0.17695
C_ C_ 0.880966 0.222172 0.38335 0.17695
C_ C_ 0.617523 0.287024 0.374387 0.17695
C_ C_ 0.865057 0.291111 0.379189 0.17695
C_ C_ 0.615661 0.290577 0.418256 -0.11473
C_ C_ 0.86141 0.292879 0.421825 -0.11473
C_ C_ 0.615379 0.25481 0.443844 0.23465
C_ C_ 0.870771 0.259311 0.446971 0.23465
C_ C_ 0.621275 0.217107 0.424945 -0.11473
C_ C_ 0.880526 0.224327 0.428 -0.11473
C_ C_ 0.625198 0.208003 0.126904 0.17695
C_ C_ 0.896842 0.236514 0.124293 0.17695
C_ C_ 0.631069 0.278917 0.120168 0.17695
C_ C_ 0.852832 0.275198 0.122179 0.17695
C_ C_ 0.631723 0.275033 0.0760541 -0.11473
C_ C_ 0.853772 0.2784 0.0783989 -0.11473
C_ C_ 0.633806 0.235868 0.0565634 0.23465
C_ C_ 0.874537 0.256463 0.056961 0.23465
C_ C_ 0.63317 0.202598 0.0844617 -0.11473
C_ C_ 0.897311 0.236386 0.0792185 -0.11473
C_ C_ 0.525479 0.491275 0.249235 0.05793
C_ C_ 0.779448 0.4995 0.257572 0.05793
C_ C_ 0.713593 0.994525 0.253552 0.05793
C_ C_ 0.965514 1.00252026 0.246507 0.05793
Br Br 0.566917 0.490366 0.231354 -0.17191
Br Br 0.822135 0.503536 0.255206 -0.17191
Br Br 0.670581 -0.009301000000000004 0.240226 -0.17191
Br Br 0.922979 0.00461288 0.255024 -0.17191
N_ N_ 0.621289 0.24944 0.356479 -0.272
N_ N_ 0.871877 0.255905 0.360508 -0.272
N_ N_ 0.609241 0.258061 0.488405 -0.12501
N_ N_ 0.873047 0.26483 0.49033 -0.12501
N_ N_ 0.626334 0.245872 0.14518 -0.272
N_ N_ 0.874822 0.257393 0.144452 -0.272
N_ N_ 0.6375 0.231106 0.0134008 -0.12501
N_ N_ 0.876268 0.262551 0.0121953 -0.12501
O_ O_ 0.593293 0.285415 0.218992 -0.60745
O_ O_ 0.840245 0.293856 0.216666 -0.60745
O_ O_ 0.596824 0.296905 0.285857 -0.60745
O_ O_ 0.839873 0.288431 0.284795 -0.60745
O_ O_ 0.658715 0.289072 0.292194 -0.60745
O_ O_ 0.902056 0.294409 0.29119 -0.60745
O_ O_ 0.651221 0.298244 0.223636 -0.60745
O_ O_ 0.90352 0.294436 0.222207 -0.60745
O_ O_ 0.652874 0.200374 0.288669 -0.60745
O_ O_ 0.90695 0.206584 0.285087 -0.60745
O_ O_ 0.658027 0.204765 0.220916 -0.60745
O_ O_ 0.899752 0.202484 0.21742 -0.60745
O_ O_ 0.600162 0.194412 0.216907 -0.60745
O_ O_ 0.838225 0.204554 0.218138 -0.60745
O_ O_ 0.589685 0.212122 0.280424 -0.60745
O_ O_ 0.843288 0.198753 0.287862 -0.60745
Zn Zn 0.628387 0.245961 0.788248 0.9476
Zn Zn 0.877637 0.24922 0.788622 0.9476
Zn Zn 0.625287 0.250318 0.720156 0.9476
Zn Zn 0.875643 0.249065 0.717526 0.9476
H_ H_ 0.536396 0.417362 0.694089 0.10932
H_ H_ 0.800973 0.431506 0.684443 0.10932
H_ H_ 0.574373 0.359234 0.825712 0.10932
H_ H_ 0.807392 0.351397 0.817629 0.10932
H_ H_ 0.552974 0.345807 0.695974 0.10932
H_ H_ 0.827215 0.362055 0.683872 0.10932
H_ H_ 0.546636 0.423199 0.827366 0.10932
H_ H_ 0.778695 0.41165 0.813981 0.10932
H_ H_ 0.716189 0.417266 0.819156 0.10932
H_ H_ 0.968803 0.417992 0.823971 0.10932
H_ H_ 0.683635 0.353008 0.685167 0.10932
H_ H_ 0.931851 0.357822 0.687372 0.10932
H_ H_ 0.693485 0.35335 0.820521 0.10932
H_ H_ 0.939623 0.349495 0.821816 0.10932
H_ H_ 0.713701 0.418413 0.68302 0.10932
H_ H_ 0.965371 0.417057 0.68931 0.10932
H_ H_ 0.721765 0.0782427 0.819262 0.10932
H_ H_ 0.964714 0.0761467 0.816838 0.10932
H_ H_ 0.686049 0.14225 0.683649 0.10932
H_ H_ 0.944542 0.155424 0.685075 0.10932
H_ H_ 0.685729 0.138249 0.819862 0.10932
H_ H_ 0.933996 0.140246 0.814932 0.10932
H_ H_ 0.71794 0.0809727 0.684102 0.10932
H_ H_ 0.973125 0.0877741 0.680771 0.10932
H_ H_ 0.526168 0.0961319 0.685357 0.10932
H_ H_ 0.78508 0.0931116 0.679362 0.10932
H_ H_ 0.572184 0.131216 0.825338 0.10932
H_ H_ 0.823372 0.140364 0.818869 0.10932
H_ H_ 0.557553 0.156177 0.691954 0.10932
H_ H_ 0.808486 0.158309 0.687012 0.10932
H_ H_ 0.535467 0.0750947 0.818239 0.10932
H_ H_ 0.794793 0.071075 0.811082 0.10932
H_ H_ 0.6274 0.317181 0.855909 0.10932
H_ H_ 0.926136 0.234677 0.858096 0.10932
H_ H_ 0.627984 0.185649 0.864529 0.10932
H_ H_ 0.83099 0.252911 0.860124 0.10932
H_ H_ 0.625757 0.190423 0.942269 0.10932
H_ H_ 0.831715 0.251476 0.937936 0.10932
H_ H_ 0.637227 0.320294 0.93619 0.10932
H_ H_ 0.928147 0.236083 0.934102 0.10932
H_ H_ 0.618027 0.311731 0.634485 0.10932
H_ H_ 0.886582 0.310883 0.640278 0.10932
H_ H_ 0.626346 0.179695 0.6433 0.10932
H_ H_ 0.848878 0.190382 0.641852 0.10932
H_ H_ 0.625979 0.17379 0.569786 0.10932
H_ H_ 0.860671 0.179772 0.56998 0.10932
H_ H_ 0.61264 0.300938 0.556211 0.10932
H_ H_ 0.889925 0.305126 0.563231 0.10932
C_ C_ 0.570198 0.348655 0.757998 -0.02249
C_ C_ 0.822668 0.35187 0.751776 -0.02249
C_ C_ 0.519182 0.466566 0.758273 -0.02249
C_ C_ 0.766471 0.463129 0.748491 -0.02249
C_ C_ 0.544105 0.404952 0.721991 -0.11473
C_ C_ 0.798533 0.409458 0.710886 -0.11473
C_ C_ 0.565384 0.371091 0.796279 -0.11473
C_ C_ 0.80758 0.366885 0.788574 -0.11473
C_ C_ 0.555932 0.364546 0.721815 -0.11473
C_ C_ 0.815402 0.372491 0.711829 -0.11473
C_ C_ 0.538879 0.426999 0.759958 -0.02249
C_ C_ 0.783763 0.422242 0.746445 -0.02249
C_ C_ 0.588558 0.309661 0.7551 0.6875
C_ C_ 0.84065 0.312261 0.752378 0.6875
C_ C_ 0.549465 0.409551 0.797856 -0.11473
C_ C_ 0.790017 0.402678 0.784558 -0.11473
C_ C_ 0.685235 0.347058 0.753575 -0.02249
C_ C_ 0.934072 0.347811 0.754366 -0.02249
C_ C_ 0.735162 0.463065 0.75108 -0.02249
C_ C_ 0.983544 0.46213 0.757897 -0.02249
C_ C_ 0.710064 0.404649 0.789731 -0.11473
C_ C_ 0.961982 0.401572 0.795787 -0.11473
C_ C_ 0.691509 0.366469 0.714778 -0.11473
C_ C_ 0.941753 0.36751 0.717048 -0.11473
C_ C_ 0.695084 0.367376 0.79117 -0.11473
C_ C_ 0.945141 0.364813 0.793774 -0.11473
C_ C_ 0.71769 0.423025 0.75162 -0.02249
C_ C_ 0.968784 0.42141 0.756857 -0.02249
C_ C_ 0.666308 0.308179 0.753342 0.6875
C_ C_ 0.915496 0.309518 0.754046 0.6875
C_ C_ 0.707707 0.403574 0.713585 -0.11473
C_ C_ 0.958845 0.404744 0.718647 -0.11473
C_ C_ 0.687341 0.148759 0.753708 -0.02249
C_ C_ 0.938361 0.153631 0.749853 -0.02249
C_ C_ 0.737837 0.0365449 0.74836 -0.02249
C_ C_ 0.990502 0.0430777 0.747689 -0.02249
C_ C_ 0.714152 0.0927539 0.789639 -0.11473
C_ C_ 0.962353 0.0949871 0.786815 -0.11473
C_ C_ 0.695735 0.130745 0.715049 -0.11473
C_ C_ 0.948615 0.137245 0.71321 -0.11473
C_ C_ 0.693306 0.126814 0.790829 -0.11473
C_ C_ 0.942174 0.12924 0.785939 -0.11473
C_ C_ 0.721832 0.0759758 0.750593 -0.02249
C_ C_ 0.973716 0.0815926 0.748434 -0.02249
C_ C_ 0.668501 0.18704 0.755458 0.6875
C_ C_ 0.916213 0.188186 0.751451 0.6875
C_ C_ 0.713044 0.094685 0.71302 -0.11473
C_ C_ 0.966295 0.101648 0.711537 -0.11473
C_ C_ 0.565937 0.150199 0.75926 -0.02249
C_ C_ 0.820618 0.152206 0.752284 -0.02249
C_ C_ 0.514719 0.0381056 0.748026 -0.02249
C_ C_ 0.769481 0.0393919 0.742484 -0.02249
C_ C_ 0.535682 0.102249 0.715876 -0.11473
C_ C_ 0.789159 0.105266 0.710765 -0.11473
C_ C_ 0.560044 0.125767 0.795871 -0.11473
C_ C_ 0.815505 0.128334 0.787254 -0.11473
C_ C_ 0.552509 0.138677 0.720686 -0.11473
C_ C_ 0.805451 0.14101 0.714616 -0.11473
C_ C_ 0.533407 0.0776106 0.751743 -0.02249
C_ C_ 0.785961 0.0789194 0.744891 -0.02249
C_ C_ 0.587229 0.18711 0.759358 0.6875
C_ C_ 0.835618 0.191793 0.754965 0.6875
C_ C_ 0.53923 0.0937372 0.790558 -0.11473
C_ C_ 0.799068 0.0902408 0.783222 -0.11473
C_ C_ 0.627076 0.289327 0.87525 0.17695
C_ C_ 0.904193 0.237016 0.875677 0.17695
C_ C_ 0.630266 0.216322 0.879883 0.17695
C_ C_ 0.852455 0.252407 0.878293 0.17695
C_ C_ 0.627784 0.218178 0.92382 -0.11473
C_ C_ 0.853052 0.250102 0.921904 -0.11473
C_ C_ 0.627265 0.25608 0.944107 0.23465
C_ C_ 0.881347 0.242615 0.942185 0.23465
C_ C_ 0.629562 0.292007 0.920728 -0.11473
C_ C_ 0.906973 0.240268 0.918402 -0.11473
C_ C_ 0.620063 0.280165 0.620392 0.17695
C_ C_ 0.880627 0.282219 0.624925 0.17695
C_ C_ 0.621683 0.207039 0.627528 0.17695
C_ C_ 0.863234 0.214253 0.627169 0.17695
C_ C_ 0.621368 0.202841 0.584276 -0.11473
C_ C_ 0.866309 0.208994 0.584046 -0.11473
C_ C_ 0.615963 0.235979 0.559246 0.23465
C_ C_ 0.877778 0.240837 0.558477 0.23465
C_ C_ 0.615213 0.274269 0.576768 -0.11473
C_ C_ 0.88456 0.277907 0.581295 -0.11473
C_ C_ 0.532296 0.505765 0.762533 0.05793
C_ C_ 0.782214 0.502295 0.742335 0.05793
C_ C_ 0.72314 -0.0011109999999999731 0.740721 0.05793
C_ C_ 0.975741 0.00563504 0.746589 0.05793
Br Br 0.575323 0.509049 0.762213 -0.17191
Br Br 0.826163 0.503695 0.737149 -0.17191
Br Br 0.67997 -0.0023619999999999752 0.746723 -0.17191
Br Br 0.932136 0.00596905 0.744192 -0.17191
N_ N_ 0.626995 0.251752 0.855714 -0.272
N_ N_ 0.877754 0.245817 0.85504 -0.272
N_ N_ 0.625361 0.258199 0.989389 -0.12501
N_ N_ 0.883646 0.234665 0.986901 -0.12501
N_ N_ 0.622373 0.245238 0.64618 -0.272
N_ N_ 0.871789 0.25033 0.648082 -0.272
N_ N_ 0.616718 0.230502 0.515436 -0.12501
N_ N_ 0.880594 0.236583 0.515691 -0.12501
O_ O_ 0.590154 0.288269 0.720863 -0.60745
O_ O_ 0.845262 0.294342 0.718556 -0.60745
O_ O_ 0.600297 0.294248 0.789037 -0.60745
O_ O_ 0.848889 0.296189 0.786781 -0.60745
O_ O_ 0.663053 0.288142 0.787196 -0.60745
O_ O_ 0.908717 0.29094 0.787175 -0.60745
O_ O_ 0.652573 0.296916 0.71988 -0.60745
O_ O_ 0.905779 0.295009 0.719745 -0.60745
O_ O_ 0.65616 0.196483 0.790182 -0.60745
O_ O_ 0.903602 0.199014 0.785616 -0.60745
O_ O_ 0.660736 0.20699 0.722307 -0.60745
O_ O_ 0.90956 0.207808 0.718002 -0.60745
O_ O_ 0.600637 0.197605 0.725572 -0.60745
O_ O_ 0.846132 0.20621 0.721119 -0.60745
O_ O_ 0.592231 0.207188 0.792702 -0.60745
O_ O_ 0.845078 0.205569 0.790158 -0.60745
Zn Zn 0.617336 0.744237 0.289036 0.9476
Zn Zn 0.877357 0.749186 0.270955 0.9476
Zn Zn 0.620508 0.744943 0.218315 0.9476
Zn Zn 0.872824 0.746835 0.204367 0.9476
H_ H_ 0.545525 0.928597 0.188538 0.10932
H_ H_ 0.781247 0.918039 0.181677 0.10932
H_ H_ 0.559207 0.843164 0.316686 0.10932
H_ H_ 0.806243 0.839448 0.308786 0.10932
H_ H_ 0.571966 0.862705 0.184857 0.10932
H_ H_ 0.81107 0.855193 0.174671 0.10932
H_ H_ 0.533036 0.908898 0.322804 0.10932
H_ H_ 0.782322 0.903949 0.316729 0.10932
H_ H_ 0.696202 0.926468 0.316857 0.10932
H_ H_ 0.976215 0.906931 0.307477 0.10932
H_ H_ 0.689338 0.835426 0.192843 0.10932
H_ H_ 0.910693 0.873466 0.181997 0.10932
H_ H_ 0.671735 0.861461 0.323738 0.10932
H_ H_ 0.954704 0.837905 0.300183 0.10932
H_ H_ 0.722989 0.893096 0.191681 0.10932
H_ H_ 0.946592 0.928427 0.178621 0.10932
H_ H_ 0.720398 0.589915 0.32472 0.10932
H_ H_ 0.970181 0.587833 0.310516 0.10932
H_ H_ 0.684647 0.646468 0.189574 0.10932
H_ H_ 0.935189 0.649155 0.175456 0.10932
H_ H_ 0.692093 0.655656 0.323815 0.10932
H_ H_ 0.94114 0.653821 0.307283 0.10932
H_ H_ 0.708297 0.575993 0.192322 0.10932
H_ H_ 0.969489 0.589081 0.174232 0.10932
H_ H_ 0.531683 0.571471 0.182893 0.10932
H_ H_ 0.786141 0.571986 0.179882 0.10932
H_ H_ 0.557048 0.642185 0.313881 0.10932
H_ H_ 0.811799 0.651539 0.307507 0.10932
H_ H_ 0.567004 0.628058 0.18012 0.10932
H_ H_ 0.812293 0.639028 0.171043 0.10932
H_ H_ 0.525979 0.581424 0.314812 0.10932
H_ H_ 0.782867 0.592056 0.312356 0.10932
H_ H_ 0.614552 0.694354 0.36836 0.10932
H_ H_ 0.872442 0.812378 0.344819 0.10932
H_ H_ 0.630275 0.820765 0.359081 0.10932
H_ H_ 0.882445 0.681921 0.337256 0.10932
H_ H_ 0.632256 0.826133 0.4325 0.10932
H_ H_ 0.882428 0.678915 0.421034 0.10932
H_ H_ 0.616292 0.697578 0.445036 0.10932
H_ H_ 0.877475 0.811231 0.422609 0.10932
H_ H_ 0.612507 0.678073 0.144052 0.10932
H_ H_ 0.843978 0.693818 0.133053 0.10932
H_ H_ 0.63305 0.805136 0.145834 0.10932
H_ H_ 0.899121 0.802856 0.121444 0.10932
H_ H_ 0.632602 0.808725 0.0717823 0.10932
H_ H_ 0.901449 0.792139 0.0465555 0.10932
H_ H_ 0.599684 0.683275 0.0686565 0.10932
H_ H_ 0.840484 0.68751 0.0553333 0.10932
C_ C_ 0.56216 0.844198 0.251895 -0.02249
C_ C_ 0.809678 0.839061 0.240387 -0.02249
C_ C_ 0.516563 0.960517 0.257938 -0.02249
C_ C_ 0.761028 0.955161 0.252116 -0.02249
C_ C_ 0.546374 0.908994 0.217657 -0.11473
C_ C_ 0.784979 0.900066 0.210096 -0.11473
C_ C_ 0.551822 0.858065 0.289976 -0.11473
C_ C_ 0.799085 0.85308 0.280493 -0.11473
C_ C_ 0.559497 0.869695 0.215128 -0.11473
C_ C_ 0.80109 0.862356 0.204423 -0.11473
C_ C_ 0.534253 0.921663 0.25713 -0.02249
C_ C_ 0.776488 0.914202 0.249656 -0.02249
C_ C_ 0.579797 0.804158 0.251636 0.6875
C_ C_ 0.831665 0.804455 0.236184 0.6875
C_ C_ 0.538293 0.89559 0.292441 -0.11473
C_ C_ 0.786108 0.891922 0.28488 -0.11473
C_ C_ 0.677833 0.841988 0.257958 -0.02249
C_ C_ 0.93061 0.850236 0.242387 -0.02249
C_ C_ 0.72912 0.956048 0.252256 -0.02249
C_ C_ 0.980263 0.963614 0.239081 -0.02249
C_ C_ 0.698484 0.904517 0.291062 -0.11473
C_ C_ 0.96463 0.898464 0.278311 -0.11473
C_ C_ 0.693074 0.854365 0.221079 -0.11473
C_ C_ 0.926422 0.879497 0.209199 -0.11473
C_ C_ 0.679462 0.869867 0.293522 -0.11473
C_ C_ 0.950414 0.859821 0.275718 -0.11473
C_ C_ 0.71276 0.915518 0.253919 -0.02249
C_ C_ 0.961978 0.92517 0.243265 -0.02249
C_ C_ 0.656013 0.805642 0.257955 0.6875
C_ C_ 0.912134 0.812816 0.240975 0.6875
C_ C_ 0.708339 0.891208 0.21873 -0.11473
C_ C_ 0.946483 0.91233 0.206704 -0.11473
C_ C_ 0.679749 0.651672 0.25726 -0.02249
C_ C_ 0.934499 0.653418 0.242068 -0.02249
C_ C_ 0.73176 0.537493 0.256888 -0.02249
C_ C_ 0.982394 0.536689 0.245513 -0.02249
C_ C_ 0.713105 0.60104 0.294787 -0.11473
C_ C_ 0.959731 0.597981 0.281853 -0.11473
C_ C_ 0.685662 0.628276 0.220207 -0.11473
C_ C_ 0.942513 0.633369 0.204016 -0.11473
C_ C_ 0.696693 0.638493 0.295436 -0.11473
C_ C_ 0.945925 0.63651 0.279437 -0.11473
C_ C_ 0.715495 0.578607 0.257099 -0.02249
C_ C_ 0.967133 0.57773 0.244465 -0.02249
C_ C_ 0.659966 0.688162 0.254992 0.6875
C_ C_ 0.915637 0.690541 0.238444 0.6875
C_ C_ 0.704677 0.59431 0.219658 -0.11473
C_ C_ 0.960754 0.598842 0.204839 -0.11473
C_ C_ 0.565397 0.640148 0.249023 -0.02249
C_ C_ 0.812742 0.651643 0.2396 -0.02249
C_ C_ 0.509984 0.529223 0.248066 -0.02249
C_ C_ 0.763266 0.537543 0.252418 -0.02249
C_ C_ 0.53579 0.58717 0.209825 -0.11473
C_ C_ 0.792362 0.589704 0.20744 -0.11473
C_ C_ 0.551824 0.626519 0.284931 -0.11473
C_ C_ 0.802777 0.637254 0.278189 -0.11473
C_ C_ 0.556773 0.620593 0.21072 -0.11473
C_ C_ 0.807733 0.628532 0.203049 -0.11473
C_ C_ 0.526349 0.570335 0.247028 -0.02249
C_ C_ 0.778659 0.578344 0.246614 -0.02249
C_ C_ 0.582279 0.679461 0.251099 0.6875
C_ C_ 0.834547 0.68838 0.240174 0.6875
C_ C_ 0.534593 0.590581 0.286244 -0.11473
C_ C_ 0.786417 0.60245 0.281419 -0.11473
C_ C_ 0.615182 0.722447 0.382703 0.17695
C_ C_ 0.8755 0.783479 0.361593 0.17695
C_ C_ 0.624508 0.793351 0.376557 0.17695
C_ C_ 0.880964 0.710243 0.358181 0.17695
C_ C_ 0.626104 0.797468 0.419869 -0.11473
C_ C_ 0.882718 0.70863 0.40357 -0.11473
C_ C_ 0.621081 0.763298 0.445984 0.23465
C_ C_ 0.878218 0.743861 0.427303 0.23465
C_ C_ 0.614195 0.72472 0.426774 -0.11473
C_ C_ 0.876534 0.78197 0.406028 -0.11473
C_ C_ 0.615461 0.706253 0.127107 0.17695
C_ C_ 0.85516 0.716668 0.112636 0.17695
C_ C_ 0.627138 0.77867 0.128068 0.17695
C_ C_ 0.885902 0.777651 0.107181 0.17695
C_ C_ 0.624988 0.780122 0.0840056 -0.11473
C_ C_ 0.886179 0.772589 0.0647142 -0.11473
C_ C_ 0.61547 0.745512 0.0613407 0.23465
C_ C_ 0.869151 0.741077 0.044018 0.23465
C_ C_ 0.610181 0.708327 0.0846279 -0.11473
C_ C_ 0.854872 0.712342 0.0686466 -0.11473
C_ C_ 0.532313 0.999219487 0.260519 0.05793
C_ C_ 0.777162 0.992931 0.251997 0.05793
C_ C_ 0.717844 0.498829 0.266634 0.05793
C_ C_ 0.96523 0.50078 0.25226 0.05793
Br Br 0.573453 1.00226998 0.28097 -0.17191
Br Br 0.819372 0.992591 0.247172 -0.17191
Br Br 0.67708 0.497459 0.287656 -0.17191
Br Br 0.923783 0.505813 0.268171 -0.17191
N_ N_ 0.617505 0.756979 0.358242 -0.272
N_ N_ 0.876906 0.748092 0.339061 -0.272
N_ N_ 0.627294 0.769176 0.490814 -0.12501
N_ N_ 0.884714 0.744768 0.47154 -0.12501
N_ N_ 0.620332 0.743227 0.148478 -0.272
N_ N_ 0.870503 0.749712 0.131953 -0.272
N_ N_ 0.612567 0.745554 0.0164746 -0.12501
N_ N_ 0.865069 0.738548 -0.0019259999999999833 -0.12501
O_ O_ 0.589382 0.791231 0.216766 -0.60745
O_ O_ 0.843175 0.793712 0.201214 -0.60745
O_ O_ 0.584324 0.783171 0.285526 -0.60745
O_ O_ 0.838957 0.784526 0.267748 -0.60745
O_ O_ 0.644053 0.791802 0.290485 -0.60745
O_ O_ 0.902679 0.798171 0.275052 -0.60745
O_ O_ 0.6527 0.78589 0.224108 -0.60745
O_ O_ 0.90474 0.792418 0.207289 -0.60745
O_ O_ 0.652223 0.705628 0.289024 -0.60745
O_ O_ 0.913019 0.715898 0.269399 -0.60745
O_ O_ 0.647625 0.699924 0.220939 -0.60745
O_ O_ 0.900913 0.698607 0.204941 -0.60745
O_ O_ 0.586582 0.700389 0.217596 -0.60745
O_ O_ 0.841921 0.707364 0.205084 -0.60745
O_ O_ 0.58816 0.696866 0.287364 -0.60745
O_ O_ 0.848883 0.700302 0.273995 -0.60745
Zn Zn 0.627017 0.754379 0.78425 0.9476
Zn Zn 0.881038 0.754631 0.76984 0.9476
Zn Zn 0.623852 0.753707 0.718146 0.9476
Zn Zn 0.879193 0.752567 0.70065 0.9476
H_ H_ 0.535391 0.924058 0.692096 0.10932
H_ H_ 0.785859 0.912947 0.663741 0.10932
H_ H_ 0.556163 0.846218 0.82073 0.10932
H_ H_ 0.828662 0.865313 0.796269 0.10932
H_ H_ 0.563941 0.860998 0.689768 0.10932
H_ H_ 0.81216 0.846838 0.663015 0.10932
H_ H_ 0.528952 0.917069 0.824938 0.10932
H_ H_ 0.801969 0.929181 0.796992 0.10932
H_ H_ 0.732048 0.913393 0.807953 0.10932
H_ H_ 0.974625 0.919436 0.801419 0.10932
H_ H_ 0.681981 0.855586 0.679757 0.10932
H_ H_ 0.942477 0.857465 0.668788 0.10932
H_ H_ 0.7007 0.849503 0.812025 0.10932
H_ H_ 0.945485 0.851084 0.804105 0.10932
H_ H_ 0.712911 0.919111 0.677374 0.10932
H_ H_ 0.972946 0.91639 0.66724 0.10932
H_ H_ 0.719814 0.587901 0.820347 0.10932
H_ H_ 0.948758 0.575584 0.815909 0.10932
H_ H_ 0.68465 0.64552 0.687052 0.10932
H_ H_ 0.947703 0.652019 0.678884 0.10932
H_ H_ 0.676289 0.64253 0.821782 0.10932
H_ H_ 0.925329 0.641969 0.809345 0.10932
H_ H_ 0.713352 0.581741 0.685611 0.10932
H_ H_ 0.975953 0.584154 0.684371 0.10932
H_ H_ 0.53354 0.584588 0.692853 0.10932
H_ H_ 0.78106 0.592714 0.677669 0.10932
H_ H_ 0.571684 0.649227 0.825719 0.10932
H_ H_ 0.833571 0.636405 0.804468 0.10932
H_ H_ 0.557558 0.658461 0.692783 0.10932
H_ H_ 0.805351 0.658943 0.676106 0.10932
H_ H_ 0.534001 0.587241 0.828401 0.10932
H_ H_ 0.79423 0.580815 0.8085 0.10932
H_ H_ 0.611999 0.696144 0.867183 0.10932
H_ H_ 0.88193 0.691873 0.845626 0.10932
H_ H_ 0.646882 0.817854 0.859313 0.10932
H_ H_ 0.874352 0.817918 0.844276 0.10932
H_ H_ 0.638866 0.826282 0.937904 0.10932
H_ H_ 0.876507 0.823852 0.920905 0.10932
H_ H_ 0.615745 0.700614 0.945337 0.10932
H_ H_ 0.882598 0.687512 0.922186 0.10932
H_ H_ 0.626622 0.690225 0.64709 0.10932
H_ H_ 0.886771 0.817826 0.631115 0.10932
H_ H_ 0.625879 0.819261 0.641792 0.10932
H_ H_ 0.880475 0.686616 0.620405 0.10932
H_ H_ 0.62143 0.819315 0.56247 0.10932
H_ H_ 0.874633 0.693482 0.543475 0.10932
H_ H_ 0.62699 0.687364 0.568189 0.10932
H_ H_ 0.875935 0.827189 0.55599 0.10932
C_ C_ 0.562959 0.849522 0.75569 -0.02249
C_ C_ 0.819255 0.846997 0.73102 -0.02249
C_ C_ 0.514674 0.963709 0.757492 -0.02249
C_ C_ 0.770723 0.963891 0.731324 -0.02249
C_ C_ 0.541868 0.909652 0.720807 -0.11473
C_ C_ 0.790699 0.900345 0.694263 -0.11473
C_ C_ 0.555159 0.866354 0.794507 -0.11473
C_ C_ 0.816838 0.871309 0.76782 -0.11473
C_ C_ 0.556929 0.872645 0.718961 -0.11473
C_ C_ 0.806895 0.862252 0.692694 -0.11473
C_ C_ 0.532715 0.925298 0.758926 -0.02249
C_ C_ 0.788286 0.925367 0.730569 -0.02249
C_ C_ 0.584363 0.811708 0.75445 0.6875
C_ C_ 0.837684 0.808673 0.732478 0.6875
C_ C_ 0.538279 0.903474 0.795837 -0.11473
C_ C_ 0.801874 0.908878 0.766871 -0.11473
C_ C_ 0.691887 0.843855 0.745188 -0.02249
C_ C_ 0.938156 0.8524 0.736107 -0.02249
C_ C_ 0.739999 0.961784 0.738331 -0.02249
C_ C_ 0.990397 0.96846 0.739287 -0.02249
C_ C_ 0.720262 0.900886 0.779695 -0.11473
C_ C_ 0.966809 0.905567 0.773281 -0.11473
C_ C_ 0.697914 0.863093 0.706257 -0.11473
C_ C_ 0.947833 0.870482 0.698781 -0.11473
C_ C_ 0.703696 0.862788 0.781896 -0.11473
C_ C_ 0.95189 0.866093 0.773682 -0.11473
C_ C_ 0.724729 0.920582 0.741205 -0.02249
C_ C_ 0.974151 0.926874 0.736143 -0.02249
C_ C_ 0.669468 0.810091 0.747376 0.6875
C_ C_ 0.917026 0.816089 0.736391 0.6875
C_ C_ 0.71256 0.901794 0.705106 -0.11473
C_ C_ 0.966817 0.904941 0.699173 -0.11473
C_ C_ 0.682295 0.656171 0.754297 -0.02249
C_ C_ 0.93498 0.652804 0.743765 -0.02249
C_ C_ 0.735621 0.54094 0.752198 -0.02249
C_ C_ 0.983494 0.537452 0.754067 -0.02249
C_ C_ 0.711086 0.600327 0.791114 -0.11473
C_ C_ 0.94908 0.59302 0.786688 -0.11473
C_ C_ 0.690829 0.634571 0.716584 -0.11473
C_ C_ 0.947473 0.635065 0.707864 -0.11473
C_ C_ 0.68968 0.63468 0.793048 -0.11473
C_ C_ 0.934575 0.629861 0.782293 -0.11473
C_ C_ 0.718427 0.581187 0.753616 -0.02249
C_ C_ 0.965496 0.576921 0.751109 -0.02249
C_ C_ 0.66475 0.697281 0.753993 0.6875
C_ C_ 0.91679 0.691114 0.738971 0.6875
C_ C_ 0.708125 0.599252 0.716229 -0.11473
C_ C_ 0.965546 0.598575 0.711771 -0.11473
C_ C_ 0.566492 0.658075 0.758524 -0.02249
C_ C_ 0.822345 0.655062 0.740188 -0.02249
C_ C_ 0.515078 0.542483 0.76139 -0.02249
C_ C_ 0.767494 0.54207 0.743267 -0.02249
C_ C_ 0.539246 0.603019 0.722182 -0.11473
C_ C_ 0.790326 0.602664 0.706237 -0.11473
C_ C_ 0.561178 0.637802 0.797943 -0.11473
C_ C_ 0.818611 0.630893 0.77689 -0.11473
C_ C_ 0.554096 0.641974 0.721019 -0.11473
C_ C_ 0.807658 0.64027 0.704487 -0.11473
C_ C_ 0.530929 0.58507 0.761015 -0.02249
C_ C_ 0.784661 0.581807 0.743331 -0.02249
C_ C_ 0.584197 0.695954 0.756256 0.6875
C_ C_ 0.840255 0.693775 0.738974 0.6875
C_ C_ 0.541645 0.601596 0.798912 -0.11473
C_ C_ 0.796813 0.598427 0.779907 -0.11473
C_ C_ 0.618611 0.724579 0.882973 0.17695
C_ C_ 0.878594 0.719605 0.86214 0.17695
C_ C_ 0.639117 0.791844 0.878429 0.17695
C_ C_ 0.874839 0.790973 0.862692 0.17695
C_ C_ 0.636492 0.796567 0.922139 -0.11473
C_ C_ 0.87677 0.792642 0.905823 -0.11473
C_ C_ 0.627225 0.763769 0.947663 0.23465
C_ C_ 0.879206 0.75518 0.928969 0.23465
C_ C_ 0.620717 0.726469 0.927398 -0.11473
C_ C_ 0.879884 0.718526 0.907049 -0.11473
C_ C_ 0.62543 0.719071 0.629201 0.17695
C_ C_ 0.880604 0.789823 0.612595 0.17695
C_ C_ 0.619275 0.791219 0.625665 0.17695
C_ C_ 0.879036 0.716021 0.605937 0.17695
C_ C_ 0.620377 0.790046 0.581855 -0.11473
C_ C_ 0.87621 0.720059 0.562168 -0.11473
C_ C_ 0.622321 0.752418 0.560948 0.23465
C_ C_ 0.876531 0.759646 0.543253 0.23465
C_ C_ 0.628438 0.71691 0.584468 -0.11473
C_ C_ 0.875153 0.795203 0.569329 -0.11473
C_ C_ 0.529013 0.00240347 0.759468 0.05793
C_ C_ 0.78585 0.00207194 0.734687 0.05793
C_ C_ 0.719911 0.501892 0.75461 0.05793
C_ C_ 0.968174 0.49939 0.748583 0.05793
Br Br 0.572358 0.0037445 0.777359 -0.17191
Br Br 0.827806 1.00718602 0.729547 -0.17191
Br Br 0.677465 0.503567 0.761023 -0.17191
Br Br 0.925164 0.49426 0.737003 -0.17191
N_ N_ 0.62875 0.757071 0.859014 -0.272
N_ N_ 0.876902 0.755495 0.841322 -0.272
N_ N_ 0.625599 0.77057 0.992261 -0.12501
N_ N_ 0.882611 0.756422 0.973587 -0.12501
N_ N_ 0.622586 0.755762 0.648337 -0.272
N_ N_ 0.878477 0.750946 0.631467 -0.272
N_ N_ 0.61331 0.749208 0.518214 -0.12501
N_ N_ 0.869268 0.762473 0.498579 -0.12501
O_ O_ 0.596169 0.800213 0.719858 -0.60745
O_ O_ 0.84928 0.796217 0.699855 -0.60745
O_ O_ 0.594804 0.797609 0.789207 -0.60745
O_ O_ 0.848113 0.795722 0.765225 -0.60745
O_ O_ 0.657253 0.802761 0.781667 -0.60745
O_ O_ 0.91006 0.798841 0.770782 -0.60745
O_ O_ 0.658818 0.792271 0.714345 -0.60745
O_ O_ 0.908073 0.800095 0.701795 -0.60745
O_ O_ 0.657411 0.714411 0.787415 -0.60745
O_ O_ 0.911793 0.713314 0.771892 -0.60745
O_ O_ 0.654091 0.710161 0.718706 -0.60745
O_ O_ 0.909376 0.705636 0.703118 -0.60745
O_ O_ 0.589965 0.711826 0.722385 -0.60745
O_ O_ 0.846725 0.712611 0.704997 -0.60745
O_ O_ 0.596916 0.710535 0.787489 -0.60745
O_ O_ 0.851257 0.706851 0.772663 -0.60745
