_cell_length_a 44.444
_cell_length_b 32.3360000049186
_cell_length_c 31.843999878906452
_cell_angle_alpha 89.99799923859553
_cell_angle_beta 91.13600050494348
_cell_angle_gamma 89.9990006550086
_symmetry_space_group_name_H-M         'P 1'
_symmetry_Int_Tables_number            1
loop_
_symmetry_equiv_pos_as_xyz
   'x, y, z'
                         
loop_
_atom_site_label
_atom_site_type_symbol
_atom_site_fract_x 
_atom_site_fract_y
_atom_site_fract_z
_atom_site_charge
Zn Zn 0.121049 0.25054 0.283769 0.9476
Zn Zn 0.377077 0.254787 0.286664 0.9476
Zn Zn 0.123235 0.251975 0.21383 0.9476
Zn Zn 0.374628 0.252777 0.217598 0.9476
H_ H_ 0.0238354 0.410677 0.180164 0.10932
H_ H_ 0.287307 0.419854 0.175313 0.10932
H_ H_ 0.0674105 0.363018 0.314785 0.10932
H_ H_ 0.306198 0.345999 0.310413 0.10932
H_ H_ 0.0554245 0.346839 0.181716 0.10932
H_ H_ 0.318405 0.357186 0.180725 0.10932
H_ H_ 0.0407463 0.425947 0.314413 0.10932
H_ H_ 0.27459 0.4113 0.310534 0.10932
H_ H_ 0.208766 0.425303 0.318351 0.10932
H_ H_ 0.473282 0.411054 0.32151 0.10932
H_ H_ 0.198803 0.339193 0.190748 0.10932
H_ H_ 0.432815 0.36071 0.187186 0.10932
H_ H_ 0.179895 0.362306 0.321822 0.10932
H_ H_ 0.436961 0.354137 0.322942 0.10932
H_ H_ 0.221876 0.412319 0.188073 0.10932
H_ H_ 0.45659 0.428883 0.191438 0.10932
H_ H_ 0.21949 0.0900272 0.318606 0.10932
H_ H_ 0.477014 0.0892208 0.321274 0.10932
H_ H_ 0.193632 0.155162 0.183721 0.10932
H_ H_ 0.424288 0.139211 0.189545 0.10932
H_ H_ 0.191894 0.155594 0.316309 0.10932
H_ H_ 0.447828 0.157413 0.321857 0.10932
H_ H_ 0.216148 0.0870089 0.184626 0.10932
H_ H_ 0.447973 0.0692458 0.193293 0.10932
H_ H_ 0.0469697 0.064663 0.192439 0.10932
H_ H_ 0.27873 0.0913008 0.186237 0.10932
H_ H_ 0.0426551 0.165969 0.308993 0.10932
H_ H_ 0.319591 0.150947 0.316214 0.10932
H_ H_ 0.0763436 0.127504 0.18699 0.10932
H_ H_ 0.315175 0.148856 0.180616 0.10932
H_ H_ 0.0195689 0.0987388 0.316833 0.10932
H_ H_ 0.289849 0.0873682 0.319336 0.10932
H_ H_ 0.121309 0.182843 0.354475 0.10932
H_ H_ 0.390429 0.312392 0.36014 0.10932
H_ H_ 0.109619 0.313465 0.363973 0.10932
H_ H_ 0.35803 0.189129 0.351824 0.10932
H_ H_ 0.112963 0.311693 0.440194 0.10932
H_ H_ 0.351679 0.186741 0.432868 0.10932
H_ H_ 0.128253 0.183276 0.434439 0.10932
H_ H_ 0.388558 0.310886 0.43576 0.10932
H_ H_ 0.140921 0.315013 0.143229 0.10932
H_ H_ 0.385013 0.183511 0.146397 0.10932
H_ H_ 0.113745 0.192232 0.139365 0.10932
H_ H_ 0.366205 0.309428 0.135162 0.10932
H_ H_ 0.112518 0.190734 0.0611571 0.10932
H_ H_ 0.358446 0.299958 0.056307 0.10932
H_ H_ 0.138226 0.321262 0.0602139 0.10932
H_ H_ 0.386128 0.177154 0.0721163 0.10932
C_ C_ 0.066308 0.352017 0.247702 -0.02249
C_ C_ 0.312603 0.345896 0.24423 -0.02249
C_ C_ 0.0145111 0.464312 0.244495 -0.02249
C_ C_ 0.264945 0.462792 0.244611 -0.02249
C_ C_ 0.0342809 0.401291 0.209033 -0.11473
C_ C_ 0.292698 0.405907 0.206421 -0.11473
C_ C_ 0.0605584 0.373961 0.284958 -0.11473
C_ C_ 0.301489 0.363189 0.280218 -0.11473
C_ C_ 0.052008 0.364719 0.210039 -0.11473
C_ C_ 0.307306 0.366696 0.207399 -0.11473
C_ C_ 0.0312717 0.423493 0.24787 -0.02249
C_ C_ 0.280551 0.42239 0.244645 -0.02249
C_ C_ 0.0841606 0.311936 0.247498 0.6875
C_ C_ 0.333192 0.310491 0.245285 0.6875
C_ C_ 0.0455374 0.411196 0.284887 -0.11473
C_ C_ 0.283943 0.399251 0.280425 -0.11473
C_ C_ 0.183927 0.346303 0.253643 -0.02249
C_ C_ 0.430343 0.351811 0.254757 -0.02249
C_ C_ 0.234465 0.462953 0.252102 -0.02249
C_ C_ 0.484124 0.465308 0.258203 -0.02249
C_ C_ 0.206859 0.405942 0.290756 -0.11473
C_ C_ 0.464252 0.400505 0.292123 -0.11473
C_ C_ 0.198479 0.359561 0.217448 -0.11473
C_ C_ 0.436895 0.37358 0.218377 -0.11473
C_ C_ 0.189374 0.37041 0.290604 -0.11473
C_ C_ 0.442433 0.366924 0.292943 -0.11473
C_ C_ 0.217013 0.422387 0.253755 -0.02249
C_ C_ 0.466743 0.424231 0.256844 -0.02249
C_ C_ 0.1625 0.310691 0.251197 0.6875
C_ C_ 0.41391 0.310697 0.253993 0.6875
C_ C_ 0.214937 0.397835 0.216262 -0.11473
C_ C_ 0.455659 0.408735 0.219176 -0.11473
C_ C_ 0.18542 0.15676 0.249761 -0.02249
C_ C_ 0.432873 0.153628 0.255691 -0.02249
C_ C_ 0.23498 0.03899 0.249988 -0.02249
C_ C_ 0.481225 0.0358584 0.258499 -0.02249
C_ C_ 0.21022 0.0995121 0.288074 -0.11473
C_ C_ 0.462876 0.101093 0.293822 -0.11473
C_ C_ 0.195425 0.13962 0.211952 -0.11473
C_ C_ 0.435604 0.129186 0.21878 -0.11473
C_ C_ 0.196166 0.138971 0.287275 -0.11473
C_ C_ 0.446335 0.138688 0.293768 -0.11473
C_ C_ 0.215154 0.0784466 0.249769 -0.02249
C_ C_ 0.463799 0.0763099 0.257952 -0.02249
C_ C_ 0.163151 0.192202 0.249518 0.6875
C_ C_ 0.413495 0.191525 0.256355 0.6875
C_ C_ 0.20782 0.099235 0.212358 -0.11473
C_ C_ 0.449634 0.0895762 0.220492 -0.11473
C_ C_ 0.0638364 0.152001 0.248156 -0.02249
C_ C_ 0.318708 0.156355 0.249344 -0.02249
C_ C_ 0.016404 0.0364801 0.26143 -0.02249
C_ C_ 0.266307 0.0406458 0.253342 -0.02249
C_ C_ 0.0467927 0.0855301 0.218438 -0.11473
C_ C_ 0.288355 0.104174 0.214584 -0.11473
C_ C_ 0.0465972 0.142498 0.284533 -0.11473
C_ C_ 0.309443 0.13713 0.287114 -0.11473
C_ C_ 0.0626342 0.124011 0.214845 -0.11473
C_ C_ 0.30686 0.138892 0.211605 -0.11473
C_ C_ 0.0331641 0.0754677 0.256741 -0.02249
C_ C_ 0.284357 0.0818912 0.252169 -0.02249
C_ C_ 0.0802618 0.192328 0.247611 0.6875
C_ C_ 0.336154 0.19523 0.247491 0.6875
C_ C_ 0.0333288 0.103883 0.290543 -0.11473
C_ C_ 0.295982 0.0986568 0.290013 -0.11473
C_ C_ 0.117619 0.211429 0.373616 0.17695
C_ C_ 0.386042 0.282424 0.376679 0.17695
C_ C_ 0.115202 0.284247 0.378266 0.17695
C_ C_ 0.364505 0.214397 0.372465 0.17695
C_ C_ 0.118718 0.283595 0.422438 -0.11473
C_ C_ 0.362155 0.212869 0.41544 -0.11473
C_ C_ 0.12439 0.246483 0.443384 0.23465
C_ C_ 0.375504 0.245003 0.439861 0.23465
C_ C_ 0.125369 0.211281 0.417218 -0.11473
C_ C_ 0.386055 0.281584 0.419639 -0.11473
C_ C_ 0.136662 0.288042 0.123213 0.17695
C_ C_ 0.385174 0.21182 0.128555 0.17695
C_ C_ 0.121521 0.217714 0.121731 0.17695
C_ C_ 0.372925 0.281775 0.119682 0.17695
C_ C_ 0.11924 0.218076 0.0779545 -0.11473
C_ C_ 0.373721 0.278486 0.0741493 -0.11473
C_ C_ 0.126981 0.252589 0.0561144 0.23465
C_ C_ 0.379891 0.240585 0.0551644 0.23465
C_ C_ 0.134243 0.290452 0.077171 -0.11473
C_ C_ 0.385372 0.206834 0.083733 -0.11473
C_ C_ 0.0316839 0.501132 0.24238 0.05793
C_ C_ 0.281213 0.501509 0.242464 0.05793
C_ C_ 0.220748 -0.000224242 0.251022 0.05793
C_ C_ 0.465517 0.998021 0.263054 0.05793
Br Br 0.0737758 0.498387 0.248672 -0.17191
Br Br 0.323451 0.499859 0.229475 -0.17191
Br Br 0.176135 -0.003502000000000005 0.253461 -0.17191
Br Br 0.42209 0.999691 0.275615 -0.17191
N_ N_ 0.115408 0.249455 0.353687 -0.272
N_ N_ 0.37727 0.248937 0.3539 -0.272
N_ N_ 0.126256 0.243226 0.488133 -0.12501
N_ N_ 0.38094 0.238481 0.483957 -0.12501
N_ N_ 0.128629 0.252691 0.142344 -0.272
N_ N_ 0.378815 0.249127 0.145359 -0.272
N_ N_ 0.11886 0.253822 0.0126166 -0.12501
N_ N_ 0.383064 0.235561 0.011177 -0.12501
O_ O_ 0.0938168 0.297916 0.211707 -0.60745
O_ O_ 0.341663 0.294048 0.211372 -0.60745
O_ O_ 0.0921183 0.295749 0.282829 -0.60745
O_ O_ 0.348579 0.302159 0.279851 -0.60745
O_ O_ 0.156068 0.292634 0.285735 -0.60745
O_ O_ 0.411386 0.292161 0.288382 -0.60745
O_ O_ 0.155429 0.295867 0.215258 -0.60745
O_ O_ 0.40718 0.292817 0.220438 -0.60745
O_ O_ 0.149208 0.202411 0.282127 -0.60745
O_ O_ 0.406333 0.20935 0.29006 -0.60745
O_ O_ 0.156645 0.209887 0.215304 -0.60745
O_ O_ 0.404065 0.207264 0.221872 -0.60745
O_ O_ 0.0904523 0.206298 0.215276 -0.60745
O_ O_ 0.345076 0.208066 0.212028 -0.60745
O_ O_ 0.0883572 0.208653 0.281768 -0.60745
O_ O_ 0.3416 0.216333 0.281066 -0.60745
Zn Zn 0.127293 0.246235 0.784774 0.9476
Zn Zn 0.376437 0.253416 0.78265 0.9476
Zn Zn 0.121246 0.247038 0.715776 0.9476
Zn Zn 0.375778 0.251283 0.714118 0.9476
H_ H_ 0.013894 0.394945 0.691596 0.10932
H_ H_ 0.277989 0.411451 0.679203 0.10932
H_ H_ 0.0833568 0.36766 0.81188 0.10932
H_ H_ 0.293932 0.337965 0.813386 0.10932
H_ H_ 0.0379577 0.328802 0.698641 0.10932
H_ H_ 0.302373 0.343486 0.680076 0.10932
H_ H_ 0.0588449 0.435658 0.805903 0.10932
H_ H_ 0.278273 0.411249 0.813147 0.10932
H_ H_ 0.211898 0.421221 0.812412 0.10932
H_ H_ 0.481763 0.406964 0.812926 0.10932
H_ H_ 0.177595 0.349217 0.683197 0.10932
H_ H_ 0.416084 0.373588 0.688753 0.10932
H_ H_ 0.17748 0.35745 0.814269 0.10932
H_ H_ 0.456831 0.336366 0.808575 0.10932
H_ H_ 0.215211 0.413345 0.681575 0.10932
H_ H_ 0.446297 0.438431 0.690017 0.10932
H_ H_ 0.223279 0.0798771 0.813725 0.10932
H_ H_ 0.469735 0.0866561 0.818864 0.10932
H_ H_ 0.181945 0.14419 0.683881 0.10932
H_ H_ 0.441529 0.155088 0.681756 0.10932
H_ H_ 0.193288 0.143536 0.821669 0.10932
H_ H_ 0.444417 0.158012 0.815148 0.10932
H_ H_ 0.213523 0.0830564 0.68134 0.10932
H_ H_ 0.466736 0.0865838 0.682998 0.10932
H_ H_ 0.0370429 0.0723122 0.682506 0.10932
H_ H_ 0.277523 0.0875522 0.684181 0.10932
H_ H_ 0.0615144 0.147263 0.812302 0.10932
H_ H_ 0.336876 0.130048 0.810489 0.10932
H_ H_ 0.065403 0.14007 0.678773 0.10932
H_ H_ 0.308305 0.153475 0.680815 0.10932
H_ H_ 0.0243407 0.0881838 0.814186 0.10932
H_ H_ 0.307232 0.0650863 0.809745 0.10932
H_ H_ 0.136361 0.307771 0.855263 0.10932
H_ H_ 0.333088 0.212911 0.854061 0.10932
H_ H_ 0.114307 0.181417 0.860108 0.10932
H_ H_ 0.407549 0.289681 0.854965 0.10932
H_ H_ 0.117855 0.183703 0.938355 0.10932
H_ H_ 0.410008 0.290167 0.933922 0.10932
H_ H_ 0.142351 0.311902 0.933216 0.10932
H_ H_ 0.332105 0.213182 0.929819 0.10932
H_ H_ 0.121521 0.187077 0.629692 0.10932
H_ H_ 0.409401 0.209827 0.637735 0.10932
H_ H_ 0.112397 0.317901 0.649484 0.10932
H_ H_ 0.353237 0.313816 0.639754 0.10932
H_ H_ 0.109434 0.325525 0.571046 0.10932
H_ H_ 0.352952 0.319539 0.566043 0.10932
H_ H_ 0.119495 0.195285 0.553827 0.10932
H_ H_ 0.407078 0.209098 0.560035 0.10932
C_ C_ 0.0688235 0.347915 0.751036 -0.02249
C_ C_ 0.306159 0.337842 0.746806 -0.02249
C_ C_ 0.0183089 0.461517 0.745303 -0.02249
C_ C_ 0.263688 0.459341 0.745356 -0.02249
C_ C_ 0.0315877 0.391452 0.716047 -0.11473
C_ C_ 0.282945 0.396785 0.708304 -0.11473
C_ C_ 0.0684345 0.375865 0.786543 -0.11473
C_ C_ 0.293918 0.355193 0.782153 -0.11473
C_ C_ 0.0459974 0.354597 0.719068 -0.11473
C_ C_ 0.298551 0.357753 0.707446 -0.11473
C_ C_ 0.0359505 0.421961 0.747072 -0.02249
C_ C_ 0.27837 0.418095 0.745498 -0.02249
C_ C_ 0.0877293 0.310926 0.749231 0.6875
C_ C_ 0.330062 0.304392 0.748707 0.6875
C_ C_ 0.0535534 0.413031 0.783296 -0.11473
C_ C_ 0.283458 0.396359 0.783266 -0.11473
C_ C_ 0.180835 0.347613 0.749267 -0.02249
C_ C_ 0.434899 0.350106 0.747589 -0.02249
C_ C_ 0.233006 0.461355 0.743948 -0.02249
C_ C_ 0.483818 0.465238 0.752086 -0.02249
C_ C_ 0.203879 0.406647 0.786224 -0.11473
C_ C_ 0.466686 0.399722 0.787037 -0.11473
C_ C_ 0.188495 0.365471 0.710153 -0.11473
C_ C_ 0.432586 0.378864 0.715103 -0.11473
C_ C_ 0.186412 0.370493 0.786226 -0.11473
C_ C_ 0.453334 0.360109 0.783692 -0.11473
C_ C_ 0.213432 0.423149 0.746964 -0.02249
C_ C_ 0.46775 0.425271 0.751768 -0.02249
C_ C_ 0.16337 0.30807 0.752323 0.6875
C_ C_ 0.413028 0.316011 0.749853 0.6875
C_ C_ 0.207514 0.400926 0.707991 -0.11473
C_ C_ 0.448089 0.416019 0.71637 -0.11473
C_ C_ 0.187135 0.149928 0.751594 -0.02249
C_ C_ 0.441952 0.161388 0.748351 -0.02249
C_ C_ 0.237968 0.0379896 0.746807 -0.02249
C_ C_ 0.484072 0.0401764 0.751725 -0.02249
C_ C_ 0.216707 0.0953057 0.786177 -0.11473
C_ C_ 0.464407 0.101864 0.789827 -0.11473
C_ C_ 0.191623 0.129561 0.71235 -0.11473
C_ C_ 0.447174 0.139989 0.710904 -0.11473
C_ C_ 0.199099 0.131818 0.788775 -0.11473
C_ C_ 0.450488 0.142697 0.78818 -0.11473
C_ C_ 0.221478 0.076576 0.747116 -0.02249
C_ C_ 0.4682 0.0811026 0.751412 -0.02249
C_ C_ 0.16517 0.186465 0.75297 0.6875
C_ C_ 0.420444 0.197442 0.74799 0.6875
C_ C_ 0.212625 0.0982308 0.710552 -0.11473
C_ C_ 0.460763 0.100225 0.713116 -0.11473
C_ C_ 0.0688199 0.14528 0.748284 -0.02249
C_ C_ 0.322851 0.147323 0.745269 -0.02249
C_ C_ 0.0142533 0.0350826 0.749816 -0.02249
C_ C_ 0.270498 0.0371256 0.752227 -0.02249
C_ C_ 0.0419938 0.0897703 0.710899 -0.11473
C_ C_ 0.287226 0.0990168 0.71252 -0.11473
C_ C_ 0.0548734 0.131962 0.784845 -0.11473
C_ C_ 0.324388 0.121173 0.781271 -0.11473
C_ C_ 0.0586238 0.127773 0.710155 -0.11473
C_ C_ 0.307875 0.133195 0.708048 -0.11473
C_ C_ 0.0297877 0.0757728 0.748492 -0.02249
C_ C_ 0.287804 0.0761126 0.749614 -0.02249
C_ C_ 0.0885904 0.18398 0.747795 0.6875
C_ C_ 0.33821 0.189866 0.744553 0.6875
C_ C_ 0.0322212 0.101858 0.783573 -0.11473
C_ C_ 0.308037 0.0851501 0.782381 -0.11473
C_ C_ 0.134353 0.280822 0.874985 0.17695
C_ C_ 0.350533 0.228405 0.87214 0.17695
C_ C_ 0.122282 0.208905 0.876166 0.17695
C_ C_ 0.392189 0.272063 0.872791 0.17695
C_ C_ 0.122314 0.211114 0.920516 -0.11473
C_ C_ 0.391742 0.274255 0.916494 -0.11473
C_ C_ 0.128773 0.247876 0.941557 0.23465
C_ C_ 0.370339 0.252498 0.938383 0.23465
C_ C_ 0.134872 0.283019 0.918423 -0.11473
C_ C_ 0.349564 0.228847 0.913987 -0.11473
C_ C_ 0.123085 0.218827 0.617873 0.17695
C_ C_ 0.395857 0.232357 0.621073 0.17695
C_ C_ 0.117934 0.290492 0.629738 0.17695
C_ C_ 0.363459 0.290207 0.62349 0.17695
C_ C_ 0.11523 0.295882 0.585674 -0.11473
C_ C_ 0.36484 0.293134 0.57962 -0.11473
C_ C_ 0.116924 0.262126 0.55833 0.23465
C_ C_ 0.378003 0.261722 0.554108 0.23465
C_ C_ 0.119508 0.223221 0.574931 -0.11473
C_ C_ 0.394872 0.231805 0.576653 -0.11473
C_ C_ 0.0337791 0.498087 0.737727 0.05793
C_ C_ 0.280665 0.497228 0.747529 0.05793
C_ C_ 0.221326 0.000736648 0.750967 0.05793
C_ C_ 0.468221 1.00156705 0.760358 0.05793
Br Br 0.0761904 0.495374 0.719404 -0.17191
Br Br 0.324363 0.497801 0.749813 -0.17191
Br Br 0.179037 0.0121049 0.758108 -0.17191
Br Br 0.423144 1.00260341 0.761961 -0.17191
N_ N_ 0.126684 0.24357 0.854714 -0.272
N_ N_ 0.370671 0.251434 0.851438 -0.272
N_ N_ 0.137711 0.248351 0.984552 -0.12501
N_ N_ 0.367085 0.255285 0.984827 -0.12501
N_ N_ 0.118722 0.250976 0.644809 -0.272
N_ N_ 0.377998 0.257995 0.643622 -0.272
N_ N_ 0.114331 0.268143 0.51353 -0.12501
N_ N_ 0.372613 0.264828 0.509088 -0.12501
O_ O_ 0.0899076 0.288914 0.715467 -0.60745
O_ O_ 0.340997 0.28987 0.715202 -0.60745
O_ O_ 0.0993327 0.296506 0.78229 -0.60745
O_ O_ 0.340263 0.289336 0.783794 -0.60745
O_ O_ 0.157865 0.293035 0.788113 -0.60745
O_ O_ 0.402575 0.303553 0.785121 -0.60745
O_ O_ 0.15264 0.291306 0.719503 -0.60745
O_ O_ 0.403923 0.299056 0.716479 -0.60745
O_ O_ 0.157059 0.198905 0.787867 -0.60745
O_ O_ 0.410383 0.211088 0.781989 -0.60745
O_ O_ 0.153596 0.201379 0.718678 -0.60745
O_ O_ 0.409719 0.211921 0.714149 -0.60745
O_ O_ 0.0885878 0.20633 0.716124 -0.60745
O_ O_ 0.348453 0.203743 0.710613 -0.60745
O_ O_ 0.097478 0.200432 0.781789 -0.60745
O_ O_ 0.348588 0.205993 0.779095 -0.60745
Zn Zn 0.128603 0.751505 0.293159 0.9476
Zn Zn 0.372176 0.750445 0.285579 0.9476
Zn Zn 0.126967 0.752498 0.223011 0.9476
Zn Zn 0.373367 0.746032 0.215666 0.9476
H_ H_ 0.0388966 0.9247 0.198189 0.10932
H_ H_ 0.288013 0.919549 0.185268 0.10932
H_ H_ 0.0525374 0.838273 0.326907 0.10932
H_ H_ 0.326215 0.862894 0.318535 0.10932
H_ H_ 0.0746874 0.863593 0.195153 0.10932
H_ H_ 0.315802 0.853919 0.185803 0.10932
H_ H_ 0.0246188 0.905616 0.327575 0.10932
H_ H_ 0.292468 0.921383 0.320281 0.10932
H_ H_ 0.239649 0.900605 0.312751 0.10932
H_ H_ 0.477469 0.904899 0.319044 0.10932
H_ H_ 0.169682 0.864705 0.191738 0.10932
H_ H_ 0.421063 0.856814 0.188263 0.10932
H_ H_ 0.208258 0.837646 0.313608 0.10932
H_ H_ 0.450468 0.834491 0.315912 0.10932
H_ H_ 0.2034 0.927759 0.188676 0.10932
H_ H_ 0.44971 0.923392 0.189814 0.10932
H_ H_ 0.205935 0.57437 0.323152 0.10932
H_ H_ 0.451609 0.573707 0.321893 0.10932
H_ H_ 0.192535 0.653563 0.193033 0.10932
H_ H_ 0.460887 0.665656 0.200284 0.10932
H_ H_ 0.179191 0.637727 0.323827 0.10932
H_ H_ 0.42474 0.637832 0.322087 0.10932
H_ H_ 0.221956 0.589237 0.191423 0.10932
H_ H_ 0.475535 0.590771 0.192834 0.10932
H_ H_ 0.0453417 0.576456 0.18507 0.10932
H_ H_ 0.285749 0.58144 0.184567 0.10932
H_ H_ 0.0520902 0.653634 0.319877 0.10932
H_ H_ 0.322174 0.641898 0.317373 0.10932
H_ H_ 0.0734338 0.647384 0.190424 0.10932
H_ H_ 0.304659 0.654075 0.183741 0.10932
H_ H_ 0.027953 0.587406 0.314937 0.10932
H_ H_ 0.288034 0.58231 0.319228 0.10932
H_ H_ 0.132132 0.812698 0.365646 0.10932
H_ H_ 0.345247 0.698269 0.358914 0.10932
H_ H_ 0.13782 0.684491 0.369562 0.10932
H_ H_ 0.399585 0.805112 0.367519 0.10932
H_ H_ 0.128635 0.684037 0.447955 0.10932
H_ H_ 0.401397 0.799175 0.442259 0.10932
H_ H_ 0.12614 0.815666 0.442781 0.10932
H_ H_ 0.352304 0.683996 0.437201 0.10932
H_ H_ 0.12897 0.68849 0.154197 0.10932
H_ H_ 0.351505 0.805993 0.145161 0.10932
H_ H_ 0.113822 0.816315 0.143703 0.10932
H_ H_ 0.398291 0.693571 0.141332 0.10932
H_ H_ 0.11751 0.81207 0.0635251 0.10932
H_ H_ 0.399705 0.697518 0.0638227 0.10932
H_ H_ 0.127125 0.679099 0.0803916 0.10932
H_ H_ 0.351533 0.811488 0.0648442 0.10932
C_ C_ 0.0656932 0.847168 0.259876 -0.02249
C_ C_ 0.322119 0.851389 0.253689 -0.02249
C_ C_ 0.0139762 0.960676 0.265337 -0.02249
C_ C_ 0.269312 0.964938 0.254256 -0.02249
C_ C_ 0.0441995 0.907184 0.225723 -0.11473
C_ C_ 0.292989 0.905011 0.214487 -0.11473
C_ C_ 0.0538371 0.860525 0.299162 -0.11473
C_ C_ 0.315428 0.872344 0.290277 -0.11473
C_ C_ 0.0624652 0.87329 0.223172 -0.11473
C_ C_ 0.310942 0.869439 0.214614 -0.11473
C_ C_ 0.0313873 0.921408 0.263838 -0.02249
C_ C_ 0.287522 0.925525 0.252292 -0.02249
C_ C_ 0.0869566 0.813439 0.260283 0.6875
C_ C_ 0.33464 0.809601 0.252214 0.6875
C_ C_ 0.0360981 0.897932 0.30018 -0.11473
C_ C_ 0.297735 0.908477 0.290722 -0.11473
C_ C_ 0.186958 0.84866 0.254094 -0.02249
C_ C_ 0.434005 0.843423 0.252341 -0.02249
C_ C_ 0.238327 0.962197 0.249191 -0.02249
C_ C_ 0.480275 0.96089 0.252878 -0.02249
C_ C_ 0.225782 0.892994 0.283768 -0.11473
C_ C_ 0.465538 0.892946 0.291696 -0.11473
C_ C_ 0.186591 0.872354 0.217591 -0.11473
C_ C_ 0.431727 0.869191 0.217399 -0.11473
C_ C_ 0.207899 0.855797 0.286403 -0.11473
C_ C_ 0.45263 0.853667 0.287819 -0.11473
C_ C_ 0.22235 0.920325 0.249557 -0.02249
C_ C_ 0.462569 0.920579 0.255339 -0.02249
C_ C_ 0.166251 0.812264 0.257625 0.6875
C_ C_ 0.414446 0.805386 0.251135 0.6875
C_ C_ 0.203768 0.907872 0.216048 -0.11473
C_ C_ 0.447739 0.906391 0.218181 -0.11473
C_ C_ 0.184716 0.652452 0.25896 -0.02249
C_ C_ 0.434281 0.654872 0.257016 -0.02249
C_ C_ 0.234085 0.538577 0.255929 -0.02249
C_ C_ 0.484887 0.54131 0.257353 -0.02249
C_ C_ 0.204566 0.592401 0.295341 -0.11473
C_ C_ 0.450596 0.591187 0.29386 -0.11473
C_ C_ 0.194564 0.63566 0.220999 -0.11473
C_ C_ 0.45325 0.643202 0.22221 -0.11473
C_ C_ 0.186449 0.627769 0.293849 -0.11473
C_ C_ 0.433901 0.626666 0.292318 -0.11473
C_ C_ 0.216845 0.577221 0.258603 -0.02249
C_ C_ 0.468382 0.579741 0.258958 -0.02249
C_ C_ 0.167176 0.690701 0.259057 0.6875
C_ C_ 0.411585 0.688402 0.253541 0.6875
C_ C_ 0.211903 0.599561 0.220171 -0.11473
C_ C_ 0.468639 0.604952 0.222857 -0.11473
C_ C_ 0.0704371 0.651483 0.257018 -0.02249
C_ C_ 0.313911 0.653029 0.251116 -0.02249
C_ C_ 0.0173452 0.539213 0.247897 -0.02249
C_ C_ 0.265976 0.538469 0.246402 -0.02249
C_ C_ 0.0505517 0.593084 0.214094 -0.11473
C_ C_ 0.288529 0.59835 0.212527 -0.11473
C_ C_ 0.0538571 0.637168 0.291084 -0.11473
C_ C_ 0.311417 0.631625 0.288494 -0.11473
C_ C_ 0.0654964 0.633127 0.217328 -0.11473
C_ C_ 0.304639 0.636201 0.212813 -0.11473
C_ C_ 0.0354393 0.578966 0.249502 -0.02249
C_ C_ 0.283901 0.577473 0.24915 -0.02249
C_ C_ 0.0866638 0.691349 0.258975 0.6875
C_ C_ 0.331443 0.692283 0.25268 0.6875
C_ C_ 0.0390584 0.598743 0.288154 -0.11473
C_ C_ 0.294202 0.594393 0.288444 -0.11473
C_ C_ 0.129647 0.784834 0.384099 0.17695
C_ C_ 0.360842 0.714614 0.376752 0.17695
C_ C_ 0.130833 0.712175 0.385721 0.17695
C_ C_ 0.389093 0.777567 0.381877 0.17695
C_ C_ 0.130314 0.711708 0.429178 -0.11473
C_ C_ 0.389536 0.774804 0.425648 -0.11473
C_ C_ 0.133306 0.749376 0.4497 0.23465
C_ C_ 0.378158 0.739774 0.446413 0.23465
C_ C_ 0.130196 0.786368 0.427075 -0.11473
C_ C_ 0.363632 0.709165 0.422235 -0.11473
C_ C_ 0.123916 0.714731 0.135791 0.17695
C_ C_ 0.360504 0.780564 0.124466 0.17695
C_ C_ 0.119107 0.786824 0.127609 0.17695
C_ C_ 0.387172 0.718617 0.12368 0.17695
C_ C_ 0.11857 0.783875 0.0830292 -0.11473
C_ C_ 0.386551 0.72046 0.0785931 -0.11473
C_ C_ 0.120835 0.744234 0.0647793 0.23465
C_ C_ 0.372075 0.752945 0.0568734 0.23465
C_ C_ 0.125289 0.710184 0.0911826 -0.11473
C_ C_ 0.360528 0.784236 0.0811204 -0.11473
C_ C_ 0.0297746 0.998216 0.274374 0.05793
C_ C_ 0.284006 1.00325131 0.253011 0.05793
C_ C_ 0.217821 0.500461 0.255056 0.05793
C_ C_ 0.468558 0.503034 0.253705 0.05793
Br Br 0.0702199 -0.0018380000000000063 0.298916 -0.17191
Br Br 0.325355 1.00704246 0.256412 -0.17191
Br Br 0.175426 0.498155 0.261413 -0.17191
Br Br 0.425515 0.501694 0.245976 -0.17191
N_ N_ 0.129942 0.748532 0.362779 -0.272
N_ N_ 0.375357 0.746565 0.357757 -0.272
N_ N_ 0.136212 0.753049 0.493801 -0.12501
N_ N_ 0.380153 0.736512 0.491706 -0.12501
N_ N_ 0.124269 0.752896 0.153037 -0.272
N_ N_ 0.372102 0.747731 0.144372 -0.272
N_ N_ 0.120858 0.736439 0.0206021 -0.12501
N_ N_ 0.370801 0.757403 0.0111898 -0.12501
O_ O_ 0.0960347 0.800259 0.224832 -0.60745
O_ O_ 0.348172 0.796731 0.219916 -0.60745
O_ O_ 0.0979633 0.797675 0.294167 -0.60745
O_ O_ 0.3364 0.786922 0.284114 -0.60745
O_ O_ 0.162039 0.794638 0.293014 -0.60745
O_ O_ 0.40172 0.796031 0.284981 -0.60745
O_ O_ 0.158629 0.795113 0.223739 -0.60745
O_ O_ 0.40717 0.785935 0.217838 -0.60745
O_ O_ 0.159344 0.705906 0.293573 -0.60745
O_ O_ 0.406029 0.710504 0.285282 -0.60745
O_ O_ 0.159355 0.707342 0.224998 -0.60745
O_ O_ 0.40142 0.698447 0.217672 -0.60745
O_ O_ 0.0953044 0.707365 0.225493 -0.60745
O_ O_ 0.337482 0.707758 0.216447 -0.60745
O_ O_ 0.0967312 0.707138 0.293503 -0.60745
O_ O_ 0.345755 0.702687 0.286074 -0.60745
Zn Zn 0.128114 0.74895 0.788065 0.9476
Zn Zn 0.374799 0.75086 0.786151 0.9476
Zn Zn 0.126414 0.751774 0.717732 0.9476
Zn Zn 0.371546 0.7493 0.717918 0.9476
H_ H_ 0.0440268 0.931012 0.690635 0.10932
H_ H_ 0.267097 0.896896 0.696176 0.10932
H_ H_ 0.0617227 0.844357 0.815376 0.10932
H_ H_ 0.331534 0.865282 0.825619 0.10932
H_ H_ 0.0665834 0.861473 0.681485 0.10932
H_ H_ 0.292601 0.828571 0.704722 0.10932
H_ H_ 0.0225976 0.903429 0.818826 0.10932
H_ H_ 0.303271 0.931679 0.819526 0.10932
H_ H_ 0.225565 0.909721 0.82377 0.10932
H_ H_ 0.46668 0.914847 0.822139 0.10932
H_ H_ 0.180764 0.860368 0.688458 0.10932
H_ H_ 0.425974 0.855672 0.691228 0.10932
H_ H_ 0.192858 0.845828 0.820292 0.10932
H_ H_ 0.438037 0.8502 0.822201 0.10932
H_ H_ 0.208377 0.92623 0.692249 0.10932
H_ H_ 0.458941 0.917554 0.690432 0.10932
H_ H_ 0.203443 0.570262 0.813236 0.10932
H_ H_ 0.485891 0.602036 0.806008 0.10932
H_ H_ 0.208187 0.661781 0.692246 0.10932
H_ H_ 0.410871 0.627767 0.690367 0.10932
H_ H_ 0.173628 0.636323 0.81418 0.10932
H_ H_ 0.464395 0.676053 0.795286 0.10932
H_ H_ 0.223365 0.594078 0.683325 0.10932
H_ H_ 0.435666 0.55836 0.700207 0.10932
H_ H_ 0.0359094 0.586346 0.675863 0.10932
H_ H_ 0.293403 0.57444 0.680925 0.10932
H_ H_ 0.057903 0.651562 0.811385 0.10932
H_ H_ 0.299002 0.655038 0.812131 0.10932
H_ H_ 0.0674998 0.648518 0.681888 0.10932
H_ H_ 0.322494 0.637324 0.681628 0.10932
H_ H_ 0.0342688 0.575808 0.810997 0.10932
H_ H_ 0.267006 0.595218 0.808537 0.10932
H_ H_ 0.122993 0.816791 0.862464 0.10932
H_ H_ 0.372745 0.810205 0.862622 0.10932
H_ H_ 0.111785 0.693104 0.869589 0.10932
H_ H_ 0.38055 0.681904 0.846893 0.10932
H_ H_ 0.118204 0.692682 0.949734 0.10932
H_ H_ 0.372813 0.672442 0.926518 0.10932
H_ H_ 0.132258 0.823809 0.940236 0.10932
H_ H_ 0.369398 0.801881 0.942391 0.10932
H_ H_ 0.130548 0.679741 0.653214 0.10932
H_ H_ 0.348519 0.811656 0.646274 0.10932
H_ H_ 0.125547 0.808636 0.638255 0.10932
H_ H_ 0.385591 0.693116 0.64059 0.10932
H_ H_ 0.127472 0.804307 0.563157 0.10932
H_ H_ 0.387723 0.697436 0.561492 0.10932
H_ H_ 0.12746 0.670452 0.577081 0.10932
H_ H_ 0.345456 0.816117 0.567043 0.10932
C_ C_ 0.0644228 0.844569 0.749259 -0.02249
C_ C_ 0.315401 0.843789 0.765024 -0.02249
C_ C_ 0.0159536 0.958805 0.758336 -0.02249
C_ C_ 0.267951 0.960705 0.757399 -0.02249
C_ C_ 0.0439747 0.908796 0.715914 -0.11473
C_ C_ 0.280345 0.890832 0.725383 -0.11473
C_ C_ 0.0528165 0.860184 0.786654 -0.11473
C_ C_ 0.316895 0.872527 0.79875 -0.11473
C_ C_ 0.0600536 0.870391 0.712857 -0.11473
C_ C_ 0.296196 0.85358 0.729897 -0.11473
C_ C_ 0.0316153 0.92098 0.753317 -0.02249
C_ C_ 0.283383 0.918971 0.760375 -0.02249
C_ C_ 0.084829 0.806189 0.74674 0.6875
C_ C_ 0.336725 0.807976 0.761249 0.6875
C_ C_ 0.0336723 0.894954 0.788414 -0.11473
C_ C_ 0.301024 0.908544 0.796343 -0.11473
C_ C_ 0.183451 0.85049 0.756721 -0.02249
C_ C_ 0.432572 0.84605 0.755102 -0.02249
C_ C_ 0.235019 0.962371 0.756959 -0.02249
C_ C_ 0.482127 0.96274 0.75579 -0.02249
C_ C_ 0.214667 0.900742 0.794925 -0.11473
C_ C_ 0.459777 0.900751 0.792225 -0.11473
C_ C_ 0.18776 0.872187 0.718989 -0.11473
C_ C_ 0.438361 0.867755 0.718675 -0.11473
C_ C_ 0.196826 0.8655 0.794787 -0.11473
C_ C_ 0.442669 0.865207 0.791999 -0.11473
C_ C_ 0.216477 0.925847 0.760064 -0.02249
C_ C_ 0.464163 0.922351 0.75516 -0.02249
C_ C_ 0.163263 0.81343 0.754661 0.6875
C_ C_ 0.411228 0.811528 0.754662 0.6875
C_ C_ 0.202499 0.911555 0.722578 -0.11473
C_ C_ 0.45348 0.904982 0.719002 -0.11473
C_ C_ 0.189405 0.657008 0.755047 -0.02249
C_ C_ 0.433331 0.65489 0.744526 -0.02249
C_ C_ 0.233058 0.537057 0.745402 -0.02249
C_ C_ 0.483038 0.541321 0.748517 -0.02249
C_ C_ 0.201524 0.589458 0.784078 -0.11473
C_ C_ 0.470259 0.61118 0.779944 -0.11473
C_ C_ 0.203627 0.642851 0.717215 -0.11473
C_ C_ 0.427512 0.623102 0.714943 -0.11473
C_ C_ 0.188726 0.628314 0.788443 -0.11473
C_ C_ 0.45573 0.649864 0.775733 -0.11473
C_ C_ 0.216421 0.577569 0.747551 -0.02249
C_ C_ 0.465059 0.579658 0.749331 -0.02249
C_ C_ 0.170569 0.695133 0.755776 0.6875
C_ C_ 0.412785 0.690495 0.745655 0.6875
C_ C_ 0.215233 0.602883 0.713187 -0.11473
C_ C_ 0.441472 0.584611 0.72004 -0.11473
C_ C_ 0.0682177 0.65102 0.747449 -0.02249
C_ C_ 0.313102 0.651423 0.746865 -0.02249
C_ C_ 0.0184463 0.536313 0.743154 -0.02249
C_ C_ 0.265132 0.535599 0.746377 -0.02249
C_ C_ 0.0432487 0.596606 0.708134 -0.11473
C_ C_ 0.296181 0.590301 0.711147 -0.11473
C_ C_ 0.0577397 0.632416 0.785541 -0.11473
C_ C_ 0.299961 0.636307 0.784143 -0.11473
C_ C_ 0.0602745 0.631783 0.709663 -0.11473
C_ C_ 0.313512 0.625116 0.713008 -0.11473
C_ C_ 0.0363791 0.57567 0.744392 -0.02249
C_ C_ 0.28263 0.575141 0.747514 -0.02249
C_ C_ 0.0894485 0.68876 0.749382 0.6875
C_ C_ 0.332763 0.6901 0.747607 0.6875
C_ C_ 0.0423523 0.593462 0.78425 -0.11473
C_ C_ 0.283141 0.600399 0.784024 -0.11473
C_ C_ 0.123932 0.791156 0.880091 0.17695
C_ C_ 0.372977 0.780598 0.877949 0.17695
C_ C_ 0.117939 0.718765 0.886033 0.17695
C_ C_ 0.379181 0.70724 0.868452 0.17695
C_ C_ 0.120487 0.720484 0.929879 -0.11473
C_ C_ 0.378197 0.70146 0.912664 -0.11473
C_ C_ 0.128263 0.759098 0.949584 0.23465
C_ C_ 0.37647 0.73634 0.939978 0.23465
C_ C_ 0.129335 0.793906 0.924324 -0.11473
C_ C_ 0.371774 0.775357 0.922528 -0.11473
C_ C_ 0.131937 0.706308 0.632694 0.17695
C_ C_ 0.358363 0.787254 0.627324 0.17695
C_ C_ 0.129952 0.779305 0.62449 0.17695
C_ C_ 0.379723 0.721564 0.623776 0.17695
C_ C_ 0.130915 0.775846 0.58117 -0.11473
C_ C_ 0.379196 0.724179 0.58037 -0.11473
C_ C_ 0.124809 0.736814 0.563808 0.23465
C_ C_ 0.369138 0.759737 0.559572 0.23465
C_ C_ 0.126927 0.701629 0.591407 -0.11473
C_ C_ 0.355178 0.788749 0.58282 -0.11473
C_ C_ 0.030301 -0.0013959999999999528 0.755957 0.05793
C_ C_ 0.284729 -0.0025600000000000067 0.75191 0.05793
C_ C_ 0.217166 0.500185 0.73919 0.05793
C_ C_ 0.467893 0.503131 0.756839 0.05793
Br Br 0.0713317 -0.0011090000000000266 0.769221 -0.17191
Br Br 0.325737 -0.0069709999999999495 0.727855 -0.17191
Br Br 0.173807 0.499802 0.729645 -0.17191
Br Br 0.436446 0.504712 0.795776 -0.17191
N_ N_ 0.123061 0.752838 0.86114 -0.272
N_ N_ 0.378288 0.746258 0.853458 -0.272
N_ N_ 0.127496 0.764917 0.995329 -0.12501
N_ N_ 0.378881 0.730544 0.985843 -0.12501
N_ N_ 0.132032 0.744577 0.649446 -0.272
N_ N_ 0.368798 0.753127 0.646285 -0.272
N_ N_ 0.121321 0.731298 0.518993 -0.12501
N_ N_ 0.371485 0.765429 0.515406 -0.12501
O_ O_ 0.0955219 0.794628 0.711599 -0.60745
O_ O_ 0.338165 0.790881 0.725846 -0.60745
O_ O_ 0.0931663 0.789175 0.780495 -0.60745
O_ O_ 0.345738 0.788881 0.79205 -0.60745
O_ O_ 0.154734 0.796107 0.787098 -0.60745
O_ O_ 0.406397 0.793206 0.788843 -0.60745
O_ O_ 0.155657 0.796425 0.720698 -0.60745
O_ O_ 0.402625 0.795511 0.721352 -0.60745
O_ O_ 0.161665 0.708468 0.790867 -0.60745
O_ O_ 0.404551 0.704913 0.780739 -0.60745
O_ O_ 0.159963 0.708938 0.720996 -0.60745
O_ O_ 0.402253 0.705736 0.712501 -0.60745
O_ O_ 0.0949728 0.710325 0.717743 -0.60745
O_ O_ 0.341754 0.706235 0.713923 -0.60745
O_ O_ 0.0984603 0.702494 0.783988 -0.60745
O_ O_ 0.343138 0.706028 0.782803 -0.60745
Zn Zn 0.621447 0.249412 0.282164 0.9476
Zn Zn 0.874803 0.250711 0.276961 0.9476
Zn Zn 0.624447 0.247419 0.214209 0.9476
Zn Zn 0.875621 0.250096 0.205756 0.9476
H_ H_ 0.535527 0.429033 0.196726 0.10932
H_ H_ 0.787937 0.423497 0.168898 0.10932
H_ H_ 0.567829 0.346392 0.323147 0.10932
H_ H_ 0.805847 0.34567 0.30067 0.10932
H_ H_ 0.56729 0.362779 0.187561 0.10932
H_ H_ 0.817183 0.353313 0.167915 0.10932
H_ H_ 0.531322 0.409083 0.329755 0.10932
H_ H_ 0.786908 0.415822 0.302303 0.10932
H_ H_ 0.725842 0.40835 0.306834 0.10932
H_ H_ 0.973857 0.412901 0.310868 0.10932
H_ H_ 0.691493 0.342845 0.171186 0.10932
H_ H_ 0.926833 0.361722 0.171129 0.10932
H_ H_ 0.694207 0.344219 0.308445 0.10932
H_ H_ 0.949271 0.337482 0.302993 0.10932
H_ H_ 0.720953 0.407389 0.171072 0.10932
H_ H_ 0.958177 0.42644 0.175085 0.10932
H_ H_ 0.706501 0.078128 0.324237 0.10932
H_ H_ 0.953637 0.070521 0.311418 0.10932
H_ H_ 0.681173 0.14247 0.18849 0.10932
H_ H_ 0.945183 0.15171 0.176095 0.10932
H_ H_ 0.678729 0.142163 0.324761 0.10932
H_ H_ 0.92422 0.139839 0.30908 0.10932
H_ H_ 0.715805 0.0804191 0.190659 0.10932
H_ H_ 0.98029 0.0948004 0.182005 0.10932
H_ H_ 0.532749 0.0804264 0.189138 0.10932
H_ H_ 0.798884 0.0661687 0.180546 0.10932
H_ H_ 0.577976 0.130648 0.320464 0.10932
H_ H_ 0.803146 0.157088 0.305293 0.10932
H_ H_ 0.556951 0.147669 0.187999 0.10932
H_ H_ 0.829446 0.133112 0.179815 0.10932
H_ H_ 0.548812 0.0665771 0.318971 0.10932
H_ H_ 0.774898 0.0940515 0.307916 0.10932
H_ H_ 0.616453 0.190597 0.352961 0.10932
H_ H_ 0.894555 0.188683 0.356603 0.10932
H_ H_ 0.626846 0.319243 0.351848 0.10932
H_ H_ 0.858809 0.313 0.347425 0.10932
H_ H_ 0.623452 0.327927 0.427102 0.10932
H_ H_ 0.867494 0.32175 0.428336 0.10932
H_ H_ 0.624168 0.193057 0.435811 0.10932
H_ H_ 0.896104 0.195159 0.436054 0.10932
H_ H_ 0.631869 0.178429 0.137863 0.10932
H_ H_ 0.832907 0.285448 0.131294 0.10932
H_ H_ 0.618438 0.309208 0.136106 0.10932
H_ H_ 0.917245 0.222566 0.127844 0.10932
H_ H_ 0.620015 0.30736 0.0588039 0.10932
H_ H_ 0.911381 0.212559 0.0509914 0.10932
H_ H_ 0.625139 0.175479 0.0603518 0.10932
H_ H_ 0.830992 0.29381 0.0572696 0.10932
C_ C_ 0.568609 0.348996 0.252686 -0.02249
C_ C_ 0.814551 0.344031 0.234913 -0.02249
C_ C_ 0.515693 0.463107 0.266267 -0.02249
C_ C_ 0.767625 0.461416 0.23508 -0.02249
C_ C_ 0.543698 0.411124 0.224162 -0.11473
C_ C_ 0.79469 0.405218 0.197448 -0.11473
C_ C_ 0.559381 0.361748 0.294191 -0.11473
C_ C_ 0.807055 0.363359 0.273072 -0.11473
C_ C_ 0.562419 0.375737 0.21895 -0.11473
C_ C_ 0.808607 0.36663 0.196006 -0.11473
C_ C_ 0.534238 0.423749 0.263892 -0.02249
C_ C_ 0.786127 0.423313 0.234118 -0.02249
C_ C_ 0.586651 0.310248 0.249372 0.6875
C_ C_ 0.833922 0.306843 0.236942 0.6875
C_ C_ 0.540095 0.397706 0.299162 -0.11473
C_ C_ 0.794441 0.403485 0.272871 -0.11473
C_ C_ 0.685623 0.344381 0.239636 -0.02249
C_ C_ 0.933125 0.348891 0.238928 -0.02249
C_ C_ 0.735776 0.458066 0.239116 -0.02249
C_ C_ 0.982673 0.465764 0.241425 -0.02249
C_ C_ 0.714976 0.397502 0.278284 -0.11473
C_ C_ 0.964209 0.400465 0.278744 -0.11473
C_ C_ 0.695259 0.361173 0.201914 -0.11473
C_ C_ 0.936968 0.371731 0.200583 -0.11473
C_ C_ 0.698412 0.361192 0.278226 -0.11473
C_ C_ 0.948414 0.360836 0.276126 -0.11473
C_ C_ 0.720546 0.416889 0.238861 -0.02249
C_ C_ 0.964225 0.42579 0.242421 -0.02249
C_ C_ 0.663765 0.307068 0.239654 0.6875
C_ C_ 0.914026 0.313117 0.237793 0.6875
C_ C_ 0.712193 0.397644 0.201107 -0.11473
C_ C_ 0.952985 0.409572 0.204061 -0.11473
C_ C_ 0.681264 0.152126 0.255207 -0.02249
C_ C_ 0.933842 0.151679 0.243588 -0.02249
C_ C_ 0.733215 0.0385299 0.259657 -0.02249
C_ C_ 0.986344 0.0371605 0.247646 -0.02249
C_ C_ 0.705506 0.0950473 0.295106 -0.11473
C_ C_ 0.952904 0.0904541 0.282752 -0.11473
C_ C_ 0.691278 0.133448 0.218394 -0.11473
C_ C_ 0.94877 0.137563 0.207117 -0.11473
C_ C_ 0.686957 0.13201 0.294399 -0.11473
C_ C_ 0.937788 0.129919 0.281601 -0.11473
C_ C_ 0.716566 0.0775656 0.257625 -0.02249
C_ C_ 0.969242 0.0773306 0.246308 -0.02249
C_ C_ 0.662518 0.190007 0.25252 0.6875
C_ C_ 0.914719 0.189909 0.242719 0.6875
C_ C_ 0.708677 0.0975283 0.219383 -0.11473
C_ C_ 0.96935 0.103549 0.210845 -0.11473
C_ C_ 0.566098 0.148686 0.256749 -0.02249
C_ C_ 0.81849 0.149237 0.242916 -0.02249
C_ C_ 0.512835 0.0349001 0.253689 -0.02249
C_ C_ 0.763192 0.0376231 0.246497 -0.02249
C_ C_ 0.538613 0.0949839 0.219278 -0.11473
C_ C_ 0.797813 0.0881265 0.206791 -0.11473
C_ C_ 0.565571 0.121263 0.29186 -0.11473
C_ C_ 0.802511 0.137818 0.278848 -0.11473
C_ C_ 0.555056 0.131982 0.218409 -0.11473
C_ C_ 0.816727 0.124579 0.207069 -0.11473
C_ C_ 0.531571 0.07357 0.256485 -0.02249
C_ C_ 0.77993 0.0782609 0.241769 -0.02249
C_ C_ 0.584696 0.187258 0.25637 0.6875
C_ C_ 0.836767 0.189559 0.245126 0.6875
C_ C_ 0.547924 0.086035 0.292972 -0.11473
C_ C_ 0.78534 0.102876 0.278692 -0.11473
C_ C_ 0.621398 0.218892 0.37221 0.17695
C_ C_ 0.891161 0.219863 0.372517 0.17695
C_ C_ 0.625314 0.292963 0.369302 0.17695
C_ C_ 0.868722 0.288272 0.367013 0.17695
C_ C_ 0.624234 0.296698 0.413041 -0.11473
C_ C_ 0.870228 0.292455 0.411684 -0.11473
C_ C_ 0.624166 0.260875 0.438872 0.23465
C_ C_ 0.878034 0.257268 0.436336 0.23465
C_ C_ 0.621429 0.221036 0.417613 -0.11473
C_ C_ 0.887964 0.221642 0.417242 -0.11473
C_ C_ 0.630412 0.207118 0.119713 0.17695
C_ C_ 0.849418 0.267966 0.113721 0.17695
C_ C_ 0.621629 0.279141 0.1199 0.17695
C_ C_ 0.894885 0.229503 0.111702 0.17695
C_ C_ 0.622238 0.278813 0.076441 -0.11473
C_ C_ 0.894002 0.230592 0.0676592 -0.11473
C_ C_ 0.623816 0.240922 0.0527799 0.23465
C_ C_ 0.870452 0.253348 0.0464338 0.23465
C_ C_ 0.627707 0.20462 0.0759154 -0.11473
C_ C_ 0.848504 0.272811 0.0706008 -0.11473
C_ C_ 0.53226 0.500821 0.266891 0.05793
C_ C_ 0.78015 0.50244 0.233981 0.05793
C_ C_ 0.715977 1.000660152 0.260064 0.05793
C_ C_ 0.96997 0.99972892 0.248407 0.05793
Br Br 0.575558 0.499669 0.274923 -0.17191
Br Br 0.823618 0.505406 0.230359 -0.17191
Br Br 0.672878 0.00540642 0.26163 -0.17191
Br Br 0.92768 0.00103864 0.234876 -0.17191
N_ N_ 0.622696 0.255968 0.351163 -0.272
N_ N_ 0.878033 0.251289 0.348415 -0.272
N_ N_ 0.61881 0.264438 0.482757 -0.12501
N_ N_ 0.879648 0.262703 0.480553 -0.12501
N_ N_ 0.623863 0.243159 0.14116 -0.272
N_ N_ 0.872533 0.247251 0.133023 -0.272
N_ N_ 0.620572 0.237939 0.00892938 -0.12501
N_ N_ 0.867323 0.25476 0.0009799999999999809 -0.12501
O_ O_ 0.595117 0.29852 0.214045 -0.60745
O_ O_ 0.844765 0.292612 0.203144 -0.60745
O_ O_ 0.586541 0.285323 0.280305 -0.60745
O_ O_ 0.841142 0.291565 0.271989 -0.60745
O_ O_ 0.650053 0.297189 0.272227 -0.60745
O_ O_ 0.901006 0.30001 0.271028 -0.60745
O_ O_ 0.658298 0.287852 0.206116 -0.60745
O_ O_ 0.909442 0.293525 0.204855 -0.60745
O_ O_ 0.654137 0.209771 0.284952 -0.60745
O_ O_ 0.90809 0.209068 0.276497 -0.60745
O_ O_ 0.650062 0.197613 0.217829 -0.60745
O_ O_ 0.907141 0.204541 0.206988 -0.60745
O_ O_ 0.591553 0.205324 0.222605 -0.60745
O_ O_ 0.843899 0.20584 0.20967 -0.60745
O_ O_ 0.589504 0.20605 0.290646 -0.60745
O_ O_ 0.843026 0.206644 0.279881 -0.60745
Zn Zn 0.624836 0.247746 0.780941 0.9476
Zn Zn 0.88058 0.247479 0.776573 0.9476
Zn Zn 0.6239 0.249176 0.710719 0.9476
Zn Zn 0.87285 0.250888 0.708352 0.9476
H_ H_ 0.525166 0.414534 0.676212 0.10932
H_ H_ 0.77229 0.401172 0.688495 0.10932
H_ H_ 0.583497 0.369532 0.805159 0.10932
H_ H_ 0.835613 0.366351 0.811313 0.10932
H_ H_ 0.555089 0.350544 0.675298 0.10932
H_ H_ 0.795596 0.336811 0.689263 0.10932
H_ H_ 0.54925 0.434795 0.806863 0.10932
H_ H_ 0.804809 0.428184 0.81303 0.10932
H_ H_ 0.730974 0.402778 0.808355 0.10932
H_ H_ 0.988462 0.394217 0.806097 0.10932
H_ H_ 0.667973 0.367606 0.682778 0.10932
H_ H_ 0.925485 0.363249 0.679929 0.10932
H_ H_ 0.70432 0.330246 0.806016 0.10932
H_ H_ 0.956573 0.330921 0.803676 0.10932
H_ H_ 0.698757 0.427897 0.684791 0.10932
H_ H_ 0.959087 0.429593 0.683833 0.10932
H_ H_ 0.725186 0.0913098 0.817103 0.10932
H_ H_ 0.95709 0.0762905 0.806684 0.10932
H_ H_ 0.679571 0.137443 0.683221 0.10932
H_ H_ 0.940252 0.145092 0.671259 0.10932
H_ H_ 0.695766 0.154084 0.817999 0.10932
H_ H_ 0.931282 0.14109 0.809833 0.10932
H_ H_ 0.705616 0.0704876 0.68615 0.10932
H_ H_ 0.963714 0.0773078 0.674286 0.10932
H_ H_ 0.532386 0.0831668 0.67682 0.10932
H_ H_ 0.790052 0.0723609 0.688576 0.10932
H_ H_ 0.575177 0.137514 0.810717 0.10932
H_ H_ 0.819643 0.146939 0.818314 0.10932
H_ H_ 0.555354 0.15349 0.68037 0.10932
H_ H_ 0.811029 0.143271 0.681222 0.10932
H_ H_ 0.544376 0.0743296 0.81346 0.10932
H_ H_ 0.783292 0.0945098 0.822908 0.10932
H_ H_ 0.637697 0.314733 0.853146 0.10932
H_ H_ 0.9267 0.250321 0.842574 0.10932
H_ H_ 0.618707 0.189278 0.858958 0.10932
H_ H_ 0.833731 0.25459 0.85443 0.10932
H_ H_ 0.621939 0.19233 0.938684 0.10932
H_ H_ 0.836726 0.264454 0.929678 0.10932
H_ H_ 0.626919 0.324316 0.926639 0.10932
H_ H_ 0.933534 0.249051 0.919166 0.10932
H_ H_ 0.610894 0.309574 0.633526 0.10932
H_ H_ 0.884047 0.309605 0.627066 0.10932
H_ H_ 0.62716 0.179664 0.63872 0.10932
H_ H_ 0.866175 0.177484 0.635151 0.10932
H_ H_ 0.639635 0.179522 0.565773 0.10932
H_ H_ 0.865863 0.173038 0.558908 0.10932
H_ H_ 0.613423 0.306043 0.555918 0.10932
H_ H_ 0.877077 0.304617 0.552189 0.10932
C_ C_ 0.570151 0.353853 0.742155 -0.02249
C_ C_ 0.819961 0.34669 0.75025 -0.02249
C_ C_ 0.51485 0.465248 0.744783 -0.02249
C_ C_ 0.767508 0.461105 0.752999 -0.02249
C_ C_ 0.537342 0.404002 0.705472 -0.11473
C_ C_ 0.783464 0.393693 0.715659 -0.11473
C_ C_ 0.569071 0.379088 0.777867 -0.11473
C_ C_ 0.820565 0.372948 0.783916 -0.11473
C_ C_ 0.55509 0.368839 0.705301 -0.11473
C_ C_ 0.799813 0.356574 0.716268 -0.11473
C_ C_ 0.533476 0.425652 0.743499 -0.02249
C_ C_ 0.784804 0.419768 0.751518 -0.02249
C_ C_ 0.589374 0.314785 0.743057 0.6875
C_ C_ 0.839775 0.309916 0.745729 0.6875
C_ C_ 0.551208 0.415387 0.777265 -0.11473
C_ C_ 0.802413 0.408537 0.786075 -0.11473
C_ C_ 0.682859 0.34606 0.744216 -0.02249
C_ C_ 0.93573 0.346546 0.742966 -0.02249
C_ C_ 0.734792 0.461049 0.746696 -0.02249
C_ C_ 0.986807 0.461598 0.749273 -0.02249
C_ C_ 0.717391 0.391036 0.780709 -0.11473
C_ C_ 0.971156 0.391212 0.780589 -0.11473
C_ C_ 0.682759 0.373278 0.710142 -0.11473
C_ C_ 0.936365 0.373527 0.708185 -0.11473
C_ C_ 0.700927 0.354184 0.780184 -0.11473
C_ C_ 0.955051 0.35425 0.777809 -0.11473
C_ C_ 0.717579 0.42006 0.745309 -0.02249
C_ C_ 0.969194 0.420747 0.747769 -0.02249
C_ C_ 0.664287 0.308128 0.744114 0.6875
C_ C_ 0.915091 0.309141 0.743541 0.6875
C_ C_ 0.698789 0.409647 0.7115 -0.11473
C_ C_ 0.955125 0.407339 0.709494 -0.11473
C_ C_ 0.683207 0.151275 0.749534 -0.02249
C_ C_ 0.933968 0.149714 0.741571 -0.02249
C_ C_ 0.735848 0.0368548 0.752067 -0.02249
C_ C_ 0.982489 0.0325804 0.744969 -0.02249
C_ C_ 0.713578 0.0986926 0.788433 -0.11473
C_ C_ 0.955521 0.0923748 0.779173 -0.11473
C_ C_ 0.687923 0.128477 0.712244 -0.11473
C_ C_ 0.942816 0.129988 0.702243 -0.11473
C_ C_ 0.698705 0.137216 0.787385 -0.11473
C_ C_ 0.93899 0.128341 0.779257 -0.11473
C_ C_ 0.718727 0.0764873 0.751883 -0.02249
C_ C_ 0.965007 0.0715762 0.741772 -0.02249
C_ C_ 0.663391 0.188882 0.749807 0.6875
C_ C_ 0.915611 0.187956 0.741693 0.6875
C_ C_ 0.704676 0.0904057 0.715035 -0.11473
C_ C_ 0.957991 0.091976 0.702467 -0.11473
C_ C_ 0.56639 0.150106 0.745104 -0.02249
C_ C_ 0.817837 0.15213 0.749703 -0.02249
C_ C_ 0.515633 0.0375496 0.747998 -0.02249
C_ C_ 0.767282 0.0382885 0.75877 -0.02249
C_ C_ 0.535413 0.097878 0.708316 -0.11473
C_ C_ 0.7944 0.0899033 0.716792 -0.11473
C_ C_ 0.561185 0.130127 0.782609 -0.11473
C_ C_ 0.809211 0.137715 0.789848 -0.11473
C_ C_ 0.551307 0.135677 0.708942 -0.11473
C_ C_ 0.80801 0.129471 0.713209 -0.11473
C_ C_ 0.532872 0.076857 0.746864 -0.02249
C_ C_ 0.784372 0.0778769 0.756156 -0.02249
C_ C_ 0.585708 0.187423 0.746403 0.6875
C_ C_ 0.837467 0.189319 0.747349 0.6875
C_ C_ 0.54529 0.0932876 0.783875 -0.11473
C_ C_ 0.791481 0.102978 0.792599 -0.11473
C_ C_ 0.631877 0.289391 0.871021 0.17695
C_ C_ 0.907876 0.247696 0.863435 0.17695
C_ C_ 0.622227 0.217706 0.875179 0.17695
C_ C_ 0.85504 0.249813 0.869486 0.17695
C_ C_ 0.623535 0.220415 0.919431 -0.11473
C_ C_ 0.857167 0.25454 0.912518 -0.11473
C_ C_ 0.627745 0.259178 0.93842 0.23465
C_ C_ 0.885725 0.250159 0.931955 0.23465
C_ C_ 0.630479 0.293638 0.914395 -0.11473
C_ C_ 0.91111 0.246184 0.905903 -0.11473
C_ C_ 0.614829 0.280365 0.618233 0.17695
C_ C_ 0.875544 0.279558 0.614705 0.17695
C_ C_ 0.623486 0.206763 0.621102 0.17695
C_ C_ 0.870485 0.205713 0.618841 0.17695
C_ C_ 0.627179 0.206583 0.57888 -0.11473
C_ C_ 0.871055 0.202309 0.575712 -0.11473
C_ C_ 0.62243 0.24175 0.553319 0.23465
C_ C_ 0.873694 0.239629 0.549525 0.23465
C_ C_ 0.615716 0.27854 0.573042 -0.11473
C_ C_ 0.875168 0.276668 0.570681 -0.11473
C_ C_ 0.530308 0.503708 0.741955 0.05793
C_ C_ 0.783304 0.501012 0.756022 0.05793
C_ C_ 0.720267 -0.0011290000000000466 0.750996 0.05793
C_ C_ 0.968011 -0.006377999999999995 0.7494 0.05793
Br Br 0.573342 0.506534 0.739302 -0.17191
Br Br 0.826086 0.505529 0.755474 -0.17191
Br Br 0.676234 -0.003161999999999998 0.749936 -0.17191
Br Br 0.923144 -0.007152000000000047 0.74218 -0.17191
N_ N_ 0.625402 0.252154 0.852124 -0.272
N_ N_ 0.879612 0.247642 0.845391 -0.272
N_ N_ 0.630624 0.264795 0.984886 -0.12501
N_ N_ 0.88973 0.249454 0.976342 -0.12501
N_ N_ 0.620779 0.244418 0.64031 -0.272
N_ N_ 0.872626 0.244001 0.637552 -0.272
N_ N_ 0.630142 0.239717 0.509396 -0.12501
N_ N_ 0.872352 0.234312 0.505371 -0.12501
O_ O_ 0.591137 0.292152 0.710158 -0.60745
O_ O_ 0.842346 0.292421 0.710853 -0.60745
O_ O_ 0.597302 0.298207 0.778081 -0.60745
O_ O_ 0.851023 0.293241 0.780211 -0.60745
O_ O_ 0.65761 0.29028 0.777958 -0.60745
O_ O_ 0.910835 0.290631 0.777399 -0.60745
O_ O_ 0.65381 0.293918 0.709349 -0.60745
O_ O_ 0.902584 0.29674 0.709978 -0.60745
O_ O_ 0.654546 0.20267 0.783721 -0.60745
O_ O_ 0.908461 0.203436 0.77642 -0.60745
O_ O_ 0.656481 0.206875 0.716005 -0.60745
O_ O_ 0.904831 0.204682 0.708045 -0.60745
O_ O_ 0.595613 0.202057 0.711857 -0.60745
O_ O_ 0.843675 0.204399 0.710079 -0.60745
O_ O_ 0.590884 0.20673 0.780663 -0.60745
O_ O_ 0.847364 0.206659 0.780543 -0.60745
Zn Zn 0.624067 0.751003 0.281344 0.9476
Zn Zn 0.873275 0.748951 0.287382 0.9476
Zn Zn 0.623407 0.751063 0.211274 0.9476
Zn Zn 0.874252 0.752684 0.218829 0.9476
H_ H_ 0.518004 0.904751 0.18413 0.10932
H_ H_ 0.776535 0.909011 0.182541 0.10932
H_ H_ 0.575195 0.863083 0.313841 0.10932
H_ H_ 0.811819 0.856485 0.323997 0.10932
H_ H_ 0.553074 0.844607 0.180421 0.10932
H_ H_ 0.810689 0.848826 0.187774 0.10932
H_ H_ 0.536066 0.918305 0.315779 0.10932
H_ H_ 0.779526 0.921105 0.315934 0.10932
H_ H_ 0.70923 0.91583 0.318443 0.10932
H_ H_ 0.946039 0.933729 0.315308 0.10932
H_ H_ 0.683967 0.854416 0.17952 0.10932
H_ H_ 0.951709 0.841618 0.193623 0.10932
H_ H_ 0.68872 0.845796 0.314586 0.10932
H_ H_ 0.915168 0.873397 0.314509 0.10932
H_ H_ 0.711772 0.919379 0.18371 0.10932
H_ H_ 0.984645 0.901438 0.195197 0.10932
H_ H_ 0.701885 0.567549 0.299455 0.10932
H_ H_ 0.961602 0.579025 0.317852 0.10932
H_ H_ 0.688325 0.652796 0.177078 0.10932
H_ H_ 0.934108 0.649906 0.184191 0.10932
H_ H_ 0.668775 0.630758 0.300642 0.10932
H_ H_ 0.93273 0.647531 0.317886 0.10932
H_ H_ 0.715923 0.58591 0.170223 0.10932
H_ H_ 0.975481 0.594788 0.18525 0.10932
H_ H_ 0.547189 0.565926 0.192907 0.10932
H_ H_ 0.769973 0.600931 0.181132 0.10932
H_ H_ 0.550697 0.666265 0.315123 0.10932
H_ H_ 0.823975 0.630272 0.314593 0.10932
H_ H_ 0.580062 0.628813 0.193482 0.10932
H_ H_ 0.794343 0.664533 0.193575 0.10932
H_ H_ 0.524297 0.598814 0.324093 0.10932
H_ H_ 0.793984 0.566363 0.308958 0.10932
H_ H_ 0.61903 0.689548 0.36173 0.10932
H_ H_ 0.875597 0.80821 0.363935 0.10932
H_ H_ 0.643481 0.814623 0.351467 0.10932
H_ H_ 0.875942 0.676257 0.355593 0.10932
H_ H_ 0.640403 0.824118 0.427444 0.10932
H_ H_ 0.871071 0.673828 0.431548 0.10932
H_ H_ 0.608502 0.697702 0.438453 0.10932
H_ H_ 0.869392 0.80423 0.441865 0.10932
H_ H_ 0.643995 0.686008 0.140941 0.10932
H_ H_ 0.845876 0.702695 0.151034 0.10932
H_ H_ 0.602954 0.805223 0.135191 0.10932
H_ H_ 0.906697 0.799899 0.140255 0.10932
H_ H_ 0.594136 0.79834 0.0569429 0.10932
H_ H_ 0.905677 0.791724 0.0625738 0.10932
H_ H_ 0.643631 0.682604 0.0626128 0.10932
H_ H_ 0.841407 0.696698 0.0756107 0.10932
C_ C_ 0.564807 0.84567 0.244955 -0.02249
C_ C_ 0.812305 0.846037 0.255899 -0.02249
C_ C_ 0.512346 0.958971 0.249993 -0.02249
C_ C_ 0.762353 0.961554 0.251363 -0.02249
C_ C_ 0.530907 0.894737 0.209926 -0.11473
C_ C_ 0.788244 0.901911 0.212313 -0.11473
C_ C_ 0.562505 0.870195 0.282657 -0.11473
C_ C_ 0.80411 0.866321 0.292029 -0.11473
C_ C_ 0.549907 0.860046 0.208204 -0.11473
C_ C_ 0.802873 0.863717 0.216836 -0.11473
C_ C_ 0.527448 0.918788 0.247719 -0.02249
C_ C_ 0.780572 0.92185 0.250098 -0.02249
C_ C_ 0.58322 0.808509 0.245995 0.6875
C_ C_ 0.832363 0.808515 0.256223 0.6875
C_ C_ 0.542462 0.905262 0.284733 -0.11473
C_ C_ 0.786191 0.903709 0.288467 -0.11473
C_ C_ 0.682094 0.847859 0.246573 -0.02249
C_ C_ 0.93124 0.850545 0.252659 -0.02249
C_ C_ 0.729999 0.962075 0.254259 -0.02249
C_ C_ 0.983546 0.961236 0.254877 -0.02249
C_ C_ 0.706351 0.902272 0.287818 -0.11473
C_ C_ 0.94661 0.913785 0.287487 -0.11473
C_ C_ 0.688117 0.869646 0.209325 -0.11473
C_ C_ 0.950663 0.860324 0.220119 -0.11473
C_ C_ 0.691682 0.864052 0.286218 -0.11473
C_ C_ 0.931106 0.877771 0.288876 -0.11473
C_ C_ 0.713134 0.922312 0.250986 -0.02249
C_ C_ 0.966866 0.921104 0.254353 -0.02249
C_ C_ 0.663241 0.810282 0.243883 0.6875
C_ C_ 0.914753 0.810869 0.252727 0.6875
C_ C_ 0.706071 0.905033 0.212149 -0.11473
C_ C_ 0.968117 0.895092 0.22122 -0.11473
C_ C_ 0.677921 0.648678 0.241021 -0.02249
C_ C_ 0.930346 0.653313 0.250887 -0.02249
C_ C_ 0.731468 0.535926 0.236239 -0.02249
C_ C_ 0.984807 0.541871 0.24796 -0.02249
C_ C_ 0.700736 0.587838 0.272743 -0.11473
C_ C_ 0.957084 0.596199 0.289085 -0.11473
C_ C_ 0.689283 0.633887 0.201926 -0.11473
C_ C_ 0.941764 0.635754 0.21234 -0.11473
C_ C_ 0.685729 0.626106 0.276938 -0.11473
C_ C_ 0.939926 0.633021 0.289488 -0.11473
C_ C_ 0.712348 0.574748 0.235105 -0.02249
C_ C_ 0.968864 0.582307 0.250538 -0.02249
C_ C_ 0.660068 0.688613 0.243702 0.6875
C_ C_ 0.909702 0.68787 0.250797 0.6875
C_ C_ 0.705204 0.595848 0.19923 -0.11473
C_ C_ 0.964521 0.6044 0.213752 -0.11473
C_ C_ 0.567347 0.652691 0.253524 -0.02249
C_ C_ 0.814253 0.651426 0.25088 -0.02249
C_ C_ 0.516342 0.538782 0.261824 -0.02249
C_ C_ 0.762911 0.53804 0.23811 -0.02249
C_ C_ 0.550504 0.586812 0.22176 -0.11473
C_ C_ 0.780872 0.606124 0.211746 -0.11473
C_ C_ 0.552031 0.643556 0.290037 -0.11473
C_ C_ 0.81169 0.624816 0.286336 -0.11473
C_ C_ 0.567527 0.6241 0.219729 -0.11473
C_ C_ 0.797652 0.641834 0.215598 -0.11473
C_ C_ 0.533916 0.579557 0.258514 -0.02249
C_ C_ 0.777446 0.579266 0.245946 -0.02249
C_ C_ 0.586747 0.690407 0.251755 0.6875
C_ C_ 0.833063 0.68914 0.255002 0.6875
C_ C_ 0.535742 0.606143 0.293218 -0.11473
C_ C_ 0.794473 0.587839 0.283212 -0.11473
C_ C_ 0.617462 0.719903 0.375402 0.17695
C_ C_ 0.874975 0.778484 0.380995 0.17695
C_ C_ 0.633432 0.78979 0.369302 0.17695
C_ C_ 0.874724 0.704384 0.37481 0.17695
C_ C_ 0.631263 0.795868 0.413059 -0.11473
C_ C_ 0.874285 0.702369 0.418462 -0.11473
C_ C_ 0.621893 0.763574 0.438151 0.23465
C_ C_ 0.871181 0.738262 0.443578 0.23465
C_ C_ 0.614177 0.725579 0.418508 -0.11473
C_ C_ 0.873927 0.776508 0.424226 -0.11473
C_ C_ 0.635299 0.712941 0.121386 0.17695
C_ C_ 0.857604 0.722846 0.131736 0.17695
C_ C_ 0.608362 0.775952 0.118484 0.17695
C_ C_ 0.891367 0.781359 0.125549 0.17695
C_ C_ 0.608513 0.777185 0.0752652 -0.11473
C_ C_ 0.889739 0.776118 0.0809569 -0.11473
C_ C_ 0.623791 0.746966 0.0536498 0.23465
C_ C_ 0.871166 0.747857 0.0623023 0.23465
C_ C_ 0.635856 0.711909 0.0776618 -0.11473
C_ C_ 0.854477 0.720391 0.0889491 -0.11473
C_ C_ 0.528648 0.997495 0.250136 0.05793
C_ C_ 0.778389 0.999482 0.244586 0.05793
C_ C_ 0.718088 0.495615 0.23688 0.05793
C_ C_ 0.967459 0.504306 0.244637 0.05793
Br Br 0.572439 0.999995 0.242521 -0.17191
Br Br 0.822247 0.999115 0.251743 -0.17191
Br Br 0.67575 0.492003 0.226818 -0.17191
Br Br 0.923764 0.506285 0.243456 -0.17191
N_ N_ 0.627362 0.751438 0.35137 -0.272
N_ N_ 0.877091 0.743865 0.357855 -0.272
N_ N_ 0.627972 0.766706 0.482114 -0.12501
N_ N_ 0.866617 0.733803 0.48778 -0.12501
N_ N_ 0.619472 0.74335 0.140681 -0.272
N_ N_ 0.875537 0.75348 0.148935 -0.272
N_ N_ 0.617957 0.741641 0.00954335 -0.12501
N_ N_ 0.872127 0.739779 0.0167088 -0.12501
O_ O_ 0.588635 0.787426 0.212118 -0.60745
O_ O_ 0.846932 0.800068 0.223125 -0.60745
O_ O_ 0.598034 0.80063 0.280056 -0.60745
O_ O_ 0.838812 0.788618 0.289845 -0.60745
O_ O_ 0.656568 0.790289 0.276745 -0.60745
O_ O_ 0.904334 0.794999 0.286327 -0.60745
O_ O_ 0.650404 0.800149 0.209929 -0.60745
O_ O_ 0.904112 0.797413 0.218421 -0.60745
O_ O_ 0.653339 0.703273 0.279258 -0.60745
O_ O_ 0.905548 0.710549 0.285484 -0.60745
O_ O_ 0.65785 0.712754 0.211821 -0.60745
O_ O_ 0.901211 0.703795 0.216051 -0.60745
O_ O_ 0.597334 0.702593 0.216647 -0.60745
O_ O_ 0.841768 0.707496 0.222071 -0.60745
O_ O_ 0.59213 0.709582 0.284969 -0.60745
O_ O_ 0.841562 0.703951 0.289901 -0.60745
Zn Zn 0.625944 0.755473 0.782764 0.9476
Zn Zn 0.879656 0.748397 0.784383 0.9476
Zn Zn 0.623728 0.752433 0.714063 0.9476
Zn Zn 0.875926 0.749374 0.715688 0.9476
H_ H_ 0.51923 0.910949 0.689475 0.10932
H_ H_ 0.784831 0.92193 0.692981 0.10932
H_ H_ 0.567066 0.856282 0.819285 0.10932
H_ H_ 0.827602 0.854771 0.821295 0.10932
H_ H_ 0.556626 0.851842 0.682985 0.10932
H_ H_ 0.818481 0.859672 0.688248 0.10932
H_ H_ 0.537253 0.920252 0.819219 0.10932
H_ H_ 0.798944 0.919639 0.824907 0.10932
H_ H_ 0.711929 0.923464 0.814352 0.10932
H_ H_ 0.951191 0.927248 0.812726 0.10932
H_ H_ 0.692545 0.849202 0.680963 0.10932
H_ H_ 0.944437 0.840558 0.682912 0.10932
H_ H_ 0.693099 0.847612 0.818765 0.10932
H_ H_ 0.928766 0.860799 0.813482 0.10932
H_ H_ 0.71857 0.917311 0.682722 0.10932
H_ H_ 0.974919 0.91089 0.684135 0.10932
H_ H_ 0.730833 0.596127 0.815623 0.10932
H_ H_ 0.970396 0.58106 0.819772 0.10932
H_ H_ 0.686036 0.64187 0.682571 0.10932
H_ H_ 0.940711 0.644632 0.681086 0.10932
H_ H_ 0.693188 0.652914 0.816598 0.10932
H_ H_ 0.944992 0.650454 0.818464 0.10932
H_ H_ 0.704583 0.570149 0.690611 0.10932
H_ H_ 0.969077 0.580931 0.683619 0.10932
H_ H_ 0.518308 0.601082 0.679563 0.10932
H_ H_ 0.775587 0.59094 0.689239 0.10932
H_ H_ 0.575745 0.644446 0.806003 0.10932
H_ H_ 0.83347 0.630643 0.81424 0.10932
H_ H_ 0.544017 0.667573 0.681194 0.10932
H_ H_ 0.799651 0.658302 0.695908 0.10932
H_ H_ 0.536834 0.586016 0.806833 0.10932
H_ H_ 0.791911 0.58173 0.822599 0.10932
H_ H_ 0.607731 0.697552 0.858707 0.10932
H_ H_ 0.872206 0.68597 0.871743 0.10932
H_ H_ 0.637317 0.819593 0.851186 0.10932
H_ H_ 0.88972 0.814238 0.852356 0.10932
H_ H_ 0.648462 0.82006 0.931044 0.10932
H_ H_ 0.89269 0.822154 0.930258 0.10932
H_ H_ 0.600943 0.705585 0.937509 0.10932
H_ H_ 0.87077 0.694177 0.948291 0.10932
H_ H_ 0.607699 0.69285 0.641392 0.10932
H_ H_ 0.884534 0.809524 0.64436 0.10932
H_ H_ 0.646666 0.813838 0.625006 0.10932
H_ H_ 0.864355 0.680944 0.638832 0.10932
H_ H_ 0.641299 0.807374 0.550411 0.10932
H_ H_ 0.857726 0.686791 0.564943 0.10932
H_ H_ 0.597515 0.691774 0.567807 0.10932
H_ H_ 0.879835 0.816409 0.569105 0.10932
C_ C_ 0.56449 0.848288 0.751511 -0.02249
C_ C_ 0.820807 0.849825 0.754507 -0.02249
C_ C_ 0.513498 0.962205 0.75091 -0.02249
C_ C_ 0.768633 0.962624 0.760623 -0.02249
C_ C_ 0.532952 0.900708 0.716632 -0.11473
C_ C_ 0.793399 0.906122 0.720601 -0.11473
C_ C_ 0.557458 0.868147 0.789561 -0.11473
C_ C_ 0.818191 0.870529 0.792616 -0.11473
C_ C_ 0.550922 0.864212 0.714875 -0.11473
C_ C_ 0.810039 0.868901 0.718417 -0.11473
C_ C_ 0.528531 0.92154 0.752414 -0.02249
C_ C_ 0.786978 0.923822 0.759313 -0.02249
C_ C_ 0.586481 0.814532 0.749401 0.6875
C_ C_ 0.837853 0.810146 0.752381 0.6875
C_ C_ 0.539568 0.903972 0.789057 -0.11473
C_ C_ 0.802765 0.908782 0.795372 -0.11473
C_ C_ 0.688306 0.845732 0.749875 -0.02249
C_ C_ 0.935764 0.845002 0.749127 -0.02249
C_ C_ 0.737623 0.961538 0.750095 -0.02249
C_ C_ 0.984906 0.95741 0.751784 -0.02249
C_ C_ 0.71227 0.903619 0.788163 -0.11473
C_ C_ 0.952964 0.906126 0.785314 -0.11473
C_ C_ 0.697498 0.862679 0.710734 -0.11473
C_ C_ 0.949791 0.85732 0.712735 -0.11473
C_ C_ 0.697948 0.864811 0.789224 -0.11473
C_ C_ 0.937637 0.87008 0.785574 -0.11473
C_ C_ 0.721637 0.920616 0.74957 -0.02249
C_ C_ 0.968123 0.917538 0.749148 -0.02249
C_ C_ 0.666999 0.809991 0.75009 0.6875
C_ C_ 0.918807 0.804622 0.74921 0.6875
C_ C_ 0.71368 0.900037 0.712071 -0.11473
C_ C_ 0.963835 0.897073 0.710253 -0.11473
C_ C_ 0.683364 0.650513 0.751127 -0.02249
C_ C_ 0.936227 0.648755 0.749982 -0.02249
C_ C_ 0.734677 0.536011 0.754612 -0.02249
C_ C_ 0.987292 0.537842 0.750794 -0.02249
C_ C_ 0.714341 0.598647 0.790198 -0.11473
C_ C_ 0.966887 0.596565 0.789186 -0.11473
C_ C_ 0.689385 0.628056 0.715403 -0.11473
C_ C_ 0.943378 0.628978 0.711864 -0.11473
C_ C_ 0.696095 0.634851 0.790153 -0.11473
C_ C_ 0.949435 0.633898 0.788036 -0.11473
C_ C_ 0.718358 0.575987 0.752906 -0.02249
C_ C_ 0.972109 0.577622 0.750763 -0.02249
C_ C_ 0.661883 0.687737 0.748595 0.6875
C_ C_ 0.915577 0.685958 0.750635 0.6875
C_ C_ 0.702854 0.587739 0.716811 -0.11473
C_ C_ 0.962255 0.595091 0.712378 -0.11473
C_ C_ 0.564564 0.656274 0.740802 -0.02249
C_ C_ 0.820702 0.650325 0.754436 -0.02249
C_ C_ 0.514896 0.541357 0.743074 -0.02249
C_ C_ 0.766686 0.5371 0.756337 -0.02249
C_ C_ 0.533616 0.605358 0.704464 -0.11473
C_ C_ 0.78465 0.601053 0.719452 -0.11473
C_ C_ 0.563152 0.632901 0.777295 -0.11473
C_ C_ 0.820339 0.623759 0.788389 -0.11473
C_ C_ 0.54819 0.643945 0.70526 -0.11473
C_ C_ 0.802574 0.638305 0.720564 -0.11473
C_ C_ 0.531254 0.582244 0.741048 -0.02249
C_ C_ 0.781823 0.57788 0.756373 -0.02249
C_ C_ 0.584781 0.694821 0.739696 0.6875
C_ C_ 0.839211 0.689372 0.754895 0.6875
C_ C_ 0.542641 0.600165 0.777642 -0.11473
C_ C_ 0.79918 0.590957 0.791585 -0.11473
C_ C_ 0.614848 0.724745 0.874388 0.17695
C_ C_ 0.87619 0.716938 0.885415 0.17695
C_ C_ 0.635796 0.792292 0.870088 0.17695
C_ C_ 0.884224 0.788294 0.875191 0.17695
C_ C_ 0.635462 0.797318 0.914105 -0.11473
C_ C_ 0.883784 0.794139 0.920198 -0.11473
C_ C_ 0.623695 0.764428 0.938565 0.23465
C_ C_ 0.879822 0.760207 0.947818 0.23465
C_ C_ 0.613404 0.728779 0.918533 -0.11473
C_ C_ 0.875052 0.720494 0.930421 -0.11473
C_ C_ 0.616017 0.719035 0.622451 0.17695
C_ C_ 0.878268 0.783983 0.627749 0.17695
C_ C_ 0.637959 0.785412 0.613702 0.17695
C_ C_ 0.871159 0.711556 0.623481 0.17695
C_ C_ 0.635409 0.782792 0.570005 -0.11473
C_ C_ 0.866274 0.714013 0.580436 -0.11473
C_ C_ 0.619509 0.748671 0.552242 0.23465
C_ C_ 0.873218 0.751103 0.558927 0.23465
C_ C_ 0.611073 0.715842 0.579481 -0.11473
C_ C_ 0.878283 0.786109 0.584076 -0.11473
C_ C_ 0.529989 -0.00191073 0.748303 0.05793
C_ C_ 0.783339 0.00163938 0.764814 0.05793
C_ C_ 0.718024 0.497744 0.749919 0.05793
C_ C_ 0.971178 0.499848 0.751688 0.05793
Br Br 0.573001 -0.0029000000000000137 0.734115 -0.17191
Br Br 0.823977 1.00349103 0.789299 -0.17191
Br Br 0.67442 0.495691 0.746393 -0.17191
Br Br 0.928248 0.501623 0.750101 -0.17191
N_ N_ 0.626858 0.755765 0.850588 -0.272
N_ N_ 0.87985 0.750011 0.858981 -0.272
N_ N_ 0.629876 0.76521 0.982892 -0.12501
N_ N_ 0.878835 0.76738 0.99127 -0.12501
N_ N_ 0.627443 0.755283 0.638975 -0.272
N_ N_ 0.875992 0.74656 0.647383 -0.272
N_ N_ 0.612491 0.747295 0.508768 -0.12501
N_ N_ 0.87969 0.754599 0.515054 -0.12501
O_ O_ 0.596551 0.802149 0.714591 -0.60745
O_ O_ 0.849142 0.799119 0.718821 -0.60745
O_ O_ 0.597091 0.799238 0.782378 -0.60745
O_ O_ 0.84637 0.792203 0.786162 -0.60745
O_ O_ 0.661373 0.794174 0.784657 -0.60745
O_ O_ 0.908661 0.793216 0.784772 -0.60745
O_ O_ 0.65584 0.796857 0.71597 -0.60745
O_ O_ 0.909419 0.78707 0.71555 -0.60745
O_ O_ 0.655091 0.70482 0.782036 -0.60745
O_ O_ 0.909948 0.703861 0.785602 -0.60745
O_ O_ 0.651241 0.701881 0.714529 -0.60745
O_ O_ 0.905853 0.70053 0.714907 -0.60745
O_ O_ 0.591152 0.712298 0.705249 -0.60745
O_ O_ 0.844553 0.705989 0.720129 -0.60745
O_ O_ 0.591209 0.712526 0.774394 -0.60745
O_ O_ 0.849922 0.705402 0.786624 -0.60745
_cell_length_a 44.444
_cell_length_b 32.3360000049186
_cell_length_c 31.843999878906452
_cell_angle_alpha 89.99799923859553
_cell_angle_beta 91.13600050494348
_cell_angle_gamma 89.9990006550086
_symmetry_space_group_name_H-M         'P 1'
_symmetry_Int_Tables_number            1
loop_
_symmetry_equiv_pos_as_xyz
   'x, y, z'
                         
loop_
_atom_site_label
_atom_site_type_symbol
_atom_site_fract_x 
_atom_site_fract_y
_atom_site_fract_z
_atom_site_charge
Zn Zn 0.121049 0.25054 0.283769 0.9476
Zn Zn 0.377077 0.254787 0.286664 0.9476
Zn Zn 0.123235 0.251975 0.21383 0.9476
Zn Zn 0.374628 0.252777 0.217598 0.9476
H_ H_ 0.0238354 0.410677 0.180164 0.10932
H_ H_ 0.287307 0.419854 0.175313 0.10932
H_ H_ 0.0674105 0.363018 0.314785 0.10932
H_ H_ 0.306198 0.345999 0.310413 0.10932
H_ H_ 0.0554245 0.346839 0.181716 0.10932
H_ H_ 0.318405 0.357186 0.180725 0.10932
H_ H_ 0.0407463 0.425947 0.314413 0.10932
H_ H_ 0.27459 0.4113 0.310534 0.10932
H_ H_ 0.208766 0.425303 0.318351 0.10932
H_ H_ 0.473282 0.411054 0.32151 0.10932
H_ H_ 0.198803 0.339193 0.190748 0.10932
H_ H_ 0.432815 0.36071 0.187186 0.10932
H_ H_ 0.179895 0.362306 0.321822 0.10932
H_ H_ 0.436961 0.354137 0.322942 0.10932
H_ H_ 0.221876 0.412319 0.188073 0.10932
H_ H_ 0.45659 0.428883 0.191438 0.10932
H_ H_ 0.21949 0.0900272 0.318606 0.10932
H_ H_ 0.477014 0.0892208 0.321274 0.10932
H_ H_ 0.193632 0.155162 0.183721 0.10932
H_ H_ 0.424288 0.139211 0.189545 0.10932
H_ H_ 0.191894 0.155594 0.316309 0.10932
H_ H_ 0.447828 0.157413 0.321857 0.10932
H_ H_ 0.216148 0.0870089 0.184626 0.10932
H_ H_ 0.447973 0.0692458 0.193293 0.10932
H_ H_ 0.0469697 0.064663 0.192439 0.10932
H_ H_ 0.27873 0.0913008 0.186237 0.10932
H_ H_ 0.0426551 0.165969 0.308993 0.10932
H_ H_ 0.319591 0.150947 0.316214 0.10932
H_ H_ 0.0763436 0.127504 0.18699 0.10932
H_ H_ 0.315175 0.148856 0.180616 0.10932
H_ H_ 0.0195689 0.0987388 0.316833 0.10932
H_ H_ 0.289849 0.0873682 0.319336 0.10932
H_ H_ 0.121309 0.182843 0.354475 0.10932
H_ H_ 0.390429 0.312392 0.36014 0.10932
H_ H_ 0.109619 0.313465 0.363973 0.10932
H_ H_ 0.35803 0.189129 0.351824 0.10932
H_ H_ 0.112963 0.311693 0.440194 0.10932
H_ H_ 0.351679 0.186741 0.432868 0.10932
H_ H_ 0.128253 0.183276 0.434439 0.10932
H_ H_ 0.388558 0.310886 0.43576 0.10932
H_ H_ 0.140921 0.315013 0.143229 0.10932
H_ H_ 0.385013 0.183511 0.146397 0.10932
H_ H_ 0.113745 0.192232 0.139365 0.10932
H_ H_ 0.366205 0.309428 0.135162 0.10932
H_ H_ 0.112518 0.190734 0.0611571 0.10932
H_ H_ 0.358446 0.299958 0.056307 0.10932
H_ H_ 0.138226 0.321262 0.0602139 0.10932
H_ H_ 0.386128 0.177154 0.0721163 0.10932
C_ C_ 0.066308 0.352017 0.247702 -0.02249
C_ C_ 0.312603 0.345896 0.24423 -0.02249
C_ C_ 0.0145111 0.464312 0.244495 -0.02249
C_ C_ 0.264945 0.462792 0.244611 -0.02249
C_ C_ 0.0342809 0.401291 0.209033 -0.11473
C_ C_ 0.292698 0.405907 0.206421 -0.11473
C_ C_ 0.0605584 0.373961 0.284958 -0.11473
C_ C_ 0.301489 0.363189 0.280218 -0.11473
C_ C_ 0.052008 0.364719 0.210039 -0.11473
C_ C_ 0.307306 0.366696 0.207399 -0.11473
C_ C_ 0.0312717 0.423493 0.24787 -0.02249
C_ C_ 0.280551 0.42239 0.244645 -0.02249
C_ C_ 0.0841606 0.311936 0.247498 0.6875
C_ C_ 0.333192 0.310491 0.245285 0.6875
C_ C_ 0.0455374 0.411196 0.284887 -0.11473
C_ C_ 0.283943 0.399251 0.280425 -0.11473
C_ C_ 0.183927 0.346303 0.253643 -0.02249
C_ C_ 0.430343 0.351811 0.254757 -0.02249
C_ C_ 0.234465 0.462953 0.252102 -0.02249
C_ C_ 0.484124 0.465308 0.258203 -0.02249
C_ C_ 0.206859 0.405942 0.290756 -0.11473
C_ C_ 0.464252 0.400505 0.292123 -0.11473
C_ C_ 0.198479 0.359561 0.217448 -0.11473
C_ C_ 0.436895 0.37358 0.218377 -0.11473
C_ C_ 0.189374 0.37041 0.290604 -0.11473
C_ C_ 0.442433 0.366924 0.292943 -0.11473
C_ C_ 0.217013 0.422387 0.253755 -0.02249
C_ C_ 0.466743 0.424231 0.256844 -0.02249
C_ C_ 0.1625 0.310691 0.251197 0.6875
C_ C_ 0.41391 0.310697 0.253993 0.6875
C_ C_ 0.214937 0.397835 0.216262 -0.11473
C_ C_ 0.455659 0.408735 0.219176 -0.11473
C_ C_ 0.18542 0.15676 0.249761 -0.02249
C_ C_ 0.432873 0.153628 0.255691 -0.02249
C_ C_ 0.23498 0.03899 0.249988 -0.02249
C_ C_ 0.481225 0.0358584 0.258499 -0.02249
C_ C_ 0.21022 0.0995121 0.288074 -0.11473
C_ C_ 0.462876 0.101093 0.293822 -0.11473
C_ C_ 0.195425 0.13962 0.211952 -0.11473
C_ C_ 0.435604 0.129186 0.21878 -0.11473
C_ C_ 0.196166 0.138971 0.287275 -0.11473
C_ C_ 0.446335 0.138688 0.293768 -0.11473
C_ C_ 0.215154 0.0784466 0.249769 -0.02249
C_ C_ 0.463799 0.0763099 0.257952 -0.02249
C_ C_ 0.163151 0.192202 0.249518 0.6875
C_ C_ 0.413495 0.191525 0.256355 0.6875
C_ C_ 0.20782 0.099235 0.212358 -0.11473
C_ C_ 0.449634 0.0895762 0.220492 -0.11473
C_ C_ 0.0638364 0.152001 0.248156 -0.02249
C_ C_ 0.318708 0.156355 0.249344 -0.02249
C_ C_ 0.016404 0.0364801 0.26143 -0.02249
C_ C_ 0.266307 0.0406458 0.253342 -0.02249
C_ C_ 0.0467927 0.0855301 0.218438 -0.11473
C_ C_ 0.288355 0.104174 0.214584 -0.11473
C_ C_ 0.0465972 0.142498 0.284533 -0.11473
C_ C_ 0.309443 0.13713 0.287114 -0.11473
C_ C_ 0.0626342 0.124011 0.214845 -0.11473
C_ C_ 0.30686 0.138892 0.211605 -0.11473
C_ C_ 0.0331641 0.0754677 0.256741 -0.02249
C_ C_ 0.284357 0.0818912 0.252169 -0.02249
C_ C_ 0.0802618 0.192328 0.247611 0.6875
C_ C_ 0.336154 0.19523 0.247491 0.6875
C_ C_ 0.0333288 0.103883 0.290543 -0.11473
C_ C_ 0.295982 0.0986568 0.290013 -0.11473
C_ C_ 0.117619 0.211429 0.373616 0.17695
C_ C_ 0.386042 0.282424 0.376679 0.17695
C_ C_ 0.115202 0.284247 0.378266 0.17695
C_ C_ 0.364505 0.214397 0.372465 0.17695
C_ C_ 0.118718 0.283595 0.422438 -0.11473
C_ C_ 0.362155 0.212869 0.41544 -0.11473
C_ C_ 0.12439 0.246483 0.443384 0.23465
C_ C_ 0.375504 0.245003 0.439861 0.23465
C_ C_ 0.125369 0.211281 0.417218 -0.11473
C_ C_ 0.386055 0.281584 0.419639 -0.11473
C_ C_ 0.136662 0.288042 0.123213 0.17695
C_ C_ 0.385174 0.21182 0.128555 0.17695
C_ C_ 0.121521 0.217714 0.121731 0.17695
C_ C_ 0.372925 0.281775 0.119682 0.17695
C_ C_ 0.11924 0.218076 0.0779545 -0.11473
C_ C_ 0.373721 0.278486 0.0741493 -0.11473
C_ C_ 0.126981 0.252589 0.0561144 0.23465
C_ C_ 0.379891 0.240585 0.0551644 0.23465
C_ C_ 0.134243 0.290452 0.077171 -0.11473
C_ C_ 0.385372 0.206834 0.083733 -0.11473
C_ C_ 0.0316839 0.501132 0.24238 0.05793
C_ C_ 0.281213 0.501509 0.242464 0.05793
C_ C_ 0.220748 -0.000224242 0.251022 0.05793
C_ C_ 0.465517 0.998021 0.263054 0.05793
Br Br 0.0737758 0.498387 0.248672 -0.17191
Br Br 0.323451 0.499859 0.229475 -0.17191
Br Br 0.176135 -0.003502000000000005 0.253461 -0.17191
Br Br 0.42209 0.999691 0.275615 -0.17191
N_ N_ 0.115408 0.249455 0.353687 -0.272
N_ N_ 0.37727 0.248937 0.3539 -0.272
N_ N_ 0.126256 0.243226 0.488133 -0.12501
N_ N_ 0.38094 0.238481 0.483957 -0.12501
N_ N_ 0.128629 0.252691 0.142344 -0.272
N_ N_ 0.378815 0.249127 0.145359 -0.272
N_ N_ 0.11886 0.253822 0.0126166 -0.12501
N_ N_ 0.383064 0.235561 0.011177 -0.12501
O_ O_ 0.0938168 0.297916 0.211707 -0.60745
O_ O_ 0.341663 0.294048 0.211372 -0.60745
O_ O_ 0.0921183 0.295749 0.282829 -0.60745
O_ O_ 0.348579 0.302159 0.279851 -0.60745
O_ O_ 0.156068 0.292634 0.285735 -0.60745
O_ O_ 0.411386 0.292161 0.288382 -0.60745
O_ O_ 0.155429 0.295867 0.215258 -0.60745
O_ O_ 0.40718 0.292817 0.220438 -0.60745
O_ O_ 0.149208 0.202411 0.282127 -0.60745
O_ O_ 0.406333 0.20935 0.29006 -0.60745
O_ O_ 0.156645 0.209887 0.215304 -0.60745
O_ O_ 0.404065 0.207264 0.221872 -0.60745
O_ O_ 0.0904523 0.206298 0.215276 -0.60745
O_ O_ 0.345076 0.208066 0.212028 -0.60745
O_ O_ 0.0883572 0.208653 0.281768 -0.60745
O_ O_ 0.3416 0.216333 0.281066 -0.60745
Zn Zn 0.127293 0.246235 0.784774 0.9476
Zn Zn 0.376437 0.253416 0.78265 0.9476
Zn Zn 0.121246 0.247038 0.715776 0.9476
Zn Zn 0.375778 0.251283 0.714118 0.9476
H_ H_ 0.013894 0.394945 0.691596 0.10932
H_ H_ 0.277989 0.411451 0.679203 0.10932
H_ H_ 0.0833568 0.36766 0.81188 0.10932
H_ H_ 0.293932 0.337965 0.813386 0.10932
H_ H_ 0.0379577 0.328802 0.698641 0.10932
H_ H_ 0.302373 0.343486 0.680076 0.10932
H_ H_ 0.0588449 0.435658 0.805903 0.10932
H_ H_ 0.278273 0.411249 0.813147 0.10932
H_ H_ 0.211898 0.421221 0.812412 0.10932
H_ H_ 0.481763 0.406964 0.812926 0.10932
H_ H_ 0.177595 0.349217 0.683197 0.10932
H_ H_ 0.416084 0.373588 0.688753 0.10932
H_ H_ 0.17748 0.35745 0.814269 0.10932
H_ H_ 0.456831 0.336366 0.808575 0.10932
H_ H_ 0.215211 0.413345 0.681575 0.10932
H_ H_ 0.446297 0.438431 0.690017 0.10932
H_ H_ 0.223279 0.0798771 0.813725 0.10932
H_ H_ 0.469735 0.0866561 0.818864 0.10932
H_ H_ 0.181945 0.14419 0.683881 0.10932
H_ H_ 0.441529 0.155088 0.681756 0.10932
H_ H_ 0.193288 0.143536 0.821669 0.10932
H_ H_ 0.444417 0.158012 0.815148 0.10932
H_ H_ 0.213523 0.0830564 0.68134 0.10932
H_ H_ 0.466736 0.0865838 0.682998 0.10932
H_ H_ 0.0370429 0.0723122 0.682506 0.10932
H_ H_ 0.277523 0.0875522 0.684181 0.10932
H_ H_ 0.0615144 0.147263 0.812302 0.10932
H_ H_ 0.336876 0.130048 0.810489 0.10932
H_ H_ 0.065403 0.14007 0.678773 0.10932
H_ H_ 0.308305 0.153475 0.680815 0.10932
H_ H_ 0.0243407 0.0881838 0.814186 0.10932
H_ H_ 0.307232 0.0650863 0.809745 0.10932
H_ H_ 0.136361 0.307771 0.855263 0.10932
H_ H_ 0.333088 0.212911 0.854061 0.10932
H_ H_ 0.114307 0.181417 0.860108 0.10932
H_ H_ 0.407549 0.289681 0.854965 0.10932
H_ H_ 0.117855 0.183703 0.938355 0.10932
H_ H_ 0.410008 0.290167 0.933922 0.10932
H_ H_ 0.142351 0.311902 0.933216 0.10932
H_ H_ 0.332105 0.213182 0.929819 0.10932
H_ H_ 0.121521 0.187077 0.629692 0.10932
H_ H_ 0.409401 0.209827 0.637735 0.10932
H_ H_ 0.112397 0.317901 0.649484 0.10932
H_ H_ 0.353237 0.313816 0.639754 0.10932
H_ H_ 0.109434 0.325525 0.571046 0.10932
H_ H_ 0.352952 0.319539 0.566043 0.10932
H_ H_ 0.119495 0.195285 0.553827 0.10932
H_ H_ 0.407078 0.209098 0.560035 0.10932
C_ C_ 0.0688235 0.347915 0.751036 -0.02249
C_ C_ 0.306159 0.337842 0.746806 -0.02249
C_ C_ 0.0183089 0.461517 0.745303 -0.02249
C_ C_ 0.263688 0.459341 0.745356 -0.02249
C_ C_ 0.0315877 0.391452 0.716047 -0.11473
C_ C_ 0.282945 0.396785 0.708304 -0.11473
C_ C_ 0.0684345 0.375865 0.786543 -0.11473
C_ C_ 0.293918 0.355193 0.782153 -0.11473
C_ C_ 0.0459974 0.354597 0.719068 -0.11473
C_ C_ 0.298551 0.357753 0.707446 -0.11473
C_ C_ 0.0359505 0.421961 0.747072 -0.02249
C_ C_ 0.27837 0.418095 0.745498 -0.02249
C_ C_ 0.0877293 0.310926 0.749231 0.6875
C_ C_ 0.330062 0.304392 0.748707 0.6875
C_ C_ 0.0535534 0.413031 0.783296 -0.11473
C_ C_ 0.283458 0.396359 0.783266 -0.11473
C_ C_ 0.180835 0.347613 0.749267 -0.02249
C_ C_ 0.434899 0.350106 0.747589 -0.02249
C_ C_ 0.233006 0.461355 0.743948 -0.02249
C_ C_ 0.483818 0.465238 0.752086 -0.02249
C_ C_ 0.203879 0.406647 0.786224 -0.11473
C_ C_ 0.466686 0.399722 0.787037 -0.11473
C_ C_ 0.188495 0.365471 0.710153 -0.11473
C_ C_ 0.432586 0.378864 0.715103 -0.11473
C_ C_ 0.186412 0.370493 0.786226 -0.11473
C_ C_ 0.453334 0.360109 0.783692 -0.11473
C_ C_ 0.213432 0.423149 0.746964 -0.02249
C_ C_ 0.46775 0.425271 0.751768 -0.02249
C_ C_ 0.16337 0.30807 0.752323 0.6875
C_ C_ 0.413028 0.316011 0.749853 0.6875
C_ C_ 0.207514 0.400926 0.707991 -0.11473
C_ C_ 0.448089 0.416019 0.71637 -0.11473
C_ C_ 0.187135 0.149928 0.751594 -0.02249
C_ C_ 0.441952 0.161388 0.748351 -0.02249
C_ C_ 0.237968 0.0379896 0.746807 -0.02249
C_ C_ 0.484072 0.0401764 0.751725 -0.02249
C_ C_ 0.216707 0.0953057 0.786177 -0.11473
C_ C_ 0.464407 0.101864 0.789827 -0.11473
C_ C_ 0.191623 0.129561 0.71235 -0.11473
C_ C_ 0.447174 0.139989 0.710904 -0.11473
C_ C_ 0.199099 0.131818 0.788775 -0.11473
C_ C_ 0.450488 0.142697 0.78818 -0.11473
C_ C_ 0.221478 0.076576 0.747116 -0.02249
C_ C_ 0.4682 0.0811026 0.751412 -0.02249
C_ C_ 0.16517 0.186465 0.75297 0.6875
C_ C_ 0.420444 0.197442 0.74799 0.6875
C_ C_ 0.212625 0.0982308 0.710552 -0.11473
C_ C_ 0.460763 0.100225 0.713116 -0.11473
C_ C_ 0.0688199 0.14528 0.748284 -0.02249
C_ C_ 0.322851 0.147323 0.745269 -0.02249
C_ C_ 0.0142533 0.0350826 0.749816 -0.02249
C_ C_ 0.270498 0.0371256 0.752227 -0.02249
C_ C_ 0.0419938 0.0897703 0.710899 -0.11473
C_ C_ 0.287226 0.0990168 0.71252 -0.11473
C_ C_ 0.0548734 0.131962 0.784845 -0.11473
C_ C_ 0.324388 0.121173 0.781271 -0.11473
C_ C_ 0.0586238 0.127773 0.710155 -0.11473
C_ C_ 0.307875 0.133195 0.708048 -0.11473
C_ C_ 0.0297877 0.0757728 0.748492 -0.02249
C_ C_ 0.287804 0.0761126 0.749614 -0.02249
C_ C_ 0.0885904 0.18398 0.747795 0.6875
C_ C_ 0.33821 0.189866 0.744553 0.6875
C_ C_ 0.0322212 0.101858 0.783573 -0.11473
C_ C_ 0.308037 0.0851501 0.782381 -0.11473
C_ C_ 0.134353 0.280822 0.874985 0.17695
C_ C_ 0.350533 0.228405 0.87214 0.17695
C_ C_ 0.122282 0.208905 0.876166 0.17695
C_ C_ 0.392189 0.272063 0.872791 0.17695
C_ C_ 0.122314 0.211114 0.920516 -0.11473
C_ C_ 0.391742 0.274255 0.916494 -0.11473
C_ C_ 0.128773 0.247876 0.941557 0.23465
C_ C_ 0.370339 0.252498 0.938383 0.23465
C_ C_ 0.134872 0.283019 0.918423 -0.11473
C_ C_ 0.349564 0.228847 0.913987 -0.11473
C_ C_ 0.123085 0.218827 0.617873 0.17695
C_ C_ 0.395857 0.232357 0.621073 0.17695
C_ C_ 0.117934 0.290492 0.629738 0.17695
C_ C_ 0.363459 0.290207 0.62349 0.17695
C_ C_ 0.11523 0.295882 0.585674 -0.11473
C_ C_ 0.36484 0.293134 0.57962 -0.11473
C_ C_ 0.116924 0.262126 0.55833 0.23465
C_ C_ 0.378003 0.261722 0.554108 0.23465
C_ C_ 0.119508 0.223221 0.574931 -0.11473
C_ C_ 0.394872 0.231805 0.576653 -0.11473
C_ C_ 0.0337791 0.498087 0.737727 0.05793
C_ C_ 0.280665 0.497228 0.747529 0.05793
C_ C_ 0.221326 0.000736648 0.750967 0.05793
C_ C_ 0.468221 1.00156705 0.760358 0.05793
Br Br 0.0761904 0.495374 0.719404 -0.17191
Br Br 0.324363 0.497801 0.749813 -0.17191
Br Br 0.179037 0.0121049 0.758108 -0.17191
Br Br 0.423144 1.00260341 0.761961 -0.17191
N_ N_ 0.126684 0.24357 0.854714 -0.272
N_ N_ 0.370671 0.251434 0.851438 -0.272
N_ N_ 0.137711 0.248351 0.984552 -0.12501
N_ N_ 0.367085 0.255285 0.984827 -0.12501
N_ N_ 0.118722 0.250976 0.644809 -0.272
N_ N_ 0.377998 0.257995 0.643622 -0.272
N_ N_ 0.114331 0.268143 0.51353 -0.12501
N_ N_ 0.372613 0.264828 0.509088 -0.12501
O_ O_ 0.0899076 0.288914 0.715467 -0.60745
O_ O_ 0.340997 0.28987 0.715202 -0.60745
O_ O_ 0.0993327 0.296506 0.78229 -0.60745
O_ O_ 0.340263 0.289336 0.783794 -0.60745
O_ O_ 0.157865 0.293035 0.788113 -0.60745
O_ O_ 0.402575 0.303553 0.785121 -0.60745
O_ O_ 0.15264 0.291306 0.719503 -0.60745
O_ O_ 0.403923 0.299056 0.716479 -0.60745
O_ O_ 0.157059 0.198905 0.787867 -0.60745
O_ O_ 0.410383 0.211088 0.781989 -0.60745
O_ O_ 0.153596 0.201379 0.718678 -0.60745
O_ O_ 0.409719 0.211921 0.714149 -0.60745
O_ O_ 0.0885878 0.20633 0.716124 -0.60745
O_ O_ 0.348453 0.203743 0.710613 -0.60745
O_ O_ 0.097478 0.200432 0.781789 -0.60745
O_ O_ 0.348588 0.205993 0.779095 -0.60745
Zn Zn 0.128603 0.751505 0.293159 0.9476
Zn Zn 0.372176 0.750445 0.285579 0.9476
Zn Zn 0.126967 0.752498 0.223011 0.9476
Zn Zn 0.373367 0.746032 0.215666 0.9476
H_ H_ 0.0388966 0.9247 0.198189 0.10932
H_ H_ 0.288013 0.919549 0.185268 0.10932
H_ H_ 0.0525374 0.838273 0.326907 0.10932
H_ H_ 0.326215 0.862894 0.318535 0.10932
H_ H_ 0.0746874 0.863593 0.195153 0.10932
H_ H_ 0.315802 0.853919 0.185803 0.10932
H_ H_ 0.0246188 0.905616 0.327575 0.10932
H_ H_ 0.292468 0.921383 0.320281 0.10932
H_ H_ 0.239649 0.900605 0.312751 0.10932
H_ H_ 0.477469 0.904899 0.319044 0.10932
H_ H_ 0.169682 0.864705 0.191738 0.10932
H_ H_ 0.421063 0.856814 0.188263 0.10932
H_ H_ 0.208258 0.837646 0.313608 0.10932
H_ H_ 0.450468 0.834491 0.315912 0.10932
H_ H_ 0.2034 0.927759 0.188676 0.10932
H_ H_ 0.44971 0.923392 0.189814 0.10932
H_ H_ 0.205935 0.57437 0.323152 0.10932
H_ H_ 0.451609 0.573707 0.321893 0.10932
H_ H_ 0.192535 0.653563 0.193033 0.10932
H_ H_ 0.460887 0.665656 0.200284 0.10932
H_ H_ 0.179191 0.637727 0.323827 0.10932
H_ H_ 0.42474 0.637832 0.322087 0.10932
H_ H_ 0.221956 0.589237 0.191423 0.10932
H_ H_ 0.475535 0.590771 0.192834 0.10932
H_ H_ 0.0453417 0.576456 0.18507 0.10932
H_ H_ 0.285749 0.58144 0.184567 0.10932
H_ H_ 0.0520902 0.653634 0.319877 0.10932
H_ H_ 0.322174 0.641898 0.317373 0.10932
H_ H_ 0.0734338 0.647384 0.190424 0.10932
H_ H_ 0.304659 0.654075 0.183741 0.10932
H_ H_ 0.027953 0.587406 0.314937 0.10932
H_ H_ 0.288034 0.58231 0.319228 0.10932
H_ H_ 0.132132 0.812698 0.365646 0.10932
H_ H_ 0.345247 0.698269 0.358914 0.10932
H_ H_ 0.13782 0.684491 0.369562 0.10932
H_ H_ 0.399585 0.805112 0.367519 0.10932
H_ H_ 0.128635 0.684037 0.447955 0.10932
H_ H_ 0.401397 0.799175 0.442259 0.10932
H_ H_ 0.12614 0.815666 0.442781 0.10932
H_ H_ 0.352304 0.683996 0.437201 0.10932
H_ H_ 0.12897 0.68849 0.154197 0.10932
H_ H_ 0.351505 0.805993 0.145161 0.10932
H_ H_ 0.113822 0.816315 0.143703 0.10932
H_ H_ 0.398291 0.693571 0.141332 0.10932
H_ H_ 0.11751 0.81207 0.0635251 0.10932
H_ H_ 0.399705 0.697518 0.0638227 0.10932
H_ H_ 0.127125 0.679099 0.0803916 0.10932
H_ H_ 0.351533 0.811488 0.0648442 0.10932
C_ C_ 0.0656932 0.847168 0.259876 -0.02249
C_ C_ 0.322119 0.851389 0.253689 -0.02249
C_ C_ 0.0139762 0.960676 0.265337 -0.02249
C_ C_ 0.269312 0.964938 0.254256 -0.02249
C_ C_ 0.0441995 0.907184 0.225723 -0.11473
C_ C_ 0.292989 0.905011 0.214487 -0.11473
C_ C_ 0.0538371 0.860525 0.299162 -0.11473
C_ C_ 0.315428 0.872344 0.290277 -0.11473
C_ C_ 0.0624652 0.87329 0.223172 -0.11473
C_ C_ 0.310942 0.869439 0.214614 -0.11473
C_ C_ 0.0313873 0.921408 0.263838 -0.02249
C_ C_ 0.287522 0.925525 0.252292 -0.02249
C_ C_ 0.0869566 0.813439 0.260283 0.6875
C_ C_ 0.33464 0.809601 0.252214 0.6875
C_ C_ 0.0360981 0.897932 0.30018 -0.11473
C_ C_ 0.297735 0.908477 0.290722 -0.11473
C_ C_ 0.186958 0.84866 0.254094 -0.02249
C_ C_ 0.434005 0.843423 0.252341 -0.02249
C_ C_ 0.238327 0.962197 0.249191 -0.02249
C_ C_ 0.480275 0.96089 0.252878 -0.02249
C_ C_ 0.225782 0.892994 0.283768 -0.11473
C_ C_ 0.465538 0.892946 0.291696 -0.11473
C_ C_ 0.186591 0.872354 0.217591 -0.11473
C_ C_ 0.431727 0.869191 0.217399 -0.11473
C_ C_ 0.207899 0.855797 0.286403 -0.11473
C_ C_ 0.45263 0.853667 0.287819 -0.11473
C_ C_ 0.22235 0.920325 0.249557 -0.02249
C_ C_ 0.462569 0.920579 0.255339 -0.02249
C_ C_ 0.166251 0.812264 0.257625 0.6875
C_ C_ 0.414446 0.805386 0.251135 0.6875
C_ C_ 0.203768 0.907872 0.216048 -0.11473
C_ C_ 0.447739 0.906391 0.218181 -0.11473
C_ C_ 0.184716 0.652452 0.25896 -0.02249
C_ C_ 0.434281 0.654872 0.257016 -0.02249
C_ C_ 0.234085 0.538577 0.255929 -0.02249
C_ C_ 0.484887 0.54131 0.257353 -0.02249
C_ C_ 0.204566 0.592401 0.295341 -0.11473
C_ C_ 0.450596 0.591187 0.29386 -0.11473
C_ C_ 0.194564 0.63566 0.220999 -0.11473
C_ C_ 0.45325 0.643202 0.22221 -0.11473
C_ C_ 0.186449 0.627769 0.293849 -0.11473
C_ C_ 0.433901 0.626666 0.292318 -0.11473
C_ C_ 0.216845 0.577221 0.258603 -0.02249
C_ C_ 0.468382 0.579741 0.258958 -0.02249
C_ C_ 0.167176 0.690701 0.259057 0.6875
C_ C_ 0.411585 0.688402 0.253541 0.6875
C_ C_ 0.211903 0.599561 0.220171 -0.11473
C_ C_ 0.468639 0.604952 0.222857 -0.11473
C_ C_ 0.0704371 0.651483 0.257018 -0.02249
C_ C_ 0.313911 0.653029 0.251116 -0.02249
C_ C_ 0.0173452 0.539213 0.247897 -0.02249
C_ C_ 0.265976 0.538469 0.246402 -0.02249
C_ C_ 0.0505517 0.593084 0.214094 -0.11473
C_ C_ 0.288529 0.59835 0.212527 -0.11473
C_ C_ 0.0538571 0.637168 0.291084 -0.11473
C_ C_ 0.311417 0.631625 0.288494 -0.11473
C_ C_ 0.0654964 0.633127 0.217328 -0.11473
C_ C_ 0.304639 0.636201 0.212813 -0.11473
C_ C_ 0.0354393 0.578966 0.249502 -0.02249
C_ C_ 0.283901 0.577473 0.24915 -0.02249
C_ C_ 0.0866638 0.691349 0.258975 0.6875
C_ C_ 0.331443 0.692283 0.25268 0.6875
C_ C_ 0.0390584 0.598743 0.288154 -0.11473
C_ C_ 0.294202 0.594393 0.288444 -0.11473
C_ C_ 0.129647 0.784834 0.384099 0.17695
C_ C_ 0.360842 0.714614 0.376752 0.17695
C_ C_ 0.130833 0.712175 0.385721 0.17695
C_ C_ 0.389093 0.777567 0.381877 0.17695
C_ C_ 0.130314 0.711708 0.429178 -0.11473
C_ C_ 0.389536 0.774804 0.425648 -0.11473
C_ C_ 0.133306 0.749376 0.4497 0.23465
C_ C_ 0.378158 0.739774 0.446413 0.23465
C_ C_ 0.130196 0.786368 0.427075 -0.11473
C_ C_ 0.363632 0.709165 0.422235 -0.11473
C_ C_ 0.123916 0.714731 0.135791 0.17695
C_ C_ 0.360504 0.780564 0.124466 0.17695
C_ C_ 0.119107 0.786824 0.127609 0.17695
C_ C_ 0.387172 0.718617 0.12368 0.17695
C_ C_ 0.11857 0.783875 0.0830292 -0.11473
C_ C_ 0.386551 0.72046 0.0785931 -0.11473
C_ C_ 0.120835 0.744234 0.0647793 0.23465
C_ C_ 0.372075 0.752945 0.0568734 0.23465
C_ C_ 0.125289 0.710184 0.0911826 -0.11473
C_ C_ 0.360528 0.784236 0.0811204 -0.11473
C_ C_ 0.0297746 0.998216 0.274374 0.05793
C_ C_ 0.284006 1.00325131 0.253011 0.05793
C_ C_ 0.217821 0.500461 0.255056 0.05793
C_ C_ 0.468558 0.503034 0.253705 0.05793
Br Br 0.0702199 -0.0018380000000000063 0.298916 -0.17191
Br Br 0.325355 1.00704246 0.256412 -0.17191
Br Br 0.175426 0.498155 0.261413 -0.17191
Br Br 0.425515 0.501694 0.245976 -0.17191
N_ N_ 0.129942 0.748532 0.362779 -0.272
N_ N_ 0.375357 0.746565 0.357757 -0.272
N_ N_ 0.136212 0.753049 0.493801 -0.12501
N_ N_ 0.380153 0.736512 0.491706 -0.12501
N_ N_ 0.124269 0.752896 0.153037 -0.272
N_ N_ 0.372102 0.747731 0.144372 -0.272
N_ N_ 0.120858 0.736439 0.0206021 -0.12501
N_ N_ 0.370801 0.757403 0.0111898 -0.12501
O_ O_ 0.0960347 0.800259 0.224832 -0.60745
O_ O_ 0.348172 0.796731 0.219916 -0.60745
O_ O_ 0.0979633 0.797675 0.294167 -0.60745
O_ O_ 0.3364 0.786922 0.284114 -0.60745
O_ O_ 0.162039 0.794638 0.293014 -0.60745
O_ O_ 0.40172 0.796031 0.284981 -0.60745
O_ O_ 0.158629 0.795113 0.223739 -0.60745
O_ O_ 0.40717 0.785935 0.217838 -0.60745
O_ O_ 0.159344 0.705906 0.293573 -0.60745
O_ O_ 0.406029 0.710504 0.285282 -0.60745
O_ O_ 0.159355 0.707342 0.224998 -0.60745
O_ O_ 0.40142 0.698447 0.217672 -0.60745
O_ O_ 0.0953044 0.707365 0.225493 -0.60745
O_ O_ 0.337482 0.707758 0.216447 -0.60745
O_ O_ 0.0967312 0.707138 0.293503 -0.60745
O_ O_ 0.345755 0.702687 0.286074 -0.60745
Zn Zn 0.128114 0.74895 0.788065 0.9476
Zn Zn 0.374799 0.75086 0.786151 0.9476
Zn Zn 0.126414 0.751774 0.717732 0.9476
Zn Zn 0.371546 0.7493 0.717918 0.9476
H_ H_ 0.0440268 0.931012 0.690635 0.10932
H_ H_ 0.267097 0.896896 0.696176 0.10932
H_ H_ 0.0617227 0.844357 0.815376 0.10932
H_ H_ 0.331534 0.865282 0.825619 0.10932
H_ H_ 0.0665834 0.861473 0.681485 0.10932
H_ H_ 0.292601 0.828571 0.704722 0.10932
H_ H_ 0.0225976 0.903429 0.818826 0.10932
H_ H_ 0.303271 0.931679 0.819526 0.10932
H_ H_ 0.225565 0.909721 0.82377 0.10932
H_ H_ 0.46668 0.914847 0.822139 0.10932
H_ H_ 0.180764 0.860368 0.688458 0.10932
H_ H_ 0.425974 0.855672 0.691228 0.10932
H_ H_ 0.192858 0.845828 0.820292 0.10932
H_ H_ 0.438037 0.8502 0.822201 0.10932
H_ H_ 0.208377 0.92623 0.692249 0.10932
H_ H_ 0.458941 0.917554 0.690432 0.10932
H_ H_ 0.203443 0.570262 0.813236 0.10932
H_ H_ 0.485891 0.602036 0.806008 0.10932
H_ H_ 0.208187 0.661781 0.692246 0.10932
H_ H_ 0.410871 0.627767 0.690367 0.10932
H_ H_ 0.173628 0.636323 0.81418 0.10932
H_ H_ 0.464395 0.676053 0.795286 0.10932
H_ H_ 0.223365 0.594078 0.683325 0.10932
H_ H_ 0.435666 0.55836 0.700207 0.10932
H_ H_ 0.0359094 0.586346 0.675863 0.10932
H_ H_ 0.293403 0.57444 0.680925 0.10932
H_ H_ 0.057903 0.651562 0.811385 0.10932
H_ H_ 0.299002 0.655038 0.812131 0.10932
H_ H_ 0.0674998 0.648518 0.681888 0.10932
H_ H_ 0.322494 0.637324 0.681628 0.10932
H_ H_ 0.0342688 0.575808 0.810997 0.10932
H_ H_ 0.267006 0.595218 0.808537 0.10932
H_ H_ 0.122993 0.816791 0.862464 0.10932
H_ H_ 0.372745 0.810205 0.862622 0.10932
H_ H_ 0.111785 0.693104 0.869589 0.10932
H_ H_ 0.38055 0.681904 0.846893 0.10932
H_ H_ 0.118204 0.692682 0.949734 0.10932
H_ H_ 0.372813 0.672442 0.926518 0.10932
H_ H_ 0.132258 0.823809 0.940236 0.10932
H_ H_ 0.369398 0.801881 0.942391 0.10932
H_ H_ 0.130548 0.679741 0.653214 0.10932
H_ H_ 0.348519 0.811656 0.646274 0.10932
H_ H_ 0.125547 0.808636 0.638255 0.10932
H_ H_ 0.385591 0.693116 0.64059 0.10932
H_ H_ 0.127472 0.804307 0.563157 0.10932
H_ H_ 0.387723 0.697436 0.561492 0.10932
H_ H_ 0.12746 0.670452 0.577081 0.10932
H_ H_ 0.345456 0.816117 0.567043 0.10932
C_ C_ 0.0644228 0.844569 0.749259 -0.02249
C_ C_ 0.315401 0.843789 0.765024 -0.02249
C_ C_ 0.0159536 0.958805 0.758336 -0.02249
C_ C_ 0.267951 0.960705 0.757399 -0.02249
C_ C_ 0.0439747 0.908796 0.715914 -0.11473
C_ C_ 0.280345 0.890832 0.725383 -0.11473
C_ C_ 0.0528165 0.860184 0.786654 -0.11473
C_ C_ 0.316895 0.872527 0.79875 -0.11473
C_ C_ 0.0600536 0.870391 0.712857 -0.11473
C_ C_ 0.296196 0.85358 0.729897 -0.11473
C_ C_ 0.0316153 0.92098 0.753317 -0.02249
C_ C_ 0.283383 0.918971 0.760375 -0.02249
C_ C_ 0.084829 0.806189 0.74674 0.6875
C_ C_ 0.336725 0.807976 0.761249 0.6875
C_ C_ 0.0336723 0.894954 0.788414 -0.11473
C_ C_ 0.301024 0.908544 0.796343 -0.11473
C_ C_ 0.183451 0.85049 0.756721 -0.02249
C_ C_ 0.432572 0.84605 0.755102 -0.02249
C_ C_ 0.235019 0.962371 0.756959 -0.02249
C_ C_ 0.482127 0.96274 0.75579 -0.02249
C_ C_ 0.214667 0.900742 0.794925 -0.11473
C_ C_ 0.459777 0.900751 0.792225 -0.11473
C_ C_ 0.18776 0.872187 0.718989 -0.11473
C_ C_ 0.438361 0.867755 0.718675 -0.11473
C_ C_ 0.196826 0.8655 0.794787 -0.11473
C_ C_ 0.442669 0.865207 0.791999 -0.11473
C_ C_ 0.216477 0.925847 0.760064 -0.02249
C_ C_ 0.464163 0.922351 0.75516 -0.02249
C_ C_ 0.163263 0.81343 0.754661 0.6875
C_ C_ 0.411228 0.811528 0.754662 0.6875
C_ C_ 0.202499 0.911555 0.722578 -0.11473
C_ C_ 0.45348 0.904982 0.719002 -0.11473
C_ C_ 0.189405 0.657008 0.755047 -0.02249
C_ C_ 0.433331 0.65489 0.744526 -0.02249
C_ C_ 0.233058 0.537057 0.745402 -0.02249
C_ C_ 0.483038 0.541321 0.748517 -0.02249
C_ C_ 0.201524 0.589458 0.784078 -0.11473
C_ C_ 0.470259 0.61118 0.779944 -0.11473
C_ C_ 0.203627 0.642851 0.717215 -0.11473
C_ C_ 0.427512 0.623102 0.714943 -0.11473
C_ C_ 0.188726 0.628314 0.788443 -0.11473
C_ C_ 0.45573 0.649864 0.775733 -0.11473
C_ C_ 0.216421 0.577569 0.747551 -0.02249
C_ C_ 0.465059 0.579658 0.749331 -0.02249
C_ C_ 0.170569 0.695133 0.755776 0.6875
C_ C_ 0.412785 0.690495 0.745655 0.6875
C_ C_ 0.215233 0.602883 0.713187 -0.11473
C_ C_ 0.441472 0.584611 0.72004 -0.11473
C_ C_ 0.0682177 0.65102 0.747449 -0.02249
C_ C_ 0.313102 0.651423 0.746865 -0.02249
C_ C_ 0.0184463 0.536313 0.743154 -0.02249
C_ C_ 0.265132 0.535599 0.746377 -0.02249
C_ C_ 0.0432487 0.596606 0.708134 -0.11473
C_ C_ 0.296181 0.590301 0.711147 -0.11473
C_ C_ 0.0577397 0.632416 0.785541 -0.11473
C_ C_ 0.299961 0.636307 0.784143 -0.11473
C_ C_ 0.0602745 0.631783 0.709663 -0.11473
C_ C_ 0.313512 0.625116 0.713008 -0.11473
C_ C_ 0.0363791 0.57567 0.744392 -0.02249
C_ C_ 0.28263 0.575141 0.747514 -0.02249
C_ C_ 0.0894485 0.68876 0.749382 0.6875
C_ C_ 0.332763 0.6901 0.747607 0.6875
C_ C_ 0.0423523 0.593462 0.78425 -0.11473
C_ C_ 0.283141 0.600399 0.784024 -0.11473
C_ C_ 0.123932 0.791156 0.880091 0.17695
C_ C_ 0.372977 0.780598 0.877949 0.17695
C_ C_ 0.117939 0.718765 0.886033 0.17695
C_ C_ 0.379181 0.70724 0.868452 0.17695
C_ C_ 0.120487 0.720484 0.929879 -0.11473
C_ C_ 0.378197 0.70146 0.912664 -0.11473
C_ C_ 0.128263 0.759098 0.949584 0.23465
C_ C_ 0.37647 0.73634 0.939978 0.23465
C_ C_ 0.129335 0.793906 0.924324 -0.11473
C_ C_ 0.371774 0.775357 0.922528 -0.11473
C_ C_ 0.131937 0.706308 0.632694 0.17695
C_ C_ 0.358363 0.787254 0.627324 0.17695
C_ C_ 0.129952 0.779305 0.62449 0.17695
C_ C_ 0.379723 0.721564 0.623776 0.17695
C_ C_ 0.130915 0.775846 0.58117 -0.11473
C_ C_ 0.379196 0.724179 0.58037 -0.11473
C_ C_ 0.124809 0.736814 0.563808 0.23465
C_ C_ 0.369138 0.759737 0.559572 0.23465
C_ C_ 0.126927 0.701629 0.591407 -0.11473
C_ C_ 0.355178 0.788749 0.58282 -0.11473
C_ C_ 0.030301 -0.0013959999999999528 0.755957 0.05793
C_ C_ 0.284729 -0.0025600000000000067 0.75191 0.05793
C_ C_ 0.217166 0.500185 0.73919 0.05793
C_ C_ 0.467893 0.503131 0.756839 0.05793
Br Br 0.0713317 -0.0011090000000000266 0.769221 -0.17191
Br Br 0.325737 -0.0069709999999999495 0.727855 -0.17191
Br Br 0.173807 0.499802 0.729645 -0.17191
Br Br 0.436446 0.504712 0.795776 -0.17191
N_ N_ 0.123061 0.752838 0.86114 -0.272
N_ N_ 0.378288 0.746258 0.853458 -0.272
N_ N_ 0.127496 0.764917 0.995329 -0.12501
N_ N_ 0.378881 0.730544 0.985843 -0.12501
N_ N_ 0.132032 0.744577 0.649446 -0.272
N_ N_ 0.368798 0.753127 0.646285 -0.272
N_ N_ 0.121321 0.731298 0.518993 -0.12501
N_ N_ 0.371485 0.765429 0.515406 -0.12501
O_ O_ 0.0955219 0.794628 0.711599 -0.60745
O_ O_ 0.338165 0.790881 0.725846 -0.60745
O_ O_ 0.0931663 0.789175 0.780495 -0.60745
O_ O_ 0.345738 0.788881 0.79205 -0.60745
O_ O_ 0.154734 0.796107 0.787098 -0.60745
O_ O_ 0.406397 0.793206 0.788843 -0.60745
O_ O_ 0.155657 0.796425 0.720698 -0.60745
O_ O_ 0.402625 0.795511 0.721352 -0.60745
O_ O_ 0.161665 0.708468 0.790867 -0.60745
O_ O_ 0.404551 0.704913 0.780739 -0.60745
O_ O_ 0.159963 0.708938 0.720996 -0.60745
O_ O_ 0.402253 0.705736 0.712501 -0.60745
O_ O_ 0.0949728 0.710325 0.717743 -0.60745
O_ O_ 0.341754 0.706235 0.713923 -0.60745
O_ O_ 0.0984603 0.702494 0.783988 -0.60745
O_ O_ 0.343138 0.706028 0.782803 -0.60745
Zn Zn 0.621447 0.249412 0.282164 0.9476
Zn Zn 0.874803 0.250711 0.276961 0.9476
Zn Zn 0.624447 0.247419 0.214209 0.9476
Zn Zn 0.875621 0.250096 0.205756 0.9476
H_ H_ 0.535527 0.429033 0.196726 0.10932
H_ H_ 0.787937 0.423497 0.168898 0.10932
H_ H_ 0.567829 0.346392 0.323147 0.10932
H_ H_ 0.805847 0.34567 0.30067 0.10932
H_ H_ 0.56729 0.362779 0.187561 0.10932
H_ H_ 0.817183 0.353313 0.167915 0.10932
H_ H_ 0.531322 0.409083 0.329755 0.10932
H_ H_ 0.786908 0.415822 0.302303 0.10932
H_ H_ 0.725842 0.40835 0.306834 0.10932
H_ H_ 0.973857 0.412901 0.310868 0.10932
H_ H_ 0.691493 0.342845 0.171186 0.10932
H_ H_ 0.926833 0.361722 0.171129 0.10932
H_ H_ 0.694207 0.344219 0.308445 0.10932
H_ H_ 0.949271 0.337482 0.302993 0.10932
H_ H_ 0.720953 0.407389 0.171072 0.10932
H_ H_ 0.958177 0.42644 0.175085 0.10932
H_ H_ 0.706501 0.078128 0.324237 0.10932
H_ H_ 0.953637 0.070521 0.311418 0.10932
H_ H_ 0.681173 0.14247 0.18849 0.10932
H_ H_ 0.945183 0.15171 0.176095 0.10932
H_ H_ 0.678729 0.142163 0.324761 0.10932
H_ H_ 0.92422 0.139839 0.30908 0.10932
H_ H_ 0.715805 0.0804191 0.190659 0.10932
H_ H_ 0.98029 0.0948004 0.182005 0.10932
H_ H_ 0.532749 0.0804264 0.189138 0.10932
H_ H_ 0.798884 0.0661687 0.180546 0.10932
H_ H_ 0.577976 0.130648 0.320464 0.10932
H_ H_ 0.803146 0.157088 0.305293 0.10932
H_ H_ 0.556951 0.147669 0.187999 0.10932
H_ H_ 0.829446 0.133112 0.179815 0.10932
H_ H_ 0.548812 0.0665771 0.318971 0.10932
H_ H_ 0.774898 0.0940515 0.307916 0.10932
H_ H_ 0.616453 0.190597 0.352961 0.10932
H_ H_ 0.894555 0.188683 0.356603 0.10932
H_ H_ 0.626846 0.319243 0.351848 0.10932
H_ H_ 0.858809 0.313 0.347425 0.10932
H_ H_ 0.623452 0.327927 0.427102 0.10932
H_ H_ 0.867494 0.32175 0.428336 0.10932
H_ H_ 0.624168 0.193057 0.435811 0.10932
H_ H_ 0.896104 0.195159 0.436054 0.10932
H_ H_ 0.631869 0.178429 0.137863 0.10932
H_ H_ 0.832907 0.285448 0.131294 0.10932
H_ H_ 0.618438 0.309208 0.136106 0.10932
H_ H_ 0.917245 0.222566 0.127844 0.10932
H_ H_ 0.620015 0.30736 0.0588039 0.10932
H_ H_ 0.911381 0.212559 0.0509914 0.10932
H_ H_ 0.625139 0.175479 0.0603518 0.10932
H_ H_ 0.830992 0.29381 0.0572696 0.10932
C_ C_ 0.568609 0.348996 0.252686 -0.02249
C_ C_ 0.814551 0.344031 0.234913 -0.02249
C_ C_ 0.515693 0.463107 0.266267 -0.02249
C_ C_ 0.767625 0.461416 0.23508 -0.02249
C_ C_ 0.543698 0.411124 0.224162 -0.11473
C_ C_ 0.79469 0.405218 0.197448 -0.11473
C_ C_ 0.559381 0.361748 0.294191 -0.11473
C_ C_ 0.807055 0.363359 0.273072 -0.11473
C_ C_ 0.562419 0.375737 0.21895 -0.11473
C_ C_ 0.808607 0.36663 0.196006 -0.11473
C_ C_ 0.534238 0.423749 0.263892 -0.02249
C_ C_ 0.786127 0.423313 0.234118 -0.02249
C_ C_ 0.586651 0.310248 0.249372 0.6875
C_ C_ 0.833922 0.306843 0.236942 0.6875
C_ C_ 0.540095 0.397706 0.299162 -0.11473
C_ C_ 0.794441 0.403485 0.272871 -0.11473
C_ C_ 0.685623 0.344381 0.239636 -0.02249
C_ C_ 0.933125 0.348891 0.238928 -0.02249
C_ C_ 0.735776 0.458066 0.239116 -0.02249
C_ C_ 0.982673 0.465764 0.241425 -0.02249
C_ C_ 0.714976 0.397502 0.278284 -0.11473
C_ C_ 0.964209 0.400465 0.278744 -0.11473
C_ C_ 0.695259 0.361173 0.201914 -0.11473
C_ C_ 0.936968 0.371731 0.200583 -0.11473
C_ C_ 0.698412 0.361192 0.278226 -0.11473
C_ C_ 0.948414 0.360836 0.276126 -0.11473
C_ C_ 0.720546 0.416889 0.238861 -0.02249
C_ C_ 0.964225 0.42579 0.242421 -0.02249
C_ C_ 0.663765 0.307068 0.239654 0.6875
C_ C_ 0.914026 0.313117 0.237793 0.6875
C_ C_ 0.712193 0.397644 0.201107 -0.11473
C_ C_ 0.952985 0.409572 0.204061 -0.11473
C_ C_ 0.681264 0.152126 0.255207 -0.02249
C_ C_ 0.933842 0.151679 0.243588 -0.02249
C_ C_ 0.733215 0.0385299 0.259657 -0.02249
C_ C_ 0.986344 0.0371605 0.247646 -0.02249
C_ C_ 0.705506 0.0950473 0.295106 -0.11473
C_ C_ 0.952904 0.0904541 0.282752 -0.11473
C_ C_ 0.691278 0.133448 0.218394 -0.11473
C_ C_ 0.94877 0.137563 0.207117 -0.11473
C_ C_ 0.686957 0.13201 0.294399 -0.11473
C_ C_ 0.937788 0.129919 0.281601 -0.11473
C_ C_ 0.716566 0.0775656 0.257625 -0.02249
C_ C_ 0.969242 0.0773306 0.246308 -0.02249
C_ C_ 0.662518 0.190007 0.25252 0.6875
C_ C_ 0.914719 0.189909 0.242719 0.6875
C_ C_ 0.708677 0.0975283 0.219383 -0.11473
C_ C_ 0.96935 0.103549 0.210845 -0.11473
C_ C_ 0.566098 0.148686 0.256749 -0.02249
C_ C_ 0.81849 0.149237 0.242916 -0.02249
C_ C_ 0.512835 0.0349001 0.253689 -0.02249
C_ C_ 0.763192 0.0376231 0.246497 -0.02249
C_ C_ 0.538613 0.0949839 0.219278 -0.11473
C_ C_ 0.797813 0.0881265 0.206791 -0.11473
C_ C_ 0.565571 0.121263 0.29186 -0.11473
C_ C_ 0.802511 0.137818 0.278848 -0.11473
C_ C_ 0.555056 0.131982 0.218409 -0.11473
C_ C_ 0.816727 0.124579 0.207069 -0.11473
C_ C_ 0.531571 0.07357 0.256485 -0.02249
C_ C_ 0.77993 0.0782609 0.241769 -0.02249
C_ C_ 0.584696 0.187258 0.25637 0.6875
C_ C_ 0.836767 0.189559 0.245126 0.6875
C_ C_ 0.547924 0.086035 0.292972 -0.11473
C_ C_ 0.78534 0.102876 0.278692 -0.11473
C_ C_ 0.621398 0.218892 0.37221 0.17695
C_ C_ 0.891161 0.219863 0.372517 0.17695
C_ C_ 0.625314 0.292963 0.369302 0.17695
C_ C_ 0.868722 0.288272 0.367013 0.17695
C_ C_ 0.624234 0.296698 0.413041 -0.11473
C_ C_ 0.870228 0.292455 0.411684 -0.11473
C_ C_ 0.624166 0.260875 0.438872 0.23465
C_ C_ 0.878034 0.257268 0.436336 0.23465
C_ C_ 0.621429 0.221036 0.417613 -0.11473
C_ C_ 0.887964 0.221642 0.417242 -0.11473
C_ C_ 0.630412 0.207118 0.119713 0.17695
C_ C_ 0.849418 0.267966 0.113721 0.17695
C_ C_ 0.621629 0.279141 0.1199 0.17695
C_ C_ 0.894885 0.229503 0.111702 0.17695
C_ C_ 0.622238 0.278813 0.076441 -0.11473
C_ C_ 0.894002 0.230592 0.0676592 -0.11473
C_ C_ 0.623816 0.240922 0.0527799 0.23465
C_ C_ 0.870452 0.253348 0.0464338 0.23465
C_ C_ 0.627707 0.20462 0.0759154 -0.11473
C_ C_ 0.848504 0.272811 0.0706008 -0.11473
C_ C_ 0.53226 0.500821 0.266891 0.05793
C_ C_ 0.78015 0.50244 0.233981 0.05793
C_ C_ 0.715977 1.000660152 0.260064 0.05793
C_ C_ 0.96997 0.99972892 0.248407 0.05793
Br Br 0.575558 0.499669 0.274923 -0.17191
Br Br 0.823618 0.505406 0.230359 -0.17191
Br Br 0.672878 0.00540642 0.26163 -0.17191
Br Br 0.92768 0.00103864 0.234876 -0.17191
N_ N_ 0.622696 0.255968 0.351163 -0.272
N_ N_ 0.878033 0.251289 0.348415 -0.272
N_ N_ 0.61881 0.264438 0.482757 -0.12501
N_ N_ 0.879648 0.262703 0.480553 -0.12501
N_ N_ 0.623863 0.243159 0.14116 -0.272
N_ N_ 0.872533 0.247251 0.133023 -0.272
N_ N_ 0.620572 0.237939 0.00892938 -0.12501
N_ N_ 0.867323 0.25476 0.0009799999999999809 -0.12501
O_ O_ 0.595117 0.29852 0.214045 -0.60745
O_ O_ 0.844765 0.292612 0.203144 -0.60745
O_ O_ 0.586541 0.285323 0.280305 -0.60745
O_ O_ 0.841142 0.291565 0.271989 -0.60745
O_ O_ 0.650053 0.297189 0.272227 -0.60745
O_ O_ 0.901006 0.30001 0.271028 -0.60745
O_ O_ 0.658298 0.287852 0.206116 -0.60745
O_ O_ 0.909442 0.293525 0.204855 -0.60745
O_ O_ 0.654137 0.209771 0.284952 -0.60745
O_ O_ 0.90809 0.209068 0.276497 -0.60745
O_ O_ 0.650062 0.197613 0.217829 -0.60745
O_ O_ 0.907141 0.204541 0.206988 -0.60745
O_ O_ 0.591553 0.205324 0.222605 -0.60745
O_ O_ 0.843899 0.20584 0.20967 -0.60745
O_ O_ 0.589504 0.20605 0.290646 -0.60745
O_ O_ 0.843026 0.206644 0.279881 -0.60745
Zn Zn 0.624836 0.247746 0.780941 0.9476
Zn Zn 0.88058 0.247479 0.776573 0.9476
Zn Zn 0.6239 0.249176 0.710719 0.9476
Zn Zn 0.87285 0.250888 0.708352 0.9476
H_ H_ 0.525166 0.414534 0.676212 0.10932
H_ H_ 0.77229 0.401172 0.688495 0.10932
H_ H_ 0.583497 0.369532 0.805159 0.10932
H_ H_ 0.835613 0.366351 0.811313 0.10932
H_ H_ 0.555089 0.350544 0.675298 0.10932
H_ H_ 0.795596 0.336811 0.689263 0.10932
H_ H_ 0.54925 0.434795 0.806863 0.10932
H_ H_ 0.804809 0.428184 0.81303 0.10932
H_ H_ 0.730974 0.402778 0.808355 0.10932
H_ H_ 0.988462 0.394217 0.806097 0.10932
H_ H_ 0.667973 0.367606 0.682778 0.10932
H_ H_ 0.925485 0.363249 0.679929 0.10932
H_ H_ 0.70432 0.330246 0.806016 0.10932
H_ H_ 0.956573 0.330921 0.803676 0.10932
H_ H_ 0.698757 0.427897 0.684791 0.10932
H_ H_ 0.959087 0.429593 0.683833 0.10932
H_ H_ 0.725186 0.0913098 0.817103 0.10932
H_ H_ 0.95709 0.0762905 0.806684 0.10932
H_ H_ 0.679571 0.137443 0.683221 0.10932
H_ H_ 0.940252 0.145092 0.671259 0.10932
H_ H_ 0.695766 0.154084 0.817999 0.10932
H_ H_ 0.931282 0.14109 0.809833 0.10932
H_ H_ 0.705616 0.0704876 0.68615 0.10932
H_ H_ 0.963714 0.0773078 0.674286 0.10932
H_ H_ 0.532386 0.0831668 0.67682 0.10932
H_ H_ 0.790052 0.0723609 0.688576 0.10932
H_ H_ 0.575177 0.137514 0.810717 0.10932
H_ H_ 0.819643 0.146939 0.818314 0.10932
H_ H_ 0.555354 0.15349 0.68037 0.10932
H_ H_ 0.811029 0.143271 0.681222 0.10932
H_ H_ 0.544376 0.0743296 0.81346 0.10932
H_ H_ 0.783292 0.0945098 0.822908 0.10932
H_ H_ 0.637697 0.314733 0.853146 0.10932
H_ H_ 0.9267 0.250321 0.842574 0.10932
H_ H_ 0.618707 0.189278 0.858958 0.10932
H_ H_ 0.833731 0.25459 0.85443 0.10932
H_ H_ 0.621939 0.19233 0.938684 0.10932
H_ H_ 0.836726 0.264454 0.929678 0.10932
H_ H_ 0.626919 0.324316 0.926639 0.10932
H_ H_ 0.933534 0.249051 0.919166 0.10932
H_ H_ 0.610894 0.309574 0.633526 0.10932
H_ H_ 0.884047 0.309605 0.627066 0.10932
H_ H_ 0.62716 0.179664 0.63872 0.10932
H_ H_ 0.866175 0.177484 0.635151 0.10932
H_ H_ 0.639635 0.179522 0.565773 0.10932
H_ H_ 0.865863 0.173038 0.558908 0.10932
H_ H_ 0.613423 0.306043 0.555918 0.10932
H_ H_ 0.877077 0.304617 0.552189 0.10932
C_ C_ 0.570151 0.353853 0.742155 -0.02249
C_ C_ 0.819961 0.34669 0.75025 -0.02249
C_ C_ 0.51485 0.465248 0.744783 -0.02249
C_ C_ 0.767508 0.461105 0.752999 -0.02249
C_ C_ 0.537342 0.404002 0.705472 -0.11473
C_ C_ 0.783464 0.393693 0.715659 -0.11473
C_ C_ 0.569071 0.379088 0.777867 -0.11473
C_ C_ 0.820565 0.372948 0.783916 -0.11473
C_ C_ 0.55509 0.368839 0.705301 -0.11473
C_ C_ 0.799813 0.356574 0.716268 -0.11473
C_ C_ 0.533476 0.425652 0.743499 -0.02249
C_ C_ 0.784804 0.419768 0.751518 -0.02249
C_ C_ 0.589374 0.314785 0.743057 0.6875
C_ C_ 0.839775 0.309916 0.745729 0.6875
C_ C_ 0.551208 0.415387 0.777265 -0.11473
C_ C_ 0.802413 0.408537 0.786075 -0.11473
C_ C_ 0.682859 0.34606 0.744216 -0.02249
C_ C_ 0.93573 0.346546 0.742966 -0.02249
C_ C_ 0.734792 0.461049 0.746696 -0.02249
C_ C_ 0.986807 0.461598 0.749273 -0.02249
C_ C_ 0.717391 0.391036 0.780709 -0.11473
C_ C_ 0.971156 0.391212 0.780589 -0.11473
C_ C_ 0.682759 0.373278 0.710142 -0.11473
C_ C_ 0.936365 0.373527 0.708185 -0.11473
C_ C_ 0.700927 0.354184 0.780184 -0.11473
C_ C_ 0.955051 0.35425 0.777809 -0.11473
C_ C_ 0.717579 0.42006 0.745309 -0.02249
C_ C_ 0.969194 0.420747 0.747769 -0.02249
C_ C_ 0.664287 0.308128 0.744114 0.6875
C_ C_ 0.915091 0.309141 0.743541 0.6875
C_ C_ 0.698789 0.409647 0.7115 -0.11473
C_ C_ 0.955125 0.407339 0.709494 -0.11473
C_ C_ 0.683207 0.151275 0.749534 -0.02249
C_ C_ 0.933968 0.149714 0.741571 -0.02249
C_ C_ 0.735848 0.0368548 0.752067 -0.02249
C_ C_ 0.982489 0.0325804 0.744969 -0.02249
C_ C_ 0.713578 0.0986926 0.788433 -0.11473
C_ C_ 0.955521 0.0923748 0.779173 -0.11473
C_ C_ 0.687923 0.128477 0.712244 -0.11473
C_ C_ 0.942816 0.129988 0.702243 -0.11473
C_ C_ 0.698705 0.137216 0.787385 -0.11473
C_ C_ 0.93899 0.128341 0.779257 -0.11473
C_ C_ 0.718727 0.0764873 0.751883 -0.02249
C_ C_ 0.965007 0.0715762 0.741772 -0.02249
C_ C_ 0.663391 0.188882 0.749807 0.6875
C_ C_ 0.915611 0.187956 0.741693 0.6875
C_ C_ 0.704676 0.0904057 0.715035 -0.11473
C_ C_ 0.957991 0.091976 0.702467 -0.11473
C_ C_ 0.56639 0.150106 0.745104 -0.02249
C_ C_ 0.817837 0.15213 0.749703 -0.02249
C_ C_ 0.515633 0.0375496 0.747998 -0.02249
C_ C_ 0.767282 0.0382885 0.75877 -0.02249
C_ C_ 0.535413 0.097878 0.708316 -0.11473
C_ C_ 0.7944 0.0899033 0.716792 -0.11473
C_ C_ 0.561185 0.130127 0.782609 -0.11473
C_ C_ 0.809211 0.137715 0.789848 -0.11473
C_ C_ 0.551307 0.135677 0.708942 -0.11473
C_ C_ 0.80801 0.129471 0.713209 -0.11473
C_ C_ 0.532872 0.076857 0.746864 -0.02249
C_ C_ 0.784372 0.0778769 0.756156 -0.02249
C_ C_ 0.585708 0.187423 0.746403 0.6875
C_ C_ 0.837467 0.189319 0.747349 0.6875
C_ C_ 0.54529 0.0932876 0.783875 -0.11473
C_ C_ 0.791481 0.102978 0.792599 -0.11473
C_ C_ 0.631877 0.289391 0.871021 0.17695
C_ C_ 0.907876 0.247696 0.863435 0.17695
C_ C_ 0.622227 0.217706 0.875179 0.17695
C_ C_ 0.85504 0.249813 0.869486 0.17695
C_ C_ 0.623535 0.220415 0.919431 -0.11473
C_ C_ 0.857167 0.25454 0.912518 -0.11473
C_ C_ 0.627745 0.259178 0.93842 0.23465
C_ C_ 0.885725 0.250159 0.931955 0.23465
C_ C_ 0.630479 0.293638 0.914395 -0.11473
C_ C_ 0.91111 0.246184 0.905903 -0.11473
C_ C_ 0.614829 0.280365 0.618233 0.17695
C_ C_ 0.875544 0.279558 0.614705 0.17695
C_ C_ 0.623486 0.206763 0.621102 0.17695
C_ C_ 0.870485 0.205713 0.618841 0.17695
C_ C_ 0.627179 0.206583 0.57888 -0.11473
C_ C_ 0.871055 0.202309 0.575712 -0.11473
C_ C_ 0.62243 0.24175 0.553319 0.23465
C_ C_ 0.873694 0.239629 0.549525 0.23465
C_ C_ 0.615716 0.27854 0.573042 -0.11473
C_ C_ 0.875168 0.276668 0.570681 -0.11473
C_ C_ 0.530308 0.503708 0.741955 0.05793
C_ C_ 0.783304 0.501012 0.756022 0.05793
C_ C_ 0.720267 -0.0011290000000000466 0.750996 0.05793
C_ C_ 0.968011 -0.006377999999999995 0.7494 0.05793
Br Br 0.573342 0.506534 0.739302 -0.17191
Br Br 0.826086 0.505529 0.755474 -0.17191
Br Br 0.676234 -0.003161999999999998 0.749936 -0.17191
Br Br 0.923144 -0.007152000000000047 0.74218 -0.17191
N_ N_ 0.625402 0.252154 0.852124 -0.272
N_ N_ 0.879612 0.247642 0.845391 -0.272
N_ N_ 0.630624 0.264795 0.984886 -0.12501
N_ N_ 0.88973 0.249454 0.976342 -0.12501
N_ N_ 0.620779 0.244418 0.64031 -0.272
N_ N_ 0.872626 0.244001 0.637552 -0.272
N_ N_ 0.630142 0.239717 0.509396 -0.12501
N_ N_ 0.872352 0.234312 0.505371 -0.12501
O_ O_ 0.591137 0.292152 0.710158 -0.60745
O_ O_ 0.842346 0.292421 0.710853 -0.60745
O_ O_ 0.597302 0.298207 0.778081 -0.60745
O_ O_ 0.851023 0.293241 0.780211 -0.60745
O_ O_ 0.65761 0.29028 0.777958 -0.60745
O_ O_ 0.910835 0.290631 0.777399 -0.60745
O_ O_ 0.65381 0.293918 0.709349 -0.60745
O_ O_ 0.902584 0.29674 0.709978 -0.60745
O_ O_ 0.654546 0.20267 0.783721 -0.60745
O_ O_ 0.908461 0.203436 0.77642 -0.60745
O_ O_ 0.656481 0.206875 0.716005 -0.60745
O_ O_ 0.904831 0.204682 0.708045 -0.60745
O_ O_ 0.595613 0.202057 0.711857 -0.60745
O_ O_ 0.843675 0.204399 0.710079 -0.60745
O_ O_ 0.590884 0.20673 0.780663 -0.60745
O_ O_ 0.847364 0.206659 0.780543 -0.60745
Zn Zn 0.624067 0.751003 0.281344 0.9476
Zn Zn 0.873275 0.748951 0.287382 0.9476
Zn Zn 0.623407 0.751063 0.211274 0.9476
Zn Zn 0.874252 0.752684 0.218829 0.9476
H_ H_ 0.518004 0.904751 0.18413 0.10932
H_ H_ 0.776535 0.909011 0.182541 0.10932
H_ H_ 0.575195 0.863083 0.313841 0.10932
H_ H_ 0.811819 0.856485 0.323997 0.10932
H_ H_ 0.553074 0.844607 0.180421 0.10932
H_ H_ 0.810689 0.848826 0.187774 0.10932
H_ H_ 0.536066 0.918305 0.315779 0.10932
H_ H_ 0.779526 0.921105 0.315934 0.10932
H_ H_ 0.70923 0.91583 0.318443 0.10932
H_ H_ 0.946039 0.933729 0.315308 0.10932
H_ H_ 0.683967 0.854416 0.17952 0.10932
H_ H_ 0.951709 0.841618 0.193623 0.10932
H_ H_ 0.68872 0.845796 0.314586 0.10932
H_ H_ 0.915168 0.873397 0.314509 0.10932
H_ H_ 0.711772 0.919379 0.18371 0.10932
H_ H_ 0.984645 0.901438 0.195197 0.10932
H_ H_ 0.701885 0.567549 0.299455 0.10932
H_ H_ 0.961602 0.579025 0.317852 0.10932
H_ H_ 0.688325 0.652796 0.177078 0.10932
H_ H_ 0.934108 0.649906 0.184191 0.10932
H_ H_ 0.668775 0.630758 0.300642 0.10932
H_ H_ 0.93273 0.647531 0.317886 0.10932
H_ H_ 0.715923 0.58591 0.170223 0.10932
H_ H_ 0.975481 0.594788 0.18525 0.10932
H_ H_ 0.547189 0.565926 0.192907 0.10932
H_ H_ 0.769973 0.600931 0.181132 0.10932
H_ H_ 0.550697 0.666265 0.315123 0.10932
H_ H_ 0.823975 0.630272 0.314593 0.10932
H_ H_ 0.580062 0.628813 0.193482 0.10932
H_ H_ 0.794343 0.664533 0.193575 0.10932
H_ H_ 0.524297 0.598814 0.324093 0.10932
H_ H_ 0.793984 0.566363 0.308958 0.10932
H_ H_ 0.61903 0.689548 0.36173 0.10932
H_ H_ 0.875597 0.80821 0.363935 0.10932
H_ H_ 0.643481 0.814623 0.351467 0.10932
H_ H_ 0.875942 0.676257 0.355593 0.10932
H_ H_ 0.640403 0.824118 0.427444 0.10932
H_ H_ 0.871071 0.673828 0.431548 0.10932
H_ H_ 0.608502 0.697702 0.438453 0.10932
H_ H_ 0.869392 0.80423 0.441865 0.10932
H_ H_ 0.643995 0.686008 0.140941 0.10932
H_ H_ 0.845876 0.702695 0.151034 0.10932
H_ H_ 0.602954 0.805223 0.135191 0.10932
H_ H_ 0.906697 0.799899 0.140255 0.10932
H_ H_ 0.594136 0.79834 0.0569429 0.10932
H_ H_ 0.905677 0.791724 0.0625738 0.10932
H_ H_ 0.643631 0.682604 0.0626128 0.10932
H_ H_ 0.841407 0.696698 0.0756107 0.10932
C_ C_ 0.564807 0.84567 0.244955 -0.02249
C_ C_ 0.812305 0.846037 0.255899 -0.02249
C_ C_ 0.512346 0.958971 0.249993 -0.02249
C_ C_ 0.762353 0.961554 0.251363 -0.02249
C_ C_ 0.530907 0.894737 0.209926 -0.11473
C_ C_ 0.788244 0.901911 0.212313 -0.11473
C_ C_ 0.562505 0.870195 0.282657 -0.11473
C_ C_ 0.80411 0.866321 0.292029 -0.11473
C_ C_ 0.549907 0.860046 0.208204 -0.11473
C_ C_ 0.802873 0.863717 0.216836 -0.11473
C_ C_ 0.527448 0.918788 0.247719 -0.02249
C_ C_ 0.780572 0.92185 0.250098 -0.02249
C_ C_ 0.58322 0.808509 0.245995 0.6875
C_ C_ 0.832363 0.808515 0.256223 0.6875
C_ C_ 0.542462 0.905262 0.284733 -0.11473
C_ C_ 0.786191 0.903709 0.288467 -0.11473
C_ C_ 0.682094 0.847859 0.246573 -0.02249
C_ C_ 0.93124 0.850545 0.252659 -0.02249
C_ C_ 0.729999 0.962075 0.254259 -0.02249
C_ C_ 0.983546 0.961236 0.254877 -0.02249
C_ C_ 0.706351 0.902272 0.287818 -0.11473
C_ C_ 0.94661 0.913785 0.287487 -0.11473
C_ C_ 0.688117 0.869646 0.209325 -0.11473
C_ C_ 0.950663 0.860324 0.220119 -0.11473
C_ C_ 0.691682 0.864052 0.286218 -0.11473
C_ C_ 0.931106 0.877771 0.288876 -0.11473
C_ C_ 0.713134 0.922312 0.250986 -0.02249
C_ C_ 0.966866 0.921104 0.254353 -0.02249
C_ C_ 0.663241 0.810282 0.243883 0.6875
C_ C_ 0.914753 0.810869 0.252727 0.6875
C_ C_ 0.706071 0.905033 0.212149 -0.11473
C_ C_ 0.968117 0.895092 0.22122 -0.11473
C_ C_ 0.677921 0.648678 0.241021 -0.02249
C_ C_ 0.930346 0.653313 0.250887 -0.02249
C_ C_ 0.731468 0.535926 0.236239 -0.02249
C_ C_ 0.984807 0.541871 0.24796 -0.02249
C_ C_ 0.700736 0.587838 0.272743 -0.11473
C_ C_ 0.957084 0.596199 0.289085 -0.11473
C_ C_ 0.689283 0.633887 0.201926 -0.11473
C_ C_ 0.941764 0.635754 0.21234 -0.11473
C_ C_ 0.685729 0.626106 0.276938 -0.11473
C_ C_ 0.939926 0.633021 0.289488 -0.11473
C_ C_ 0.712348 0.574748 0.235105 -0.02249
C_ C_ 0.968864 0.582307 0.250538 -0.02249
C_ C_ 0.660068 0.688613 0.243702 0.6875
C_ C_ 0.909702 0.68787 0.250797 0.6875
C_ C_ 0.705204 0.595848 0.19923 -0.11473
C_ C_ 0.964521 0.6044 0.213752 -0.11473
C_ C_ 0.567347 0.652691 0.253524 -0.02249
C_ C_ 0.814253 0.651426 0.25088 -0.02249
C_ C_ 0.516342 0.538782 0.261824 -0.02249
C_ C_ 0.762911 0.53804 0.23811 -0.02249
C_ C_ 0.550504 0.586812 0.22176 -0.11473
C_ C_ 0.780872 0.606124 0.211746 -0.11473
C_ C_ 0.552031 0.643556 0.290037 -0.11473
C_ C_ 0.81169 0.624816 0.286336 -0.11473
C_ C_ 0.567527 0.6241 0.219729 -0.11473
C_ C_ 0.797652 0.641834 0.215598 -0.11473
C_ C_ 0.533916 0.579557 0.258514 -0.02249
C_ C_ 0.777446 0.579266 0.245946 -0.02249
C_ C_ 0.586747 0.690407 0.251755 0.6875
C_ C_ 0.833063 0.68914 0.255002 0.6875
C_ C_ 0.535742 0.606143 0.293218 -0.11473
C_ C_ 0.794473 0.587839 0.283212 -0.11473
C_ C_ 0.617462 0.719903 0.375402 0.17695
C_ C_ 0.874975 0.778484 0.380995 0.17695
C_ C_ 0.633432 0.78979 0.369302 0.17695
C_ C_ 0.874724 0.704384 0.37481 0.17695
C_ C_ 0.631263 0.795868 0.413059 -0.11473
C_ C_ 0.874285 0.702369 0.418462 -0.11473
C_ C_ 0.621893 0.763574 0.438151 0.23465
C_ C_ 0.871181 0.738262 0.443578 0.23465
C_ C_ 0.614177 0.725579 0.418508 -0.11473
C_ C_ 0.873927 0.776508 0.424226 -0.11473
C_ C_ 0.635299 0.712941 0.121386 0.17695
C_ C_ 0.857604 0.722846 0.131736 0.17695
C_ C_ 0.608362 0.775952 0.118484 0.17695
C_ C_ 0.891367 0.781359 0.125549 0.17695
C_ C_ 0.608513 0.777185 0.0752652 -0.11473
C_ C_ 0.889739 0.776118 0.0809569 -0.11473
C_ C_ 0.623791 0.746966 0.0536498 0.23465
C_ C_ 0.871166 0.747857 0.0623023 0.23465
C_ C_ 0.635856 0.711909 0.0776618 -0.11473
C_ C_ 0.854477 0.720391 0.0889491 -0.11473
C_ C_ 0.528648 0.997495 0.250136 0.05793
C_ C_ 0.778389 0.999482 0.244586 0.05793
C_ C_ 0.718088 0.495615 0.23688 0.05793
C_ C_ 0.967459 0.504306 0.244637 0.05793
Br Br 0.572439 0.999995 0.242521 -0.17191
Br Br 0.822247 0.999115 0.251743 -0.17191
Br Br 0.67575 0.492003 0.226818 -0.17191
Br Br 0.923764 0.506285 0.243456 -0.17191
N_ N_ 0.627362 0.751438 0.35137 -0.272
N_ N_ 0.877091 0.743865 0.357855 -0.272
N_ N_ 0.627972 0.766706 0.482114 -0.12501
N_ N_ 0.866617 0.733803 0.48778 -0.12501
N_ N_ 0.619472 0.74335 0.140681 -0.272
N_ N_ 0.875537 0.75348 0.148935 -0.272
N_ N_ 0.617957 0.741641 0.00954335 -0.12501
N_ N_ 0.872127 0.739779 0.0167088 -0.12501
O_ O_ 0.588635 0.787426 0.212118 -0.60745
O_ O_ 0.846932 0.800068 0.223125 -0.60745
O_ O_ 0.598034 0.80063 0.280056 -0.60745
O_ O_ 0.838812 0.788618 0.289845 -0.60745
O_ O_ 0.656568 0.790289 0.276745 -0.60745
O_ O_ 0.904334 0.794999 0.286327 -0.60745
O_ O_ 0.650404 0.800149 0.209929 -0.60745
O_ O_ 0.904112 0.797413 0.218421 -0.60745
O_ O_ 0.653339 0.703273 0.279258 -0.60745
O_ O_ 0.905548 0.710549 0.285484 -0.60745
O_ O_ 0.65785 0.712754 0.211821 -0.60745
O_ O_ 0.901211 0.703795 0.216051 -0.60745
O_ O_ 0.597334 0.702593 0.216647 -0.60745
O_ O_ 0.841768 0.707496 0.222071 -0.60745
O_ O_ 0.59213 0.709582 0.284969 -0.60745
O_ O_ 0.841562 0.703951 0.289901 -0.60745
Zn Zn 0.625944 0.755473 0.782764 0.9476
Zn Zn 0.879656 0.748397 0.784383 0.9476
Zn Zn 0.623728 0.752433 0.714063 0.9476
Zn Zn 0.875926 0.749374 0.715688 0.9476
H_ H_ 0.51923 0.910949 0.689475 0.10932
H_ H_ 0.784831 0.92193 0.692981 0.10932
H_ H_ 0.567066 0.856282 0.819285 0.10932
H_ H_ 0.827602 0.854771 0.821295 0.10932
H_ H_ 0.556626 0.851842 0.682985 0.10932
H_ H_ 0.818481 0.859672 0.688248 0.10932
H_ H_ 0.537253 0.920252 0.819219 0.10932
H_ H_ 0.798944 0.919639 0.824907 0.10932
H_ H_ 0.711929 0.923464 0.814352 0.10932
H_ H_ 0.951191 0.927248 0.812726 0.10932
H_ H_ 0.692545 0.849202 0.680963 0.10932
H_ H_ 0.944437 0.840558 0.682912 0.10932
H_ H_ 0.693099 0.847612 0.818765 0.10932
H_ H_ 0.928766 0.860799 0.813482 0.10932
H_ H_ 0.71857 0.917311 0.682722 0.10932
H_ H_ 0.974919 0.91089 0.684135 0.10932
H_ H_ 0.730833 0.596127 0.815623 0.10932
H_ H_ 0.970396 0.58106 0.819772 0.10932
H_ H_ 0.686036 0.64187 0.682571 0.10932
H_ H_ 0.940711 0.644632 0.681086 0.10932
H_ H_ 0.693188 0.652914 0.816598 0.10932
H_ H_ 0.944992 0.650454 0.818464 0.10932
H_ H_ 0.704583 0.570149 0.690611 0.10932
H_ H_ 0.969077 0.580931 0.683619 0.10932
H_ H_ 0.518308 0.601082 0.679563 0.10932
H_ H_ 0.775587 0.59094 0.689239 0.10932
H_ H_ 0.575745 0.644446 0.806003 0.10932
H_ H_ 0.83347 0.630643 0.81424 0.10932
H_ H_ 0.544017 0.667573 0.681194 0.10932
H_ H_ 0.799651 0.658302 0.695908 0.10932
H_ H_ 0.536834 0.586016 0.806833 0.10932
H_ H_ 0.791911 0.58173 0.822599 0.10932
H_ H_ 0.607731 0.697552 0.858707 0.10932
H_ H_ 0.872206 0.68597 0.871743 0.10932
H_ H_ 0.637317 0.819593 0.851186 0.10932
H_ H_ 0.88972 0.814238 0.852356 0.10932
H_ H_ 0.648462 0.82006 0.931044 0.10932
H_ H_ 0.89269 0.822154 0.930258 0.10932
H_ H_ 0.600943 0.705585 0.937509 0.10932
H_ H_ 0.87077 0.694177 0.948291 0.10932
H_ H_ 0.607699 0.69285 0.641392 0.10932
H_ H_ 0.884534 0.809524 0.64436 0.10932
H_ H_ 0.646666 0.813838 0.625006 0.10932
H_ H_ 0.864355 0.680944 0.638832 0.10932
H_ H_ 0.641299 0.807374 0.550411 0.10932
H_ H_ 0.857726 0.686791 0.564943 0.10932
H_ H_ 0.597515 0.691774 0.567807 0.10932
H_ H_ 0.879835 0.816409 0.569105 0.10932
C_ C_ 0.56449 0.848288 0.751511 -0.02249
C_ C_ 0.820807 0.849825 0.754507 -0.02249
C_ C_ 0.513498 0.962205 0.75091 -0.02249
C_ C_ 0.768633 0.962624 0.760623 -0.02249
C_ C_ 0.532952 0.900708 0.716632 -0.11473
C_ C_ 0.793399 0.906122 0.720601 -0.11473
C_ C_ 0.557458 0.868147 0.789561 -0.11473
C_ C_ 0.818191 0.870529 0.792616 -0.11473
C_ C_ 0.550922 0.864212 0.714875 -0.11473
C_ C_ 0.810039 0.868901 0.718417 -0.11473
C_ C_ 0.528531 0.92154 0.752414 -0.02249
C_ C_ 0.786978 0.923822 0.759313 -0.02249
C_ C_ 0.586481 0.814532 0.749401 0.6875
C_ C_ 0.837853 0.810146 0.752381 0.6875
C_ C_ 0.539568 0.903972 0.789057 -0.11473
C_ C_ 0.802765 0.908782 0.795372 -0.11473
C_ C_ 0.688306 0.845732 0.749875 -0.02249
C_ C_ 0.935764 0.845002 0.749127 -0.02249
C_ C_ 0.737623 0.961538 0.750095 -0.02249
C_ C_ 0.984906 0.95741 0.751784 -0.02249
C_ C_ 0.71227 0.903619 0.788163 -0.11473
C_ C_ 0.952964 0.906126 0.785314 -0.11473
C_ C_ 0.697498 0.862679 0.710734 -0.11473
C_ C_ 0.949791 0.85732 0.712735 -0.11473
C_ C_ 0.697948 0.864811 0.789224 -0.11473
C_ C_ 0.937637 0.87008 0.785574 -0.11473
C_ C_ 0.721637 0.920616 0.74957 -0.02249
C_ C_ 0.968123 0.917538 0.749148 -0.02249
C_ C_ 0.666999 0.809991 0.75009 0.6875
C_ C_ 0.918807 0.804622 0.74921 0.6875
C_ C_ 0.71368 0.900037 0.712071 -0.11473
C_ C_ 0.963835 0.897073 0.710253 -0.11473
C_ C_ 0.683364 0.650513 0.751127 -0.02249
C_ C_ 0.936227 0.648755 0.749982 -0.02249
C_ C_ 0.734677 0.536011 0.754612 -0.02249
C_ C_ 0.987292 0.537842 0.750794 -0.02249
C_ C_ 0.714341 0.598647 0.790198 -0.11473
C_ C_ 0.966887 0.596565 0.789186 -0.11473
C_ C_ 0.689385 0.628056 0.715403 -0.11473
C_ C_ 0.943378 0.628978 0.711864 -0.11473
C_ C_ 0.696095 0.634851 0.790153 -0.11473
C_ C_ 0.949435 0.633898 0.788036 -0.11473
C_ C_ 0.718358 0.575987 0.752906 -0.02249
C_ C_ 0.972109 0.577622 0.750763 -0.02249
C_ C_ 0.661883 0.687737 0.748595 0.6875
C_ C_ 0.915577 0.685958 0.750635 0.6875
C_ C_ 0.702854 0.587739 0.716811 -0.11473
C_ C_ 0.962255 0.595091 0.712378 -0.11473
C_ C_ 0.564564 0.656274 0.740802 -0.02249
C_ C_ 0.820702 0.650325 0.754436 -0.02249
C_ C_ 0.514896 0.541357 0.743074 -0.02249
C_ C_ 0.766686 0.5371 0.756337 -0.02249
C_ C_ 0.533616 0.605358 0.704464 -0.11473
C_ C_ 0.78465 0.601053 0.719452 -0.11473
C_ C_ 0.563152 0.632901 0.777295 -0.11473
C_ C_ 0.820339 0.623759 0.788389 -0.11473
C_ C_ 0.54819 0.643945 0.70526 -0.11473
C_ C_ 0.802574 0.638305 0.720564 -0.11473
C_ C_ 0.531254 0.582244 0.741048 -0.02249
C_ C_ 0.781823 0.57788 0.756373 -0.02249
C_ C_ 0.584781 0.694821 0.739696 0.6875
C_ C_ 0.839211 0.689372 0.754895 0.6875
C_ C_ 0.542641 0.600165 0.777642 -0.11473
C_ C_ 0.79918 0.590957 0.791585 -0.11473
C_ C_ 0.614848 0.724745 0.874388 0.17695
C_ C_ 0.87619 0.716938 0.885415 0.17695
C_ C_ 0.635796 0.792292 0.870088 0.17695
C_ C_ 0.884224 0.788294 0.875191 0.17695
C_ C_ 0.635462 0.797318 0.914105 -0.11473
C_ C_ 0.883784 0.794139 0.920198 -0.11473
C_ C_ 0.623695 0.764428 0.938565 0.23465
C_ C_ 0.879822 0.760207 0.947818 0.23465
C_ C_ 0.613404 0.728779 0.918533 -0.11473
C_ C_ 0.875052 0.720494 0.930421 -0.11473
C_ C_ 0.616017 0.719035 0.622451 0.17695
C_ C_ 0.878268 0.783983 0.627749 0.17695
C_ C_ 0.637959 0.785412 0.613702 0.17695
C_ C_ 0.871159 0.711556 0.623481 0.17695
C_ C_ 0.635409 0.782792 0.570005 -0.11473
C_ C_ 0.866274 0.714013 0.580436 -0.11473
C_ C_ 0.619509 0.748671 0.552242 0.23465
C_ C_ 0.873218 0.751103 0.558927 0.23465
C_ C_ 0.611073 0.715842 0.579481 -0.11473
C_ C_ 0.878283 0.786109 0.584076 -0.11473
C_ C_ 0.529989 -0.00191073 0.748303 0.05793
C_ C_ 0.783339 0.00163938 0.764814 0.05793
C_ C_ 0.718024 0.497744 0.749919 0.05793
C_ C_ 0.971178 0.499848 0.751688 0.05793
Br Br 0.573001 -0.0029000000000000137 0.734115 -0.17191
Br Br 0.823977 1.00349103 0.789299 -0.17191
Br Br 0.67442 0.495691 0.746393 -0.17191
Br Br 0.928248 0.501623 0.750101 -0.17191
N_ N_ 0.626858 0.755765 0.850588 -0.272
N_ N_ 0.87985 0.750011 0.858981 -0.272
N_ N_ 0.629876 0.76521 0.982892 -0.12501
N_ N_ 0.878835 0.76738 0.99127 -0.12501
N_ N_ 0.627443 0.755283 0.638975 -0.272
N_ N_ 0.875992 0.74656 0.647383 -0.272
N_ N_ 0.612491 0.747295 0.508768 -0.12501
N_ N_ 0.87969 0.754599 0.515054 -0.12501
O_ O_ 0.596551 0.802149 0.714591 -0.60745
O_ O_ 0.849142 0.799119 0.718821 -0.60745
O_ O_ 0.597091 0.799238 0.782378 -0.60745
O_ O_ 0.84637 0.792203 0.786162 -0.60745
O_ O_ 0.661373 0.794174 0.784657 -0.60745
O_ O_ 0.908661 0.793216 0.784772 -0.60745
O_ O_ 0.65584 0.796857 0.71597 -0.60745
O_ O_ 0.909419 0.78707 0.71555 -0.60745
O_ O_ 0.655091 0.70482 0.782036 -0.60745
O_ O_ 0.909948 0.703861 0.785602 -0.60745
O_ O_ 0.651241 0.701881 0.714529 -0.60745
O_ O_ 0.905853 0.70053 0.714907 -0.60745
O_ O_ 0.591152 0.712298 0.705249 -0.60745
O_ O_ 0.844553 0.705989 0.720129 -0.60745
O_ O_ 0.591209 0.712526 0.774394 -0.60745
O_ O_ 0.849922 0.705402 0.786624 -0.60745
