_cell_length_a 44.444
_cell_length_b 32.3360000049186
_cell_length_c 31.843999878906452
_cell_angle_alpha 89.99799923859553
_cell_angle_beta 91.13600050494348
_cell_angle_gamma 89.9990006550086
_symmetry_space_group_name_H-M         'P 1'
_symmetry_Int_Tables_number            1
loop_
_symmetry_equiv_pos_as_xyz
   'x, y, z'
                         
loop_
_atom_site_label
_atom_site_type_symbol
_atom_site_fract_x 
_atom_site_fract_y
_atom_site_fract_z
_atom_site_charge
Zn Zn 0.126055 0.247022 0.293645 0.9476
Zn Zn 0.379297 0.250496 0.283311 0.9476
Zn Zn 0.122238 0.249928 0.223061 0.9476
Zn Zn 0.376457 0.248966 0.215018 0.9476
H_ H_ 0.0333755 0.420221 0.192872 0.10932
H_ H_ 0.288264 0.424921 0.19609 0.10932
H_ H_ 0.0751204 0.359601 0.32407 0.10932
H_ H_ 0.314406 0.34885 0.324681 0.10932
H_ H_ 0.0558908 0.352024 0.189915 0.10932
H_ H_ 0.317961 0.357713 0.189282 0.10932
H_ H_ 0.0467167 0.425603 0.325527 0.10932
H_ H_ 0.288924 0.415081 0.326382 0.10932
H_ H_ 0.221777 0.419002 0.324244 0.10932
H_ H_ 0.463338 0.418252 0.317067 0.10932
H_ H_ 0.183975 0.350648 0.193882 0.10932
H_ H_ 0.435368 0.352076 0.179799 0.10932
H_ H_ 0.19157 0.351023 0.328259 0.10932
H_ H_ 0.435643 0.35626 0.31951 0.10932
H_ H_ 0.211293 0.414803 0.19123 0.10932
H_ H_ 0.468153 0.411778 0.181056 0.10932
H_ H_ 0.226788 0.0909376 0.315138 0.10932
H_ H_ 0.460825 0.0765529 0.310604 0.10932
H_ H_ 0.171989 0.139795 0.188843 0.10932
H_ H_ 0.434355 0.146879 0.17628 0.10932
H_ H_ 0.193302 0.152608 0.320829 0.10932
H_ H_ 0.438684 0.143217 0.311872 0.10932
H_ H_ 0.204468 0.0790442 0.183631 0.10932
H_ H_ 0.460826 0.0797178 0.176328 0.10932
H_ H_ 0.0203284 0.100254 0.183066 0.10932
H_ H_ 0.273154 0.0994012 0.181591 0.10932
H_ H_ 0.0669575 0.134105 0.32029 0.10932
H_ H_ 0.331555 0.140747 0.307808 0.10932
H_ H_ 0.0520947 0.160513 0.190281 0.10932
H_ H_ 0.304534 0.159405 0.181348 0.10932
H_ H_ 0.0419037 0.0671447 0.313479 0.10932
H_ H_ 0.296298 0.07649 0.313597 0.10932
H_ H_ 0.133543 0.184969 0.371636 0.10932
H_ H_ 0.37928 0.31223 0.363435 0.10932
H_ H_ 0.118224 0.315355 0.367928 0.10932
H_ H_ 0.379146 0.184256 0.351114 0.10932
H_ H_ 0.126486 0.317133 0.444454 0.10932
H_ H_ 0.374685 0.175107 0.427211 0.10932
H_ H_ 0.128578 0.185202 0.447032 0.10932
H_ H_ 0.372898 0.307833 0.442352 0.10932
H_ H_ 0.146197 0.300998 0.144594 0.10932
H_ H_ 0.369772 0.187138 0.129572 0.10932
H_ H_ 0.111709 0.179837 0.151966 0.10932
H_ H_ 0.372563 0.316194 0.148755 0.10932
H_ H_ 0.11232 0.174632 0.0687882 0.10932
H_ H_ 0.367852 0.328023 0.074019 0.10932
H_ H_ 0.149193 0.298748 0.0682192 0.10932
H_ H_ 0.377224 0.194155 0.0528367 0.10932
C_ C_ 0.0654496 0.347019 0.257448 -0.02249
C_ C_ 0.31786 0.347738 0.2554 -0.02249
C_ C_ 0.0189146 0.463885 0.256472 -0.02249
C_ C_ 0.265083 0.461835 0.262021 -0.02249
C_ C_ 0.041168 0.40428 0.221364 -0.11473
C_ C_ 0.293819 0.406497 0.222701 -0.11473
C_ C_ 0.0625876 0.369658 0.295403 -0.11473
C_ C_ 0.308952 0.363245 0.294966 -0.11473
C_ C_ 0.0553195 0.366584 0.219688 -0.11473
C_ C_ 0.306617 0.366611 0.219352 -0.11473
C_ C_ 0.0345278 0.423087 0.25827 -0.02249
C_ C_ 0.282486 0.4205 0.2606 -0.02249
C_ C_ 0.0830472 0.307938 0.258582 0.6875
C_ C_ 0.337204 0.310467 0.252381 0.6875
C_ C_ 0.0459015 0.406582 0.296354 -0.11473
C_ C_ 0.29145 0.399918 0.29669 -0.11473
C_ C_ 0.183741 0.347108 0.261682 -0.02249
C_ C_ 0.435194 0.345861 0.249457 -0.02249
C_ C_ 0.233877 0.462664 0.255133 -0.02249
C_ C_ 0.485401 0.46038 0.246234 -0.02249
C_ C_ 0.209609 0.405083 0.297167 -0.11473
C_ C_ 0.46098 0.402445 0.286237 -0.11473
C_ C_ 0.192696 0.363771 0.223795 -0.11473
C_ C_ 0.44432 0.362371 0.210704 -0.11473
C_ C_ 0.193238 0.366921 0.299322 -0.11473
C_ C_ 0.442873 0.367203 0.288006 -0.11473
C_ C_ 0.215089 0.423969 0.258793 -0.02249
C_ C_ 0.470624 0.418863 0.248608 -0.02249
C_ C_ 0.163731 0.309784 0.262619 0.6875
C_ C_ 0.418068 0.308378 0.24755 0.6875
C_ C_ 0.205619 0.402384 0.22235 -0.11473
C_ C_ 0.462085 0.398595 0.211393 -0.11473
C_ C_ 0.183833 0.154656 0.254238 -0.02249
C_ C_ 0.436874 0.15386 0.242868 -0.02249
C_ C_ 0.235364 0.0398696 0.248691 -0.02249
C_ C_ 0.484581 0.0366828 0.241915 -0.02249
C_ C_ 0.215763 0.102892 0.2874 -0.11473
C_ C_ 0.459295 0.0934796 0.281192 -0.11473
C_ C_ 0.189205 0.135206 0.215011 -0.11473
C_ C_ 0.443966 0.135065 0.204828 -0.11473
C_ C_ 0.197516 0.138135 0.290771 -0.11473
C_ C_ 0.446202 0.133198 0.28073 -0.11473
C_ C_ 0.219132 0.0820905 0.248503 -0.02249
C_ C_ 0.465386 0.0751277 0.242736 -0.02249
C_ C_ 0.163876 0.190053 0.25794 0.6875
C_ C_ 0.416188 0.191028 0.243588 0.6875
C_ C_ 0.205823 0.0980236 0.212334 -0.11473
C_ C_ 0.457494 0.0954436 0.205082 -0.11473
C_ C_ 0.0616794 0.152847 0.257764 -0.02249
C_ C_ 0.319595 0.153483 0.246996 -0.02249
C_ C_ 0.012986 0.0364668 0.24066 -0.02249
C_ C_ 0.266997 0.0411979 0.243105 -0.02249
C_ C_ 0.0312791 0.106181 0.21403 -0.11473
C_ C_ 0.287581 0.104963 0.209763 -0.11473
C_ C_ 0.0595955 0.125315 0.289468 -0.11473
C_ C_ 0.3175 0.129383 0.282824 -0.11473
C_ C_ 0.049373 0.142221 0.218429 -0.11473
C_ C_ 0.306367 0.139756 0.208888 -0.11473
C_ C_ 0.0302033 0.0760644 0.247789 -0.02249
C_ C_ 0.283897 0.0819051 0.245862 -0.02249
C_ C_ 0.0847743 0.187506 0.259919 0.6875
C_ C_ 0.336543 0.193713 0.246872 0.6875
C_ C_ 0.040456 0.0899347 0.286661 -0.11473
C_ C_ 0.298444 0.0941454 0.283773 -0.11473
C_ C_ 0.130247 0.213941 0.386537 0.17695
C_ C_ 0.374582 0.283296 0.380057 0.17695
C_ C_ 0.122426 0.286666 0.38466 0.17695
C_ C_ 0.377623 0.211496 0.37083 0.17695
C_ C_ 0.122391 0.287807 0.429482 -0.11473
C_ C_ 0.376992 0.205656 0.414132 -0.11473
C_ C_ 0.123314 0.250707 0.452266 0.23465
C_ C_ 0.37729 0.239899 0.442234 0.23465
C_ C_ 0.126694 0.213477 0.429521 -0.11473
C_ C_ 0.374772 0.280301 0.423511 -0.11473
C_ C_ 0.135886 0.276463 0.12778 0.17695
C_ C_ 0.373854 0.219218 0.117031 0.17695
C_ C_ 0.118218 0.20719 0.13068 0.17695
C_ C_ 0.37214 0.29006 0.128713 0.17695
C_ C_ 0.118769 0.202884 0.0863998 -0.11473
C_ C_ 0.371222 0.296901 0.0836291 -0.11473
C_ C_ 0.127979 0.237672 0.0616272 0.23465
C_ C_ 0.373083 0.263295 0.0549862 0.23465
C_ C_ 0.138007 0.274099 0.0834674 -0.11473
C_ C_ 0.375928 0.223435 0.0723299 -0.11473
C_ C_ 0.0358224 0.501373 0.256582 0.05793
C_ C_ 0.281452 0.499478 0.264141 0.05793
C_ C_ 0.219435 0.00146871 0.24986 0.05793
C_ C_ 0.470223 0.997398 0.246477 0.05793
Br Br 0.0797985 0.498683 0.251236 -0.17191
Br Br 0.323581 0.494936 0.273143 -0.17191
Br Br 0.177746 0.00185165 0.259735 -0.17191
Br Br 0.428813 0.998057 0.254906 -0.17191
N_ N_ 0.125399 0.248996 0.363305 -0.272
N_ N_ 0.376347 0.249659 0.353911 -0.272
N_ N_ 0.127068 0.251144 0.495856 -0.12501
N_ N_ 0.372442 0.234221 0.485223 -0.12501
N_ N_ 0.12565 0.244405 0.149004 -0.272
N_ N_ 0.375818 0.251951 0.143381 -0.272
N_ N_ 0.134848 0.231687 0.0179075 -0.12501
N_ N_ 0.370703 0.269053 0.0107914 -0.12501
O_ O_ 0.0914528 0.29263 0.224201 -0.60745
O_ O_ 0.345402 0.29707 0.217198 -0.60745
O_ O_ 0.0951076 0.294901 0.294025 -0.60745
O_ O_ 0.34512 0.291448 0.28595 -0.60745
O_ O_ 0.154663 0.294482 0.297946 -0.60745
O_ O_ 0.407866 0.293894 0.28076 -0.60745
O_ O_ 0.155853 0.291739 0.229112 -0.60745
O_ O_ 0.408642 0.292604 0.214582 -0.60745
O_ O_ 0.157624 0.203455 0.292367 -0.60745
O_ O_ 0.410044 0.208362 0.278092 -0.60745
O_ O_ 0.153221 0.206622 0.225283 -0.60745
O_ O_ 0.408299 0.206271 0.20851 -0.60745
O_ O_ 0.0896158 0.207253 0.225864 -0.60745
O_ O_ 0.344809 0.206608 0.211983 -0.60745
O_ O_ 0.0976133 0.197203 0.293912 -0.60745
O_ O_ 0.350629 0.205704 0.279478 -0.60745
Zn Zn 0.123486 0.24974 0.792586 0.9476
Zn Zn 0.374088 0.253125 0.784395 0.9476
Zn Zn 0.124621 0.250002 0.724008 0.9476
Zn Zn 0.375033 0.24884 0.715982 0.9476
H_ H_ 0.0328109 0.418826 0.697976 0.10932
H_ H_ 0.292694 0.422205 0.681888 0.10932
H_ H_ 0.0504883 0.338346 0.828906 0.10932
H_ H_ 0.300871 0.345066 0.813043 0.10932
H_ H_ 0.0659448 0.354769 0.698425 0.10932
H_ H_ 0.32382 0.357932 0.68574 0.10932
H_ H_ 0.0342545 0.414759 0.830814 0.10932
H_ H_ 0.282759 0.418844 0.816253 0.10932
H_ H_ 0.207427 0.422537 0.817133 0.10932
H_ H_ 0.438799 0.450174 0.790074 0.10932
H_ H_ 0.19202 0.34543 0.68259 0.10932
H_ H_ 0.45089 0.333969 0.689719 0.10932
H_ H_ 0.178945 0.358856 0.817325 0.10932
H_ H_ 0.408978 0.38708 0.797948 0.10932
H_ H_ 0.221964 0.411378 0.680519 0.10932
H_ H_ 0.476808 0.400972 0.678803 0.10932
H_ H_ 0.204796 0.068608 0.810213 0.10932
H_ H_ 0.449316 0.0779948 0.813323 0.10932
H_ H_ 0.195996 0.155579 0.681231 0.10932
H_ H_ 0.450618 0.163062 0.683424 0.10932
H_ H_ 0.175553 0.131938 0.810369 0.10932
H_ H_ 0.422278 0.14016 0.813175 0.10932
H_ H_ 0.22844 0.0936244 0.680437 0.10932
H_ H_ 0.479965 0.0995631 0.68632 0.10932
H_ H_ 0.022269 0.0948965 0.696174 0.10932
H_ H_ 0.286404 0.0755856 0.68716 0.10932
H_ H_ 0.0829429 0.129772 0.822292 0.10932
H_ H_ 0.310159 0.149824 0.818321 0.10932
H_ H_ 0.0436154 0.164263 0.704871 0.10932
H_ H_ 0.324443 0.131462 0.683915 0.10932
H_ H_ 0.0510167 0.0666928 0.822193 0.10932
H_ H_ 0.281105 0.0835035 0.817769 0.10932
H_ H_ 0.12974 0.319091 0.862984 0.10932
H_ H_ 0.334043 0.279674 0.863459 0.10932
H_ H_ 0.123809 0.18721 0.869805 0.10932
H_ H_ 0.417361 0.218407 0.857275 0.10932
H_ H_ 0.126291 0.191371 0.949695 0.10932
H_ H_ 0.420615 0.211181 0.932992 0.10932
H_ H_ 0.134599 0.320989 0.942512 0.10932
H_ H_ 0.339234 0.280567 0.942719 0.10932
H_ H_ 0.107966 0.18575 0.650445 0.10932
H_ H_ 0.401213 0.201412 0.63723 0.10932
H_ H_ 0.112018 0.313862 0.644138 0.10932
H_ H_ 0.350707 0.309533 0.642489 0.10932
H_ H_ 0.107499 0.311362 0.567296 0.10932
H_ H_ 0.348665 0.317654 0.56538 0.10932
H_ H_ 0.0979266 0.181982 0.575881 0.10932
H_ H_ 0.401369 0.202591 0.561317 0.10932
C_ C_ 0.063241 0.343036 0.764607 -0.02249
C_ C_ 0.314635 0.34655 0.751032 -0.02249
C_ C_ 0.0116366 0.45812 0.763946 -0.02249
C_ C_ 0.265571 0.462326 0.747714 -0.02249
C_ C_ 0.0406568 0.402903 0.725336 -0.11473
C_ C_ 0.292446 0.40345 0.710329 -0.11473
C_ C_ 0.0496587 0.357765 0.801401 -0.11473
C_ C_ 0.301485 0.363675 0.785744 -0.11473
C_ C_ 0.0563242 0.364508 0.726785 -0.11473
C_ C_ 0.310406 0.368424 0.713264 -0.11473
C_ C_ 0.0281913 0.41775 0.762905 -0.02249
C_ C_ 0.281516 0.421515 0.747082 -0.02249
C_ C_ 0.0834604 0.306078 0.76522 0.6875
C_ C_ 0.332028 0.306129 0.752192 0.6875
C_ C_ 0.0341187 0.395967 0.801704 -0.11473
C_ C_ 0.287288 0.403095 0.786043 -0.11473
C_ C_ 0.18458 0.344667 0.751009 -0.02249
C_ C_ 0.428076 0.354184 0.744773 -0.02249
C_ C_ 0.234089 0.462078 0.749934 -0.02249
C_ C_ 0.483176 0.463366 0.734174 -0.02249
C_ C_ 0.206339 0.402777 0.787988 -0.11473
C_ C_ 0.442449 0.424476 0.770474 -0.11473
C_ C_ 0.195981 0.36125 0.712731 -0.11473
C_ C_ 0.447195 0.359631 0.710791 -0.11473
C_ C_ 0.190742 0.365951 0.787714 -0.11473
C_ C_ 0.425537 0.388451 0.774075 -0.11473
C_ C_ 0.216347 0.420465 0.748815 -0.02249
C_ C_ 0.462639 0.427673 0.737373 -0.02249
C_ C_ 0.164159 0.308946 0.75163 0.6875
C_ C_ 0.408117 0.317584 0.747934 0.6875
C_ C_ 0.212503 0.397367 0.711975 -0.11473
C_ C_ 0.463845 0.396701 0.706903 -0.11473
C_ C_ 0.18266 0.150599 0.746563 -0.02249
C_ C_ 0.436593 0.159245 0.749114 -0.02249
C_ C_ 0.234588 0.0370133 0.743869 -0.02249
C_ C_ 0.484586 0.0424109 0.75011 -0.02249
C_ C_ 0.201714 0.0879875 0.780609 -0.11473
C_ C_ 0.452183 0.0970196 0.785515 -0.11473
C_ C_ 0.199265 0.139192 0.710612 -0.11473
C_ C_ 0.451923 0.144928 0.713178 -0.11473
C_ C_ 0.186289 0.125605 0.782589 -0.11473
C_ C_ 0.434957 0.132961 0.783999 -0.11473
C_ C_ 0.219123 0.0780434 0.745426 -0.02249
C_ C_ 0.467775 0.0836891 0.749842 -0.02249
C_ C_ 0.164533 0.190463 0.7477 0.6875
C_ C_ 0.418182 0.197084 0.74727 0.6875
C_ C_ 0.218343 0.104024 0.710702 -0.11473
C_ C_ 0.468991 0.107999 0.714813 -0.11473
C_ C_ 0.0633956 0.154593 0.764109 -0.02249
C_ C_ 0.31935 0.150141 0.751191 -0.02249
C_ C_ 0.0165601 0.037882 0.7594 -0.02249
C_ C_ 0.264464 0.0351008 0.752521 -0.02249
C_ C_ 0.0319928 0.104494 0.726224 -0.11473
C_ C_ 0.29271 0.0919814 0.714688 -0.11473
C_ C_ 0.0649741 0.124912 0.797338 -0.11473
C_ C_ 0.306996 0.134466 0.789157 -0.11473
C_ C_ 0.0448139 0.143197 0.730509 -0.11473
C_ C_ 0.31364 0.124072 0.713217 -0.11473
C_ C_ 0.0328744 0.0768733 0.761041 -0.02249
C_ C_ 0.283115 0.0746625 0.751637 -0.02249
C_ C_ 0.0847502 0.189913 0.763469 0.6875
C_ C_ 0.341607 0.186095 0.75106 0.6875
C_ C_ 0.0491998 0.086931 0.797441 -0.11473
C_ C_ 0.291253 0.0953059 0.789998 -0.11473
C_ C_ 0.132843 0.291352 0.882622 0.17695
C_ C_ 0.354989 0.269994 0.879656 0.17695
C_ C_ 0.126954 0.216849 0.885487 0.17695
C_ C_ 0.401654 0.235604 0.875116 0.17695
C_ C_ 0.129599 0.218622 0.929231 -0.11473
C_ C_ 0.403791 0.230671 0.918238 -0.11473
C_ C_ 0.134244 0.257197 0.949441 0.23465
C_ C_ 0.383002 0.251897 0.942407 0.23465
C_ C_ 0.136747 0.292895 0.925856 -0.11473
C_ C_ 0.35794 0.271053 0.923294 -0.11473
C_ C_ 0.113824 0.21157 0.632182 0.17695
C_ C_ 0.387275 0.223586 0.620494 0.17695
C_ C_ 0.111422 0.285254 0.629011 0.17695
C_ C_ 0.361076 0.286902 0.623289 0.17695
C_ C_ 0.110284 0.283812 0.585085 -0.11473
C_ C_ 0.359358 0.289886 0.579092 -0.11473
C_ C_ 0.110635 0.245819 0.564456 0.23465
C_ C_ 0.374896 0.260417 0.555384 0.23465
C_ C_ 0.107914 0.209068 0.5878 -0.11473
C_ C_ 0.38984 0.227271 0.5766 -0.11473
C_ C_ 0.0264723 0.496014 0.772408 0.05793
C_ C_ 0.281503 0.5011 0.751987 0.05793
C_ C_ 0.216534 0.0010399999999999299 0.743245 0.05793
C_ C_ 0.467804 1.00424065 0.746743 0.05793
Br Br 0.0693292 0.495498 0.782216 -0.17191
Br Br 0.324248 0.499639 0.763504 -0.17191
Br Br 0.175399 0.00283559 0.724697 -0.17191
Br Br 0.424336 1.00481212 0.740508 -0.17191
N_ N_ 0.129192 0.253646 0.863125 -0.272
N_ N_ 0.377965 0.25551 0.855868 -0.272
N_ N_ 0.131974 0.26078 0.992671 -0.12501
N_ N_ 0.38839 0.251813 0.987392 -0.12501
N_ N_ 0.116383 0.249919 0.651366 -0.272
N_ N_ 0.37296 0.253988 0.642958 -0.272
N_ N_ 0.106685 0.241406 0.520316 -0.12501
N_ N_ 0.374534 0.26437 0.510437 -0.12501
O_ O_ 0.0951489 0.295354 0.731241 -0.60745
O_ O_ 0.344467 0.293264 0.719313 -0.60745
O_ O_ 0.0930404 0.293379 0.798727 -0.60745
O_ O_ 0.338402 0.290313 0.787193 -0.60745
O_ O_ 0.156237 0.293991 0.787067 -0.60745
O_ O_ 0.399078 0.304315 0.783041 -0.60745
O_ O_ 0.156124 0.293277 0.718 -0.60745
O_ O_ 0.404001 0.294315 0.716171 -0.60745
O_ O_ 0.155485 0.204326 0.782532 -0.60745
O_ O_ 0.411477 0.216855 0.779791 -0.60745
O_ O_ 0.154963 0.207116 0.71451 -0.60745
O_ O_ 0.405037 0.206186 0.713654 -0.60745
O_ O_ 0.0913575 0.206039 0.729291 -0.60745
O_ O_ 0.343623 0.204183 0.717786 -0.60745
O_ O_ 0.0921829 0.208136 0.796816 -0.60745
O_ O_ 0.351144 0.20537 0.782754 -0.60745
Zn Zn 0.130459 0.751058 0.283913 0.9476
Zn Zn 0.374255 0.748979 0.28203 0.9476
Zn Zn 0.128329 0.749651 0.210958 0.9476
Zn Zn 0.376365 0.754538 0.214433 0.9476
H_ H_ 0.020428 0.898111 0.181084 0.10932
H_ H_ 0.288305 0.917116 0.17489 0.10932
H_ H_ 0.0793285 0.872103 0.308596 0.10932
H_ H_ 0.314385 0.853656 0.312262 0.10932
H_ H_ 0.043035 0.828896 0.192331 0.10932
H_ H_ 0.316006 0.850352 0.176943 0.10932
H_ H_ 0.0564957 0.9402 0.298481 0.10932
H_ H_ 0.277729 0.915353 0.306528 0.10932
H_ H_ 0.221517 0.917082 0.310587 0.10932
H_ H_ 0.470214 0.91249 0.320572 0.10932
H_ H_ 0.19086 0.850827 0.177896 0.10932
H_ H_ 0.434762 0.855508 0.184949 0.10932
H_ H_ 0.194965 0.850156 0.314096 0.10932
H_ H_ 0.43618 0.85465 0.318447 0.10932
H_ H_ 0.210423 0.920002 0.17601 0.10932
H_ H_ 0.464717 0.922306 0.187848 0.10932
H_ H_ 0.21211 0.575289 0.315523 0.10932
H_ H_ 0.451236 0.569742 0.312822 0.10932
H_ H_ 0.201831 0.659542 0.18325 0.10932
H_ H_ 0.442937 0.656456 0.180324 0.10932
H_ H_ 0.185396 0.645663 0.315977 0.10932
H_ H_ 0.417551 0.63399 0.306452 0.10932
H_ H_ 0.225485 0.588339 0.182762 0.10932
H_ H_ 0.467255 0.586391 0.182036 0.10932
H_ H_ 0.0347282 0.585505 0.187314 0.10932
H_ H_ 0.300332 0.570489 0.189781 0.10932
H_ H_ 0.0650744 0.655899 0.321728 0.10932
H_ H_ 0.309423 0.650648 0.317348 0.10932
H_ H_ 0.0745171 0.638065 0.187469 0.10932
H_ H_ 0.319886 0.638657 0.182559 0.10932
H_ H_ 0.0303833 0.591999 0.322495 0.10932
H_ H_ 0.280888 0.590379 0.31921 0.10932
H_ H_ 0.147343 0.818127 0.359898 0.10932
H_ H_ 0.33259 0.771926 0.359753 0.10932
H_ H_ 0.106952 0.69737 0.361458 0.10932
H_ H_ 0.420273 0.721532 0.354733 0.10932
H_ H_ 0.111318 0.69545 0.439034 0.10932
H_ H_ 0.422884 0.724324 0.432686 0.10932
H_ H_ 0.146515 0.818924 0.434186 0.10932
H_ H_ 0.333364 0.780042 0.434306 0.10932
H_ H_ 0.130086 0.680719 0.137666 0.10932
H_ H_ 0.349176 0.810796 0.142591 0.10932
H_ H_ 0.12526 0.81051 0.132791 0.10932
H_ H_ 0.405536 0.70656 0.135203 0.10932
H_ H_ 0.135502 0.80923 0.0582799 0.10932
H_ H_ 0.406847 0.711464 0.0549043 0.10932
H_ H_ 0.131724 0.675241 0.064416 0.10932
H_ H_ 0.338982 0.80491 0.0649485 0.10932
C_ C_ 0.0679581 0.847561 0.248015 -0.02249
C_ C_ 0.318554 0.849609 0.245719 -0.02249
C_ C_ 0.0140497 0.961298 0.235924 -0.02249
C_ C_ 0.267318 0.962882 0.23548 -0.02249
C_ C_ 0.0296656 0.889965 0.211829 -0.11473
C_ C_ 0.295591 0.905014 0.205621 -0.11473
C_ C_ 0.0709277 0.879072 0.278462 -0.11473
C_ C_ 0.308474 0.868897 0.28267 -0.11473
C_ C_ 0.0461266 0.852839 0.214811 -0.11473
C_ C_ 0.312523 0.868639 0.206079 -0.11473
C_ C_ 0.0322663 0.92301 0.241557 -0.02249
C_ C_ 0.286323 0.923785 0.241414 -0.02249
C_ C_ 0.0887793 0.810724 0.246556 0.6875
C_ C_ 0.338818 0.811169 0.248311 0.6875
C_ C_ 0.0559567 0.916206 0.273047 -0.11473
C_ C_ 0.291563 0.905351 0.280351 -0.11473
C_ C_ 0.19102 0.842907 0.245274 -0.02249
C_ C_ 0.436083 0.846107 0.250833 -0.02249
C_ C_ 0.235375 0.96258 0.243985 -0.02249
C_ C_ 0.488273 0.960458 0.249561 -0.02249
C_ C_ 0.214492 0.902204 0.282676 -0.11473
C_ C_ 0.463367 0.899737 0.289477 -0.11473
C_ C_ 0.197335 0.863697 0.20659 -0.11473
C_ C_ 0.442609 0.868935 0.214396 -0.11473
C_ C_ 0.200396 0.863647 0.283 -0.11473
C_ C_ 0.444453 0.863884 0.288038 -0.11473
C_ C_ 0.219111 0.922488 0.244865 -0.02249
C_ C_ 0.47502 0.917887 0.252235 -0.02249
C_ C_ 0.169543 0.807107 0.245808 0.6875
C_ C_ 0.417245 0.809029 0.249415 0.6875
C_ C_ 0.207902 0.905983 0.206733 -0.11473
C_ C_ 0.462049 0.902431 0.215278 -0.11473
C_ C_ 0.19132 0.656813 0.249173 -0.02249
C_ C_ 0.430954 0.650924 0.247275 -0.02249
C_ C_ 0.235732 0.537762 0.249404 -0.02249
C_ C_ 0.482432 0.536781 0.248881 -0.02249
C_ C_ 0.20852 0.593465 0.285913 -0.11473
C_ C_ 0.450542 0.589781 0.284454 -0.11473
C_ C_ 0.201628 0.64069 0.211964 -0.11473
C_ C_ 0.446152 0.639347 0.210945 -0.11473
C_ C_ 0.193571 0.633144 0.286236 -0.11473
C_ C_ 0.431847 0.624927 0.281918 -0.11473
C_ C_ 0.219472 0.577816 0.247948 -0.02249
C_ C_ 0.464258 0.57686 0.248216 -0.02249
C_ C_ 0.171873 0.694628 0.250754 0.6875
C_ C_ 0.411315 0.687681 0.248353 0.6875
C_ C_ 0.218844 0.602995 0.212041 -0.11473
C_ C_ 0.460792 0.600373 0.210434 -0.11473
C_ C_ 0.0704647 0.651165 0.254775 -0.02249
C_ C_ 0.317876 0.653444 0.250893 -0.02249
C_ C_ 0.0186997 0.538263 0.257657 -0.02249
C_ C_ 0.266755 0.537362 0.256608 -0.02249
C_ C_ 0.0450525 0.594699 0.217904 -0.11473
C_ C_ 0.298652 0.589934 0.21723 -0.11473
C_ C_ 0.0595821 0.638266 0.293076 -0.11473
C_ C_ 0.303549 0.639234 0.287299 -0.11473
C_ C_ 0.0650107 0.627892 0.217592 -0.11473
C_ C_ 0.312382 0.629078 0.214187 -0.11473
C_ C_ 0.0359188 0.578803 0.257521 -0.02249
C_ C_ 0.285312 0.577104 0.254397 -0.02249
C_ C_ 0.092343 0.687018 0.251443 0.6875
C_ C_ 0.335129 0.692967 0.249312 0.6875
C_ C_ 0.0419804 0.60212 0.294428 -0.11473
C_ C_ 0.290513 0.600206 0.289478 -0.11473
C_ C_ 0.138769 0.789762 0.375464 0.17695
C_ C_ 0.353418 0.768107 0.374781 0.17695
C_ C_ 0.120741 0.721409 0.377781 0.17695
C_ C_ 0.402775 0.737226 0.371828 0.17695
C_ C_ 0.119329 0.722412 0.422832 -0.11473
C_ C_ 0.402964 0.737147 0.417055 -0.11473
C_ C_ 0.128639 0.758053 0.442406 0.23465
C_ C_ 0.378643 0.751774 0.441178 0.23465
C_ C_ 0.138565 0.791757 0.418016 -0.11473
C_ C_ 0.353029 0.76675 0.418841 -0.11473
C_ C_ 0.12783 0.708202 0.120294 0.17695
C_ C_ 0.358431 0.78491 0.123903 0.17695
C_ C_ 0.125359 0.781985 0.116001 0.17695
C_ C_ 0.390615 0.727923 0.119109 0.17695
C_ C_ 0.128106 0.781743 0.0737434 -0.11473
C_ C_ 0.392349 0.732026 0.0735766 -0.11473
C_ C_ 0.127816 0.742926 0.0532425 0.23465
C_ C_ 0.375119 0.763605 0.0536819 0.23465
C_ C_ 0.128594 0.707195 0.076597 -0.11473
C_ C_ 0.355319 0.785318 0.0795332 -0.11473
C_ C_ 0.0269956 0.999643 0.227023 0.05793
C_ C_ 0.282821 1.00280655 0.237211 0.05793
C_ C_ 0.219491 0.500865 0.248111 0.05793
C_ C_ 0.467994 0.497683 0.250249 0.05793
Br Br 0.0683017 -0.0011790000000000411 0.212303 -0.17191
Br Br 0.32515 1.00408181 0.227114 -0.17191
Br Br 0.176409 0.505212 0.233566 -0.17191
Br Br 0.425612 0.497199 0.232276 -0.17191
N_ N_ 0.129839 0.754716 0.35548 -0.272
N_ N_ 0.376886 0.751371 0.353109 -0.272
N_ N_ 0.12304 0.763893 0.486009 -0.12501
N_ N_ 0.382193 0.753893 0.486016 -0.12501
N_ N_ 0.124812 0.746805 0.139049 -0.272
N_ N_ 0.375916 0.756784 0.142119 -0.272
N_ N_ 0.134262 0.741495 0.0102514 -0.12501
N_ N_ 0.372662 0.769135 0.0101924 -0.12501
O_ O_ 0.0951963 0.795163 0.211443 -0.60745
O_ O_ 0.348856 0.797227 0.21549 -0.60745
O_ O_ 0.0975088 0.793323 0.280954 -0.60745
O_ O_ 0.34469 0.791812 0.282437 -0.60745
O_ O_ 0.163405 0.79034 0.281257 -0.60745
O_ O_ 0.407952 0.791622 0.282104 -0.60745
O_ O_ 0.155253 0.795837 0.212809 -0.60745
O_ O_ 0.405547 0.800374 0.21428 -0.60745
O_ O_ 0.162436 0.709916 0.285038 -0.60745
O_ O_ 0.402369 0.703034 0.282706 -0.60745
O_ O_ 0.163444 0.709812 0.216557 -0.60745
O_ O_ 0.407154 0.708695 0.213388 -0.60745
O_ O_ 0.0979065 0.703291 0.216878 -0.60745
O_ O_ 0.346386 0.707105 0.214679 -0.60745
O_ O_ 0.100141 0.705743 0.285055 -0.60745
O_ O_ 0.341601 0.71061 0.284962 -0.60745
Zn Zn 0.120325 0.743912 0.784329 0.9476
Zn Zn 0.372507 0.750727 0.781532 0.9476
Zn Zn 0.123297 0.74513 0.714205 0.9476
Zn Zn 0.370726 0.750015 0.711338 0.9476
H_ H_ 0.0416724 0.924922 0.68601 0.10932
H_ H_ 0.268041 0.908668 0.69093 0.10932
H_ H_ 0.0599244 0.845888 0.814165 0.10932
H_ H_ 0.319219 0.855783 0.81837 0.10932
H_ H_ 0.0712445 0.86176 0.682225 0.10932
H_ H_ 0.29815 0.845804 0.686814 0.10932
H_ H_ 0.0344781 0.910729 0.818646 0.10932
H_ H_ 0.287501 0.919308 0.82428 0.10932
H_ H_ 0.217361 0.905843 0.813776 0.10932
H_ H_ 0.457986 0.926968 0.80934 0.10932
H_ H_ 0.165903 0.862449 0.681214 0.10932
H_ H_ 0.43525 0.859593 0.676753 0.10932
H_ H_ 0.193205 0.836211 0.809154 0.10932
H_ H_ 0.428329 0.862356 0.809063 0.10932
H_ H_ 0.200682 0.921469 0.681003 0.10932
H_ H_ 0.466868 0.924696 0.678669 0.10932
H_ H_ 0.203388 0.571453 0.821066 0.10932
H_ H_ 0.457924 0.570708 0.799874 0.10932
H_ H_ 0.181985 0.64398 0.688154 0.10932
H_ H_ 0.441259 0.660154 0.67338 0.10932
H_ H_ 0.169229 0.634818 0.818122 0.10932
H_ H_ 0.429719 0.637478 0.804977 0.10932
H_ H_ 0.216024 0.57977 0.689968 0.10932
H_ H_ 0.473388 0.593867 0.672218 0.10932
H_ H_ 0.0401129 0.565743 0.692561 0.10932
H_ H_ 0.29814 0.568963 0.692406 0.10932
H_ H_ 0.049018 0.656011 0.821158 0.10932
H_ H_ 0.293344 0.663154 0.81478 0.10932
H_ H_ 0.0727002 0.630413 0.689782 0.10932
H_ H_ 0.321123 0.635254 0.689976 0.10932
H_ H_ 0.0243286 0.59216 0.823033 0.10932
H_ H_ 0.266907 0.599665 0.816026 0.10932
H_ H_ 0.126747 0.817116 0.849729 0.10932
H_ H_ 0.381375 0.814603 0.856895 0.10932
H_ H_ 0.124956 0.688503 0.862167 0.10932
H_ H_ 0.377171 0.686662 0.853267 0.10932
H_ H_ 0.120693 0.696285 0.941184 0.10932
H_ H_ 0.381093 0.681109 0.933143 0.10932
H_ H_ 0.126247 0.827296 0.927814 0.10932
H_ H_ 0.383272 0.814367 0.936886 0.10932
H_ H_ 0.124208 0.679025 0.642217 0.10932
H_ H_ 0.35135 0.814175 0.640624 0.10932
H_ H_ 0.112575 0.809175 0.635891 0.10932
H_ H_ 0.380009 0.690122 0.635503 0.10932
H_ H_ 0.119935 0.806231 0.559457 0.10932
H_ H_ 0.37183 0.691227 0.558494 0.10932
H_ H_ 0.130013 0.677226 0.566559 0.10932
H_ H_ 0.349567 0.816562 0.559647 0.10932
C_ C_ 0.0680915 0.849348 0.748862 -0.02249
C_ C_ 0.312109 0.845893 0.75232 -0.02249
C_ C_ 0.01769 0.962455 0.750738 -0.02249
C_ C_ 0.260782 0.958981 0.756493 -0.02249
C_ C_ 0.0451979 0.90669 0.714071 -0.11473
C_ C_ 0.28139 0.89787 0.717177 -0.11473
C_ C_ 0.0593522 0.864355 0.787375 -0.11473
C_ C_ 0.307472 0.867283 0.791352 -0.11473
C_ C_ 0.0629428 0.872565 0.712882 -0.11473
C_ C_ 0.297448 0.861113 0.71553 -0.11473
C_ C_ 0.0357956 0.923034 0.751963 -0.02249
C_ C_ 0.275867 0.918249 0.755424 -0.02249
C_ C_ 0.0836161 0.806099 0.747607 0.6875
C_ C_ 0.333228 0.810366 0.750427 0.6875
C_ C_ 0.041046 0.899252 0.789774 -0.11473
C_ C_ 0.287922 0.902544 0.792924 -0.11473
C_ C_ 0.178659 0.844753 0.743851 -0.02249
C_ C_ 0.428247 0.854729 0.741326 -0.02249
C_ C_ 0.229511 0.96066 0.747407 -0.02249
C_ C_ 0.484046 0.964857 0.747958 -0.02249
C_ C_ 0.208027 0.896517 0.783339 -0.11473
C_ C_ 0.453049 0.91059 0.78211 -0.11473
C_ C_ 0.181717 0.868427 0.708252 -0.11473
C_ C_ 0.443358 0.870721 0.705591 -0.11473
C_ C_ 0.19321 0.857594 0.782076 -0.11473
C_ C_ 0.432966 0.87632 0.781484 -0.11473
C_ C_ 0.21106 0.920965 0.747116 -0.02249
C_ C_ 0.466141 0.92546 0.746601 -0.02249
C_ C_ 0.161036 0.803921 0.743947 0.6875
C_ C_ 0.411649 0.814253 0.740346 0.6875
C_ C_ 0.198216 0.904621 0.709294 -0.11473
C_ C_ 0.460118 0.908188 0.707185 -0.11473
C_ C_ 0.181882 0.649566 0.75579 -0.02249
C_ C_ 0.432068 0.652349 0.739544 -0.02249
C_ C_ 0.233086 0.536368 0.757854 -0.02249
C_ C_ 0.484362 0.539429 0.733123 -0.02249
C_ C_ 0.201629 0.589745 0.793031 -0.11473
C_ C_ 0.455625 0.591197 0.773988 -0.11473
C_ C_ 0.191917 0.632509 0.719062 -0.11473
C_ C_ 0.443799 0.639757 0.701361 -0.11473
C_ C_ 0.185121 0.626489 0.793652 -0.11473
C_ C_ 0.437596 0.627648 0.775147 -0.11473
C_ C_ 0.214521 0.575718 0.756142 -0.02249
C_ C_ 0.465815 0.577962 0.735409 -0.02249
C_ C_ 0.162346 0.68813 0.752647 0.6875
C_ C_ 0.411471 0.689806 0.741954 0.6875
C_ C_ 0.206847 0.594109 0.71841 -0.11473
C_ C_ 0.461222 0.603226 0.699034 -0.11473
C_ C_ 0.0626825 0.647516 0.753594 -0.02249
C_ C_ 0.309015 0.657198 0.750411 -0.02249
C_ C_ 0.012407 0.533986 0.762462 -0.02249
C_ C_ 0.265314 0.538449 0.75587 -0.02249
C_ C_ 0.0412194 0.5865 0.718405 -0.11473
C_ C_ 0.293494 0.591571 0.716001 -0.11473
C_ C_ 0.0470705 0.637802 0.790773 -0.11473
C_ C_ 0.291709 0.647091 0.78555 -0.11473
C_ C_ 0.0609674 0.620952 0.717154 -0.11473
C_ C_ 0.307102 0.631848 0.713957 -0.11473
C_ C_ 0.0301009 0.57321 0.758454 -0.02249
C_ C_ 0.279244 0.580446 0.753268 -0.02249
C_ C_ 0.0806489 0.687031 0.753673 0.6875
C_ C_ 0.330973 0.69248 0.750364 0.6875
C_ C_ 0.0344491 0.599636 0.793001 -0.11473
C_ C_ 0.27683 0.608266 0.787119 -0.11473
C_ C_ 0.122359 0.791752 0.869987 0.17695
C_ C_ 0.382045 0.785466 0.874402 0.17695
C_ C_ 0.125181 0.718685 0.877755 0.17695
C_ C_ 0.376113 0.713638 0.872009 0.17695
C_ C_ 0.125848 0.721263 0.922287 -0.11473
C_ C_ 0.377775 0.711363 0.916402 -0.11473
C_ C_ 0.125434 0.761788 0.939662 0.23465
C_ C_ 0.380365 0.747394 0.940258 0.23465
C_ C_ 0.123602 0.796277 0.913929 -0.11473
C_ C_ 0.380602 0.785431 0.918914 -0.11473
C_ C_ 0.123847 0.707354 0.623599 0.17695
C_ C_ 0.356503 0.786835 0.622172 0.17695
C_ C_ 0.12108 0.780767 0.621064 0.17695
C_ C_ 0.37289 0.717225 0.619484 0.17695
C_ C_ 0.12228 0.778194 0.576812 -0.11473
C_ C_ 0.37124 0.718659 0.575667 -0.11473
C_ C_ 0.127973 0.741396 0.55596 0.23465
C_ C_ 0.365331 0.756483 0.554551 0.23465
C_ C_ 0.132143 0.706091 0.581635 -0.11473
C_ C_ 0.357572 0.790821 0.577989 -0.11473
C_ C_ 0.0334151 0.0008999999999999009 0.754139 0.05793
C_ C_ 0.278281 -0.0037970000000000503 0.759029 0.05793
C_ C_ 0.217801 0.498829 0.753913 0.05793
C_ C_ 0.468901 0.501009 0.72634 0.05793
Br Br 0.0750637 0.00135846 0.740923 -0.17191
Br Br 0.321496 -0.0025810000000000555 0.776409 -0.17191
Br Br 0.175663 0.498867 0.762554 -0.17191
Br Br 0.430349 0.502874 0.695664 -0.17191
N_ N_ 0.123815 0.753518 0.853358 -0.272
N_ N_ 0.375248 0.750019 0.853169 -0.272
N_ N_ 0.124902 0.768488 0.985677 -0.12501
N_ N_ 0.385753 0.745498 0.984645 -0.12501
N_ N_ 0.122737 0.745383 0.6435 -0.272
N_ N_ 0.364623 0.752066 0.641209 -0.272
N_ N_ 0.13237 0.73705 0.511584 -0.12501
N_ N_ 0.360336 0.757467 0.510067 -0.12501
O_ O_ 0.0950146 0.792037 0.713739 -0.60745
O_ O_ 0.341683 0.796452 0.714634 -0.60745
O_ O_ 0.0878743 0.787048 0.781827 -0.60745
O_ O_ 0.34357 0.794307 0.783572 -0.60745
O_ O_ 0.14719 0.793907 0.777043 -0.60745
O_ O_ 0.401493 0.800384 0.776264 -0.60745
O_ O_ 0.155808 0.784248 0.709611 -0.60745
O_ O_ 0.402653 0.795582 0.705846 -0.60745
O_ O_ 0.155759 0.707791 0.785121 -0.60745
O_ O_ 0.405137 0.706132 0.777785 -0.60745
O_ O_ 0.150573 0.699243 0.716667 -0.60745
O_ O_ 0.402699 0.707822 0.709065 -0.60745
O_ O_ 0.0894662 0.701581 0.718783 -0.60745
O_ O_ 0.338739 0.707023 0.715736 -0.60745
O_ O_ 0.0939251 0.697953 0.787735 -0.60745
O_ O_ 0.34379 0.704725 0.783611 -0.60745
Zn Zn 0.623746 0.248642 0.283397 0.9476
Zn Zn 0.879887 0.2465 0.294307 0.9476
Zn Zn 0.62569 0.24831 0.215487 0.9476
Zn Zn 0.874704 0.250557 0.221074 0.9476
H_ H_ 0.540926 0.420193 0.181012 0.10932
H_ H_ 0.799377 0.427124 0.202713 0.10932
H_ H_ 0.568425 0.356878 0.315151 0.10932
H_ H_ 0.817229 0.343562 0.328877 0.10932
H_ H_ 0.568909 0.355679 0.181182 0.10932
H_ H_ 0.834977 0.369904 0.203378 0.10932
H_ H_ 0.536101 0.417657 0.314908 0.10932
H_ H_ 0.789308 0.410507 0.33227 0.10932
H_ H_ 0.727951 0.402379 0.320026 0.10932
H_ H_ 0.976935 0.412809 0.321395 0.10932
H_ H_ 0.689839 0.35547 0.184089 0.10932
H_ H_ 0.930412 0.35765 0.190469 0.10932
H_ H_ 0.698235 0.337785 0.31704 0.10932
H_ H_ 0.945836 0.351246 0.319597 0.10932
H_ H_ 0.7201 0.417213 0.188031 0.10932
H_ H_ 0.961731 0.424672 0.188872 0.10932
H_ H_ 0.711992 0.0719747 0.311026 0.10932
H_ H_ 0.970431 0.0827517 0.32272 0.10932
H_ H_ 0.706598 0.169262 0.190737 0.10932
H_ H_ 0.924724 0.143881 0.195182 0.10932
H_ H_ 0.676809 0.134382 0.314696 0.10932
H_ H_ 0.954407 0.151921 0.323053 0.10932
H_ H_ 0.731238 0.100542 0.184687 0.10932
H_ H_ 0.95248 0.0771381 0.188844 0.10932
H_ H_ 0.536694 0.0799711 0.178642 0.10932
H_ H_ 0.802163 0.0719332 0.189352 0.10932
H_ H_ 0.551558 0.155081 0.311106 0.10932
H_ H_ 0.809618 0.153441 0.322391 0.10932
H_ H_ 0.562626 0.14958 0.178561 0.10932
H_ H_ 0.832951 0.13535 0.192427 0.10932
H_ H_ 0.527232 0.0841759 0.311308 0.10932
H_ H_ 0.775588 0.088051 0.317388 0.10932
H_ H_ 0.631023 0.186488 0.360191 0.10932
H_ H_ 0.900385 0.191298 0.37636 0.10932
H_ H_ 0.623908 0.317374 0.349507 0.10932
H_ H_ 0.866347 0.313025 0.363503 0.10932
H_ H_ 0.62339 0.320217 0.429173 0.10932
H_ H_ 0.858892 0.319347 0.438982 0.10932
H_ H_ 0.629888 0.190491 0.440008 0.10932
H_ H_ 0.90227 0.204392 0.45432 0.10932
H_ H_ 0.641247 0.178789 0.14812 0.10932
H_ H_ 0.910878 0.279762 0.142503 0.10932
H_ H_ 0.613417 0.304021 0.136768 0.10932
H_ H_ 0.835134 0.200605 0.146482 0.10932
H_ H_ 0.612372 0.300906 0.0583867 0.10932
H_ H_ 0.829879 0.2068 0.0696101 0.10932
H_ H_ 0.638106 0.172239 0.0717464 0.10932
H_ H_ 0.908942 0.279926 0.0659295 0.10932
C_ C_ 0.566403 0.345016 0.250082 -0.02249
C_ C_ 0.820809 0.347427 0.262606 -0.02249
C_ C_ 0.516153 0.463674 0.243907 -0.02249
C_ C_ 0.769531 0.460534 0.265116 -0.02249
C_ C_ 0.544669 0.403038 0.210133 -0.11473
C_ C_ 0.801651 0.410591 0.230991 -0.11473
C_ C_ 0.559683 0.368397 0.285788 -0.11473
C_ C_ 0.807435 0.358744 0.300019 -0.11473
C_ C_ 0.558118 0.364405 0.21065 -0.11473
C_ C_ 0.818469 0.374033 0.228483 -0.11473
C_ C_ 0.533982 0.421766 0.247262 -0.02249
C_ C_ 0.785845 0.419796 0.266295 -0.02249
C_ C_ 0.584384 0.306274 0.250296 0.6875
C_ C_ 0.839942 0.309666 0.258214 0.6875
C_ C_ 0.542059 0.403237 0.285635 -0.11473
C_ C_ 0.791649 0.395516 0.302754 -0.11473
C_ C_ 0.686057 0.345019 0.251361 -0.02249
C_ C_ 0.935823 0.350414 0.255068 -0.02249
C_ C_ 0.737234 0.459772 0.257365 -0.02249
C_ C_ 0.98726 0.46368 0.256235 -0.02249
C_ C_ 0.717782 0.393623 0.289918 -0.11473
C_ C_ 0.96601 0.403983 0.293543 -0.11473
C_ C_ 0.695725 0.364832 0.213622 -0.11473
C_ C_ 0.940255 0.371779 0.218587 -0.11473
C_ C_ 0.700735 0.355542 0.289265 -0.11473
C_ C_ 0.949759 0.366032 0.292342 -0.11473
C_ C_ 0.719393 0.420039 0.25575 -0.02249
C_ C_ 0.969975 0.423551 0.254957 -0.02249
C_ C_ 0.664085 0.310695 0.249298 0.6875
C_ C_ 0.915615 0.311766 0.255875 0.6875
C_ C_ 0.710618 0.40342 0.215907 -0.11473
C_ C_ 0.959239 0.407984 0.216733 -0.11473
C_ C_ 0.689059 0.15669 0.254334 -0.02249
C_ C_ 0.940284 0.154612 0.258485 -0.02249
C_ C_ 0.737301 0.0411748 0.247956 -0.02249
C_ C_ 0.981867 0.0359208 0.248715 -0.02249
C_ C_ 0.709598 0.0951443 0.286715 -0.11473
C_ C_ 0.964475 0.0968431 0.293262 -0.11473
C_ C_ 0.705301 0.147255 0.217175 -0.11473
C_ C_ 0.937845 0.131976 0.221264 -0.11473
C_ C_ 0.692007 0.129342 0.288977 -0.11473
C_ C_ 0.952578 0.13586 0.294281 -0.11473
C_ C_ 0.722441 0.0830121 0.249547 -0.02249
C_ C_ 0.966228 0.0766991 0.253954 -0.02249
C_ C_ 0.667667 0.192869 0.254769 0.6875
C_ C_ 0.919583 0.190955 0.26217 0.6875
C_ C_ 0.720913 0.109381 0.212899 -0.11473
C_ C_ 0.954028 0.0956225 0.217623 -0.11473
C_ C_ 0.561115 0.157226 0.24529 -0.02249
C_ C_ 0.818922 0.150196 0.256214 -0.02249
C_ C_ 0.516801 0.0404525 0.24203 -0.02249
C_ C_ 0.769475 0.0382549 0.251258 -0.02249
C_ C_ 0.54015 0.0994965 0.206393 -0.11473
C_ C_ 0.804424 0.0889671 0.219441 -0.11473
C_ C_ 0.546949 0.140625 0.282002 -0.11473
C_ C_ 0.804932 0.13594 0.293713 -0.11473
C_ C_ 0.555935 0.135986 0.207675 -0.11473
C_ C_ 0.820268 0.12642 0.220373 -0.11473
C_ C_ 0.532389 0.080718 0.243721 -0.02249
C_ C_ 0.788291 0.075599 0.255641 -0.02249
C_ C_ 0.583334 0.192091 0.249177 0.6875
C_ C_ 0.838776 0.186088 0.258012 0.6875
C_ C_ 0.534727 0.100645 0.281406 -0.11473
C_ C_ 0.789111 0.097697 0.292363 -0.11473
C_ C_ 0.627094 0.216682 0.374623 0.17695
C_ C_ 0.891906 0.219532 0.39177 0.17695
C_ C_ 0.624764 0.288242 0.369829 0.17695
C_ C_ 0.873595 0.287073 0.383906 0.17695
C_ C_ 0.6249 0.290912 0.413493 -0.11473
C_ C_ 0.870462 0.291874 0.427609 -0.11473
C_ C_ 0.629999 0.256511 0.43895 0.23465
C_ C_ 0.879651 0.25974 0.453431 0.23465
C_ C_ 0.62885 0.217722 0.419751 -0.11473
C_ C_ 0.889039 0.224787 0.436103 -0.11473
C_ C_ 0.632049 0.204849 0.127787 0.17695
C_ C_ 0.892704 0.262703 0.127746 0.17695
C_ C_ 0.620348 0.276003 0.120672 0.17695
C_ C_ 0.849379 0.219651 0.128482 0.17695
C_ C_ 0.617883 0.273321 0.0766587 -0.11473
C_ C_ 0.846549 0.224725 0.085173 -0.11473
C_ C_ 0.626329 0.236023 0.0574836 0.23465
C_ C_ 0.868748 0.244322 0.0613696 0.23465
C_ C_ 0.630111 0.200643 0.0844732 -0.11473
C_ C_ 0.892734 0.262192 0.0832032 -0.11473
C_ C_ 0.530738 0.503137 0.245631 0.05793
C_ C_ 0.783639 0.498975 0.269627 0.05793
C_ C_ 0.720844 1.00498593 0.238549 0.05793
C_ C_ 0.965625 0.997558 0.248247 0.05793
Br Br 0.575042 0.502419 0.237896 -0.17191
Br Br 0.825697 0.498767 0.290175 -0.17191
Br Br 0.677044 0.00909663 0.238231 -0.17191
Br Br 0.922837 -0.006874000000000047 0.249733 -0.17191
N_ N_ 0.624868 0.251935 0.351085 -0.272
N_ N_ 0.884627 0.251503 0.366472 -0.272
N_ N_ 0.628999 0.261719 0.482465 -0.12501
N_ N_ 0.878847 0.266181 0.497521 -0.12501
N_ N_ 0.62425 0.242266 0.145471 -0.272
N_ N_ 0.872443 0.239753 0.149843 -0.272
N_ N_ 0.631771 0.235558 0.0124171 -0.12501
N_ N_ 0.863678 0.250116 0.0158951 -0.12501
O_ O_ 0.589012 0.284136 0.217929 -0.60745
O_ O_ 0.845641 0.292868 0.222741 -0.60745
O_ O_ 0.598228 0.296699 0.283885 -0.60745
O_ O_ 0.848815 0.290695 0.290478 -0.60745
O_ O_ 0.657829 0.291077 0.282826 -0.60745
O_ O_ 0.908695 0.296196 0.291542 -0.60745
O_ O_ 0.651218 0.300183 0.214235 -0.60745
O_ O_ 0.903366 0.298176 0.221907 -0.60745
O_ O_ 0.653239 0.20132 0.285896 -0.60745
O_ O_ 0.913168 0.205696 0.298211 -0.60745
O_ O_ 0.662656 0.211532 0.220423 -0.60745
O_ O_ 0.907917 0.206523 0.229113 -0.60745
O_ O_ 0.60052 0.199176 0.217889 -0.60745
O_ O_ 0.842455 0.207324 0.224407 -0.60745
O_ O_ 0.58973 0.207995 0.284277 -0.60745
O_ O_ 0.850108 0.199316 0.292149 -0.60745
Zn Zn 0.625755 0.254818 0.781618 0.9476
Zn Zn 0.873664 0.246229 0.792187 0.9476
Zn Zn 0.627148 0.253938 0.71082 0.9476
Zn Zn 0.87426 0.247371 0.724005 0.9476
H_ H_ 0.539163 0.42849 0.685097 0.10932
H_ H_ 0.798667 0.429908 0.67992 0.10932
H_ H_ 0.556488 0.346076 0.813818 0.10932
H_ H_ 0.812351 0.35151 0.813623 0.10932
H_ H_ 0.574479 0.364575 0.686708 0.10932
H_ H_ 0.824773 0.359162 0.6828 0.10932
H_ H_ 0.529142 0.412207 0.813592 0.10932
H_ H_ 0.77658 0.409372 0.812128 0.10932
H_ H_ 0.697498 0.43236 0.804743 0.10932
H_ H_ 0.957371 0.419799 0.817581 0.10932
H_ H_ 0.712099 0.333459 0.690789 0.10932
H_ H_ 0.938687 0.344562 0.68558 0.10932
H_ H_ 0.665949 0.371177 0.798214 0.10932
H_ H_ 0.938358 0.346909 0.821538 0.10932
H_ H_ 0.745993 0.399349 0.695471 0.10932
H_ H_ 0.96548 0.408268 0.68619 0.10932
H_ H_ 0.712263 0.0827226 0.815134 0.10932
H_ H_ 0.973236 0.0816551 0.825629 0.10932
H_ H_ 0.671027 0.140746 0.678315 0.10932
H_ H_ 0.924618 0.138889 0.694442 0.10932
H_ H_ 0.687544 0.152579 0.812545 0.10932
H_ H_ 0.937727 0.142626 0.827681 0.10932
H_ H_ 0.701467 0.0787847 0.680187 0.10932
H_ H_ 0.954308 0.0726934 0.693339 0.10932
H_ H_ 0.538329 0.0780025 0.686549 0.10932
H_ H_ 0.769809 0.0977757 0.686927 0.10932
H_ H_ 0.562286 0.155418 0.815621 0.10932
H_ H_ 0.828279 0.128991 0.819382 0.10932
H_ H_ 0.563174 0.147558 0.68018 0.10932
H_ H_ 0.797013 0.160327 0.695036 0.10932
H_ H_ 0.538058 0.0918324 0.819528 0.10932
H_ H_ 0.799001 0.0629862 0.81392 0.10932
H_ H_ 0.639859 0.318914 0.856026 0.10932
H_ H_ 0.91869 0.249498 0.858448 0.10932
H_ H_ 0.60474 0.198328 0.860675 0.10932
H_ H_ 0.825262 0.2536 0.866588 0.10932
H_ H_ 0.608676 0.197949 0.937813 0.10932
H_ H_ 0.827452 0.239601 0.942022 0.10932
H_ H_ 0.641437 0.32224 0.93511 0.10932
H_ H_ 0.924034 0.249283 0.935698 0.10932
H_ H_ 0.624138 0.315105 0.628845 0.10932
H_ H_ 0.869039 0.308679 0.647419 0.10932
H_ H_ 0.628056 0.185768 0.644879 0.10932
H_ H_ 0.875825 0.176435 0.651109 0.10932
H_ H_ 0.62922 0.177447 0.569277 0.10932
H_ H_ 0.879737 0.175376 0.573092 0.10932
H_ H_ 0.633682 0.305631 0.55158 0.10932
H_ H_ 0.879695 0.306779 0.57526 0.10932
C_ C_ 0.5669 0.351724 0.748926 -0.02249
C_ C_ 0.822031 0.350247 0.748257 -0.02249
C_ C_ 0.512914 0.46307 0.752942 -0.02249
C_ C_ 0.768585 0.465204 0.745685 -0.02249
C_ C_ 0.54161 0.409591 0.712571 -0.11473
C_ C_ 0.8022 0.412362 0.71114 -0.11473
C_ C_ 0.553964 0.364443 0.786967 -0.11473
C_ C_ 0.808955 0.366171 0.784523 -0.11473
C_ C_ 0.561036 0.373078 0.712472 -0.11473
C_ C_ 0.817693 0.373526 0.711371 -0.11473
C_ C_ 0.530087 0.423307 0.751073 -0.02249
C_ C_ 0.787121 0.426323 0.746807 -0.02249
C_ C_ 0.586421 0.315069 0.749329 0.6875
C_ C_ 0.838929 0.309633 0.749394 0.6875
C_ C_ 0.535242 0.399079 0.786273 -0.11473
C_ C_ 0.788889 0.401737 0.783197 -0.11473
C_ C_ 0.686199 0.348718 0.742897 -0.02249
C_ C_ 0.931992 0.343204 0.755778 -0.02249
C_ C_ 0.736271 0.463778 0.747455 -0.02249
C_ C_ 0.98132 0.458002 0.753724 -0.02249
C_ C_ 0.697921 0.41436 0.775998 -0.11473
C_ C_ 0.955098 0.400652 0.790885 -0.11473
C_ C_ 0.706402 0.357757 0.710728 -0.11473
C_ C_ 0.944037 0.358025 0.716595 -0.11473
C_ C_ 0.681127 0.377269 0.77372 -0.11473
C_ C_ 0.942957 0.361549 0.79298 -0.11473
C_ C_ 0.719241 0.424717 0.744371 -0.02249
C_ C_ 0.963257 0.419268 0.752284 -0.02249
C_ C_ 0.668209 0.31064 0.741903 0.6875
C_ C_ 0.913493 0.305052 0.754656 0.6875
C_ C_ 0.724765 0.394826 0.712548 -0.11473
C_ C_ 0.956706 0.39793 0.715011 -0.11473
C_ C_ 0.676797 0.150176 0.746823 -0.02249
C_ C_ 0.92878 0.146278 0.761457 -0.02249
C_ C_ 0.730372 0.0382536 0.747594 -0.02249
C_ C_ 0.983991 0.0360524 0.758734 -0.02249
C_ C_ 0.704672 0.0967467 0.785353 -0.11473
C_ C_ 0.96115 0.0959995 0.795993 -0.11473
C_ C_ 0.680609 0.127702 0.708868 -0.11473
C_ C_ 0.933116 0.125633 0.723225 -0.11473
C_ C_ 0.689018 0.134649 0.784829 -0.11473
C_ C_ 0.939675 0.127972 0.798262 -0.11473
C_ C_ 0.711745 0.0771691 0.7474 -0.02249
C_ C_ 0.967879 0.0780188 0.758088 -0.02249
C_ C_ 0.65948 0.188705 0.745863 0.6875
C_ C_ 0.912441 0.186218 0.764038 0.6875
C_ C_ 0.696766 0.09136 0.709371 -0.11473
C_ C_ 0.95299 0.0921066 0.722129 -0.11473
C_ C_ 0.564491 0.158138 0.747442 -0.02249
C_ C_ 0.811736 0.152209 0.75801 -0.02249
C_ C_ 0.517459 0.0414981 0.754754 -0.02249
C_ C_ 0.762549 0.0377875 0.748824 -0.02249
C_ C_ 0.544679 0.0954907 0.713599 -0.11473
C_ C_ 0.779687 0.105766 0.718303 -0.11473
C_ C_ 0.557406 0.140875 0.78758 -0.11473
C_ C_ 0.81331 0.12314 0.79156 -0.11473
C_ C_ 0.556963 0.134314 0.709907 -0.11473
C_ C_ 0.79469 0.143427 0.722887 -0.11473
C_ C_ 0.535745 0.0808463 0.752107 -0.02249
C_ C_ 0.780168 0.0772145 0.751469 -0.02249
C_ C_ 0.582168 0.198125 0.746569 0.6875
C_ C_ 0.832316 0.18907 0.757128 0.6875
C_ C_ 0.542368 0.103396 0.789753 -0.11473
C_ C_ 0.79801 0.084546 0.787885 -0.11473
C_ C_ 0.633464 0.292159 0.874295 0.17695
C_ C_ 0.899957 0.251218 0.878339 0.17695
C_ C_ 0.615055 0.223742 0.877152 0.17695
C_ C_ 0.846376 0.24887 0.881571 0.17695
C_ C_ 0.615016 0.224987 0.921379 -0.11473
C_ C_ 0.847618 0.245131 0.926194 -0.11473
C_ C_ 0.623947 0.260827 0.942055 0.23465
C_ C_ 0.876463 0.244252 0.947153 0.23465
C_ C_ 0.635202 0.293875 0.918539 -0.11473
C_ C_ 0.90178 0.248695 0.921713 -0.11473
C_ C_ 0.625776 0.284441 0.615672 0.17695
C_ C_ 0.872469 0.278169 0.63249 0.17695
C_ C_ 0.625052 0.212456 0.623494 0.17695
C_ C_ 0.873429 0.205121 0.634963 0.17695
C_ C_ 0.627584 0.207985 0.580039 -0.11473
C_ C_ 0.875956 0.203675 0.590915 -0.11473
C_ C_ 0.628473 0.241751 0.553946 0.23465
C_ C_ 0.878578 0.240134 0.566577 0.23465
C_ C_ 0.63019 0.279374 0.572588 -0.11473
C_ C_ 0.876648 0.277258 0.589027 -0.11473
C_ C_ 0.527845 0.500829 0.763141 0.05793
C_ C_ 0.783388 0.503094 0.745818 0.05793
C_ C_ 0.714153 -0.0003589999999999982 0.740961 0.05793
C_ C_ 0.968312 -0.001534999999999953 0.752535 0.05793
Br Br 0.56798 0.502092 0.783512 -0.17191
Br Br 0.826751 0.505973 0.75312 -0.17191
Br Br 0.670603 -0.0006739999999999524 0.737964 -0.17191
Br Br 0.926669 -0.0024610000000000465 0.741406 -0.17191
N_ N_ 0.627241 0.255865 0.854371 -0.272
N_ N_ 0.872629 0.248188 0.859879 -0.272
N_ N_ 0.620579 0.261222 0.987636 -0.12501
N_ N_ 0.880397 0.233466 0.990791 -0.12501
N_ N_ 0.62299 0.250773 0.639888 -0.272
N_ N_ 0.873309 0.242278 0.654505 -0.272
N_ N_ 0.633372 0.234839 0.509047 -0.12501
N_ N_ 0.877662 0.237628 0.522584 -0.12501
O_ O_ 0.596244 0.300772 0.715465 -0.60745
O_ O_ 0.844613 0.290178 0.715953 -0.60745
O_ O_ 0.596087 0.30065 0.783286 -0.60745
O_ O_ 0.844264 0.293253 0.785058 -0.60745
O_ O_ 0.657036 0.298669 0.777045 -0.60745
O_ O_ 0.903259 0.289544 0.788119 -0.60745
O_ O_ 0.660251 0.292519 0.708063 -0.60745
O_ O_ 0.904431 0.289416 0.720905 -0.60745
O_ O_ 0.652807 0.20748 0.779394 -0.60745
O_ O_ 0.9048 0.201527 0.799492 -0.60745
O_ O_ 0.655796 0.20629 0.711029 -0.60745
O_ O_ 0.901912 0.202602 0.731743 -0.60745
O_ O_ 0.593689 0.211441 0.713859 -0.60745
O_ O_ 0.843877 0.201841 0.724526 -0.60745
O_ O_ 0.591487 0.213997 0.782851 -0.60745
O_ O_ 0.840589 0.203717 0.792723 -0.60745
Zn Zn 0.626379 0.750631 0.28014 0.9476
Zn Zn 0.874746 0.750658 0.286055 0.9476
Zn Zn 0.62454 0.749456 0.211465 0.9476
Zn Zn 0.874231 0.7457 0.215552 0.9476
H_ H_ 0.531661 0.917196 0.178816 0.10932
H_ H_ 0.790769 0.9217 0.169495 0.10932
H_ H_ 0.584263 0.867531 0.307426 0.10932
H_ H_ 0.799625 0.844655 0.30801 0.10932
H_ H_ 0.560448 0.849333 0.179287 0.10932
H_ H_ 0.812314 0.850481 0.172058 0.10932
H_ H_ 0.557429 0.933484 0.307346 0.10932
H_ H_ 0.784255 0.915538 0.303237 0.10932
H_ H_ 0.716431 0.922921 0.310383 0.10932
H_ H_ 0.963659 0.920907 0.313349 0.10932
H_ H_ 0.684001 0.848068 0.18068 0.10932
H_ H_ 0.928273 0.851313 0.181909 0.10932
H_ H_ 0.690293 0.853706 0.314852 0.10932
H_ H_ 0.929462 0.858487 0.315786 0.10932
H_ H_ 0.713374 0.91156 0.17329 0.10932
H_ H_ 0.958395 0.917166 0.179954 0.10932
H_ H_ 0.716376 0.584148 0.317745 0.10932
H_ H_ 0.967902 0.583411 0.324326 0.10932
H_ H_ 0.690558 0.647742 0.177431 0.10932
H_ H_ 0.934406 0.644217 0.190888 0.10932
H_ H_ 0.690051 0.651091 0.31633 0.10932
H_ H_ 0.939144 0.651243 0.324165 0.10932
H_ H_ 0.716877 0.579075 0.181766 0.10932
H_ H_ 0.97732 0.589454 0.191748 0.10932
H_ H_ 0.542727 0.576133 0.18162 0.10932
H_ H_ 0.779753 0.581182 0.192217 0.10932
H_ H_ 0.554424 0.657714 0.311257 0.10932
H_ H_ 0.804341 0.658355 0.324152 0.10932
H_ H_ 0.564103 0.643697 0.175302 0.10932
H_ H_ 0.811151 0.647039 0.188126 0.10932
H_ H_ 0.521905 0.597112 0.308856 0.10932
H_ H_ 0.78369 0.586249 0.326408 0.10932
H_ H_ 0.615095 0.681334 0.352359 0.10932
H_ H_ 0.879752 0.812112 0.361626 0.10932
H_ H_ 0.631116 0.810846 0.354132 0.10932
H_ H_ 0.867567 0.683291 0.353992 0.10932
H_ H_ 0.635209 0.806889 0.433367 0.10932
H_ H_ 0.863378 0.677958 0.431583 0.10932
H_ H_ 0.616249 0.677924 0.430623 0.10932
H_ H_ 0.883884 0.8066 0.439787 0.10932
H_ H_ 0.638865 0.683273 0.137392 0.10932
H_ H_ 0.864531 0.679417 0.143489 0.10932
H_ H_ 0.613121 0.811628 0.129774 0.10932
H_ H_ 0.888805 0.803917 0.139531 0.10932
H_ H_ 0.601492 0.79944 0.0545028 0.10932
H_ H_ 0.887109 0.803165 0.0606832 0.10932
H_ H_ 0.643183 0.681912 0.0607507 0.10932
H_ H_ 0.854352 0.680965 0.0659078 0.10932
C_ C_ 0.570446 0.85087 0.245487 -0.02249
C_ C_ 0.812043 0.843412 0.240627 -0.02249
C_ C_ 0.520958 0.965616 0.247018 -0.02249
C_ C_ 0.766826 0.963593 0.235609 -0.02249
C_ C_ 0.540009 0.903573 0.20874 -0.11473
C_ C_ 0.795419 0.906384 0.199555 -0.11473
C_ C_ 0.570285 0.875013 0.282598 -0.11473
C_ C_ 0.799412 0.859776 0.278065 -0.11473
C_ C_ 0.556321 0.865497 0.208485 -0.11473
C_ C_ 0.806639 0.863838 0.201546 -0.11473
C_ C_ 0.539444 0.927425 0.24594 -0.02249
C_ C_ 0.78242 0.922195 0.23602 -0.02249
C_ C_ 0.58741 0.811317 0.243638 0.6875
C_ C_ 0.834059 0.807733 0.243115 0.6875
C_ C_ 0.554898 0.912145 0.28337 -0.11473
C_ C_ 0.78622 0.898807 0.274085 -0.11473
C_ C_ 0.682414 0.851299 0.249627 -0.02249
C_ C_ 0.930152 0.845984 0.25021 -0.02249
C_ C_ 0.734886 0.965673 0.237352 -0.02249
C_ C_ 0.982593 0.960515 0.245061 -0.02249
C_ C_ 0.707598 0.909855 0.280757 -0.11473
C_ C_ 0.957635 0.904472 0.285078 -0.11473
C_ C_ 0.688707 0.867017 0.208897 -0.11473
C_ C_ 0.938771 0.863801 0.210963 -0.11473
C_ C_ 0.693478 0.870533 0.284617 -0.11473
C_ C_ 0.939104 0.868052 0.286607 -0.11473
C_ C_ 0.717562 0.925182 0.240671 -0.02249
C_ C_ 0.966817 0.920267 0.247053 -0.02249
C_ C_ 0.664996 0.812678 0.251342 0.6875
C_ C_ 0.910575 0.809484 0.2511 0.6875
C_ C_ 0.707457 0.902879 0.20562 -0.11473
C_ C_ 0.955813 0.901461 0.20798 -0.11473
C_ C_ 0.685564 0.651963 0.247445 -0.02249
C_ C_ 0.936351 0.653338 0.258146 -0.02249
C_ C_ 0.737261 0.537734 0.25616 -0.02249
C_ C_ 0.986588 0.538732 0.257623 -0.02249
C_ C_ 0.711002 0.59844 0.287494 -0.11473
C_ C_ 0.961221 0.597191 0.294605 -0.11473
C_ C_ 0.694877 0.632321 0.209835 -0.11473
C_ C_ 0.944025 0.631081 0.220774 -0.11473
C_ C_ 0.696075 0.636202 0.285646 -0.11473
C_ C_ 0.945721 0.634548 0.29576 -0.11473
C_ C_ 0.720915 0.576603 0.251502 -0.02249
C_ C_ 0.970235 0.579387 0.257072 -0.02249
C_ C_ 0.664719 0.688239 0.248173 0.6875
C_ C_ 0.913795 0.68797 0.257195 0.6875
C_ C_ 0.711886 0.595136 0.211057 -0.11473
C_ C_ 0.965636 0.599749 0.219602 -0.11473
C_ C_ 0.564102 0.65404 0.244489 -0.02249
C_ C_ 0.810871 0.658561 0.256591 -0.02249
C_ C_ 0.513272 0.538269 0.246492 -0.02249
C_ C_ 0.768356 0.537914 0.260743 -0.02249
C_ C_ 0.543217 0.593309 0.209141 -0.11473
C_ C_ 0.790016 0.595836 0.22008 -0.11473
C_ C_ 0.551052 0.64054 0.282173 -0.11473
C_ C_ 0.802171 0.640049 0.294725 -0.11473
C_ C_ 0.558139 0.631774 0.207661 -0.11473
C_ C_ 0.803832 0.634963 0.219196 -0.11473
C_ C_ 0.53013 0.57892 0.245382 -0.02249
C_ C_ 0.785934 0.577318 0.25996 -0.02249
C_ C_ 0.583482 0.694113 0.243918 0.6875
C_ C_ 0.831917 0.692073 0.25294 0.6875
C_ C_ 0.534042 0.60305 0.282202 -0.11473
C_ C_ 0.791637 0.598662 0.296791 -0.11473
C_ C_ 0.617367 0.710417 0.37119 0.17695
C_ C_ 0.88011 0.782659 0.376553 0.17695
C_ C_ 0.627584 0.781994 0.372861 0.17695
C_ C_ 0.869889 0.711072 0.371821 0.17695
C_ C_ 0.628627 0.780117 0.415609 -0.11473
C_ C_ 0.867824 0.70809 0.415284 -0.11473
C_ C_ 0.624391 0.742652 0.437642 0.23465
C_ C_ 0.869366 0.742127 0.440309 0.23465
C_ C_ 0.619097 0.705617 0.414768 -0.11473
C_ C_ 0.877607 0.780391 0.420635 -0.11473
C_ C_ 0.637249 0.711934 0.119545 0.17695
C_ C_ 0.871358 0.705577 0.126065 0.17695
C_ C_ 0.615151 0.779723 0.116466 0.17695
C_ C_ 0.88485 0.775779 0.123505 0.17695
C_ C_ 0.611249 0.775096 0.0730078 -0.11473
C_ C_ 0.882514 0.775334 0.0790021 -0.11473
C_ C_ 0.626 0.741709 0.0517296 0.23465
C_ C_ 0.874249 0.740232 0.0586195 0.23465
C_ C_ 0.636372 0.709089 0.0762414 -0.11473
C_ C_ 0.867042 0.705573 0.0810974 -0.11473
C_ C_ 0.534289 1.00432 0.24327 0.05793
C_ C_ 0.783834 0.999834 0.241948 0.05793
C_ C_ 0.721871 0.498918 0.256468 0.05793
C_ C_ 0.971206 0.500728 0.259646 0.05793
Br Br 0.577298 1.00456812 0.237515 -0.17191
Br Br 0.826689 0.99523 0.249706 -0.17191
Br Br 0.679719 0.498904 0.247066 -0.17191
Br Br 0.927809 0.498522 0.262159 -0.17191
N_ N_ 0.623181 0.746572 0.351644 -0.272
N_ N_ 0.8747 0.747757 0.35286 -0.272
N_ N_ 0.629743 0.743747 0.482081 -0.12501
N_ N_ 0.873828 0.735147 0.48568 -0.12501
N_ N_ 0.629208 0.748253 0.13914 -0.272
N_ N_ 0.877623 0.741182 0.145072 -0.272
N_ N_ 0.626154 0.736885 0.00742136 -0.12501
N_ N_ 0.873488 0.735894 0.0123697 -0.12501
O_ O_ 0.600446 0.801557 0.210799 -0.60745
O_ O_ 0.843581 0.791473 0.210455 -0.60745
O_ O_ 0.594385 0.792839 0.278285 -0.60745
O_ O_ 0.842785 0.792609 0.279118 -0.60745
O_ O_ 0.657507 0.796446 0.28545 -0.60745
O_ O_ 0.904696 0.792967 0.285124 -0.60745
O_ O_ 0.658285 0.791358 0.219135 -0.60745
O_ O_ 0.905518 0.789411 0.216906 -0.60745
O_ O_ 0.661114 0.710074 0.281319 -0.60745
O_ O_ 0.906236 0.706515 0.289062 -0.60745
O_ O_ 0.653473 0.699798 0.214089 -0.60745
O_ O_ 0.90512 0.702793 0.22134 -0.60745
O_ O_ 0.589721 0.711085 0.20877 -0.60745
O_ O_ 0.844585 0.699218 0.217468 -0.60745
O_ O_ 0.59625 0.705997 0.277578 -0.60745
O_ O_ 0.841635 0.708596 0.286937 -0.60745
Zn Zn 0.622853 0.746182 0.77954 0.9476
Zn Zn 0.873393 0.752912 0.784061 0.9476
Zn Zn 0.620245 0.748858 0.710769 0.9476
Zn Zn 0.87766 0.75363 0.715508 0.9476
H_ H_ 0.526076 0.916855 0.684092 0.10932
H_ H_ 0.776101 0.904998 0.676722 0.10932
H_ H_ 0.574031 0.858961 0.809534 0.10932
H_ H_ 0.820728 0.866329 0.813752 0.10932
H_ H_ 0.55206 0.849897 0.679787 0.10932
H_ H_ 0.814401 0.850987 0.682038 0.10932
H_ H_ 0.539953 0.918484 0.814376 0.10932
H_ H_ 0.791 0.930877 0.809006 0.10932
H_ H_ 0.718963 0.910593 0.807165 0.10932
H_ H_ 0.972351 0.917637 0.817299 0.10932
H_ H_ 0.681873 0.84929 0.672637 0.10932
H_ H_ 0.941407 0.854246 0.682408 0.10932
H_ H_ 0.687649 0.848858 0.80627 0.10932
H_ H_ 0.936452 0.852472 0.819152 0.10932
H_ H_ 0.705442 0.919433 0.672353 0.10932
H_ H_ 0.961668 0.920363 0.682921 0.10932
H_ H_ 0.725975 0.5921 0.810663 0.10932
H_ H_ 0.962476 0.57754 0.820864 0.10932
H_ H_ 0.676591 0.643894 0.679174 0.10932
H_ H_ 0.94738 0.654175 0.6861 0.10932
H_ H_ 0.697376 0.657559 0.810965 0.10932
H_ H_ 0.932952 0.643423 0.819159 0.10932
H_ H_ 0.706597 0.580784 0.676717 0.10932
H_ H_ 0.979006 0.590386 0.688721 0.10932
H_ H_ 0.545933 0.567824 0.689033 0.10932
H_ H_ 0.776347 0.593349 0.681963 0.10932
H_ H_ 0.552409 0.654948 0.814834 0.10932
H_ H_ 0.820062 0.647414 0.820531 0.10932
H_ H_ 0.565865 0.639231 0.682916 0.10932
H_ H_ 0.800202 0.663943 0.685608 0.10932
H_ H_ 0.529686 0.588704 0.821451 0.10932
H_ H_ 0.789219 0.581867 0.814981 0.10932
H_ H_ 0.624575 0.688117 0.861066 0.10932
H_ H_ 0.877078 0.69129 0.861615 0.10932
H_ H_ 0.617603 0.816787 0.844503 0.10932
H_ H_ 0.873889 0.820559 0.856243 0.10932
H_ H_ 0.618298 0.825504 0.920695 0.10932
H_ H_ 0.877282 0.829027 0.935067 0.10932
H_ H_ 0.61936 0.694279 0.936515 0.10932
H_ H_ 0.879655 0.693343 0.942161 0.10932
H_ H_ 0.617818 0.675115 0.642683 0.10932
H_ H_ 0.869197 0.819276 0.643134 0.10932
H_ H_ 0.621864 0.804703 0.624291 0.10932
H_ H_ 0.870487 0.691011 0.63595 0.10932
H_ H_ 0.62614 0.796188 0.548091 0.10932
H_ H_ 0.884658 0.694785 0.560089 0.10932
H_ H_ 0.615086 0.663938 0.565744 0.10932
H_ H_ 0.863039 0.825384 0.565533 0.10932
C_ C_ 0.56597 0.849805 0.744211 -0.02249
C_ C_ 0.818027 0.851002 0.749115 -0.02249
C_ C_ 0.515909 0.965324 0.754153 -0.02249
C_ C_ 0.761616 0.961494 0.738073 -0.02249
C_ C_ 0.534237 0.903508 0.712045 -0.11473
C_ C_ 0.788449 0.899109 0.706685 -0.11473
C_ C_ 0.56551 0.873355 0.78118 -0.11473
C_ C_ 0.809582 0.873322 0.784739 -0.11473
C_ C_ 0.550373 0.865069 0.708622 -0.11473
C_ C_ 0.807418 0.865435 0.71001 -0.11473
C_ C_ 0.532607 0.924876 0.749677 -0.02249
C_ C_ 0.780108 0.921423 0.743254 -0.02249
C_ C_ 0.582395 0.808209 0.742982 0.6875
C_ C_ 0.835469 0.812354 0.753051 0.6875
C_ C_ 0.545642 0.908061 0.784625 -0.11473
C_ C_ 0.791844 0.908477 0.782051 -0.11473
C_ C_ 0.682551 0.844389 0.739291 -0.02249
C_ C_ 0.940726 0.845582 0.750419 -0.02249
C_ C_ 0.729495 0.961495 0.736706 -0.02249
C_ C_ 0.986423 0.96075 0.749269 -0.02249
C_ C_ 0.709137 0.899695 0.777329 -0.11473
C_ C_ 0.963129 0.901836 0.789484 -0.11473
C_ C_ 0.689231 0.864841 0.701698 -0.11473
C_ C_ 0.947325 0.866903 0.711775 -0.11473
C_ C_ 0.692959 0.86315 0.777122 -0.11473
C_ C_ 0.947692 0.863469 0.788725 -0.11473
C_ C_ 0.712836 0.921364 0.738291 -0.02249
C_ C_ 0.970079 0.921968 0.751269 -0.02249
C_ C_ 0.662514 0.805884 0.740725 0.6875
C_ C_ 0.91921 0.810033 0.749236 0.6875
C_ C_ 0.703858 0.902121 0.700547 -0.11473
C_ C_ 0.960203 0.904701 0.713264 -0.11473
C_ C_ 0.681742 0.653823 0.745187 -0.02249
C_ C_ 0.935835 0.65157 0.752475 -0.02249
C_ C_ 0.735717 0.539742 0.744074 -0.02249
C_ C_ 0.981955 0.533822 0.753204 -0.02249
C_ C_ 0.716036 0.604334 0.781899 -0.11473
C_ C_ 0.954498 0.590777 0.790945 -0.11473
C_ C_ 0.687353 0.633504 0.706234 -0.11473
C_ C_ 0.951061 0.638885 0.7165 -0.11473
C_ C_ 0.698244 0.639883 0.78149 -0.11473
C_ C_ 0.939532 0.628986 0.789938 -0.11473
C_ C_ 0.71786 0.581235 0.744553 -0.02249
C_ C_ 0.965255 0.575079 0.752255 -0.02249
C_ C_ 0.659831 0.688185 0.74853 0.6875
C_ C_ 0.916358 0.691701 0.748847 0.6875
C_ C_ 0.702759 0.596567 0.707741 -0.11473
C_ C_ 0.967617 0.600455 0.717576 -0.11473
C_ C_ 0.565181 0.649251 0.750498 -0.02249
C_ C_ 0.813167 0.658382 0.751604 -0.02249
C_ C_ 0.513831 0.53855 0.752795 -0.02249
C_ C_ 0.767358 0.540316 0.745961 -0.02249
C_ C_ 0.546734 0.587636 0.716773 -0.11473
C_ C_ 0.786039 0.605974 0.711233 -0.11473
C_ C_ 0.553148 0.635722 0.789064 -0.11473
C_ C_ 0.8097 0.635901 0.789339 -0.11473
C_ C_ 0.560266 0.625567 0.713016 -0.11473
C_ C_ 0.801076 0.643506 0.71441 -0.11473
C_ C_ 0.531225 0.576129 0.753271 -0.02249
C_ C_ 0.783459 0.581045 0.747759 -0.02249
C_ C_ 0.581763 0.688082 0.750054 0.6875
C_ C_ 0.832478 0.698495 0.7505 0.6875
C_ C_ 0.535404 0.599768 0.790476 -0.11473
C_ C_ 0.795615 0.595595 0.786249 -0.11473
C_ C_ 0.6241 0.717335 0.874881 0.17695
C_ C_ 0.877941 0.720557 0.877501 0.17695
C_ C_ 0.623112 0.789975 0.865502 0.17695
C_ C_ 0.878279 0.793334 0.874746 0.17695
C_ C_ 0.622525 0.79451 0.909923 -0.11473
C_ C_ 0.879238 0.798191 0.919345 -0.11473
C_ C_ 0.622025 0.759351 0.936208 0.23465
C_ C_ 0.877261 0.761651 0.943749 0.23465
C_ C_ 0.622066 0.720825 0.917423 -0.11473
C_ C_ 0.877411 0.723482 0.923349 -0.11473
C_ C_ 0.617462 0.701757 0.622723 0.17695
C_ C_ 0.869195 0.792064 0.625279 0.17695
C_ C_ 0.621025 0.773241 0.612543 0.17695
C_ C_ 0.872366 0.71972 0.620968 0.17695
C_ C_ 0.619735 0.768596 0.568695 -0.11473
C_ C_ 0.875957 0.721264 0.5763 -0.11473
C_ C_ 0.619043 0.729384 0.551486 0.23465
C_ C_ 0.873914 0.760329 0.556238 0.23465
C_ C_ 0.615892 0.695706 0.579126 -0.11473
C_ C_ 0.867709 0.795421 0.580762 -0.11473
C_ C_ 0.531727 0.00284062 0.754056 0.05793
C_ C_ 0.777615 -0.000241648 0.742325 0.05793
C_ C_ 0.72019 0.502081 0.745988 0.05793
C_ C_ 0.965141 0.496549 0.752402 0.05793
Br Br 0.574517 0.0010099999999999554 0.752701 -0.17191
Br Br 0.819268 1.00302808 0.729253 -0.17191
Br Br 0.675997 0.504738 0.742531 -0.17191
Br Br 0.920702 0.492123 0.750737 -0.17191
N_ N_ 0.624834 0.751779 0.849465 -0.272
N_ N_ 0.878309 0.75544 0.854717 -0.272
N_ N_ 0.62221 0.765445 0.981417 -0.12501
N_ N_ 0.878777 0.765598 0.987711 -0.12501
N_ N_ 0.619849 0.740897 0.64026 -0.272
N_ N_ 0.870542 0.753455 0.644361 -0.272
N_ N_ 0.613219 0.72565 0.50727 -0.12501
N_ N_ 0.874756 0.764944 0.511018 -0.12501
O_ O_ 0.588579 0.790132 0.708899 -0.60745
O_ O_ 0.84689 0.796584 0.72084 -0.60745
O_ O_ 0.593009 0.793807 0.777025 -0.60745
O_ O_ 0.843454 0.798449 0.788617 -0.60745
O_ O_ 0.655323 0.789583 0.774784 -0.60745
O_ O_ 0.908262 0.796498 0.782855 -0.60745
O_ O_ 0.650959 0.792696 0.706655 -0.60745
O_ O_ 0.911193 0.794125 0.713978 -0.60745
O_ O_ 0.653722 0.70476 0.78326 -0.60745
O_ O_ 0.905606 0.706343 0.780895 -0.60745
O_ O_ 0.653199 0.705786 0.714036 -0.60745
O_ O_ 0.907758 0.704023 0.712117 -0.60745
O_ O_ 0.590502 0.703228 0.715242 -0.60745
O_ O_ 0.846619 0.707194 0.716842 -0.60745
O_ O_ 0.591367 0.703643 0.783662 -0.60745
O_ O_ 0.842357 0.712547 0.783819 -0.60745
_cell_length_a 44.444
_cell_length_b 32.3360000049186
_cell_length_c 31.843999878906452
_cell_angle_alpha 89.99799923859553
_cell_angle_beta 91.13600050494348
_cell_angle_gamma 89.9990006550086
_symmetry_space_group_name_H-M         'P 1'
_symmetry_Int_Tables_number            1
loop_
_symmetry_equiv_pos_as_xyz
   'x, y, z'
                         
loop_
_atom_site_label
_atom_site_type_symbol
_atom_site_fract_x 
_atom_site_fract_y
_atom_site_fract_z
_atom_site_charge
Zn Zn 0.126055 0.247022 0.293645 0.9476
Zn Zn 0.379297 0.250496 0.283311 0.9476
Zn Zn 0.122238 0.249928 0.223061 0.9476
Zn Zn 0.376457 0.248966 0.215018 0.9476
H_ H_ 0.0333755 0.420221 0.192872 0.10932
H_ H_ 0.288264 0.424921 0.19609 0.10932
H_ H_ 0.0751204 0.359601 0.32407 0.10932
H_ H_ 0.314406 0.34885 0.324681 0.10932
H_ H_ 0.0558908 0.352024 0.189915 0.10932
H_ H_ 0.317961 0.357713 0.189282 0.10932
H_ H_ 0.0467167 0.425603 0.325527 0.10932
H_ H_ 0.288924 0.415081 0.326382 0.10932
H_ H_ 0.221777 0.419002 0.324244 0.10932
H_ H_ 0.463338 0.418252 0.317067 0.10932
H_ H_ 0.183975 0.350648 0.193882 0.10932
H_ H_ 0.435368 0.352076 0.179799 0.10932
H_ H_ 0.19157 0.351023 0.328259 0.10932
H_ H_ 0.435643 0.35626 0.31951 0.10932
H_ H_ 0.211293 0.414803 0.19123 0.10932
H_ H_ 0.468153 0.411778 0.181056 0.10932
H_ H_ 0.226788 0.0909376 0.315138 0.10932
H_ H_ 0.460825 0.0765529 0.310604 0.10932
H_ H_ 0.171989 0.139795 0.188843 0.10932
H_ H_ 0.434355 0.146879 0.17628 0.10932
H_ H_ 0.193302 0.152608 0.320829 0.10932
H_ H_ 0.438684 0.143217 0.311872 0.10932
H_ H_ 0.204468 0.0790442 0.183631 0.10932
H_ H_ 0.460826 0.0797178 0.176328 0.10932
H_ H_ 0.0203284 0.100254 0.183066 0.10932
H_ H_ 0.273154 0.0994012 0.181591 0.10932
H_ H_ 0.0669575 0.134105 0.32029 0.10932
H_ H_ 0.331555 0.140747 0.307808 0.10932
H_ H_ 0.0520947 0.160513 0.190281 0.10932
H_ H_ 0.304534 0.159405 0.181348 0.10932
H_ H_ 0.0419037 0.0671447 0.313479 0.10932
H_ H_ 0.296298 0.07649 0.313597 0.10932
H_ H_ 0.133543 0.184969 0.371636 0.10932
H_ H_ 0.37928 0.31223 0.363435 0.10932
H_ H_ 0.118224 0.315355 0.367928 0.10932
H_ H_ 0.379146 0.184256 0.351114 0.10932
H_ H_ 0.126486 0.317133 0.444454 0.10932
H_ H_ 0.374685 0.175107 0.427211 0.10932
H_ H_ 0.128578 0.185202 0.447032 0.10932
H_ H_ 0.372898 0.307833 0.442352 0.10932
H_ H_ 0.146197 0.300998 0.144594 0.10932
H_ H_ 0.369772 0.187138 0.129572 0.10932
H_ H_ 0.111709 0.179837 0.151966 0.10932
H_ H_ 0.372563 0.316194 0.148755 0.10932
H_ H_ 0.11232 0.174632 0.0687882 0.10932
H_ H_ 0.367852 0.328023 0.074019 0.10932
H_ H_ 0.149193 0.298748 0.0682192 0.10932
H_ H_ 0.377224 0.194155 0.0528367 0.10932
C_ C_ 0.0654496 0.347019 0.257448 -0.02249
C_ C_ 0.31786 0.347738 0.2554 -0.02249
C_ C_ 0.0189146 0.463885 0.256472 -0.02249
C_ C_ 0.265083 0.461835 0.262021 -0.02249
C_ C_ 0.041168 0.40428 0.221364 -0.11473
C_ C_ 0.293819 0.406497 0.222701 -0.11473
C_ C_ 0.0625876 0.369658 0.295403 -0.11473
C_ C_ 0.308952 0.363245 0.294966 -0.11473
C_ C_ 0.0553195 0.366584 0.219688 -0.11473
C_ C_ 0.306617 0.366611 0.219352 -0.11473
C_ C_ 0.0345278 0.423087 0.25827 -0.02249
C_ C_ 0.282486 0.4205 0.2606 -0.02249
C_ C_ 0.0830472 0.307938 0.258582 0.6875
C_ C_ 0.337204 0.310467 0.252381 0.6875
C_ C_ 0.0459015 0.406582 0.296354 -0.11473
C_ C_ 0.29145 0.399918 0.29669 -0.11473
C_ C_ 0.183741 0.347108 0.261682 -0.02249
C_ C_ 0.435194 0.345861 0.249457 -0.02249
C_ C_ 0.233877 0.462664 0.255133 -0.02249
C_ C_ 0.485401 0.46038 0.246234 -0.02249
C_ C_ 0.209609 0.405083 0.297167 -0.11473
C_ C_ 0.46098 0.402445 0.286237 -0.11473
C_ C_ 0.192696 0.363771 0.223795 -0.11473
C_ C_ 0.44432 0.362371 0.210704 -0.11473
C_ C_ 0.193238 0.366921 0.299322 -0.11473
C_ C_ 0.442873 0.367203 0.288006 -0.11473
C_ C_ 0.215089 0.423969 0.258793 -0.02249
C_ C_ 0.470624 0.418863 0.248608 -0.02249
C_ C_ 0.163731 0.309784 0.262619 0.6875
C_ C_ 0.418068 0.308378 0.24755 0.6875
C_ C_ 0.205619 0.402384 0.22235 -0.11473
C_ C_ 0.462085 0.398595 0.211393 -0.11473
C_ C_ 0.183833 0.154656 0.254238 -0.02249
C_ C_ 0.436874 0.15386 0.242868 -0.02249
C_ C_ 0.235364 0.0398696 0.248691 -0.02249
C_ C_ 0.484581 0.0366828 0.241915 -0.02249
C_ C_ 0.215763 0.102892 0.2874 -0.11473
C_ C_ 0.459295 0.0934796 0.281192 -0.11473
C_ C_ 0.189205 0.135206 0.215011 -0.11473
C_ C_ 0.443966 0.135065 0.204828 -0.11473
C_ C_ 0.197516 0.138135 0.290771 -0.11473
C_ C_ 0.446202 0.133198 0.28073 -0.11473
C_ C_ 0.219132 0.0820905 0.248503 -0.02249
C_ C_ 0.465386 0.0751277 0.242736 -0.02249
C_ C_ 0.163876 0.190053 0.25794 0.6875
C_ C_ 0.416188 0.191028 0.243588 0.6875
C_ C_ 0.205823 0.0980236 0.212334 -0.11473
C_ C_ 0.457494 0.0954436 0.205082 -0.11473
C_ C_ 0.0616794 0.152847 0.257764 -0.02249
C_ C_ 0.319595 0.153483 0.246996 -0.02249
C_ C_ 0.012986 0.0364668 0.24066 -0.02249
C_ C_ 0.266997 0.0411979 0.243105 -0.02249
C_ C_ 0.0312791 0.106181 0.21403 -0.11473
C_ C_ 0.287581 0.104963 0.209763 -0.11473
C_ C_ 0.0595955 0.125315 0.289468 -0.11473
C_ C_ 0.3175 0.129383 0.282824 -0.11473
C_ C_ 0.049373 0.142221 0.218429 -0.11473
C_ C_ 0.306367 0.139756 0.208888 -0.11473
C_ C_ 0.0302033 0.0760644 0.247789 -0.02249
C_ C_ 0.283897 0.0819051 0.245862 -0.02249
C_ C_ 0.0847743 0.187506 0.259919 0.6875
C_ C_ 0.336543 0.193713 0.246872 0.6875
C_ C_ 0.040456 0.0899347 0.286661 -0.11473
C_ C_ 0.298444 0.0941454 0.283773 -0.11473
C_ C_ 0.130247 0.213941 0.386537 0.17695
C_ C_ 0.374582 0.283296 0.380057 0.17695
C_ C_ 0.122426 0.286666 0.38466 0.17695
C_ C_ 0.377623 0.211496 0.37083 0.17695
C_ C_ 0.122391 0.287807 0.429482 -0.11473
C_ C_ 0.376992 0.205656 0.414132 -0.11473
C_ C_ 0.123314 0.250707 0.452266 0.23465
C_ C_ 0.37729 0.239899 0.442234 0.23465
C_ C_ 0.126694 0.213477 0.429521 -0.11473
C_ C_ 0.374772 0.280301 0.423511 -0.11473
C_ C_ 0.135886 0.276463 0.12778 0.17695
C_ C_ 0.373854 0.219218 0.117031 0.17695
C_ C_ 0.118218 0.20719 0.13068 0.17695
C_ C_ 0.37214 0.29006 0.128713 0.17695
C_ C_ 0.118769 0.202884 0.0863998 -0.11473
C_ C_ 0.371222 0.296901 0.0836291 -0.11473
C_ C_ 0.127979 0.237672 0.0616272 0.23465
C_ C_ 0.373083 0.263295 0.0549862 0.23465
C_ C_ 0.138007 0.274099 0.0834674 -0.11473
C_ C_ 0.375928 0.223435 0.0723299 -0.11473
C_ C_ 0.0358224 0.501373 0.256582 0.05793
C_ C_ 0.281452 0.499478 0.264141 0.05793
C_ C_ 0.219435 0.00146871 0.24986 0.05793
C_ C_ 0.470223 0.997398 0.246477 0.05793
Br Br 0.0797985 0.498683 0.251236 -0.17191
Br Br 0.323581 0.494936 0.273143 -0.17191
Br Br 0.177746 0.00185165 0.259735 -0.17191
Br Br 0.428813 0.998057 0.254906 -0.17191
N_ N_ 0.125399 0.248996 0.363305 -0.272
N_ N_ 0.376347 0.249659 0.353911 -0.272
N_ N_ 0.127068 0.251144 0.495856 -0.12501
N_ N_ 0.372442 0.234221 0.485223 -0.12501
N_ N_ 0.12565 0.244405 0.149004 -0.272
N_ N_ 0.375818 0.251951 0.143381 -0.272
N_ N_ 0.134848 0.231687 0.0179075 -0.12501
N_ N_ 0.370703 0.269053 0.0107914 -0.12501
O_ O_ 0.0914528 0.29263 0.224201 -0.60745
O_ O_ 0.345402 0.29707 0.217198 -0.60745
O_ O_ 0.0951076 0.294901 0.294025 -0.60745
O_ O_ 0.34512 0.291448 0.28595 -0.60745
O_ O_ 0.154663 0.294482 0.297946 -0.60745
O_ O_ 0.407866 0.293894 0.28076 -0.60745
O_ O_ 0.155853 0.291739 0.229112 -0.60745
O_ O_ 0.408642 0.292604 0.214582 -0.60745
O_ O_ 0.157624 0.203455 0.292367 -0.60745
O_ O_ 0.410044 0.208362 0.278092 -0.60745
O_ O_ 0.153221 0.206622 0.225283 -0.60745
O_ O_ 0.408299 0.206271 0.20851 -0.60745
O_ O_ 0.0896158 0.207253 0.225864 -0.60745
O_ O_ 0.344809 0.206608 0.211983 -0.60745
O_ O_ 0.0976133 0.197203 0.293912 -0.60745
O_ O_ 0.350629 0.205704 0.279478 -0.60745
Zn Zn 0.123486 0.24974 0.792586 0.9476
Zn Zn 0.374088 0.253125 0.784395 0.9476
Zn Zn 0.124621 0.250002 0.724008 0.9476
Zn Zn 0.375033 0.24884 0.715982 0.9476
H_ H_ 0.0328109 0.418826 0.697976 0.10932
H_ H_ 0.292694 0.422205 0.681888 0.10932
H_ H_ 0.0504883 0.338346 0.828906 0.10932
H_ H_ 0.300871 0.345066 0.813043 0.10932
H_ H_ 0.0659448 0.354769 0.698425 0.10932
H_ H_ 0.32382 0.357932 0.68574 0.10932
H_ H_ 0.0342545 0.414759 0.830814 0.10932
H_ H_ 0.282759 0.418844 0.816253 0.10932
H_ H_ 0.207427 0.422537 0.817133 0.10932
H_ H_ 0.438799 0.450174 0.790074 0.10932
H_ H_ 0.19202 0.34543 0.68259 0.10932
H_ H_ 0.45089 0.333969 0.689719 0.10932
H_ H_ 0.178945 0.358856 0.817325 0.10932
H_ H_ 0.408978 0.38708 0.797948 0.10932
H_ H_ 0.221964 0.411378 0.680519 0.10932
H_ H_ 0.476808 0.400972 0.678803 0.10932
H_ H_ 0.204796 0.068608 0.810213 0.10932
H_ H_ 0.449316 0.0779948 0.813323 0.10932
H_ H_ 0.195996 0.155579 0.681231 0.10932
H_ H_ 0.450618 0.163062 0.683424 0.10932
H_ H_ 0.175553 0.131938 0.810369 0.10932
H_ H_ 0.422278 0.14016 0.813175 0.10932
H_ H_ 0.22844 0.0936244 0.680437 0.10932
H_ H_ 0.479965 0.0995631 0.68632 0.10932
H_ H_ 0.022269 0.0948965 0.696174 0.10932
H_ H_ 0.286404 0.0755856 0.68716 0.10932
H_ H_ 0.0829429 0.129772 0.822292 0.10932
H_ H_ 0.310159 0.149824 0.818321 0.10932
H_ H_ 0.0436154 0.164263 0.704871 0.10932
H_ H_ 0.324443 0.131462 0.683915 0.10932
H_ H_ 0.0510167 0.0666928 0.822193 0.10932
H_ H_ 0.281105 0.0835035 0.817769 0.10932
H_ H_ 0.12974 0.319091 0.862984 0.10932
H_ H_ 0.334043 0.279674 0.863459 0.10932
H_ H_ 0.123809 0.18721 0.869805 0.10932
H_ H_ 0.417361 0.218407 0.857275 0.10932
H_ H_ 0.126291 0.191371 0.949695 0.10932
H_ H_ 0.420615 0.211181 0.932992 0.10932
H_ H_ 0.134599 0.320989 0.942512 0.10932
H_ H_ 0.339234 0.280567 0.942719 0.10932
H_ H_ 0.107966 0.18575 0.650445 0.10932
H_ H_ 0.401213 0.201412 0.63723 0.10932
H_ H_ 0.112018 0.313862 0.644138 0.10932
H_ H_ 0.350707 0.309533 0.642489 0.10932
H_ H_ 0.107499 0.311362 0.567296 0.10932
H_ H_ 0.348665 0.317654 0.56538 0.10932
H_ H_ 0.0979266 0.181982 0.575881 0.10932
H_ H_ 0.401369 0.202591 0.561317 0.10932
C_ C_ 0.063241 0.343036 0.764607 -0.02249
C_ C_ 0.314635 0.34655 0.751032 -0.02249
C_ C_ 0.0116366 0.45812 0.763946 -0.02249
C_ C_ 0.265571 0.462326 0.747714 -0.02249
C_ C_ 0.0406568 0.402903 0.725336 -0.11473
C_ C_ 0.292446 0.40345 0.710329 -0.11473
C_ C_ 0.0496587 0.357765 0.801401 -0.11473
C_ C_ 0.301485 0.363675 0.785744 -0.11473
C_ C_ 0.0563242 0.364508 0.726785 -0.11473
C_ C_ 0.310406 0.368424 0.713264 -0.11473
C_ C_ 0.0281913 0.41775 0.762905 -0.02249
C_ C_ 0.281516 0.421515 0.747082 -0.02249
C_ C_ 0.0834604 0.306078 0.76522 0.6875
C_ C_ 0.332028 0.306129 0.752192 0.6875
C_ C_ 0.0341187 0.395967 0.801704 -0.11473
C_ C_ 0.287288 0.403095 0.786043 -0.11473
C_ C_ 0.18458 0.344667 0.751009 -0.02249
C_ C_ 0.428076 0.354184 0.744773 -0.02249
C_ C_ 0.234089 0.462078 0.749934 -0.02249
C_ C_ 0.483176 0.463366 0.734174 -0.02249
C_ C_ 0.206339 0.402777 0.787988 -0.11473
C_ C_ 0.442449 0.424476 0.770474 -0.11473
C_ C_ 0.195981 0.36125 0.712731 -0.11473
C_ C_ 0.447195 0.359631 0.710791 -0.11473
C_ C_ 0.190742 0.365951 0.787714 -0.11473
C_ C_ 0.425537 0.388451 0.774075 -0.11473
C_ C_ 0.216347 0.420465 0.748815 -0.02249
C_ C_ 0.462639 0.427673 0.737373 -0.02249
C_ C_ 0.164159 0.308946 0.75163 0.6875
C_ C_ 0.408117 0.317584 0.747934 0.6875
C_ C_ 0.212503 0.397367 0.711975 -0.11473
C_ C_ 0.463845 0.396701 0.706903 -0.11473
C_ C_ 0.18266 0.150599 0.746563 -0.02249
C_ C_ 0.436593 0.159245 0.749114 -0.02249
C_ C_ 0.234588 0.0370133 0.743869 -0.02249
C_ C_ 0.484586 0.0424109 0.75011 -0.02249
C_ C_ 0.201714 0.0879875 0.780609 -0.11473
C_ C_ 0.452183 0.0970196 0.785515 -0.11473
C_ C_ 0.199265 0.139192 0.710612 -0.11473
C_ C_ 0.451923 0.144928 0.713178 -0.11473
C_ C_ 0.186289 0.125605 0.782589 -0.11473
C_ C_ 0.434957 0.132961 0.783999 -0.11473
C_ C_ 0.219123 0.0780434 0.745426 -0.02249
C_ C_ 0.467775 0.0836891 0.749842 -0.02249
C_ C_ 0.164533 0.190463 0.7477 0.6875
C_ C_ 0.418182 0.197084 0.74727 0.6875
C_ C_ 0.218343 0.104024 0.710702 -0.11473
C_ C_ 0.468991 0.107999 0.714813 -0.11473
C_ C_ 0.0633956 0.154593 0.764109 -0.02249
C_ C_ 0.31935 0.150141 0.751191 -0.02249
C_ C_ 0.0165601 0.037882 0.7594 -0.02249
C_ C_ 0.264464 0.0351008 0.752521 -0.02249
C_ C_ 0.0319928 0.104494 0.726224 -0.11473
C_ C_ 0.29271 0.0919814 0.714688 -0.11473
C_ C_ 0.0649741 0.124912 0.797338 -0.11473
C_ C_ 0.306996 0.134466 0.789157 -0.11473
C_ C_ 0.0448139 0.143197 0.730509 -0.11473
C_ C_ 0.31364 0.124072 0.713217 -0.11473
C_ C_ 0.0328744 0.0768733 0.761041 -0.02249
C_ C_ 0.283115 0.0746625 0.751637 -0.02249
C_ C_ 0.0847502 0.189913 0.763469 0.6875
C_ C_ 0.341607 0.186095 0.75106 0.6875
C_ C_ 0.0491998 0.086931 0.797441 -0.11473
C_ C_ 0.291253 0.0953059 0.789998 -0.11473
C_ C_ 0.132843 0.291352 0.882622 0.17695
C_ C_ 0.354989 0.269994 0.879656 0.17695
C_ C_ 0.126954 0.216849 0.885487 0.17695
C_ C_ 0.401654 0.235604 0.875116 0.17695
C_ C_ 0.129599 0.218622 0.929231 -0.11473
C_ C_ 0.403791 0.230671 0.918238 -0.11473
C_ C_ 0.134244 0.257197 0.949441 0.23465
C_ C_ 0.383002 0.251897 0.942407 0.23465
C_ C_ 0.136747 0.292895 0.925856 -0.11473
C_ C_ 0.35794 0.271053 0.923294 -0.11473
C_ C_ 0.113824 0.21157 0.632182 0.17695
C_ C_ 0.387275 0.223586 0.620494 0.17695
C_ C_ 0.111422 0.285254 0.629011 0.17695
C_ C_ 0.361076 0.286902 0.623289 0.17695
C_ C_ 0.110284 0.283812 0.585085 -0.11473
C_ C_ 0.359358 0.289886 0.579092 -0.11473
C_ C_ 0.110635 0.245819 0.564456 0.23465
C_ C_ 0.374896 0.260417 0.555384 0.23465
C_ C_ 0.107914 0.209068 0.5878 -0.11473
C_ C_ 0.38984 0.227271 0.5766 -0.11473
C_ C_ 0.0264723 0.496014 0.772408 0.05793
C_ C_ 0.281503 0.5011 0.751987 0.05793
C_ C_ 0.216534 0.0010399999999999299 0.743245 0.05793
C_ C_ 0.467804 1.00424065 0.746743 0.05793
Br Br 0.0693292 0.495498 0.782216 -0.17191
Br Br 0.324248 0.499639 0.763504 -0.17191
Br Br 0.175399 0.00283559 0.724697 -0.17191
Br Br 0.424336 1.00481212 0.740508 -0.17191
N_ N_ 0.129192 0.253646 0.863125 -0.272
N_ N_ 0.377965 0.25551 0.855868 -0.272
N_ N_ 0.131974 0.26078 0.992671 -0.12501
N_ N_ 0.38839 0.251813 0.987392 -0.12501
N_ N_ 0.116383 0.249919 0.651366 -0.272
N_ N_ 0.37296 0.253988 0.642958 -0.272
N_ N_ 0.106685 0.241406 0.520316 -0.12501
N_ N_ 0.374534 0.26437 0.510437 -0.12501
O_ O_ 0.0951489 0.295354 0.731241 -0.60745
O_ O_ 0.344467 0.293264 0.719313 -0.60745
O_ O_ 0.0930404 0.293379 0.798727 -0.60745
O_ O_ 0.338402 0.290313 0.787193 -0.60745
O_ O_ 0.156237 0.293991 0.787067 -0.60745
O_ O_ 0.399078 0.304315 0.783041 -0.60745
O_ O_ 0.156124 0.293277 0.718 -0.60745
O_ O_ 0.404001 0.294315 0.716171 -0.60745
O_ O_ 0.155485 0.204326 0.782532 -0.60745
O_ O_ 0.411477 0.216855 0.779791 -0.60745
O_ O_ 0.154963 0.207116 0.71451 -0.60745
O_ O_ 0.405037 0.206186 0.713654 -0.60745
O_ O_ 0.0913575 0.206039 0.729291 -0.60745
O_ O_ 0.343623 0.204183 0.717786 -0.60745
O_ O_ 0.0921829 0.208136 0.796816 -0.60745
O_ O_ 0.351144 0.20537 0.782754 -0.60745
Zn Zn 0.130459 0.751058 0.283913 0.9476
Zn Zn 0.374255 0.748979 0.28203 0.9476
Zn Zn 0.128329 0.749651 0.210958 0.9476
Zn Zn 0.376365 0.754538 0.214433 0.9476
H_ H_ 0.020428 0.898111 0.181084 0.10932
H_ H_ 0.288305 0.917116 0.17489 0.10932
H_ H_ 0.0793285 0.872103 0.308596 0.10932
H_ H_ 0.314385 0.853656 0.312262 0.10932
H_ H_ 0.043035 0.828896 0.192331 0.10932
H_ H_ 0.316006 0.850352 0.176943 0.10932
H_ H_ 0.0564957 0.9402 0.298481 0.10932
H_ H_ 0.277729 0.915353 0.306528 0.10932
H_ H_ 0.221517 0.917082 0.310587 0.10932
H_ H_ 0.470214 0.91249 0.320572 0.10932
H_ H_ 0.19086 0.850827 0.177896 0.10932
H_ H_ 0.434762 0.855508 0.184949 0.10932
H_ H_ 0.194965 0.850156 0.314096 0.10932
H_ H_ 0.43618 0.85465 0.318447 0.10932
H_ H_ 0.210423 0.920002 0.17601 0.10932
H_ H_ 0.464717 0.922306 0.187848 0.10932
H_ H_ 0.21211 0.575289 0.315523 0.10932
H_ H_ 0.451236 0.569742 0.312822 0.10932
H_ H_ 0.201831 0.659542 0.18325 0.10932
H_ H_ 0.442937 0.656456 0.180324 0.10932
H_ H_ 0.185396 0.645663 0.315977 0.10932
H_ H_ 0.417551 0.63399 0.306452 0.10932
H_ H_ 0.225485 0.588339 0.182762 0.10932
H_ H_ 0.467255 0.586391 0.182036 0.10932
H_ H_ 0.0347282 0.585505 0.187314 0.10932
H_ H_ 0.300332 0.570489 0.189781 0.10932
H_ H_ 0.0650744 0.655899 0.321728 0.10932
H_ H_ 0.309423 0.650648 0.317348 0.10932
H_ H_ 0.0745171 0.638065 0.187469 0.10932
H_ H_ 0.319886 0.638657 0.182559 0.10932
H_ H_ 0.0303833 0.591999 0.322495 0.10932
H_ H_ 0.280888 0.590379 0.31921 0.10932
H_ H_ 0.147343 0.818127 0.359898 0.10932
H_ H_ 0.33259 0.771926 0.359753 0.10932
H_ H_ 0.106952 0.69737 0.361458 0.10932
H_ H_ 0.420273 0.721532 0.354733 0.10932
H_ H_ 0.111318 0.69545 0.439034 0.10932
H_ H_ 0.422884 0.724324 0.432686 0.10932
H_ H_ 0.146515 0.818924 0.434186 0.10932
H_ H_ 0.333364 0.780042 0.434306 0.10932
H_ H_ 0.130086 0.680719 0.137666 0.10932
H_ H_ 0.349176 0.810796 0.142591 0.10932
H_ H_ 0.12526 0.81051 0.132791 0.10932
H_ H_ 0.405536 0.70656 0.135203 0.10932
H_ H_ 0.135502 0.80923 0.0582799 0.10932
H_ H_ 0.406847 0.711464 0.0549043 0.10932
H_ H_ 0.131724 0.675241 0.064416 0.10932
H_ H_ 0.338982 0.80491 0.0649485 0.10932
C_ C_ 0.0679581 0.847561 0.248015 -0.02249
C_ C_ 0.318554 0.849609 0.245719 -0.02249
C_ C_ 0.0140497 0.961298 0.235924 -0.02249
C_ C_ 0.267318 0.962882 0.23548 -0.02249
C_ C_ 0.0296656 0.889965 0.211829 -0.11473
C_ C_ 0.295591 0.905014 0.205621 -0.11473
C_ C_ 0.0709277 0.879072 0.278462 -0.11473
C_ C_ 0.308474 0.868897 0.28267 -0.11473
C_ C_ 0.0461266 0.852839 0.214811 -0.11473
C_ C_ 0.312523 0.868639 0.206079 -0.11473
C_ C_ 0.0322663 0.92301 0.241557 -0.02249
C_ C_ 0.286323 0.923785 0.241414 -0.02249
C_ C_ 0.0887793 0.810724 0.246556 0.6875
C_ C_ 0.338818 0.811169 0.248311 0.6875
C_ C_ 0.0559567 0.916206 0.273047 -0.11473
C_ C_ 0.291563 0.905351 0.280351 -0.11473
C_ C_ 0.19102 0.842907 0.245274 -0.02249
C_ C_ 0.436083 0.846107 0.250833 -0.02249
C_ C_ 0.235375 0.96258 0.243985 -0.02249
C_ C_ 0.488273 0.960458 0.249561 -0.02249
C_ C_ 0.214492 0.902204 0.282676 -0.11473
C_ C_ 0.463367 0.899737 0.289477 -0.11473
C_ C_ 0.197335 0.863697 0.20659 -0.11473
C_ C_ 0.442609 0.868935 0.214396 -0.11473
C_ C_ 0.200396 0.863647 0.283 -0.11473
C_ C_ 0.444453 0.863884 0.288038 -0.11473
C_ C_ 0.219111 0.922488 0.244865 -0.02249
C_ C_ 0.47502 0.917887 0.252235 -0.02249
C_ C_ 0.169543 0.807107 0.245808 0.6875
C_ C_ 0.417245 0.809029 0.249415 0.6875
C_ C_ 0.207902 0.905983 0.206733 -0.11473
C_ C_ 0.462049 0.902431 0.215278 -0.11473
C_ C_ 0.19132 0.656813 0.249173 -0.02249
C_ C_ 0.430954 0.650924 0.247275 -0.02249
C_ C_ 0.235732 0.537762 0.249404 -0.02249
C_ C_ 0.482432 0.536781 0.248881 -0.02249
C_ C_ 0.20852 0.593465 0.285913 -0.11473
C_ C_ 0.450542 0.589781 0.284454 -0.11473
C_ C_ 0.201628 0.64069 0.211964 -0.11473
C_ C_ 0.446152 0.639347 0.210945 -0.11473
C_ C_ 0.193571 0.633144 0.286236 -0.11473
C_ C_ 0.431847 0.624927 0.281918 -0.11473
C_ C_ 0.219472 0.577816 0.247948 -0.02249
C_ C_ 0.464258 0.57686 0.248216 -0.02249
C_ C_ 0.171873 0.694628 0.250754 0.6875
C_ C_ 0.411315 0.687681 0.248353 0.6875
C_ C_ 0.218844 0.602995 0.212041 -0.11473
C_ C_ 0.460792 0.600373 0.210434 -0.11473
C_ C_ 0.0704647 0.651165 0.254775 -0.02249
C_ C_ 0.317876 0.653444 0.250893 -0.02249
C_ C_ 0.0186997 0.538263 0.257657 -0.02249
C_ C_ 0.266755 0.537362 0.256608 -0.02249
C_ C_ 0.0450525 0.594699 0.217904 -0.11473
C_ C_ 0.298652 0.589934 0.21723 -0.11473
C_ C_ 0.0595821 0.638266 0.293076 -0.11473
C_ C_ 0.303549 0.639234 0.287299 -0.11473
C_ C_ 0.0650107 0.627892 0.217592 -0.11473
C_ C_ 0.312382 0.629078 0.214187 -0.11473
C_ C_ 0.0359188 0.578803 0.257521 -0.02249
C_ C_ 0.285312 0.577104 0.254397 -0.02249
C_ C_ 0.092343 0.687018 0.251443 0.6875
C_ C_ 0.335129 0.692967 0.249312 0.6875
C_ C_ 0.0419804 0.60212 0.294428 -0.11473
C_ C_ 0.290513 0.600206 0.289478 -0.11473
C_ C_ 0.138769 0.789762 0.375464 0.17695
C_ C_ 0.353418 0.768107 0.374781 0.17695
C_ C_ 0.120741 0.721409 0.377781 0.17695
C_ C_ 0.402775 0.737226 0.371828 0.17695
C_ C_ 0.119329 0.722412 0.422832 -0.11473
C_ C_ 0.402964 0.737147 0.417055 -0.11473
C_ C_ 0.128639 0.758053 0.442406 0.23465
C_ C_ 0.378643 0.751774 0.441178 0.23465
C_ C_ 0.138565 0.791757 0.418016 -0.11473
C_ C_ 0.353029 0.76675 0.418841 -0.11473
C_ C_ 0.12783 0.708202 0.120294 0.17695
C_ C_ 0.358431 0.78491 0.123903 0.17695
C_ C_ 0.125359 0.781985 0.116001 0.17695
C_ C_ 0.390615 0.727923 0.119109 0.17695
C_ C_ 0.128106 0.781743 0.0737434 -0.11473
C_ C_ 0.392349 0.732026 0.0735766 -0.11473
C_ C_ 0.127816 0.742926 0.0532425 0.23465
C_ C_ 0.375119 0.763605 0.0536819 0.23465
C_ C_ 0.128594 0.707195 0.076597 -0.11473
C_ C_ 0.355319 0.785318 0.0795332 -0.11473
C_ C_ 0.0269956 0.999643 0.227023 0.05793
C_ C_ 0.282821 1.00280655 0.237211 0.05793
C_ C_ 0.219491 0.500865 0.248111 0.05793
C_ C_ 0.467994 0.497683 0.250249 0.05793
Br Br 0.0683017 -0.0011790000000000411 0.212303 -0.17191
Br Br 0.32515 1.00408181 0.227114 -0.17191
Br Br 0.176409 0.505212 0.233566 -0.17191
Br Br 0.425612 0.497199 0.232276 -0.17191
N_ N_ 0.129839 0.754716 0.35548 -0.272
N_ N_ 0.376886 0.751371 0.353109 -0.272
N_ N_ 0.12304 0.763893 0.486009 -0.12501
N_ N_ 0.382193 0.753893 0.486016 -0.12501
N_ N_ 0.124812 0.746805 0.139049 -0.272
N_ N_ 0.375916 0.756784 0.142119 -0.272
N_ N_ 0.134262 0.741495 0.0102514 -0.12501
N_ N_ 0.372662 0.769135 0.0101924 -0.12501
O_ O_ 0.0951963 0.795163 0.211443 -0.60745
O_ O_ 0.348856 0.797227 0.21549 -0.60745
O_ O_ 0.0975088 0.793323 0.280954 -0.60745
O_ O_ 0.34469 0.791812 0.282437 -0.60745
O_ O_ 0.163405 0.79034 0.281257 -0.60745
O_ O_ 0.407952 0.791622 0.282104 -0.60745
O_ O_ 0.155253 0.795837 0.212809 -0.60745
O_ O_ 0.405547 0.800374 0.21428 -0.60745
O_ O_ 0.162436 0.709916 0.285038 -0.60745
O_ O_ 0.402369 0.703034 0.282706 -0.60745
O_ O_ 0.163444 0.709812 0.216557 -0.60745
O_ O_ 0.407154 0.708695 0.213388 -0.60745
O_ O_ 0.0979065 0.703291 0.216878 -0.60745
O_ O_ 0.346386 0.707105 0.214679 -0.60745
O_ O_ 0.100141 0.705743 0.285055 -0.60745
O_ O_ 0.341601 0.71061 0.284962 -0.60745
Zn Zn 0.120325 0.743912 0.784329 0.9476
Zn Zn 0.372507 0.750727 0.781532 0.9476
Zn Zn 0.123297 0.74513 0.714205 0.9476
Zn Zn 0.370726 0.750015 0.711338 0.9476
H_ H_ 0.0416724 0.924922 0.68601 0.10932
H_ H_ 0.268041 0.908668 0.69093 0.10932
H_ H_ 0.0599244 0.845888 0.814165 0.10932
H_ H_ 0.319219 0.855783 0.81837 0.10932
H_ H_ 0.0712445 0.86176 0.682225 0.10932
H_ H_ 0.29815 0.845804 0.686814 0.10932
H_ H_ 0.0344781 0.910729 0.818646 0.10932
H_ H_ 0.287501 0.919308 0.82428 0.10932
H_ H_ 0.217361 0.905843 0.813776 0.10932
H_ H_ 0.457986 0.926968 0.80934 0.10932
H_ H_ 0.165903 0.862449 0.681214 0.10932
H_ H_ 0.43525 0.859593 0.676753 0.10932
H_ H_ 0.193205 0.836211 0.809154 0.10932
H_ H_ 0.428329 0.862356 0.809063 0.10932
H_ H_ 0.200682 0.921469 0.681003 0.10932
H_ H_ 0.466868 0.924696 0.678669 0.10932
H_ H_ 0.203388 0.571453 0.821066 0.10932
H_ H_ 0.457924 0.570708 0.799874 0.10932
H_ H_ 0.181985 0.64398 0.688154 0.10932
H_ H_ 0.441259 0.660154 0.67338 0.10932
H_ H_ 0.169229 0.634818 0.818122 0.10932
H_ H_ 0.429719 0.637478 0.804977 0.10932
H_ H_ 0.216024 0.57977 0.689968 0.10932
H_ H_ 0.473388 0.593867 0.672218 0.10932
H_ H_ 0.0401129 0.565743 0.692561 0.10932
H_ H_ 0.29814 0.568963 0.692406 0.10932
H_ H_ 0.049018 0.656011 0.821158 0.10932
H_ H_ 0.293344 0.663154 0.81478 0.10932
H_ H_ 0.0727002 0.630413 0.689782 0.10932
H_ H_ 0.321123 0.635254 0.689976 0.10932
H_ H_ 0.0243286 0.59216 0.823033 0.10932
H_ H_ 0.266907 0.599665 0.816026 0.10932
H_ H_ 0.126747 0.817116 0.849729 0.10932
H_ H_ 0.381375 0.814603 0.856895 0.10932
H_ H_ 0.124956 0.688503 0.862167 0.10932
H_ H_ 0.377171 0.686662 0.853267 0.10932
H_ H_ 0.120693 0.696285 0.941184 0.10932
H_ H_ 0.381093 0.681109 0.933143 0.10932
H_ H_ 0.126247 0.827296 0.927814 0.10932
H_ H_ 0.383272 0.814367 0.936886 0.10932
H_ H_ 0.124208 0.679025 0.642217 0.10932
H_ H_ 0.35135 0.814175 0.640624 0.10932
H_ H_ 0.112575 0.809175 0.635891 0.10932
H_ H_ 0.380009 0.690122 0.635503 0.10932
H_ H_ 0.119935 0.806231 0.559457 0.10932
H_ H_ 0.37183 0.691227 0.558494 0.10932
H_ H_ 0.130013 0.677226 0.566559 0.10932
H_ H_ 0.349567 0.816562 0.559647 0.10932
C_ C_ 0.0680915 0.849348 0.748862 -0.02249
C_ C_ 0.312109 0.845893 0.75232 -0.02249
C_ C_ 0.01769 0.962455 0.750738 -0.02249
C_ C_ 0.260782 0.958981 0.756493 -0.02249
C_ C_ 0.0451979 0.90669 0.714071 -0.11473
C_ C_ 0.28139 0.89787 0.717177 -0.11473
C_ C_ 0.0593522 0.864355 0.787375 -0.11473
C_ C_ 0.307472 0.867283 0.791352 -0.11473
C_ C_ 0.0629428 0.872565 0.712882 -0.11473
C_ C_ 0.297448 0.861113 0.71553 -0.11473
C_ C_ 0.0357956 0.923034 0.751963 -0.02249
C_ C_ 0.275867 0.918249 0.755424 -0.02249
C_ C_ 0.0836161 0.806099 0.747607 0.6875
C_ C_ 0.333228 0.810366 0.750427 0.6875
C_ C_ 0.041046 0.899252 0.789774 -0.11473
C_ C_ 0.287922 0.902544 0.792924 -0.11473
C_ C_ 0.178659 0.844753 0.743851 -0.02249
C_ C_ 0.428247 0.854729 0.741326 -0.02249
C_ C_ 0.229511 0.96066 0.747407 -0.02249
C_ C_ 0.484046 0.964857 0.747958 -0.02249
C_ C_ 0.208027 0.896517 0.783339 -0.11473
C_ C_ 0.453049 0.91059 0.78211 -0.11473
C_ C_ 0.181717 0.868427 0.708252 -0.11473
C_ C_ 0.443358 0.870721 0.705591 -0.11473
C_ C_ 0.19321 0.857594 0.782076 -0.11473
C_ C_ 0.432966 0.87632 0.781484 -0.11473
C_ C_ 0.21106 0.920965 0.747116 -0.02249
C_ C_ 0.466141 0.92546 0.746601 -0.02249
C_ C_ 0.161036 0.803921 0.743947 0.6875
C_ C_ 0.411649 0.814253 0.740346 0.6875
C_ C_ 0.198216 0.904621 0.709294 -0.11473
C_ C_ 0.460118 0.908188 0.707185 -0.11473
C_ C_ 0.181882 0.649566 0.75579 -0.02249
C_ C_ 0.432068 0.652349 0.739544 -0.02249
C_ C_ 0.233086 0.536368 0.757854 -0.02249
C_ C_ 0.484362 0.539429 0.733123 -0.02249
C_ C_ 0.201629 0.589745 0.793031 -0.11473
C_ C_ 0.455625 0.591197 0.773988 -0.11473
C_ C_ 0.191917 0.632509 0.719062 -0.11473
C_ C_ 0.443799 0.639757 0.701361 -0.11473
C_ C_ 0.185121 0.626489 0.793652 -0.11473
C_ C_ 0.437596 0.627648 0.775147 -0.11473
C_ C_ 0.214521 0.575718 0.756142 -0.02249
C_ C_ 0.465815 0.577962 0.735409 -0.02249
C_ C_ 0.162346 0.68813 0.752647 0.6875
C_ C_ 0.411471 0.689806 0.741954 0.6875
C_ C_ 0.206847 0.594109 0.71841 -0.11473
C_ C_ 0.461222 0.603226 0.699034 -0.11473
C_ C_ 0.0626825 0.647516 0.753594 -0.02249
C_ C_ 0.309015 0.657198 0.750411 -0.02249
C_ C_ 0.012407 0.533986 0.762462 -0.02249
C_ C_ 0.265314 0.538449 0.75587 -0.02249
C_ C_ 0.0412194 0.5865 0.718405 -0.11473
C_ C_ 0.293494 0.591571 0.716001 -0.11473
C_ C_ 0.0470705 0.637802 0.790773 -0.11473
C_ C_ 0.291709 0.647091 0.78555 -0.11473
C_ C_ 0.0609674 0.620952 0.717154 -0.11473
C_ C_ 0.307102 0.631848 0.713957 -0.11473
C_ C_ 0.0301009 0.57321 0.758454 -0.02249
C_ C_ 0.279244 0.580446 0.753268 -0.02249
C_ C_ 0.0806489 0.687031 0.753673 0.6875
C_ C_ 0.330973 0.69248 0.750364 0.6875
C_ C_ 0.0344491 0.599636 0.793001 -0.11473
C_ C_ 0.27683 0.608266 0.787119 -0.11473
C_ C_ 0.122359 0.791752 0.869987 0.17695
C_ C_ 0.382045 0.785466 0.874402 0.17695
C_ C_ 0.125181 0.718685 0.877755 0.17695
C_ C_ 0.376113 0.713638 0.872009 0.17695
C_ C_ 0.125848 0.721263 0.922287 -0.11473
C_ C_ 0.377775 0.711363 0.916402 -0.11473
C_ C_ 0.125434 0.761788 0.939662 0.23465
C_ C_ 0.380365 0.747394 0.940258 0.23465
C_ C_ 0.123602 0.796277 0.913929 -0.11473
C_ C_ 0.380602 0.785431 0.918914 -0.11473
C_ C_ 0.123847 0.707354 0.623599 0.17695
C_ C_ 0.356503 0.786835 0.622172 0.17695
C_ C_ 0.12108 0.780767 0.621064 0.17695
C_ C_ 0.37289 0.717225 0.619484 0.17695
C_ C_ 0.12228 0.778194 0.576812 -0.11473
C_ C_ 0.37124 0.718659 0.575667 -0.11473
C_ C_ 0.127973 0.741396 0.55596 0.23465
C_ C_ 0.365331 0.756483 0.554551 0.23465
C_ C_ 0.132143 0.706091 0.581635 -0.11473
C_ C_ 0.357572 0.790821 0.577989 -0.11473
C_ C_ 0.0334151 0.0008999999999999009 0.754139 0.05793
C_ C_ 0.278281 -0.0037970000000000503 0.759029 0.05793
C_ C_ 0.217801 0.498829 0.753913 0.05793
C_ C_ 0.468901 0.501009 0.72634 0.05793
Br Br 0.0750637 0.00135846 0.740923 -0.17191
Br Br 0.321496 -0.0025810000000000555 0.776409 -0.17191
Br Br 0.175663 0.498867 0.762554 -0.17191
Br Br 0.430349 0.502874 0.695664 -0.17191
N_ N_ 0.123815 0.753518 0.853358 -0.272
N_ N_ 0.375248 0.750019 0.853169 -0.272
N_ N_ 0.124902 0.768488 0.985677 -0.12501
N_ N_ 0.385753 0.745498 0.984645 -0.12501
N_ N_ 0.122737 0.745383 0.6435 -0.272
N_ N_ 0.364623 0.752066 0.641209 -0.272
N_ N_ 0.13237 0.73705 0.511584 -0.12501
N_ N_ 0.360336 0.757467 0.510067 -0.12501
O_ O_ 0.0950146 0.792037 0.713739 -0.60745
O_ O_ 0.341683 0.796452 0.714634 -0.60745
O_ O_ 0.0878743 0.787048 0.781827 -0.60745
O_ O_ 0.34357 0.794307 0.783572 -0.60745
O_ O_ 0.14719 0.793907 0.777043 -0.60745
O_ O_ 0.401493 0.800384 0.776264 -0.60745
O_ O_ 0.155808 0.784248 0.709611 -0.60745
O_ O_ 0.402653 0.795582 0.705846 -0.60745
O_ O_ 0.155759 0.707791 0.785121 -0.60745
O_ O_ 0.405137 0.706132 0.777785 -0.60745
O_ O_ 0.150573 0.699243 0.716667 -0.60745
O_ O_ 0.402699 0.707822 0.709065 -0.60745
O_ O_ 0.0894662 0.701581 0.718783 -0.60745
O_ O_ 0.338739 0.707023 0.715736 -0.60745
O_ O_ 0.0939251 0.697953 0.787735 -0.60745
O_ O_ 0.34379 0.704725 0.783611 -0.60745
Zn Zn 0.623746 0.248642 0.283397 0.9476
Zn Zn 0.879887 0.2465 0.294307 0.9476
Zn Zn 0.62569 0.24831 0.215487 0.9476
Zn Zn 0.874704 0.250557 0.221074 0.9476
H_ H_ 0.540926 0.420193 0.181012 0.10932
H_ H_ 0.799377 0.427124 0.202713 0.10932
H_ H_ 0.568425 0.356878 0.315151 0.10932
H_ H_ 0.817229 0.343562 0.328877 0.10932
H_ H_ 0.568909 0.355679 0.181182 0.10932
H_ H_ 0.834977 0.369904 0.203378 0.10932
H_ H_ 0.536101 0.417657 0.314908 0.10932
H_ H_ 0.789308 0.410507 0.33227 0.10932
H_ H_ 0.727951 0.402379 0.320026 0.10932
H_ H_ 0.976935 0.412809 0.321395 0.10932
H_ H_ 0.689839 0.35547 0.184089 0.10932
H_ H_ 0.930412 0.35765 0.190469 0.10932
H_ H_ 0.698235 0.337785 0.31704 0.10932
H_ H_ 0.945836 0.351246 0.319597 0.10932
H_ H_ 0.7201 0.417213 0.188031 0.10932
H_ H_ 0.961731 0.424672 0.188872 0.10932
H_ H_ 0.711992 0.0719747 0.311026 0.10932
H_ H_ 0.970431 0.0827517 0.32272 0.10932
H_ H_ 0.706598 0.169262 0.190737 0.10932
H_ H_ 0.924724 0.143881 0.195182 0.10932
H_ H_ 0.676809 0.134382 0.314696 0.10932
H_ H_ 0.954407 0.151921 0.323053 0.10932
H_ H_ 0.731238 0.100542 0.184687 0.10932
H_ H_ 0.95248 0.0771381 0.188844 0.10932
H_ H_ 0.536694 0.0799711 0.178642 0.10932
H_ H_ 0.802163 0.0719332 0.189352 0.10932
H_ H_ 0.551558 0.155081 0.311106 0.10932
H_ H_ 0.809618 0.153441 0.322391 0.10932
H_ H_ 0.562626 0.14958 0.178561 0.10932
H_ H_ 0.832951 0.13535 0.192427 0.10932
H_ H_ 0.527232 0.0841759 0.311308 0.10932
H_ H_ 0.775588 0.088051 0.317388 0.10932
H_ H_ 0.631023 0.186488 0.360191 0.10932
H_ H_ 0.900385 0.191298 0.37636 0.10932
H_ H_ 0.623908 0.317374 0.349507 0.10932
H_ H_ 0.866347 0.313025 0.363503 0.10932
H_ H_ 0.62339 0.320217 0.429173 0.10932
H_ H_ 0.858892 0.319347 0.438982 0.10932
H_ H_ 0.629888 0.190491 0.440008 0.10932
H_ H_ 0.90227 0.204392 0.45432 0.10932
H_ H_ 0.641247 0.178789 0.14812 0.10932
H_ H_ 0.910878 0.279762 0.142503 0.10932
H_ H_ 0.613417 0.304021 0.136768 0.10932
H_ H_ 0.835134 0.200605 0.146482 0.10932
H_ H_ 0.612372 0.300906 0.0583867 0.10932
H_ H_ 0.829879 0.2068 0.0696101 0.10932
H_ H_ 0.638106 0.172239 0.0717464 0.10932
H_ H_ 0.908942 0.279926 0.0659295 0.10932
C_ C_ 0.566403 0.345016 0.250082 -0.02249
C_ C_ 0.820809 0.347427 0.262606 -0.02249
C_ C_ 0.516153 0.463674 0.243907 -0.02249
C_ C_ 0.769531 0.460534 0.265116 -0.02249
C_ C_ 0.544669 0.403038 0.210133 -0.11473
C_ C_ 0.801651 0.410591 0.230991 -0.11473
C_ C_ 0.559683 0.368397 0.285788 -0.11473
C_ C_ 0.807435 0.358744 0.300019 -0.11473
C_ C_ 0.558118 0.364405 0.21065 -0.11473
C_ C_ 0.818469 0.374033 0.228483 -0.11473
C_ C_ 0.533982 0.421766 0.247262 -0.02249
C_ C_ 0.785845 0.419796 0.266295 -0.02249
C_ C_ 0.584384 0.306274 0.250296 0.6875
C_ C_ 0.839942 0.309666 0.258214 0.6875
C_ C_ 0.542059 0.403237 0.285635 -0.11473
C_ C_ 0.791649 0.395516 0.302754 -0.11473
C_ C_ 0.686057 0.345019 0.251361 -0.02249
C_ C_ 0.935823 0.350414 0.255068 -0.02249
C_ C_ 0.737234 0.459772 0.257365 -0.02249
C_ C_ 0.98726 0.46368 0.256235 -0.02249
C_ C_ 0.717782 0.393623 0.289918 -0.11473
C_ C_ 0.96601 0.403983 0.293543 -0.11473
C_ C_ 0.695725 0.364832 0.213622 -0.11473
C_ C_ 0.940255 0.371779 0.218587 -0.11473
C_ C_ 0.700735 0.355542 0.289265 -0.11473
C_ C_ 0.949759 0.366032 0.292342 -0.11473
C_ C_ 0.719393 0.420039 0.25575 -0.02249
C_ C_ 0.969975 0.423551 0.254957 -0.02249
C_ C_ 0.664085 0.310695 0.249298 0.6875
C_ C_ 0.915615 0.311766 0.255875 0.6875
C_ C_ 0.710618 0.40342 0.215907 -0.11473
C_ C_ 0.959239 0.407984 0.216733 -0.11473
C_ C_ 0.689059 0.15669 0.254334 -0.02249
C_ C_ 0.940284 0.154612 0.258485 -0.02249
C_ C_ 0.737301 0.0411748 0.247956 -0.02249
C_ C_ 0.981867 0.0359208 0.248715 -0.02249
C_ C_ 0.709598 0.0951443 0.286715 -0.11473
C_ C_ 0.964475 0.0968431 0.293262 -0.11473
C_ C_ 0.705301 0.147255 0.217175 -0.11473
C_ C_ 0.937845 0.131976 0.221264 -0.11473
C_ C_ 0.692007 0.129342 0.288977 -0.11473
C_ C_ 0.952578 0.13586 0.294281 -0.11473
C_ C_ 0.722441 0.0830121 0.249547 -0.02249
C_ C_ 0.966228 0.0766991 0.253954 -0.02249
C_ C_ 0.667667 0.192869 0.254769 0.6875
C_ C_ 0.919583 0.190955 0.26217 0.6875
C_ C_ 0.720913 0.109381 0.212899 -0.11473
C_ C_ 0.954028 0.0956225 0.217623 -0.11473
C_ C_ 0.561115 0.157226 0.24529 -0.02249
C_ C_ 0.818922 0.150196 0.256214 -0.02249
C_ C_ 0.516801 0.0404525 0.24203 -0.02249
C_ C_ 0.769475 0.0382549 0.251258 -0.02249
C_ C_ 0.54015 0.0994965 0.206393 -0.11473
C_ C_ 0.804424 0.0889671 0.219441 -0.11473
C_ C_ 0.546949 0.140625 0.282002 -0.11473
C_ C_ 0.804932 0.13594 0.293713 -0.11473
C_ C_ 0.555935 0.135986 0.207675 -0.11473
C_ C_ 0.820268 0.12642 0.220373 -0.11473
C_ C_ 0.532389 0.080718 0.243721 -0.02249
C_ C_ 0.788291 0.075599 0.255641 -0.02249
C_ C_ 0.583334 0.192091 0.249177 0.6875
C_ C_ 0.838776 0.186088 0.258012 0.6875
C_ C_ 0.534727 0.100645 0.281406 -0.11473
C_ C_ 0.789111 0.097697 0.292363 -0.11473
C_ C_ 0.627094 0.216682 0.374623 0.17695
C_ C_ 0.891906 0.219532 0.39177 0.17695
C_ C_ 0.624764 0.288242 0.369829 0.17695
C_ C_ 0.873595 0.287073 0.383906 0.17695
C_ C_ 0.6249 0.290912 0.413493 -0.11473
C_ C_ 0.870462 0.291874 0.427609 -0.11473
C_ C_ 0.629999 0.256511 0.43895 0.23465
C_ C_ 0.879651 0.25974 0.453431 0.23465
C_ C_ 0.62885 0.217722 0.419751 -0.11473
C_ C_ 0.889039 0.224787 0.436103 -0.11473
C_ C_ 0.632049 0.204849 0.127787 0.17695
C_ C_ 0.892704 0.262703 0.127746 0.17695
C_ C_ 0.620348 0.276003 0.120672 0.17695
C_ C_ 0.849379 0.219651 0.128482 0.17695
C_ C_ 0.617883 0.273321 0.0766587 -0.11473
C_ C_ 0.846549 0.224725 0.085173 -0.11473
C_ C_ 0.626329 0.236023 0.0574836 0.23465
C_ C_ 0.868748 0.244322 0.0613696 0.23465
C_ C_ 0.630111 0.200643 0.0844732 -0.11473
C_ C_ 0.892734 0.262192 0.0832032 -0.11473
C_ C_ 0.530738 0.503137 0.245631 0.05793
C_ C_ 0.783639 0.498975 0.269627 0.05793
C_ C_ 0.720844 1.00498593 0.238549 0.05793
C_ C_ 0.965625 0.997558 0.248247 0.05793
Br Br 0.575042 0.502419 0.237896 -0.17191
Br Br 0.825697 0.498767 0.290175 -0.17191
Br Br 0.677044 0.00909663 0.238231 -0.17191
Br Br 0.922837 -0.006874000000000047 0.249733 -0.17191
N_ N_ 0.624868 0.251935 0.351085 -0.272
N_ N_ 0.884627 0.251503 0.366472 -0.272
N_ N_ 0.628999 0.261719 0.482465 -0.12501
N_ N_ 0.878847 0.266181 0.497521 -0.12501
N_ N_ 0.62425 0.242266 0.145471 -0.272
N_ N_ 0.872443 0.239753 0.149843 -0.272
N_ N_ 0.631771 0.235558 0.0124171 -0.12501
N_ N_ 0.863678 0.250116 0.0158951 -0.12501
O_ O_ 0.589012 0.284136 0.217929 -0.60745
O_ O_ 0.845641 0.292868 0.222741 -0.60745
O_ O_ 0.598228 0.296699 0.283885 -0.60745
O_ O_ 0.848815 0.290695 0.290478 -0.60745
O_ O_ 0.657829 0.291077 0.282826 -0.60745
O_ O_ 0.908695 0.296196 0.291542 -0.60745
O_ O_ 0.651218 0.300183 0.214235 -0.60745
O_ O_ 0.903366 0.298176 0.221907 -0.60745
O_ O_ 0.653239 0.20132 0.285896 -0.60745
O_ O_ 0.913168 0.205696 0.298211 -0.60745
O_ O_ 0.662656 0.211532 0.220423 -0.60745
O_ O_ 0.907917 0.206523 0.229113 -0.60745
O_ O_ 0.60052 0.199176 0.217889 -0.60745
O_ O_ 0.842455 0.207324 0.224407 -0.60745
O_ O_ 0.58973 0.207995 0.284277 -0.60745
O_ O_ 0.850108 0.199316 0.292149 -0.60745
Zn Zn 0.625755 0.254818 0.781618 0.9476
Zn Zn 0.873664 0.246229 0.792187 0.9476
Zn Zn 0.627148 0.253938 0.71082 0.9476
Zn Zn 0.87426 0.247371 0.724005 0.9476
H_ H_ 0.539163 0.42849 0.685097 0.10932
H_ H_ 0.798667 0.429908 0.67992 0.10932
H_ H_ 0.556488 0.346076 0.813818 0.10932
H_ H_ 0.812351 0.35151 0.813623 0.10932
H_ H_ 0.574479 0.364575 0.686708 0.10932
H_ H_ 0.824773 0.359162 0.6828 0.10932
H_ H_ 0.529142 0.412207 0.813592 0.10932
H_ H_ 0.77658 0.409372 0.812128 0.10932
H_ H_ 0.697498 0.43236 0.804743 0.10932
H_ H_ 0.957371 0.419799 0.817581 0.10932
H_ H_ 0.712099 0.333459 0.690789 0.10932
H_ H_ 0.938687 0.344562 0.68558 0.10932
H_ H_ 0.665949 0.371177 0.798214 0.10932
H_ H_ 0.938358 0.346909 0.821538 0.10932
H_ H_ 0.745993 0.399349 0.695471 0.10932
H_ H_ 0.96548 0.408268 0.68619 0.10932
H_ H_ 0.712263 0.0827226 0.815134 0.10932
H_ H_ 0.973236 0.0816551 0.825629 0.10932
H_ H_ 0.671027 0.140746 0.678315 0.10932
H_ H_ 0.924618 0.138889 0.694442 0.10932
H_ H_ 0.687544 0.152579 0.812545 0.10932
H_ H_ 0.937727 0.142626 0.827681 0.10932
H_ H_ 0.701467 0.0787847 0.680187 0.10932
H_ H_ 0.954308 0.0726934 0.693339 0.10932
H_ H_ 0.538329 0.0780025 0.686549 0.10932
H_ H_ 0.769809 0.0977757 0.686927 0.10932
H_ H_ 0.562286 0.155418 0.815621 0.10932
H_ H_ 0.828279 0.128991 0.819382 0.10932
H_ H_ 0.563174 0.147558 0.68018 0.10932
H_ H_ 0.797013 0.160327 0.695036 0.10932
H_ H_ 0.538058 0.0918324 0.819528 0.10932
H_ H_ 0.799001 0.0629862 0.81392 0.10932
H_ H_ 0.639859 0.318914 0.856026 0.10932
H_ H_ 0.91869 0.249498 0.858448 0.10932
H_ H_ 0.60474 0.198328 0.860675 0.10932
H_ H_ 0.825262 0.2536 0.866588 0.10932
H_ H_ 0.608676 0.197949 0.937813 0.10932
H_ H_ 0.827452 0.239601 0.942022 0.10932
H_ H_ 0.641437 0.32224 0.93511 0.10932
H_ H_ 0.924034 0.249283 0.935698 0.10932
H_ H_ 0.624138 0.315105 0.628845 0.10932
H_ H_ 0.869039 0.308679 0.647419 0.10932
H_ H_ 0.628056 0.185768 0.644879 0.10932
H_ H_ 0.875825 0.176435 0.651109 0.10932
H_ H_ 0.62922 0.177447 0.569277 0.10932
H_ H_ 0.879737 0.175376 0.573092 0.10932
H_ H_ 0.633682 0.305631 0.55158 0.10932
H_ H_ 0.879695 0.306779 0.57526 0.10932
C_ C_ 0.5669 0.351724 0.748926 -0.02249
C_ C_ 0.822031 0.350247 0.748257 -0.02249
C_ C_ 0.512914 0.46307 0.752942 -0.02249
C_ C_ 0.768585 0.465204 0.745685 -0.02249
C_ C_ 0.54161 0.409591 0.712571 -0.11473
C_ C_ 0.8022 0.412362 0.71114 -0.11473
C_ C_ 0.553964 0.364443 0.786967 -0.11473
C_ C_ 0.808955 0.366171 0.784523 -0.11473
C_ C_ 0.561036 0.373078 0.712472 -0.11473
C_ C_ 0.817693 0.373526 0.711371 -0.11473
C_ C_ 0.530087 0.423307 0.751073 -0.02249
C_ C_ 0.787121 0.426323 0.746807 -0.02249
C_ C_ 0.586421 0.315069 0.749329 0.6875
C_ C_ 0.838929 0.309633 0.749394 0.6875
C_ C_ 0.535242 0.399079 0.786273 -0.11473
C_ C_ 0.788889 0.401737 0.783197 -0.11473
C_ C_ 0.686199 0.348718 0.742897 -0.02249
C_ C_ 0.931992 0.343204 0.755778 -0.02249
C_ C_ 0.736271 0.463778 0.747455 -0.02249
C_ C_ 0.98132 0.458002 0.753724 -0.02249
C_ C_ 0.697921 0.41436 0.775998 -0.11473
C_ C_ 0.955098 0.400652 0.790885 -0.11473
C_ C_ 0.706402 0.357757 0.710728 -0.11473
C_ C_ 0.944037 0.358025 0.716595 -0.11473
C_ C_ 0.681127 0.377269 0.77372 -0.11473
C_ C_ 0.942957 0.361549 0.79298 -0.11473
C_ C_ 0.719241 0.424717 0.744371 -0.02249
C_ C_ 0.963257 0.419268 0.752284 -0.02249
C_ C_ 0.668209 0.31064 0.741903 0.6875
C_ C_ 0.913493 0.305052 0.754656 0.6875
C_ C_ 0.724765 0.394826 0.712548 -0.11473
C_ C_ 0.956706 0.39793 0.715011 -0.11473
C_ C_ 0.676797 0.150176 0.746823 -0.02249
C_ C_ 0.92878 0.146278 0.761457 -0.02249
C_ C_ 0.730372 0.0382536 0.747594 -0.02249
C_ C_ 0.983991 0.0360524 0.758734 -0.02249
C_ C_ 0.704672 0.0967467 0.785353 -0.11473
C_ C_ 0.96115 0.0959995 0.795993 -0.11473
C_ C_ 0.680609 0.127702 0.708868 -0.11473
C_ C_ 0.933116 0.125633 0.723225 -0.11473
C_ C_ 0.689018 0.134649 0.784829 -0.11473
C_ C_ 0.939675 0.127972 0.798262 -0.11473
C_ C_ 0.711745 0.0771691 0.7474 -0.02249
C_ C_ 0.967879 0.0780188 0.758088 -0.02249
C_ C_ 0.65948 0.188705 0.745863 0.6875
C_ C_ 0.912441 0.186218 0.764038 0.6875
C_ C_ 0.696766 0.09136 0.709371 -0.11473
C_ C_ 0.95299 0.0921066 0.722129 -0.11473
C_ C_ 0.564491 0.158138 0.747442 -0.02249
C_ C_ 0.811736 0.152209 0.75801 -0.02249
C_ C_ 0.517459 0.0414981 0.754754 -0.02249
C_ C_ 0.762549 0.0377875 0.748824 -0.02249
C_ C_ 0.544679 0.0954907 0.713599 -0.11473
C_ C_ 0.779687 0.105766 0.718303 -0.11473
C_ C_ 0.557406 0.140875 0.78758 -0.11473
C_ C_ 0.81331 0.12314 0.79156 -0.11473
C_ C_ 0.556963 0.134314 0.709907 -0.11473
C_ C_ 0.79469 0.143427 0.722887 -0.11473
C_ C_ 0.535745 0.0808463 0.752107 -0.02249
C_ C_ 0.780168 0.0772145 0.751469 -0.02249
C_ C_ 0.582168 0.198125 0.746569 0.6875
C_ C_ 0.832316 0.18907 0.757128 0.6875
C_ C_ 0.542368 0.103396 0.789753 -0.11473
C_ C_ 0.79801 0.084546 0.787885 -0.11473
C_ C_ 0.633464 0.292159 0.874295 0.17695
C_ C_ 0.899957 0.251218 0.878339 0.17695
C_ C_ 0.615055 0.223742 0.877152 0.17695
C_ C_ 0.846376 0.24887 0.881571 0.17695
C_ C_ 0.615016 0.224987 0.921379 -0.11473
C_ C_ 0.847618 0.245131 0.926194 -0.11473
C_ C_ 0.623947 0.260827 0.942055 0.23465
C_ C_ 0.876463 0.244252 0.947153 0.23465
C_ C_ 0.635202 0.293875 0.918539 -0.11473
C_ C_ 0.90178 0.248695 0.921713 -0.11473
C_ C_ 0.625776 0.284441 0.615672 0.17695
C_ C_ 0.872469 0.278169 0.63249 0.17695
C_ C_ 0.625052 0.212456 0.623494 0.17695
C_ C_ 0.873429 0.205121 0.634963 0.17695
C_ C_ 0.627584 0.207985 0.580039 -0.11473
C_ C_ 0.875956 0.203675 0.590915 -0.11473
C_ C_ 0.628473 0.241751 0.553946 0.23465
C_ C_ 0.878578 0.240134 0.566577 0.23465
C_ C_ 0.63019 0.279374 0.572588 -0.11473
C_ C_ 0.876648 0.277258 0.589027 -0.11473
C_ C_ 0.527845 0.500829 0.763141 0.05793
C_ C_ 0.783388 0.503094 0.745818 0.05793
C_ C_ 0.714153 -0.0003589999999999982 0.740961 0.05793
C_ C_ 0.968312 -0.001534999999999953 0.752535 0.05793
Br Br 0.56798 0.502092 0.783512 -0.17191
Br Br 0.826751 0.505973 0.75312 -0.17191
Br Br 0.670603 -0.0006739999999999524 0.737964 -0.17191
Br Br 0.926669 -0.0024610000000000465 0.741406 -0.17191
N_ N_ 0.627241 0.255865 0.854371 -0.272
N_ N_ 0.872629 0.248188 0.859879 -0.272
N_ N_ 0.620579 0.261222 0.987636 -0.12501
N_ N_ 0.880397 0.233466 0.990791 -0.12501
N_ N_ 0.62299 0.250773 0.639888 -0.272
N_ N_ 0.873309 0.242278 0.654505 -0.272
N_ N_ 0.633372 0.234839 0.509047 -0.12501
N_ N_ 0.877662 0.237628 0.522584 -0.12501
O_ O_ 0.596244 0.300772 0.715465 -0.60745
O_ O_ 0.844613 0.290178 0.715953 -0.60745
O_ O_ 0.596087 0.30065 0.783286 -0.60745
O_ O_ 0.844264 0.293253 0.785058 -0.60745
O_ O_ 0.657036 0.298669 0.777045 -0.60745
O_ O_ 0.903259 0.289544 0.788119 -0.60745
O_ O_ 0.660251 0.292519 0.708063 -0.60745
O_ O_ 0.904431 0.289416 0.720905 -0.60745
O_ O_ 0.652807 0.20748 0.779394 -0.60745
O_ O_ 0.9048 0.201527 0.799492 -0.60745
O_ O_ 0.655796 0.20629 0.711029 -0.60745
O_ O_ 0.901912 0.202602 0.731743 -0.60745
O_ O_ 0.593689 0.211441 0.713859 -0.60745
O_ O_ 0.843877 0.201841 0.724526 -0.60745
O_ O_ 0.591487 0.213997 0.782851 -0.60745
O_ O_ 0.840589 0.203717 0.792723 -0.60745
Zn Zn 0.626379 0.750631 0.28014 0.9476
Zn Zn 0.874746 0.750658 0.286055 0.9476
Zn Zn 0.62454 0.749456 0.211465 0.9476
Zn Zn 0.874231 0.7457 0.215552 0.9476
H_ H_ 0.531661 0.917196 0.178816 0.10932
H_ H_ 0.790769 0.9217 0.169495 0.10932
H_ H_ 0.584263 0.867531 0.307426 0.10932
H_ H_ 0.799625 0.844655 0.30801 0.10932
H_ H_ 0.560448 0.849333 0.179287 0.10932
H_ H_ 0.812314 0.850481 0.172058 0.10932
H_ H_ 0.557429 0.933484 0.307346 0.10932
H_ H_ 0.784255 0.915538 0.303237 0.10932
H_ H_ 0.716431 0.922921 0.310383 0.10932
H_ H_ 0.963659 0.920907 0.313349 0.10932
H_ H_ 0.684001 0.848068 0.18068 0.10932
H_ H_ 0.928273 0.851313 0.181909 0.10932
H_ H_ 0.690293 0.853706 0.314852 0.10932
H_ H_ 0.929462 0.858487 0.315786 0.10932
H_ H_ 0.713374 0.91156 0.17329 0.10932
H_ H_ 0.958395 0.917166 0.179954 0.10932
H_ H_ 0.716376 0.584148 0.317745 0.10932
H_ H_ 0.967902 0.583411 0.324326 0.10932
H_ H_ 0.690558 0.647742 0.177431 0.10932
H_ H_ 0.934406 0.644217 0.190888 0.10932
H_ H_ 0.690051 0.651091 0.31633 0.10932
H_ H_ 0.939144 0.651243 0.324165 0.10932
H_ H_ 0.716877 0.579075 0.181766 0.10932
H_ H_ 0.97732 0.589454 0.191748 0.10932
H_ H_ 0.542727 0.576133 0.18162 0.10932
H_ H_ 0.779753 0.581182 0.192217 0.10932
H_ H_ 0.554424 0.657714 0.311257 0.10932
H_ H_ 0.804341 0.658355 0.324152 0.10932
H_ H_ 0.564103 0.643697 0.175302 0.10932
H_ H_ 0.811151 0.647039 0.188126 0.10932
H_ H_ 0.521905 0.597112 0.308856 0.10932
H_ H_ 0.78369 0.586249 0.326408 0.10932
H_ H_ 0.615095 0.681334 0.352359 0.10932
H_ H_ 0.879752 0.812112 0.361626 0.10932
H_ H_ 0.631116 0.810846 0.354132 0.10932
H_ H_ 0.867567 0.683291 0.353992 0.10932
H_ H_ 0.635209 0.806889 0.433367 0.10932
H_ H_ 0.863378 0.677958 0.431583 0.10932
H_ H_ 0.616249 0.677924 0.430623 0.10932
H_ H_ 0.883884 0.8066 0.439787 0.10932
H_ H_ 0.638865 0.683273 0.137392 0.10932
H_ H_ 0.864531 0.679417 0.143489 0.10932
H_ H_ 0.613121 0.811628 0.129774 0.10932
H_ H_ 0.888805 0.803917 0.139531 0.10932
H_ H_ 0.601492 0.79944 0.0545028 0.10932
H_ H_ 0.887109 0.803165 0.0606832 0.10932
H_ H_ 0.643183 0.681912 0.0607507 0.10932
H_ H_ 0.854352 0.680965 0.0659078 0.10932
C_ C_ 0.570446 0.85087 0.245487 -0.02249
C_ C_ 0.812043 0.843412 0.240627 -0.02249
C_ C_ 0.520958 0.965616 0.247018 -0.02249
C_ C_ 0.766826 0.963593 0.235609 -0.02249
C_ C_ 0.540009 0.903573 0.20874 -0.11473
C_ C_ 0.795419 0.906384 0.199555 -0.11473
C_ C_ 0.570285 0.875013 0.282598 -0.11473
C_ C_ 0.799412 0.859776 0.278065 -0.11473
C_ C_ 0.556321 0.865497 0.208485 -0.11473
C_ C_ 0.806639 0.863838 0.201546 -0.11473
C_ C_ 0.539444 0.927425 0.24594 -0.02249
C_ C_ 0.78242 0.922195 0.23602 -0.02249
C_ C_ 0.58741 0.811317 0.243638 0.6875
C_ C_ 0.834059 0.807733 0.243115 0.6875
C_ C_ 0.554898 0.912145 0.28337 -0.11473
C_ C_ 0.78622 0.898807 0.274085 -0.11473
C_ C_ 0.682414 0.851299 0.249627 -0.02249
C_ C_ 0.930152 0.845984 0.25021 -0.02249
C_ C_ 0.734886 0.965673 0.237352 -0.02249
C_ C_ 0.982593 0.960515 0.245061 -0.02249
C_ C_ 0.707598 0.909855 0.280757 -0.11473
C_ C_ 0.957635 0.904472 0.285078 -0.11473
C_ C_ 0.688707 0.867017 0.208897 -0.11473
C_ C_ 0.938771 0.863801 0.210963 -0.11473
C_ C_ 0.693478 0.870533 0.284617 -0.11473
C_ C_ 0.939104 0.868052 0.286607 -0.11473
C_ C_ 0.717562 0.925182 0.240671 -0.02249
C_ C_ 0.966817 0.920267 0.247053 -0.02249
C_ C_ 0.664996 0.812678 0.251342 0.6875
C_ C_ 0.910575 0.809484 0.2511 0.6875
C_ C_ 0.707457 0.902879 0.20562 -0.11473
C_ C_ 0.955813 0.901461 0.20798 -0.11473
C_ C_ 0.685564 0.651963 0.247445 -0.02249
C_ C_ 0.936351 0.653338 0.258146 -0.02249
C_ C_ 0.737261 0.537734 0.25616 -0.02249
C_ C_ 0.986588 0.538732 0.257623 -0.02249
C_ C_ 0.711002 0.59844 0.287494 -0.11473
C_ C_ 0.961221 0.597191 0.294605 -0.11473
C_ C_ 0.694877 0.632321 0.209835 -0.11473
C_ C_ 0.944025 0.631081 0.220774 -0.11473
C_ C_ 0.696075 0.636202 0.285646 -0.11473
C_ C_ 0.945721 0.634548 0.29576 -0.11473
C_ C_ 0.720915 0.576603 0.251502 -0.02249
C_ C_ 0.970235 0.579387 0.257072 -0.02249
C_ C_ 0.664719 0.688239 0.248173 0.6875
C_ C_ 0.913795 0.68797 0.257195 0.6875
C_ C_ 0.711886 0.595136 0.211057 -0.11473
C_ C_ 0.965636 0.599749 0.219602 -0.11473
C_ C_ 0.564102 0.65404 0.244489 -0.02249
C_ C_ 0.810871 0.658561 0.256591 -0.02249
C_ C_ 0.513272 0.538269 0.246492 -0.02249
C_ C_ 0.768356 0.537914 0.260743 -0.02249
C_ C_ 0.543217 0.593309 0.209141 -0.11473
C_ C_ 0.790016 0.595836 0.22008 -0.11473
C_ C_ 0.551052 0.64054 0.282173 -0.11473
C_ C_ 0.802171 0.640049 0.294725 -0.11473
C_ C_ 0.558139 0.631774 0.207661 -0.11473
C_ C_ 0.803832 0.634963 0.219196 -0.11473
C_ C_ 0.53013 0.57892 0.245382 -0.02249
C_ C_ 0.785934 0.577318 0.25996 -0.02249
C_ C_ 0.583482 0.694113 0.243918 0.6875
C_ C_ 0.831917 0.692073 0.25294 0.6875
C_ C_ 0.534042 0.60305 0.282202 -0.11473
C_ C_ 0.791637 0.598662 0.296791 -0.11473
C_ C_ 0.617367 0.710417 0.37119 0.17695
C_ C_ 0.88011 0.782659 0.376553 0.17695
C_ C_ 0.627584 0.781994 0.372861 0.17695
C_ C_ 0.869889 0.711072 0.371821 0.17695
C_ C_ 0.628627 0.780117 0.415609 -0.11473
C_ C_ 0.867824 0.70809 0.415284 -0.11473
C_ C_ 0.624391 0.742652 0.437642 0.23465
C_ C_ 0.869366 0.742127 0.440309 0.23465
C_ C_ 0.619097 0.705617 0.414768 -0.11473
C_ C_ 0.877607 0.780391 0.420635 -0.11473
C_ C_ 0.637249 0.711934 0.119545 0.17695
C_ C_ 0.871358 0.705577 0.126065 0.17695
C_ C_ 0.615151 0.779723 0.116466 0.17695
C_ C_ 0.88485 0.775779 0.123505 0.17695
C_ C_ 0.611249 0.775096 0.0730078 -0.11473
C_ C_ 0.882514 0.775334 0.0790021 -0.11473
C_ C_ 0.626 0.741709 0.0517296 0.23465
C_ C_ 0.874249 0.740232 0.0586195 0.23465
C_ C_ 0.636372 0.709089 0.0762414 -0.11473
C_ C_ 0.867042 0.705573 0.0810974 -0.11473
C_ C_ 0.534289 1.00432 0.24327 0.05793
C_ C_ 0.783834 0.999834 0.241948 0.05793
C_ C_ 0.721871 0.498918 0.256468 0.05793
C_ C_ 0.971206 0.500728 0.259646 0.05793
Br Br 0.577298 1.00456812 0.237515 -0.17191
Br Br 0.826689 0.99523 0.249706 -0.17191
Br Br 0.679719 0.498904 0.247066 -0.17191
Br Br 0.927809 0.498522 0.262159 -0.17191
N_ N_ 0.623181 0.746572 0.351644 -0.272
N_ N_ 0.8747 0.747757 0.35286 -0.272
N_ N_ 0.629743 0.743747 0.482081 -0.12501
N_ N_ 0.873828 0.735147 0.48568 -0.12501
N_ N_ 0.629208 0.748253 0.13914 -0.272
N_ N_ 0.877623 0.741182 0.145072 -0.272
N_ N_ 0.626154 0.736885 0.00742136 -0.12501
N_ N_ 0.873488 0.735894 0.0123697 -0.12501
O_ O_ 0.600446 0.801557 0.210799 -0.60745
O_ O_ 0.843581 0.791473 0.210455 -0.60745
O_ O_ 0.594385 0.792839 0.278285 -0.60745
O_ O_ 0.842785 0.792609 0.279118 -0.60745
O_ O_ 0.657507 0.796446 0.28545 -0.60745
O_ O_ 0.904696 0.792967 0.285124 -0.60745
O_ O_ 0.658285 0.791358 0.219135 -0.60745
O_ O_ 0.905518 0.789411 0.216906 -0.60745
O_ O_ 0.661114 0.710074 0.281319 -0.60745
O_ O_ 0.906236 0.706515 0.289062 -0.60745
O_ O_ 0.653473 0.699798 0.214089 -0.60745
O_ O_ 0.90512 0.702793 0.22134 -0.60745
O_ O_ 0.589721 0.711085 0.20877 -0.60745
O_ O_ 0.844585 0.699218 0.217468 -0.60745
O_ O_ 0.59625 0.705997 0.277578 -0.60745
O_ O_ 0.841635 0.708596 0.286937 -0.60745
Zn Zn 0.622853 0.746182 0.77954 0.9476
Zn Zn 0.873393 0.752912 0.784061 0.9476
Zn Zn 0.620245 0.748858 0.710769 0.9476
Zn Zn 0.87766 0.75363 0.715508 0.9476
H_ H_ 0.526076 0.916855 0.684092 0.10932
H_ H_ 0.776101 0.904998 0.676722 0.10932
H_ H_ 0.574031 0.858961 0.809534 0.10932
H_ H_ 0.820728 0.866329 0.813752 0.10932
H_ H_ 0.55206 0.849897 0.679787 0.10932
H_ H_ 0.814401 0.850987 0.682038 0.10932
H_ H_ 0.539953 0.918484 0.814376 0.10932
H_ H_ 0.791 0.930877 0.809006 0.10932
H_ H_ 0.718963 0.910593 0.807165 0.10932
H_ H_ 0.972351 0.917637 0.817299 0.10932
H_ H_ 0.681873 0.84929 0.672637 0.10932
H_ H_ 0.941407 0.854246 0.682408 0.10932
H_ H_ 0.687649 0.848858 0.80627 0.10932
H_ H_ 0.936452 0.852472 0.819152 0.10932
H_ H_ 0.705442 0.919433 0.672353 0.10932
H_ H_ 0.961668 0.920363 0.682921 0.10932
H_ H_ 0.725975 0.5921 0.810663 0.10932
H_ H_ 0.962476 0.57754 0.820864 0.10932
H_ H_ 0.676591 0.643894 0.679174 0.10932
H_ H_ 0.94738 0.654175 0.6861 0.10932
H_ H_ 0.697376 0.657559 0.810965 0.10932
H_ H_ 0.932952 0.643423 0.819159 0.10932
H_ H_ 0.706597 0.580784 0.676717 0.10932
H_ H_ 0.979006 0.590386 0.688721 0.10932
H_ H_ 0.545933 0.567824 0.689033 0.10932
H_ H_ 0.776347 0.593349 0.681963 0.10932
H_ H_ 0.552409 0.654948 0.814834 0.10932
H_ H_ 0.820062 0.647414 0.820531 0.10932
H_ H_ 0.565865 0.639231 0.682916 0.10932
H_ H_ 0.800202 0.663943 0.685608 0.10932
H_ H_ 0.529686 0.588704 0.821451 0.10932
H_ H_ 0.789219 0.581867 0.814981 0.10932
H_ H_ 0.624575 0.688117 0.861066 0.10932
H_ H_ 0.877078 0.69129 0.861615 0.10932
H_ H_ 0.617603 0.816787 0.844503 0.10932
H_ H_ 0.873889 0.820559 0.856243 0.10932
H_ H_ 0.618298 0.825504 0.920695 0.10932
H_ H_ 0.877282 0.829027 0.935067 0.10932
H_ H_ 0.61936 0.694279 0.936515 0.10932
H_ H_ 0.879655 0.693343 0.942161 0.10932
H_ H_ 0.617818 0.675115 0.642683 0.10932
H_ H_ 0.869197 0.819276 0.643134 0.10932
H_ H_ 0.621864 0.804703 0.624291 0.10932
H_ H_ 0.870487 0.691011 0.63595 0.10932
H_ H_ 0.62614 0.796188 0.548091 0.10932
H_ H_ 0.884658 0.694785 0.560089 0.10932
H_ H_ 0.615086 0.663938 0.565744 0.10932
H_ H_ 0.863039 0.825384 0.565533 0.10932
C_ C_ 0.56597 0.849805 0.744211 -0.02249
C_ C_ 0.818027 0.851002 0.749115 -0.02249
C_ C_ 0.515909 0.965324 0.754153 -0.02249
C_ C_ 0.761616 0.961494 0.738073 -0.02249
C_ C_ 0.534237 0.903508 0.712045 -0.11473
C_ C_ 0.788449 0.899109 0.706685 -0.11473
C_ C_ 0.56551 0.873355 0.78118 -0.11473
C_ C_ 0.809582 0.873322 0.784739 -0.11473
C_ C_ 0.550373 0.865069 0.708622 -0.11473
C_ C_ 0.807418 0.865435 0.71001 -0.11473
C_ C_ 0.532607 0.924876 0.749677 -0.02249
C_ C_ 0.780108 0.921423 0.743254 -0.02249
C_ C_ 0.582395 0.808209 0.742982 0.6875
C_ C_ 0.835469 0.812354 0.753051 0.6875
C_ C_ 0.545642 0.908061 0.784625 -0.11473
C_ C_ 0.791844 0.908477 0.782051 -0.11473
C_ C_ 0.682551 0.844389 0.739291 -0.02249
C_ C_ 0.940726 0.845582 0.750419 -0.02249
C_ C_ 0.729495 0.961495 0.736706 -0.02249
C_ C_ 0.986423 0.96075 0.749269 -0.02249
C_ C_ 0.709137 0.899695 0.777329 -0.11473
C_ C_ 0.963129 0.901836 0.789484 -0.11473
C_ C_ 0.689231 0.864841 0.701698 -0.11473
C_ C_ 0.947325 0.866903 0.711775 -0.11473
C_ C_ 0.692959 0.86315 0.777122 -0.11473
C_ C_ 0.947692 0.863469 0.788725 -0.11473
C_ C_ 0.712836 0.921364 0.738291 -0.02249
C_ C_ 0.970079 0.921968 0.751269 -0.02249
C_ C_ 0.662514 0.805884 0.740725 0.6875
C_ C_ 0.91921 0.810033 0.749236 0.6875
C_ C_ 0.703858 0.902121 0.700547 -0.11473
C_ C_ 0.960203 0.904701 0.713264 -0.11473
C_ C_ 0.681742 0.653823 0.745187 -0.02249
C_ C_ 0.935835 0.65157 0.752475 -0.02249
C_ C_ 0.735717 0.539742 0.744074 -0.02249
C_ C_ 0.981955 0.533822 0.753204 -0.02249
C_ C_ 0.716036 0.604334 0.781899 -0.11473
C_ C_ 0.954498 0.590777 0.790945 -0.11473
C_ C_ 0.687353 0.633504 0.706234 -0.11473
C_ C_ 0.951061 0.638885 0.7165 -0.11473
C_ C_ 0.698244 0.639883 0.78149 -0.11473
C_ C_ 0.939532 0.628986 0.789938 -0.11473
C_ C_ 0.71786 0.581235 0.744553 -0.02249
C_ C_ 0.965255 0.575079 0.752255 -0.02249
C_ C_ 0.659831 0.688185 0.74853 0.6875
C_ C_ 0.916358 0.691701 0.748847 0.6875
C_ C_ 0.702759 0.596567 0.707741 -0.11473
C_ C_ 0.967617 0.600455 0.717576 -0.11473
C_ C_ 0.565181 0.649251 0.750498 -0.02249
C_ C_ 0.813167 0.658382 0.751604 -0.02249
C_ C_ 0.513831 0.53855 0.752795 -0.02249
C_ C_ 0.767358 0.540316 0.745961 -0.02249
C_ C_ 0.546734 0.587636 0.716773 -0.11473
C_ C_ 0.786039 0.605974 0.711233 -0.11473
C_ C_ 0.553148 0.635722 0.789064 -0.11473
C_ C_ 0.8097 0.635901 0.789339 -0.11473
C_ C_ 0.560266 0.625567 0.713016 -0.11473
C_ C_ 0.801076 0.643506 0.71441 -0.11473
C_ C_ 0.531225 0.576129 0.753271 -0.02249
C_ C_ 0.783459 0.581045 0.747759 -0.02249
C_ C_ 0.581763 0.688082 0.750054 0.6875
C_ C_ 0.832478 0.698495 0.7505 0.6875
C_ C_ 0.535404 0.599768 0.790476 -0.11473
C_ C_ 0.795615 0.595595 0.786249 -0.11473
C_ C_ 0.6241 0.717335 0.874881 0.17695
C_ C_ 0.877941 0.720557 0.877501 0.17695
C_ C_ 0.623112 0.789975 0.865502 0.17695
C_ C_ 0.878279 0.793334 0.874746 0.17695
C_ C_ 0.622525 0.79451 0.909923 -0.11473
C_ C_ 0.879238 0.798191 0.919345 -0.11473
C_ C_ 0.622025 0.759351 0.936208 0.23465
C_ C_ 0.877261 0.761651 0.943749 0.23465
C_ C_ 0.622066 0.720825 0.917423 -0.11473
C_ C_ 0.877411 0.723482 0.923349 -0.11473
C_ C_ 0.617462 0.701757 0.622723 0.17695
C_ C_ 0.869195 0.792064 0.625279 0.17695
C_ C_ 0.621025 0.773241 0.612543 0.17695
C_ C_ 0.872366 0.71972 0.620968 0.17695
C_ C_ 0.619735 0.768596 0.568695 -0.11473
C_ C_ 0.875957 0.721264 0.5763 -0.11473
C_ C_ 0.619043 0.729384 0.551486 0.23465
C_ C_ 0.873914 0.760329 0.556238 0.23465
C_ C_ 0.615892 0.695706 0.579126 -0.11473
C_ C_ 0.867709 0.795421 0.580762 -0.11473
C_ C_ 0.531727 0.00284062 0.754056 0.05793
C_ C_ 0.777615 -0.000241648 0.742325 0.05793
C_ C_ 0.72019 0.502081 0.745988 0.05793
C_ C_ 0.965141 0.496549 0.752402 0.05793
Br Br 0.574517 0.0010099999999999554 0.752701 -0.17191
Br Br 0.819268 1.00302808 0.729253 -0.17191
Br Br 0.675997 0.504738 0.742531 -0.17191
Br Br 0.920702 0.492123 0.750737 -0.17191
N_ N_ 0.624834 0.751779 0.849465 -0.272
N_ N_ 0.878309 0.75544 0.854717 -0.272
N_ N_ 0.62221 0.765445 0.981417 -0.12501
N_ N_ 0.878777 0.765598 0.987711 -0.12501
N_ N_ 0.619849 0.740897 0.64026 -0.272
N_ N_ 0.870542 0.753455 0.644361 -0.272
N_ N_ 0.613219 0.72565 0.50727 -0.12501
N_ N_ 0.874756 0.764944 0.511018 -0.12501
O_ O_ 0.588579 0.790132 0.708899 -0.60745
O_ O_ 0.84689 0.796584 0.72084 -0.60745
O_ O_ 0.593009 0.793807 0.777025 -0.60745
O_ O_ 0.843454 0.798449 0.788617 -0.60745
O_ O_ 0.655323 0.789583 0.774784 -0.60745
O_ O_ 0.908262 0.796498 0.782855 -0.60745
O_ O_ 0.650959 0.792696 0.706655 -0.60745
O_ O_ 0.911193 0.794125 0.713978 -0.60745
O_ O_ 0.653722 0.70476 0.78326 -0.60745
O_ O_ 0.905606 0.706343 0.780895 -0.60745
O_ O_ 0.653199 0.705786 0.714036 -0.60745
O_ O_ 0.907758 0.704023 0.712117 -0.60745
O_ O_ 0.590502 0.703228 0.715242 -0.60745
O_ O_ 0.846619 0.707194 0.716842 -0.60745
O_ O_ 0.591367 0.703643 0.783662 -0.60745
O_ O_ 0.842357 0.712547 0.783819 -0.60745
