_cell_length_a 44.444
_cell_length_b 32.3360000049186
_cell_length_c 31.843999878906452
_cell_angle_alpha 89.99799923859553
_cell_angle_beta 91.13600050494348
_cell_angle_gamma 89.9990006550086
_symmetry_space_group_name_H-M         'P 1'
_symmetry_Int_Tables_number            1
loop_
_symmetry_equiv_pos_as_xyz
   'x, y, z'
                         
loop_
_atom_site_label
_atom_site_type_symbol
_atom_site_fract_x 
_atom_site_fract_y
_atom_site_fract_z
_atom_site_charge
Zn Zn 0.124002 0.246851 0.277311 0.9476
Zn Zn 0.369447 0.246089 0.282373 0.9476
Zn Zn 0.120656 0.244158 0.20703 0.9476
Zn Zn 0.36951 0.247763 0.211752 0.9476
H_ H_ 0.0315481 0.415866 0.174124 0.10932
H_ H_ 0.264662 0.394159 0.183395 0.10932
H_ H_ 0.0570861 0.347884 0.308409 0.10932
H_ H_ 0.32871 0.369727 0.310613 0.10932
H_ H_ 0.0610624 0.346658 0.172106 0.10932
H_ H_ 0.291868 0.331407 0.18913 0.10932
H_ H_ 0.0242051 0.40807 0.303528 0.10932
H_ H_ 0.297864 0.43284 0.304451 0.10932
H_ H_ 0.230717 0.397878 0.305709 0.10932
H_ H_ 0.4717 0.402469 0.317426 0.10932
H_ H_ 0.161774 0.366702 0.185388 0.10932
H_ H_ 0.427666 0.352098 0.183061 0.10932
H_ H_ 0.201964 0.33543 0.304151 0.10932
H_ H_ 0.440215 0.336177 0.31089 0.10932
H_ H_ 0.190398 0.433509 0.189689 0.10932
H_ H_ 0.457194 0.41716 0.185104 0.10932
H_ H_ 0.209638 0.0769987 0.317453 0.10932
H_ H_ 0.43727 0.0568745 0.294648 0.10932
H_ H_ 0.184054 0.140716 0.180088 0.10932
H_ H_ 0.452043 0.165289 0.186808 0.10932
H_ H_ 0.182458 0.144717 0.315572 0.10932
H_ H_ 0.412906 0.124426 0.300772 0.10932
H_ H_ 0.211001 0.0741758 0.184553 0.10932
H_ H_ 0.479347 0.102776 0.181542 0.10932
H_ H_ 0.0362901 0.0614461 0.191762 0.10932
H_ H_ 0.290325 0.0685864 0.183774 0.10932
H_ H_ 0.0518192 0.155979 0.314558 0.10932
H_ H_ 0.302363 0.147385 0.318057 0.10932
H_ H_ 0.0645407 0.124773 0.181823 0.10932
H_ H_ 0.321724 0.133081 0.184207 0.10932
H_ H_ 0.0302772 0.0879395 0.323753 0.10932
H_ H_ 0.270569 0.0877236 0.315679 0.10932
H_ H_ 0.121371 0.176778 0.347976 0.10932
H_ H_ 0.383637 0.303518 0.362899 0.10932
H_ H_ 0.114299 0.307268 0.35664 0.10932
H_ H_ 0.358552 0.179377 0.348745 0.10932
H_ H_ 0.107595 0.300314 0.432726 0.10932
H_ H_ 0.361337 0.169968 0.426575 0.10932
H_ H_ 0.123188 0.168143 0.425058 0.10932
H_ H_ 0.38857 0.298674 0.436085 0.10932
H_ H_ 0.102006 0.30496 0.124653 0.10932
H_ H_ 0.363245 0.190547 0.134251 0.10932
H_ H_ 0.129332 0.18162 0.133555 0.10932
H_ H_ 0.395459 0.310624 0.137123 0.10932
H_ H_ 0.133492 0.176751 0.0552264 0.10932
H_ H_ 0.390499 0.312882 0.0554034 0.10932
H_ H_ 0.110142 0.304061 0.0462403 0.10932
H_ H_ 0.356382 0.190852 0.0600669 0.10932
C_ C_ 0.0644062 0.345929 0.24118 -0.02249
C_ C_ 0.311088 0.342034 0.251474 -0.02249
C_ C_ 0.0151669 0.460518 0.24173 -0.02249
C_ C_ 0.264184 0.459644 0.242287 -0.02249
C_ C_ 0.0398981 0.402058 0.202664 -0.11473
C_ C_ 0.276151 0.387992 0.213325 -0.11473
C_ C_ 0.0532016 0.36201 0.278677 -0.11473
C_ C_ 0.31512 0.373259 0.282314 -0.11473
C_ C_ 0.0558873 0.363659 0.201494 -0.11473
C_ C_ 0.292338 0.350813 0.215219 -0.11473
C_ C_ 0.0320169 0.4199 0.24119 -0.02249
C_ C_ 0.280993 0.420101 0.242793 -0.02249
C_ C_ 0.0828652 0.306807 0.241701 0.6875
C_ C_ 0.329452 0.304319 0.25061 0.6875
C_ C_ 0.0350925 0.396998 0.276912 -0.11473
C_ C_ 0.298641 0.411044 0.278436 -0.11473
C_ C_ 0.180676 0.344165 0.24244 -0.02249
C_ C_ 0.431936 0.34097 0.247495 -0.02249
C_ C_ 0.232275 0.460012 0.246587 -0.02249
C_ C_ 0.483579 0.456415 0.252994 -0.02249
C_ C_ 0.218075 0.390464 0.27807 -0.11473
C_ C_ 0.462357 0.391849 0.288611 -0.11473
C_ C_ 0.176276 0.374712 0.211985 -0.11473
C_ C_ 0.437455 0.363911 0.211124 -0.11473
C_ C_ 0.200636 0.354992 0.276115 -0.11473
C_ C_ 0.443347 0.355652 0.285421 -0.11473
C_ C_ 0.215295 0.419566 0.246955 -0.02249
C_ C_ 0.466413 0.415429 0.251742 -0.02249
C_ C_ 0.161868 0.305127 0.24251 0.6875
C_ C_ 0.407914 0.308648 0.248063 0.6875
C_ C_ 0.194361 0.410488 0.213713 -0.11473
C_ C_ 0.455925 0.399352 0.213355 -0.11473
C_ C_ 0.18264 0.148667 0.248106 -0.02249
C_ C_ 0.429255 0.147368 0.24434 -0.02249
C_ C_ 0.232848 0.033279 0.250289 -0.02249
C_ C_ 0.484198 0.0386481 0.241945 -0.02249
C_ C_ 0.205202 0.092121 0.287514 -0.11473
C_ C_ 0.442756 0.080525 0.271835 -0.11473
C_ C_ 0.190802 0.128838 0.210059 -0.11473
C_ C_ 0.451522 0.144955 0.21398 -0.11473
C_ C_ 0.19137 0.131215 0.286725 -0.11473
C_ C_ 0.426729 0.118222 0.274374 -0.11473
C_ C_ 0.215046 0.0737337 0.249369 -0.02249
C_ C_ 0.465938 0.0764537 0.242814 -0.02249
C_ C_ 0.159825 0.183003 0.247182 0.6875
C_ C_ 0.407477 0.183526 0.243863 0.6875
C_ C_ 0.2076 0.0922903 0.211908 -0.11473
C_ C_ 0.469637 0.109263 0.212145 -0.11473
C_ C_ 0.0635244 0.142374 0.246221 -0.02249
C_ C_ 0.313398 0.145737 0.248495 -0.02249
C_ C_ 0.0113501 0.0329297 0.263082 -0.02249
C_ C_ 0.264447 0.0328162 0.249823 -0.02249
C_ C_ 0.0399003 0.0812639 0.218259 -0.11473
C_ C_ 0.293853 0.0839885 0.212681 -0.11473
C_ C_ 0.0509301 0.135563 0.287341 -0.11473
C_ C_ 0.301104 0.129158 0.28797 -0.11473
C_ C_ 0.0561514 0.117554 0.21238 -0.11473
C_ C_ 0.310395 0.121671 0.212288 -0.11473
C_ C_ 0.0278311 0.0725498 0.257928 -0.02249
C_ C_ 0.280226 0.0702611 0.25027 -0.02249
C_ C_ 0.0820152 0.181751 0.243138 0.6875
C_ C_ 0.329015 0.187375 0.24844 0.6875
C_ C_ 0.0362363 0.0974312 0.294059 -0.11473
C_ C_ 0.284166 0.0923188 0.288181 -0.11473
C_ C_ 0.120182 0.204239 0.367314 0.17695
C_ C_ 0.381079 0.273261 0.374784 0.17695
C_ C_ 0.117887 0.276986 0.37213 0.17695
C_ C_ 0.367316 0.204188 0.370326 0.17695
C_ C_ 0.114976 0.27422 0.415455 -0.11473
C_ C_ 0.368005 0.199866 0.415346 -0.11473
C_ C_ 0.116314 0.234108 0.435703 0.23465
C_ C_ 0.373991 0.234242 0.440755 0.23465
C_ C_ 0.121581 0.199347 0.410312 -0.11473
C_ C_ 0.380812 0.271824 0.419074 -0.11473
C_ C_ 0.110018 0.275923 0.110514 0.17695
C_ C_ 0.358259 0.220888 0.119067 0.17695
C_ C_ 0.127489 0.208099 0.114271 0.17695
C_ C_ 0.380716 0.286528 0.119985 0.17695
C_ C_ 0.129547 0.205296 0.0692812 -0.11473
C_ C_ 0.380427 0.286838 0.0742328 -0.11473
C_ C_ 0.123705 0.240158 0.0448147 0.23465
C_ C_ 0.370476 0.252178 0.0522135 0.23465
C_ C_ 0.112613 0.274948 0.0656688 -0.11473
C_ C_ 0.356969 0.220675 0.074351 -0.11473
C_ C_ 0.0310057 0.49811 0.241084 0.05793
C_ C_ 0.280358 0.496164 0.237187 0.05793
C_ C_ 0.219301 -0.005338999999999983 0.256296 0.05793
C_ C_ 0.470063 0.999077 0.239488 0.05793
Br Br 0.0736108 0.499088 0.244697 -0.17191
Br Br 0.321735 0.494937 0.220704 -0.17191
Br Br 0.17525 0.0014400000000001079 0.254065 -0.17191
Br Br 0.429454 0.995875 0.213816 -0.17191
N_ N_ 0.120856 0.242749 0.348977 -0.272
N_ N_ 0.371264 0.240524 0.352418 -0.272
N_ N_ 0.117207 0.231589 0.482187 -0.12501
N_ N_ 0.370421 0.228722 0.484813 -0.12501
N_ N_ 0.119803 0.242648 0.134322 -0.272
N_ N_ 0.36794 0.254795 0.140435 -0.272
N_ N_ 0.122336 0.235241 0.00041000000000002146 -0.12501
N_ N_ 0.374405 0.246317 0.00824795 -0.12501
O_ O_ 0.0934109 0.292252 0.206539 -0.60745
O_ O_ 0.335715 0.287678 0.216664 -0.60745
O_ O_ 0.0904538 0.290349 0.276229 -0.60745
O_ O_ 0.342674 0.292167 0.282675 -0.60745
O_ O_ 0.152008 0.291759 0.276871 -0.60745
O_ O_ 0.402764 0.288119 0.280637 -0.60745
O_ O_ 0.153254 0.288903 0.20718 -0.60745
O_ O_ 0.39932 0.294688 0.211885 -0.60745
O_ O_ 0.155596 0.204576 0.279885 -0.60745
O_ O_ 0.397901 0.196458 0.279616 -0.60745
O_ O_ 0.149869 0.199062 0.212447 -0.60745
O_ O_ 0.403189 0.205874 0.211753 -0.60745
O_ O_ 0.0872919 0.198214 0.207907 -0.60745
O_ O_ 0.341196 0.200507 0.214078 -0.60745
O_ O_ 0.0976893 0.194686 0.274291 -0.60745
O_ O_ 0.334165 0.206389 0.282685 -0.60745
Zn Zn 0.127707 0.25385 0.77273 0.9476
Zn Zn 0.374108 0.251232 0.778588 0.9476
Zn Zn 0.125083 0.250262 0.704581 0.9476
Zn Zn 0.37645 0.252075 0.710738 0.9476
H_ H_ 0.0261947 0.412057 0.676897 0.10932
H_ H_ 0.275822 0.413478 0.66779 0.10932
H_ H_ 0.0729516 0.363535 0.813562 0.10932
H_ H_ 0.321978 0.363093 0.801149 0.10932
H_ H_ 0.0581119 0.347111 0.677478 0.10932
H_ H_ 0.298917 0.343156 0.671441 0.10932
H_ H_ 0.0406468 0.427619 0.807797 0.10932
H_ H_ 0.303934 0.43496 0.792992 0.10932
H_ H_ 0.229645 0.411862 0.800637 0.10932
H_ H_ 0.47206 0.413322 0.823431 0.10932
H_ H_ 0.171468 0.370986 0.675107 0.10932
H_ H_ 0.42754 0.371385 0.687677 0.10932
H_ H_ 0.204928 0.344083 0.799601 0.10932
H_ H_ 0.44043 0.35036 0.817974 0.10932
H_ H_ 0.207518 0.426591 0.674411 0.10932
H_ H_ 0.456151 0.43395 0.69118 0.10932
H_ H_ 0.217124 0.0966594 0.810669 0.10932
H_ H_ 0.456595 0.0779668 0.808829 0.10932
H_ H_ 0.183623 0.142652 0.674215 0.10932
H_ H_ 0.455906 0.166421 0.682229 0.10932
H_ H_ 0.194958 0.16721 0.805471 0.10932
H_ H_ 0.425024 0.140574 0.804435 0.10932
H_ H_ 0.208936 0.0769376 0.679289 0.10932
H_ H_ 0.483614 0.104494 0.681795 0.10932
H_ H_ 0.0248258 0.0851951 0.687308 0.10932
H_ H_ 0.266593 0.100289 0.674211 0.10932
H_ H_ 0.0792772 0.143215 0.809364 0.10932
H_ H_ 0.333746 0.125896 0.798315 0.10932
H_ H_ 0.0593492 0.143421 0.676905 0.10932
H_ H_ 0.305684 0.159359 0.674237 0.10932
H_ H_ 0.0470801 0.0831839 0.820072 0.10932
H_ H_ 0.299329 0.067812 0.799708 0.10932
H_ H_ 0.124623 0.321073 0.843192 0.10932
H_ H_ 0.348092 0.306113 0.850306 0.10932
H_ H_ 0.141548 0.19234 0.849889 0.10932
H_ H_ 0.411253 0.205522 0.862903 0.10932
H_ H_ 0.140222 0.193689 0.928205 0.10932
H_ H_ 0.405801 0.2087 0.941726 0.10932
H_ H_ 0.121642 0.321632 0.924491 0.10932
H_ H_ 0.355906 0.31955 0.926513 0.10932
H_ H_ 0.13411 0.189851 0.627578 0.10932
H_ H_ 0.384115 0.189457 0.638506 0.10932
H_ H_ 0.117523 0.315963 0.636426 0.10932
H_ H_ 0.366363 0.318713 0.64024 0.10932
H_ H_ 0.102141 0.322245 0.557555 0.10932
H_ H_ 0.361303 0.318339 0.561277 0.10932
H_ H_ 0.124197 0.192956 0.549708 0.10932
H_ H_ 0.38156 0.186488 0.558889 0.10932
C_ C_ 0.0678345 0.349498 0.744836 -0.02249
C_ C_ 0.316987 0.350376 0.735008 -0.02249
C_ C_ 0.0197146 0.463527 0.736677 -0.02249
C_ C_ 0.269517 0.466984 0.734225 -0.02249
C_ C_ 0.0399674 0.402103 0.704678 -0.11473
C_ C_ 0.287763 0.403091 0.695309 -0.11473
C_ C_ 0.0643994 0.37398 0.782629 -0.11473
C_ C_ 0.315942 0.376393 0.77119 -0.11473
C_ C_ 0.0546781 0.364207 0.706425 -0.11473
C_ C_ 0.303152 0.364503 0.696754 -0.11473
C_ C_ 0.0378912 0.427113 0.740045 -0.02249
C_ C_ 0.286096 0.426744 0.731612 -0.02249
C_ C_ 0.0874194 0.311323 0.746264 0.6875
C_ C_ 0.333271 0.30889 0.738258 0.6875
C_ C_ 0.0493064 0.413163 0.780134 -0.11473
C_ C_ 0.300608 0.413619 0.768943 -0.11473
C_ C_ 0.183022 0.352303 0.738687 -0.02249
C_ C_ 0.434829 0.352406 0.751249 -0.02249
C_ C_ 0.238327 0.466146 0.739335 -0.02249
C_ C_ 0.484316 0.467322 0.757947 -0.02249
C_ C_ 0.215778 0.403283 0.774127 -0.11473
C_ C_ 0.46609 0.400094 0.791022 -0.11473
C_ C_ 0.186051 0.374961 0.70107 -0.11473
C_ C_ 0.441287 0.376666 0.715101 -0.11473
C_ C_ 0.201376 0.363248 0.773169 -0.11473
C_ C_ 0.446981 0.366042 0.789624 -0.11473
C_ C_ 0.220581 0.424477 0.736873 -0.02249
C_ C_ 0.467485 0.42754 0.757655 -0.02249
C_ C_ 0.164038 0.313368 0.739369 0.6875
C_ C_ 0.414831 0.313216 0.749878 0.6875
C_ C_ 0.205494 0.4114 0.700164 -0.11473
C_ C_ 0.455492 0.414724 0.718393 -0.11473
C_ C_ 0.190236 0.162827 0.737366 -0.02249
C_ C_ 0.438494 0.160247 0.745531 -0.02249
C_ C_ 0.231179 0.0432558 0.750479 -0.02249
C_ C_ 0.489708 0.0421607 0.745518 -0.02249
C_ C_ 0.210382 0.106731 0.782148 -0.11473
C_ C_ 0.457339 0.0967946 0.779121 -0.11473
C_ C_ 0.194633 0.136342 0.703253 -0.11473
C_ C_ 0.456887 0.149956 0.711 -0.11473
C_ C_ 0.199864 0.14793 0.77715 -0.11473
C_ C_ 0.439835 0.134107 0.779313 -0.11473
C_ C_ 0.214754 0.0821963 0.746743 -0.02249
C_ C_ 0.472717 0.084364 0.743623 -0.02249
C_ C_ 0.170037 0.199982 0.735622 0.6875
C_ C_ 0.417744 0.19736 0.742898 0.6875
C_ C_ 0.209082 0.0970783 0.705269 -0.11473
C_ C_ 0.472068 0.111391 0.710006 -0.11473
C_ C_ 0.0724835 0.148666 0.743432 -0.02249
C_ C_ 0.316916 0.152397 0.740733 -0.02249
C_ C_ 0.016561 0.0408577 0.756591 -0.02249
C_ C_ 0.262354 0.0408597 0.737334 -0.02249
C_ C_ 0.0373967 0.0968605 0.713718 -0.11473
C_ C_ 0.281291 0.10766 0.702757 -0.11473
C_ C_ 0.0668406 0.133009 0.783725 -0.11473
C_ C_ 0.317776 0.123994 0.773587 -0.11473
C_ C_ 0.0546828 0.132596 0.708164 -0.11473
C_ C_ 0.301264 0.141092 0.702142 -0.11473
C_ C_ 0.0331355 0.0800482 0.753187 -0.02249
C_ C_ 0.281019 0.0802684 0.737831 -0.02249
C_ C_ 0.0930082 0.185544 0.738331 0.6875
C_ C_ 0.339164 0.187415 0.73957 0.6875
C_ C_ 0.0483957 0.0980521 0.78778 -0.11473
C_ C_ 0.302299 0.0863943 0.771075 -0.11473
C_ C_ 0.128572 0.292935 0.862631 0.17695
C_ C_ 0.362935 0.286261 0.868794 0.17695
C_ C_ 0.138341 0.220655 0.866883 0.17695
C_ C_ 0.395687 0.228273 0.876625 0.17695
C_ C_ 0.13354 0.220886 0.909656 -0.11473
C_ C_ 0.395057 0.230331 0.920254 -0.11473
C_ C_ 0.127243 0.257903 0.930123 0.23465
C_ C_ 0.380678 0.265093 0.938125 0.23465
C_ C_ 0.128084 0.29406 0.90726 -0.11473
C_ C_ 0.366027 0.293285 0.911888 -0.11473
C_ C_ 0.126133 0.218729 0.61198 0.17695
C_ C_ 0.381851 0.21815 0.618733 0.17695
C_ C_ 0.114485 0.289514 0.616697 0.17695
C_ C_ 0.370471 0.290285 0.620128 0.17695
C_ C_ 0.109206 0.292947 0.573406 -0.11473
C_ C_ 0.366928 0.290518 0.576189 -0.11473
C_ C_ 0.112437 0.257198 0.550153 0.23465
C_ C_ 0.369818 0.253815 0.554434 0.23465
C_ C_ 0.121426 0.220132 0.569305 -0.11473
C_ C_ 0.379665 0.217524 0.574842 -0.11473
C_ C_ 0.0346124 0.502812 0.738424 0.05793
C_ C_ 0.284709 0.505102 0.735084 0.05793
C_ C_ 0.216113 0.00485109 0.759572 0.05793
C_ C_ 0.472434 1.00564049 0.740357 0.05793
Br Br 0.0784491 0.504255 0.740674 -0.17191
Br Br 0.328531 0.506447 0.72925 -0.17191
Br Br 0.174773 0.00674755 0.778205 -0.17191
Br Br 0.428131 1.0107524 0.742657 -0.17191
N_ N_ 0.133133 0.255396 0.843995 -0.272
N_ N_ 0.37678 0.253159 0.851641 -0.272
N_ N_ 0.129674 0.26319 0.974842 -0.12501
N_ N_ 0.38346 0.272934 0.982795 -0.12501
N_ N_ 0.121652 0.252536 0.63522 -0.272
N_ N_ 0.377257 0.254606 0.640271 -0.272
N_ N_ 0.107322 0.259121 0.505353 -0.12501
N_ N_ 0.373511 0.25905 0.509216 -0.12501
O_ O_ 0.0929348 0.291818 0.711773 -0.60745
O_ O_ 0.343176 0.292684 0.704998 -0.60745
O_ O_ 0.0969098 0.29731 0.780264 -0.60745
O_ O_ 0.341712 0.295318 0.774247 -0.60745
O_ O_ 0.157231 0.297812 0.773404 -0.60745
O_ O_ 0.401491 0.301169 0.783639 -0.60745
O_ O_ 0.152898 0.298012 0.705727 -0.60745
O_ O_ 0.408538 0.297357 0.713114 -0.60745
O_ O_ 0.159341 0.214966 0.76984 -0.60745
O_ O_ 0.407844 0.21205 0.777396 -0.60745
O_ O_ 0.15799 0.20952 0.700164 -0.60745
O_ O_ 0.410353 0.21453 0.707409 -0.60745
O_ O_ 0.0995736 0.198338 0.701641 -0.60745
O_ O_ 0.346257 0.206429 0.706864 -0.60745
O_ O_ 0.0985049 0.20871 0.768951 -0.60745
O_ O_ 0.345299 0.204412 0.775306 -0.60745
Zn Zn 0.125933 0.750303 0.286138 0.9476
Zn Zn 0.377537 0.749099 0.286988 0.9476
Zn Zn 0.12176 0.750167 0.217424 0.9476
Zn Zn 0.378462 0.750162 0.218257 0.9476
H_ H_ 0.0249899 0.912407 0.193579 0.10932
H_ H_ 0.299302 0.923322 0.187652 0.10932
H_ H_ 0.0694632 0.856 0.32444 0.10932
H_ H_ 0.307757 0.83879 0.318208 0.10932
H_ H_ 0.0625888 0.854621 0.191042 0.10932
H_ H_ 0.331565 0.863217 0.188784 0.10932
H_ H_ 0.0338964 0.917362 0.32348 0.10932
H_ H_ 0.277268 0.900268 0.317833 0.10932
H_ H_ 0.198151 0.928534 0.314785 0.10932
H_ H_ 0.472293 0.91912 0.3147 0.10932
H_ H_ 0.205619 0.829797 0.193882 0.10932
H_ H_ 0.450524 0.842229 0.187895 0.10932
H_ H_ 0.15948 0.870125 0.305195 0.10932
H_ H_ 0.445123 0.854395 0.321782 0.10932
H_ H_ 0.228328 0.90443 0.188915 0.10932
H_ H_ 0.472988 0.912351 0.185663 0.10932
H_ H_ 0.234101 0.59976 0.302862 0.10932
H_ H_ 0.462146 0.577613 0.320895 0.10932
H_ H_ 0.168462 0.628829 0.18059 0.10932
H_ H_ 0.426096 0.631898 0.189817 0.10932
H_ H_ 0.204154 0.65868 0.305062 0.10932
H_ H_ 0.434025 0.640396 0.322441 0.10932
H_ H_ 0.202021 0.57161 0.179297 0.10932
H_ H_ 0.457507 0.574678 0.184508 0.10932
H_ H_ 0.0342755 0.583529 0.181369 0.10932
H_ H_ 0.277259 0.591867 0.175279 0.10932
H_ H_ 0.0618186 0.64315 0.31926 0.10932
H_ H_ 0.321616 0.639938 0.312263 0.10932
H_ H_ 0.0625637 0.650237 0.183982 0.10932
H_ H_ 0.321289 0.643419 0.178222 0.10932
H_ H_ 0.0383396 0.576663 0.313079 0.10932
H_ H_ 0.294066 0.573988 0.306177 0.10932
H_ H_ 0.135886 0.818093 0.352034 0.10932
H_ H_ 0.418897 0.784904 0.364269 0.10932
H_ H_ 0.122802 0.687788 0.370356 0.10932
H_ H_ 0.338568 0.714213 0.360208 0.10932
H_ H_ 0.117785 0.696074 0.446584 0.10932
H_ H_ 0.33597 0.71445 0.434907 0.10932
H_ H_ 0.130162 0.830215 0.425802 0.10932
H_ H_ 0.419115 0.782768 0.440777 0.10932
H_ H_ 0.107403 0.686997 0.145034 0.10932
H_ H_ 0.359122 0.814275 0.137064 0.10932
H_ H_ 0.126084 0.817307 0.132008 0.10932
H_ H_ 0.398086 0.69333 0.14012 0.10932
H_ H_ 0.125571 0.809679 0.0566537 0.10932
H_ H_ 0.405126 0.696602 0.0622684 0.10932
H_ H_ 0.107413 0.679158 0.0716302 0.10932
H_ H_ 0.359272 0.81316 0.0605319 0.10932
C_ C_ 0.0659039 0.849858 0.258879 -0.02249
C_ C_ 0.322023 0.847452 0.252526 -0.02249
C_ C_ 0.0118706 0.957447 0.256924 -0.02249
C_ C_ 0.26518 0.956702 0.252104 -0.02249
C_ C_ 0.0340158 0.898258 0.220358 -0.11473
C_ C_ 0.299581 0.906031 0.216077 -0.11473
C_ C_ 0.0571839 0.866673 0.296316 -0.11473
C_ C_ 0.306697 0.859352 0.29035 -0.11473
C_ C_ 0.0548734 0.866786 0.22127 -0.11473
C_ C_ 0.318958 0.872946 0.216486 -0.11473
C_ C_ 0.0282418 0.919406 0.25798 -0.02249
C_ C_ 0.283053 0.917437 0.251564 -0.02249
C_ C_ 0.0857798 0.811717 0.255472 0.6875
C_ C_ 0.342292 0.812408 0.251751 0.6875
C_ C_ 0.0378648 0.901044 0.296363 -0.11473
C_ C_ 0.28593 0.892085 0.287909 -0.11473
C_ C_ 0.180211 0.847204 0.248694 -0.02249
C_ C_ 0.439713 0.845045 0.254215 -0.02249
C_ C_ 0.232777 0.957817 0.250509 -0.02249
C_ C_ 0.485172 0.963066 0.249822 -0.02249
C_ C_ 0.198339 0.908446 0.286613 -0.11473
C_ C_ 0.462676 0.904393 0.289348 -0.11473
C_ C_ 0.199855 0.855926 0.216217 -0.11473
C_ C_ 0.450759 0.860504 0.216475 -0.11473
C_ C_ 0.177324 0.875073 0.283006 -0.11473
C_ C_ 0.447818 0.866501 0.290884 -0.11473
C_ C_ 0.21458 0.918869 0.251637 -0.02249
C_ C_ 0.468143 0.924255 0.251065 -0.02249
C_ C_ 0.164487 0.808523 0.251319 0.6875
C_ C_ 0.420028 0.807066 0.251998 0.6875
C_ C_ 0.214666 0.893914 0.215164 -0.11473
C_ C_ 0.462165 0.901542 0.214211 -0.11473
C_ C_ 0.182344 0.649031 0.243757 -0.02249
C_ C_ 0.432174 0.64809 0.254144 -0.02249
C_ C_ 0.23434 0.536617 0.243034 -0.02249
C_ C_ 0.482339 0.53263 0.250029 -0.02249
C_ C_ 0.219858 0.604554 0.276679 -0.11473
C_ C_ 0.459251 0.593022 0.29157 -0.11473
C_ C_ 0.181492 0.623917 0.20856 -0.11473
C_ C_ 0.438891 0.627507 0.216363 -0.11473
C_ C_ 0.20154 0.638676 0.277988 -0.11473
C_ C_ 0.442948 0.629446 0.292418 -0.11473
C_ C_ 0.218636 0.576979 0.243027 -0.02249
C_ C_ 0.464769 0.572408 0.252232 -0.02249
C_ C_ 0.162051 0.685716 0.247174 0.6875
C_ C_ 0.413664 0.686929 0.253521 0.6875
C_ C_ 0.199656 0.588211 0.209021 -0.11473
C_ C_ 0.454042 0.5901 0.214926 -0.11473
C_ C_ 0.0641464 0.652585 0.251014 -0.02249
C_ C_ 0.31788 0.651136 0.243472 -0.02249
C_ C_ 0.0149078 0.536552 0.244237 -0.02249
C_ C_ 0.266563 0.535552 0.240121 -0.02249
C_ C_ 0.0381599 0.598732 0.210231 -0.11473
C_ C_ 0.291286 0.597179 0.203708 -0.11473
C_ C_ 0.0550024 0.632091 0.288531 -0.11473
C_ C_ 0.312015 0.628964 0.280536 -0.11473
C_ C_ 0.0544875 0.635682 0.211857 -0.11473
C_ C_ 0.309264 0.632686 0.204505 -0.11473
C_ C_ 0.031654 0.577137 0.246533 -0.02249
C_ C_ 0.285474 0.575449 0.241279 -0.02249
C_ C_ 0.0844924 0.689983 0.254289 0.6875
C_ C_ 0.33778 0.688337 0.246448 0.6875
C_ C_ 0.0429397 0.59246 0.284753 -0.11473
C_ C_ 0.296178 0.590698 0.278648 -0.11473
C_ C_ 0.131402 0.791534 0.372644 0.17695
C_ C_ 0.400392 0.771017 0.378521 0.17695
C_ C_ 0.122678 0.719181 0.382386 0.17695
C_ C_ 0.355896 0.730183 0.37689 0.17695
C_ C_ 0.120884 0.723905 0.427135 -0.11473
C_ C_ 0.354224 0.72909 0.420458 -0.11473
C_ C_ 0.125324 0.764055 0.442346 0.23465
C_ C_ 0.377233 0.746539 0.444931 0.23465
C_ C_ 0.130376 0.798302 0.414826 -0.11473
C_ C_ 0.400825 0.768429 0.42355 -0.11473
C_ C_ 0.114454 0.714487 0.125553 0.17695
C_ C_ 0.365764 0.785256 0.121027 0.17695
C_ C_ 0.12336 0.786452 0.119195 0.17695
C_ C_ 0.391816 0.720958 0.123508 0.17695
C_ C_ 0.125073 0.782104 0.0755925 -0.11473
C_ C_ 0.394633 0.720849 0.0793131 -0.11473
C_ C_ 0.120409 0.74345 0.054861 0.23465
C_ C_ 0.382525 0.753868 0.0541596 0.23465
C_ C_ 0.114231 0.709854 0.0817386 -0.11473
C_ C_ 0.369059 0.786821 0.076704 -0.11473
C_ C_ 0.0270581 0.995231 0.263738 0.05793
C_ C_ 0.280433 0.994485 0.249013 0.05793
C_ C_ 0.217862 0.500136 0.243641 0.05793
C_ C_ 0.467294 0.493858 0.25528 0.05793
Br Br 0.0696657 -0.004901000000000044 0.276073 -0.17191
Br Br 0.32507 0.997041 0.253323 -0.17191
Br Br 0.175945 0.503025 0.252466 -0.17191
Br Br 0.42579 0.489656 0.269574 -0.17191
N_ N_ 0.12772 0.752369 0.357037 -0.272
N_ N_ 0.377729 0.750634 0.357172 -0.272
N_ N_ 0.124713 0.771129 0.486485 -0.12501
N_ N_ 0.38037 0.737767 0.488799 -0.12501
N_ N_ 0.118742 0.752465 0.145018 -0.272
N_ N_ 0.375778 0.751649 0.143166 -0.272
N_ N_ 0.116552 0.739893 0.0104678 -0.12501
N_ N_ 0.388558 0.757546 0.0112608 -0.12501
O_ O_ 0.0890021 0.79338 0.220035 -0.60745
O_ O_ 0.350335 0.796222 0.216827 -0.60745
O_ O_ 0.0960612 0.794982 0.288441 -0.60745
O_ O_ 0.35063 0.795356 0.286686 -0.60745
O_ O_ 0.160768 0.791862 0.286668 -0.60745
O_ O_ 0.407528 0.795086 0.285406 -0.60745
O_ O_ 0.157035 0.790443 0.216739 -0.60745
O_ O_ 0.412149 0.792983 0.216278 -0.60745
O_ O_ 0.157724 0.702401 0.281579 -0.60745
O_ O_ 0.406079 0.704088 0.28757 -0.60745
O_ O_ 0.152858 0.704643 0.213094 -0.60745
O_ O_ 0.406804 0.704144 0.218851 -0.60745
O_ O_ 0.0890643 0.71014 0.221477 -0.60745
O_ O_ 0.348299 0.702705 0.213904 -0.60745
O_ O_ 0.0935168 0.703483 0.288659 -0.60745
O_ O_ 0.343948 0.705558 0.283195 -0.60745
Zn Zn 0.124502 0.750595 0.783001 0.9476
Zn Zn 0.375602 0.754362 0.78126 0.9476
Zn Zn 0.127105 0.751938 0.715454 0.9476
Zn Zn 0.376641 0.755771 0.71355 0.9476
H_ H_ 0.0283373 0.92023 0.682145 0.10932
H_ H_ 0.28657 0.922645 0.677046 0.10932
H_ H_ 0.070104 0.86025 0.817806 0.10932
H_ H_ 0.312728 0.857482 0.81472 0.10932
H_ H_ 0.0564456 0.85123 0.682931 0.10932
H_ H_ 0.317097 0.860147 0.675721 0.10932
H_ H_ 0.0388069 0.92366 0.81706 0.10932
H_ H_ 0.280733 0.921303 0.809484 0.10932
H_ H_ 0.204984 0.927836 0.816233 0.10932
H_ H_ 0.462411 0.931393 0.811866 0.10932
H_ H_ 0.192563 0.851171 0.685154 0.10932
H_ H_ 0.437615 0.851249 0.680413 0.10932
H_ H_ 0.180039 0.861396 0.818025 0.10932
H_ H_ 0.426794 0.869434 0.813239 0.10932
H_ H_ 0.22676 0.907548 0.686745 0.10932
H_ H_ 0.467573 0.915037 0.676092 0.10932
H_ H_ 0.225612 0.58913 0.816398 0.10932
H_ H_ 0.481281 0.601427 0.81703 0.10932
H_ H_ 0.182105 0.644643 0.685383 0.10932
H_ H_ 0.414473 0.633917 0.6958 0.10932
H_ H_ 0.192427 0.652064 0.816832 0.10932
H_ H_ 0.448271 0.662441 0.816961 0.10932
H_ H_ 0.215263 0.584219 0.682605 0.10932
H_ H_ 0.446632 0.570293 0.690197 0.10932
H_ H_ 0.0281763 0.595712 0.676467 0.10932
H_ H_ 0.276682 0.599543 0.677529 0.10932
H_ H_ 0.0591485 0.647369 0.817941 0.10932
H_ H_ 0.313312 0.651087 0.816589 0.10932
H_ H_ 0.0593736 0.654877 0.680047 0.10932
H_ H_ 0.311993 0.658509 0.678437 0.10932
H_ H_ 0.0393151 0.573515 0.810802 0.10932
H_ H_ 0.292773 0.578869 0.810921 0.10932
H_ H_ 0.124488 0.821197 0.850244 0.10932
H_ H_ 0.391414 0.818429 0.862166 0.10932
H_ H_ 0.12021 0.689795 0.858007 0.10932
H_ H_ 0.377117 0.690845 0.850022 0.10932
H_ H_ 0.122387 0.693848 0.93773 0.10932
H_ H_ 0.370768 0.683407 0.925957 0.10932
H_ H_ 0.119368 0.82812 0.926228 0.10932
H_ H_ 0.392554 0.807779 0.939499 0.10932
H_ H_ 0.142974 0.690251 0.645828 0.10932
H_ H_ 0.38012 0.822276 0.642265 0.10932
H_ H_ 0.115719 0.817036 0.639448 0.10932
H_ H_ 0.375963 0.692059 0.639377 0.10932
H_ H_ 0.122401 0.814815 0.561524 0.10932
H_ H_ 0.37307 0.692161 0.562228 0.10932
H_ H_ 0.13681 0.681293 0.57073 0.10932
H_ H_ 0.367245 0.82594 0.564117 0.10932
C_ C_ 0.0645793 0.849249 0.749238 -0.02249
C_ C_ 0.317251 0.851329 0.74698 -0.02249
C_ C_ 0.0174601 0.966671 0.75272 -0.02249
C_ C_ 0.262202 0.965556 0.741872 -0.02249
C_ C_ 0.0368649 0.906014 0.711407 -0.11473
C_ C_ 0.290114 0.907087 0.706698 -0.11473
C_ C_ 0.0592962 0.87084 0.787872 -0.11473
C_ C_ 0.307646 0.873062 0.783463 -0.11473
C_ C_ 0.0532102 0.867947 0.711008 -0.11473
C_ C_ 0.307744 0.869133 0.707212 -0.11473
C_ C_ 0.0354917 0.927217 0.74941 -0.02249
C_ C_ 0.280388 0.924778 0.742415 -0.02249
C_ C_ 0.0847529 0.810901 0.749173 0.6875
C_ C_ 0.336598 0.814771 0.747157 0.6875
C_ C_ 0.0417268 0.906522 0.787754 -0.11473
C_ C_ 0.288251 0.907339 0.781328 -0.11473
C_ C_ 0.184287 0.848845 0.751808 -0.02249
C_ C_ 0.434253 0.854526 0.746338 -0.02249
C_ C_ 0.232238 0.966992 0.750282 -0.02249
C_ C_ 0.486983 0.965658 0.742806 -0.02249
C_ C_ 0.203171 0.909887 0.788073 -0.11473
C_ C_ 0.457398 0.913141 0.783398 -0.11473
C_ C_ 0.193731 0.867595 0.712627 -0.11473
C_ C_ 0.444902 0.868012 0.708623 -0.11473
C_ C_ 0.187613 0.873192 0.788383 -0.11473
C_ C_ 0.437707 0.880025 0.783904 -0.11473
C_ C_ 0.214394 0.926168 0.75093 -0.02249
C_ C_ 0.468777 0.927265 0.744582 -0.02249
C_ C_ 0.164708 0.811324 0.748835 0.6875
C_ C_ 0.413961 0.816437 0.748409 0.6875
C_ C_ 0.213295 0.901677 0.714172 -0.11473
C_ C_ 0.462077 0.90366 0.707039 -0.11473
C_ C_ 0.183041 0.651017 0.751679 -0.02249
C_ C_ 0.432008 0.654313 0.754808 -0.02249
C_ C_ 0.237652 0.538676 0.750053 -0.02249
C_ C_ 0.483852 0.542032 0.753498 -0.02249
C_ C_ 0.212413 0.597739 0.788765 -0.11473
C_ C_ 0.467091 0.608535 0.788786 -0.11473
C_ C_ 0.189854 0.630503 0.713424 -0.11473
C_ C_ 0.431325 0.630246 0.71849 -0.11473
C_ C_ 0.194423 0.633613 0.788816 -0.11473
C_ C_ 0.448463 0.642574 0.789701 -0.11473
C_ C_ 0.218638 0.576889 0.751028 -0.02249
C_ C_ 0.468617 0.582976 0.751408 -0.02249
C_ C_ 0.165578 0.690247 0.751388 0.6875
C_ C_ 0.415315 0.692912 0.753342 0.6875
C_ C_ 0.205705 0.593592 0.712787 -0.11473
C_ C_ 0.449277 0.59323 0.716842 -0.11473
C_ C_ 0.0654261 0.653828 0.749769 -0.02249
C_ C_ 0.317262 0.65921 0.747413 -0.02249
C_ C_ 0.0175954 0.539693 0.739634 -0.02249
C_ C_ 0.268948 0.542427 0.740699 -0.02249
C_ C_ 0.0380751 0.604045 0.706687 -0.11473
C_ C_ 0.289628 0.60514 0.706479 -0.11473
C_ C_ 0.0560107 0.633166 0.787856 -0.11473
C_ C_ 0.306309 0.639917 0.784677 -0.11473
C_ C_ 0.0545331 0.640507 0.709747 -0.11473
C_ C_ 0.306481 0.641984 0.709624 -0.11473
C_ C_ 0.033018 0.579442 0.743784 -0.02249
C_ C_ 0.285222 0.582298 0.743636 -0.02249
C_ C_ 0.0883112 0.687613 0.750868 0.6875
C_ C_ 0.338475 0.694016 0.748888 0.6875
C_ C_ 0.0427439 0.592904 0.783852 -0.11473
C_ C_ 0.293288 0.599504 0.782485 -0.11473
C_ C_ 0.125138 0.792102 0.869084 0.17695
C_ C_ 0.384611 0.788388 0.875981 0.17695
C_ C_ 0.128095 0.720082 0.875062 0.17695
C_ C_ 0.376016 0.716587 0.869167 0.17695
C_ C_ 0.12329 0.723004 0.919239 -0.11473
C_ C_ 0.377309 0.712457 0.913068 -0.11473
C_ C_ 0.12448 0.762524 0.939157 0.23465
C_ C_ 0.380534 0.747149 0.938779 0.23465
C_ C_ 0.123741 0.796656 0.914758 -0.11473
C_ C_ 0.385422 0.785202 0.920008 -0.11473
C_ C_ 0.131419 0.715464 0.628349 0.17695
C_ C_ 0.376849 0.794839 0.624821 0.17695
C_ C_ 0.118991 0.78699 0.62311 0.17695
C_ C_ 0.373225 0.721733 0.623464 0.17695
C_ C_ 0.122062 0.785681 0.578807 -0.11473
C_ C_ 0.372456 0.721659 0.579555 -0.11473
C_ C_ 0.126674 0.747476 0.557892 0.23465
C_ C_ 0.37324 0.759236 0.558715 0.23465
C_ C_ 0.131112 0.711237 0.584208 -0.11473
C_ C_ 0.372421 0.796452 0.581393 -0.11473
C_ C_ 0.0328635 0.00335745 0.755133 0.05793
C_ C_ 0.278115 0.00226291 0.736558 0.05793
C_ C_ 0.222488 0.501942 0.750283 0.05793
C_ C_ 0.469087 0.505605 0.762264 0.05793
Br Br 0.0763111 0.00526146 0.755045 -0.17191
Br Br 0.319682 0.00265068 0.72113 -0.17191
Br Br 0.17797 0.498488 0.753043 -0.17191
Br Br 0.426622 0.504774 0.778947 -0.17191
N_ N_ 0.128707 0.754788 0.851891 -0.272
N_ N_ 0.379142 0.754928 0.852195 -0.272
N_ N_ 0.125535 0.7672 0.985778 -0.12501
N_ N_ 0.373113 0.74206 0.982135 -0.12501
N_ N_ 0.126759 0.752808 0.645811 -0.272
N_ N_ 0.376669 0.7588 0.64506 -0.272
N_ N_ 0.123217 0.742438 0.512873 -0.12501
N_ N_ 0.369067 0.761056 0.51476 -0.12501
O_ O_ 0.0937024 0.795799 0.714598 -0.60745
O_ O_ 0.346322 0.80058 0.712916 -0.60745
O_ O_ 0.0941374 0.794176 0.783579 -0.60745
O_ O_ 0.343975 0.797169 0.780899 -0.60745
O_ O_ 0.157435 0.794834 0.782594 -0.60745
O_ O_ 0.405946 0.801426 0.783104 -0.60745
O_ O_ 0.155018 0.799087 0.713612 -0.60745
O_ O_ 0.406173 0.800424 0.713862 -0.60745
O_ O_ 0.156159 0.706393 0.784608 -0.60745
O_ O_ 0.407074 0.710632 0.786048 -0.60745
O_ O_ 0.158938 0.707808 0.716664 -0.60745
O_ O_ 0.406939 0.70755 0.718563 -0.60745
O_ O_ 0.0980084 0.702642 0.717944 -0.60745
O_ O_ 0.347794 0.710421 0.717263 -0.60745
O_ O_ 0.0957359 0.704202 0.786323 -0.60745
O_ O_ 0.348421 0.705169 0.783477 -0.60745
Zn Zn 0.627374 0.248004 0.288286 0.9476
Zn Zn 0.874872 0.2495 0.286417 0.9476
Zn Zn 0.628229 0.248645 0.217998 0.9476
Zn Zn 0.870825 0.245942 0.214291 0.9476
H_ H_ 0.521488 0.401863 0.183163 0.10932
H_ H_ 0.770136 0.403399 0.177358 0.10932
H_ H_ 0.576084 0.357597 0.312558 0.10932
H_ H_ 0.830495 0.368007 0.304889 0.10932
H_ H_ 0.542669 0.333025 0.189016 0.10932
H_ H_ 0.79859 0.339033 0.181488 0.10932
H_ H_ 0.550675 0.426187 0.311598 0.10932
H_ H_ 0.799915 0.429619 0.305403 0.10932
H_ H_ 0.734335 0.402519 0.304467 0.10932
H_ H_ 0.962565 0.417351 0.315361 0.10932
H_ H_ 0.663641 0.366614 0.186153 0.10932
H_ H_ 0.94021 0.347315 0.17818 0.10932
H_ H_ 0.703375 0.341463 0.309879 0.10932
H_ H_ 0.935749 0.348922 0.316991 0.10932
H_ H_ 0.692574 0.431825 0.182326 0.10932
H_ H_ 0.965002 0.412976 0.176104 0.10932
H_ H_ 0.708653 0.0692566 0.322419 0.10932
H_ H_ 0.966469 0.0824191 0.32514 0.10932
H_ H_ 0.701263 0.158343 0.195278 0.10932
H_ H_ 0.924629 0.134755 0.188428 0.10932
H_ H_ 0.68418 0.142078 0.324888 0.10932
H_ H_ 0.949065 0.156937 0.319367 0.10932
H_ H_ 0.728169 0.0868702 0.192415 0.10932
H_ H_ 0.947662 0.0677787 0.193694 0.10932
H_ H_ 0.549565 0.0698237 0.192103 0.10932
H_ H_ 0.79695 0.0636037 0.194342 0.10932
H_ H_ 0.554391 0.159746 0.317453 0.10932
H_ H_ 0.805339 0.152573 0.317825 0.10932
H_ H_ 0.587366 0.125462 0.197305 0.10932
H_ H_ 0.823433 0.131419 0.187842 0.10932
H_ H_ 0.516231 0.103202 0.309136 0.10932
H_ H_ 0.774348 0.0867415 0.320005 0.10932
H_ H_ 0.63125 0.192943 0.366303 0.10932
H_ H_ 0.882845 0.192618 0.363796 0.10932
H_ H_ 0.634398 0.323719 0.350729 0.10932
H_ H_ 0.862267 0.315528 0.355558 0.10932
H_ H_ 0.63667 0.333236 0.431212 0.10932
H_ H_ 0.862281 0.326589 0.430479 0.10932
H_ H_ 0.619672 0.200144 0.442922 0.10932
H_ H_ 0.884783 0.195815 0.441832 0.10932
H_ H_ 0.615103 0.178992 0.14528 0.10932
H_ H_ 0.915423 0.272834 0.139686 0.10932
H_ H_ 0.641027 0.305082 0.140998 0.10932
H_ H_ 0.827897 0.225144 0.138302 0.10932
H_ H_ 0.63969 0.306032 0.0644294 0.10932
H_ H_ 0.824127 0.226475 0.0604566 0.10932
H_ H_ 0.624436 0.173137 0.0662687 0.10932
H_ H_ 0.912467 0.278942 0.0637361 0.10932
C_ C_ 0.564165 0.341022 0.248563 -0.02249
C_ C_ 0.814889 0.346633 0.243312 -0.02249
C_ C_ 0.515285 0.4579 0.249589 -0.02249
C_ C_ 0.763165 0.461389 0.240462 -0.02249
C_ C_ 0.534292 0.394352 0.210602 -0.11473
C_ C_ 0.778319 0.393222 0.208519 -0.11473
C_ C_ 0.563705 0.366536 0.28468 -0.11473
C_ C_ 0.814866 0.372937 0.279569 -0.11473
C_ C_ 0.545719 0.354201 0.214346 -0.11473
C_ C_ 0.796928 0.358178 0.207847 -0.11473
C_ C_ 0.534084 0.419971 0.245589 -0.02249
C_ C_ 0.780931 0.421719 0.241802 -0.02249
C_ C_ 0.581497 0.30198 0.247966 0.6875
C_ C_ 0.833745 0.309341 0.245097 0.6875
C_ C_ 0.549025 0.405867 0.284148 -0.11473
C_ C_ 0.799865 0.411714 0.275929 -0.11473
C_ C_ 0.682948 0.3491 0.24674 -0.02249
C_ C_ 0.934148 0.34405 0.24808 -0.02249
C_ C_ 0.731804 0.461234 0.243785 -0.02249
C_ C_ 0.983055 0.460159 0.246827 -0.02249
C_ C_ 0.717652 0.397192 0.280362 -0.11473
C_ C_ 0.958442 0.400898 0.285193 -0.11473
C_ C_ 0.681604 0.373626 0.210858 -0.11473
C_ C_ 0.944861 0.361013 0.209646 -0.11473
C_ C_ 0.701753 0.360292 0.28105 -0.11473
C_ C_ 0.941921 0.364269 0.286157 -0.11473
C_ C_ 0.715138 0.423534 0.245293 -0.02249
C_ C_ 0.966073 0.419472 0.246351 -0.02249
C_ C_ 0.666509 0.308684 0.24688 0.6875
C_ C_ 0.915037 0.305324 0.24855 0.6875
C_ C_ 0.697677 0.411104 0.208642 -0.11473
C_ C_ 0.958458 0.399344 0.208811 -0.11473
C_ C_ 0.68845 0.150735 0.25709 -0.02249
C_ C_ 0.92986 0.148692 0.255886 -0.02249
C_ C_ 0.735089 0.0330002 0.25542 -0.02249
C_ C_ 0.979866 0.031642 0.260316 -0.02249
C_ C_ 0.706265 0.0887953 0.294151 -0.11473
C_ C_ 0.959341 0.0957593 0.29464 -0.11473
C_ C_ 0.704396 0.138795 0.22147 -0.11473
C_ C_ 0.931201 0.122808 0.219532 -0.11473
C_ C_ 0.692894 0.128992 0.296167 -0.11473
C_ C_ 0.946352 0.136059 0.292486 -0.11473
C_ C_ 0.719858 0.0751054 0.257296 -0.02249
C_ C_ 0.961588 0.0714695 0.258207 -0.02249
C_ C_ 0.667749 0.187053 0.255299 0.6875
C_ C_ 0.91441 0.189787 0.254287 0.6875
C_ C_ 0.717078 0.0997705 0.220424 -0.11473
C_ C_ 0.945567 0.0847685 0.221949 -0.11473
C_ C_ 0.572583 0.149432 0.256329 -0.02249
C_ C_ 0.817281 0.145347 0.252842 -0.02249
C_ C_ 0.515486 0.0390237 0.252127 -0.02249
C_ C_ 0.767185 0.0288161 0.254859 -0.02249
C_ C_ 0.551211 0.0872179 0.220827 -0.11473
C_ C_ 0.799998 0.0816884 0.220721 -0.11473
C_ C_ 0.553446 0.140351 0.2888 -0.11473
C_ C_ 0.804968 0.130801 0.291067 -0.11473
C_ C_ 0.571535 0.12179 0.222243 -0.11473
C_ C_ 0.815183 0.120277 0.217651 -0.11473
C_ C_ 0.532997 0.0777091 0.254508 -0.02249
C_ C_ 0.785796 0.0679443 0.256656 -0.02249
C_ C_ 0.589131 0.188831 0.257935 0.6875
C_ C_ 0.833241 0.186806 0.251704 0.6875
C_ C_ 0.534177 0.105916 0.289356 -0.11473
C_ C_ 0.787883 0.0929822 0.291496 -0.11473
C_ C_ 0.628923 0.2223 0.37941 0.17695
C_ C_ 0.878606 0.220477 0.380394 0.17695
C_ C_ 0.631753 0.29754 0.374597 0.17695
C_ C_ 0.867373 0.290636 0.374724 0.17695
C_ C_ 0.633582 0.302817 0.4189 -0.11473
C_ C_ 0.868319 0.296483 0.418272 -0.11473
C_ C_ 0.632156 0.265428 0.443719 0.23465
C_ C_ 0.875918 0.262001 0.444863 0.23465
C_ C_ 0.628041 0.22596 0.423941 -0.11473
C_ C_ 0.881383 0.224496 0.424493 -0.11473
C_ C_ 0.621724 0.205721 0.125352 0.17695
C_ C_ 0.894655 0.264667 0.124154 0.17695
C_ C_ 0.632402 0.279032 0.123655 0.17695
C_ C_ 0.845853 0.233411 0.12164 0.17695
C_ C_ 0.633224 0.277671 0.0798201 -0.11473
C_ C_ 0.845193 0.235118 0.0775259 -0.11473
C_ C_ 0.631524 0.239492 0.0604667 0.23465
C_ C_ 0.868393 0.253842 0.0560109 0.23465
C_ C_ 0.625325 0.202793 0.082599 -0.11473
C_ C_ 0.893337 0.268666 0.0799583 -0.11473
C_ C_ 0.530364 0.496114 0.244081 0.05793
C_ C_ 0.7783 0.498879 0.236055 0.05793
C_ C_ 0.716858 0.996204 0.256814 0.05793
C_ C_ 0.963618 0.993233 0.256804 0.05793
Br Br 0.572437 0.500934 0.230732 -0.17191
Br Br 0.818634 0.502984 0.210229 -0.17191
Br Br 0.674367 -5.80455e-05 0.266904 -0.17191
Br Br 0.922058 -0.007780000000000009 0.266606 -0.17191
N_ N_ 0.63007 0.258078 0.357128 -0.272
N_ N_ 0.874927 0.254249 0.357567 -0.272
N_ N_ 0.632749 0.269999 0.487978 -0.12501
N_ N_ 0.86763 0.263147 0.489006 -0.12501
N_ N_ 0.622852 0.243879 0.14463 -0.272
N_ N_ 0.870623 0.248504 0.143614 -0.272
N_ N_ 0.6363 0.237249 0.0154588 -0.12501
N_ N_ 0.86582 0.25957 0.0109366 -0.12501
O_ O_ 0.597088 0.292188 0.214606 -0.60745
O_ O_ 0.839113 0.2896 0.21173 -0.60745
O_ O_ 0.590513 0.285919 0.283456 -0.60745
O_ O_ 0.841402 0.294342 0.280624 -0.60745
O_ O_ 0.654679 0.29698 0.281341 -0.60745
O_ O_ 0.906839 0.291733 0.282818 -0.60745
O_ O_ 0.660762 0.290808 0.212472 -0.60745
O_ O_ 0.900993 0.29283 0.214796 -0.60745
O_ O_ 0.6608 0.206864 0.289253 -0.60745
O_ O_ 0.903986 0.203784 0.288852 -0.60745
O_ O_ 0.658576 0.20111 0.220355 -0.60745
O_ O_ 0.905736 0.205482 0.219673 -0.60745
O_ O_ 0.595174 0.207217 0.223855 -0.60745
O_ O_ 0.839065 0.204276 0.217535 -0.60745
O_ O_ 0.60037 0.20079 0.29266 -0.60745
O_ O_ 0.845093 0.20269 0.284407 -0.60745
Zn Zn 0.626468 0.254886 0.789129 0.9476
Zn Zn 0.879107 0.254635 0.784341 0.9476
Zn Zn 0.628717 0.257642 0.720474 0.9476
Zn Zn 0.873456 0.250242 0.717255 0.9476
H_ H_ 0.521835 0.405051 0.684365 0.10932
H_ H_ 0.78022 0.4135 0.691207 0.10932
H_ H_ 0.579619 0.369822 0.820086 0.10932
H_ H_ 0.820253 0.351387 0.819974 0.10932
H_ H_ 0.550601 0.341203 0.688704 0.10932
H_ H_ 0.809777 0.349914 0.683802 0.10932
H_ H_ 0.546328 0.432139 0.817419 0.10932
H_ H_ 0.79641 0.42089 0.822873 0.10932
H_ H_ 0.731661 0.414839 0.818277 0.10932
H_ H_ 0.98191 0.409 0.80521 0.10932
H_ H_ 0.675338 0.370014 0.689789 0.10932
H_ H_ 0.922707 0.365623 0.68541 0.10932
H_ H_ 0.703813 0.345888 0.82003 0.10932
H_ H_ 0.95944 0.33797 0.804941 0.10932
H_ H_ 0.714934 0.421504 0.686631 0.10932
H_ H_ 0.955956 0.421661 0.675401 0.10932
H_ H_ 0.734206 0.101566 0.822853 0.10932
H_ H_ 0.973008 0.0993592 0.817714 0.10932
H_ H_ 0.668776 0.138439 0.70168 0.10932
H_ H_ 0.922638 0.138544 0.686292 0.10932
H_ H_ 0.700392 0.159947 0.825403 0.10932
H_ H_ 0.936538 0.152544 0.819453 0.10932
H_ H_ 0.69588 0.070422 0.699113 0.10932
H_ H_ 0.955599 0.0757513 0.690132 0.10932
H_ H_ 0.539763 0.0886849 0.68221 0.10932
H_ H_ 0.776215 0.0887344 0.689797 0.10932
H_ H_ 0.569233 0.150578 0.816855 0.10932
H_ H_ 0.829854 0.136611 0.816979 0.10932
H_ H_ 0.568415 0.155049 0.681434 0.10932
H_ H_ 0.807216 0.154264 0.684995 0.10932
H_ H_ 0.542656 0.0798434 0.814735 0.10932
H_ H_ 0.800847 0.0718061 0.817326 0.10932
H_ H_ 0.61936 0.322515 0.860661 0.10932
H_ H_ 0.920859 0.287162 0.855192 0.10932
H_ H_ 0.636202 0.190622 0.866207 0.10932
H_ H_ 0.835121 0.229089 0.859812 0.10932
H_ H_ 0.632151 0.191864 0.945503 0.10932
H_ H_ 0.8388 0.2288 0.938304 0.10932
H_ H_ 0.613972 0.321428 0.938244 0.10932
H_ H_ 0.924883 0.289297 0.932262 0.10932
H_ H_ 0.637361 0.324709 0.635302 0.10932
H_ H_ 0.873482 0.309647 0.642726 0.10932
H_ H_ 0.625392 0.191974 0.652518 0.10932
H_ H_ 0.870079 0.179225 0.646957 0.10932
H_ H_ 0.621476 0.185331 0.57165 0.10932
H_ H_ 0.864818 0.173452 0.56428 0.10932
H_ H_ 0.63318 0.316574 0.556469 0.10932
H_ H_ 0.879651 0.305583 0.563849 0.10932
C_ C_ 0.563689 0.348716 0.754884 -0.02249
C_ C_ 0.814269 0.344413 0.752048 -0.02249
C_ C_ 0.51584 0.465121 0.748777 -0.02249
C_ C_ 0.768341 0.464045 0.759655 -0.02249
C_ C_ 0.533359 0.398111 0.714239 -0.11473
C_ C_ 0.786415 0.400002 0.718892 -0.11473
C_ C_ 0.564444 0.374671 0.790915 -0.11473
C_ C_ 0.811104 0.364607 0.790699 -0.11473
C_ C_ 0.549582 0.361556 0.716823 -0.11473
C_ C_ 0.804164 0.3637 0.71477 -0.11473
C_ C_ 0.531767 0.424815 0.750077 -0.02249
C_ C_ 0.784732 0.421749 0.757548 -0.02249
C_ C_ 0.587006 0.314589 0.752245 0.6875
C_ C_ 0.836898 0.31048 0.751373 0.6875
C_ C_ 0.54784 0.412223 0.787697 -0.11473
C_ C_ 0.797702 0.403304 0.794254 -0.11473
C_ C_ 0.687823 0.353247 0.756362 -0.02249
C_ C_ 0.938194 0.346682 0.743507 -0.02249
C_ C_ 0.737328 0.465313 0.753608 -0.02249
C_ C_ 0.98811 0.46228 0.737808 -0.02249
C_ C_ 0.718544 0.4035 0.792611 -0.11473
C_ C_ 0.973227 0.395304 0.775909 -0.11473
C_ C_ 0.690146 0.375547 0.718668 -0.11473
C_ C_ 0.942944 0.366762 0.705068 -0.11473
C_ C_ 0.703492 0.366176 0.792427 -0.11473
C_ C_ 0.95539 0.359645 0.778979 -0.11473
C_ C_ 0.720013 0.426166 0.754198 -0.02249
C_ C_ 0.97304 0.419998 0.739236 -0.02249
C_ C_ 0.669133 0.31388 0.756543 0.6875
C_ C_ 0.916312 0.311438 0.746728 0.6875
C_ C_ 0.707846 0.409791 0.717439 -0.11473
C_ C_ 0.960005 0.402955 0.703202 -0.11473
C_ C_ 0.687407 0.158267 0.759597 -0.02249
C_ C_ 0.930627 0.152142 0.750867 -0.02249
C_ C_ 0.733922 0.0394411 0.758364 -0.02249
C_ C_ 0.985787 0.0410933 0.754891 -0.02249
C_ C_ 0.717757 0.106576 0.797073 -0.11473
C_ C_ 0.963393 0.105626 0.79014 -0.11473
C_ C_ 0.683864 0.130092 0.726441 -0.11473
C_ C_ 0.93422 0.129213 0.715241 -0.11473
C_ C_ 0.702129 0.142942 0.796043 -0.11473
C_ C_ 0.944387 0.14 0.788877 -0.11473
C_ C_ 0.716179 0.0796582 0.761758 -0.02249
C_ C_ 0.967463 0.0813969 0.755524 -0.02249
C_ C_ 0.668939 0.196672 0.759752 0.6875
C_ C_ 0.911735 0.189442 0.751052 0.6875
C_ C_ 0.700055 0.0930505 0.725311 -0.11473
C_ C_ 0.951792 0.0928369 0.717833 -0.11473
C_ C_ 0.57235 0.156078 0.750554 -0.02249
C_ C_ 0.817852 0.153805 0.7531 -0.02249
C_ C_ 0.52145 0.0380183 0.748963 -0.02249
C_ C_ 0.766006 0.0403709 0.75343 -0.02249
C_ C_ 0.54998 0.098949 0.712043 -0.11473
C_ C_ 0.787661 0.10037 0.71658 -0.11473
C_ C_ 0.562921 0.135599 0.786637 -0.11473
C_ C_ 0.814355 0.130983 0.79089 -0.11473
C_ C_ 0.562844 0.13855 0.711402 -0.11473
C_ C_ 0.806604 0.135793 0.71452 -0.11473
C_ C_ 0.540194 0.0786979 0.748062 -0.02249
C_ C_ 0.78271 0.0812033 0.755617 -0.02249
C_ C_ 0.589172 0.194853 0.751815 0.6875
C_ C_ 0.837182 0.191911 0.752959 0.6875
C_ C_ 0.546668 0.097691 0.785706 -0.11473
C_ C_ 0.798238 0.0933517 0.790543 -0.11473
C_ C_ 0.622802 0.293025 0.879579 0.17695
C_ C_ 0.903401 0.272928 0.874648 0.17695
C_ C_ 0.63081 0.219615 0.882806 0.17695
C_ C_ 0.855634 0.241682 0.877191 0.17695
C_ C_ 0.627792 0.219747 0.926194 -0.11473
C_ C_ 0.857249 0.243331 0.921178 -0.11473
C_ C_ 0.624644 0.257255 0.946459 0.23465
C_ C_ 0.882537 0.259586 0.943094 0.23465
C_ C_ 0.619944 0.293678 0.92298 -0.11473
C_ C_ 0.904321 0.277183 0.918877 -0.11473
C_ C_ 0.632834 0.294103 0.621769 0.17695
C_ C_ 0.873123 0.280335 0.62535 0.17695
C_ C_ 0.626317 0.219958 0.630868 0.17695
C_ C_ 0.867589 0.206102 0.626102 0.17695
C_ C_ 0.628127 0.213838 0.586063 -0.11473
C_ C_ 0.868333 0.201998 0.581794 -0.11473
C_ C_ 0.630456 0.248273 0.558881 0.23465
C_ C_ 0.872095 0.239843 0.557536 0.23465
C_ C_ 0.633717 0.288238 0.577048 -0.11473
C_ C_ 0.873576 0.277569 0.579638 -0.11473
C_ C_ 0.529807 0.502851 0.740422 0.05793
C_ C_ 0.784006 0.500674 0.76166 0.05793
C_ C_ 0.719446 0.000119265 0.761041 0.05793
C_ C_ 0.969241 0.00210923 0.756019 0.05793
Br Br 0.570269 0.503766 0.721285 -0.17191
Br Br 0.825784 0.503141 0.763575 -0.17191
Br Br 0.677044 -0.0002609999999999557 0.772207 -0.17191
Br Br 0.926196 -0.0014560000000000128 0.766492 -0.17191
N_ N_ 0.628178 0.255994 0.860254 -0.272
N_ N_ 0.879465 0.254644 0.855394 -0.272
N_ N_ 0.62035 0.258326 0.991094 -0.12501
N_ N_ 0.887191 0.257627 0.986559 -0.12501
N_ N_ 0.630236 0.259083 0.647109 -0.272
N_ N_ 0.870919 0.243622 0.645831 -0.272
N_ N_ 0.628757 0.242073 0.514443 -0.12501
N_ N_ 0.878201 0.238348 0.514171 -0.12501
O_ O_ 0.599898 0.305222 0.718577 -0.60745
O_ O_ 0.846776 0.298878 0.715434 -0.60745
O_ O_ 0.593883 0.294469 0.785466 -0.60745
O_ O_ 0.850493 0.296937 0.783451 -0.60745
O_ O_ 0.655267 0.303768 0.79031 -0.60745
O_ O_ 0.907905 0.298863 0.782722 -0.60745
O_ O_ 0.660502 0.299082 0.722282 -0.60745
O_ O_ 0.906854 0.291566 0.712956 -0.60745
O_ O_ 0.660403 0.211934 0.795219 -0.60745
O_ O_ 0.909171 0.20969 0.783633 -0.60745
O_ O_ 0.658503 0.211201 0.724829 -0.60745
O_ O_ 0.900323 0.201831 0.717888 -0.60745
O_ O_ 0.597836 0.212889 0.719515 -0.60745
O_ O_ 0.840018 0.212114 0.718642 -0.60745
O_ O_ 0.59686 0.208031 0.788186 -0.60745
O_ O_ 0.847901 0.206507 0.786685 -0.60745
Zn Zn 0.620962 0.747314 0.294112 0.9476
Zn Zn 0.874194 0.743246 0.286562 0.9476
Zn Zn 0.617303 0.747458 0.223509 0.9476
Zn Zn 0.872154 0.745416 0.216702 0.9476
H_ H_ 0.533381 0.923006 0.193965 0.10932
H_ H_ 0.782721 0.915126 0.18642 0.10932
H_ H_ 0.566361 0.856379 0.329411 0.10932
H_ H_ 0.816655 0.843901 0.314506 0.10932
H_ H_ 0.557649 0.853427 0.192933 0.10932
H_ H_ 0.803409 0.84673 0.182995 0.10932
H_ H_ 0.542857 0.927749 0.328283 0.10932
H_ H_ 0.782289 0.901849 0.321085 0.10932
H_ H_ 0.70437 0.918628 0.328261 0.10932
H_ H_ 0.970877 0.904916 0.317119 0.10932
H_ H_ 0.685097 0.847977 0.192668 0.10932
H_ H_ 0.91736 0.859569 0.186693 0.10932
H_ H_ 0.685161 0.848746 0.327275 0.10932
H_ H_ 0.940084 0.84224 0.316569 0.10932
H_ H_ 0.706529 0.920081 0.195486 0.10932
H_ H_ 0.95101 0.919158 0.182782 0.10932
H_ H_ 0.724887 0.588695 0.313408 0.10932
H_ H_ 0.955989 0.567671 0.312933 0.10932
H_ H_ 0.666807 0.635923 0.188631 0.10932
H_ H_ 0.951603 0.66112 0.19451 0.10932
H_ H_ 0.694917 0.647984 0.318934 0.10932
H_ H_ 0.935716 0.640252 0.324589 0.10932
H_ H_ 0.692295 0.568855 0.189515 0.10932
H_ H_ 0.971943 0.593981 0.183207 0.10932
H_ H_ 0.52768 0.583781 0.188058 0.10932
H_ H_ 0.761449 0.602144 0.186727 0.10932
H_ H_ 0.562764 0.639493 0.325815 0.10932
H_ H_ 0.822274 0.63308 0.312652 0.10932
H_ H_ 0.549826 0.657885 0.19413 0.10932
H_ H_ 0.797645 0.659669 0.184508 0.10932
H_ H_ 0.537574 0.572672 0.325605 0.10932
H_ H_ 0.797724 0.563689 0.303397 0.10932
H_ H_ 0.618318 0.683961 0.363993 0.10932
H_ H_ 0.867398 0.80993 0.365718 0.10932
H_ H_ 0.635255 0.811783 0.374068 0.10932
H_ H_ 0.863624 0.679618 0.360868 0.10932
H_ H_ 0.637388 0.805956 0.453353 0.10932
H_ H_ 0.867941 0.674705 0.436398 0.10932
H_ H_ 0.619557 0.676001 0.441698 0.10932
H_ H_ 0.871772 0.805262 0.443734 0.10932
H_ H_ 0.616516 0.67843 0.150657 0.10932
H_ H_ 0.886434 0.675683 0.152478 0.10932
H_ H_ 0.624261 0.808843 0.146792 0.10932
H_ H_ 0.872337 0.808901 0.143259 0.10932
H_ H_ 0.642945 0.804955 0.0735568 0.10932
H_ H_ 0.875394 0.801195 0.0653843 0.10932
H_ H_ 0.620393 0.673966 0.0724741 0.10932
H_ H_ 0.892163 0.670766 0.0720867 0.10932
C_ C_ 0.567078 0.852281 0.262019 -0.02249
C_ C_ 0.807942 0.83622 0.249599 -0.02249
C_ C_ 0.515994 0.964927 0.25904 -0.02249
C_ C_ 0.761266 0.953417 0.260743 -0.02249
C_ C_ 0.539455 0.906023 0.222525 -0.11473
C_ C_ 0.783385 0.895778 0.214098 -0.11473
C_ C_ 0.559773 0.871293 0.299882 -0.11473
C_ C_ 0.802729 0.852806 0.287414 -0.11473
C_ C_ 0.556171 0.871757 0.223339 -0.11473
C_ C_ 0.800661 0.859954 0.213813 -0.11473
C_ C_ 0.532698 0.925489 0.260962 -0.02249
C_ C_ 0.775165 0.911194 0.254316 -0.02249
C_ C_ 0.582388 0.81115 0.260389 0.6875
C_ C_ 0.832025 0.804021 0.246687 0.6875
C_ C_ 0.54372 0.909564 0.298626 -0.11473
C_ C_ 0.786884 0.889814 0.290555 -0.11473
C_ C_ 0.681333 0.844006 0.260519 -0.02249
C_ C_ 0.926381 0.847027 0.250932 -0.02249
C_ C_ 0.728782 0.958202 0.260768 -0.02249
C_ C_ 0.980003 0.957101 0.250938 -0.02249
C_ C_ 0.705594 0.901998 0.298729 -0.11473
C_ C_ 0.957887 0.89642 0.289022 -0.11473
C_ C_ 0.689949 0.864297 0.222601 -0.11473
C_ C_ 0.92885 0.871135 0.214854 -0.11473
C_ C_ 0.690874 0.86294 0.298298 -0.11473
C_ C_ 0.94147 0.859875 0.287779 -0.11473
C_ C_ 0.709632 0.921759 0.260806 -0.02249
C_ C_ 0.964669 0.916939 0.250731 -0.02249
C_ C_ 0.662194 0.804694 0.261116 0.6875
C_ C_ 0.909926 0.806449 0.252597 0.6875
C_ C_ 0.704047 0.902985 0.223937 -0.11473
C_ C_ 0.949646 0.903474 0.214655 -0.11473
C_ C_ 0.679791 0.648424 0.252468 -0.02249
C_ C_ 0.934721 0.650776 0.256967 -0.02249
C_ C_ 0.731216 0.53677 0.247404 -0.02249
C_ C_ 0.983005 0.535947 0.245566 -0.02249
C_ C_ 0.714064 0.600443 0.285426 -0.11473
C_ C_ 0.956188 0.58963 0.288745 -0.11473
C_ C_ 0.680916 0.626998 0.214423 -0.11473
C_ C_ 0.949334 0.639308 0.217877 -0.11473
C_ C_ 0.696915 0.635912 0.288861 -0.11473
C_ C_ 0.941416 0.626916 0.294513 -0.11473
C_ C_ 0.71309 0.575325 0.249563 -0.02249
C_ C_ 0.967104 0.577637 0.248996 -0.02249
C_ C_ 0.658359 0.685939 0.255892 0.6875
C_ C_ 0.912897 0.685873 0.258563 0.6875
C_ C_ 0.697511 0.590337 0.214451 -0.11473
C_ C_ 0.96473 0.602878 0.214404 -0.11473
C_ C_ 0.556486 0.653981 0.260875 -0.02249
C_ C_ 0.813381 0.651058 0.249088 -0.02249
C_ C_ 0.514594 0.534086 0.249776 -0.02249
C_ C_ 0.76299 0.536685 0.240151 -0.02249
C_ C_ 0.534063 0.598113 0.21952 -0.11473
C_ C_ 0.780919 0.60262 0.208202 -0.11473
C_ C_ 0.553836 0.628439 0.296381 -0.11473
C_ C_ 0.810649 0.624113 0.283923 -0.11473
C_ C_ 0.545241 0.640213 0.221963 -0.11473
C_ C_ 0.797608 0.6384 0.210882 -0.11473
C_ C_ 0.52945 0.574429 0.255643 -0.02249
C_ C_ 0.780579 0.576894 0.24133 -0.02249
C_ C_ 0.578411 0.687849 0.263004 0.6875
C_ C_ 0.83417 0.686821 0.249042 0.6875
C_ C_ 0.539256 0.589936 0.294959 -0.11473
C_ C_ 0.795869 0.586949 0.278608 -0.11473
C_ C_ 0.61796 0.711656 0.382208 0.17695
C_ C_ 0.869246 0.779616 0.38113 0.17695
C_ C_ 0.62946 0.783375 0.38919 0.17695
C_ C_ 0.865463 0.707613 0.378097 0.17695
C_ C_ 0.627543 0.781397 0.433124 -0.11473
C_ C_ 0.870964 0.703161 0.421362 -0.11473
C_ C_ 0.621128 0.743673 0.451199 0.23465
C_ C_ 0.871438 0.737618 0.445742 0.23465
C_ C_ 0.617565 0.707658 0.426574 -0.11473
C_ C_ 0.871247 0.777256 0.425397 -0.11473
C_ C_ 0.618653 0.70616 0.132297 0.17695
C_ C_ 0.885368 0.7025 0.132703 0.17695
C_ C_ 0.626118 0.779604 0.130826 0.17695
C_ C_ 0.877391 0.776882 0.127651 0.17695
C_ C_ 0.634889 0.777583 0.0895644 -0.11473
C_ C_ 0.882148 0.775735 0.0840296 -0.11473
C_ C_ 0.627819 0.741505 0.0652155 0.23465
C_ C_ 0.888441 0.73739 0.0651455 0.23465
C_ C_ 0.621325 0.704684 0.0883132 -0.11473
C_ C_ 0.890719 0.700536 0.0886484 -0.11473
C_ C_ 0.531085 1.00221155 0.257447 0.05793
C_ C_ 0.781048 0.989623 0.260424 0.05793
C_ C_ 0.715857 0.498009 0.249013 0.05793
C_ C_ 0.968019 0.498403 0.250477 0.05793
Br Br 0.574857 1.00205549 0.263595 -0.17191
Br Br 0.822725 0.98248 0.253497 -0.17191
Br Br 0.673365 0.496461 0.254956 -0.17191
Br Br 0.923803 0.499262 0.246178 -0.17191
N_ N_ 0.62207 0.74978 0.364541 -0.272
N_ N_ 0.869583 0.744981 0.357232 -0.272
N_ N_ 0.624821 0.739156 0.495177 -0.12501
N_ N_ 0.876009 0.733418 0.491117 -0.12501
N_ N_ 0.618203 0.743061 0.15212 -0.272
N_ N_ 0.876838 0.740555 0.148468 -0.272
N_ N_ 0.635038 0.738783 0.0217873 -0.12501
N_ N_ 0.890576 0.734712 0.0197592 -0.12501
O_ O_ 0.586604 0.795327 0.224967 -0.60745
O_ O_ 0.841353 0.7929 0.211531 -0.60745
O_ O_ 0.591461 0.79444 0.292733 -0.60745
O_ O_ 0.83938 0.784941 0.279418 -0.60745
O_ O_ 0.651986 0.790989 0.294663 -0.60745
O_ O_ 0.902306 0.789524 0.286767 -0.60745
O_ O_ 0.652898 0.789889 0.226584 -0.60745
O_ O_ 0.904349 0.788289 0.218589 -0.60745
O_ O_ 0.651922 0.702363 0.290871 -0.60745
O_ O_ 0.907324 0.70155 0.292774 -0.60745
O_ O_ 0.64371 0.697537 0.223115 -0.60745
O_ O_ 0.90034 0.69885 0.224126 -0.60745
O_ O_ 0.583587 0.706666 0.228904 -0.60745
O_ O_ 0.840624 0.701413 0.215154 -0.60745
O_ O_ 0.588731 0.70338 0.298129 -0.60745
O_ O_ 0.847684 0.699768 0.28239 -0.60745
Zn Zn 0.62414 0.749377 0.792528 0.9476
Zn Zn 0.881151 0.748563 0.790658 0.9476
Zn Zn 0.625293 0.753606 0.721948 0.9476
Zn Zn 0.876931 0.751644 0.719711 0.9476
H_ H_ 0.525804 0.903774 0.687606 0.10932
H_ H_ 0.781523 0.913367 0.692461 0.10932
H_ H_ 0.576408 0.865621 0.822922 0.10932
H_ H_ 0.822253 0.859503 0.826489 0.10932
H_ H_ 0.548964 0.836678 0.695474 0.10932
H_ H_ 0.819633 0.859277 0.690568 0.10932
H_ H_ 0.540153 0.923483 0.823882 0.10932
H_ H_ 0.797703 0.926574 0.823269 0.10932
H_ H_ 0.726697 0.907698 0.828793 0.10932
H_ H_ 0.971131 0.918092 0.825307 0.10932
H_ H_ 0.68107 0.862187 0.693532 0.10932
H_ H_ 0.931612 0.857484 0.692353 0.10932
H_ H_ 0.686872 0.852837 0.826815 0.10932
H_ H_ 0.938881 0.859849 0.825361 0.10932
H_ H_ 0.711801 0.924587 0.694944 0.10932
H_ H_ 0.96281 0.92441 0.69275 0.10932
H_ H_ 0.722217 0.586508 0.820727 0.10932
H_ H_ 0.95945 0.566723 0.806547 0.10932
H_ H_ 0.68462 0.653831 0.691173 0.10932
H_ H_ 0.943548 0.656682 0.682572 0.10932
H_ H_ 0.690697 0.650534 0.820588 0.10932
H_ H_ 0.920451 0.619497 0.805137 0.10932
H_ H_ 0.721887 0.591352 0.688845 0.10932
H_ H_ 0.969625 0.591261 0.674655 0.10932
H_ H_ 0.519055 0.601913 0.686699 0.10932
H_ H_ 0.778043 0.592191 0.691229 0.10932
H_ H_ 0.579273 0.633298 0.818134 0.10932
H_ H_ 0.823179 0.647764 0.821935 0.10932
H_ H_ 0.555136 0.660164 0.68654 0.10932
H_ H_ 0.815905 0.642198 0.687806 0.10932
H_ H_ 0.546595 0.569921 0.814693 0.10932
H_ H_ 0.790862 0.584727 0.827747 0.10932
H_ H_ 0.633271 0.688667 0.865772 0.10932
H_ H_ 0.871563 0.684185 0.873891 0.10932
H_ H_ 0.620899 0.818128 0.864005 0.10932
H_ H_ 0.895796 0.808901 0.860412 0.10932
H_ H_ 0.609117 0.816961 0.937669 0.10932
H_ H_ 0.899327 0.819812 0.936975 0.10932
H_ H_ 0.630941 0.686154 0.942213 0.10932
H_ H_ 0.872462 0.693685 0.949816 0.10932
H_ H_ 0.61257 0.692435 0.646779 0.10932
H_ H_ 0.877355 0.818194 0.644315 0.10932
H_ H_ 0.633919 0.818376 0.652259 0.10932
H_ H_ 0.869941 0.689349 0.643718 0.10932
H_ H_ 0.627169 0.825149 0.577959 0.10932
H_ H_ 0.860887 0.689808 0.564433 0.10932
H_ H_ 0.604375 0.696008 0.570728 0.10932
H_ H_ 0.876984 0.820488 0.566252 0.10932
C_ C_ 0.565658 0.846913 0.760172 -0.02249
C_ C_ 0.820665 0.850548 0.757996 -0.02249
C_ C_ 0.517802 0.963594 0.749832 -0.02249
C_ C_ 0.76786 0.964667 0.760182 -0.02249
C_ C_ 0.537728 0.897171 0.716965 -0.11473
C_ C_ 0.788674 0.901247 0.720736 -0.11473
C_ C_ 0.561188 0.870348 0.796607 -0.11473
C_ C_ 0.816003 0.873041 0.796423 -0.11473
C_ C_ 0.548598 0.858116 0.722581 -0.11473
C_ C_ 0.8078 0.866984 0.720492 -0.11473
C_ C_ 0.535004 0.921886 0.753745 -0.02249
C_ C_ 0.786247 0.925309 0.758416 -0.02249
C_ C_ 0.58606 0.809706 0.759333 0.6875
C_ C_ 0.842448 0.814927 0.757309 0.6875
C_ C_ 0.54761 0.909682 0.793356 -0.11473
C_ C_ 0.799943 0.908993 0.795835 -0.11473
C_ C_ 0.682309 0.850756 0.760738 -0.02249
C_ C_ 0.935188 0.84991 0.758334 -0.02249
C_ C_ 0.736248 0.96265 0.764204 -0.02249
C_ C_ 0.986134 0.965412 0.757791 -0.02249
C_ C_ 0.714732 0.899658 0.7997 -0.11473
C_ C_ 0.96249 0.906095 0.796452 -0.11473
C_ C_ 0.688446 0.874135 0.723949 -0.11473
C_ C_ 0.943303 0.867751 0.721535 -0.11473
C_ C_ 0.695465 0.864859 0.79783 -0.11473
C_ C_ 0.944052 0.870573 0.79627 -0.11473
C_ C_ 0.719409 0.923991 0.763502 -0.02249
C_ C_ 0.970202 0.924591 0.758337 -0.02249
C_ C_ 0.663063 0.813392 0.75705 0.6875
C_ C_ 0.920079 0.80878 0.756599 0.6875
C_ C_ 0.705924 0.910455 0.725149 -0.11473
C_ C_ 0.957057 0.907544 0.72183 -0.11473
C_ C_ 0.680279 0.651301 0.756016 -0.02249
C_ C_ 0.93235 0.648839 0.748014 -0.02249
C_ C_ 0.736859 0.54003 0.755836 -0.02249
C_ C_ 0.985875 0.537765 0.738458 -0.02249
C_ C_ 0.713669 0.600249 0.791546 -0.11473
C_ C_ 0.957111 0.585779 0.779279 -0.11473
C_ C_ 0.68875 0.632149 0.718408 -0.11473
C_ C_ 0.944178 0.636149 0.708605 -0.11473
C_ C_ 0.691515 0.633229 0.792258 -0.11473
C_ C_ 0.935966 0.619983 0.781475 -0.11473
C_ C_ 0.719598 0.580402 0.754675 -0.02249
C_ C_ 0.968515 0.576441 0.740193 -0.02249
C_ C_ 0.661372 0.689409 0.756829 0.6875
C_ C_ 0.912509 0.684989 0.752136 0.6875
C_ C_ 0.710929 0.599413 0.717328 -0.11473
C_ C_ 0.961545 0.600055 0.704345 -0.11473
C_ C_ 0.569794 0.651426 0.753143 -0.02249
C_ C_ 0.820994 0.650764 0.755928 -0.02249
C_ C_ 0.514661 0.540508 0.747265 -0.02249
C_ C_ 0.768774 0.539186 0.759776 -0.02249
C_ C_ 0.533118 0.606807 0.714601 -0.11473
C_ C_ 0.79361 0.596036 0.720004 -0.11473
C_ C_ 0.566107 0.62492 0.788188 -0.11473
C_ C_ 0.81154 0.636009 0.794777 -0.11473
C_ C_ 0.551977 0.643085 0.715662 -0.11473
C_ C_ 0.813755 0.630245 0.718584 -0.11473
C_ C_ 0.533009 0.578902 0.749031 -0.02249
C_ C_ 0.785459 0.579596 0.759242 -0.02249
C_ C_ 0.58944 0.687708 0.756449 0.6875
C_ C_ 0.838461 0.690961 0.753825 0.6875
C_ C_ 0.547259 0.58995 0.787254 -0.11473
C_ C_ 0.794711 0.600173 0.796583 -0.11473
C_ C_ 0.631317 0.717999 0.882484 0.17695
C_ C_ 0.875608 0.714125 0.888516 0.17695
C_ C_ 0.623773 0.789348 0.882579 0.17695
C_ C_ 0.888845 0.785641 0.879585 0.17695
C_ C_ 0.620782 0.790204 0.926649 -0.11473
C_ C_ 0.892775 0.790581 0.923909 -0.11473
C_ C_ 0.625718 0.753991 0.950714 0.23465
C_ C_ 0.886317 0.756377 0.950119 0.23465
C_ C_ 0.632257 0.717325 0.927851 -0.11473
C_ C_ 0.879132 0.717875 0.932184 -0.11473
C_ C_ 0.61647 0.720214 0.629479 0.17695
C_ C_ 0.872709 0.789603 0.625679 0.17695
C_ C_ 0.625147 0.792783 0.633589 0.17695
C_ C_ 0.872312 0.71727 0.626298 0.17695
C_ C_ 0.626215 0.795511 0.59024 -0.11473
C_ C_ 0.868427 0.717239 0.581825 -0.11473
C_ C_ 0.617999 0.760115 0.566259 0.23465
C_ C_ 0.86958 0.755661 0.55956 0.23465
C_ C_ 0.613447 0.721716 0.586518 -0.11473
C_ C_ 0.87384 0.791358 0.58154 -0.11473
C_ C_ 0.534825 -0.000170244 0.752246 0.05793
C_ C_ 0.782143 0.00322058 0.753698 0.05793
C_ C_ 0.721849 0.503286 0.747509 0.05793
C_ C_ 0.969925 0.498761 0.739968 0.05793
Br Br 0.578226 -0.0049719999999999764 0.7511 -0.17191
Br Br 0.82396 1.0048884 0.744472 -0.17191
Br Br 0.679621 0.50452 0.732192 -0.17191
Br Br 0.927117 0.496604 0.735543 -0.17191
N_ N_ 0.627294 0.753424 0.861193 -0.272
N_ N_ 0.882767 0.747094 0.863876 -0.272
N_ N_ 0.617845 0.752796 0.994841 -0.12501
N_ N_ 0.887924 0.765027 0.994188 -0.12501
N_ N_ 0.620835 0.755285 0.653657 -0.272
N_ N_ 0.873836 0.753964 0.64699 -0.272
N_ N_ 0.614275 0.764617 0.520496 -0.12501
N_ N_ 0.864841 0.759411 0.515571 -0.12501
O_ O_ 0.593884 0.793751 0.724927 -0.60745
O_ O_ 0.847091 0.798144 0.722011 -0.60745
O_ O_ 0.593114 0.792498 0.792753 -0.60745
O_ O_ 0.853194 0.798918 0.790792 -0.60745
O_ O_ 0.654771 0.79469 0.791471 -0.60745
O_ O_ 0.91331 0.792365 0.790305 -0.60745
O_ O_ 0.655541 0.797026 0.721845 -0.60745
O_ O_ 0.91101 0.795737 0.721375 -0.60745
O_ O_ 0.655933 0.706757 0.791381 -0.60745
O_ O_ 0.909405 0.70193 0.78746 -0.60745
O_ O_ 0.658626 0.709677 0.722695 -0.60745
O_ O_ 0.907425 0.705791 0.720075 -0.60745
O_ O_ 0.59676 0.707687 0.724001 -0.60745
O_ O_ 0.842051 0.711145 0.720718 -0.60745
O_ O_ 0.597302 0.700486 0.79318 -0.60745
O_ O_ 0.85002 0.705072 0.788327 -0.60745
_cell_length_a 44.444
_cell_length_b 32.3360000049186
_cell_length_c 31.843999878906452
_cell_angle_alpha 89.99799923859553
_cell_angle_beta 91.13600050494348
_cell_angle_gamma 89.9990006550086
_symmetry_space_group_name_H-M         'P 1'
_symmetry_Int_Tables_number            1
loop_
_symmetry_equiv_pos_as_xyz
   'x, y, z'
                         
loop_
_atom_site_label
_atom_site_type_symbol
_atom_site_fract_x 
_atom_site_fract_y
_atom_site_fract_z
_atom_site_charge
Zn Zn 0.124002 0.246851 0.277311 0.9476
Zn Zn 0.369447 0.246089 0.282373 0.9476
Zn Zn 0.120656 0.244158 0.20703 0.9476
Zn Zn 0.36951 0.247763 0.211752 0.9476
H_ H_ 0.0315481 0.415866 0.174124 0.10932
H_ H_ 0.264662 0.394159 0.183395 0.10932
H_ H_ 0.0570861 0.347884 0.308409 0.10932
H_ H_ 0.32871 0.369727 0.310613 0.10932
H_ H_ 0.0610624 0.346658 0.172106 0.10932
H_ H_ 0.291868 0.331407 0.18913 0.10932
H_ H_ 0.0242051 0.40807 0.303528 0.10932
H_ H_ 0.297864 0.43284 0.304451 0.10932
H_ H_ 0.230717 0.397878 0.305709 0.10932
H_ H_ 0.4717 0.402469 0.317426 0.10932
H_ H_ 0.161774 0.366702 0.185388 0.10932
H_ H_ 0.427666 0.352098 0.183061 0.10932
H_ H_ 0.201964 0.33543 0.304151 0.10932
H_ H_ 0.440215 0.336177 0.31089 0.10932
H_ H_ 0.190398 0.433509 0.189689 0.10932
H_ H_ 0.457194 0.41716 0.185104 0.10932
H_ H_ 0.209638 0.0769987 0.317453 0.10932
H_ H_ 0.43727 0.0568745 0.294648 0.10932
H_ H_ 0.184054 0.140716 0.180088 0.10932
H_ H_ 0.452043 0.165289 0.186808 0.10932
H_ H_ 0.182458 0.144717 0.315572 0.10932
H_ H_ 0.412906 0.124426 0.300772 0.10932
H_ H_ 0.211001 0.0741758 0.184553 0.10932
H_ H_ 0.479347 0.102776 0.181542 0.10932
H_ H_ 0.0362901 0.0614461 0.191762 0.10932
H_ H_ 0.290325 0.0685864 0.183774 0.10932
H_ H_ 0.0518192 0.155979 0.314558 0.10932
H_ H_ 0.302363 0.147385 0.318057 0.10932
H_ H_ 0.0645407 0.124773 0.181823 0.10932
H_ H_ 0.321724 0.133081 0.184207 0.10932
H_ H_ 0.0302772 0.0879395 0.323753 0.10932
H_ H_ 0.270569 0.0877236 0.315679 0.10932
H_ H_ 0.121371 0.176778 0.347976 0.10932
H_ H_ 0.383637 0.303518 0.362899 0.10932
H_ H_ 0.114299 0.307268 0.35664 0.10932
H_ H_ 0.358552 0.179377 0.348745 0.10932
H_ H_ 0.107595 0.300314 0.432726 0.10932
H_ H_ 0.361337 0.169968 0.426575 0.10932
H_ H_ 0.123188 0.168143 0.425058 0.10932
H_ H_ 0.38857 0.298674 0.436085 0.10932
H_ H_ 0.102006 0.30496 0.124653 0.10932
H_ H_ 0.363245 0.190547 0.134251 0.10932
H_ H_ 0.129332 0.18162 0.133555 0.10932
H_ H_ 0.395459 0.310624 0.137123 0.10932
H_ H_ 0.133492 0.176751 0.0552264 0.10932
H_ H_ 0.390499 0.312882 0.0554034 0.10932
H_ H_ 0.110142 0.304061 0.0462403 0.10932
H_ H_ 0.356382 0.190852 0.0600669 0.10932
C_ C_ 0.0644062 0.345929 0.24118 -0.02249
C_ C_ 0.311088 0.342034 0.251474 -0.02249
C_ C_ 0.0151669 0.460518 0.24173 -0.02249
C_ C_ 0.264184 0.459644 0.242287 -0.02249
C_ C_ 0.0398981 0.402058 0.202664 -0.11473
C_ C_ 0.276151 0.387992 0.213325 -0.11473
C_ C_ 0.0532016 0.36201 0.278677 -0.11473
C_ C_ 0.31512 0.373259 0.282314 -0.11473
C_ C_ 0.0558873 0.363659 0.201494 -0.11473
C_ C_ 0.292338 0.350813 0.215219 -0.11473
C_ C_ 0.0320169 0.4199 0.24119 -0.02249
C_ C_ 0.280993 0.420101 0.242793 -0.02249
C_ C_ 0.0828652 0.306807 0.241701 0.6875
C_ C_ 0.329452 0.304319 0.25061 0.6875
C_ C_ 0.0350925 0.396998 0.276912 -0.11473
C_ C_ 0.298641 0.411044 0.278436 -0.11473
C_ C_ 0.180676 0.344165 0.24244 -0.02249
C_ C_ 0.431936 0.34097 0.247495 -0.02249
C_ C_ 0.232275 0.460012 0.246587 -0.02249
C_ C_ 0.483579 0.456415 0.252994 -0.02249
C_ C_ 0.218075 0.390464 0.27807 -0.11473
C_ C_ 0.462357 0.391849 0.288611 -0.11473
C_ C_ 0.176276 0.374712 0.211985 -0.11473
C_ C_ 0.437455 0.363911 0.211124 -0.11473
C_ C_ 0.200636 0.354992 0.276115 -0.11473
C_ C_ 0.443347 0.355652 0.285421 -0.11473
C_ C_ 0.215295 0.419566 0.246955 -0.02249
C_ C_ 0.466413 0.415429 0.251742 -0.02249
C_ C_ 0.161868 0.305127 0.24251 0.6875
C_ C_ 0.407914 0.308648 0.248063 0.6875
C_ C_ 0.194361 0.410488 0.213713 -0.11473
C_ C_ 0.455925 0.399352 0.213355 -0.11473
C_ C_ 0.18264 0.148667 0.248106 -0.02249
C_ C_ 0.429255 0.147368 0.24434 -0.02249
C_ C_ 0.232848 0.033279 0.250289 -0.02249
C_ C_ 0.484198 0.0386481 0.241945 -0.02249
C_ C_ 0.205202 0.092121 0.287514 -0.11473
C_ C_ 0.442756 0.080525 0.271835 -0.11473
C_ C_ 0.190802 0.128838 0.210059 -0.11473
C_ C_ 0.451522 0.144955 0.21398 -0.11473
C_ C_ 0.19137 0.131215 0.286725 -0.11473
C_ C_ 0.426729 0.118222 0.274374 -0.11473
C_ C_ 0.215046 0.0737337 0.249369 -0.02249
C_ C_ 0.465938 0.0764537 0.242814 -0.02249
C_ C_ 0.159825 0.183003 0.247182 0.6875
C_ C_ 0.407477 0.183526 0.243863 0.6875
C_ C_ 0.2076 0.0922903 0.211908 -0.11473
C_ C_ 0.469637 0.109263 0.212145 -0.11473
C_ C_ 0.0635244 0.142374 0.246221 -0.02249
C_ C_ 0.313398 0.145737 0.248495 -0.02249
C_ C_ 0.0113501 0.0329297 0.263082 -0.02249
C_ C_ 0.264447 0.0328162 0.249823 -0.02249
C_ C_ 0.0399003 0.0812639 0.218259 -0.11473
C_ C_ 0.293853 0.0839885 0.212681 -0.11473
C_ C_ 0.0509301 0.135563 0.287341 -0.11473
C_ C_ 0.301104 0.129158 0.28797 -0.11473
C_ C_ 0.0561514 0.117554 0.21238 -0.11473
C_ C_ 0.310395 0.121671 0.212288 -0.11473
C_ C_ 0.0278311 0.0725498 0.257928 -0.02249
C_ C_ 0.280226 0.0702611 0.25027 -0.02249
C_ C_ 0.0820152 0.181751 0.243138 0.6875
C_ C_ 0.329015 0.187375 0.24844 0.6875
C_ C_ 0.0362363 0.0974312 0.294059 -0.11473
C_ C_ 0.284166 0.0923188 0.288181 -0.11473
C_ C_ 0.120182 0.204239 0.367314 0.17695
C_ C_ 0.381079 0.273261 0.374784 0.17695
C_ C_ 0.117887 0.276986 0.37213 0.17695
C_ C_ 0.367316 0.204188 0.370326 0.17695
C_ C_ 0.114976 0.27422 0.415455 -0.11473
C_ C_ 0.368005 0.199866 0.415346 -0.11473
C_ C_ 0.116314 0.234108 0.435703 0.23465
C_ C_ 0.373991 0.234242 0.440755 0.23465
C_ C_ 0.121581 0.199347 0.410312 -0.11473
C_ C_ 0.380812 0.271824 0.419074 -0.11473
C_ C_ 0.110018 0.275923 0.110514 0.17695
C_ C_ 0.358259 0.220888 0.119067 0.17695
C_ C_ 0.127489 0.208099 0.114271 0.17695
C_ C_ 0.380716 0.286528 0.119985 0.17695
C_ C_ 0.129547 0.205296 0.0692812 -0.11473
C_ C_ 0.380427 0.286838 0.0742328 -0.11473
C_ C_ 0.123705 0.240158 0.0448147 0.23465
C_ C_ 0.370476 0.252178 0.0522135 0.23465
C_ C_ 0.112613 0.274948 0.0656688 -0.11473
C_ C_ 0.356969 0.220675 0.074351 -0.11473
C_ C_ 0.0310057 0.49811 0.241084 0.05793
C_ C_ 0.280358 0.496164 0.237187 0.05793
C_ C_ 0.219301 -0.005338999999999983 0.256296 0.05793
C_ C_ 0.470063 0.999077 0.239488 0.05793
Br Br 0.0736108 0.499088 0.244697 -0.17191
Br Br 0.321735 0.494937 0.220704 -0.17191
Br Br 0.17525 0.0014400000000001079 0.254065 -0.17191
Br Br 0.429454 0.995875 0.213816 -0.17191
N_ N_ 0.120856 0.242749 0.348977 -0.272
N_ N_ 0.371264 0.240524 0.352418 -0.272
N_ N_ 0.117207 0.231589 0.482187 -0.12501
N_ N_ 0.370421 0.228722 0.484813 -0.12501
N_ N_ 0.119803 0.242648 0.134322 -0.272
N_ N_ 0.36794 0.254795 0.140435 -0.272
N_ N_ 0.122336 0.235241 0.00041000000000002146 -0.12501
N_ N_ 0.374405 0.246317 0.00824795 -0.12501
O_ O_ 0.0934109 0.292252 0.206539 -0.60745
O_ O_ 0.335715 0.287678 0.216664 -0.60745
O_ O_ 0.0904538 0.290349 0.276229 -0.60745
O_ O_ 0.342674 0.292167 0.282675 -0.60745
O_ O_ 0.152008 0.291759 0.276871 -0.60745
O_ O_ 0.402764 0.288119 0.280637 -0.60745
O_ O_ 0.153254 0.288903 0.20718 -0.60745
O_ O_ 0.39932 0.294688 0.211885 -0.60745
O_ O_ 0.155596 0.204576 0.279885 -0.60745
O_ O_ 0.397901 0.196458 0.279616 -0.60745
O_ O_ 0.149869 0.199062 0.212447 -0.60745
O_ O_ 0.403189 0.205874 0.211753 -0.60745
O_ O_ 0.0872919 0.198214 0.207907 -0.60745
O_ O_ 0.341196 0.200507 0.214078 -0.60745
O_ O_ 0.0976893 0.194686 0.274291 -0.60745
O_ O_ 0.334165 0.206389 0.282685 -0.60745
Zn Zn 0.127707 0.25385 0.77273 0.9476
Zn Zn 0.374108 0.251232 0.778588 0.9476
Zn Zn 0.125083 0.250262 0.704581 0.9476
Zn Zn 0.37645 0.252075 0.710738 0.9476
H_ H_ 0.0261947 0.412057 0.676897 0.10932
H_ H_ 0.275822 0.413478 0.66779 0.10932
H_ H_ 0.0729516 0.363535 0.813562 0.10932
H_ H_ 0.321978 0.363093 0.801149 0.10932
H_ H_ 0.0581119 0.347111 0.677478 0.10932
H_ H_ 0.298917 0.343156 0.671441 0.10932
H_ H_ 0.0406468 0.427619 0.807797 0.10932
H_ H_ 0.303934 0.43496 0.792992 0.10932
H_ H_ 0.229645 0.411862 0.800637 0.10932
H_ H_ 0.47206 0.413322 0.823431 0.10932
H_ H_ 0.171468 0.370986 0.675107 0.10932
H_ H_ 0.42754 0.371385 0.687677 0.10932
H_ H_ 0.204928 0.344083 0.799601 0.10932
H_ H_ 0.44043 0.35036 0.817974 0.10932
H_ H_ 0.207518 0.426591 0.674411 0.10932
H_ H_ 0.456151 0.43395 0.69118 0.10932
H_ H_ 0.217124 0.0966594 0.810669 0.10932
H_ H_ 0.456595 0.0779668 0.808829 0.10932
H_ H_ 0.183623 0.142652 0.674215 0.10932
H_ H_ 0.455906 0.166421 0.682229 0.10932
H_ H_ 0.194958 0.16721 0.805471 0.10932
H_ H_ 0.425024 0.140574 0.804435 0.10932
H_ H_ 0.208936 0.0769376 0.679289 0.10932
H_ H_ 0.483614 0.104494 0.681795 0.10932
H_ H_ 0.0248258 0.0851951 0.687308 0.10932
H_ H_ 0.266593 0.100289 0.674211 0.10932
H_ H_ 0.0792772 0.143215 0.809364 0.10932
H_ H_ 0.333746 0.125896 0.798315 0.10932
H_ H_ 0.0593492 0.143421 0.676905 0.10932
H_ H_ 0.305684 0.159359 0.674237 0.10932
H_ H_ 0.0470801 0.0831839 0.820072 0.10932
H_ H_ 0.299329 0.067812 0.799708 0.10932
H_ H_ 0.124623 0.321073 0.843192 0.10932
H_ H_ 0.348092 0.306113 0.850306 0.10932
H_ H_ 0.141548 0.19234 0.849889 0.10932
H_ H_ 0.411253 0.205522 0.862903 0.10932
H_ H_ 0.140222 0.193689 0.928205 0.10932
H_ H_ 0.405801 0.2087 0.941726 0.10932
H_ H_ 0.121642 0.321632 0.924491 0.10932
H_ H_ 0.355906 0.31955 0.926513 0.10932
H_ H_ 0.13411 0.189851 0.627578 0.10932
H_ H_ 0.384115 0.189457 0.638506 0.10932
H_ H_ 0.117523 0.315963 0.636426 0.10932
H_ H_ 0.366363 0.318713 0.64024 0.10932
H_ H_ 0.102141 0.322245 0.557555 0.10932
H_ H_ 0.361303 0.318339 0.561277 0.10932
H_ H_ 0.124197 0.192956 0.549708 0.10932
H_ H_ 0.38156 0.186488 0.558889 0.10932
C_ C_ 0.0678345 0.349498 0.744836 -0.02249
C_ C_ 0.316987 0.350376 0.735008 -0.02249
C_ C_ 0.0197146 0.463527 0.736677 -0.02249
C_ C_ 0.269517 0.466984 0.734225 -0.02249
C_ C_ 0.0399674 0.402103 0.704678 -0.11473
C_ C_ 0.287763 0.403091 0.695309 -0.11473
C_ C_ 0.0643994 0.37398 0.782629 -0.11473
C_ C_ 0.315942 0.376393 0.77119 -0.11473
C_ C_ 0.0546781 0.364207 0.706425 -0.11473
C_ C_ 0.303152 0.364503 0.696754 -0.11473
C_ C_ 0.0378912 0.427113 0.740045 -0.02249
C_ C_ 0.286096 0.426744 0.731612 -0.02249
C_ C_ 0.0874194 0.311323 0.746264 0.6875
C_ C_ 0.333271 0.30889 0.738258 0.6875
C_ C_ 0.0493064 0.413163 0.780134 -0.11473
C_ C_ 0.300608 0.413619 0.768943 -0.11473
C_ C_ 0.183022 0.352303 0.738687 -0.02249
C_ C_ 0.434829 0.352406 0.751249 -0.02249
C_ C_ 0.238327 0.466146 0.739335 -0.02249
C_ C_ 0.484316 0.467322 0.757947 -0.02249
C_ C_ 0.215778 0.403283 0.774127 -0.11473
C_ C_ 0.46609 0.400094 0.791022 -0.11473
C_ C_ 0.186051 0.374961 0.70107 -0.11473
C_ C_ 0.441287 0.376666 0.715101 -0.11473
C_ C_ 0.201376 0.363248 0.773169 -0.11473
C_ C_ 0.446981 0.366042 0.789624 -0.11473
C_ C_ 0.220581 0.424477 0.736873 -0.02249
C_ C_ 0.467485 0.42754 0.757655 -0.02249
C_ C_ 0.164038 0.313368 0.739369 0.6875
C_ C_ 0.414831 0.313216 0.749878 0.6875
C_ C_ 0.205494 0.4114 0.700164 -0.11473
C_ C_ 0.455492 0.414724 0.718393 -0.11473
C_ C_ 0.190236 0.162827 0.737366 -0.02249
C_ C_ 0.438494 0.160247 0.745531 -0.02249
C_ C_ 0.231179 0.0432558 0.750479 -0.02249
C_ C_ 0.489708 0.0421607 0.745518 -0.02249
C_ C_ 0.210382 0.106731 0.782148 -0.11473
C_ C_ 0.457339 0.0967946 0.779121 -0.11473
C_ C_ 0.194633 0.136342 0.703253 -0.11473
C_ C_ 0.456887 0.149956 0.711 -0.11473
C_ C_ 0.199864 0.14793 0.77715 -0.11473
C_ C_ 0.439835 0.134107 0.779313 -0.11473
C_ C_ 0.214754 0.0821963 0.746743 -0.02249
C_ C_ 0.472717 0.084364 0.743623 -0.02249
C_ C_ 0.170037 0.199982 0.735622 0.6875
C_ C_ 0.417744 0.19736 0.742898 0.6875
C_ C_ 0.209082 0.0970783 0.705269 -0.11473
C_ C_ 0.472068 0.111391 0.710006 -0.11473
C_ C_ 0.0724835 0.148666 0.743432 -0.02249
C_ C_ 0.316916 0.152397 0.740733 -0.02249
C_ C_ 0.016561 0.0408577 0.756591 -0.02249
C_ C_ 0.262354 0.0408597 0.737334 -0.02249
C_ C_ 0.0373967 0.0968605 0.713718 -0.11473
C_ C_ 0.281291 0.10766 0.702757 -0.11473
C_ C_ 0.0668406 0.133009 0.783725 -0.11473
C_ C_ 0.317776 0.123994 0.773587 -0.11473
C_ C_ 0.0546828 0.132596 0.708164 -0.11473
C_ C_ 0.301264 0.141092 0.702142 -0.11473
C_ C_ 0.0331355 0.0800482 0.753187 -0.02249
C_ C_ 0.281019 0.0802684 0.737831 -0.02249
C_ C_ 0.0930082 0.185544 0.738331 0.6875
C_ C_ 0.339164 0.187415 0.73957 0.6875
C_ C_ 0.0483957 0.0980521 0.78778 -0.11473
C_ C_ 0.302299 0.0863943 0.771075 -0.11473
C_ C_ 0.128572 0.292935 0.862631 0.17695
C_ C_ 0.362935 0.286261 0.868794 0.17695
C_ C_ 0.138341 0.220655 0.866883 0.17695
C_ C_ 0.395687 0.228273 0.876625 0.17695
C_ C_ 0.13354 0.220886 0.909656 -0.11473
C_ C_ 0.395057 0.230331 0.920254 -0.11473
C_ C_ 0.127243 0.257903 0.930123 0.23465
C_ C_ 0.380678 0.265093 0.938125 0.23465
C_ C_ 0.128084 0.29406 0.90726 -0.11473
C_ C_ 0.366027 0.293285 0.911888 -0.11473
C_ C_ 0.126133 0.218729 0.61198 0.17695
C_ C_ 0.381851 0.21815 0.618733 0.17695
C_ C_ 0.114485 0.289514 0.616697 0.17695
C_ C_ 0.370471 0.290285 0.620128 0.17695
C_ C_ 0.109206 0.292947 0.573406 -0.11473
C_ C_ 0.366928 0.290518 0.576189 -0.11473
C_ C_ 0.112437 0.257198 0.550153 0.23465
C_ C_ 0.369818 0.253815 0.554434 0.23465
C_ C_ 0.121426 0.220132 0.569305 -0.11473
C_ C_ 0.379665 0.217524 0.574842 -0.11473
C_ C_ 0.0346124 0.502812 0.738424 0.05793
C_ C_ 0.284709 0.505102 0.735084 0.05793
C_ C_ 0.216113 0.00485109 0.759572 0.05793
C_ C_ 0.472434 1.00564049 0.740357 0.05793
Br Br 0.0784491 0.504255 0.740674 -0.17191
Br Br 0.328531 0.506447 0.72925 -0.17191
Br Br 0.174773 0.00674755 0.778205 -0.17191
Br Br 0.428131 1.0107524 0.742657 -0.17191
N_ N_ 0.133133 0.255396 0.843995 -0.272
N_ N_ 0.37678 0.253159 0.851641 -0.272
N_ N_ 0.129674 0.26319 0.974842 -0.12501
N_ N_ 0.38346 0.272934 0.982795 -0.12501
N_ N_ 0.121652 0.252536 0.63522 -0.272
N_ N_ 0.377257 0.254606 0.640271 -0.272
N_ N_ 0.107322 0.259121 0.505353 -0.12501
N_ N_ 0.373511 0.25905 0.509216 -0.12501
O_ O_ 0.0929348 0.291818 0.711773 -0.60745
O_ O_ 0.343176 0.292684 0.704998 -0.60745
O_ O_ 0.0969098 0.29731 0.780264 -0.60745
O_ O_ 0.341712 0.295318 0.774247 -0.60745
O_ O_ 0.157231 0.297812 0.773404 -0.60745
O_ O_ 0.401491 0.301169 0.783639 -0.60745
O_ O_ 0.152898 0.298012 0.705727 -0.60745
O_ O_ 0.408538 0.297357 0.713114 -0.60745
O_ O_ 0.159341 0.214966 0.76984 -0.60745
O_ O_ 0.407844 0.21205 0.777396 -0.60745
O_ O_ 0.15799 0.20952 0.700164 -0.60745
O_ O_ 0.410353 0.21453 0.707409 -0.60745
O_ O_ 0.0995736 0.198338 0.701641 -0.60745
O_ O_ 0.346257 0.206429 0.706864 -0.60745
O_ O_ 0.0985049 0.20871 0.768951 -0.60745
O_ O_ 0.345299 0.204412 0.775306 -0.60745
Zn Zn 0.125933 0.750303 0.286138 0.9476
Zn Zn 0.377537 0.749099 0.286988 0.9476
Zn Zn 0.12176 0.750167 0.217424 0.9476
Zn Zn 0.378462 0.750162 0.218257 0.9476
H_ H_ 0.0249899 0.912407 0.193579 0.10932
H_ H_ 0.299302 0.923322 0.187652 0.10932
H_ H_ 0.0694632 0.856 0.32444 0.10932
H_ H_ 0.307757 0.83879 0.318208 0.10932
H_ H_ 0.0625888 0.854621 0.191042 0.10932
H_ H_ 0.331565 0.863217 0.188784 0.10932
H_ H_ 0.0338964 0.917362 0.32348 0.10932
H_ H_ 0.277268 0.900268 0.317833 0.10932
H_ H_ 0.198151 0.928534 0.314785 0.10932
H_ H_ 0.472293 0.91912 0.3147 0.10932
H_ H_ 0.205619 0.829797 0.193882 0.10932
H_ H_ 0.450524 0.842229 0.187895 0.10932
H_ H_ 0.15948 0.870125 0.305195 0.10932
H_ H_ 0.445123 0.854395 0.321782 0.10932
H_ H_ 0.228328 0.90443 0.188915 0.10932
H_ H_ 0.472988 0.912351 0.185663 0.10932
H_ H_ 0.234101 0.59976 0.302862 0.10932
H_ H_ 0.462146 0.577613 0.320895 0.10932
H_ H_ 0.168462 0.628829 0.18059 0.10932
H_ H_ 0.426096 0.631898 0.189817 0.10932
H_ H_ 0.204154 0.65868 0.305062 0.10932
H_ H_ 0.434025 0.640396 0.322441 0.10932
H_ H_ 0.202021 0.57161 0.179297 0.10932
H_ H_ 0.457507 0.574678 0.184508 0.10932
H_ H_ 0.0342755 0.583529 0.181369 0.10932
H_ H_ 0.277259 0.591867 0.175279 0.10932
H_ H_ 0.0618186 0.64315 0.31926 0.10932
H_ H_ 0.321616 0.639938 0.312263 0.10932
H_ H_ 0.0625637 0.650237 0.183982 0.10932
H_ H_ 0.321289 0.643419 0.178222 0.10932
H_ H_ 0.0383396 0.576663 0.313079 0.10932
H_ H_ 0.294066 0.573988 0.306177 0.10932
H_ H_ 0.135886 0.818093 0.352034 0.10932
H_ H_ 0.418897 0.784904 0.364269 0.10932
H_ H_ 0.122802 0.687788 0.370356 0.10932
H_ H_ 0.338568 0.714213 0.360208 0.10932
H_ H_ 0.117785 0.696074 0.446584 0.10932
H_ H_ 0.33597 0.71445 0.434907 0.10932
H_ H_ 0.130162 0.830215 0.425802 0.10932
H_ H_ 0.419115 0.782768 0.440777 0.10932
H_ H_ 0.107403 0.686997 0.145034 0.10932
H_ H_ 0.359122 0.814275 0.137064 0.10932
H_ H_ 0.126084 0.817307 0.132008 0.10932
H_ H_ 0.398086 0.69333 0.14012 0.10932
H_ H_ 0.125571 0.809679 0.0566537 0.10932
H_ H_ 0.405126 0.696602 0.0622684 0.10932
H_ H_ 0.107413 0.679158 0.0716302 0.10932
H_ H_ 0.359272 0.81316 0.0605319 0.10932
C_ C_ 0.0659039 0.849858 0.258879 -0.02249
C_ C_ 0.322023 0.847452 0.252526 -0.02249
C_ C_ 0.0118706 0.957447 0.256924 -0.02249
C_ C_ 0.26518 0.956702 0.252104 -0.02249
C_ C_ 0.0340158 0.898258 0.220358 -0.11473
C_ C_ 0.299581 0.906031 0.216077 -0.11473
C_ C_ 0.0571839 0.866673 0.296316 -0.11473
C_ C_ 0.306697 0.859352 0.29035 -0.11473
C_ C_ 0.0548734 0.866786 0.22127 -0.11473
C_ C_ 0.318958 0.872946 0.216486 -0.11473
C_ C_ 0.0282418 0.919406 0.25798 -0.02249
C_ C_ 0.283053 0.917437 0.251564 -0.02249
C_ C_ 0.0857798 0.811717 0.255472 0.6875
C_ C_ 0.342292 0.812408 0.251751 0.6875
C_ C_ 0.0378648 0.901044 0.296363 -0.11473
C_ C_ 0.28593 0.892085 0.287909 -0.11473
C_ C_ 0.180211 0.847204 0.248694 -0.02249
C_ C_ 0.439713 0.845045 0.254215 -0.02249
C_ C_ 0.232777 0.957817 0.250509 -0.02249
C_ C_ 0.485172 0.963066 0.249822 -0.02249
C_ C_ 0.198339 0.908446 0.286613 -0.11473
C_ C_ 0.462676 0.904393 0.289348 -0.11473
C_ C_ 0.199855 0.855926 0.216217 -0.11473
C_ C_ 0.450759 0.860504 0.216475 -0.11473
C_ C_ 0.177324 0.875073 0.283006 -0.11473
C_ C_ 0.447818 0.866501 0.290884 -0.11473
C_ C_ 0.21458 0.918869 0.251637 -0.02249
C_ C_ 0.468143 0.924255 0.251065 -0.02249
C_ C_ 0.164487 0.808523 0.251319 0.6875
C_ C_ 0.420028 0.807066 0.251998 0.6875
C_ C_ 0.214666 0.893914 0.215164 -0.11473
C_ C_ 0.462165 0.901542 0.214211 -0.11473
C_ C_ 0.182344 0.649031 0.243757 -0.02249
C_ C_ 0.432174 0.64809 0.254144 -0.02249
C_ C_ 0.23434 0.536617 0.243034 -0.02249
C_ C_ 0.482339 0.53263 0.250029 -0.02249
C_ C_ 0.219858 0.604554 0.276679 -0.11473
C_ C_ 0.459251 0.593022 0.29157 -0.11473
C_ C_ 0.181492 0.623917 0.20856 -0.11473
C_ C_ 0.438891 0.627507 0.216363 -0.11473
C_ C_ 0.20154 0.638676 0.277988 -0.11473
C_ C_ 0.442948 0.629446 0.292418 -0.11473
C_ C_ 0.218636 0.576979 0.243027 -0.02249
C_ C_ 0.464769 0.572408 0.252232 -0.02249
C_ C_ 0.162051 0.685716 0.247174 0.6875
C_ C_ 0.413664 0.686929 0.253521 0.6875
C_ C_ 0.199656 0.588211 0.209021 -0.11473
C_ C_ 0.454042 0.5901 0.214926 -0.11473
C_ C_ 0.0641464 0.652585 0.251014 -0.02249
C_ C_ 0.31788 0.651136 0.243472 -0.02249
C_ C_ 0.0149078 0.536552 0.244237 -0.02249
C_ C_ 0.266563 0.535552 0.240121 -0.02249
C_ C_ 0.0381599 0.598732 0.210231 -0.11473
C_ C_ 0.291286 0.597179 0.203708 -0.11473
C_ C_ 0.0550024 0.632091 0.288531 -0.11473
C_ C_ 0.312015 0.628964 0.280536 -0.11473
C_ C_ 0.0544875 0.635682 0.211857 -0.11473
C_ C_ 0.309264 0.632686 0.204505 -0.11473
C_ C_ 0.031654 0.577137 0.246533 -0.02249
C_ C_ 0.285474 0.575449 0.241279 -0.02249
C_ C_ 0.0844924 0.689983 0.254289 0.6875
C_ C_ 0.33778 0.688337 0.246448 0.6875
C_ C_ 0.0429397 0.59246 0.284753 -0.11473
C_ C_ 0.296178 0.590698 0.278648 -0.11473
C_ C_ 0.131402 0.791534 0.372644 0.17695
C_ C_ 0.400392 0.771017 0.378521 0.17695
C_ C_ 0.122678 0.719181 0.382386 0.17695
C_ C_ 0.355896 0.730183 0.37689 0.17695
C_ C_ 0.120884 0.723905 0.427135 -0.11473
C_ C_ 0.354224 0.72909 0.420458 -0.11473
C_ C_ 0.125324 0.764055 0.442346 0.23465
C_ C_ 0.377233 0.746539 0.444931 0.23465
C_ C_ 0.130376 0.798302 0.414826 -0.11473
C_ C_ 0.400825 0.768429 0.42355 -0.11473
C_ C_ 0.114454 0.714487 0.125553 0.17695
C_ C_ 0.365764 0.785256 0.121027 0.17695
C_ C_ 0.12336 0.786452 0.119195 0.17695
C_ C_ 0.391816 0.720958 0.123508 0.17695
C_ C_ 0.125073 0.782104 0.0755925 -0.11473
C_ C_ 0.394633 0.720849 0.0793131 -0.11473
C_ C_ 0.120409 0.74345 0.054861 0.23465
C_ C_ 0.382525 0.753868 0.0541596 0.23465
C_ C_ 0.114231 0.709854 0.0817386 -0.11473
C_ C_ 0.369059 0.786821 0.076704 -0.11473
C_ C_ 0.0270581 0.995231 0.263738 0.05793
C_ C_ 0.280433 0.994485 0.249013 0.05793
C_ C_ 0.217862 0.500136 0.243641 0.05793
C_ C_ 0.467294 0.493858 0.25528 0.05793
Br Br 0.0696657 -0.004901000000000044 0.276073 -0.17191
Br Br 0.32507 0.997041 0.253323 -0.17191
Br Br 0.175945 0.503025 0.252466 -0.17191
Br Br 0.42579 0.489656 0.269574 -0.17191
N_ N_ 0.12772 0.752369 0.357037 -0.272
N_ N_ 0.377729 0.750634 0.357172 -0.272
N_ N_ 0.124713 0.771129 0.486485 -0.12501
N_ N_ 0.38037 0.737767 0.488799 -0.12501
N_ N_ 0.118742 0.752465 0.145018 -0.272
N_ N_ 0.375778 0.751649 0.143166 -0.272
N_ N_ 0.116552 0.739893 0.0104678 -0.12501
N_ N_ 0.388558 0.757546 0.0112608 -0.12501
O_ O_ 0.0890021 0.79338 0.220035 -0.60745
O_ O_ 0.350335 0.796222 0.216827 -0.60745
O_ O_ 0.0960612 0.794982 0.288441 -0.60745
O_ O_ 0.35063 0.795356 0.286686 -0.60745
O_ O_ 0.160768 0.791862 0.286668 -0.60745
O_ O_ 0.407528 0.795086 0.285406 -0.60745
O_ O_ 0.157035 0.790443 0.216739 -0.60745
O_ O_ 0.412149 0.792983 0.216278 -0.60745
O_ O_ 0.157724 0.702401 0.281579 -0.60745
O_ O_ 0.406079 0.704088 0.28757 -0.60745
O_ O_ 0.152858 0.704643 0.213094 -0.60745
O_ O_ 0.406804 0.704144 0.218851 -0.60745
O_ O_ 0.0890643 0.71014 0.221477 -0.60745
O_ O_ 0.348299 0.702705 0.213904 -0.60745
O_ O_ 0.0935168 0.703483 0.288659 -0.60745
O_ O_ 0.343948 0.705558 0.283195 -0.60745
Zn Zn 0.124502 0.750595 0.783001 0.9476
Zn Zn 0.375602 0.754362 0.78126 0.9476
Zn Zn 0.127105 0.751938 0.715454 0.9476
Zn Zn 0.376641 0.755771 0.71355 0.9476
H_ H_ 0.0283373 0.92023 0.682145 0.10932
H_ H_ 0.28657 0.922645 0.677046 0.10932
H_ H_ 0.070104 0.86025 0.817806 0.10932
H_ H_ 0.312728 0.857482 0.81472 0.10932
H_ H_ 0.0564456 0.85123 0.682931 0.10932
H_ H_ 0.317097 0.860147 0.675721 0.10932
H_ H_ 0.0388069 0.92366 0.81706 0.10932
H_ H_ 0.280733 0.921303 0.809484 0.10932
H_ H_ 0.204984 0.927836 0.816233 0.10932
H_ H_ 0.462411 0.931393 0.811866 0.10932
H_ H_ 0.192563 0.851171 0.685154 0.10932
H_ H_ 0.437615 0.851249 0.680413 0.10932
H_ H_ 0.180039 0.861396 0.818025 0.10932
H_ H_ 0.426794 0.869434 0.813239 0.10932
H_ H_ 0.22676 0.907548 0.686745 0.10932
H_ H_ 0.467573 0.915037 0.676092 0.10932
H_ H_ 0.225612 0.58913 0.816398 0.10932
H_ H_ 0.481281 0.601427 0.81703 0.10932
H_ H_ 0.182105 0.644643 0.685383 0.10932
H_ H_ 0.414473 0.633917 0.6958 0.10932
H_ H_ 0.192427 0.652064 0.816832 0.10932
H_ H_ 0.448271 0.662441 0.816961 0.10932
H_ H_ 0.215263 0.584219 0.682605 0.10932
H_ H_ 0.446632 0.570293 0.690197 0.10932
H_ H_ 0.0281763 0.595712 0.676467 0.10932
H_ H_ 0.276682 0.599543 0.677529 0.10932
H_ H_ 0.0591485 0.647369 0.817941 0.10932
H_ H_ 0.313312 0.651087 0.816589 0.10932
H_ H_ 0.0593736 0.654877 0.680047 0.10932
H_ H_ 0.311993 0.658509 0.678437 0.10932
H_ H_ 0.0393151 0.573515 0.810802 0.10932
H_ H_ 0.292773 0.578869 0.810921 0.10932
H_ H_ 0.124488 0.821197 0.850244 0.10932
H_ H_ 0.391414 0.818429 0.862166 0.10932
H_ H_ 0.12021 0.689795 0.858007 0.10932
H_ H_ 0.377117 0.690845 0.850022 0.10932
H_ H_ 0.122387 0.693848 0.93773 0.10932
H_ H_ 0.370768 0.683407 0.925957 0.10932
H_ H_ 0.119368 0.82812 0.926228 0.10932
H_ H_ 0.392554 0.807779 0.939499 0.10932
H_ H_ 0.142974 0.690251 0.645828 0.10932
H_ H_ 0.38012 0.822276 0.642265 0.10932
H_ H_ 0.115719 0.817036 0.639448 0.10932
H_ H_ 0.375963 0.692059 0.639377 0.10932
H_ H_ 0.122401 0.814815 0.561524 0.10932
H_ H_ 0.37307 0.692161 0.562228 0.10932
H_ H_ 0.13681 0.681293 0.57073 0.10932
H_ H_ 0.367245 0.82594 0.564117 0.10932
C_ C_ 0.0645793 0.849249 0.749238 -0.02249
C_ C_ 0.317251 0.851329 0.74698 -0.02249
C_ C_ 0.0174601 0.966671 0.75272 -0.02249
C_ C_ 0.262202 0.965556 0.741872 -0.02249
C_ C_ 0.0368649 0.906014 0.711407 -0.11473
C_ C_ 0.290114 0.907087 0.706698 -0.11473
C_ C_ 0.0592962 0.87084 0.787872 -0.11473
C_ C_ 0.307646 0.873062 0.783463 -0.11473
C_ C_ 0.0532102 0.867947 0.711008 -0.11473
C_ C_ 0.307744 0.869133 0.707212 -0.11473
C_ C_ 0.0354917 0.927217 0.74941 -0.02249
C_ C_ 0.280388 0.924778 0.742415 -0.02249
C_ C_ 0.0847529 0.810901 0.749173 0.6875
C_ C_ 0.336598 0.814771 0.747157 0.6875
C_ C_ 0.0417268 0.906522 0.787754 -0.11473
C_ C_ 0.288251 0.907339 0.781328 -0.11473
C_ C_ 0.184287 0.848845 0.751808 -0.02249
C_ C_ 0.434253 0.854526 0.746338 -0.02249
C_ C_ 0.232238 0.966992 0.750282 -0.02249
C_ C_ 0.486983 0.965658 0.742806 -0.02249
C_ C_ 0.203171 0.909887 0.788073 -0.11473
C_ C_ 0.457398 0.913141 0.783398 -0.11473
C_ C_ 0.193731 0.867595 0.712627 -0.11473
C_ C_ 0.444902 0.868012 0.708623 -0.11473
C_ C_ 0.187613 0.873192 0.788383 -0.11473
C_ C_ 0.437707 0.880025 0.783904 -0.11473
C_ C_ 0.214394 0.926168 0.75093 -0.02249
C_ C_ 0.468777 0.927265 0.744582 -0.02249
C_ C_ 0.164708 0.811324 0.748835 0.6875
C_ C_ 0.413961 0.816437 0.748409 0.6875
C_ C_ 0.213295 0.901677 0.714172 -0.11473
C_ C_ 0.462077 0.90366 0.707039 -0.11473
C_ C_ 0.183041 0.651017 0.751679 -0.02249
C_ C_ 0.432008 0.654313 0.754808 -0.02249
C_ C_ 0.237652 0.538676 0.750053 -0.02249
C_ C_ 0.483852 0.542032 0.753498 -0.02249
C_ C_ 0.212413 0.597739 0.788765 -0.11473
C_ C_ 0.467091 0.608535 0.788786 -0.11473
C_ C_ 0.189854 0.630503 0.713424 -0.11473
C_ C_ 0.431325 0.630246 0.71849 -0.11473
C_ C_ 0.194423 0.633613 0.788816 -0.11473
C_ C_ 0.448463 0.642574 0.789701 -0.11473
C_ C_ 0.218638 0.576889 0.751028 -0.02249
C_ C_ 0.468617 0.582976 0.751408 -0.02249
C_ C_ 0.165578 0.690247 0.751388 0.6875
C_ C_ 0.415315 0.692912 0.753342 0.6875
C_ C_ 0.205705 0.593592 0.712787 -0.11473
C_ C_ 0.449277 0.59323 0.716842 -0.11473
C_ C_ 0.0654261 0.653828 0.749769 -0.02249
C_ C_ 0.317262 0.65921 0.747413 -0.02249
C_ C_ 0.0175954 0.539693 0.739634 -0.02249
C_ C_ 0.268948 0.542427 0.740699 -0.02249
C_ C_ 0.0380751 0.604045 0.706687 -0.11473
C_ C_ 0.289628 0.60514 0.706479 -0.11473
C_ C_ 0.0560107 0.633166 0.787856 -0.11473
C_ C_ 0.306309 0.639917 0.784677 -0.11473
C_ C_ 0.0545331 0.640507 0.709747 -0.11473
C_ C_ 0.306481 0.641984 0.709624 -0.11473
C_ C_ 0.033018 0.579442 0.743784 -0.02249
C_ C_ 0.285222 0.582298 0.743636 -0.02249
C_ C_ 0.0883112 0.687613 0.750868 0.6875
C_ C_ 0.338475 0.694016 0.748888 0.6875
C_ C_ 0.0427439 0.592904 0.783852 -0.11473
C_ C_ 0.293288 0.599504 0.782485 -0.11473
C_ C_ 0.125138 0.792102 0.869084 0.17695
C_ C_ 0.384611 0.788388 0.875981 0.17695
C_ C_ 0.128095 0.720082 0.875062 0.17695
C_ C_ 0.376016 0.716587 0.869167 0.17695
C_ C_ 0.12329 0.723004 0.919239 -0.11473
C_ C_ 0.377309 0.712457 0.913068 -0.11473
C_ C_ 0.12448 0.762524 0.939157 0.23465
C_ C_ 0.380534 0.747149 0.938779 0.23465
C_ C_ 0.123741 0.796656 0.914758 -0.11473
C_ C_ 0.385422 0.785202 0.920008 -0.11473
C_ C_ 0.131419 0.715464 0.628349 0.17695
C_ C_ 0.376849 0.794839 0.624821 0.17695
C_ C_ 0.118991 0.78699 0.62311 0.17695
C_ C_ 0.373225 0.721733 0.623464 0.17695
C_ C_ 0.122062 0.785681 0.578807 -0.11473
C_ C_ 0.372456 0.721659 0.579555 -0.11473
C_ C_ 0.126674 0.747476 0.557892 0.23465
C_ C_ 0.37324 0.759236 0.558715 0.23465
C_ C_ 0.131112 0.711237 0.584208 -0.11473
C_ C_ 0.372421 0.796452 0.581393 -0.11473
C_ C_ 0.0328635 0.00335745 0.755133 0.05793
C_ C_ 0.278115 0.00226291 0.736558 0.05793
C_ C_ 0.222488 0.501942 0.750283 0.05793
C_ C_ 0.469087 0.505605 0.762264 0.05793
Br Br 0.0763111 0.00526146 0.755045 -0.17191
Br Br 0.319682 0.00265068 0.72113 -0.17191
Br Br 0.17797 0.498488 0.753043 -0.17191
Br Br 0.426622 0.504774 0.778947 -0.17191
N_ N_ 0.128707 0.754788 0.851891 -0.272
N_ N_ 0.379142 0.754928 0.852195 -0.272
N_ N_ 0.125535 0.7672 0.985778 -0.12501
N_ N_ 0.373113 0.74206 0.982135 -0.12501
N_ N_ 0.126759 0.752808 0.645811 -0.272
N_ N_ 0.376669 0.7588 0.64506 -0.272
N_ N_ 0.123217 0.742438 0.512873 -0.12501
N_ N_ 0.369067 0.761056 0.51476 -0.12501
O_ O_ 0.0937024 0.795799 0.714598 -0.60745
O_ O_ 0.346322 0.80058 0.712916 -0.60745
O_ O_ 0.0941374 0.794176 0.783579 -0.60745
O_ O_ 0.343975 0.797169 0.780899 -0.60745
O_ O_ 0.157435 0.794834 0.782594 -0.60745
O_ O_ 0.405946 0.801426 0.783104 -0.60745
O_ O_ 0.155018 0.799087 0.713612 -0.60745
O_ O_ 0.406173 0.800424 0.713862 -0.60745
O_ O_ 0.156159 0.706393 0.784608 -0.60745
O_ O_ 0.407074 0.710632 0.786048 -0.60745
O_ O_ 0.158938 0.707808 0.716664 -0.60745
O_ O_ 0.406939 0.70755 0.718563 -0.60745
O_ O_ 0.0980084 0.702642 0.717944 -0.60745
O_ O_ 0.347794 0.710421 0.717263 -0.60745
O_ O_ 0.0957359 0.704202 0.786323 -0.60745
O_ O_ 0.348421 0.705169 0.783477 -0.60745
Zn Zn 0.627374 0.248004 0.288286 0.9476
Zn Zn 0.874872 0.2495 0.286417 0.9476
Zn Zn 0.628229 0.248645 0.217998 0.9476
Zn Zn 0.870825 0.245942 0.214291 0.9476
H_ H_ 0.521488 0.401863 0.183163 0.10932
H_ H_ 0.770136 0.403399 0.177358 0.10932
H_ H_ 0.576084 0.357597 0.312558 0.10932
H_ H_ 0.830495 0.368007 0.304889 0.10932
H_ H_ 0.542669 0.333025 0.189016 0.10932
H_ H_ 0.79859 0.339033 0.181488 0.10932
H_ H_ 0.550675 0.426187 0.311598 0.10932
H_ H_ 0.799915 0.429619 0.305403 0.10932
H_ H_ 0.734335 0.402519 0.304467 0.10932
H_ H_ 0.962565 0.417351 0.315361 0.10932
H_ H_ 0.663641 0.366614 0.186153 0.10932
H_ H_ 0.94021 0.347315 0.17818 0.10932
H_ H_ 0.703375 0.341463 0.309879 0.10932
H_ H_ 0.935749 0.348922 0.316991 0.10932
H_ H_ 0.692574 0.431825 0.182326 0.10932
H_ H_ 0.965002 0.412976 0.176104 0.10932
H_ H_ 0.708653 0.0692566 0.322419 0.10932
H_ H_ 0.966469 0.0824191 0.32514 0.10932
H_ H_ 0.701263 0.158343 0.195278 0.10932
H_ H_ 0.924629 0.134755 0.188428 0.10932
H_ H_ 0.68418 0.142078 0.324888 0.10932
H_ H_ 0.949065 0.156937 0.319367 0.10932
H_ H_ 0.728169 0.0868702 0.192415 0.10932
H_ H_ 0.947662 0.0677787 0.193694 0.10932
H_ H_ 0.549565 0.0698237 0.192103 0.10932
H_ H_ 0.79695 0.0636037 0.194342 0.10932
H_ H_ 0.554391 0.159746 0.317453 0.10932
H_ H_ 0.805339 0.152573 0.317825 0.10932
H_ H_ 0.587366 0.125462 0.197305 0.10932
H_ H_ 0.823433 0.131419 0.187842 0.10932
H_ H_ 0.516231 0.103202 0.309136 0.10932
H_ H_ 0.774348 0.0867415 0.320005 0.10932
H_ H_ 0.63125 0.192943 0.366303 0.10932
H_ H_ 0.882845 0.192618 0.363796 0.10932
H_ H_ 0.634398 0.323719 0.350729 0.10932
H_ H_ 0.862267 0.315528 0.355558 0.10932
H_ H_ 0.63667 0.333236 0.431212 0.10932
H_ H_ 0.862281 0.326589 0.430479 0.10932
H_ H_ 0.619672 0.200144 0.442922 0.10932
H_ H_ 0.884783 0.195815 0.441832 0.10932
H_ H_ 0.615103 0.178992 0.14528 0.10932
H_ H_ 0.915423 0.272834 0.139686 0.10932
H_ H_ 0.641027 0.305082 0.140998 0.10932
H_ H_ 0.827897 0.225144 0.138302 0.10932
H_ H_ 0.63969 0.306032 0.0644294 0.10932
H_ H_ 0.824127 0.226475 0.0604566 0.10932
H_ H_ 0.624436 0.173137 0.0662687 0.10932
H_ H_ 0.912467 0.278942 0.0637361 0.10932
C_ C_ 0.564165 0.341022 0.248563 -0.02249
C_ C_ 0.814889 0.346633 0.243312 -0.02249
C_ C_ 0.515285 0.4579 0.249589 -0.02249
C_ C_ 0.763165 0.461389 0.240462 -0.02249
C_ C_ 0.534292 0.394352 0.210602 -0.11473
C_ C_ 0.778319 0.393222 0.208519 -0.11473
C_ C_ 0.563705 0.366536 0.28468 -0.11473
C_ C_ 0.814866 0.372937 0.279569 -0.11473
C_ C_ 0.545719 0.354201 0.214346 -0.11473
C_ C_ 0.796928 0.358178 0.207847 -0.11473
C_ C_ 0.534084 0.419971 0.245589 -0.02249
C_ C_ 0.780931 0.421719 0.241802 -0.02249
C_ C_ 0.581497 0.30198 0.247966 0.6875
C_ C_ 0.833745 0.309341 0.245097 0.6875
C_ C_ 0.549025 0.405867 0.284148 -0.11473
C_ C_ 0.799865 0.411714 0.275929 -0.11473
C_ C_ 0.682948 0.3491 0.24674 -0.02249
C_ C_ 0.934148 0.34405 0.24808 -0.02249
C_ C_ 0.731804 0.461234 0.243785 -0.02249
C_ C_ 0.983055 0.460159 0.246827 -0.02249
C_ C_ 0.717652 0.397192 0.280362 -0.11473
C_ C_ 0.958442 0.400898 0.285193 -0.11473
C_ C_ 0.681604 0.373626 0.210858 -0.11473
C_ C_ 0.944861 0.361013 0.209646 -0.11473
C_ C_ 0.701753 0.360292 0.28105 -0.11473
C_ C_ 0.941921 0.364269 0.286157 -0.11473
C_ C_ 0.715138 0.423534 0.245293 -0.02249
C_ C_ 0.966073 0.419472 0.246351 -0.02249
C_ C_ 0.666509 0.308684 0.24688 0.6875
C_ C_ 0.915037 0.305324 0.24855 0.6875
C_ C_ 0.697677 0.411104 0.208642 -0.11473
C_ C_ 0.958458 0.399344 0.208811 -0.11473
C_ C_ 0.68845 0.150735 0.25709 -0.02249
C_ C_ 0.92986 0.148692 0.255886 -0.02249
C_ C_ 0.735089 0.0330002 0.25542 -0.02249
C_ C_ 0.979866 0.031642 0.260316 -0.02249
C_ C_ 0.706265 0.0887953 0.294151 -0.11473
C_ C_ 0.959341 0.0957593 0.29464 -0.11473
C_ C_ 0.704396 0.138795 0.22147 -0.11473
C_ C_ 0.931201 0.122808 0.219532 -0.11473
C_ C_ 0.692894 0.128992 0.296167 -0.11473
C_ C_ 0.946352 0.136059 0.292486 -0.11473
C_ C_ 0.719858 0.0751054 0.257296 -0.02249
C_ C_ 0.961588 0.0714695 0.258207 -0.02249
C_ C_ 0.667749 0.187053 0.255299 0.6875
C_ C_ 0.91441 0.189787 0.254287 0.6875
C_ C_ 0.717078 0.0997705 0.220424 -0.11473
C_ C_ 0.945567 0.0847685 0.221949 -0.11473
C_ C_ 0.572583 0.149432 0.256329 -0.02249
C_ C_ 0.817281 0.145347 0.252842 -0.02249
C_ C_ 0.515486 0.0390237 0.252127 -0.02249
C_ C_ 0.767185 0.0288161 0.254859 -0.02249
C_ C_ 0.551211 0.0872179 0.220827 -0.11473
C_ C_ 0.799998 0.0816884 0.220721 -0.11473
C_ C_ 0.553446 0.140351 0.2888 -0.11473
C_ C_ 0.804968 0.130801 0.291067 -0.11473
C_ C_ 0.571535 0.12179 0.222243 -0.11473
C_ C_ 0.815183 0.120277 0.217651 -0.11473
C_ C_ 0.532997 0.0777091 0.254508 -0.02249
C_ C_ 0.785796 0.0679443 0.256656 -0.02249
C_ C_ 0.589131 0.188831 0.257935 0.6875
C_ C_ 0.833241 0.186806 0.251704 0.6875
C_ C_ 0.534177 0.105916 0.289356 -0.11473
C_ C_ 0.787883 0.0929822 0.291496 -0.11473
C_ C_ 0.628923 0.2223 0.37941 0.17695
C_ C_ 0.878606 0.220477 0.380394 0.17695
C_ C_ 0.631753 0.29754 0.374597 0.17695
C_ C_ 0.867373 0.290636 0.374724 0.17695
C_ C_ 0.633582 0.302817 0.4189 -0.11473
C_ C_ 0.868319 0.296483 0.418272 -0.11473
C_ C_ 0.632156 0.265428 0.443719 0.23465
C_ C_ 0.875918 0.262001 0.444863 0.23465
C_ C_ 0.628041 0.22596 0.423941 -0.11473
C_ C_ 0.881383 0.224496 0.424493 -0.11473
C_ C_ 0.621724 0.205721 0.125352 0.17695
C_ C_ 0.894655 0.264667 0.124154 0.17695
C_ C_ 0.632402 0.279032 0.123655 0.17695
C_ C_ 0.845853 0.233411 0.12164 0.17695
C_ C_ 0.633224 0.277671 0.0798201 -0.11473
C_ C_ 0.845193 0.235118 0.0775259 -0.11473
C_ C_ 0.631524 0.239492 0.0604667 0.23465
C_ C_ 0.868393 0.253842 0.0560109 0.23465
C_ C_ 0.625325 0.202793 0.082599 -0.11473
C_ C_ 0.893337 0.268666 0.0799583 -0.11473
C_ C_ 0.530364 0.496114 0.244081 0.05793
C_ C_ 0.7783 0.498879 0.236055 0.05793
C_ C_ 0.716858 0.996204 0.256814 0.05793
C_ C_ 0.963618 0.993233 0.256804 0.05793
Br Br 0.572437 0.500934 0.230732 -0.17191
Br Br 0.818634 0.502984 0.210229 -0.17191
Br Br 0.674367 -5.80455e-05 0.266904 -0.17191
Br Br 0.922058 -0.007780000000000009 0.266606 -0.17191
N_ N_ 0.63007 0.258078 0.357128 -0.272
N_ N_ 0.874927 0.254249 0.357567 -0.272
N_ N_ 0.632749 0.269999 0.487978 -0.12501
N_ N_ 0.86763 0.263147 0.489006 -0.12501
N_ N_ 0.622852 0.243879 0.14463 -0.272
N_ N_ 0.870623 0.248504 0.143614 -0.272
N_ N_ 0.6363 0.237249 0.0154588 -0.12501
N_ N_ 0.86582 0.25957 0.0109366 -0.12501
O_ O_ 0.597088 0.292188 0.214606 -0.60745
O_ O_ 0.839113 0.2896 0.21173 -0.60745
O_ O_ 0.590513 0.285919 0.283456 -0.60745
O_ O_ 0.841402 0.294342 0.280624 -0.60745
O_ O_ 0.654679 0.29698 0.281341 -0.60745
O_ O_ 0.906839 0.291733 0.282818 -0.60745
O_ O_ 0.660762 0.290808 0.212472 -0.60745
O_ O_ 0.900993 0.29283 0.214796 -0.60745
O_ O_ 0.6608 0.206864 0.289253 -0.60745
O_ O_ 0.903986 0.203784 0.288852 -0.60745
O_ O_ 0.658576 0.20111 0.220355 -0.60745
O_ O_ 0.905736 0.205482 0.219673 -0.60745
O_ O_ 0.595174 0.207217 0.223855 -0.60745
O_ O_ 0.839065 0.204276 0.217535 -0.60745
O_ O_ 0.60037 0.20079 0.29266 -0.60745
O_ O_ 0.845093 0.20269 0.284407 -0.60745
Zn Zn 0.626468 0.254886 0.789129 0.9476
Zn Zn 0.879107 0.254635 0.784341 0.9476
Zn Zn 0.628717 0.257642 0.720474 0.9476
Zn Zn 0.873456 0.250242 0.717255 0.9476
H_ H_ 0.521835 0.405051 0.684365 0.10932
H_ H_ 0.78022 0.4135 0.691207 0.10932
H_ H_ 0.579619 0.369822 0.820086 0.10932
H_ H_ 0.820253 0.351387 0.819974 0.10932
H_ H_ 0.550601 0.341203 0.688704 0.10932
H_ H_ 0.809777 0.349914 0.683802 0.10932
H_ H_ 0.546328 0.432139 0.817419 0.10932
H_ H_ 0.79641 0.42089 0.822873 0.10932
H_ H_ 0.731661 0.414839 0.818277 0.10932
H_ H_ 0.98191 0.409 0.80521 0.10932
H_ H_ 0.675338 0.370014 0.689789 0.10932
H_ H_ 0.922707 0.365623 0.68541 0.10932
H_ H_ 0.703813 0.345888 0.82003 0.10932
H_ H_ 0.95944 0.33797 0.804941 0.10932
H_ H_ 0.714934 0.421504 0.686631 0.10932
H_ H_ 0.955956 0.421661 0.675401 0.10932
H_ H_ 0.734206 0.101566 0.822853 0.10932
H_ H_ 0.973008 0.0993592 0.817714 0.10932
H_ H_ 0.668776 0.138439 0.70168 0.10932
H_ H_ 0.922638 0.138544 0.686292 0.10932
H_ H_ 0.700392 0.159947 0.825403 0.10932
H_ H_ 0.936538 0.152544 0.819453 0.10932
H_ H_ 0.69588 0.070422 0.699113 0.10932
H_ H_ 0.955599 0.0757513 0.690132 0.10932
H_ H_ 0.539763 0.0886849 0.68221 0.10932
H_ H_ 0.776215 0.0887344 0.689797 0.10932
H_ H_ 0.569233 0.150578 0.816855 0.10932
H_ H_ 0.829854 0.136611 0.816979 0.10932
H_ H_ 0.568415 0.155049 0.681434 0.10932
H_ H_ 0.807216 0.154264 0.684995 0.10932
H_ H_ 0.542656 0.0798434 0.814735 0.10932
H_ H_ 0.800847 0.0718061 0.817326 0.10932
H_ H_ 0.61936 0.322515 0.860661 0.10932
H_ H_ 0.920859 0.287162 0.855192 0.10932
H_ H_ 0.636202 0.190622 0.866207 0.10932
H_ H_ 0.835121 0.229089 0.859812 0.10932
H_ H_ 0.632151 0.191864 0.945503 0.10932
H_ H_ 0.8388 0.2288 0.938304 0.10932
H_ H_ 0.613972 0.321428 0.938244 0.10932
H_ H_ 0.924883 0.289297 0.932262 0.10932
H_ H_ 0.637361 0.324709 0.635302 0.10932
H_ H_ 0.873482 0.309647 0.642726 0.10932
H_ H_ 0.625392 0.191974 0.652518 0.10932
H_ H_ 0.870079 0.179225 0.646957 0.10932
H_ H_ 0.621476 0.185331 0.57165 0.10932
H_ H_ 0.864818 0.173452 0.56428 0.10932
H_ H_ 0.63318 0.316574 0.556469 0.10932
H_ H_ 0.879651 0.305583 0.563849 0.10932
C_ C_ 0.563689 0.348716 0.754884 -0.02249
C_ C_ 0.814269 0.344413 0.752048 -0.02249
C_ C_ 0.51584 0.465121 0.748777 -0.02249
C_ C_ 0.768341 0.464045 0.759655 -0.02249
C_ C_ 0.533359 0.398111 0.714239 -0.11473
C_ C_ 0.786415 0.400002 0.718892 -0.11473
C_ C_ 0.564444 0.374671 0.790915 -0.11473
C_ C_ 0.811104 0.364607 0.790699 -0.11473
C_ C_ 0.549582 0.361556 0.716823 -0.11473
C_ C_ 0.804164 0.3637 0.71477 -0.11473
C_ C_ 0.531767 0.424815 0.750077 -0.02249
C_ C_ 0.784732 0.421749 0.757548 -0.02249
C_ C_ 0.587006 0.314589 0.752245 0.6875
C_ C_ 0.836898 0.31048 0.751373 0.6875
C_ C_ 0.54784 0.412223 0.787697 -0.11473
C_ C_ 0.797702 0.403304 0.794254 -0.11473
C_ C_ 0.687823 0.353247 0.756362 -0.02249
C_ C_ 0.938194 0.346682 0.743507 -0.02249
C_ C_ 0.737328 0.465313 0.753608 -0.02249
C_ C_ 0.98811 0.46228 0.737808 -0.02249
C_ C_ 0.718544 0.4035 0.792611 -0.11473
C_ C_ 0.973227 0.395304 0.775909 -0.11473
C_ C_ 0.690146 0.375547 0.718668 -0.11473
C_ C_ 0.942944 0.366762 0.705068 -0.11473
C_ C_ 0.703492 0.366176 0.792427 -0.11473
C_ C_ 0.95539 0.359645 0.778979 -0.11473
C_ C_ 0.720013 0.426166 0.754198 -0.02249
C_ C_ 0.97304 0.419998 0.739236 -0.02249
C_ C_ 0.669133 0.31388 0.756543 0.6875
C_ C_ 0.916312 0.311438 0.746728 0.6875
C_ C_ 0.707846 0.409791 0.717439 -0.11473
C_ C_ 0.960005 0.402955 0.703202 -0.11473
C_ C_ 0.687407 0.158267 0.759597 -0.02249
C_ C_ 0.930627 0.152142 0.750867 -0.02249
C_ C_ 0.733922 0.0394411 0.758364 -0.02249
C_ C_ 0.985787 0.0410933 0.754891 -0.02249
C_ C_ 0.717757 0.106576 0.797073 -0.11473
C_ C_ 0.963393 0.105626 0.79014 -0.11473
C_ C_ 0.683864 0.130092 0.726441 -0.11473
C_ C_ 0.93422 0.129213 0.715241 -0.11473
C_ C_ 0.702129 0.142942 0.796043 -0.11473
C_ C_ 0.944387 0.14 0.788877 -0.11473
C_ C_ 0.716179 0.0796582 0.761758 -0.02249
C_ C_ 0.967463 0.0813969 0.755524 -0.02249
C_ C_ 0.668939 0.196672 0.759752 0.6875
C_ C_ 0.911735 0.189442 0.751052 0.6875
C_ C_ 0.700055 0.0930505 0.725311 -0.11473
C_ C_ 0.951792 0.0928369 0.717833 -0.11473
C_ C_ 0.57235 0.156078 0.750554 -0.02249
C_ C_ 0.817852 0.153805 0.7531 -0.02249
C_ C_ 0.52145 0.0380183 0.748963 -0.02249
C_ C_ 0.766006 0.0403709 0.75343 -0.02249
C_ C_ 0.54998 0.098949 0.712043 -0.11473
C_ C_ 0.787661 0.10037 0.71658 -0.11473
C_ C_ 0.562921 0.135599 0.786637 -0.11473
C_ C_ 0.814355 0.130983 0.79089 -0.11473
C_ C_ 0.562844 0.13855 0.711402 -0.11473
C_ C_ 0.806604 0.135793 0.71452 -0.11473
C_ C_ 0.540194 0.0786979 0.748062 -0.02249
C_ C_ 0.78271 0.0812033 0.755617 -0.02249
C_ C_ 0.589172 0.194853 0.751815 0.6875
C_ C_ 0.837182 0.191911 0.752959 0.6875
C_ C_ 0.546668 0.097691 0.785706 -0.11473
C_ C_ 0.798238 0.0933517 0.790543 -0.11473
C_ C_ 0.622802 0.293025 0.879579 0.17695
C_ C_ 0.903401 0.272928 0.874648 0.17695
C_ C_ 0.63081 0.219615 0.882806 0.17695
C_ C_ 0.855634 0.241682 0.877191 0.17695
C_ C_ 0.627792 0.219747 0.926194 -0.11473
C_ C_ 0.857249 0.243331 0.921178 -0.11473
C_ C_ 0.624644 0.257255 0.946459 0.23465
C_ C_ 0.882537 0.259586 0.943094 0.23465
C_ C_ 0.619944 0.293678 0.92298 -0.11473
C_ C_ 0.904321 0.277183 0.918877 -0.11473
C_ C_ 0.632834 0.294103 0.621769 0.17695
C_ C_ 0.873123 0.280335 0.62535 0.17695
C_ C_ 0.626317 0.219958 0.630868 0.17695
C_ C_ 0.867589 0.206102 0.626102 0.17695
C_ C_ 0.628127 0.213838 0.586063 -0.11473
C_ C_ 0.868333 0.201998 0.581794 -0.11473
C_ C_ 0.630456 0.248273 0.558881 0.23465
C_ C_ 0.872095 0.239843 0.557536 0.23465
C_ C_ 0.633717 0.288238 0.577048 -0.11473
C_ C_ 0.873576 0.277569 0.579638 -0.11473
C_ C_ 0.529807 0.502851 0.740422 0.05793
C_ C_ 0.784006 0.500674 0.76166 0.05793
C_ C_ 0.719446 0.000119265 0.761041 0.05793
C_ C_ 0.969241 0.00210923 0.756019 0.05793
Br Br 0.570269 0.503766 0.721285 -0.17191
Br Br 0.825784 0.503141 0.763575 -0.17191
Br Br 0.677044 -0.0002609999999999557 0.772207 -0.17191
Br Br 0.926196 -0.0014560000000000128 0.766492 -0.17191
N_ N_ 0.628178 0.255994 0.860254 -0.272
N_ N_ 0.879465 0.254644 0.855394 -0.272
N_ N_ 0.62035 0.258326 0.991094 -0.12501
N_ N_ 0.887191 0.257627 0.986559 -0.12501
N_ N_ 0.630236 0.259083 0.647109 -0.272
N_ N_ 0.870919 0.243622 0.645831 -0.272
N_ N_ 0.628757 0.242073 0.514443 -0.12501
N_ N_ 0.878201 0.238348 0.514171 -0.12501
O_ O_ 0.599898 0.305222 0.718577 -0.60745
O_ O_ 0.846776 0.298878 0.715434 -0.60745
O_ O_ 0.593883 0.294469 0.785466 -0.60745
O_ O_ 0.850493 0.296937 0.783451 -0.60745
O_ O_ 0.655267 0.303768 0.79031 -0.60745
O_ O_ 0.907905 0.298863 0.782722 -0.60745
O_ O_ 0.660502 0.299082 0.722282 -0.60745
O_ O_ 0.906854 0.291566 0.712956 -0.60745
O_ O_ 0.660403 0.211934 0.795219 -0.60745
O_ O_ 0.909171 0.20969 0.783633 -0.60745
O_ O_ 0.658503 0.211201 0.724829 -0.60745
O_ O_ 0.900323 0.201831 0.717888 -0.60745
O_ O_ 0.597836 0.212889 0.719515 -0.60745
O_ O_ 0.840018 0.212114 0.718642 -0.60745
O_ O_ 0.59686 0.208031 0.788186 -0.60745
O_ O_ 0.847901 0.206507 0.786685 -0.60745
Zn Zn 0.620962 0.747314 0.294112 0.9476
Zn Zn 0.874194 0.743246 0.286562 0.9476
Zn Zn 0.617303 0.747458 0.223509 0.9476
Zn Zn 0.872154 0.745416 0.216702 0.9476
H_ H_ 0.533381 0.923006 0.193965 0.10932
H_ H_ 0.782721 0.915126 0.18642 0.10932
H_ H_ 0.566361 0.856379 0.329411 0.10932
H_ H_ 0.816655 0.843901 0.314506 0.10932
H_ H_ 0.557649 0.853427 0.192933 0.10932
H_ H_ 0.803409 0.84673 0.182995 0.10932
H_ H_ 0.542857 0.927749 0.328283 0.10932
H_ H_ 0.782289 0.901849 0.321085 0.10932
H_ H_ 0.70437 0.918628 0.328261 0.10932
H_ H_ 0.970877 0.904916 0.317119 0.10932
H_ H_ 0.685097 0.847977 0.192668 0.10932
H_ H_ 0.91736 0.859569 0.186693 0.10932
H_ H_ 0.685161 0.848746 0.327275 0.10932
H_ H_ 0.940084 0.84224 0.316569 0.10932
H_ H_ 0.706529 0.920081 0.195486 0.10932
H_ H_ 0.95101 0.919158 0.182782 0.10932
H_ H_ 0.724887 0.588695 0.313408 0.10932
H_ H_ 0.955989 0.567671 0.312933 0.10932
H_ H_ 0.666807 0.635923 0.188631 0.10932
H_ H_ 0.951603 0.66112 0.19451 0.10932
H_ H_ 0.694917 0.647984 0.318934 0.10932
H_ H_ 0.935716 0.640252 0.324589 0.10932
H_ H_ 0.692295 0.568855 0.189515 0.10932
H_ H_ 0.971943 0.593981 0.183207 0.10932
H_ H_ 0.52768 0.583781 0.188058 0.10932
H_ H_ 0.761449 0.602144 0.186727 0.10932
H_ H_ 0.562764 0.639493 0.325815 0.10932
H_ H_ 0.822274 0.63308 0.312652 0.10932
H_ H_ 0.549826 0.657885 0.19413 0.10932
H_ H_ 0.797645 0.659669 0.184508 0.10932
H_ H_ 0.537574 0.572672 0.325605 0.10932
H_ H_ 0.797724 0.563689 0.303397 0.10932
H_ H_ 0.618318 0.683961 0.363993 0.10932
H_ H_ 0.867398 0.80993 0.365718 0.10932
H_ H_ 0.635255 0.811783 0.374068 0.10932
H_ H_ 0.863624 0.679618 0.360868 0.10932
H_ H_ 0.637388 0.805956 0.453353 0.10932
H_ H_ 0.867941 0.674705 0.436398 0.10932
H_ H_ 0.619557 0.676001 0.441698 0.10932
H_ H_ 0.871772 0.805262 0.443734 0.10932
H_ H_ 0.616516 0.67843 0.150657 0.10932
H_ H_ 0.886434 0.675683 0.152478 0.10932
H_ H_ 0.624261 0.808843 0.146792 0.10932
H_ H_ 0.872337 0.808901 0.143259 0.10932
H_ H_ 0.642945 0.804955 0.0735568 0.10932
H_ H_ 0.875394 0.801195 0.0653843 0.10932
H_ H_ 0.620393 0.673966 0.0724741 0.10932
H_ H_ 0.892163 0.670766 0.0720867 0.10932
C_ C_ 0.567078 0.852281 0.262019 -0.02249
C_ C_ 0.807942 0.83622 0.249599 -0.02249
C_ C_ 0.515994 0.964927 0.25904 -0.02249
C_ C_ 0.761266 0.953417 0.260743 -0.02249
C_ C_ 0.539455 0.906023 0.222525 -0.11473
C_ C_ 0.783385 0.895778 0.214098 -0.11473
C_ C_ 0.559773 0.871293 0.299882 -0.11473
C_ C_ 0.802729 0.852806 0.287414 -0.11473
C_ C_ 0.556171 0.871757 0.223339 -0.11473
C_ C_ 0.800661 0.859954 0.213813 -0.11473
C_ C_ 0.532698 0.925489 0.260962 -0.02249
C_ C_ 0.775165 0.911194 0.254316 -0.02249
C_ C_ 0.582388 0.81115 0.260389 0.6875
C_ C_ 0.832025 0.804021 0.246687 0.6875
C_ C_ 0.54372 0.909564 0.298626 -0.11473
C_ C_ 0.786884 0.889814 0.290555 -0.11473
C_ C_ 0.681333 0.844006 0.260519 -0.02249
C_ C_ 0.926381 0.847027 0.250932 -0.02249
C_ C_ 0.728782 0.958202 0.260768 -0.02249
C_ C_ 0.980003 0.957101 0.250938 -0.02249
C_ C_ 0.705594 0.901998 0.298729 -0.11473
C_ C_ 0.957887 0.89642 0.289022 -0.11473
C_ C_ 0.689949 0.864297 0.222601 -0.11473
C_ C_ 0.92885 0.871135 0.214854 -0.11473
C_ C_ 0.690874 0.86294 0.298298 -0.11473
C_ C_ 0.94147 0.859875 0.287779 -0.11473
C_ C_ 0.709632 0.921759 0.260806 -0.02249
C_ C_ 0.964669 0.916939 0.250731 -0.02249
C_ C_ 0.662194 0.804694 0.261116 0.6875
C_ C_ 0.909926 0.806449 0.252597 0.6875
C_ C_ 0.704047 0.902985 0.223937 -0.11473
C_ C_ 0.949646 0.903474 0.214655 -0.11473
C_ C_ 0.679791 0.648424 0.252468 -0.02249
C_ C_ 0.934721 0.650776 0.256967 -0.02249
C_ C_ 0.731216 0.53677 0.247404 -0.02249
C_ C_ 0.983005 0.535947 0.245566 -0.02249
C_ C_ 0.714064 0.600443 0.285426 -0.11473
C_ C_ 0.956188 0.58963 0.288745 -0.11473
C_ C_ 0.680916 0.626998 0.214423 -0.11473
C_ C_ 0.949334 0.639308 0.217877 -0.11473
C_ C_ 0.696915 0.635912 0.288861 -0.11473
C_ C_ 0.941416 0.626916 0.294513 -0.11473
C_ C_ 0.71309 0.575325 0.249563 -0.02249
C_ C_ 0.967104 0.577637 0.248996 -0.02249
C_ C_ 0.658359 0.685939 0.255892 0.6875
C_ C_ 0.912897 0.685873 0.258563 0.6875
C_ C_ 0.697511 0.590337 0.214451 -0.11473
C_ C_ 0.96473 0.602878 0.214404 -0.11473
C_ C_ 0.556486 0.653981 0.260875 -0.02249
C_ C_ 0.813381 0.651058 0.249088 -0.02249
C_ C_ 0.514594 0.534086 0.249776 -0.02249
C_ C_ 0.76299 0.536685 0.240151 -0.02249
C_ C_ 0.534063 0.598113 0.21952 -0.11473
C_ C_ 0.780919 0.60262 0.208202 -0.11473
C_ C_ 0.553836 0.628439 0.296381 -0.11473
C_ C_ 0.810649 0.624113 0.283923 -0.11473
C_ C_ 0.545241 0.640213 0.221963 -0.11473
C_ C_ 0.797608 0.6384 0.210882 -0.11473
C_ C_ 0.52945 0.574429 0.255643 -0.02249
C_ C_ 0.780579 0.576894 0.24133 -0.02249
C_ C_ 0.578411 0.687849 0.263004 0.6875
C_ C_ 0.83417 0.686821 0.249042 0.6875
C_ C_ 0.539256 0.589936 0.294959 -0.11473
C_ C_ 0.795869 0.586949 0.278608 -0.11473
C_ C_ 0.61796 0.711656 0.382208 0.17695
C_ C_ 0.869246 0.779616 0.38113 0.17695
C_ C_ 0.62946 0.783375 0.38919 0.17695
C_ C_ 0.865463 0.707613 0.378097 0.17695
C_ C_ 0.627543 0.781397 0.433124 -0.11473
C_ C_ 0.870964 0.703161 0.421362 -0.11473
C_ C_ 0.621128 0.743673 0.451199 0.23465
C_ C_ 0.871438 0.737618 0.445742 0.23465
C_ C_ 0.617565 0.707658 0.426574 -0.11473
C_ C_ 0.871247 0.777256 0.425397 -0.11473
C_ C_ 0.618653 0.70616 0.132297 0.17695
C_ C_ 0.885368 0.7025 0.132703 0.17695
C_ C_ 0.626118 0.779604 0.130826 0.17695
C_ C_ 0.877391 0.776882 0.127651 0.17695
C_ C_ 0.634889 0.777583 0.0895644 -0.11473
C_ C_ 0.882148 0.775735 0.0840296 -0.11473
C_ C_ 0.627819 0.741505 0.0652155 0.23465
C_ C_ 0.888441 0.73739 0.0651455 0.23465
C_ C_ 0.621325 0.704684 0.0883132 -0.11473
C_ C_ 0.890719 0.700536 0.0886484 -0.11473
C_ C_ 0.531085 1.00221155 0.257447 0.05793
C_ C_ 0.781048 0.989623 0.260424 0.05793
C_ C_ 0.715857 0.498009 0.249013 0.05793
C_ C_ 0.968019 0.498403 0.250477 0.05793
Br Br 0.574857 1.00205549 0.263595 -0.17191
Br Br 0.822725 0.98248 0.253497 -0.17191
Br Br 0.673365 0.496461 0.254956 -0.17191
Br Br 0.923803 0.499262 0.246178 -0.17191
N_ N_ 0.62207 0.74978 0.364541 -0.272
N_ N_ 0.869583 0.744981 0.357232 -0.272
N_ N_ 0.624821 0.739156 0.495177 -0.12501
N_ N_ 0.876009 0.733418 0.491117 -0.12501
N_ N_ 0.618203 0.743061 0.15212 -0.272
N_ N_ 0.876838 0.740555 0.148468 -0.272
N_ N_ 0.635038 0.738783 0.0217873 -0.12501
N_ N_ 0.890576 0.734712 0.0197592 -0.12501
O_ O_ 0.586604 0.795327 0.224967 -0.60745
O_ O_ 0.841353 0.7929 0.211531 -0.60745
O_ O_ 0.591461 0.79444 0.292733 -0.60745
O_ O_ 0.83938 0.784941 0.279418 -0.60745
O_ O_ 0.651986 0.790989 0.294663 -0.60745
O_ O_ 0.902306 0.789524 0.286767 -0.60745
O_ O_ 0.652898 0.789889 0.226584 -0.60745
O_ O_ 0.904349 0.788289 0.218589 -0.60745
O_ O_ 0.651922 0.702363 0.290871 -0.60745
O_ O_ 0.907324 0.70155 0.292774 -0.60745
O_ O_ 0.64371 0.697537 0.223115 -0.60745
O_ O_ 0.90034 0.69885 0.224126 -0.60745
O_ O_ 0.583587 0.706666 0.228904 -0.60745
O_ O_ 0.840624 0.701413 0.215154 -0.60745
O_ O_ 0.588731 0.70338 0.298129 -0.60745
O_ O_ 0.847684 0.699768 0.28239 -0.60745
Zn Zn 0.62414 0.749377 0.792528 0.9476
Zn Zn 0.881151 0.748563 0.790658 0.9476
Zn Zn 0.625293 0.753606 0.721948 0.9476
Zn Zn 0.876931 0.751644 0.719711 0.9476
H_ H_ 0.525804 0.903774 0.687606 0.10932
H_ H_ 0.781523 0.913367 0.692461 0.10932
H_ H_ 0.576408 0.865621 0.822922 0.10932
H_ H_ 0.822253 0.859503 0.826489 0.10932
H_ H_ 0.548964 0.836678 0.695474 0.10932
H_ H_ 0.819633 0.859277 0.690568 0.10932
H_ H_ 0.540153 0.923483 0.823882 0.10932
H_ H_ 0.797703 0.926574 0.823269 0.10932
H_ H_ 0.726697 0.907698 0.828793 0.10932
H_ H_ 0.971131 0.918092 0.825307 0.10932
H_ H_ 0.68107 0.862187 0.693532 0.10932
H_ H_ 0.931612 0.857484 0.692353 0.10932
H_ H_ 0.686872 0.852837 0.826815 0.10932
H_ H_ 0.938881 0.859849 0.825361 0.10932
H_ H_ 0.711801 0.924587 0.694944 0.10932
H_ H_ 0.96281 0.92441 0.69275 0.10932
H_ H_ 0.722217 0.586508 0.820727 0.10932
H_ H_ 0.95945 0.566723 0.806547 0.10932
H_ H_ 0.68462 0.653831 0.691173 0.10932
H_ H_ 0.943548 0.656682 0.682572 0.10932
H_ H_ 0.690697 0.650534 0.820588 0.10932
H_ H_ 0.920451 0.619497 0.805137 0.10932
H_ H_ 0.721887 0.591352 0.688845 0.10932
H_ H_ 0.969625 0.591261 0.674655 0.10932
H_ H_ 0.519055 0.601913 0.686699 0.10932
H_ H_ 0.778043 0.592191 0.691229 0.10932
H_ H_ 0.579273 0.633298 0.818134 0.10932
H_ H_ 0.823179 0.647764 0.821935 0.10932
H_ H_ 0.555136 0.660164 0.68654 0.10932
H_ H_ 0.815905 0.642198 0.687806 0.10932
H_ H_ 0.546595 0.569921 0.814693 0.10932
H_ H_ 0.790862 0.584727 0.827747 0.10932
H_ H_ 0.633271 0.688667 0.865772 0.10932
H_ H_ 0.871563 0.684185 0.873891 0.10932
H_ H_ 0.620899 0.818128 0.864005 0.10932
H_ H_ 0.895796 0.808901 0.860412 0.10932
H_ H_ 0.609117 0.816961 0.937669 0.10932
H_ H_ 0.899327 0.819812 0.936975 0.10932
H_ H_ 0.630941 0.686154 0.942213 0.10932
H_ H_ 0.872462 0.693685 0.949816 0.10932
H_ H_ 0.61257 0.692435 0.646779 0.10932
H_ H_ 0.877355 0.818194 0.644315 0.10932
H_ H_ 0.633919 0.818376 0.652259 0.10932
H_ H_ 0.869941 0.689349 0.643718 0.10932
H_ H_ 0.627169 0.825149 0.577959 0.10932
H_ H_ 0.860887 0.689808 0.564433 0.10932
H_ H_ 0.604375 0.696008 0.570728 0.10932
H_ H_ 0.876984 0.820488 0.566252 0.10932
C_ C_ 0.565658 0.846913 0.760172 -0.02249
C_ C_ 0.820665 0.850548 0.757996 -0.02249
C_ C_ 0.517802 0.963594 0.749832 -0.02249
C_ C_ 0.76786 0.964667 0.760182 -0.02249
C_ C_ 0.537728 0.897171 0.716965 -0.11473
C_ C_ 0.788674 0.901247 0.720736 -0.11473
C_ C_ 0.561188 0.870348 0.796607 -0.11473
C_ C_ 0.816003 0.873041 0.796423 -0.11473
C_ C_ 0.548598 0.858116 0.722581 -0.11473
C_ C_ 0.8078 0.866984 0.720492 -0.11473
C_ C_ 0.535004 0.921886 0.753745 -0.02249
C_ C_ 0.786247 0.925309 0.758416 -0.02249
C_ C_ 0.58606 0.809706 0.759333 0.6875
C_ C_ 0.842448 0.814927 0.757309 0.6875
C_ C_ 0.54761 0.909682 0.793356 -0.11473
C_ C_ 0.799943 0.908993 0.795835 -0.11473
C_ C_ 0.682309 0.850756 0.760738 -0.02249
C_ C_ 0.935188 0.84991 0.758334 -0.02249
C_ C_ 0.736248 0.96265 0.764204 -0.02249
C_ C_ 0.986134 0.965412 0.757791 -0.02249
C_ C_ 0.714732 0.899658 0.7997 -0.11473
C_ C_ 0.96249 0.906095 0.796452 -0.11473
C_ C_ 0.688446 0.874135 0.723949 -0.11473
C_ C_ 0.943303 0.867751 0.721535 -0.11473
C_ C_ 0.695465 0.864859 0.79783 -0.11473
C_ C_ 0.944052 0.870573 0.79627 -0.11473
C_ C_ 0.719409 0.923991 0.763502 -0.02249
C_ C_ 0.970202 0.924591 0.758337 -0.02249
C_ C_ 0.663063 0.813392 0.75705 0.6875
C_ C_ 0.920079 0.80878 0.756599 0.6875
C_ C_ 0.705924 0.910455 0.725149 -0.11473
C_ C_ 0.957057 0.907544 0.72183 -0.11473
C_ C_ 0.680279 0.651301 0.756016 -0.02249
C_ C_ 0.93235 0.648839 0.748014 -0.02249
C_ C_ 0.736859 0.54003 0.755836 -0.02249
C_ C_ 0.985875 0.537765 0.738458 -0.02249
C_ C_ 0.713669 0.600249 0.791546 -0.11473
C_ C_ 0.957111 0.585779 0.779279 -0.11473
C_ C_ 0.68875 0.632149 0.718408 -0.11473
C_ C_ 0.944178 0.636149 0.708605 -0.11473
C_ C_ 0.691515 0.633229 0.792258 -0.11473
C_ C_ 0.935966 0.619983 0.781475 -0.11473
C_ C_ 0.719598 0.580402 0.754675 -0.02249
C_ C_ 0.968515 0.576441 0.740193 -0.02249
C_ C_ 0.661372 0.689409 0.756829 0.6875
C_ C_ 0.912509 0.684989 0.752136 0.6875
C_ C_ 0.710929 0.599413 0.717328 -0.11473
C_ C_ 0.961545 0.600055 0.704345 -0.11473
C_ C_ 0.569794 0.651426 0.753143 -0.02249
C_ C_ 0.820994 0.650764 0.755928 -0.02249
C_ C_ 0.514661 0.540508 0.747265 -0.02249
C_ C_ 0.768774 0.539186 0.759776 -0.02249
C_ C_ 0.533118 0.606807 0.714601 -0.11473
C_ C_ 0.79361 0.596036 0.720004 -0.11473
C_ C_ 0.566107 0.62492 0.788188 -0.11473
C_ C_ 0.81154 0.636009 0.794777 -0.11473
C_ C_ 0.551977 0.643085 0.715662 -0.11473
C_ C_ 0.813755 0.630245 0.718584 -0.11473
C_ C_ 0.533009 0.578902 0.749031 -0.02249
C_ C_ 0.785459 0.579596 0.759242 -0.02249
C_ C_ 0.58944 0.687708 0.756449 0.6875
C_ C_ 0.838461 0.690961 0.753825 0.6875
C_ C_ 0.547259 0.58995 0.787254 -0.11473
C_ C_ 0.794711 0.600173 0.796583 -0.11473
C_ C_ 0.631317 0.717999 0.882484 0.17695
C_ C_ 0.875608 0.714125 0.888516 0.17695
C_ C_ 0.623773 0.789348 0.882579 0.17695
C_ C_ 0.888845 0.785641 0.879585 0.17695
C_ C_ 0.620782 0.790204 0.926649 -0.11473
C_ C_ 0.892775 0.790581 0.923909 -0.11473
C_ C_ 0.625718 0.753991 0.950714 0.23465
C_ C_ 0.886317 0.756377 0.950119 0.23465
C_ C_ 0.632257 0.717325 0.927851 -0.11473
C_ C_ 0.879132 0.717875 0.932184 -0.11473
C_ C_ 0.61647 0.720214 0.629479 0.17695
C_ C_ 0.872709 0.789603 0.625679 0.17695
C_ C_ 0.625147 0.792783 0.633589 0.17695
C_ C_ 0.872312 0.71727 0.626298 0.17695
C_ C_ 0.626215 0.795511 0.59024 -0.11473
C_ C_ 0.868427 0.717239 0.581825 -0.11473
C_ C_ 0.617999 0.760115 0.566259 0.23465
C_ C_ 0.86958 0.755661 0.55956 0.23465
C_ C_ 0.613447 0.721716 0.586518 -0.11473
C_ C_ 0.87384 0.791358 0.58154 -0.11473
C_ C_ 0.534825 -0.000170244 0.752246 0.05793
C_ C_ 0.782143 0.00322058 0.753698 0.05793
C_ C_ 0.721849 0.503286 0.747509 0.05793
C_ C_ 0.969925 0.498761 0.739968 0.05793
Br Br 0.578226 -0.0049719999999999764 0.7511 -0.17191
Br Br 0.82396 1.0048884 0.744472 -0.17191
Br Br 0.679621 0.50452 0.732192 -0.17191
Br Br 0.927117 0.496604 0.735543 -0.17191
N_ N_ 0.627294 0.753424 0.861193 -0.272
N_ N_ 0.882767 0.747094 0.863876 -0.272
N_ N_ 0.617845 0.752796 0.994841 -0.12501
N_ N_ 0.887924 0.765027 0.994188 -0.12501
N_ N_ 0.620835 0.755285 0.653657 -0.272
N_ N_ 0.873836 0.753964 0.64699 -0.272
N_ N_ 0.614275 0.764617 0.520496 -0.12501
N_ N_ 0.864841 0.759411 0.515571 -0.12501
O_ O_ 0.593884 0.793751 0.724927 -0.60745
O_ O_ 0.847091 0.798144 0.722011 -0.60745
O_ O_ 0.593114 0.792498 0.792753 -0.60745
O_ O_ 0.853194 0.798918 0.790792 -0.60745
O_ O_ 0.654771 0.79469 0.791471 -0.60745
O_ O_ 0.91331 0.792365 0.790305 -0.60745
O_ O_ 0.655541 0.797026 0.721845 -0.60745
O_ O_ 0.91101 0.795737 0.721375 -0.60745
O_ O_ 0.655933 0.706757 0.791381 -0.60745
O_ O_ 0.909405 0.70193 0.78746 -0.60745
O_ O_ 0.658626 0.709677 0.722695 -0.60745
O_ O_ 0.907425 0.705791 0.720075 -0.60745
O_ O_ 0.59676 0.707687 0.724001 -0.60745
O_ O_ 0.842051 0.711145 0.720718 -0.60745
O_ O_ 0.597302 0.700486 0.79318 -0.60745
O_ O_ 0.85002 0.705072 0.788327 -0.60745
