_cell_length_a 44.444
_cell_length_b 32.3360000049186
_cell_length_c 31.843999878906452
_cell_angle_alpha 89.99799923859553
_cell_angle_beta 91.13600050494348
_cell_angle_gamma 89.9990006550086
_symmetry_space_group_name_H-M         'P 1'
_symmetry_Int_Tables_number            1
loop_
_symmetry_equiv_pos_as_xyz
   'x, y, z'
                         
loop_
_atom_site_label
_atom_site_type_symbol
_atom_site_fract_x 
_atom_site_fract_y
_atom_site_fract_z
_atom_site_charge
Zn Zn 0.122896 0.246044 0.28414 0.9476
Zn Zn 0.377053 0.247972 0.294753 0.9476
Zn Zn 0.121759 0.249823 0.215123 0.9476
Zn Zn 0.375503 0.247387 0.221089 0.9476
H_ H_ 0.0321608 0.417312 0.187315 0.10932
H_ H_ 0.288539 0.420506 0.191664 0.10932
H_ H_ 0.0583088 0.345616 0.321734 0.10932
H_ H_ 0.309099 0.340848 0.321299 0.10932
H_ H_ 0.0567042 0.35452 0.186526 0.10932
H_ H_ 0.305521 0.347396 0.190657 0.10932
H_ H_ 0.031543 0.410453 0.324727 0.10932
H_ H_ 0.277219 0.400389 0.326885 0.10932
H_ H_ 0.211853 0.415804 0.329228 0.10932
H_ H_ 0.447485 0.43587 0.313314 0.10932
H_ H_ 0.189257 0.352867 0.188808 0.10932
H_ H_ 0.464372 0.322757 0.206138 0.10932
H_ H_ 0.179004 0.352934 0.323863 0.10932
H_ H_ 0.420146 0.367836 0.317706 0.10932
H_ H_ 0.213581 0.417632 0.192389 0.10932
H_ H_ 0.484146 0.40078 0.192512 0.10932
H_ H_ 0.198473 0.0654253 0.307309 0.10932
H_ H_ 0.476727 0.0848535 0.325666 0.10932
H_ H_ 0.190014 0.154222 0.181477 0.10932
H_ H_ 0.441561 0.150929 0.190584 0.10932
H_ H_ 0.173806 0.133575 0.311124 0.10932
H_ H_ 0.442723 0.14414 0.330814 0.10932
H_ H_ 0.222685 0.0923835 0.180663 0.10932
H_ H_ 0.465824 0.0843268 0.190854 0.10932
H_ H_ 0.0195964 0.0866358 0.17795 0.10932
H_ H_ 0.289198 0.0773778 0.179891 0.10932
H_ H_ 0.0731095 0.133838 0.307669 0.10932
H_ H_ 0.308899 0.146711 0.319636 0.10932
H_ H_ 0.0477623 0.153094 0.178777 0.10932
H_ H_ 0.325085 0.133589 0.187095 0.10932
H_ H_ 0.0409026 0.0695822 0.307987 0.10932
H_ H_ 0.27784 0.0816738 0.314077 0.10932
H_ H_ 0.118484 0.180025 0.353282 0.10932
H_ H_ 0.363739 0.31292 0.368043 0.10932
H_ H_ 0.124342 0.309624 0.362531 0.10932
H_ H_ 0.37411 0.182881 0.361849 0.10932
H_ H_ 0.12542 0.306015 0.43985 0.10932
H_ H_ 0.375799 0.177484 0.437566 0.10932
H_ H_ 0.112418 0.176428 0.432386 0.10932
H_ H_ 0.359675 0.309945 0.444693 0.10932
H_ H_ 0.0966454 0.304297 0.139017 0.10932
H_ H_ 0.346017 0.20163 0.140893 0.10932
H_ H_ 0.149716 0.198578 0.137504 0.10932
H_ H_ 0.409877 0.298929 0.152479 0.10932
H_ H_ 0.159095 0.208894 0.0585337 0.10932
H_ H_ 0.416442 0.293208 0.0755503 0.10932
H_ H_ 0.0982598 0.311878 0.0634327 0.10932
H_ H_ 0.344853 0.2088 0.0634955 0.10932
C_ C_ 0.0638184 0.345421 0.253883 -0.02249
C_ C_ 0.313252 0.342279 0.254515 -0.02249
C_ C_ 0.0141309 0.46257 0.256855 -0.02249
C_ C_ 0.265048 0.459981 0.261854 -0.02249
C_ C_ 0.0399921 0.404814 0.218038 -0.11473
C_ C_ 0.291581 0.403374 0.221238 -0.11473
C_ C_ 0.0557939 0.363515 0.292488 -0.11473
C_ C_ 0.30131 0.355288 0.292427 -0.11473
C_ C_ 0.0540088 0.366945 0.217428 -0.11473
C_ C_ 0.306479 0.366225 0.21981 -0.11473
C_ C_ 0.0305269 0.421851 0.255614 -0.02249
C_ C_ 0.281286 0.418562 0.2592 -0.02249
C_ C_ 0.0805391 0.306495 0.250929 0.6875
C_ C_ 0.337155 0.307731 0.252988 0.6875
C_ C_ 0.0388321 0.400633 0.293119 -0.11473
C_ C_ 0.286854 0.392927 0.296449 -0.11473
C_ C_ 0.179764 0.348581 0.256677 -0.02249
C_ C_ 0.438657 0.344529 0.260154 -0.02249
C_ C_ 0.233583 0.461537 0.262643 -0.02249
C_ C_ 0.485204 0.45996 0.248126 -0.02249
C_ C_ 0.205141 0.403607 0.297925 -0.11473
C_ C_ 0.450682 0.41261 0.288128 -0.11473
C_ C_ 0.189598 0.368434 0.219153 -0.11473
C_ C_ 0.46032 0.350364 0.228123 -0.11473
C_ C_ 0.186274 0.368831 0.296234 -0.11473
C_ C_ 0.435917 0.375324 0.291733 -0.11473
C_ C_ 0.215606 0.421103 0.259275 -0.02249
C_ C_ 0.469389 0.420202 0.252297 -0.02249
C_ C_ 0.157888 0.313711 0.256586 0.6875
C_ C_ 0.419847 0.306403 0.261591 0.6875
C_ C_ 0.206522 0.403909 0.220942 -0.11473
C_ C_ 0.471177 0.391186 0.220129 -0.11473
C_ C_ 0.1798 0.149444 0.246014 -0.02249
C_ C_ 0.441221 0.156805 0.261013 -0.02249
C_ C_ 0.232191 0.0363124 0.242344 -0.02249
C_ C_ 0.486701 0.0359103 0.2544 -0.02249
C_ C_ 0.200276 0.0886145 0.282504 -0.11473
C_ C_ 0.464424 0.0959419 0.296873 -0.11473
C_ C_ 0.192597 0.136625 0.209086 -0.11473
C_ C_ 0.449212 0.139478 0.222079 -0.11473
C_ C_ 0.183822 0.124802 0.282529 -0.11473
C_ C_ 0.451425 0.135655 0.299288 -0.11473
C_ C_ 0.214065 0.0763744 0.245651 -0.02249
C_ C_ 0.470061 0.0776827 0.256482 -0.02249
C_ C_ 0.162284 0.188454 0.24735 0.6875
C_ C_ 0.418342 0.191512 0.261175 0.6875
C_ C_ 0.209991 0.100707 0.208522 -0.11473
C_ C_ 0.464258 0.101196 0.221017 -0.11473
C_ C_ 0.0632058 0.149327 0.243912 -0.02249
C_ C_ 0.317155 0.147862 0.254248 -0.02249
C_ C_ 0.0138905 0.0325892 0.243235 -0.02249
C_ C_ 0.263938 0.0374375 0.248578 -0.02249
C_ C_ 0.0334877 0.0956653 0.205075 -0.11473
C_ C_ 0.292027 0.0930596 0.21122 -0.11473
C_ C_ 0.0606936 0.124316 0.279627 -0.11473
C_ C_ 0.304312 0.132217 0.289821 -0.11473
C_ C_ 0.0510701 0.133208 0.205485 -0.11473
C_ C_ 0.30994 0.128161 0.213202 -0.11473
C_ C_ 0.0317499 0.0712583 0.242479 -0.02249
C_ C_ 0.28112 0.0763836 0.248757 -0.02249
C_ C_ 0.0810193 0.18874 0.244287 0.6875
C_ C_ 0.33575 0.185789 0.253401 0.6875
C_ C_ 0.0462671 0.0857119 0.278173 -0.11473
C_ C_ 0.284913 0.0975496 0.286599 -0.11473
C_ C_ 0.119291 0.207853 0.373327 0.17695
C_ C_ 0.369501 0.283951 0.383772 0.17695
C_ C_ 0.122591 0.279398 0.377583 0.17695
C_ C_ 0.37507 0.211878 0.380087 0.17695
C_ C_ 0.12096 0.277921 0.421713 -0.11473
C_ C_ 0.375893 0.208071 0.425475 -0.11473
C_ C_ 0.11914 0.241025 0.44285 0.23465
C_ C_ 0.372759 0.243488 0.449309 0.23465
C_ C_ 0.118343 0.205253 0.419176 -0.11473
C_ C_ 0.366499 0.281549 0.427396 -0.11473
C_ C_ 0.110798 0.284761 0.122631 0.17695
C_ C_ 0.358383 0.227881 0.126189 0.17695
C_ C_ 0.139429 0.223888 0.120862 0.17695
C_ C_ 0.396213 0.27817 0.132513 0.17695
C_ C_ 0.144444 0.230472 0.0775419 -0.11473
C_ C_ 0.398252 0.279752 0.0887559 -0.11473
C_ C_ 0.127747 0.26015 0.0548652 0.23465
C_ C_ 0.380179 0.253468 0.0628179 0.23465
C_ C_ 0.111928 0.290265 0.0782818 -0.11473
C_ C_ 0.35885 0.230068 0.0821557 -0.11473
C_ C_ 0.0297277 0.499704 0.249677 0.05793
C_ C_ 0.282766 0.497393 0.26043 0.05793
C_ C_ 0.216795 -0.0006610000000000227 0.240895 0.05793
C_ C_ 0.471017 0.999034 0.257975 0.05793
Br Br 0.0726952 0.499297 0.239602 -0.17191
Br Br 0.327454 0.491593 0.266389 -0.17191
Br Br 0.172688 -0.002271000000000023 0.236228 -0.17191
Br Br 0.429831 0.998861 0.276168 -0.17191
N_ N_ 0.123132 0.244914 0.35404 -0.272
N_ N_ 0.372138 0.248827 0.36125 -0.272
N_ N_ 0.120655 0.237035 0.488644 -0.12501
N_ N_ 0.370776 0.241239 0.493134 -0.12501
N_ N_ 0.122719 0.252133 0.143404 -0.272
N_ N_ 0.377467 0.251033 0.150479 -0.272
N_ N_ 0.127943 0.263189 0.0102173 -0.12501
N_ N_ 0.382257 0.257912 0.0175654 -0.12501
O_ O_ 0.0887544 0.292184 0.21677 -0.60745
O_ O_ 0.34482 0.291126 0.219437 -0.60745
O_ O_ 0.0893286 0.289823 0.285908 -0.60745
O_ O_ 0.342777 0.288469 0.286017 -0.60745
O_ O_ 0.153142 0.293739 0.29015 -0.60745
O_ O_ 0.409983 0.293454 0.29555 -0.60745
O_ O_ 0.150322 0.297039 0.221796 -0.60745
O_ O_ 0.407001 0.291504 0.227922 -0.60745
O_ O_ 0.155246 0.203451 0.28299 -0.60745
O_ O_ 0.409554 0.207725 0.295872 -0.60745
O_ O_ 0.152734 0.206559 0.215282 -0.60745
O_ O_ 0.409013 0.205531 0.227054 -0.60745
O_ O_ 0.0935633 0.20175 0.210954 -0.60745
O_ O_ 0.343582 0.200733 0.21771 -0.60745
O_ O_ 0.0894082 0.203111 0.280088 -0.60745
O_ O_ 0.347078 0.202993 0.2873 -0.60745
Zn Zn 0.123787 0.247063 0.783493 0.9476
Zn Zn 0.374637 0.250578 0.787815 0.9476
Zn Zn 0.122059 0.250519 0.711823 0.9476
Zn Zn 0.376699 0.249202 0.718815 0.9476
H_ H_ 0.0247238 0.406091 0.687153 0.10932
H_ H_ 0.266854 0.401145 0.690726 0.10932
H_ H_ 0.0844328 0.372193 0.813645 0.10932
H_ H_ 0.332718 0.369916 0.81419 0.10932
H_ H_ 0.0398529 0.338576 0.692965 0.10932
H_ H_ 0.296555 0.337867 0.688604 0.10932
H_ H_ 0.0564176 0.438909 0.809204 0.10932
H_ H_ 0.297529 0.428179 0.816754 0.10932
H_ H_ 0.215789 0.415857 0.81878 0.10932
H_ H_ 0.471288 0.413896 0.822183 0.10932
H_ H_ 0.170607 0.367213 0.684103 0.10932
H_ H_ 0.43437 0.35536 0.693119 0.10932
H_ H_ 0.193027 0.346115 0.816068 0.10932
H_ H_ 0.436599 0.356496 0.829368 0.10932
H_ H_ 0.195709 0.432585 0.688675 0.10932
H_ H_ 0.462516 0.420489 0.687718 0.10932
H_ H_ 0.217875 0.0829365 0.81103 0.10932
H_ H_ 0.448865 0.0756868 0.818748 0.10932
H_ H_ 0.198168 0.163749 0.678539 0.10932
H_ H_ 0.446584 0.158512 0.6887 0.10932
H_ H_ 0.197927 0.153556 0.81257 0.10932
H_ H_ 0.425887 0.142533 0.820467 0.10932
H_ H_ 0.22029 0.0936088 0.67499 0.10932
H_ H_ 0.471574 0.0895769 0.687662 0.10932
H_ H_ 0.036821 0.0815697 0.675283 0.10932
H_ H_ 0.281241 0.0920204 0.682122 0.10932
H_ H_ 0.0654029 0.145215 0.812924 0.10932
H_ H_ 0.326639 0.135444 0.817848 0.10932
H_ H_ 0.0658766 0.146721 0.675387 0.10932
H_ H_ 0.303344 0.161124 0.688851 0.10932
H_ H_ 0.0379977 0.0790505 0.807519 0.10932
H_ H_ 0.296589 0.0716101 0.813445 0.10932
H_ H_ 0.13907 0.306553 0.865761 0.10932
H_ H_ 0.415315 0.212043 0.872587 0.10932
H_ H_ 0.102082 0.185239 0.852798 0.10932
H_ H_ 0.33395 0.287384 0.860963 0.10932
H_ H_ 0.1132 0.175713 0.931455 0.10932
H_ H_ 0.328934 0.283518 0.93703 0.10932
H_ H_ 0.139418 0.300117 0.942214 0.10932
H_ H_ 0.412378 0.219283 0.949376 0.10932
H_ H_ 0.131302 0.194171 0.638276 0.10932
H_ H_ 0.364808 0.19352 0.637495 0.10932
H_ H_ 0.113263 0.320217 0.646076 0.10932
H_ H_ 0.39454 0.315254 0.655396 0.10932
H_ H_ 0.103745 0.323446 0.56885 0.10932
H_ H_ 0.397726 0.323529 0.570776 0.10932
H_ H_ 0.13161 0.198288 0.558659 0.10932
H_ H_ 0.366166 0.200618 0.559961 0.10932
C_ C_ 0.0655639 0.348649 0.752849 -0.02249
C_ C_ 0.317688 0.346885 0.753402 -0.02249
C_ C_ 0.0160265 0.465293 0.747466 -0.02249
C_ C_ 0.264557 0.460931 0.749005 -0.02249
C_ C_ 0.0301262 0.396035 0.717886 -0.11473
C_ C_ 0.280392 0.392119 0.718069 -0.11473
C_ C_ 0.0691149 0.378501 0.786539 -0.11473
C_ C_ 0.316696 0.374226 0.787629 -0.11473
C_ C_ 0.0429712 0.357702 0.721614 -0.11473
C_ C_ 0.297529 0.35488 0.718181 -0.11473
C_ C_ 0.0335753 0.42543 0.751853 -0.02249
C_ C_ 0.281055 0.42037 0.751815 -0.02249
C_ C_ 0.0823178 0.31003 0.750274 0.6875
C_ C_ 0.337448 0.309291 0.756145 0.6875
C_ C_ 0.052403 0.414814 0.785652 -0.11473
C_ C_ 0.297235 0.408189 0.78797 -0.11473
C_ C_ 0.183808 0.346823 0.747637 -0.02249
C_ C_ 0.435964 0.347538 0.759965 -0.02249
C_ C_ 0.231905 0.461496 0.750259 -0.02249
C_ C_ 0.485716 0.464088 0.757188 -0.02249
C_ C_ 0.212359 0.399023 0.788911 -0.11473
C_ C_ 0.461211 0.404577 0.795795 -0.11473
C_ C_ 0.185609 0.370719 0.712065 -0.11473
C_ C_ 0.444174 0.366993 0.721918 -0.11473
C_ C_ 0.196207 0.361165 0.786464 -0.11473
C_ C_ 0.44408 0.368159 0.798397 -0.11473
C_ C_ 0.215621 0.420966 0.750701 -0.02249
C_ C_ 0.468731 0.423737 0.756165 -0.02249
C_ C_ 0.164561 0.30683 0.747244 0.6875
C_ C_ 0.418918 0.307436 0.759854 0.6875
C_ C_ 0.200594 0.407766 0.714117 -0.11473
C_ C_ 0.457411 0.406484 0.718835 -0.11473
C_ C_ 0.187509 0.157801 0.746918 -0.02249
C_ C_ 0.433192 0.154069 0.754003 -0.02249
C_ C_ 0.234783 0.0418124 0.739773 -0.02249
C_ C_ 0.483459 0.0383619 0.756742 -0.02249
C_ C_ 0.213268 0.10118 0.780374 -0.11473
C_ C_ 0.452995 0.0939474 0.792576 -0.11473
C_ C_ 0.197281 0.143693 0.706806 -0.11473
C_ C_ 0.446787 0.138267 0.71753 -0.11473
C_ C_ 0.201234 0.139454 0.783823 -0.11473
C_ C_ 0.437244 0.130504 0.792232 -0.11473
C_ C_ 0.220107 0.0831926 0.741232 -0.02249
C_ C_ 0.46724 0.0789184 0.754339 -0.02249
C_ C_ 0.163594 0.189572 0.748245 0.6875
C_ C_ 0.414167 0.191772 0.752642 0.6875
C_ C_ 0.210882 0.104475 0.704732 -0.11473
C_ C_ 0.462574 0.100625 0.717562 -0.11473
C_ C_ 0.0652886 0.15121 0.743944 -0.02249
C_ C_ 0.32006 0.149851 0.749557 -0.02249
C_ C_ 0.0156458 0.0365804 0.739331 -0.02249
C_ C_ 0.26606 0.0380463 0.745031 -0.02249
C_ C_ 0.0395533 0.0984194 0.704283 -0.11473
C_ C_ 0.287504 0.102618 0.711501 -0.11473
C_ C_ 0.0575045 0.131603 0.781526 -0.11473
C_ C_ 0.316606 0.125543 0.786112 -0.11473
C_ C_ 0.0577859 0.133335 0.70521 -0.11473
C_ C_ 0.305094 0.137707 0.712061 -0.11473
C_ C_ 0.0330344 0.076891 0.741545 -0.02249
C_ C_ 0.286493 0.0766103 0.746677 -0.02249
C_ C_ 0.0859169 0.185949 0.74478 0.6875
C_ C_ 0.336683 0.189057 0.750572 0.6875
C_ C_ 0.0384093 0.0964077 0.780225 -0.11473
C_ C_ 0.3007 0.0884641 0.785276 -0.11473
C_ C_ 0.127322 0.281133 0.87874 0.17695
C_ C_ 0.397519 0.230951 0.884804 0.17695
C_ C_ 0.112364 0.210264 0.871128 0.17695
C_ C_ 0.352114 0.271407 0.87871 0.17695
C_ C_ 0.117392 0.204214 0.915594 -0.11473
C_ C_ 0.347689 0.267831 0.922338 -0.11473
C_ C_ 0.124249 0.237555 0.940756 0.23465
C_ C_ 0.369289 0.24782 0.946936 0.23465
C_ C_ 0.129523 0.276574 0.922456 -0.11473
C_ C_ 0.395675 0.233979 0.928577 -0.11473
C_ C_ 0.125905 0.222754 0.621074 0.17695
C_ C_ 0.370855 0.220996 0.623819 0.17695
C_ C_ 0.116399 0.293208 0.626 0.17695
C_ C_ 0.389654 0.289018 0.632081 0.17695
C_ C_ 0.11277 0.296217 0.582725 -0.11473
C_ C_ 0.390887 0.294317 0.586415 -0.11473
C_ C_ 0.117803 0.263294 0.55661 0.23465
C_ C_ 0.380046 0.262387 0.562593 0.23465
C_ C_ 0.124075 0.224378 0.576682 -0.11473
C_ C_ 0.36951 0.22586 0.580431 -0.11473
C_ C_ 0.0317033 0.503293 0.749776 0.05793
C_ C_ 0.280978 0.498854 0.748083 0.05793
C_ C_ 0.21628 0.00656837 0.739509 0.05793
C_ C_ 0.466374 0.999679 0.756067 0.05793
Br Br 0.0755519 0.505927 0.74387 -0.17191
Br Br 0.323609 0.49835 0.751617 -0.17191
Br Br 0.172144 0.0165951 0.744172 -0.17191
Br Br 0.424518 1.00279596 0.77089 -0.17191
N_ N_ 0.121802 0.248115 0.854073 -0.272
N_ N_ 0.373289 0.246339 0.86098 -0.272
N_ N_ 0.126519 0.233205 0.985766 -0.12501
N_ N_ 0.365089 0.241611 0.990949 -0.12501
N_ N_ 0.120869 0.255358 0.644868 -0.272
N_ N_ 0.379172 0.253768 0.649369 -0.272
N_ N_ 0.117668 0.268408 0.511822 -0.12501
N_ N_ 0.379829 0.269048 0.517687 -0.12501
O_ O_ 0.0902964 0.294844 0.714985 -0.60745
O_ O_ 0.351002 0.297134 0.72237 -0.60745
O_ O_ 0.0918007 0.291046 0.783286 -0.60745
O_ O_ 0.344463 0.294179 0.790457 -0.60745
O_ O_ 0.154813 0.291203 0.780731 -0.60745
O_ O_ 0.404723 0.297468 0.791509 -0.60745
O_ O_ 0.152505 0.297067 0.713006 -0.60745
O_ O_ 0.412623 0.289554 0.724993 -0.60745
O_ O_ 0.153518 0.20149 0.781865 -0.60745
O_ O_ 0.406625 0.207954 0.786106 -0.60745
O_ O_ 0.156044 0.206422 0.713614 -0.60745
O_ O_ 0.406243 0.205092 0.717258 -0.60745
O_ O_ 0.0909749 0.205449 0.711904 -0.60745
O_ O_ 0.345101 0.206507 0.718453 -0.60745
O_ O_ 0.0934881 0.201339 0.780788 -0.60745
O_ O_ 0.344161 0.204248 0.786684 -0.60745
Zn Zn 0.125885 0.751727 0.277114 0.9476
Zn Zn 0.377716 0.750654 0.281907 0.9476
Zn Zn 0.125642 0.748595 0.209155 0.9476
Zn Zn 0.37699 0.750222 0.211517 0.9476
H_ H_ 0.0219008 0.909354 0.174088 0.10932
H_ H_ 0.292725 0.927041 0.178256 0.10932
H_ H_ 0.06616 0.85113 0.309262 0.10932
H_ H_ 0.308102 0.846457 0.307362 0.10932
H_ H_ 0.0517862 0.843028 0.177822 0.10932
H_ H_ 0.328331 0.866147 0.181573 0.10932
H_ H_ 0.0365211 0.919834 0.310831 0.10932
H_ H_ 0.273611 0.905913 0.30991 0.10932
H_ H_ 0.212075 0.92065 0.307418 0.10932
H_ H_ 0.485564 0.900615 0.315894 0.10932
H_ H_ 0.194759 0.843606 0.177446 0.10932
H_ H_ 0.422432 0.870547 0.189058 0.10932
H_ H_ 0.174693 0.861787 0.305969 0.10932
H_ H_ 0.452859 0.837398 0.316354 0.10932
H_ H_ 0.216433 0.911992 0.172546 0.10932
H_ H_ 0.4464 0.934028 0.195363 0.10932
H_ H_ 0.20292 0.572869 0.316255 0.10932
H_ H_ 0.456178 0.56882 0.308411 0.10932
H_ H_ 0.201229 0.655159 0.182819 0.10932
H_ H_ 0.446403 0.657978 0.18218 0.10932
H_ H_ 0.183366 0.645901 0.315511 0.10932
H_ H_ 0.42368 0.629684 0.310522 0.10932
H_ H_ 0.225542 0.590788 0.184533 0.10932
H_ H_ 0.481887 0.596842 0.186681 0.10932
H_ H_ 0.0178564 0.593239 0.182121 0.10932
H_ H_ 0.306845 0.564415 0.192831 0.10932
H_ H_ 0.0770336 0.634004 0.31055 0.10932
H_ H_ 0.29315 0.664528 0.303203 0.10932
H_ H_ 0.059149 0.643358 0.177525 0.10932
H_ H_ 0.340454 0.627366 0.19535 0.10932
H_ H_ 0.0424254 0.573897 0.312661 0.10932
H_ H_ 0.274227 0.594934 0.316583 0.10932
H_ H_ 0.11077 0.819094 0.346674 0.10932
H_ H_ 0.39267 0.806651 0.367154 0.10932
H_ H_ 0.137602 0.695115 0.356577 0.10932
H_ H_ 0.357978 0.685952 0.349177 0.10932
H_ H_ 0.142508 0.701982 0.433889 0.10932
H_ H_ 0.354277 0.679034 0.426617 0.10932
H_ H_ 0.114935 0.824797 0.4228 0.10932
H_ H_ 0.394864 0.797232 0.443172 0.10932
H_ H_ 0.132418 0.679964 0.133744 0.10932
H_ H_ 0.368823 0.811516 0.139599 0.10932
H_ H_ 0.120818 0.810653 0.127473 0.10932
H_ H_ 0.367689 0.680034 0.133788 0.10932
H_ H_ 0.1114 0.807905 0.0538698 0.10932
H_ H_ 0.375315 0.681107 0.058282 0.10932
H_ H_ 0.127082 0.676998 0.0569636 0.10932
H_ H_ 0.373289 0.816711 0.0643051 0.10932
C_ C_ 0.0642535 0.844431 0.241775 -0.02249
C_ C_ 0.318469 0.851854 0.243592 -0.02249
C_ C_ 0.0124118 0.958467 0.238454 -0.02249
C_ C_ 0.264923 0.960042 0.244925 -0.02249
C_ C_ 0.032713 0.896572 0.203634 -0.11473
C_ C_ 0.296173 0.910975 0.207501 -0.11473
C_ C_ 0.0594274 0.867072 0.280614 -0.11473
C_ C_ 0.302163 0.861577 0.279861 -0.11473
C_ C_ 0.0494815 0.859751 0.205083 -0.11473
C_ C_ 0.315919 0.877057 0.207746 -0.11473
C_ C_ 0.0285198 0.918715 0.240934 -0.02249
C_ C_ 0.280793 0.921789 0.24467 -0.02249
C_ C_ 0.0842546 0.806848 0.241253 0.6875
C_ C_ 0.340523 0.816467 0.244334 0.6875
C_ C_ 0.0408559 0.902654 0.280776 -0.11473
C_ C_ 0.283315 0.896852 0.279867 -0.11473
C_ C_ 0.180804 0.849876 0.241137 -0.02249
C_ C_ 0.435476 0.84809 0.251691 -0.02249
C_ C_ 0.233027 0.961855 0.239128 -0.02249
C_ C_ 0.48555 0.960735 0.254457 -0.02249
C_ C_ 0.206267 0.904195 0.279482 -0.11473
C_ C_ 0.469539 0.893091 0.288975 -0.11473
C_ C_ 0.19535 0.862378 0.203884 -0.11473
C_ C_ 0.436074 0.874696 0.217186 -0.11473
C_ C_ 0.18548 0.872284 0.27852 -0.11473
C_ C_ 0.450223 0.859371 0.290083 -0.11473
C_ C_ 0.216578 0.921803 0.240931 -0.02249
C_ C_ 0.46802 0.922091 0.254682 -0.02249
C_ C_ 0.164905 0.80965 0.242947 0.6875
C_ C_ 0.416601 0.81132 0.248517 0.6875
C_ C_ 0.208908 0.901397 0.202758 -0.11473
C_ C_ 0.449451 0.912602 0.220438 -0.11473
C_ C_ 0.186539 0.651857 0.249535 -0.02249
C_ C_ 0.435111 0.650808 0.247879 -0.02249
C_ C_ 0.236229 0.537858 0.253355 -0.02249
C_ C_ 0.486122 0.536308 0.246698 -0.02249
C_ C_ 0.207698 0.593855 0.289541 -0.11473
C_ C_ 0.4536 0.587337 0.280319 -0.11473
C_ C_ 0.201647 0.639327 0.213558 -0.11473
C_ C_ 0.447685 0.636524 0.21029 -0.11473
C_ C_ 0.192322 0.631961 0.287788 -0.11473
C_ C_ 0.436293 0.624312 0.28203 -0.11473
C_ C_ 0.219541 0.577596 0.251725 -0.02249
C_ C_ 0.469142 0.576389 0.245836 -0.02249
C_ C_ 0.167516 0.691755 0.248147 0.6875
C_ C_ 0.415387 0.688325 0.248229 0.6875
C_ C_ 0.214449 0.599704 0.212725 -0.11473
C_ C_ 0.467038 0.601206 0.211541 -0.11473
C_ C_ 0.067509 0.6503 0.245578 -0.02249
C_ C_ 0.317058 0.653312 0.247337 -0.02249
C_ C_ 0.0137603 0.538147 0.246311 -0.02249
C_ C_ 0.268745 0.535974 0.256228 -0.02249
C_ C_ 0.0321818 0.601255 0.210001 -0.11473
C_ C_ 0.30695 0.58257 0.220666 -0.11473
C_ C_ 0.0634611 0.625934 0.283038 -0.11473
C_ C_ 0.298404 0.641616 0.282382 -0.11473
C_ C_ 0.0517167 0.636127 0.208886 -0.11473
C_ C_ 0.322429 0.621758 0.21841 -0.11473
C_ C_ 0.0315389 0.577049 0.245602 -0.02249
C_ C_ 0.286306 0.575731 0.25396 -0.02249
C_ C_ 0.0903045 0.683642 0.244447 0.6875
C_ C_ 0.333303 0.693572 0.244766 0.6875
C_ C_ 0.0451201 0.591448 0.283544 -0.11473
C_ C_ 0.285776 0.60273 0.286742 -0.11473
C_ C_ 0.119233 0.793096 0.365477 0.17695
C_ C_ 0.382715 0.778992 0.378576 0.17695
C_ C_ 0.13395 0.723022 0.371613 0.17695
C_ C_ 0.365487 0.712119 0.369227 0.17695
C_ C_ 0.131011 0.725091 0.414639 -0.11473
C_ C_ 0.361172 0.708615 0.41335 -0.11473
C_ C_ 0.127942 0.763277 0.435429 0.23465
C_ C_ 0.370403 0.74003 0.441346 0.23465
C_ C_ 0.122022 0.796703 0.409723 -0.11473
C_ C_ 0.386306 0.772634 0.422121 -0.11473
C_ C_ 0.127842 0.708442 0.116575 0.17695
C_ C_ 0.370928 0.782332 0.121479 0.17695
C_ C_ 0.119325 0.780059 0.113616 0.17695
C_ C_ 0.372844 0.70898 0.118616 0.17695
C_ C_ 0.113166 0.778376 0.071695 -0.11473
C_ C_ 0.375908 0.710527 0.0754068 -0.11473
C_ C_ 0.117115 0.74141 0.0494834 0.23465
C_ C_ 0.377386 0.750484 0.0546338 0.23465
C_ C_ 0.123249 0.705008 0.0736413 -0.11473
C_ C_ 0.376503 0.786321 0.0783335 -0.11473
C_ C_ 0.0283632 0.995301 0.243376 0.05793
C_ C_ 0.279559 0.999095 0.2476 0.05793
C_ C_ 0.219111 0.50076 0.258803 0.05793
C_ C_ 0.470576 0.498264 0.241706 0.05793
Br Br 0.0723262 -0.005749000000000004 0.242561 -0.17191
Br Br 0.322728 0.999499 0.250033 -0.17191
Br Br 0.176691 0.504114 0.252396 -0.17191
Br Br 0.426623 0.498585 0.241995 -0.17191
N_ N_ 0.123552 0.756056 0.347116 -0.272
N_ N_ 0.376238 0.746801 0.353167 -0.272
N_ N_ 0.130935 0.769574 0.479528 -0.12501
N_ N_ 0.37136 0.735368 0.486542 -0.12501
N_ N_ 0.122039 0.744682 0.136978 -0.272
N_ N_ 0.371531 0.744872 0.140954 -0.272
N_ N_ 0.114298 0.738031 0.00485391 -0.12501
N_ N_ 0.378295 0.754758 0.00992382 -0.12501
O_ O_ 0.0967492 0.794395 0.207964 -0.60745
O_ O_ 0.344599 0.795421 0.210856 -0.60745
O_ O_ 0.0913824 0.790619 0.275663 -0.60745
O_ O_ 0.348752 0.799443 0.279028 -0.60745
O_ O_ 0.151711 0.799937 0.275374 -0.60745
O_ O_ 0.412175 0.790743 0.281579 -0.60745
O_ O_ 0.157164 0.792712 0.209385 -0.60745
O_ O_ 0.408336 0.796353 0.21368 -0.60745
O_ O_ 0.160485 0.710662 0.280558 -0.60745
O_ O_ 0.403522 0.700007 0.282057 -0.60745
O_ O_ 0.160318 0.705211 0.213024 -0.60745
O_ O_ 0.410973 0.708749 0.215273 -0.60745
O_ O_ 0.0960039 0.701841 0.211785 -0.60745
O_ O_ 0.344569 0.703367 0.211172 -0.60745
O_ O_ 0.100805 0.698033 0.278768 -0.60745
O_ O_ 0.341768 0.713091 0.276897 -0.60745
Zn Zn 0.125303 0.749936 0.779688 0.9476
Zn Zn 0.369591 0.752584 0.784086 0.9476
Zn Zn 0.127796 0.750683 0.711563 0.9476
Zn Zn 0.371325 0.750901 0.714779 0.9476
H_ H_ 0.0413081 0.920919 0.67416 0.10932
H_ H_ 0.281534 0.910902 0.677795 0.10932
H_ H_ 0.0660718 0.855789 0.807193 0.10932
H_ H_ 0.304121 0.852821 0.815007 0.10932
H_ H_ 0.0740202 0.861605 0.675804 0.10932
H_ H_ 0.300029 0.840482 0.683367 0.10932
H_ H_ 0.0307926 0.914967 0.806942 0.10932
H_ H_ 0.27685 0.915091 0.815755 0.10932
H_ H_ 0.193606 0.936677 0.805482 0.10932
H_ H_ 0.478447 0.90312 0.812674 0.10932
H_ H_ 0.190082 0.848077 0.677103 0.10932
H_ H_ 0.408792 0.869894 0.691081 0.10932
H_ H_ 0.176291 0.866025 0.811604 0.10932
H_ H_ 0.441048 0.847757 0.8177 0.10932
H_ H_ 0.214926 0.917997 0.676985 0.10932
H_ H_ 0.446924 0.928143 0.684321 0.10932
H_ H_ 0.217193 0.584029 0.816709 0.10932
H_ H_ 0.462479 0.584521 0.822867 0.10932
H_ H_ 0.188251 0.652642 0.680621 0.10932
H_ H_ 0.444987 0.65176 0.684301 0.10932
H_ H_ 0.192417 0.649511 0.819033 0.10932
H_ H_ 0.425126 0.640881 0.818668 0.10932
H_ H_ 0.218374 0.588751 0.682986 0.10932
H_ H_ 0.471727 0.588553 0.688834 0.10932
H_ H_ 0.0361882 0.578526 0.683926 0.10932
H_ H_ 0.273941 0.589996 0.682935 0.10932
H_ H_ 0.064166 0.653141 0.819032 0.10932
H_ H_ 0.313571 0.643027 0.814229 0.10932
H_ H_ 0.068294 0.643763 0.684509 0.10932
H_ H_ 0.305402 0.652607 0.684261 0.10932
H_ H_ 0.0404919 0.584907 0.81995 0.10932
H_ H_ 0.294049 0.576312 0.813618 0.10932
H_ H_ 0.125581 0.819167 0.849848 0.10932
H_ H_ 0.376583 0.806993 0.862913 0.10932
H_ H_ 0.125684 0.687068 0.853536 0.10932
H_ H_ 0.370597 0.677233 0.849048 0.10932
H_ H_ 0.127949 0.6903 0.9317 0.10932
H_ H_ 0.374191 0.664399 0.925648 0.10932
H_ H_ 0.111746 0.82103 0.925226 0.10932
H_ H_ 0.386088 0.798854 0.944969 0.10932
H_ H_ 0.119732 0.687366 0.641228 0.10932
H_ H_ 0.364131 0.821219 0.641846 0.10932
H_ H_ 0.141638 0.811964 0.632796 0.10932
H_ H_ 0.363948 0.692603 0.635793 0.10932
H_ H_ 0.140492 0.808331 0.553295 0.10932
H_ H_ 0.362339 0.697994 0.5582 0.10932
H_ H_ 0.104205 0.687631 0.564151 0.10932
H_ H_ 0.372749 0.82911 0.568274 0.10932
C_ C_ 0.0698643 0.852173 0.742675 -0.02249
C_ C_ 0.30943 0.845186 0.749041 -0.02249
C_ C_ 0.0155259 0.962023 0.739289 -0.02249
C_ C_ 0.262082 0.964074 0.744981 -0.02249
C_ C_ 0.0436052 0.905724 0.702589 -0.11473
C_ C_ 0.284651 0.89764 0.709264 -0.11473
C_ C_ 0.058097 0.869727 0.778635 -0.11473
C_ C_ 0.298833 0.863114 0.786215 -0.11473
C_ C_ 0.0625318 0.871232 0.70402 -0.11473
C_ C_ 0.299942 0.859669 0.710066 -0.11473
C_ C_ 0.0309345 0.921623 0.739521 -0.02249
C_ C_ 0.275693 0.919565 0.745011 -0.02249
C_ C_ 0.0891981 0.814652 0.743758 0.6875
C_ C_ 0.330966 0.809484 0.752819 0.6875
C_ C_ 0.0384842 0.90291 0.776666 -0.11473
C_ C_ 0.283048 0.902098 0.785003 -0.11473
C_ C_ 0.185472 0.847782 0.745282 -0.02249
C_ C_ 0.425907 0.852021 0.753067 -0.02249
C_ C_ 0.22958 0.9667 0.744994 -0.02249
C_ C_ 0.48162 0.962142 0.748724 -0.02249
C_ C_ 0.195316 0.915699 0.778683 -0.11473
C_ C_ 0.461024 0.901013 0.787235 -0.11473
C_ C_ 0.195054 0.865954 0.706546 -0.11473
C_ C_ 0.427026 0.875378 0.716162 -0.11473
C_ C_ 0.184538 0.874002 0.781405 -0.11473
C_ C_ 0.442021 0.867036 0.788459 -0.11473
C_ C_ 0.210792 0.926598 0.743199 -0.02249
C_ C_ 0.46308 0.924081 0.749777 -0.02249
C_ C_ 0.168098 0.808314 0.746171 0.6875
C_ C_ 0.411054 0.809415 0.751662 0.6875
C_ C_ 0.207304 0.90552 0.706404 -0.11473
C_ C_ 0.444636 0.911787 0.713413 -0.11473
C_ C_ 0.187219 0.656308 0.749786 -0.02249
C_ C_ 0.428802 0.64745 0.749755 -0.02249
C_ C_ 0.232889 0.537364 0.749081 -0.02249
C_ C_ 0.485785 0.539982 0.757322 -0.02249
C_ C_ 0.21102 0.598277 0.786122 -0.11473
C_ C_ 0.456928 0.59712 0.792435 -0.11473
C_ C_ 0.194545 0.63741 0.710204 -0.11473
C_ C_ 0.442649 0.63222 0.713491 -0.11473
C_ C_ 0.197128 0.636025 0.787591 -0.11473
C_ C_ 0.434099 0.627257 0.789012 -0.11473
C_ C_ 0.217269 0.579448 0.747456 -0.02249
C_ C_ 0.469402 0.579691 0.754852 -0.02249
C_ C_ 0.166745 0.692569 0.750102 0.6875
C_ C_ 0.406668 0.685176 0.748836 0.6875
C_ C_ 0.210437 0.600077 0.710726 -0.11473
C_ C_ 0.459885 0.596874 0.715559 -0.11473
C_ C_ 0.0687194 0.652065 0.750148 -0.02249
C_ C_ 0.313811 0.652015 0.748171 -0.02249
C_ C_ 0.0171672 0.541265 0.754435 -0.02249
C_ C_ 0.265276 0.536464 0.746706 -0.02249
C_ C_ 0.0408912 0.597451 0.712701 -0.11473
C_ C_ 0.284398 0.600834 0.711154 -0.11473
C_ C_ 0.0578397 0.637698 0.78915 -0.11473
C_ C_ 0.305318 0.632146 0.786127 -0.11473
C_ C_ 0.0599485 0.631793 0.714315 -0.11473
C_ C_ 0.30067 0.636823 0.711024 -0.11473
C_ C_ 0.033048 0.580722 0.751707 -0.02249
C_ C_ 0.28232 0.576581 0.747893 -0.02249
C_ C_ 0.0855469 0.692555 0.748176 0.6875
C_ C_ 0.332486 0.691166 0.748962 0.6875
C_ C_ 0.0438787 0.598351 0.788625 -0.11473
C_ C_ 0.294153 0.592937 0.785995 -0.11473
C_ C_ 0.120504 0.789708 0.86824 0.17695
C_ C_ 0.377911 0.77671 0.878762 0.17695
C_ C_ 0.124478 0.716128 0.869553 0.17695
C_ C_ 0.369442 0.703274 0.869886 0.17695
C_ C_ 0.125293 0.71685 0.913544 -0.11473
C_ C_ 0.371811 0.697739 0.91439 -0.11473
C_ C_ 0.122307 0.754862 0.933909 0.23465
C_ C_ 0.377248 0.731334 0.940283 0.23465
C_ C_ 0.117188 0.791251 0.912128 -0.11473
C_ C_ 0.381585 0.771276 0.923117 -0.11473
C_ C_ 0.117872 0.715365 0.621594 0.17695
C_ C_ 0.370074 0.79452 0.623591 0.17695
C_ C_ 0.134364 0.785003 0.615746 0.17695
C_ C_ 0.371163 0.721837 0.619677 0.17695
C_ C_ 0.132878 0.783464 0.571489 -0.11473
C_ C_ 0.368247 0.724486 0.576418 -0.11473
C_ C_ 0.1198 0.749076 0.550879 0.23465
C_ C_ 0.371036 0.764151 0.555991 0.23465
C_ C_ 0.116246 0.713908 0.577642 -0.11473
C_ C_ 0.373978 0.799057 0.580443 -0.11473
C_ C_ 0.0312937 0.000660526 0.7384 0.05793
C_ C_ 0.279037 -0.00014099999999994672 0.749671 0.05793
C_ C_ 0.216089 0.500152 0.751041 0.05793
C_ C_ 0.469461 0.501422 0.756705 0.05793
Br Br 0.0744688 -0.0007249999999999757 0.746309 -0.17191
Br Br 0.322446 -0.005340000000000011 0.756058 -0.17191
Br Br 0.173527 0.502088 0.762674 -0.17191
Br Br 0.425872 0.503508 0.750833 -0.17191
N_ N_ 0.125293 0.752746 0.849152 -0.272
N_ N_ 0.371419 0.743562 0.854398 -0.272
N_ N_ 0.129024 0.75837 0.978255 -0.12501
N_ N_ 0.37447 0.725188 0.985413 -0.12501
N_ N_ 0.128615 0.750431 0.639474 -0.272
N_ N_ 0.373658 0.757184 0.642583 -0.272
N_ N_ 0.117871 0.74672 0.505271 -0.12501
N_ N_ 0.370479 0.766199 0.510454 -0.12501
O_ O_ 0.0942578 0.795678 0.709352 -0.60745
O_ O_ 0.341246 0.794323 0.718204 -0.60745
O_ O_ 0.0984765 0.798818 0.778336 -0.60745
O_ O_ 0.342002 0.799338 0.788646 -0.60745
O_ O_ 0.161424 0.789463 0.780696 -0.60745
O_ O_ 0.403914 0.792268 0.786089 -0.60745
O_ O_ 0.155209 0.796136 0.712758 -0.60745
O_ O_ 0.403041 0.792651 0.716305 -0.60745
O_ O_ 0.152406 0.701607 0.782806 -0.60745
O_ O_ 0.399164 0.702343 0.782628 -0.60745
O_ O_ 0.161572 0.712018 0.716531 -0.60745
O_ O_ 0.400339 0.702834 0.713576 -0.60745
O_ O_ 0.0979187 0.704656 0.714284 -0.60745
O_ O_ 0.339041 0.710293 0.715822 -0.60745
O_ O_ 0.090245 0.712452 0.781227 -0.60745
O_ O_ 0.339028 0.708624 0.783232 -0.60745
Zn Zn 0.630321 0.244312 0.292319 0.9476
Zn Zn 0.875935 0.24883 0.285529 0.9476
Zn Zn 0.630554 0.245835 0.219477 0.9476
Zn Zn 0.875759 0.253313 0.215292 0.9476
H_ H_ 0.544632 0.416797 0.187795 0.10932
H_ H_ 0.784171 0.418205 0.191348 0.10932
H_ H_ 0.563033 0.34541 0.324397 0.10932
H_ H_ 0.808798 0.341204 0.32246 0.10932
H_ H_ 0.574858 0.351108 0.190234 0.10932
H_ H_ 0.816304 0.355757 0.185672 0.10932
H_ H_ 0.529659 0.404103 0.321132 0.10932
H_ H_ 0.784068 0.408642 0.323767 0.10932
H_ H_ 0.719038 0.414456 0.322316 0.10932
H_ H_ 0.96751 0.412895 0.323881 0.10932
H_ H_ 0.689786 0.346997 0.189016 0.10932
H_ H_ 0.919704 0.373012 0.191321 0.10932
H_ H_ 0.696005 0.345991 0.322827 0.10932
H_ H_ 0.941922 0.349401 0.320523 0.10932
H_ H_ 0.718148 0.411397 0.186517 0.10932
H_ H_ 0.956668 0.429607 0.195128 0.10932
H_ H_ 0.710554 0.0718529 0.315801 0.10932
H_ H_ 0.9565 0.0677929 0.304807 0.10932
H_ H_ 0.697106 0.149503 0.181212 0.10932
H_ H_ 0.930991 0.14734 0.177445 0.10932
H_ H_ 0.678504 0.131075 0.314205 0.10932
H_ H_ 0.924474 0.131744 0.311542 0.10932
H_ H_ 0.732784 0.0939466 0.186441 0.10932
H_ H_ 0.964866 0.0843773 0.173938 0.10932
H_ H_ 0.541276 0.0770351 0.183782 0.10932
H_ H_ 0.802006 0.0644153 0.185028 0.10932
H_ H_ 0.57508 0.132433 0.318991 0.10932
H_ H_ 0.805862 0.154462 0.310728 0.10932
H_ H_ 0.570487 0.142104 0.184618 0.10932
H_ H_ 0.828405 0.134255 0.183652 0.10932
H_ H_ 0.536312 0.0797198 0.319626 0.10932
H_ H_ 0.779655 0.0909753 0.314233 0.10932
H_ H_ 0.602619 0.197445 0.37076 0.10932
H_ H_ 0.86654 0.183609 0.367843 0.10932
H_ H_ 0.654263 0.305106 0.357082 0.10932
H_ H_ 0.889485 0.309224 0.353627 0.10932
H_ H_ 0.650922 0.315816 0.436458 0.10932
H_ H_ 0.902917 0.311797 0.430744 0.10932
H_ H_ 0.606181 0.197993 0.44792 0.10932
H_ H_ 0.866369 0.192259 0.443014 0.10932
H_ H_ 0.628525 0.185568 0.133966 0.10932
H_ H_ 0.921382 0.2412 0.138282 0.10932
H_ H_ 0.623861 0.313251 0.156989 0.10932
H_ H_ 0.831283 0.26899 0.13925 0.10932
H_ H_ 0.621201 0.328619 0.0797488 0.10932
H_ H_ 0.827148 0.264705 0.0604308 0.10932
H_ H_ 0.618338 0.196175 0.0580157 0.10932
H_ H_ 0.92229 0.247689 0.0597505 0.10932
C_ C_ 0.569191 0.342598 0.257183 -0.02249
C_ C_ 0.813248 0.340976 0.252091 -0.02249
C_ C_ 0.518093 0.457737 0.251316 -0.02249
C_ C_ 0.766493 0.459174 0.258073 -0.02249
C_ C_ 0.548702 0.402545 0.218399 -0.11473
C_ C_ 0.789129 0.399863 0.21896 -0.11473
C_ C_ 0.559197 0.361938 0.293999 -0.11473
C_ C_ 0.802907 0.355574 0.291749 -0.11473
C_ C_ 0.565273 0.364203 0.218906 -0.11473
C_ C_ 0.80811 0.366091 0.216642 -0.11473
C_ C_ 0.535208 0.417239 0.25446 -0.02249
C_ C_ 0.784399 0.419394 0.257597 -0.02249
C_ C_ 0.587894 0.302104 0.258945 0.6875
C_ C_ 0.833979 0.305224 0.249471 0.6875
C_ C_ 0.541646 0.39731 0.292537 -0.11473
C_ C_ 0.789999 0.396941 0.294282 -0.11473
C_ C_ 0.688659 0.341625 0.255219 -0.02249
C_ C_ 0.932733 0.350187 0.253009 -0.02249
C_ C_ 0.734647 0.458461 0.256591 -0.02249
C_ C_ 0.981967 0.464983 0.260445 -0.02249
C_ C_ 0.713647 0.399045 0.293051 -0.11473
C_ C_ 0.960029 0.402629 0.293257 -0.11473
C_ C_ 0.694764 0.363394 0.217546 -0.11473
C_ C_ 0.934168 0.377844 0.217947 -0.11473
C_ C_ 0.700931 0.359243 0.293072 -0.11473
C_ C_ 0.944153 0.365405 0.291936 -0.11473
C_ C_ 0.718785 0.418991 0.255734 -0.02249
C_ C_ 0.965872 0.425172 0.257002 -0.02249
C_ C_ 0.669277 0.303396 0.255753 0.6875
C_ C_ 0.915263 0.311196 0.250201 0.6875
C_ C_ 0.713355 0.397944 0.217337 -0.11473
C_ C_ 0.952575 0.413272 0.219783 -0.11473
C_ C_ 0.688889 0.149504 0.251605 -0.02249
C_ C_ 0.929589 0.147753 0.245741 -0.02249
C_ C_ 0.738334 0.0345978 0.250802 -0.02249
C_ C_ 0.982139 0.0354461 0.238792 -0.02249
C_ C_ 0.707251 0.0882974 0.287279 -0.11473
C_ C_ 0.954003 0.0891277 0.27949 -0.11473
C_ C_ 0.701143 0.133996 0.212506 -0.11473
C_ C_ 0.939921 0.134901 0.205814 -0.11473
C_ C_ 0.690479 0.123975 0.285845 -0.11473
C_ C_ 0.934906 0.123671 0.281196 -0.11473
C_ C_ 0.721474 0.0742738 0.251062 -0.02249
C_ C_ 0.965608 0.0758689 0.240537 -0.02249
C_ C_ 0.671241 0.187951 0.251403 0.6875
C_ C_ 0.912034 0.186708 0.249775 0.6875
C_ C_ 0.721713 0.101188 0.214787 -0.11473
C_ C_ 0.959393 0.098052 0.204552 -0.11473
C_ C_ 0.573292 0.145945 0.252578 -0.02249
C_ C_ 0.821544 0.148355 0.248525 -0.02249
C_ C_ 0.518342 0.0362478 0.249559 -0.02249
C_ C_ 0.769175 0.0345004 0.253623 -0.02249
C_ C_ 0.544714 0.0947175 0.213648 -0.11473
C_ C_ 0.800598 0.0860263 0.213417 -0.11473
C_ C_ 0.567491 0.1231 0.288657 -0.11473
C_ C_ 0.807199 0.133773 0.285001 -0.11473
C_ C_ 0.562511 0.129934 0.214239 -0.11473
C_ C_ 0.817673 0.123158 0.212024 -0.11473
C_ C_ 0.536195 0.0748382 0.251075 -0.02249
C_ C_ 0.78585 0.0737908 0.24955 -0.02249
C_ C_ 0.594721 0.181789 0.253596 0.6875
C_ C_ 0.839445 0.188444 0.24884 0.6875
C_ C_ 0.547808 0.0886062 0.289018 -0.11473
C_ C_ 0.788515 0.0991695 0.28529 -0.11473
C_ C_ 0.614973 0.22193 0.385499 0.17695
C_ C_ 0.869456 0.21442 0.379823 0.17695
C_ C_ 0.64548 0.281013 0.378242 0.17695
C_ C_ 0.888157 0.281871 0.37274 0.17695
C_ C_ 0.645295 0.286315 0.422766 -0.11473
C_ C_ 0.892477 0.285221 0.416698 -0.11473
C_ C_ 0.632726 0.256059 0.44894 0.23465
C_ C_ 0.882677 0.254743 0.443936 0.23465
C_ C_ 0.616803 0.223406 0.430284 -0.11473
C_ C_ 0.870159 0.21997 0.424592 -0.11473
C_ C_ 0.626854 0.215313 0.121775 0.17695
C_ C_ 0.900413 0.247747 0.121339 0.17695
C_ C_ 0.625667 0.288719 0.13382 0.17695
C_ C_ 0.848355 0.260532 0.120839 0.17695
C_ C_ 0.625859 0.29773 0.0906238 -0.11473
C_ C_ 0.847374 0.256075 0.0769384 -0.11473
C_ C_ 0.622913 0.263336 0.0638858 0.23465
C_ C_ 0.874213 0.255412 0.0537517 0.23465
C_ C_ 0.621001 0.221802 0.0794917 -0.11473
C_ C_ 0.901644 0.252024 0.0765953 -0.11473
C_ C_ 0.532772 0.497303 0.257167 0.05793
C_ C_ 0.7822 0.497846 0.262834 0.05793
C_ C_ 0.720824 0.998604 0.253452 0.05793
C_ C_ 0.965271 0.998592 0.230395 0.05793
Br Br 0.576013 0.496954 0.260333 -0.17191
Br Br 0.822897 0.499114 0.283108 -0.17191
Br Br 0.677213 -0.0003410000000000357 0.254246 -0.17191
Br Br 0.922457 0.00243381 0.222836 -0.17191
N_ N_ 0.630515 0.248488 0.361424 -0.272
N_ N_ 0.876158 0.247807 0.355409 -0.272
N_ N_ 0.632091 0.26208 0.494169 -0.12501
N_ N_ 0.883439 0.259438 0.488133 -0.12501
N_ N_ 0.629619 0.248936 0.148195 -0.272
N_ N_ 0.875023 0.253707 0.142379 -0.272
N_ N_ 0.620058 0.269963 0.0203638 -0.12501
N_ N_ 0.870964 0.261294 0.00872156 -0.12501
O_ O_ 0.600097 0.289401 0.224891 -0.60745
O_ O_ 0.838794 0.287673 0.21466 -0.60745
O_ O_ 0.595699 0.287721 0.294575 -0.60745
O_ O_ 0.847503 0.293275 0.281946 -0.60745
O_ O_ 0.657543 0.290514 0.289533 -0.60745
O_ O_ 0.910542 0.289905 0.283095 -0.60745
O_ O_ 0.659234 0.290802 0.220778 -0.60745
O_ O_ 0.903329 0.301197 0.21578 -0.60745
O_ O_ 0.661174 0.202371 0.286406 -0.60745
O_ O_ 0.903377 0.199911 0.285163 -0.60745
O_ O_ 0.661395 0.202377 0.217691 -0.60745
O_ O_ 0.909884 0.211425 0.217578 -0.60745
O_ O_ 0.60265 0.19867 0.220188 -0.60745
O_ O_ 0.848477 0.203633 0.214815 -0.60745
O_ O_ 0.602378 0.197696 0.289438 -0.60745
O_ O_ 0.841095 0.209308 0.282774 -0.60745
Zn Zn 0.623756 0.249078 0.790963 0.9476
Zn Zn 0.88195 0.250867 0.782635 0.9476
Zn Zn 0.624849 0.251565 0.722884 0.9476
Zn Zn 0.876836 0.253459 0.717362 0.9476
H_ H_ 0.544924 0.423055 0.687285 0.10932
H_ H_ 0.762513 0.402105 0.697758 0.10932
H_ H_ 0.556842 0.351786 0.824164 0.10932
H_ H_ 0.84197 0.372463 0.810883 0.10932
H_ H_ 0.575269 0.363339 0.69199 0.10932
H_ H_ 0.795622 0.337673 0.694163 0.10932
H_ H_ 0.532896 0.416447 0.821196 0.10932
H_ H_ 0.809396 0.437681 0.810624 0.10932
H_ H_ 0.737551 0.398207 0.816443 0.10932
H_ H_ 0.985503 0.403139 0.809276 0.10932
H_ H_ 0.65875 0.38269 0.703814 0.10932
H_ H_ 0.916077 0.375413 0.691027 0.10932
H_ H_ 0.703249 0.339543 0.81894 0.10932
H_ H_ 0.955345 0.340754 0.809828 0.10932
H_ H_ 0.69528 0.443922 0.704914 0.10932
H_ H_ 0.944123 0.442604 0.692423 0.10932
H_ H_ 0.724723 0.0863544 0.81374 0.10932
H_ H_ 0.971798 0.0795668 0.81139 0.10932
H_ H_ 0.666491 0.135552 0.690509 0.10932
H_ H_ 0.929999 0.14329 0.677756 0.10932
H_ H_ 0.692431 0.148436 0.823737 0.10932
H_ H_ 0.947763 0.149425 0.812452 0.10932
H_ H_ 0.692004 0.0726318 0.690558 0.10932
H_ H_ 0.963244 0.0886428 0.673085 0.10932
H_ H_ 0.5405 0.0778252 0.683976 0.10932
H_ H_ 0.778459 0.0942313 0.686443 0.10932
H_ H_ 0.563493 0.144235 0.818205 0.10932
H_ H_ 0.825349 0.146363 0.819173 0.10932
H_ H_ 0.56286 0.151642 0.684458 0.10932
H_ H_ 0.804833 0.159731 0.686895 0.10932
H_ H_ 0.531213 0.0844077 0.817245 0.10932
H_ H_ 0.791783 0.0846489 0.821184 0.10932
H_ H_ 0.612915 0.314053 0.871903 0.10932
H_ H_ 0.928368 0.269626 0.850175 0.10932
H_ H_ 0.631481 0.187755 0.864986 0.10932
H_ H_ 0.837576 0.238526 0.858469 0.10932
H_ H_ 0.639715 0.184202 0.938981 0.10932
H_ H_ 0.841658 0.237299 0.939697 0.10932
H_ H_ 0.611522 0.310816 0.949666 0.10932
H_ H_ 0.934086 0.267477 0.929085 0.10932
H_ H_ 0.625748 0.31268 0.642484 0.10932
H_ H_ 0.86569 0.312729 0.634501 0.10932
H_ H_ 0.616236 0.184684 0.653956 0.10932
H_ H_ 0.881013 0.186993 0.648894 0.10932
H_ H_ 0.622702 0.178378 0.573157 0.10932
H_ H_ 0.872965 0.178349 0.56985 0.10932
H_ H_ 0.630076 0.304861 0.565476 0.10932
H_ H_ 0.862421 0.303914 0.553994 0.10932
C_ C_ 0.56942 0.350522 0.759139 -0.02249
C_ C_ 0.821566 0.350536 0.751326 -0.02249
C_ C_ 0.517939 0.464283 0.755439 -0.02249
C_ C_ 0.766619 0.462548 0.754932 -0.02249
C_ C_ 0.547125 0.409005 0.717836 -0.11473
C_ C_ 0.781137 0.394885 0.721744 -0.11473
C_ C_ 0.55668 0.366456 0.794681 -0.11473
C_ C_ 0.824855 0.378577 0.78504 -0.11473
C_ C_ 0.56524 0.37295 0.720138 -0.11473
C_ C_ 0.799114 0.359043 0.719762 -0.11473
C_ C_ 0.53501 0.424932 0.754731 -0.02249
C_ C_ 0.784389 0.42341 0.754479 -0.02249
C_ C_ 0.586245 0.310976 0.757105 0.6875
C_ C_ 0.839757 0.31106 0.747733 0.6875
C_ C_ 0.539471 0.403097 0.79262 -0.11473
C_ C_ 0.80622 0.414998 0.784921 -0.11473
C_ C_ 0.678998 0.351782 0.75846 -0.02249
C_ C_ 0.935151 0.352218 0.747719 -0.02249
C_ C_ 0.734863 0.462587 0.764647 -0.02249
C_ C_ 0.984545 0.465532 0.753722 -0.02249
C_ C_ 0.718217 0.395231 0.793305 -0.11473
C_ C_ 0.969631 0.399672 0.783814 -0.11473
C_ C_ 0.674183 0.384757 0.72859 -0.11473
C_ C_ 0.935762 0.378663 0.71081 -0.11473
C_ C_ 0.701351 0.358486 0.791089 -0.11473
C_ C_ 0.952319 0.361824 0.78311 -0.11473
C_ C_ 0.715501 0.424578 0.76195 -0.02249
C_ C_ 0.968091 0.427107 0.749953 -0.02249
C_ C_ 0.661015 0.312923 0.759352 0.6875
C_ C_ 0.917802 0.311619 0.750103 0.6875
C_ C_ 0.694776 0.419916 0.727992 -0.11473
C_ C_ 0.949287 0.417605 0.713888 -0.11473
C_ C_ 0.677201 0.149194 0.757752 -0.02249
C_ C_ 0.935264 0.153571 0.746821 -0.02249
C_ C_ 0.733257 0.0397096 0.749117 -0.02249
C_ C_ 0.982805 0.0382322 0.737124 -0.02249
C_ C_ 0.712741 0.098284 0.787607 -0.11473
C_ C_ 0.962067 0.0947565 0.78112 -0.11473
C_ C_ 0.677366 0.126135 0.720749 -0.11473
C_ C_ 0.940237 0.133519 0.707482 -0.11473
C_ C_ 0.694369 0.134545 0.79251 -0.11473
C_ C_ 0.947774 0.133441 0.783864 -0.11473
C_ C_ 0.71434 0.0778489 0.749618 -0.02249
C_ C_ 0.966441 0.0770174 0.741731 -0.02249
C_ C_ 0.659513 0.18764 0.759334 0.6875
C_ C_ 0.917154 0.192573 0.749426 0.6875
C_ C_ 0.694759 0.090699 0.717921 -0.11473
C_ C_ 0.958068 0.0982509 0.705399 -0.11473
C_ C_ 0.565322 0.153144 0.751931 -0.02249
C_ C_ 0.819168 0.155032 0.751589 -0.02249
C_ C_ 0.514865 0.0365266 0.748049 -0.02249
C_ C_ 0.765565 0.042356 0.754173 -0.02249
C_ C_ 0.543793 0.0946127 0.711531 -0.11473
C_ C_ 0.786327 0.106723 0.716865 -0.11473
C_ C_ 0.55748 0.130439 0.78862 -0.11473
C_ C_ 0.814972 0.134056 0.790887 -0.11473
C_ C_ 0.557574 0.135506 0.712204 -0.11473
C_ C_ 0.80373 0.142468 0.715471 -0.11473
C_ C_ 0.534689 0.0751133 0.749109 -0.02249
C_ C_ 0.78155 0.0842854 0.754533 -0.02249
C_ C_ 0.585026 0.189987 0.755647 0.6875
C_ C_ 0.840082 0.190906 0.751538 0.6875
C_ C_ 0.541386 0.0940749 0.788604 -0.11473
C_ C_ 0.79689 0.09877 0.792167 -0.11473
C_ C_ 0.618157 0.285792 0.886313 0.17695
C_ C_ 0.908859 0.263898 0.870873 0.17695
C_ C_ 0.62975 0.215627 0.881995 0.17695
C_ C_ 0.857873 0.247014 0.874691 0.17695
C_ C_ 0.635349 0.214314 0.925117 -0.11473
C_ C_ 0.85983 0.247627 0.92027 -0.11473
C_ C_ 0.626235 0.247366 0.951488 0.23465
C_ C_ 0.886904 0.256855 0.939281 0.23465
C_ C_ 0.61822 0.284459 0.930721 -0.11473
C_ C_ 0.912217 0.264905 0.914269 -0.11473
C_ C_ 0.624174 0.282665 0.628016 0.17695
C_ C_ 0.871092 0.284411 0.618173 0.17695
C_ C_ 0.618937 0.211911 0.634439 0.17695
C_ C_ 0.874785 0.212052 0.628048 0.17695
C_ C_ 0.619337 0.208209 0.589033 -0.11473
C_ C_ 0.87344 0.207329 0.585201 -0.11473
C_ C_ 0.622845 0.243437 0.563793 0.23465
C_ C_ 0.876214 0.241311 0.556787 0.23465
C_ C_ 0.625207 0.280114 0.584022 -0.11473
C_ C_ 0.87092 0.278992 0.573764 -0.11473
C_ C_ 0.533653 0.501619 0.74984 0.05793
C_ C_ 0.780486 0.500961 0.746872 0.05793
C_ C_ 0.718615 0.000869013 0.751377 0.05793
C_ C_ 0.966871 0.000654898 0.732734 0.05793
Br Br 0.576467 0.502518 0.7494 -0.17191
Br Br 0.819603 0.499718 0.724613 -0.17191
Br Br 0.676367 -0.005099999999999993 0.735642 -0.17191
Br Br 0.923643 0.00308862 0.723761 -0.17191
N_ N_ 0.622846 0.25244 0.862547 -0.272
N_ N_ 0.881879 0.256877 0.852369 -0.272
N_ N_ 0.623707 0.241066 0.994341 -0.12501
N_ N_ 0.890948 0.25432 0.982991 -0.12501
N_ N_ 0.623479 0.249251 0.652568 -0.272
N_ N_ 0.874763 0.250623 0.642431 -0.272
N_ N_ 0.62039 0.238914 0.519517 -0.12501
N_ N_ 0.876039 0.232986 0.514143 -0.12501
O_ O_ 0.597316 0.298821 0.723874 -0.60745
O_ O_ 0.849509 0.300638 0.712467 -0.60745
O_ O_ 0.593237 0.29294 0.789454 -0.60745
O_ O_ 0.848355 0.291907 0.779271 -0.60745
O_ O_ 0.655349 0.294531 0.792399 -0.60745
O_ O_ 0.906956 0.299765 0.782571 -0.60745
O_ O_ 0.65337 0.297863 0.723574 -0.60745
O_ O_ 0.908381 0.296347 0.715469 -0.60745
O_ O_ 0.650624 0.20239 0.792853 -0.60745
O_ O_ 0.914063 0.21053 0.785934 -0.60745
O_ O_ 0.65291 0.204949 0.725041 -0.60745
O_ O_ 0.908658 0.209953 0.715926 -0.60745
O_ O_ 0.593246 0.208393 0.721429 -0.60745
O_ O_ 0.844641 0.209392 0.717307 -0.60745
O_ O_ 0.59283 0.206387 0.790278 -0.60745
O_ O_ 0.851449 0.206838 0.785214 -0.60745
Zn Zn 0.626355 0.75048 0.281703 0.9476
Zn Zn 0.872728 0.748606 0.280234 0.9476
Zn Zn 0.626167 0.748744 0.214657 0.9476
Zn Zn 0.869202 0.748065 0.212075 0.9476
H_ H_ 0.528228 0.912749 0.180616 0.10932
H_ H_ 0.777458 0.910622 0.180644 0.10932
H_ H_ 0.581977 0.864118 0.307768 0.10932
H_ H_ 0.804671 0.841267 0.316856 0.10932
H_ H_ 0.559713 0.851886 0.179082 0.10932
H_ H_ 0.799202 0.836403 0.181846 0.10932
H_ H_ 0.549968 0.925858 0.307783 0.10932
H_ H_ 0.785368 0.913363 0.316403 0.10932
H_ H_ 0.717021 0.916943 0.313686 0.10932
H_ H_ 0.964118 0.918524 0.300454 0.10932
H_ H_ 0.699245 0.845113 0.182088 0.10932
H_ H_ 0.921885 0.851309 0.172377 0.10932
H_ H_ 0.678917 0.857155 0.31132 0.10932
H_ H_ 0.941668 0.847879 0.305932 0.10932
H_ H_ 0.716652 0.917353 0.18024 0.10932
H_ H_ 0.956707 0.914539 0.169275 0.10932
H_ H_ 0.722683 0.586483 0.323752 0.10932
H_ H_ 0.972565 0.592469 0.310367 0.10932
H_ H_ 0.680313 0.632909 0.18635 0.10932
H_ H_ 0.915037 0.630784 0.183277 0.10932
H_ H_ 0.691564 0.652254 0.320797 0.10932
H_ H_ 0.945734 0.659825 0.307626 0.10932
H_ H_ 0.706921 0.565478 0.192857 0.10932
H_ H_ 0.951561 0.571511 0.179908 0.10932
H_ H_ 0.552733 0.570717 0.191942 0.10932
H_ H_ 0.797888 0.562971 0.197978 0.10932
H_ H_ 0.558864 0.65847 0.317642 0.10932
H_ H_ 0.812262 0.650692 0.318788 0.10932
H_ H_ 0.578073 0.633385 0.189756 0.10932
H_ H_ 0.821542 0.632264 0.190968 0.10932
H_ H_ 0.526493 0.59067 0.319237 0.10932
H_ H_ 0.780744 0.591239 0.325618 0.10932
H_ H_ 0.641598 0.699914 0.360666 0.10932
H_ H_ 0.842333 0.799664 0.360075 0.10932
H_ H_ 0.625738 0.826216 0.349131 0.10932
H_ H_ 0.891607 0.685762 0.350889 0.10932
H_ H_ 0.623865 0.830871 0.424854 0.10932
H_ H_ 0.888676 0.67838 0.424404 0.10932
H_ H_ 0.638832 0.702876 0.436185 0.10932
H_ H_ 0.844923 0.79706 0.435188 0.10932
H_ H_ 0.621926 0.678136 0.137202 0.10932
H_ H_ 0.876314 0.678424 0.138755 0.10932
H_ H_ 0.627483 0.806583 0.134331 0.10932
H_ H_ 0.864641 0.806826 0.137263 0.10932
H_ H_ 0.62153 0.807303 0.0581114 0.10932
H_ H_ 0.863627 0.808606 0.0612724 0.10932
H_ H_ 0.622111 0.676253 0.0613905 0.10932
H_ H_ 0.869127 0.676145 0.0569525 0.10932
C_ C_ 0.572032 0.852553 0.24261 -0.02249
C_ C_ 0.805305 0.838395 0.248874 -0.02249
C_ C_ 0.516709 0.96077 0.248811 -0.02249
C_ C_ 0.766619 0.959794 0.246336 -0.02249
C_ C_ 0.535786 0.899149 0.208701 -0.11473
C_ C_ 0.786628 0.896199 0.209176 -0.11473
C_ C_ 0.56858 0.874609 0.280351 -0.11473
C_ C_ 0.800471 0.857477 0.287347 -0.11473
C_ C_ 0.555908 0.864436 0.206497 -0.11473
C_ C_ 0.796221 0.854737 0.21036 -0.11473
C_ C_ 0.532855 0.919608 0.246602 -0.02249
C_ C_ 0.782317 0.917851 0.247899 -0.02249
C_ C_ 0.593384 0.818018 0.242819 0.6875
C_ C_ 0.827351 0.802408 0.247656 0.6875
C_ C_ 0.550028 0.906939 0.281699 -0.11473
C_ C_ 0.793261 0.900311 0.286656 -0.11473
C_ C_ 0.687314 0.845351 0.245853 -0.02249
C_ C_ 0.92958 0.847816 0.239878 -0.02249
C_ C_ 0.734966 0.96115 0.249426 -0.02249
C_ C_ 0.980621 0.960437 0.232592 -0.02249
C_ C_ 0.709073 0.903921 0.285443 -0.11473
C_ C_ 0.958666 0.902131 0.272324 -0.11473
C_ C_ 0.698823 0.862815 0.208423 -0.11473
C_ C_ 0.931677 0.867029 0.199777 -0.11473
C_ C_ 0.693463 0.865868 0.285955 -0.11473
C_ C_ 0.942733 0.864446 0.275871 -0.11473
C_ C_ 0.717092 0.922652 0.248296 -0.02249
C_ C_ 0.962937 0.920833 0.234176 -0.02249
C_ C_ 0.668918 0.806707 0.246331 0.6875
C_ C_ 0.909852 0.809618 0.241088 0.6875
C_ C_ 0.710855 0.903106 0.209939 -0.11473
C_ C_ 0.950609 0.902371 0.19798 -0.11473
C_ C_ 0.680919 0.64493 0.255161 -0.02249
C_ C_ 0.936064 0.656297 0.241089 -0.02249
C_ C_ 0.733993 0.533185 0.262806 -0.02249
C_ C_ 0.982141 0.539494 0.247863 -0.02249
C_ C_ 0.710689 0.593352 0.294731 -0.11473
C_ C_ 0.963229 0.603751 0.27899 -0.11473
C_ C_ 0.687408 0.622132 0.216855 -0.11473
C_ C_ 0.933911 0.628686 0.20711 -0.11473
C_ C_ 0.693427 0.630534 0.292924 -0.11473
C_ C_ 0.950342 0.642946 0.2786 -0.11473
C_ C_ 0.71392 0.569529 0.259504 -0.02249
C_ C_ 0.965093 0.578549 0.244741 -0.02249
C_ C_ 0.665135 0.686558 0.251649 0.6875
C_ C_ 0.913375 0.689419 0.244519 0.6875
C_ C_ 0.703493 0.583791 0.220549 -0.11473
C_ C_ 0.951693 0.591713 0.206637 -0.11473
C_ C_ 0.566191 0.65352 0.251295 -0.02249
C_ C_ 0.815835 0.647794 0.253611 -0.02249
C_ C_ 0.518302 0.535878 0.254454 -0.02249
C_ C_ 0.765528 0.535801 0.261349 -0.02249
C_ C_ 0.550084 0.58932 0.218082 -0.11473
C_ C_ 0.794837 0.585149 0.221846 -0.11473
C_ C_ 0.552159 0.640188 0.289212 -0.11473
C_ C_ 0.806095 0.63323 0.292773 -0.11473
C_ C_ 0.565308 0.625555 0.216775 -0.11473
C_ C_ 0.810798 0.622449 0.217725 -0.11473
C_ C_ 0.535262 0.575633 0.255793 -0.02249
C_ C_ 0.780285 0.575458 0.259205 -0.02249
C_ C_ 0.585693 0.691406 0.248314 0.6875
C_ C_ 0.83385 0.685917 0.25053 0.6875
C_ C_ 0.535607 0.60223 0.291039 -0.11473
C_ C_ 0.788527 0.598295 0.295515 -0.11473
C_ C_ 0.631159 0.725254 0.374404 0.17695
C_ C_ 0.854835 0.773915 0.373829 0.17695
C_ C_ 0.62168 0.798301 0.366677 0.17695
C_ C_ 0.884184 0.712489 0.369663 0.17695
C_ C_ 0.624468 0.802299 0.410611 -0.11473
C_ C_ 0.88497 0.710258 0.413255 -0.11473
C_ C_ 0.626329 0.766872 0.43728 0.23465
C_ C_ 0.868609 0.737857 0.437211 0.23465
C_ C_ 0.631868 0.72857 0.417632 -0.11473
C_ C_ 0.852352 0.770438 0.416852 -0.11473
C_ C_ 0.618108 0.705255 0.12066 0.17695
C_ C_ 0.872933 0.70626 0.11973 0.17695
C_ C_ 0.624103 0.777986 0.118134 0.17695
C_ C_ 0.864403 0.777543 0.120943 0.17695
C_ C_ 0.618156 0.779348 0.0755527 -0.11473
C_ C_ 0.866322 0.778462 0.0757547 -0.11473
C_ C_ 0.620904 0.741104 0.0531535 0.23465
C_ C_ 0.86979 0.742698 0.0521234 0.23465
C_ C_ 0.622175 0.70456 0.0772419 -0.11473
C_ C_ 0.870973 0.705038 0.0746775 -0.11473
C_ C_ 0.533306 0.998863 0.246885 0.05793
C_ C_ 0.783827 0.99768 0.248672 0.05793
C_ C_ 0.718365 0.4951 0.262158 0.05793
C_ C_ 0.967036 0.502999 0.257709 0.05793
Br Br 0.578822 0.997861 0.24802 -0.17191
Br Br 0.827171 0.997196 0.248712 -0.17191
Br Br 0.673135 0.492257 0.266404 -0.17191
Br Br 0.925245 0.503972 0.268699 -0.17191
N_ N_ 0.624875 0.759812 0.349792 -0.272
N_ N_ 0.870398 0.744812 0.350752 -0.272
N_ N_ 0.624447 0.772265 0.481949 -0.12501
N_ N_ 0.870951 0.736091 0.482738 -0.12501
N_ N_ 0.621914 0.742208 0.140896 -0.272
N_ N_ 0.865546 0.740893 0.141137 -0.272
N_ N_ 0.616041 0.738227 0.00847592 -0.12501
N_ N_ 0.864826 0.740972 0.00712084 -0.12501
O_ O_ 0.601591 0.802836 0.208071 -0.60745
O_ O_ 0.835943 0.786839 0.212797 -0.60745
O_ O_ 0.597283 0.797192 0.277156 -0.60745
O_ O_ 0.83814 0.788468 0.281679 -0.60745
O_ O_ 0.656115 0.797469 0.280335 -0.60745
O_ O_ 0.902212 0.796166 0.276952 -0.60745
O_ O_ 0.66224 0.786604 0.213848 -0.60745
O_ O_ 0.89812 0.793972 0.207798 -0.60745
O_ O_ 0.661446 0.707216 0.284704 -0.60745
O_ O_ 0.906202 0.703575 0.280299 -0.60745
O_ O_ 0.651454 0.695729 0.218654 -0.60745
O_ O_ 0.90073 0.703083 0.211506 -0.60745
O_ O_ 0.589258 0.709706 0.213737 -0.60745
O_ O_ 0.838727 0.701012 0.215007 -0.60745
O_ O_ 0.595104 0.707205 0.283263 -0.60745
O_ O_ 0.844541 0.701385 0.284105 -0.60745
Zn Zn 0.627117 0.755799 0.780679 0.9476
Zn Zn 0.876411 0.751679 0.778036 0.9476
Zn Zn 0.629323 0.7508 0.711972 0.9476
Zn Zn 0.872676 0.751036 0.707335 0.9476
H_ H_ 0.531419 0.915756 0.674677 0.10932
H_ H_ 0.79383 0.932797 0.688531 0.10932
H_ H_ 0.559628 0.852217 0.810932 0.10932
H_ H_ 0.811848 0.845784 0.817014 0.10932
H_ H_ 0.559612 0.852742 0.677528 0.10932
H_ H_ 0.819541 0.862814 0.684775 0.10932
H_ H_ 0.53497 0.92129 0.807039 0.10932
H_ H_ 0.781857 0.914389 0.821041 0.10932
H_ H_ 0.710378 0.921523 0.818212 0.10932
H_ H_ 0.95821 0.935387 0.802138 0.10932
H_ H_ 0.688202 0.858725 0.683869 0.10932
H_ H_ 0.940252 0.846441 0.675194 0.10932
H_ H_ 0.684383 0.855106 0.817293 0.10932
H_ H_ 0.924496 0.873131 0.807954 0.10932
H_ H_ 0.726679 0.915324 0.686642 0.10932
H_ H_ 0.962973 0.911926 0.670573 0.10932
H_ H_ 0.732394 0.602019 0.815131 0.10932
H_ H_ 0.974191 0.599127 0.811755 0.10932
H_ H_ 0.676304 0.637778 0.685536 0.10932
H_ H_ 0.92299 0.634332 0.678763 0.10932
H_ H_ 0.698861 0.664934 0.814047 0.10932
H_ H_ 0.955573 0.669475 0.803461 0.10932
H_ H_ 0.702619 0.573746 0.691003 0.10932
H_ H_ 0.949713 0.565855 0.684703 0.10932
H_ H_ 0.533685 0.581811 0.685759 0.10932
H_ H_ 0.769713 0.590631 0.688326 0.10932
H_ H_ 0.570018 0.652723 0.813619 0.10932
H_ H_ 0.820398 0.646633 0.812457 0.10932
H_ H_ 0.559494 0.651286 0.680475 0.10932
H_ H_ 0.801878 0.652485 0.678419 0.10932
H_ H_ 0.538324 0.592641 0.818965 0.10932
H_ H_ 0.793604 0.579707 0.813667 0.10932
H_ H_ 0.634821 0.688907 0.855261 0.10932
H_ H_ 0.877709 0.686796 0.857854 0.10932
H_ H_ 0.625163 0.820223 0.85406 0.10932
H_ H_ 0.877517 0.817733 0.849718 0.10932
H_ H_ 0.629835 0.822091 0.931911 0.10932
H_ H_ 0.888672 0.825713 0.925579 0.10932
H_ H_ 0.63325 0.687707 0.931517 0.10932
H_ H_ 0.878486 0.692083 0.938431 0.10932
H_ H_ 0.62225 0.682519 0.638493 0.10932
H_ H_ 0.880958 0.824432 0.63624 0.10932
H_ H_ 0.629951 0.814858 0.631356 0.10932
H_ H_ 0.866017 0.693481 0.631796 0.10932
H_ H_ 0.621437 0.812093 0.555887 0.10932
H_ H_ 0.86286 0.696715 0.551003 0.10932
H_ H_ 0.628416 0.679229 0.560067 0.10932
H_ H_ 0.868249 0.8277 0.556058 0.10932
C_ C_ 0.563579 0.84742 0.74393 -0.02249
C_ C_ 0.817799 0.850288 0.749742 -0.02249
C_ C_ 0.511981 0.961423 0.741202 -0.02249
C_ C_ 0.767999 0.966083 0.757064 -0.02249
C_ C_ 0.534261 0.900781 0.705138 -0.11473
C_ C_ 0.795894 0.910406 0.716292 -0.11473
C_ C_ 0.55424 0.866932 0.781541 -0.11473
C_ C_ 0.805456 0.862695 0.788675 -0.11473
C_ C_ 0.552537 0.864758 0.706591 -0.11473
C_ C_ 0.8117 0.874095 0.713317 -0.11473
C_ C_ 0.528208 0.919575 0.741429 -0.02249
C_ C_ 0.784792 0.924248 0.755171 -0.02249
C_ C_ 0.584946 0.813101 0.745641 0.6875
C_ C_ 0.83724 0.811381 0.744994 0.6875
C_ C_ 0.536688 0.902678 0.779936 -0.11473
C_ C_ 0.787547 0.899473 0.791124 -0.11473
C_ C_ 0.68719 0.848575 0.748099 -0.02249
C_ C_ 0.933616 0.850385 0.743168 -0.02249
C_ C_ 0.73545 0.96385 0.752877 -0.02249
C_ C_ 0.984014 0.962338 0.733582 -0.02249
C_ C_ 0.709281 0.905358 0.78932 -0.11473
C_ C_ 0.954674 0.913632 0.775409 -0.11473
C_ C_ 0.698129 0.868589 0.712537 -0.11473
C_ C_ 0.944017 0.862594 0.704072 -0.11473
C_ C_ 0.692342 0.868634 0.78782 -0.11473
C_ C_ 0.935934 0.878926 0.777998 -0.11473
C_ C_ 0.721258 0.922352 0.752693 -0.02249
C_ C_ 0.966792 0.922924 0.737072 -0.02249
C_ C_ 0.668937 0.811326 0.746017 0.6875
C_ C_ 0.916395 0.810774 0.745417 0.6875
C_ C_ 0.716281 0.903504 0.714206 -0.11473
C_ C_ 0.957979 0.900732 0.700081 -0.11473
C_ C_ 0.683686 0.653971 0.75157 -0.02249
C_ C_ 0.936325 0.655873 0.741266 -0.02249
C_ C_ 0.733243 0.539589 0.758576 -0.02249
C_ C_ 0.985889 0.540838 0.752635 -0.02249
C_ C_ 0.713587 0.605813 0.791345 -0.11473
C_ C_ 0.968112 0.60987 0.780343 -0.11473
C_ C_ 0.687774 0.629805 0.714345 -0.11473
C_ C_ 0.938506 0.6285 0.705885 -0.11473
C_ C_ 0.700009 0.644815 0.78842 -0.11473
C_ C_ 0.951712 0.64536 0.777694 -0.11473
C_ C_ 0.715365 0.579113 0.755685 -0.02249
C_ C_ 0.970093 0.580499 0.747858 -0.02249
C_ C_ 0.667465 0.693726 0.747656 0.6875
C_ C_ 0.915869 0.692584 0.739644 0.6875
C_ C_ 0.703758 0.593422 0.717412 -0.11473
C_ C_ 0.953874 0.589335 0.710704 -0.11473
C_ C_ 0.566004 0.65867 0.747515 -0.02249
C_ C_ 0.814775 0.65404 0.745747 -0.02249
C_ C_ 0.518377 0.540372 0.756583 -0.02249
C_ C_ 0.764584 0.53794 0.751377 -0.02249
C_ C_ 0.541108 0.598518 0.712789 -0.11473
C_ C_ 0.778998 0.604634 0.71455 -0.11473
C_ C_ 0.562458 0.638215 0.786172 -0.11473
C_ C_ 0.81349 0.632185 0.783593 -0.11473
C_ C_ 0.555925 0.637411 0.710177 -0.11473
C_ C_ 0.798696 0.638489 0.710201 -0.11473
C_ C_ 0.535749 0.580929 0.752081 -0.02249
C_ C_ 0.782669 0.578031 0.749509 -0.02249
C_ C_ 0.586401 0.696478 0.747333 0.6875
C_ C_ 0.835029 0.691158 0.74261 0.6875
C_ C_ 0.544582 0.602059 0.787509 -0.11473
C_ C_ 0.797996 0.59335 0.78514 -0.11473
C_ C_ 0.632944 0.719231 0.871396 0.17695
C_ C_ 0.87974 0.716936 0.874468 0.17695
C_ C_ 0.629912 0.792321 0.870907 0.17695
C_ C_ 0.878612 0.790262 0.869284 0.17695
C_ C_ 0.631203 0.792862 0.914995 -0.11473
C_ C_ 0.881956 0.793885 0.912731 -0.11473
C_ C_ 0.630875 0.755019 0.93887 0.23465
C_ C_ 0.877079 0.760097 0.937806 0.23465
C_ C_ 0.630185 0.717265 0.916116 -0.11473
C_ C_ 0.877007 0.720278 0.919165 -0.11473
C_ C_ 0.628794 0.710518 0.621789 0.17695
C_ C_ 0.874276 0.796327 0.616671 0.17695
C_ C_ 0.630063 0.783337 0.617491 0.17695
C_ C_ 0.86668 0.72353 0.614013 0.17695
C_ C_ 0.625575 0.782708 0.573328 -0.11473
C_ C_ 0.864318 0.725888 0.569425 -0.11473
C_ C_ 0.622786 0.745141 0.551991 0.23465
C_ C_ 0.86784 0.764056 0.548773 0.23465
C_ C_ 0.624339 0.708903 0.575951 -0.11473
C_ C_ 0.869562 0.799156 0.572371 -0.11473
C_ C_ 0.528993 -0.0028559999999999697 0.743119 0.05793
C_ C_ 0.782818 0.00544607 0.755161 0.05793
C_ C_ 0.718957 0.501088 0.770618 0.05793
C_ C_ 0.969843 0.503299 0.757965 0.05793
Br Br 0.572012 -0.00549299999999997 0.744333 -0.17191
Br Br 0.825496 1.0040596 0.756858 -0.17191
Br Br 0.676022 0.499637 0.778952 -0.17191
Br Br 0.929289 0.505963 0.782073 -0.17191
N_ N_ 0.630709 0.755523 0.849824 -0.272
N_ N_ 0.87988 0.751934 0.85123 -0.272
N_ N_ 0.633924 0.756712 0.984192 -0.12501
N_ N_ 0.876898 0.765944 0.982056 -0.12501
N_ N_ 0.629315 0.748122 0.640492 -0.272
N_ N_ 0.872657 0.759098 0.636162 -0.272
N_ N_ 0.625746 0.741409 0.506469 -0.12501
N_ N_ 0.864058 0.766384 0.505464 -0.12501
O_ O_ 0.59204 0.792943 0.712805 -0.60745
O_ O_ 0.845174 0.800324 0.709342 -0.60745
O_ O_ 0.599369 0.806592 0.780332 -0.60745
O_ O_ 0.846986 0.793126 0.777632 -0.60745
O_ O_ 0.662849 0.794338 0.780345 -0.60745
O_ O_ 0.906846 0.796147 0.781029 -0.60745
O_ O_ 0.6552 0.800102 0.712909 -0.60745
O_ O_ 0.906174 0.796108 0.711096 -0.60745
O_ O_ 0.654769 0.708381 0.780227 -0.60745
O_ O_ 0.908902 0.711424 0.77338 -0.60745
O_ O_ 0.661894 0.7122 0.712885 -0.60745
O_ O_ 0.903328 0.703874 0.705919 -0.60745
O_ O_ 0.601502 0.70292 0.714258 -0.60745
O_ O_ 0.838123 0.708935 0.707576 -0.60745
O_ O_ 0.589318 0.720279 0.779807 -0.60745
O_ O_ 0.845722 0.709803 0.776294 -0.60745
_cell_length_a 44.444
_cell_length_b 32.3360000049186
_cell_length_c 31.843999878906452
_cell_angle_alpha 89.99799923859553
_cell_angle_beta 91.13600050494348
_cell_angle_gamma 89.9990006550086
_symmetry_space_group_name_H-M         'P 1'
_symmetry_Int_Tables_number            1
loop_
_symmetry_equiv_pos_as_xyz
   'x, y, z'
                         
loop_
_atom_site_label
_atom_site_type_symbol
_atom_site_fract_x 
_atom_site_fract_y
_atom_site_fract_z
_atom_site_charge
Zn Zn 0.122896 0.246044 0.28414 0.9476
Zn Zn 0.377053 0.247972 0.294753 0.9476
Zn Zn 0.121759 0.249823 0.215123 0.9476
Zn Zn 0.375503 0.247387 0.221089 0.9476
H_ H_ 0.0321608 0.417312 0.187315 0.10932
H_ H_ 0.288539 0.420506 0.191664 0.10932
H_ H_ 0.0583088 0.345616 0.321734 0.10932
H_ H_ 0.309099 0.340848 0.321299 0.10932
H_ H_ 0.0567042 0.35452 0.186526 0.10932
H_ H_ 0.305521 0.347396 0.190657 0.10932
H_ H_ 0.031543 0.410453 0.324727 0.10932
H_ H_ 0.277219 0.400389 0.326885 0.10932
H_ H_ 0.211853 0.415804 0.329228 0.10932
H_ H_ 0.447485 0.43587 0.313314 0.10932
H_ H_ 0.189257 0.352867 0.188808 0.10932
H_ H_ 0.464372 0.322757 0.206138 0.10932
H_ H_ 0.179004 0.352934 0.323863 0.10932
H_ H_ 0.420146 0.367836 0.317706 0.10932
H_ H_ 0.213581 0.417632 0.192389 0.10932
H_ H_ 0.484146 0.40078 0.192512 0.10932
H_ H_ 0.198473 0.0654253 0.307309 0.10932
H_ H_ 0.476727 0.0848535 0.325666 0.10932
H_ H_ 0.190014 0.154222 0.181477 0.10932
H_ H_ 0.441561 0.150929 0.190584 0.10932
H_ H_ 0.173806 0.133575 0.311124 0.10932
H_ H_ 0.442723 0.14414 0.330814 0.10932
H_ H_ 0.222685 0.0923835 0.180663 0.10932
H_ H_ 0.465824 0.0843268 0.190854 0.10932
H_ H_ 0.0195964 0.0866358 0.17795 0.10932
H_ H_ 0.289198 0.0773778 0.179891 0.10932
H_ H_ 0.0731095 0.133838 0.307669 0.10932
H_ H_ 0.308899 0.146711 0.319636 0.10932
H_ H_ 0.0477623 0.153094 0.178777 0.10932
H_ H_ 0.325085 0.133589 0.187095 0.10932
H_ H_ 0.0409026 0.0695822 0.307987 0.10932
H_ H_ 0.27784 0.0816738 0.314077 0.10932
H_ H_ 0.118484 0.180025 0.353282 0.10932
H_ H_ 0.363739 0.31292 0.368043 0.10932
H_ H_ 0.124342 0.309624 0.362531 0.10932
H_ H_ 0.37411 0.182881 0.361849 0.10932
H_ H_ 0.12542 0.306015 0.43985 0.10932
H_ H_ 0.375799 0.177484 0.437566 0.10932
H_ H_ 0.112418 0.176428 0.432386 0.10932
H_ H_ 0.359675 0.309945 0.444693 0.10932
H_ H_ 0.0966454 0.304297 0.139017 0.10932
H_ H_ 0.346017 0.20163 0.140893 0.10932
H_ H_ 0.149716 0.198578 0.137504 0.10932
H_ H_ 0.409877 0.298929 0.152479 0.10932
H_ H_ 0.159095 0.208894 0.0585337 0.10932
H_ H_ 0.416442 0.293208 0.0755503 0.10932
H_ H_ 0.0982598 0.311878 0.0634327 0.10932
H_ H_ 0.344853 0.2088 0.0634955 0.10932
C_ C_ 0.0638184 0.345421 0.253883 -0.02249
C_ C_ 0.313252 0.342279 0.254515 -0.02249
C_ C_ 0.0141309 0.46257 0.256855 -0.02249
C_ C_ 0.265048 0.459981 0.261854 -0.02249
C_ C_ 0.0399921 0.404814 0.218038 -0.11473
C_ C_ 0.291581 0.403374 0.221238 -0.11473
C_ C_ 0.0557939 0.363515 0.292488 -0.11473
C_ C_ 0.30131 0.355288 0.292427 -0.11473
C_ C_ 0.0540088 0.366945 0.217428 -0.11473
C_ C_ 0.306479 0.366225 0.21981 -0.11473
C_ C_ 0.0305269 0.421851 0.255614 -0.02249
C_ C_ 0.281286 0.418562 0.2592 -0.02249
C_ C_ 0.0805391 0.306495 0.250929 0.6875
C_ C_ 0.337155 0.307731 0.252988 0.6875
C_ C_ 0.0388321 0.400633 0.293119 -0.11473
C_ C_ 0.286854 0.392927 0.296449 -0.11473
C_ C_ 0.179764 0.348581 0.256677 -0.02249
C_ C_ 0.438657 0.344529 0.260154 -0.02249
C_ C_ 0.233583 0.461537 0.262643 -0.02249
C_ C_ 0.485204 0.45996 0.248126 -0.02249
C_ C_ 0.205141 0.403607 0.297925 -0.11473
C_ C_ 0.450682 0.41261 0.288128 -0.11473
C_ C_ 0.189598 0.368434 0.219153 -0.11473
C_ C_ 0.46032 0.350364 0.228123 -0.11473
C_ C_ 0.186274 0.368831 0.296234 -0.11473
C_ C_ 0.435917 0.375324 0.291733 -0.11473
C_ C_ 0.215606 0.421103 0.259275 -0.02249
C_ C_ 0.469389 0.420202 0.252297 -0.02249
C_ C_ 0.157888 0.313711 0.256586 0.6875
C_ C_ 0.419847 0.306403 0.261591 0.6875
C_ C_ 0.206522 0.403909 0.220942 -0.11473
C_ C_ 0.471177 0.391186 0.220129 -0.11473
C_ C_ 0.1798 0.149444 0.246014 -0.02249
C_ C_ 0.441221 0.156805 0.261013 -0.02249
C_ C_ 0.232191 0.0363124 0.242344 -0.02249
C_ C_ 0.486701 0.0359103 0.2544 -0.02249
C_ C_ 0.200276 0.0886145 0.282504 -0.11473
C_ C_ 0.464424 0.0959419 0.296873 -0.11473
C_ C_ 0.192597 0.136625 0.209086 -0.11473
C_ C_ 0.449212 0.139478 0.222079 -0.11473
C_ C_ 0.183822 0.124802 0.282529 -0.11473
C_ C_ 0.451425 0.135655 0.299288 -0.11473
C_ C_ 0.214065 0.0763744 0.245651 -0.02249
C_ C_ 0.470061 0.0776827 0.256482 -0.02249
C_ C_ 0.162284 0.188454 0.24735 0.6875
C_ C_ 0.418342 0.191512 0.261175 0.6875
C_ C_ 0.209991 0.100707 0.208522 -0.11473
C_ C_ 0.464258 0.101196 0.221017 -0.11473
C_ C_ 0.0632058 0.149327 0.243912 -0.02249
C_ C_ 0.317155 0.147862 0.254248 -0.02249
C_ C_ 0.0138905 0.0325892 0.243235 -0.02249
C_ C_ 0.263938 0.0374375 0.248578 -0.02249
C_ C_ 0.0334877 0.0956653 0.205075 -0.11473
C_ C_ 0.292027 0.0930596 0.21122 -0.11473
C_ C_ 0.0606936 0.124316 0.279627 -0.11473
C_ C_ 0.304312 0.132217 0.289821 -0.11473
C_ C_ 0.0510701 0.133208 0.205485 -0.11473
C_ C_ 0.30994 0.128161 0.213202 -0.11473
C_ C_ 0.0317499 0.0712583 0.242479 -0.02249
C_ C_ 0.28112 0.0763836 0.248757 -0.02249
C_ C_ 0.0810193 0.18874 0.244287 0.6875
C_ C_ 0.33575 0.185789 0.253401 0.6875
C_ C_ 0.0462671 0.0857119 0.278173 -0.11473
C_ C_ 0.284913 0.0975496 0.286599 -0.11473
C_ C_ 0.119291 0.207853 0.373327 0.17695
C_ C_ 0.369501 0.283951 0.383772 0.17695
C_ C_ 0.122591 0.279398 0.377583 0.17695
C_ C_ 0.37507 0.211878 0.380087 0.17695
C_ C_ 0.12096 0.277921 0.421713 -0.11473
C_ C_ 0.375893 0.208071 0.425475 -0.11473
C_ C_ 0.11914 0.241025 0.44285 0.23465
C_ C_ 0.372759 0.243488 0.449309 0.23465
C_ C_ 0.118343 0.205253 0.419176 -0.11473
C_ C_ 0.366499 0.281549 0.427396 -0.11473
C_ C_ 0.110798 0.284761 0.122631 0.17695
C_ C_ 0.358383 0.227881 0.126189 0.17695
C_ C_ 0.139429 0.223888 0.120862 0.17695
C_ C_ 0.396213 0.27817 0.132513 0.17695
C_ C_ 0.144444 0.230472 0.0775419 -0.11473
C_ C_ 0.398252 0.279752 0.0887559 -0.11473
C_ C_ 0.127747 0.26015 0.0548652 0.23465
C_ C_ 0.380179 0.253468 0.0628179 0.23465
C_ C_ 0.111928 0.290265 0.0782818 -0.11473
C_ C_ 0.35885 0.230068 0.0821557 -0.11473
C_ C_ 0.0297277 0.499704 0.249677 0.05793
C_ C_ 0.282766 0.497393 0.26043 0.05793
C_ C_ 0.216795 -0.0006610000000000227 0.240895 0.05793
C_ C_ 0.471017 0.999034 0.257975 0.05793
Br Br 0.0726952 0.499297 0.239602 -0.17191
Br Br 0.327454 0.491593 0.266389 -0.17191
Br Br 0.172688 -0.002271000000000023 0.236228 -0.17191
Br Br 0.429831 0.998861 0.276168 -0.17191
N_ N_ 0.123132 0.244914 0.35404 -0.272
N_ N_ 0.372138 0.248827 0.36125 -0.272
N_ N_ 0.120655 0.237035 0.488644 -0.12501
N_ N_ 0.370776 0.241239 0.493134 -0.12501
N_ N_ 0.122719 0.252133 0.143404 -0.272
N_ N_ 0.377467 0.251033 0.150479 -0.272
N_ N_ 0.127943 0.263189 0.0102173 -0.12501
N_ N_ 0.382257 0.257912 0.0175654 -0.12501
O_ O_ 0.0887544 0.292184 0.21677 -0.60745
O_ O_ 0.34482 0.291126 0.219437 -0.60745
O_ O_ 0.0893286 0.289823 0.285908 -0.60745
O_ O_ 0.342777 0.288469 0.286017 -0.60745
O_ O_ 0.153142 0.293739 0.29015 -0.60745
O_ O_ 0.409983 0.293454 0.29555 -0.60745
O_ O_ 0.150322 0.297039 0.221796 -0.60745
O_ O_ 0.407001 0.291504 0.227922 -0.60745
O_ O_ 0.155246 0.203451 0.28299 -0.60745
O_ O_ 0.409554 0.207725 0.295872 -0.60745
O_ O_ 0.152734 0.206559 0.215282 -0.60745
O_ O_ 0.409013 0.205531 0.227054 -0.60745
O_ O_ 0.0935633 0.20175 0.210954 -0.60745
O_ O_ 0.343582 0.200733 0.21771 -0.60745
O_ O_ 0.0894082 0.203111 0.280088 -0.60745
O_ O_ 0.347078 0.202993 0.2873 -0.60745
Zn Zn 0.123787 0.247063 0.783493 0.9476
Zn Zn 0.374637 0.250578 0.787815 0.9476
Zn Zn 0.122059 0.250519 0.711823 0.9476
Zn Zn 0.376699 0.249202 0.718815 0.9476
H_ H_ 0.0247238 0.406091 0.687153 0.10932
H_ H_ 0.266854 0.401145 0.690726 0.10932
H_ H_ 0.0844328 0.372193 0.813645 0.10932
H_ H_ 0.332718 0.369916 0.81419 0.10932
H_ H_ 0.0398529 0.338576 0.692965 0.10932
H_ H_ 0.296555 0.337867 0.688604 0.10932
H_ H_ 0.0564176 0.438909 0.809204 0.10932
H_ H_ 0.297529 0.428179 0.816754 0.10932
H_ H_ 0.215789 0.415857 0.81878 0.10932
H_ H_ 0.471288 0.413896 0.822183 0.10932
H_ H_ 0.170607 0.367213 0.684103 0.10932
H_ H_ 0.43437 0.35536 0.693119 0.10932
H_ H_ 0.193027 0.346115 0.816068 0.10932
H_ H_ 0.436599 0.356496 0.829368 0.10932
H_ H_ 0.195709 0.432585 0.688675 0.10932
H_ H_ 0.462516 0.420489 0.687718 0.10932
H_ H_ 0.217875 0.0829365 0.81103 0.10932
H_ H_ 0.448865 0.0756868 0.818748 0.10932
H_ H_ 0.198168 0.163749 0.678539 0.10932
H_ H_ 0.446584 0.158512 0.6887 0.10932
H_ H_ 0.197927 0.153556 0.81257 0.10932
H_ H_ 0.425887 0.142533 0.820467 0.10932
H_ H_ 0.22029 0.0936088 0.67499 0.10932
H_ H_ 0.471574 0.0895769 0.687662 0.10932
H_ H_ 0.036821 0.0815697 0.675283 0.10932
H_ H_ 0.281241 0.0920204 0.682122 0.10932
H_ H_ 0.0654029 0.145215 0.812924 0.10932
H_ H_ 0.326639 0.135444 0.817848 0.10932
H_ H_ 0.0658766 0.146721 0.675387 0.10932
H_ H_ 0.303344 0.161124 0.688851 0.10932
H_ H_ 0.0379977 0.0790505 0.807519 0.10932
H_ H_ 0.296589 0.0716101 0.813445 0.10932
H_ H_ 0.13907 0.306553 0.865761 0.10932
H_ H_ 0.415315 0.212043 0.872587 0.10932
H_ H_ 0.102082 0.185239 0.852798 0.10932
H_ H_ 0.33395 0.287384 0.860963 0.10932
H_ H_ 0.1132 0.175713 0.931455 0.10932
H_ H_ 0.328934 0.283518 0.93703 0.10932
H_ H_ 0.139418 0.300117 0.942214 0.10932
H_ H_ 0.412378 0.219283 0.949376 0.10932
H_ H_ 0.131302 0.194171 0.638276 0.10932
H_ H_ 0.364808 0.19352 0.637495 0.10932
H_ H_ 0.113263 0.320217 0.646076 0.10932
H_ H_ 0.39454 0.315254 0.655396 0.10932
H_ H_ 0.103745 0.323446 0.56885 0.10932
H_ H_ 0.397726 0.323529 0.570776 0.10932
H_ H_ 0.13161 0.198288 0.558659 0.10932
H_ H_ 0.366166 0.200618 0.559961 0.10932
C_ C_ 0.0655639 0.348649 0.752849 -0.02249
C_ C_ 0.317688 0.346885 0.753402 -0.02249
C_ C_ 0.0160265 0.465293 0.747466 -0.02249
C_ C_ 0.264557 0.460931 0.749005 -0.02249
C_ C_ 0.0301262 0.396035 0.717886 -0.11473
C_ C_ 0.280392 0.392119 0.718069 -0.11473
C_ C_ 0.0691149 0.378501 0.786539 -0.11473
C_ C_ 0.316696 0.374226 0.787629 -0.11473
C_ C_ 0.0429712 0.357702 0.721614 -0.11473
C_ C_ 0.297529 0.35488 0.718181 -0.11473
C_ C_ 0.0335753 0.42543 0.751853 -0.02249
C_ C_ 0.281055 0.42037 0.751815 -0.02249
C_ C_ 0.0823178 0.31003 0.750274 0.6875
C_ C_ 0.337448 0.309291 0.756145 0.6875
C_ C_ 0.052403 0.414814 0.785652 -0.11473
C_ C_ 0.297235 0.408189 0.78797 -0.11473
C_ C_ 0.183808 0.346823 0.747637 -0.02249
C_ C_ 0.435964 0.347538 0.759965 -0.02249
C_ C_ 0.231905 0.461496 0.750259 -0.02249
C_ C_ 0.485716 0.464088 0.757188 -0.02249
C_ C_ 0.212359 0.399023 0.788911 -0.11473
C_ C_ 0.461211 0.404577 0.795795 -0.11473
C_ C_ 0.185609 0.370719 0.712065 -0.11473
C_ C_ 0.444174 0.366993 0.721918 -0.11473
C_ C_ 0.196207 0.361165 0.786464 -0.11473
C_ C_ 0.44408 0.368159 0.798397 -0.11473
C_ C_ 0.215621 0.420966 0.750701 -0.02249
C_ C_ 0.468731 0.423737 0.756165 -0.02249
C_ C_ 0.164561 0.30683 0.747244 0.6875
C_ C_ 0.418918 0.307436 0.759854 0.6875
C_ C_ 0.200594 0.407766 0.714117 -0.11473
C_ C_ 0.457411 0.406484 0.718835 -0.11473
C_ C_ 0.187509 0.157801 0.746918 -0.02249
C_ C_ 0.433192 0.154069 0.754003 -0.02249
C_ C_ 0.234783 0.0418124 0.739773 -0.02249
C_ C_ 0.483459 0.0383619 0.756742 -0.02249
C_ C_ 0.213268 0.10118 0.780374 -0.11473
C_ C_ 0.452995 0.0939474 0.792576 -0.11473
C_ C_ 0.197281 0.143693 0.706806 -0.11473
C_ C_ 0.446787 0.138267 0.71753 -0.11473
C_ C_ 0.201234 0.139454 0.783823 -0.11473
C_ C_ 0.437244 0.130504 0.792232 -0.11473
C_ C_ 0.220107 0.0831926 0.741232 -0.02249
C_ C_ 0.46724 0.0789184 0.754339 -0.02249
C_ C_ 0.163594 0.189572 0.748245 0.6875
C_ C_ 0.414167 0.191772 0.752642 0.6875
C_ C_ 0.210882 0.104475 0.704732 -0.11473
C_ C_ 0.462574 0.100625 0.717562 -0.11473
C_ C_ 0.0652886 0.15121 0.743944 -0.02249
C_ C_ 0.32006 0.149851 0.749557 -0.02249
C_ C_ 0.0156458 0.0365804 0.739331 -0.02249
C_ C_ 0.26606 0.0380463 0.745031 -0.02249
C_ C_ 0.0395533 0.0984194 0.704283 -0.11473
C_ C_ 0.287504 0.102618 0.711501 -0.11473
C_ C_ 0.0575045 0.131603 0.781526 -0.11473
C_ C_ 0.316606 0.125543 0.786112 -0.11473
C_ C_ 0.0577859 0.133335 0.70521 -0.11473
C_ C_ 0.305094 0.137707 0.712061 -0.11473
C_ C_ 0.0330344 0.076891 0.741545 -0.02249
C_ C_ 0.286493 0.0766103 0.746677 -0.02249
C_ C_ 0.0859169 0.185949 0.74478 0.6875
C_ C_ 0.336683 0.189057 0.750572 0.6875
C_ C_ 0.0384093 0.0964077 0.780225 -0.11473
C_ C_ 0.3007 0.0884641 0.785276 -0.11473
C_ C_ 0.127322 0.281133 0.87874 0.17695
C_ C_ 0.397519 0.230951 0.884804 0.17695
C_ C_ 0.112364 0.210264 0.871128 0.17695
C_ C_ 0.352114 0.271407 0.87871 0.17695
C_ C_ 0.117392 0.204214 0.915594 -0.11473
C_ C_ 0.347689 0.267831 0.922338 -0.11473
C_ C_ 0.124249 0.237555 0.940756 0.23465
C_ C_ 0.369289 0.24782 0.946936 0.23465
C_ C_ 0.129523 0.276574 0.922456 -0.11473
C_ C_ 0.395675 0.233979 0.928577 -0.11473
C_ C_ 0.125905 0.222754 0.621074 0.17695
C_ C_ 0.370855 0.220996 0.623819 0.17695
C_ C_ 0.116399 0.293208 0.626 0.17695
C_ C_ 0.389654 0.289018 0.632081 0.17695
C_ C_ 0.11277 0.296217 0.582725 -0.11473
C_ C_ 0.390887 0.294317 0.586415 -0.11473
C_ C_ 0.117803 0.263294 0.55661 0.23465
C_ C_ 0.380046 0.262387 0.562593 0.23465
C_ C_ 0.124075 0.224378 0.576682 -0.11473
C_ C_ 0.36951 0.22586 0.580431 -0.11473
C_ C_ 0.0317033 0.503293 0.749776 0.05793
C_ C_ 0.280978 0.498854 0.748083 0.05793
C_ C_ 0.21628 0.00656837 0.739509 0.05793
C_ C_ 0.466374 0.999679 0.756067 0.05793
Br Br 0.0755519 0.505927 0.74387 -0.17191
Br Br 0.323609 0.49835 0.751617 -0.17191
Br Br 0.172144 0.0165951 0.744172 -0.17191
Br Br 0.424518 1.00279596 0.77089 -0.17191
N_ N_ 0.121802 0.248115 0.854073 -0.272
N_ N_ 0.373289 0.246339 0.86098 -0.272
N_ N_ 0.126519 0.233205 0.985766 -0.12501
N_ N_ 0.365089 0.241611 0.990949 -0.12501
N_ N_ 0.120869 0.255358 0.644868 -0.272
N_ N_ 0.379172 0.253768 0.649369 -0.272
N_ N_ 0.117668 0.268408 0.511822 -0.12501
N_ N_ 0.379829 0.269048 0.517687 -0.12501
O_ O_ 0.0902964 0.294844 0.714985 -0.60745
O_ O_ 0.351002 0.297134 0.72237 -0.60745
O_ O_ 0.0918007 0.291046 0.783286 -0.60745
O_ O_ 0.344463 0.294179 0.790457 -0.60745
O_ O_ 0.154813 0.291203 0.780731 -0.60745
O_ O_ 0.404723 0.297468 0.791509 -0.60745
O_ O_ 0.152505 0.297067 0.713006 -0.60745
O_ O_ 0.412623 0.289554 0.724993 -0.60745
O_ O_ 0.153518 0.20149 0.781865 -0.60745
O_ O_ 0.406625 0.207954 0.786106 -0.60745
O_ O_ 0.156044 0.206422 0.713614 -0.60745
O_ O_ 0.406243 0.205092 0.717258 -0.60745
O_ O_ 0.0909749 0.205449 0.711904 -0.60745
O_ O_ 0.345101 0.206507 0.718453 -0.60745
O_ O_ 0.0934881 0.201339 0.780788 -0.60745
O_ O_ 0.344161 0.204248 0.786684 -0.60745
Zn Zn 0.125885 0.751727 0.277114 0.9476
Zn Zn 0.377716 0.750654 0.281907 0.9476
Zn Zn 0.125642 0.748595 0.209155 0.9476
Zn Zn 0.37699 0.750222 0.211517 0.9476
H_ H_ 0.0219008 0.909354 0.174088 0.10932
H_ H_ 0.292725 0.927041 0.178256 0.10932
H_ H_ 0.06616 0.85113 0.309262 0.10932
H_ H_ 0.308102 0.846457 0.307362 0.10932
H_ H_ 0.0517862 0.843028 0.177822 0.10932
H_ H_ 0.328331 0.866147 0.181573 0.10932
H_ H_ 0.0365211 0.919834 0.310831 0.10932
H_ H_ 0.273611 0.905913 0.30991 0.10932
H_ H_ 0.212075 0.92065 0.307418 0.10932
H_ H_ 0.485564 0.900615 0.315894 0.10932
H_ H_ 0.194759 0.843606 0.177446 0.10932
H_ H_ 0.422432 0.870547 0.189058 0.10932
H_ H_ 0.174693 0.861787 0.305969 0.10932
H_ H_ 0.452859 0.837398 0.316354 0.10932
H_ H_ 0.216433 0.911992 0.172546 0.10932
H_ H_ 0.4464 0.934028 0.195363 0.10932
H_ H_ 0.20292 0.572869 0.316255 0.10932
H_ H_ 0.456178 0.56882 0.308411 0.10932
H_ H_ 0.201229 0.655159 0.182819 0.10932
H_ H_ 0.446403 0.657978 0.18218 0.10932
H_ H_ 0.183366 0.645901 0.315511 0.10932
H_ H_ 0.42368 0.629684 0.310522 0.10932
H_ H_ 0.225542 0.590788 0.184533 0.10932
H_ H_ 0.481887 0.596842 0.186681 0.10932
H_ H_ 0.0178564 0.593239 0.182121 0.10932
H_ H_ 0.306845 0.564415 0.192831 0.10932
H_ H_ 0.0770336 0.634004 0.31055 0.10932
H_ H_ 0.29315 0.664528 0.303203 0.10932
H_ H_ 0.059149 0.643358 0.177525 0.10932
H_ H_ 0.340454 0.627366 0.19535 0.10932
H_ H_ 0.0424254 0.573897 0.312661 0.10932
H_ H_ 0.274227 0.594934 0.316583 0.10932
H_ H_ 0.11077 0.819094 0.346674 0.10932
H_ H_ 0.39267 0.806651 0.367154 0.10932
H_ H_ 0.137602 0.695115 0.356577 0.10932
H_ H_ 0.357978 0.685952 0.349177 0.10932
H_ H_ 0.142508 0.701982 0.433889 0.10932
H_ H_ 0.354277 0.679034 0.426617 0.10932
H_ H_ 0.114935 0.824797 0.4228 0.10932
H_ H_ 0.394864 0.797232 0.443172 0.10932
H_ H_ 0.132418 0.679964 0.133744 0.10932
H_ H_ 0.368823 0.811516 0.139599 0.10932
H_ H_ 0.120818 0.810653 0.127473 0.10932
H_ H_ 0.367689 0.680034 0.133788 0.10932
H_ H_ 0.1114 0.807905 0.0538698 0.10932
H_ H_ 0.375315 0.681107 0.058282 0.10932
H_ H_ 0.127082 0.676998 0.0569636 0.10932
H_ H_ 0.373289 0.816711 0.0643051 0.10932
C_ C_ 0.0642535 0.844431 0.241775 -0.02249
C_ C_ 0.318469 0.851854 0.243592 -0.02249
C_ C_ 0.0124118 0.958467 0.238454 -0.02249
C_ C_ 0.264923 0.960042 0.244925 -0.02249
C_ C_ 0.032713 0.896572 0.203634 -0.11473
C_ C_ 0.296173 0.910975 0.207501 -0.11473
C_ C_ 0.0594274 0.867072 0.280614 -0.11473
C_ C_ 0.302163 0.861577 0.279861 -0.11473
C_ C_ 0.0494815 0.859751 0.205083 -0.11473
C_ C_ 0.315919 0.877057 0.207746 -0.11473
C_ C_ 0.0285198 0.918715 0.240934 -0.02249
C_ C_ 0.280793 0.921789 0.24467 -0.02249
C_ C_ 0.0842546 0.806848 0.241253 0.6875
C_ C_ 0.340523 0.816467 0.244334 0.6875
C_ C_ 0.0408559 0.902654 0.280776 -0.11473
C_ C_ 0.283315 0.896852 0.279867 -0.11473
C_ C_ 0.180804 0.849876 0.241137 -0.02249
C_ C_ 0.435476 0.84809 0.251691 -0.02249
C_ C_ 0.233027 0.961855 0.239128 -0.02249
C_ C_ 0.48555 0.960735 0.254457 -0.02249
C_ C_ 0.206267 0.904195 0.279482 -0.11473
C_ C_ 0.469539 0.893091 0.288975 -0.11473
C_ C_ 0.19535 0.862378 0.203884 -0.11473
C_ C_ 0.436074 0.874696 0.217186 -0.11473
C_ C_ 0.18548 0.872284 0.27852 -0.11473
C_ C_ 0.450223 0.859371 0.290083 -0.11473
C_ C_ 0.216578 0.921803 0.240931 -0.02249
C_ C_ 0.46802 0.922091 0.254682 -0.02249
C_ C_ 0.164905 0.80965 0.242947 0.6875
C_ C_ 0.416601 0.81132 0.248517 0.6875
C_ C_ 0.208908 0.901397 0.202758 -0.11473
C_ C_ 0.449451 0.912602 0.220438 -0.11473
C_ C_ 0.186539 0.651857 0.249535 -0.02249
C_ C_ 0.435111 0.650808 0.247879 -0.02249
C_ C_ 0.236229 0.537858 0.253355 -0.02249
C_ C_ 0.486122 0.536308 0.246698 -0.02249
C_ C_ 0.207698 0.593855 0.289541 -0.11473
C_ C_ 0.4536 0.587337 0.280319 -0.11473
C_ C_ 0.201647 0.639327 0.213558 -0.11473
C_ C_ 0.447685 0.636524 0.21029 -0.11473
C_ C_ 0.192322 0.631961 0.287788 -0.11473
C_ C_ 0.436293 0.624312 0.28203 -0.11473
C_ C_ 0.219541 0.577596 0.251725 -0.02249
C_ C_ 0.469142 0.576389 0.245836 -0.02249
C_ C_ 0.167516 0.691755 0.248147 0.6875
C_ C_ 0.415387 0.688325 0.248229 0.6875
C_ C_ 0.214449 0.599704 0.212725 -0.11473
C_ C_ 0.467038 0.601206 0.211541 -0.11473
C_ C_ 0.067509 0.6503 0.245578 -0.02249
C_ C_ 0.317058 0.653312 0.247337 -0.02249
C_ C_ 0.0137603 0.538147 0.246311 -0.02249
C_ C_ 0.268745 0.535974 0.256228 -0.02249
C_ C_ 0.0321818 0.601255 0.210001 -0.11473
C_ C_ 0.30695 0.58257 0.220666 -0.11473
C_ C_ 0.0634611 0.625934 0.283038 -0.11473
C_ C_ 0.298404 0.641616 0.282382 -0.11473
C_ C_ 0.0517167 0.636127 0.208886 -0.11473
C_ C_ 0.322429 0.621758 0.21841 -0.11473
C_ C_ 0.0315389 0.577049 0.245602 -0.02249
C_ C_ 0.286306 0.575731 0.25396 -0.02249
C_ C_ 0.0903045 0.683642 0.244447 0.6875
C_ C_ 0.333303 0.693572 0.244766 0.6875
C_ C_ 0.0451201 0.591448 0.283544 -0.11473
C_ C_ 0.285776 0.60273 0.286742 -0.11473
C_ C_ 0.119233 0.793096 0.365477 0.17695
C_ C_ 0.382715 0.778992 0.378576 0.17695
C_ C_ 0.13395 0.723022 0.371613 0.17695
C_ C_ 0.365487 0.712119 0.369227 0.17695
C_ C_ 0.131011 0.725091 0.414639 -0.11473
C_ C_ 0.361172 0.708615 0.41335 -0.11473
C_ C_ 0.127942 0.763277 0.435429 0.23465
C_ C_ 0.370403 0.74003 0.441346 0.23465
C_ C_ 0.122022 0.796703 0.409723 -0.11473
C_ C_ 0.386306 0.772634 0.422121 -0.11473
C_ C_ 0.127842 0.708442 0.116575 0.17695
C_ C_ 0.370928 0.782332 0.121479 0.17695
C_ C_ 0.119325 0.780059 0.113616 0.17695
C_ C_ 0.372844 0.70898 0.118616 0.17695
C_ C_ 0.113166 0.778376 0.071695 -0.11473
C_ C_ 0.375908 0.710527 0.0754068 -0.11473
C_ C_ 0.117115 0.74141 0.0494834 0.23465
C_ C_ 0.377386 0.750484 0.0546338 0.23465
C_ C_ 0.123249 0.705008 0.0736413 -0.11473
C_ C_ 0.376503 0.786321 0.0783335 -0.11473
C_ C_ 0.0283632 0.995301 0.243376 0.05793
C_ C_ 0.279559 0.999095 0.2476 0.05793
C_ C_ 0.219111 0.50076 0.258803 0.05793
C_ C_ 0.470576 0.498264 0.241706 0.05793
Br Br 0.0723262 -0.005749000000000004 0.242561 -0.17191
Br Br 0.322728 0.999499 0.250033 -0.17191
Br Br 0.176691 0.504114 0.252396 -0.17191
Br Br 0.426623 0.498585 0.241995 -0.17191
N_ N_ 0.123552 0.756056 0.347116 -0.272
N_ N_ 0.376238 0.746801 0.353167 -0.272
N_ N_ 0.130935 0.769574 0.479528 -0.12501
N_ N_ 0.37136 0.735368 0.486542 -0.12501
N_ N_ 0.122039 0.744682 0.136978 -0.272
N_ N_ 0.371531 0.744872 0.140954 -0.272
N_ N_ 0.114298 0.738031 0.00485391 -0.12501
N_ N_ 0.378295 0.754758 0.00992382 -0.12501
O_ O_ 0.0967492 0.794395 0.207964 -0.60745
O_ O_ 0.344599 0.795421 0.210856 -0.60745
O_ O_ 0.0913824 0.790619 0.275663 -0.60745
O_ O_ 0.348752 0.799443 0.279028 -0.60745
O_ O_ 0.151711 0.799937 0.275374 -0.60745
O_ O_ 0.412175 0.790743 0.281579 -0.60745
O_ O_ 0.157164 0.792712 0.209385 -0.60745
O_ O_ 0.408336 0.796353 0.21368 -0.60745
O_ O_ 0.160485 0.710662 0.280558 -0.60745
O_ O_ 0.403522 0.700007 0.282057 -0.60745
O_ O_ 0.160318 0.705211 0.213024 -0.60745
O_ O_ 0.410973 0.708749 0.215273 -0.60745
O_ O_ 0.0960039 0.701841 0.211785 -0.60745
O_ O_ 0.344569 0.703367 0.211172 -0.60745
O_ O_ 0.100805 0.698033 0.278768 -0.60745
O_ O_ 0.341768 0.713091 0.276897 -0.60745
Zn Zn 0.125303 0.749936 0.779688 0.9476
Zn Zn 0.369591 0.752584 0.784086 0.9476
Zn Zn 0.127796 0.750683 0.711563 0.9476
Zn Zn 0.371325 0.750901 0.714779 0.9476
H_ H_ 0.0413081 0.920919 0.67416 0.10932
H_ H_ 0.281534 0.910902 0.677795 0.10932
H_ H_ 0.0660718 0.855789 0.807193 0.10932
H_ H_ 0.304121 0.852821 0.815007 0.10932
H_ H_ 0.0740202 0.861605 0.675804 0.10932
H_ H_ 0.300029 0.840482 0.683367 0.10932
H_ H_ 0.0307926 0.914967 0.806942 0.10932
H_ H_ 0.27685 0.915091 0.815755 0.10932
H_ H_ 0.193606 0.936677 0.805482 0.10932
H_ H_ 0.478447 0.90312 0.812674 0.10932
H_ H_ 0.190082 0.848077 0.677103 0.10932
H_ H_ 0.408792 0.869894 0.691081 0.10932
H_ H_ 0.176291 0.866025 0.811604 0.10932
H_ H_ 0.441048 0.847757 0.8177 0.10932
H_ H_ 0.214926 0.917997 0.676985 0.10932
H_ H_ 0.446924 0.928143 0.684321 0.10932
H_ H_ 0.217193 0.584029 0.816709 0.10932
H_ H_ 0.462479 0.584521 0.822867 0.10932
H_ H_ 0.188251 0.652642 0.680621 0.10932
H_ H_ 0.444987 0.65176 0.684301 0.10932
H_ H_ 0.192417 0.649511 0.819033 0.10932
H_ H_ 0.425126 0.640881 0.818668 0.10932
H_ H_ 0.218374 0.588751 0.682986 0.10932
H_ H_ 0.471727 0.588553 0.688834 0.10932
H_ H_ 0.0361882 0.578526 0.683926 0.10932
H_ H_ 0.273941 0.589996 0.682935 0.10932
H_ H_ 0.064166 0.653141 0.819032 0.10932
H_ H_ 0.313571 0.643027 0.814229 0.10932
H_ H_ 0.068294 0.643763 0.684509 0.10932
H_ H_ 0.305402 0.652607 0.684261 0.10932
H_ H_ 0.0404919 0.584907 0.81995 0.10932
H_ H_ 0.294049 0.576312 0.813618 0.10932
H_ H_ 0.125581 0.819167 0.849848 0.10932
H_ H_ 0.376583 0.806993 0.862913 0.10932
H_ H_ 0.125684 0.687068 0.853536 0.10932
H_ H_ 0.370597 0.677233 0.849048 0.10932
H_ H_ 0.127949 0.6903 0.9317 0.10932
H_ H_ 0.374191 0.664399 0.925648 0.10932
H_ H_ 0.111746 0.82103 0.925226 0.10932
H_ H_ 0.386088 0.798854 0.944969 0.10932
H_ H_ 0.119732 0.687366 0.641228 0.10932
H_ H_ 0.364131 0.821219 0.641846 0.10932
H_ H_ 0.141638 0.811964 0.632796 0.10932
H_ H_ 0.363948 0.692603 0.635793 0.10932
H_ H_ 0.140492 0.808331 0.553295 0.10932
H_ H_ 0.362339 0.697994 0.5582 0.10932
H_ H_ 0.104205 0.687631 0.564151 0.10932
H_ H_ 0.372749 0.82911 0.568274 0.10932
C_ C_ 0.0698643 0.852173 0.742675 -0.02249
C_ C_ 0.30943 0.845186 0.749041 -0.02249
C_ C_ 0.0155259 0.962023 0.739289 -0.02249
C_ C_ 0.262082 0.964074 0.744981 -0.02249
C_ C_ 0.0436052 0.905724 0.702589 -0.11473
C_ C_ 0.284651 0.89764 0.709264 -0.11473
C_ C_ 0.058097 0.869727 0.778635 -0.11473
C_ C_ 0.298833 0.863114 0.786215 -0.11473
C_ C_ 0.0625318 0.871232 0.70402 -0.11473
C_ C_ 0.299942 0.859669 0.710066 -0.11473
C_ C_ 0.0309345 0.921623 0.739521 -0.02249
C_ C_ 0.275693 0.919565 0.745011 -0.02249
C_ C_ 0.0891981 0.814652 0.743758 0.6875
C_ C_ 0.330966 0.809484 0.752819 0.6875
C_ C_ 0.0384842 0.90291 0.776666 -0.11473
C_ C_ 0.283048 0.902098 0.785003 -0.11473
C_ C_ 0.185472 0.847782 0.745282 -0.02249
C_ C_ 0.425907 0.852021 0.753067 -0.02249
C_ C_ 0.22958 0.9667 0.744994 -0.02249
C_ C_ 0.48162 0.962142 0.748724 -0.02249
C_ C_ 0.195316 0.915699 0.778683 -0.11473
C_ C_ 0.461024 0.901013 0.787235 -0.11473
C_ C_ 0.195054 0.865954 0.706546 -0.11473
C_ C_ 0.427026 0.875378 0.716162 -0.11473
C_ C_ 0.184538 0.874002 0.781405 -0.11473
C_ C_ 0.442021 0.867036 0.788459 -0.11473
C_ C_ 0.210792 0.926598 0.743199 -0.02249
C_ C_ 0.46308 0.924081 0.749777 -0.02249
C_ C_ 0.168098 0.808314 0.746171 0.6875
C_ C_ 0.411054 0.809415 0.751662 0.6875
C_ C_ 0.207304 0.90552 0.706404 -0.11473
C_ C_ 0.444636 0.911787 0.713413 -0.11473
C_ C_ 0.187219 0.656308 0.749786 -0.02249
C_ C_ 0.428802 0.64745 0.749755 -0.02249
C_ C_ 0.232889 0.537364 0.749081 -0.02249
C_ C_ 0.485785 0.539982 0.757322 -0.02249
C_ C_ 0.21102 0.598277 0.786122 -0.11473
C_ C_ 0.456928 0.59712 0.792435 -0.11473
C_ C_ 0.194545 0.63741 0.710204 -0.11473
C_ C_ 0.442649 0.63222 0.713491 -0.11473
C_ C_ 0.197128 0.636025 0.787591 -0.11473
C_ C_ 0.434099 0.627257 0.789012 -0.11473
C_ C_ 0.217269 0.579448 0.747456 -0.02249
C_ C_ 0.469402 0.579691 0.754852 -0.02249
C_ C_ 0.166745 0.692569 0.750102 0.6875
C_ C_ 0.406668 0.685176 0.748836 0.6875
C_ C_ 0.210437 0.600077 0.710726 -0.11473
C_ C_ 0.459885 0.596874 0.715559 -0.11473
C_ C_ 0.0687194 0.652065 0.750148 -0.02249
C_ C_ 0.313811 0.652015 0.748171 -0.02249
C_ C_ 0.0171672 0.541265 0.754435 -0.02249
C_ C_ 0.265276 0.536464 0.746706 -0.02249
C_ C_ 0.0408912 0.597451 0.712701 -0.11473
C_ C_ 0.284398 0.600834 0.711154 -0.11473
C_ C_ 0.0578397 0.637698 0.78915 -0.11473
C_ C_ 0.305318 0.632146 0.786127 -0.11473
C_ C_ 0.0599485 0.631793 0.714315 -0.11473
C_ C_ 0.30067 0.636823 0.711024 -0.11473
C_ C_ 0.033048 0.580722 0.751707 -0.02249
C_ C_ 0.28232 0.576581 0.747893 -0.02249
C_ C_ 0.0855469 0.692555 0.748176 0.6875
C_ C_ 0.332486 0.691166 0.748962 0.6875
C_ C_ 0.0438787 0.598351 0.788625 -0.11473
C_ C_ 0.294153 0.592937 0.785995 -0.11473
C_ C_ 0.120504 0.789708 0.86824 0.17695
C_ C_ 0.377911 0.77671 0.878762 0.17695
C_ C_ 0.124478 0.716128 0.869553 0.17695
C_ C_ 0.369442 0.703274 0.869886 0.17695
C_ C_ 0.125293 0.71685 0.913544 -0.11473
C_ C_ 0.371811 0.697739 0.91439 -0.11473
C_ C_ 0.122307 0.754862 0.933909 0.23465
C_ C_ 0.377248 0.731334 0.940283 0.23465
C_ C_ 0.117188 0.791251 0.912128 -0.11473
C_ C_ 0.381585 0.771276 0.923117 -0.11473
C_ C_ 0.117872 0.715365 0.621594 0.17695
C_ C_ 0.370074 0.79452 0.623591 0.17695
C_ C_ 0.134364 0.785003 0.615746 0.17695
C_ C_ 0.371163 0.721837 0.619677 0.17695
C_ C_ 0.132878 0.783464 0.571489 -0.11473
C_ C_ 0.368247 0.724486 0.576418 -0.11473
C_ C_ 0.1198 0.749076 0.550879 0.23465
C_ C_ 0.371036 0.764151 0.555991 0.23465
C_ C_ 0.116246 0.713908 0.577642 -0.11473
C_ C_ 0.373978 0.799057 0.580443 -0.11473
C_ C_ 0.0312937 0.000660526 0.7384 0.05793
C_ C_ 0.279037 -0.00014099999999994672 0.749671 0.05793
C_ C_ 0.216089 0.500152 0.751041 0.05793
C_ C_ 0.469461 0.501422 0.756705 0.05793
Br Br 0.0744688 -0.0007249999999999757 0.746309 -0.17191
Br Br 0.322446 -0.005340000000000011 0.756058 -0.17191
Br Br 0.173527 0.502088 0.762674 -0.17191
Br Br 0.425872 0.503508 0.750833 -0.17191
N_ N_ 0.125293 0.752746 0.849152 -0.272
N_ N_ 0.371419 0.743562 0.854398 -0.272
N_ N_ 0.129024 0.75837 0.978255 -0.12501
N_ N_ 0.37447 0.725188 0.985413 -0.12501
N_ N_ 0.128615 0.750431 0.639474 -0.272
N_ N_ 0.373658 0.757184 0.642583 -0.272
N_ N_ 0.117871 0.74672 0.505271 -0.12501
N_ N_ 0.370479 0.766199 0.510454 -0.12501
O_ O_ 0.0942578 0.795678 0.709352 -0.60745
O_ O_ 0.341246 0.794323 0.718204 -0.60745
O_ O_ 0.0984765 0.798818 0.778336 -0.60745
O_ O_ 0.342002 0.799338 0.788646 -0.60745
O_ O_ 0.161424 0.789463 0.780696 -0.60745
O_ O_ 0.403914 0.792268 0.786089 -0.60745
O_ O_ 0.155209 0.796136 0.712758 -0.60745
O_ O_ 0.403041 0.792651 0.716305 -0.60745
O_ O_ 0.152406 0.701607 0.782806 -0.60745
O_ O_ 0.399164 0.702343 0.782628 -0.60745
O_ O_ 0.161572 0.712018 0.716531 -0.60745
O_ O_ 0.400339 0.702834 0.713576 -0.60745
O_ O_ 0.0979187 0.704656 0.714284 -0.60745
O_ O_ 0.339041 0.710293 0.715822 -0.60745
O_ O_ 0.090245 0.712452 0.781227 -0.60745
O_ O_ 0.339028 0.708624 0.783232 -0.60745
Zn Zn 0.630321 0.244312 0.292319 0.9476
Zn Zn 0.875935 0.24883 0.285529 0.9476
Zn Zn 0.630554 0.245835 0.219477 0.9476
Zn Zn 0.875759 0.253313 0.215292 0.9476
H_ H_ 0.544632 0.416797 0.187795 0.10932
H_ H_ 0.784171 0.418205 0.191348 0.10932
H_ H_ 0.563033 0.34541 0.324397 0.10932
H_ H_ 0.808798 0.341204 0.32246 0.10932
H_ H_ 0.574858 0.351108 0.190234 0.10932
H_ H_ 0.816304 0.355757 0.185672 0.10932
H_ H_ 0.529659 0.404103 0.321132 0.10932
H_ H_ 0.784068 0.408642 0.323767 0.10932
H_ H_ 0.719038 0.414456 0.322316 0.10932
H_ H_ 0.96751 0.412895 0.323881 0.10932
H_ H_ 0.689786 0.346997 0.189016 0.10932
H_ H_ 0.919704 0.373012 0.191321 0.10932
H_ H_ 0.696005 0.345991 0.322827 0.10932
H_ H_ 0.941922 0.349401 0.320523 0.10932
H_ H_ 0.718148 0.411397 0.186517 0.10932
H_ H_ 0.956668 0.429607 0.195128 0.10932
H_ H_ 0.710554 0.0718529 0.315801 0.10932
H_ H_ 0.9565 0.0677929 0.304807 0.10932
H_ H_ 0.697106 0.149503 0.181212 0.10932
H_ H_ 0.930991 0.14734 0.177445 0.10932
H_ H_ 0.678504 0.131075 0.314205 0.10932
H_ H_ 0.924474 0.131744 0.311542 0.10932
H_ H_ 0.732784 0.0939466 0.186441 0.10932
H_ H_ 0.964866 0.0843773 0.173938 0.10932
H_ H_ 0.541276 0.0770351 0.183782 0.10932
H_ H_ 0.802006 0.0644153 0.185028 0.10932
H_ H_ 0.57508 0.132433 0.318991 0.10932
H_ H_ 0.805862 0.154462 0.310728 0.10932
H_ H_ 0.570487 0.142104 0.184618 0.10932
H_ H_ 0.828405 0.134255 0.183652 0.10932
H_ H_ 0.536312 0.0797198 0.319626 0.10932
H_ H_ 0.779655 0.0909753 0.314233 0.10932
H_ H_ 0.602619 0.197445 0.37076 0.10932
H_ H_ 0.86654 0.183609 0.367843 0.10932
H_ H_ 0.654263 0.305106 0.357082 0.10932
H_ H_ 0.889485 0.309224 0.353627 0.10932
H_ H_ 0.650922 0.315816 0.436458 0.10932
H_ H_ 0.902917 0.311797 0.430744 0.10932
H_ H_ 0.606181 0.197993 0.44792 0.10932
H_ H_ 0.866369 0.192259 0.443014 0.10932
H_ H_ 0.628525 0.185568 0.133966 0.10932
H_ H_ 0.921382 0.2412 0.138282 0.10932
H_ H_ 0.623861 0.313251 0.156989 0.10932
H_ H_ 0.831283 0.26899 0.13925 0.10932
H_ H_ 0.621201 0.328619 0.0797488 0.10932
H_ H_ 0.827148 0.264705 0.0604308 0.10932
H_ H_ 0.618338 0.196175 0.0580157 0.10932
H_ H_ 0.92229 0.247689 0.0597505 0.10932
C_ C_ 0.569191 0.342598 0.257183 -0.02249
C_ C_ 0.813248 0.340976 0.252091 -0.02249
C_ C_ 0.518093 0.457737 0.251316 -0.02249
C_ C_ 0.766493 0.459174 0.258073 -0.02249
C_ C_ 0.548702 0.402545 0.218399 -0.11473
C_ C_ 0.789129 0.399863 0.21896 -0.11473
C_ C_ 0.559197 0.361938 0.293999 -0.11473
C_ C_ 0.802907 0.355574 0.291749 -0.11473
C_ C_ 0.565273 0.364203 0.218906 -0.11473
C_ C_ 0.80811 0.366091 0.216642 -0.11473
C_ C_ 0.535208 0.417239 0.25446 -0.02249
C_ C_ 0.784399 0.419394 0.257597 -0.02249
C_ C_ 0.587894 0.302104 0.258945 0.6875
C_ C_ 0.833979 0.305224 0.249471 0.6875
C_ C_ 0.541646 0.39731 0.292537 -0.11473
C_ C_ 0.789999 0.396941 0.294282 -0.11473
C_ C_ 0.688659 0.341625 0.255219 -0.02249
C_ C_ 0.932733 0.350187 0.253009 -0.02249
C_ C_ 0.734647 0.458461 0.256591 -0.02249
C_ C_ 0.981967 0.464983 0.260445 -0.02249
C_ C_ 0.713647 0.399045 0.293051 -0.11473
C_ C_ 0.960029 0.402629 0.293257 -0.11473
C_ C_ 0.694764 0.363394 0.217546 -0.11473
C_ C_ 0.934168 0.377844 0.217947 -0.11473
C_ C_ 0.700931 0.359243 0.293072 -0.11473
C_ C_ 0.944153 0.365405 0.291936 -0.11473
C_ C_ 0.718785 0.418991 0.255734 -0.02249
C_ C_ 0.965872 0.425172 0.257002 -0.02249
C_ C_ 0.669277 0.303396 0.255753 0.6875
C_ C_ 0.915263 0.311196 0.250201 0.6875
C_ C_ 0.713355 0.397944 0.217337 -0.11473
C_ C_ 0.952575 0.413272 0.219783 -0.11473
C_ C_ 0.688889 0.149504 0.251605 -0.02249
C_ C_ 0.929589 0.147753 0.245741 -0.02249
C_ C_ 0.738334 0.0345978 0.250802 -0.02249
C_ C_ 0.982139 0.0354461 0.238792 -0.02249
C_ C_ 0.707251 0.0882974 0.287279 -0.11473
C_ C_ 0.954003 0.0891277 0.27949 -0.11473
C_ C_ 0.701143 0.133996 0.212506 -0.11473
C_ C_ 0.939921 0.134901 0.205814 -0.11473
C_ C_ 0.690479 0.123975 0.285845 -0.11473
C_ C_ 0.934906 0.123671 0.281196 -0.11473
C_ C_ 0.721474 0.0742738 0.251062 -0.02249
C_ C_ 0.965608 0.0758689 0.240537 -0.02249
C_ C_ 0.671241 0.187951 0.251403 0.6875
C_ C_ 0.912034 0.186708 0.249775 0.6875
C_ C_ 0.721713 0.101188 0.214787 -0.11473
C_ C_ 0.959393 0.098052 0.204552 -0.11473
C_ C_ 0.573292 0.145945 0.252578 -0.02249
C_ C_ 0.821544 0.148355 0.248525 -0.02249
C_ C_ 0.518342 0.0362478 0.249559 -0.02249
C_ C_ 0.769175 0.0345004 0.253623 -0.02249
C_ C_ 0.544714 0.0947175 0.213648 -0.11473
C_ C_ 0.800598 0.0860263 0.213417 -0.11473
C_ C_ 0.567491 0.1231 0.288657 -0.11473
C_ C_ 0.807199 0.133773 0.285001 -0.11473
C_ C_ 0.562511 0.129934 0.214239 -0.11473
C_ C_ 0.817673 0.123158 0.212024 -0.11473
C_ C_ 0.536195 0.0748382 0.251075 -0.02249
C_ C_ 0.78585 0.0737908 0.24955 -0.02249
C_ C_ 0.594721 0.181789 0.253596 0.6875
C_ C_ 0.839445 0.188444 0.24884 0.6875
C_ C_ 0.547808 0.0886062 0.289018 -0.11473
C_ C_ 0.788515 0.0991695 0.28529 -0.11473
C_ C_ 0.614973 0.22193 0.385499 0.17695
C_ C_ 0.869456 0.21442 0.379823 0.17695
C_ C_ 0.64548 0.281013 0.378242 0.17695
C_ C_ 0.888157 0.281871 0.37274 0.17695
C_ C_ 0.645295 0.286315 0.422766 -0.11473
C_ C_ 0.892477 0.285221 0.416698 -0.11473
C_ C_ 0.632726 0.256059 0.44894 0.23465
C_ C_ 0.882677 0.254743 0.443936 0.23465
C_ C_ 0.616803 0.223406 0.430284 -0.11473
C_ C_ 0.870159 0.21997 0.424592 -0.11473
C_ C_ 0.626854 0.215313 0.121775 0.17695
C_ C_ 0.900413 0.247747 0.121339 0.17695
C_ C_ 0.625667 0.288719 0.13382 0.17695
C_ C_ 0.848355 0.260532 0.120839 0.17695
C_ C_ 0.625859 0.29773 0.0906238 -0.11473
C_ C_ 0.847374 0.256075 0.0769384 -0.11473
C_ C_ 0.622913 0.263336 0.0638858 0.23465
C_ C_ 0.874213 0.255412 0.0537517 0.23465
C_ C_ 0.621001 0.221802 0.0794917 -0.11473
C_ C_ 0.901644 0.252024 0.0765953 -0.11473
C_ C_ 0.532772 0.497303 0.257167 0.05793
C_ C_ 0.7822 0.497846 0.262834 0.05793
C_ C_ 0.720824 0.998604 0.253452 0.05793
C_ C_ 0.965271 0.998592 0.230395 0.05793
Br Br 0.576013 0.496954 0.260333 -0.17191
Br Br 0.822897 0.499114 0.283108 -0.17191
Br Br 0.677213 -0.0003410000000000357 0.254246 -0.17191
Br Br 0.922457 0.00243381 0.222836 -0.17191
N_ N_ 0.630515 0.248488 0.361424 -0.272
N_ N_ 0.876158 0.247807 0.355409 -0.272
N_ N_ 0.632091 0.26208 0.494169 -0.12501
N_ N_ 0.883439 0.259438 0.488133 -0.12501
N_ N_ 0.629619 0.248936 0.148195 -0.272
N_ N_ 0.875023 0.253707 0.142379 -0.272
N_ N_ 0.620058 0.269963 0.0203638 -0.12501
N_ N_ 0.870964 0.261294 0.00872156 -0.12501
O_ O_ 0.600097 0.289401 0.224891 -0.60745
O_ O_ 0.838794 0.287673 0.21466 -0.60745
O_ O_ 0.595699 0.287721 0.294575 -0.60745
O_ O_ 0.847503 0.293275 0.281946 -0.60745
O_ O_ 0.657543 0.290514 0.289533 -0.60745
O_ O_ 0.910542 0.289905 0.283095 -0.60745
O_ O_ 0.659234 0.290802 0.220778 -0.60745
O_ O_ 0.903329 0.301197 0.21578 -0.60745
O_ O_ 0.661174 0.202371 0.286406 -0.60745
O_ O_ 0.903377 0.199911 0.285163 -0.60745
O_ O_ 0.661395 0.202377 0.217691 -0.60745
O_ O_ 0.909884 0.211425 0.217578 -0.60745
O_ O_ 0.60265 0.19867 0.220188 -0.60745
O_ O_ 0.848477 0.203633 0.214815 -0.60745
O_ O_ 0.602378 0.197696 0.289438 -0.60745
O_ O_ 0.841095 0.209308 0.282774 -0.60745
Zn Zn 0.623756 0.249078 0.790963 0.9476
Zn Zn 0.88195 0.250867 0.782635 0.9476
Zn Zn 0.624849 0.251565 0.722884 0.9476
Zn Zn 0.876836 0.253459 0.717362 0.9476
H_ H_ 0.544924 0.423055 0.687285 0.10932
H_ H_ 0.762513 0.402105 0.697758 0.10932
H_ H_ 0.556842 0.351786 0.824164 0.10932
H_ H_ 0.84197 0.372463 0.810883 0.10932
H_ H_ 0.575269 0.363339 0.69199 0.10932
H_ H_ 0.795622 0.337673 0.694163 0.10932
H_ H_ 0.532896 0.416447 0.821196 0.10932
H_ H_ 0.809396 0.437681 0.810624 0.10932
H_ H_ 0.737551 0.398207 0.816443 0.10932
H_ H_ 0.985503 0.403139 0.809276 0.10932
H_ H_ 0.65875 0.38269 0.703814 0.10932
H_ H_ 0.916077 0.375413 0.691027 0.10932
H_ H_ 0.703249 0.339543 0.81894 0.10932
H_ H_ 0.955345 0.340754 0.809828 0.10932
H_ H_ 0.69528 0.443922 0.704914 0.10932
H_ H_ 0.944123 0.442604 0.692423 0.10932
H_ H_ 0.724723 0.0863544 0.81374 0.10932
H_ H_ 0.971798 0.0795668 0.81139 0.10932
H_ H_ 0.666491 0.135552 0.690509 0.10932
H_ H_ 0.929999 0.14329 0.677756 0.10932
H_ H_ 0.692431 0.148436 0.823737 0.10932
H_ H_ 0.947763 0.149425 0.812452 0.10932
H_ H_ 0.692004 0.0726318 0.690558 0.10932
H_ H_ 0.963244 0.0886428 0.673085 0.10932
H_ H_ 0.5405 0.0778252 0.683976 0.10932
H_ H_ 0.778459 0.0942313 0.686443 0.10932
H_ H_ 0.563493 0.144235 0.818205 0.10932
H_ H_ 0.825349 0.146363 0.819173 0.10932
H_ H_ 0.56286 0.151642 0.684458 0.10932
H_ H_ 0.804833 0.159731 0.686895 0.10932
H_ H_ 0.531213 0.0844077 0.817245 0.10932
H_ H_ 0.791783 0.0846489 0.821184 0.10932
H_ H_ 0.612915 0.314053 0.871903 0.10932
H_ H_ 0.928368 0.269626 0.850175 0.10932
H_ H_ 0.631481 0.187755 0.864986 0.10932
H_ H_ 0.837576 0.238526 0.858469 0.10932
H_ H_ 0.639715 0.184202 0.938981 0.10932
H_ H_ 0.841658 0.237299 0.939697 0.10932
H_ H_ 0.611522 0.310816 0.949666 0.10932
H_ H_ 0.934086 0.267477 0.929085 0.10932
H_ H_ 0.625748 0.31268 0.642484 0.10932
H_ H_ 0.86569 0.312729 0.634501 0.10932
H_ H_ 0.616236 0.184684 0.653956 0.10932
H_ H_ 0.881013 0.186993 0.648894 0.10932
H_ H_ 0.622702 0.178378 0.573157 0.10932
H_ H_ 0.872965 0.178349 0.56985 0.10932
H_ H_ 0.630076 0.304861 0.565476 0.10932
H_ H_ 0.862421 0.303914 0.553994 0.10932
C_ C_ 0.56942 0.350522 0.759139 -0.02249
C_ C_ 0.821566 0.350536 0.751326 -0.02249
C_ C_ 0.517939 0.464283 0.755439 -0.02249
C_ C_ 0.766619 0.462548 0.754932 -0.02249
C_ C_ 0.547125 0.409005 0.717836 -0.11473
C_ C_ 0.781137 0.394885 0.721744 -0.11473
C_ C_ 0.55668 0.366456 0.794681 -0.11473
C_ C_ 0.824855 0.378577 0.78504 -0.11473
C_ C_ 0.56524 0.37295 0.720138 -0.11473
C_ C_ 0.799114 0.359043 0.719762 -0.11473
C_ C_ 0.53501 0.424932 0.754731 -0.02249
C_ C_ 0.784389 0.42341 0.754479 -0.02249
C_ C_ 0.586245 0.310976 0.757105 0.6875
C_ C_ 0.839757 0.31106 0.747733 0.6875
C_ C_ 0.539471 0.403097 0.79262 -0.11473
C_ C_ 0.80622 0.414998 0.784921 -0.11473
C_ C_ 0.678998 0.351782 0.75846 -0.02249
C_ C_ 0.935151 0.352218 0.747719 -0.02249
C_ C_ 0.734863 0.462587 0.764647 -0.02249
C_ C_ 0.984545 0.465532 0.753722 -0.02249
C_ C_ 0.718217 0.395231 0.793305 -0.11473
C_ C_ 0.969631 0.399672 0.783814 -0.11473
C_ C_ 0.674183 0.384757 0.72859 -0.11473
C_ C_ 0.935762 0.378663 0.71081 -0.11473
C_ C_ 0.701351 0.358486 0.791089 -0.11473
C_ C_ 0.952319 0.361824 0.78311 -0.11473
C_ C_ 0.715501 0.424578 0.76195 -0.02249
C_ C_ 0.968091 0.427107 0.749953 -0.02249
C_ C_ 0.661015 0.312923 0.759352 0.6875
C_ C_ 0.917802 0.311619 0.750103 0.6875
C_ C_ 0.694776 0.419916 0.727992 -0.11473
C_ C_ 0.949287 0.417605 0.713888 -0.11473
C_ C_ 0.677201 0.149194 0.757752 -0.02249
C_ C_ 0.935264 0.153571 0.746821 -0.02249
C_ C_ 0.733257 0.0397096 0.749117 -0.02249
C_ C_ 0.982805 0.0382322 0.737124 -0.02249
C_ C_ 0.712741 0.098284 0.787607 -0.11473
C_ C_ 0.962067 0.0947565 0.78112 -0.11473
C_ C_ 0.677366 0.126135 0.720749 -0.11473
C_ C_ 0.940237 0.133519 0.707482 -0.11473
C_ C_ 0.694369 0.134545 0.79251 -0.11473
C_ C_ 0.947774 0.133441 0.783864 -0.11473
C_ C_ 0.71434 0.0778489 0.749618 -0.02249
C_ C_ 0.966441 0.0770174 0.741731 -0.02249
C_ C_ 0.659513 0.18764 0.759334 0.6875
C_ C_ 0.917154 0.192573 0.749426 0.6875
C_ C_ 0.694759 0.090699 0.717921 -0.11473
C_ C_ 0.958068 0.0982509 0.705399 -0.11473
C_ C_ 0.565322 0.153144 0.751931 -0.02249
C_ C_ 0.819168 0.155032 0.751589 -0.02249
C_ C_ 0.514865 0.0365266 0.748049 -0.02249
C_ C_ 0.765565 0.042356 0.754173 -0.02249
C_ C_ 0.543793 0.0946127 0.711531 -0.11473
C_ C_ 0.786327 0.106723 0.716865 -0.11473
C_ C_ 0.55748 0.130439 0.78862 -0.11473
C_ C_ 0.814972 0.134056 0.790887 -0.11473
C_ C_ 0.557574 0.135506 0.712204 -0.11473
C_ C_ 0.80373 0.142468 0.715471 -0.11473
C_ C_ 0.534689 0.0751133 0.749109 -0.02249
C_ C_ 0.78155 0.0842854 0.754533 -0.02249
C_ C_ 0.585026 0.189987 0.755647 0.6875
C_ C_ 0.840082 0.190906 0.751538 0.6875
C_ C_ 0.541386 0.0940749 0.788604 -0.11473
C_ C_ 0.79689 0.09877 0.792167 -0.11473
C_ C_ 0.618157 0.285792 0.886313 0.17695
C_ C_ 0.908859 0.263898 0.870873 0.17695
C_ C_ 0.62975 0.215627 0.881995 0.17695
C_ C_ 0.857873 0.247014 0.874691 0.17695
C_ C_ 0.635349 0.214314 0.925117 -0.11473
C_ C_ 0.85983 0.247627 0.92027 -0.11473
C_ C_ 0.626235 0.247366 0.951488 0.23465
C_ C_ 0.886904 0.256855 0.939281 0.23465
C_ C_ 0.61822 0.284459 0.930721 -0.11473
C_ C_ 0.912217 0.264905 0.914269 -0.11473
C_ C_ 0.624174 0.282665 0.628016 0.17695
C_ C_ 0.871092 0.284411 0.618173 0.17695
C_ C_ 0.618937 0.211911 0.634439 0.17695
C_ C_ 0.874785 0.212052 0.628048 0.17695
C_ C_ 0.619337 0.208209 0.589033 -0.11473
C_ C_ 0.87344 0.207329 0.585201 -0.11473
C_ C_ 0.622845 0.243437 0.563793 0.23465
C_ C_ 0.876214 0.241311 0.556787 0.23465
C_ C_ 0.625207 0.280114 0.584022 -0.11473
C_ C_ 0.87092 0.278992 0.573764 -0.11473
C_ C_ 0.533653 0.501619 0.74984 0.05793
C_ C_ 0.780486 0.500961 0.746872 0.05793
C_ C_ 0.718615 0.000869013 0.751377 0.05793
C_ C_ 0.966871 0.000654898 0.732734 0.05793
Br Br 0.576467 0.502518 0.7494 -0.17191
Br Br 0.819603 0.499718 0.724613 -0.17191
Br Br 0.676367 -0.005099999999999993 0.735642 -0.17191
Br Br 0.923643 0.00308862 0.723761 -0.17191
N_ N_ 0.622846 0.25244 0.862547 -0.272
N_ N_ 0.881879 0.256877 0.852369 -0.272
N_ N_ 0.623707 0.241066 0.994341 -0.12501
N_ N_ 0.890948 0.25432 0.982991 -0.12501
N_ N_ 0.623479 0.249251 0.652568 -0.272
N_ N_ 0.874763 0.250623 0.642431 -0.272
N_ N_ 0.62039 0.238914 0.519517 -0.12501
N_ N_ 0.876039 0.232986 0.514143 -0.12501
O_ O_ 0.597316 0.298821 0.723874 -0.60745
O_ O_ 0.849509 0.300638 0.712467 -0.60745
O_ O_ 0.593237 0.29294 0.789454 -0.60745
O_ O_ 0.848355 0.291907 0.779271 -0.60745
O_ O_ 0.655349 0.294531 0.792399 -0.60745
O_ O_ 0.906956 0.299765 0.782571 -0.60745
O_ O_ 0.65337 0.297863 0.723574 -0.60745
O_ O_ 0.908381 0.296347 0.715469 -0.60745
O_ O_ 0.650624 0.20239 0.792853 -0.60745
O_ O_ 0.914063 0.21053 0.785934 -0.60745
O_ O_ 0.65291 0.204949 0.725041 -0.60745
O_ O_ 0.908658 0.209953 0.715926 -0.60745
O_ O_ 0.593246 0.208393 0.721429 -0.60745
O_ O_ 0.844641 0.209392 0.717307 -0.60745
O_ O_ 0.59283 0.206387 0.790278 -0.60745
O_ O_ 0.851449 0.206838 0.785214 -0.60745
Zn Zn 0.626355 0.75048 0.281703 0.9476
Zn Zn 0.872728 0.748606 0.280234 0.9476
Zn Zn 0.626167 0.748744 0.214657 0.9476
Zn Zn 0.869202 0.748065 0.212075 0.9476
H_ H_ 0.528228 0.912749 0.180616 0.10932
H_ H_ 0.777458 0.910622 0.180644 0.10932
H_ H_ 0.581977 0.864118 0.307768 0.10932
H_ H_ 0.804671 0.841267 0.316856 0.10932
H_ H_ 0.559713 0.851886 0.179082 0.10932
H_ H_ 0.799202 0.836403 0.181846 0.10932
H_ H_ 0.549968 0.925858 0.307783 0.10932
H_ H_ 0.785368 0.913363 0.316403 0.10932
H_ H_ 0.717021 0.916943 0.313686 0.10932
H_ H_ 0.964118 0.918524 0.300454 0.10932
H_ H_ 0.699245 0.845113 0.182088 0.10932
H_ H_ 0.921885 0.851309 0.172377 0.10932
H_ H_ 0.678917 0.857155 0.31132 0.10932
H_ H_ 0.941668 0.847879 0.305932 0.10932
H_ H_ 0.716652 0.917353 0.18024 0.10932
H_ H_ 0.956707 0.914539 0.169275 0.10932
H_ H_ 0.722683 0.586483 0.323752 0.10932
H_ H_ 0.972565 0.592469 0.310367 0.10932
H_ H_ 0.680313 0.632909 0.18635 0.10932
H_ H_ 0.915037 0.630784 0.183277 0.10932
H_ H_ 0.691564 0.652254 0.320797 0.10932
H_ H_ 0.945734 0.659825 0.307626 0.10932
H_ H_ 0.706921 0.565478 0.192857 0.10932
H_ H_ 0.951561 0.571511 0.179908 0.10932
H_ H_ 0.552733 0.570717 0.191942 0.10932
H_ H_ 0.797888 0.562971 0.197978 0.10932
H_ H_ 0.558864 0.65847 0.317642 0.10932
H_ H_ 0.812262 0.650692 0.318788 0.10932
H_ H_ 0.578073 0.633385 0.189756 0.10932
H_ H_ 0.821542 0.632264 0.190968 0.10932
H_ H_ 0.526493 0.59067 0.319237 0.10932
H_ H_ 0.780744 0.591239 0.325618 0.10932
H_ H_ 0.641598 0.699914 0.360666 0.10932
H_ H_ 0.842333 0.799664 0.360075 0.10932
H_ H_ 0.625738 0.826216 0.349131 0.10932
H_ H_ 0.891607 0.685762 0.350889 0.10932
H_ H_ 0.623865 0.830871 0.424854 0.10932
H_ H_ 0.888676 0.67838 0.424404 0.10932
H_ H_ 0.638832 0.702876 0.436185 0.10932
H_ H_ 0.844923 0.79706 0.435188 0.10932
H_ H_ 0.621926 0.678136 0.137202 0.10932
H_ H_ 0.876314 0.678424 0.138755 0.10932
H_ H_ 0.627483 0.806583 0.134331 0.10932
H_ H_ 0.864641 0.806826 0.137263 0.10932
H_ H_ 0.62153 0.807303 0.0581114 0.10932
H_ H_ 0.863627 0.808606 0.0612724 0.10932
H_ H_ 0.622111 0.676253 0.0613905 0.10932
H_ H_ 0.869127 0.676145 0.0569525 0.10932
C_ C_ 0.572032 0.852553 0.24261 -0.02249
C_ C_ 0.805305 0.838395 0.248874 -0.02249
C_ C_ 0.516709 0.96077 0.248811 -0.02249
C_ C_ 0.766619 0.959794 0.246336 -0.02249
C_ C_ 0.535786 0.899149 0.208701 -0.11473
C_ C_ 0.786628 0.896199 0.209176 -0.11473
C_ C_ 0.56858 0.874609 0.280351 -0.11473
C_ C_ 0.800471 0.857477 0.287347 -0.11473
C_ C_ 0.555908 0.864436 0.206497 -0.11473
C_ C_ 0.796221 0.854737 0.21036 -0.11473
C_ C_ 0.532855 0.919608 0.246602 -0.02249
C_ C_ 0.782317 0.917851 0.247899 -0.02249
C_ C_ 0.593384 0.818018 0.242819 0.6875
C_ C_ 0.827351 0.802408 0.247656 0.6875
C_ C_ 0.550028 0.906939 0.281699 -0.11473
C_ C_ 0.793261 0.900311 0.286656 -0.11473
C_ C_ 0.687314 0.845351 0.245853 -0.02249
C_ C_ 0.92958 0.847816 0.239878 -0.02249
C_ C_ 0.734966 0.96115 0.249426 -0.02249
C_ C_ 0.980621 0.960437 0.232592 -0.02249
C_ C_ 0.709073 0.903921 0.285443 -0.11473
C_ C_ 0.958666 0.902131 0.272324 -0.11473
C_ C_ 0.698823 0.862815 0.208423 -0.11473
C_ C_ 0.931677 0.867029 0.199777 -0.11473
C_ C_ 0.693463 0.865868 0.285955 -0.11473
C_ C_ 0.942733 0.864446 0.275871 -0.11473
C_ C_ 0.717092 0.922652 0.248296 -0.02249
C_ C_ 0.962937 0.920833 0.234176 -0.02249
C_ C_ 0.668918 0.806707 0.246331 0.6875
C_ C_ 0.909852 0.809618 0.241088 0.6875
C_ C_ 0.710855 0.903106 0.209939 -0.11473
C_ C_ 0.950609 0.902371 0.19798 -0.11473
C_ C_ 0.680919 0.64493 0.255161 -0.02249
C_ C_ 0.936064 0.656297 0.241089 -0.02249
C_ C_ 0.733993 0.533185 0.262806 -0.02249
C_ C_ 0.982141 0.539494 0.247863 -0.02249
C_ C_ 0.710689 0.593352 0.294731 -0.11473
C_ C_ 0.963229 0.603751 0.27899 -0.11473
C_ C_ 0.687408 0.622132 0.216855 -0.11473
C_ C_ 0.933911 0.628686 0.20711 -0.11473
C_ C_ 0.693427 0.630534 0.292924 -0.11473
C_ C_ 0.950342 0.642946 0.2786 -0.11473
C_ C_ 0.71392 0.569529 0.259504 -0.02249
C_ C_ 0.965093 0.578549 0.244741 -0.02249
C_ C_ 0.665135 0.686558 0.251649 0.6875
C_ C_ 0.913375 0.689419 0.244519 0.6875
C_ C_ 0.703493 0.583791 0.220549 -0.11473
C_ C_ 0.951693 0.591713 0.206637 -0.11473
C_ C_ 0.566191 0.65352 0.251295 -0.02249
C_ C_ 0.815835 0.647794 0.253611 -0.02249
C_ C_ 0.518302 0.535878 0.254454 -0.02249
C_ C_ 0.765528 0.535801 0.261349 -0.02249
C_ C_ 0.550084 0.58932 0.218082 -0.11473
C_ C_ 0.794837 0.585149 0.221846 -0.11473
C_ C_ 0.552159 0.640188 0.289212 -0.11473
C_ C_ 0.806095 0.63323 0.292773 -0.11473
C_ C_ 0.565308 0.625555 0.216775 -0.11473
C_ C_ 0.810798 0.622449 0.217725 -0.11473
C_ C_ 0.535262 0.575633 0.255793 -0.02249
C_ C_ 0.780285 0.575458 0.259205 -0.02249
C_ C_ 0.585693 0.691406 0.248314 0.6875
C_ C_ 0.83385 0.685917 0.25053 0.6875
C_ C_ 0.535607 0.60223 0.291039 -0.11473
C_ C_ 0.788527 0.598295 0.295515 -0.11473
C_ C_ 0.631159 0.725254 0.374404 0.17695
C_ C_ 0.854835 0.773915 0.373829 0.17695
C_ C_ 0.62168 0.798301 0.366677 0.17695
C_ C_ 0.884184 0.712489 0.369663 0.17695
C_ C_ 0.624468 0.802299 0.410611 -0.11473
C_ C_ 0.88497 0.710258 0.413255 -0.11473
C_ C_ 0.626329 0.766872 0.43728 0.23465
C_ C_ 0.868609 0.737857 0.437211 0.23465
C_ C_ 0.631868 0.72857 0.417632 -0.11473
C_ C_ 0.852352 0.770438 0.416852 -0.11473
C_ C_ 0.618108 0.705255 0.12066 0.17695
C_ C_ 0.872933 0.70626 0.11973 0.17695
C_ C_ 0.624103 0.777986 0.118134 0.17695
C_ C_ 0.864403 0.777543 0.120943 0.17695
C_ C_ 0.618156 0.779348 0.0755527 -0.11473
C_ C_ 0.866322 0.778462 0.0757547 -0.11473
C_ C_ 0.620904 0.741104 0.0531535 0.23465
C_ C_ 0.86979 0.742698 0.0521234 0.23465
C_ C_ 0.622175 0.70456 0.0772419 -0.11473
C_ C_ 0.870973 0.705038 0.0746775 -0.11473
C_ C_ 0.533306 0.998863 0.246885 0.05793
C_ C_ 0.783827 0.99768 0.248672 0.05793
C_ C_ 0.718365 0.4951 0.262158 0.05793
C_ C_ 0.967036 0.502999 0.257709 0.05793
Br Br 0.578822 0.997861 0.24802 -0.17191
Br Br 0.827171 0.997196 0.248712 -0.17191
Br Br 0.673135 0.492257 0.266404 -0.17191
Br Br 0.925245 0.503972 0.268699 -0.17191
N_ N_ 0.624875 0.759812 0.349792 -0.272
N_ N_ 0.870398 0.744812 0.350752 -0.272
N_ N_ 0.624447 0.772265 0.481949 -0.12501
N_ N_ 0.870951 0.736091 0.482738 -0.12501
N_ N_ 0.621914 0.742208 0.140896 -0.272
N_ N_ 0.865546 0.740893 0.141137 -0.272
N_ N_ 0.616041 0.738227 0.00847592 -0.12501
N_ N_ 0.864826 0.740972 0.00712084 -0.12501
O_ O_ 0.601591 0.802836 0.208071 -0.60745
O_ O_ 0.835943 0.786839 0.212797 -0.60745
O_ O_ 0.597283 0.797192 0.277156 -0.60745
O_ O_ 0.83814 0.788468 0.281679 -0.60745
O_ O_ 0.656115 0.797469 0.280335 -0.60745
O_ O_ 0.902212 0.796166 0.276952 -0.60745
O_ O_ 0.66224 0.786604 0.213848 -0.60745
O_ O_ 0.89812 0.793972 0.207798 -0.60745
O_ O_ 0.661446 0.707216 0.284704 -0.60745
O_ O_ 0.906202 0.703575 0.280299 -0.60745
O_ O_ 0.651454 0.695729 0.218654 -0.60745
O_ O_ 0.90073 0.703083 0.211506 -0.60745
O_ O_ 0.589258 0.709706 0.213737 -0.60745
O_ O_ 0.838727 0.701012 0.215007 -0.60745
O_ O_ 0.595104 0.707205 0.283263 -0.60745
O_ O_ 0.844541 0.701385 0.284105 -0.60745
Zn Zn 0.627117 0.755799 0.780679 0.9476
Zn Zn 0.876411 0.751679 0.778036 0.9476
Zn Zn 0.629323 0.7508 0.711972 0.9476
Zn Zn 0.872676 0.751036 0.707335 0.9476
H_ H_ 0.531419 0.915756 0.674677 0.10932
H_ H_ 0.79383 0.932797 0.688531 0.10932
H_ H_ 0.559628 0.852217 0.810932 0.10932
H_ H_ 0.811848 0.845784 0.817014 0.10932
H_ H_ 0.559612 0.852742 0.677528 0.10932
H_ H_ 0.819541 0.862814 0.684775 0.10932
H_ H_ 0.53497 0.92129 0.807039 0.10932
H_ H_ 0.781857 0.914389 0.821041 0.10932
H_ H_ 0.710378 0.921523 0.818212 0.10932
H_ H_ 0.95821 0.935387 0.802138 0.10932
H_ H_ 0.688202 0.858725 0.683869 0.10932
H_ H_ 0.940252 0.846441 0.675194 0.10932
H_ H_ 0.684383 0.855106 0.817293 0.10932
H_ H_ 0.924496 0.873131 0.807954 0.10932
H_ H_ 0.726679 0.915324 0.686642 0.10932
H_ H_ 0.962973 0.911926 0.670573 0.10932
H_ H_ 0.732394 0.602019 0.815131 0.10932
H_ H_ 0.974191 0.599127 0.811755 0.10932
H_ H_ 0.676304 0.637778 0.685536 0.10932
H_ H_ 0.92299 0.634332 0.678763 0.10932
H_ H_ 0.698861 0.664934 0.814047 0.10932
H_ H_ 0.955573 0.669475 0.803461 0.10932
H_ H_ 0.702619 0.573746 0.691003 0.10932
H_ H_ 0.949713 0.565855 0.684703 0.10932
H_ H_ 0.533685 0.581811 0.685759 0.10932
H_ H_ 0.769713 0.590631 0.688326 0.10932
H_ H_ 0.570018 0.652723 0.813619 0.10932
H_ H_ 0.820398 0.646633 0.812457 0.10932
H_ H_ 0.559494 0.651286 0.680475 0.10932
H_ H_ 0.801878 0.652485 0.678419 0.10932
H_ H_ 0.538324 0.592641 0.818965 0.10932
H_ H_ 0.793604 0.579707 0.813667 0.10932
H_ H_ 0.634821 0.688907 0.855261 0.10932
H_ H_ 0.877709 0.686796 0.857854 0.10932
H_ H_ 0.625163 0.820223 0.85406 0.10932
H_ H_ 0.877517 0.817733 0.849718 0.10932
H_ H_ 0.629835 0.822091 0.931911 0.10932
H_ H_ 0.888672 0.825713 0.925579 0.10932
H_ H_ 0.63325 0.687707 0.931517 0.10932
H_ H_ 0.878486 0.692083 0.938431 0.10932
H_ H_ 0.62225 0.682519 0.638493 0.10932
H_ H_ 0.880958 0.824432 0.63624 0.10932
H_ H_ 0.629951 0.814858 0.631356 0.10932
H_ H_ 0.866017 0.693481 0.631796 0.10932
H_ H_ 0.621437 0.812093 0.555887 0.10932
H_ H_ 0.86286 0.696715 0.551003 0.10932
H_ H_ 0.628416 0.679229 0.560067 0.10932
H_ H_ 0.868249 0.8277 0.556058 0.10932
C_ C_ 0.563579 0.84742 0.74393 -0.02249
C_ C_ 0.817799 0.850288 0.749742 -0.02249
C_ C_ 0.511981 0.961423 0.741202 -0.02249
C_ C_ 0.767999 0.966083 0.757064 -0.02249
C_ C_ 0.534261 0.900781 0.705138 -0.11473
C_ C_ 0.795894 0.910406 0.716292 -0.11473
C_ C_ 0.55424 0.866932 0.781541 -0.11473
C_ C_ 0.805456 0.862695 0.788675 -0.11473
C_ C_ 0.552537 0.864758 0.706591 -0.11473
C_ C_ 0.8117 0.874095 0.713317 -0.11473
C_ C_ 0.528208 0.919575 0.741429 -0.02249
C_ C_ 0.784792 0.924248 0.755171 -0.02249
C_ C_ 0.584946 0.813101 0.745641 0.6875
C_ C_ 0.83724 0.811381 0.744994 0.6875
C_ C_ 0.536688 0.902678 0.779936 -0.11473
C_ C_ 0.787547 0.899473 0.791124 -0.11473
C_ C_ 0.68719 0.848575 0.748099 -0.02249
C_ C_ 0.933616 0.850385 0.743168 -0.02249
C_ C_ 0.73545 0.96385 0.752877 -0.02249
C_ C_ 0.984014 0.962338 0.733582 -0.02249
C_ C_ 0.709281 0.905358 0.78932 -0.11473
C_ C_ 0.954674 0.913632 0.775409 -0.11473
C_ C_ 0.698129 0.868589 0.712537 -0.11473
C_ C_ 0.944017 0.862594 0.704072 -0.11473
C_ C_ 0.692342 0.868634 0.78782 -0.11473
C_ C_ 0.935934 0.878926 0.777998 -0.11473
C_ C_ 0.721258 0.922352 0.752693 -0.02249
C_ C_ 0.966792 0.922924 0.737072 -0.02249
C_ C_ 0.668937 0.811326 0.746017 0.6875
C_ C_ 0.916395 0.810774 0.745417 0.6875
C_ C_ 0.716281 0.903504 0.714206 -0.11473
C_ C_ 0.957979 0.900732 0.700081 -0.11473
C_ C_ 0.683686 0.653971 0.75157 -0.02249
C_ C_ 0.936325 0.655873 0.741266 -0.02249
C_ C_ 0.733243 0.539589 0.758576 -0.02249
C_ C_ 0.985889 0.540838 0.752635 -0.02249
C_ C_ 0.713587 0.605813 0.791345 -0.11473
C_ C_ 0.968112 0.60987 0.780343 -0.11473
C_ C_ 0.687774 0.629805 0.714345 -0.11473
C_ C_ 0.938506 0.6285 0.705885 -0.11473
C_ C_ 0.700009 0.644815 0.78842 -0.11473
C_ C_ 0.951712 0.64536 0.777694 -0.11473
C_ C_ 0.715365 0.579113 0.755685 -0.02249
C_ C_ 0.970093 0.580499 0.747858 -0.02249
C_ C_ 0.667465 0.693726 0.747656 0.6875
C_ C_ 0.915869 0.692584 0.739644 0.6875
C_ C_ 0.703758 0.593422 0.717412 -0.11473
C_ C_ 0.953874 0.589335 0.710704 -0.11473
C_ C_ 0.566004 0.65867 0.747515 -0.02249
C_ C_ 0.814775 0.65404 0.745747 -0.02249
C_ C_ 0.518377 0.540372 0.756583 -0.02249
C_ C_ 0.764584 0.53794 0.751377 -0.02249
C_ C_ 0.541108 0.598518 0.712789 -0.11473
C_ C_ 0.778998 0.604634 0.71455 -0.11473
C_ C_ 0.562458 0.638215 0.786172 -0.11473
C_ C_ 0.81349 0.632185 0.783593 -0.11473
C_ C_ 0.555925 0.637411 0.710177 -0.11473
C_ C_ 0.798696 0.638489 0.710201 -0.11473
C_ C_ 0.535749 0.580929 0.752081 -0.02249
C_ C_ 0.782669 0.578031 0.749509 -0.02249
C_ C_ 0.586401 0.696478 0.747333 0.6875
C_ C_ 0.835029 0.691158 0.74261 0.6875
C_ C_ 0.544582 0.602059 0.787509 -0.11473
C_ C_ 0.797996 0.59335 0.78514 -0.11473
C_ C_ 0.632944 0.719231 0.871396 0.17695
C_ C_ 0.87974 0.716936 0.874468 0.17695
C_ C_ 0.629912 0.792321 0.870907 0.17695
C_ C_ 0.878612 0.790262 0.869284 0.17695
C_ C_ 0.631203 0.792862 0.914995 -0.11473
C_ C_ 0.881956 0.793885 0.912731 -0.11473
C_ C_ 0.630875 0.755019 0.93887 0.23465
C_ C_ 0.877079 0.760097 0.937806 0.23465
C_ C_ 0.630185 0.717265 0.916116 -0.11473
C_ C_ 0.877007 0.720278 0.919165 -0.11473
C_ C_ 0.628794 0.710518 0.621789 0.17695
C_ C_ 0.874276 0.796327 0.616671 0.17695
C_ C_ 0.630063 0.783337 0.617491 0.17695
C_ C_ 0.86668 0.72353 0.614013 0.17695
C_ C_ 0.625575 0.782708 0.573328 -0.11473
C_ C_ 0.864318 0.725888 0.569425 -0.11473
C_ C_ 0.622786 0.745141 0.551991 0.23465
C_ C_ 0.86784 0.764056 0.548773 0.23465
C_ C_ 0.624339 0.708903 0.575951 -0.11473
C_ C_ 0.869562 0.799156 0.572371 -0.11473
C_ C_ 0.528993 -0.0028559999999999697 0.743119 0.05793
C_ C_ 0.782818 0.00544607 0.755161 0.05793
C_ C_ 0.718957 0.501088 0.770618 0.05793
C_ C_ 0.969843 0.503299 0.757965 0.05793
Br Br 0.572012 -0.00549299999999997 0.744333 -0.17191
Br Br 0.825496 1.0040596 0.756858 -0.17191
Br Br 0.676022 0.499637 0.778952 -0.17191
Br Br 0.929289 0.505963 0.782073 -0.17191
N_ N_ 0.630709 0.755523 0.849824 -0.272
N_ N_ 0.87988 0.751934 0.85123 -0.272
N_ N_ 0.633924 0.756712 0.984192 -0.12501
N_ N_ 0.876898 0.765944 0.982056 -0.12501
N_ N_ 0.629315 0.748122 0.640492 -0.272
N_ N_ 0.872657 0.759098 0.636162 -0.272
N_ N_ 0.625746 0.741409 0.506469 -0.12501
N_ N_ 0.864058 0.766384 0.505464 -0.12501
O_ O_ 0.59204 0.792943 0.712805 -0.60745
O_ O_ 0.845174 0.800324 0.709342 -0.60745
O_ O_ 0.599369 0.806592 0.780332 -0.60745
O_ O_ 0.846986 0.793126 0.777632 -0.60745
O_ O_ 0.662849 0.794338 0.780345 -0.60745
O_ O_ 0.906846 0.796147 0.781029 -0.60745
O_ O_ 0.6552 0.800102 0.712909 -0.60745
O_ O_ 0.906174 0.796108 0.711096 -0.60745
O_ O_ 0.654769 0.708381 0.780227 -0.60745
O_ O_ 0.908902 0.711424 0.77338 -0.60745
O_ O_ 0.661894 0.7122 0.712885 -0.60745
O_ O_ 0.903328 0.703874 0.705919 -0.60745
O_ O_ 0.601502 0.70292 0.714258 -0.60745
O_ O_ 0.838123 0.708935 0.707576 -0.60745
O_ O_ 0.589318 0.720279 0.779807 -0.60745
O_ O_ 0.845722 0.709803 0.776294 -0.60745
