_cell_length_a 44.444
_cell_length_b 32.3360000049186
_cell_length_c 31.843999878906452
_cell_angle_alpha 89.99799923859553
_cell_angle_beta 91.13600050494348
_cell_angle_gamma 89.9990006550086
_symmetry_space_group_name_H-M         'P 1'
_symmetry_Int_Tables_number            1
loop_
_symmetry_equiv_pos_as_xyz
   'x, y, z'
                         
loop_
_atom_site_label
_atom_site_type_symbol
_atom_site_fract_x 
_atom_site_fract_y
_atom_site_fract_z
_atom_site_charge
Zn Zn 0.128485 0.25466 0.2845 0.9476
Zn Zn 0.376106 0.248971 0.27982 0.9476
Zn Zn 0.126382 0.252127 0.216758 0.9476
Zn Zn 0.373777 0.250684 0.208558 0.9476
H_ H_ 0.0339719 0.415679 0.178133 0.10932
H_ H_ 0.290299 0.424735 0.177105 0.10932
H_ H_ 0.0644966 0.356249 0.31793 0.10932
H_ H_ 0.312233 0.35898 0.313174 0.10932
H_ H_ 0.0647649 0.350421 0.181388 0.10932
H_ H_ 0.31495 0.357077 0.177029 0.10932
H_ H_ 0.0297667 0.4135 0.314253 0.10932
H_ H_ 0.272489 0.410243 0.307918 0.10932
H_ H_ 0.198125 0.438499 0.301132 0.10932
H_ H_ 0.471206 0.412286 0.31323 0.10932
H_ H_ 0.204557 0.33847 0.185293 0.10932
H_ H_ 0.439853 0.358233 0.179487 0.10932
H_ H_ 0.174991 0.373603 0.308458 0.10932
H_ H_ 0.433557 0.353593 0.315495 0.10932
H_ H_ 0.230358 0.407439 0.176839 0.10932
H_ H_ 0.46408 0.420065 0.182936 0.10932
H_ H_ 0.220172 0.0829982 0.31695 0.10932
H_ H_ 0.473162 0.090949 0.313642 0.10932
H_ H_ 0.179194 0.148377 0.18661 0.10932
H_ H_ 0.42639 0.13604 0.184107 0.10932
H_ H_ 0.191126 0.1516 0.323905 0.10932
H_ H_ 0.44612 0.155832 0.315495 0.10932
H_ H_ 0.20511 0.0785193 0.186321 0.10932
H_ H_ 0.460807 0.0803561 0.182976 0.10932
H_ H_ 0.0241749 0.0908662 0.188695 0.10932
H_ H_ 0.283531 0.0818127 0.178486 0.10932
H_ H_ 0.087887 0.133313 0.310548 0.10932
H_ H_ 0.30815 0.153348 0.312676 0.10932
H_ H_ 0.0540923 0.158423 0.186042 0.10932
H_ H_ 0.320019 0.138505 0.176972 0.10932
H_ H_ 0.0574016 0.0640869 0.308289 0.10932
H_ H_ 0.28065 0.0897812 0.310733 0.10932
H_ H_ 0.114935 0.191066 0.362231 0.10932
H_ H_ 0.374748 0.311545 0.355595 0.10932
H_ H_ 0.145244 0.31426 0.359726 0.10932
H_ H_ 0.37744 0.180926 0.347889 0.10932
H_ H_ 0.153417 0.312671 0.43835 0.10932
H_ H_ 0.36751 0.174428 0.426869 0.10932
H_ H_ 0.115087 0.190683 0.4386 0.10932
H_ H_ 0.375743 0.306981 0.433383 0.10932
H_ H_ 0.125624 0.320601 0.145255 0.10932
H_ H_ 0.335649 0.204346 0.135562 0.10932
H_ H_ 0.133394 0.191125 0.136852 0.10932
H_ H_ 0.408428 0.28612 0.128728 0.10932
H_ H_ 0.12252 0.194634 0.0608863 0.10932
H_ H_ 0.40206 0.29142 0.0486426 0.10932
H_ H_ 0.120624 0.325253 0.0663608 0.10932
H_ H_ 0.328519 0.204849 0.0566958 0.10932
C_ C_ 0.0660717 0.347381 0.248937 -0.02249
C_ C_ 0.320481 0.353369 0.245872 -0.02249
C_ C_ 0.0132586 0.459274 0.246378 -0.02249
C_ C_ 0.267483 0.46616 0.243166 -0.02249
C_ C_ 0.035903 0.399432 0.207023 -0.11473
C_ C_ 0.295075 0.408917 0.205291 -0.11473
C_ C_ 0.0559848 0.36591 0.286971 -0.11473
C_ C_ 0.305434 0.368467 0.282184 -0.11473
C_ C_ 0.0566507 0.364665 0.209851 -0.11473
C_ C_ 0.313668 0.37447 0.205969 -0.11473
C_ C_ 0.0281594 0.418139 0.24581 -0.02249
C_ C_ 0.282584 0.423753 0.24255 -0.02249
C_ C_ 0.0872757 0.313194 0.250287 0.6875
C_ C_ 0.334971 0.312027 0.244745 0.6875
C_ C_ 0.035883 0.398654 0.285397 -0.11473
C_ C_ 0.284951 0.400875 0.28033 -0.11473
C_ C_ 0.186548 0.351388 0.248231 -0.02249
C_ C_ 0.434229 0.347755 0.247584 -0.02249
C_ C_ 0.235762 0.469012 0.236463 -0.02249
C_ C_ 0.486044 0.461359 0.251477 -0.02249
C_ C_ 0.200297 0.418642 0.274769 -0.11473
C_ C_ 0.460632 0.401116 0.285422 -0.11473
C_ C_ 0.203665 0.361244 0.211284 -0.11473
C_ C_ 0.443582 0.368681 0.210107 -0.11473
C_ C_ 0.186202 0.380905 0.279094 -0.11473
C_ C_ 0.440527 0.36853 0.28691 -0.11473
C_ C_ 0.216907 0.430024 0.237535 -0.02249
C_ C_ 0.46723 0.423245 0.249304 -0.02249
C_ C_ 0.166786 0.315332 0.251482 0.6875
C_ C_ 0.41581 0.31055 0.2463 0.6875
C_ C_ 0.217644 0.401147 0.205987 -0.11473
C_ C_ 0.457512 0.406711 0.211317 -0.11473
C_ C_ 0.18259 0.153598 0.253787 -0.02249
C_ C_ 0.434873 0.154455 0.249507 -0.02249
C_ C_ 0.230679 0.039367 0.25087 -0.02249
C_ C_ 0.487399 0.0433227 0.249107 -0.02249
C_ C_ 0.211375 0.0997124 0.290056 -0.11473
C_ C_ 0.467376 0.106194 0.284851 -0.11473
C_ C_ 0.187306 0.133498 0.217081 -0.11473
C_ C_ 0.440046 0.131431 0.212051 -0.11473
C_ C_ 0.194272 0.137119 0.292923 -0.11473
C_ C_ 0.451162 0.144253 0.284985 -0.11473
C_ C_ 0.213357 0.0775709 0.253144 -0.02249
C_ C_ 0.471569 0.0838758 0.248849 -0.02249
C_ C_ 0.164653 0.191941 0.254399 0.6875
C_ C_ 0.413608 0.188472 0.249304 0.6875
C_ C_ 0.20349 0.0958523 0.215669 -0.11473
C_ C_ 0.457811 0.0962561 0.212026 -0.11473
C_ C_ 0.0721439 0.149951 0.249199 -0.02249
C_ C_ 0.317227 0.151283 0.243247 -0.02249
C_ C_ 0.0191625 0.0398893 0.252434 -0.02249
C_ C_ 0.262054 0.0419476 0.246053 -0.02249
C_ C_ 0.037545 0.101999 0.214953 -0.11473
C_ C_ 0.288897 0.0978313 0.206366 -0.11473
C_ C_ 0.0741792 0.123669 0.283901 -0.11473
C_ C_ 0.301534 0.140412 0.281218 -0.11473
C_ C_ 0.0544121 0.138706 0.213632 -0.11473
C_ C_ 0.310203 0.129351 0.206613 -0.11473
C_ C_ 0.0373821 0.0779155 0.250838 -0.02249
C_ C_ 0.277302 0.0830592 0.242881 -0.02249
C_ C_ 0.0889727 0.189606 0.249695 0.6875
C_ C_ 0.338227 0.186979 0.243069 0.6875
C_ C_ 0.0572376 0.0856942 0.283504 -0.11473
C_ C_ 0.28585 0.103889 0.28001 -0.11473
C_ C_ 0.120753 0.219964 0.378618 0.17695
C_ C_ 0.375084 0.281508 0.373055 0.17695
C_ C_ 0.139091 0.288726 0.377081 0.17695
C_ C_ 0.374473 0.20865 0.367334 0.17695
C_ C_ 0.143151 0.286808 0.420868 -0.11473
C_ C_ 0.370775 0.205392 0.411356 -0.11473
C_ C_ 0.13094 0.254251 0.445079 0.23465
C_ C_ 0.373305 0.241205 0.437515 0.23465
C_ C_ 0.120689 0.219327 0.422657 -0.11473
C_ C_ 0.374034 0.279788 0.416417 -0.11473
C_ C_ 0.127465 0.291616 0.126076 0.17695
C_ C_ 0.348932 0.225098 0.117474 0.17695
C_ C_ 0.13328 0.21989 0.120999 0.17695
C_ C_ 0.38929 0.271982 0.11193 0.17695
C_ C_ 0.12901 0.221287 0.0776475 -0.11473
C_ C_ 0.386073 0.272646 0.0685626 -0.11473
C_ C_ 0.126648 0.260331 0.0576803 0.23465
C_ C_ 0.366425 0.245294 0.0491161 0.23465
C_ C_ 0.121669 0.294261 0.0820481 -0.11473
C_ C_ 0.344908 0.224086 0.072951 -0.11473
C_ C_ 0.0307115 0.496122 0.244908 0.05793
C_ C_ 0.285247 0.501825 0.248059 0.05793
C_ C_ 0.216877 0.00198655 0.260109 0.05793
C_ C_ 0.469863 1.00678332 0.254692 0.05793
Br Br 0.0745252 0.492959 0.244262 -0.17191
Br Br 0.328108 0.498646 0.256905 -0.17191
Br Br 0.175013 0.00101303 0.277767 -0.17191
Br Br 0.426876 1.00908929 0.262337 -0.17191
N_ N_ 0.130445 0.254667 0.356857 -0.272
N_ N_ 0.374749 0.246001 0.348648 -0.272
N_ N_ 0.136925 0.253782 0.489896 -0.12501
N_ N_ 0.372907 0.236084 0.48234 -0.12501
N_ N_ 0.130214 0.254283 0.145737 -0.272
N_ N_ 0.370894 0.247856 0.137367 -0.272
N_ N_ 0.123613 0.26462 0.013819 -0.12501
N_ N_ 0.36255 0.247586 0.00442035 -0.12501
O_ O_ 0.0935103 0.294257 0.215687 -0.60745
O_ O_ 0.342907 0.297928 0.209812 -0.60745
O_ O_ 0.0983897 0.301087 0.284916 -0.60745
O_ O_ 0.342757 0.293369 0.27945 -0.60745
O_ O_ 0.161533 0.297886 0.285537 -0.60745
O_ O_ 0.404613 0.296154 0.280408 -0.60745
O_ O_ 0.156034 0.299039 0.217938 -0.60745
O_ O_ 0.407426 0.294342 0.212297 -0.60745
O_ O_ 0.159765 0.210961 0.288014 -0.60745
O_ O_ 0.409062 0.208355 0.282101 -0.60745
O_ O_ 0.158066 0.2089 0.220062 -0.60745
O_ O_ 0.403865 0.201918 0.212801 -0.60745
O_ O_ 0.0977907 0.205496 0.21475 -0.60745
O_ O_ 0.343355 0.206023 0.210264 -0.60745
O_ O_ 0.0954663 0.208808 0.283384 -0.60745
O_ O_ 0.347915 0.201511 0.277184 -0.60745
Zn Zn 0.125797 0.244988 0.786811 0.9476
Zn Zn 0.370779 0.24743 0.779327 0.9476
Zn Zn 0.127696 0.247576 0.71844 0.9476
Zn Zn 0.372323 0.245625 0.710542 0.9476
H_ H_ 0.0275629 0.407673 0.681158 0.10932
H_ H_ 0.305364 0.435091 0.694356 0.10932
H_ H_ 0.069949 0.355247 0.815518 0.10932
H_ H_ 0.288256 0.328293 0.801587 0.10932
H_ H_ 0.0649896 0.347999 0.685275 0.10932
H_ H_ 0.324607 0.365465 0.68235 0.10932
H_ H_ 0.0345828 0.415342 0.814029 0.10932
H_ H_ 0.2624 0.394946 0.807287 0.10932
H_ H_ 0.197929 0.430913 0.812863 0.10932
H_ H_ 0.444795 0.428881 0.816777 0.10932
H_ H_ 0.202527 0.340908 0.688282 0.10932
H_ H_ 0.449767 0.338513 0.690238 0.10932
H_ H_ 0.172991 0.3678 0.815788 0.10932
H_ H_ 0.411331 0.368833 0.809708 0.10932
H_ H_ 0.228011 0.403256 0.686044 0.10932
H_ H_ 0.479125 0.399653 0.692519 0.10932
H_ H_ 0.224029 0.0809283 0.808283 0.10932
H_ H_ 0.450315 0.0716784 0.813138 0.10932
H_ H_ 0.179198 0.138533 0.681596 0.10932
H_ H_ 0.444742 0.152147 0.682747 0.10932
H_ H_ 0.197387 0.149248 0.813775 0.10932
H_ H_ 0.421823 0.138244 0.808176 0.10932
H_ H_ 0.204013 0.0716248 0.681309 0.10932
H_ H_ 0.46709 0.0838628 0.681189 0.10932
H_ H_ 0.0413892 0.0707648 0.687784 0.10932
H_ H_ 0.279633 0.0737014 0.682225 0.10932
H_ H_ 0.0669012 0.138853 0.822221 0.10932
H_ H_ 0.322814 0.134555 0.810373 0.10932
H_ H_ 0.069694 0.135169 0.68884 0.10932
H_ H_ 0.310314 0.140761 0.678396 0.10932
H_ H_ 0.0316259 0.0824968 0.822508 0.10932
H_ H_ 0.285618 0.0780153 0.818509 0.10932
H_ H_ 0.127031 0.310945 0.860769 0.10932
H_ H_ 0.354735 0.30882 0.855747 0.10932
H_ H_ 0.12951 0.179874 0.858773 0.10932
H_ H_ 0.382093 0.181616 0.852768 0.10932
H_ H_ 0.129877 0.178157 0.936002 0.10932
H_ H_ 0.386618 0.181649 0.927721 0.10932
H_ H_ 0.127849 0.309965 0.940559 0.10932
H_ H_ 0.360615 0.30944 0.932789 0.10932
H_ H_ 0.129364 0.185092 0.637641 0.10932
H_ H_ 0.366121 0.187124 0.631358 0.10932
H_ H_ 0.117417 0.314107 0.649961 0.10932
H_ H_ 0.381965 0.313261 0.641675 0.10932
H_ H_ 0.111455 0.318849 0.570535 0.10932
H_ H_ 0.387168 0.318991 0.563371 0.10932
H_ H_ 0.130344 0.187614 0.561431 0.10932
H_ H_ 0.364101 0.193181 0.549096 0.10932
C_ C_ 0.0690374 0.347257 0.750684 -0.02249
C_ C_ 0.308208 0.340979 0.742665 -0.02249
C_ C_ 0.0152329 0.458631 0.747424 -0.02249
C_ C_ 0.26467 0.460342 0.750987 -0.02249
C_ C_ 0.0383907 0.397473 0.710856 -0.11473
C_ C_ 0.30073 0.411337 0.71804 -0.11473
C_ C_ 0.0596531 0.366867 0.787749 -0.11473
C_ C_ 0.28933 0.350083 0.77714 -0.11473
C_ C_ 0.0586572 0.364367 0.712308 -0.11473
C_ C_ 0.312369 0.370958 0.711893 -0.11473
C_ C_ 0.0323566 0.418542 0.74726 -0.02249
C_ C_ 0.282046 0.421204 0.751279 -0.02249
C_ C_ 0.0860575 0.305259 0.75356 0.6875
C_ C_ 0.330203 0.305267 0.746033 0.6875
C_ C_ 0.0431815 0.402828 0.785242 -0.11473
C_ C_ 0.277518 0.390177 0.783058 -0.11473
C_ C_ 0.184519 0.346225 0.751846 -0.02249
C_ C_ 0.429638 0.34601 0.752353 -0.02249
C_ C_ 0.233395 0.461216 0.751954 -0.02249
C_ C_ 0.480402 0.461424 0.754894 -0.02249
C_ C_ 0.200698 0.410304 0.786337 -0.11473
C_ C_ 0.445994 0.408859 0.7864 -0.11473
C_ C_ 0.202488 0.356492 0.717973 -0.11473
C_ C_ 0.445516 0.359568 0.716349 -0.11473
C_ C_ 0.184288 0.374257 0.78544 -0.11473
C_ C_ 0.426436 0.37495 0.785597 -0.11473
C_ C_ 0.217591 0.421502 0.751534 -0.02249
C_ C_ 0.463182 0.42259 0.752244 -0.02249
C_ C_ 0.162463 0.310417 0.750438 0.6875
C_ C_ 0.411305 0.306371 0.751957 0.6875
C_ C_ 0.213062 0.39662 0.713446 -0.11473
C_ C_ 0.463913 0.394821 0.717581 -0.11473
C_ C_ 0.18589 0.148571 0.746767 -0.02249
C_ C_ 0.433514 0.151706 0.746904 -0.02249
C_ C_ 0.232849 0.0335326 0.744153 -0.02249
C_ C_ 0.481804 0.0348865 0.747545 -0.02249
C_ C_ 0.213154 0.093693 0.783014 -0.11473
C_ C_ 0.452407 0.0912946 0.78471 -0.11473
C_ C_ 0.190432 0.127594 0.708574 -0.11473
C_ C_ 0.447011 0.135181 0.710516 -0.11473
C_ C_ 0.198977 0.132821 0.782936 -0.11473
C_ C_ 0.437168 0.128594 0.784179 -0.11473
C_ C_ 0.218099 0.0750596 0.745011 -0.02249
C_ C_ 0.465639 0.0765749 0.747357 -0.02249
C_ C_ 0.167454 0.188333 0.749582 0.6875
C_ C_ 0.412974 0.18774 0.744778 0.6875
C_ C_ 0.204484 0.0908269 0.708144 -0.11473
C_ C_ 0.462741 0.098937 0.71047 -0.11473
C_ C_ 0.0710103 0.144818 0.75434 -0.02249
C_ C_ 0.316911 0.145468 0.74807 -0.02249
C_ C_ 0.014727 0.035235 0.755373 -0.02249
C_ C_ 0.265239 0.0304336 0.750312 -0.02249
C_ C_ 0.0442889 0.0879891 0.717389 -0.11473
C_ C_ 0.290722 0.0868416 0.711349 -0.11473
C_ C_ 0.0591233 0.129127 0.79246 -0.11473
C_ C_ 0.310486 0.12585 0.784879 -0.11473
C_ C_ 0.0645285 0.121444 0.718119 -0.11473
C_ C_ 0.30799 0.122996 0.708929 -0.11473
C_ C_ 0.0321433 0.0739479 0.754988 -0.02249
C_ C_ 0.283445 0.0691355 0.74971 -0.02249
C_ C_ 0.0888654 0.182873 0.753812 0.6875
C_ C_ 0.335053 0.184301 0.747323 0.6875
C_ C_ 0.0406621 0.0939938 0.792324 -0.11473
C_ C_ 0.294123 0.0879955 0.787437 -0.11473
C_ C_ 0.127642 0.282194 0.878062 0.17695
C_ C_ 0.362225 0.280695 0.871489 0.17695
C_ C_ 0.129337 0.208978 0.87559 0.17695
C_ C_ 0.378116 0.210459 0.870774 0.17695
C_ C_ 0.127292 0.207048 0.918764 -0.11473
C_ C_ 0.378924 0.209721 0.913044 -0.11473
C_ C_ 0.130404 0.242577 0.942817 0.23465
C_ C_ 0.379485 0.24583 0.935602 0.23465
C_ C_ 0.131217 0.281236 0.922497 -0.11473
C_ C_ 0.368038 0.282299 0.915408 -0.11473
C_ C_ 0.129697 0.214197 0.623632 0.17695
C_ C_ 0.369481 0.216611 0.61477 0.17695
C_ C_ 0.121111 0.28705 0.629362 0.17695
C_ C_ 0.379966 0.287519 0.622119 0.17695
C_ C_ 0.11748 0.289781 0.585556 -0.11473
C_ C_ 0.380021 0.292975 0.578835 -0.11473
C_ C_ 0.124302 0.253798 0.560103 0.23465
C_ C_ 0.37674 0.258709 0.552016 0.23465
C_ C_ 0.128782 0.21537 0.581138 -0.11473
C_ C_ 0.370158 0.21924 0.57006 -0.11473
C_ C_ 0.0297444 0.49604 0.755464 0.05793
C_ C_ 0.280792 0.498718 0.750262 0.05793
C_ C_ 0.215763 -0.0038169999999999593 0.746369 0.05793
C_ C_ 0.465003 0.997979 0.748757 0.05793
Br Br 0.0715415 0.499013 0.773182 -0.17191
Br Br 0.322106 0.501272 0.76891 -0.17191
Br Br 0.172887 0.0025862 0.737022 -0.17191
Br Br 0.42242 0.996879 0.745564 -0.17191
N_ N_ 0.129877 0.245358 0.856616 -0.272
N_ N_ 0.369692 0.245653 0.850547 -0.272
N_ N_ 0.131797 0.23817 0.988116 -0.12501
N_ N_ 0.38406 0.241821 0.979801 -0.12501
N_ N_ 0.126542 0.249489 0.647734 -0.272
N_ N_ 0.37376 0.25034 0.639233 -0.272
N_ N_ 0.116736 0.255598 0.516775 -0.12501
N_ N_ 0.377512 0.264723 0.507566 -0.12501
O_ O_ 0.0953786 0.291234 0.720251 -0.60745
O_ O_ 0.343522 0.29398 0.714401 -0.60745
O_ O_ 0.0950979 0.289431 0.78736 -0.60745
O_ O_ 0.335741 0.287908 0.781137 -0.60745
O_ O_ 0.155469 0.291923 0.784275 -0.60745
O_ O_ 0.398888 0.297296 0.786195 -0.60745
O_ O_ 0.155605 0.295966 0.714358 -0.60745
O_ O_ 0.402867 0.287825 0.71887 -0.60745
O_ O_ 0.15734 0.200455 0.784666 -0.60745
O_ O_ 0.405621 0.206802 0.7773 -0.60745
O_ O_ 0.161732 0.209496 0.716417 -0.60745
O_ O_ 0.402168 0.19956 0.709284 -0.60745
O_ O_ 0.0974822 0.196938 0.718804 -0.60745
O_ O_ 0.343569 0.197654 0.712824 -0.60745
O_ O_ 0.095278 0.202889 0.78814 -0.60745
O_ O_ 0.345516 0.198865 0.781321 -0.60745
Zn Zn 0.1209 0.751228 0.288218 0.9476
Zn Zn 0.378561 0.751194 0.289975 0.9476
Zn Zn 0.122659 0.751536 0.218211 0.9476
Zn Zn 0.381423 0.756129 0.220573 0.9476
H_ H_ 0.0259831 0.914733 0.190233 0.10932
H_ H_ 0.278663 0.914624 0.186682 0.10932
H_ H_ 0.0606294 0.85191 0.323661 0.10932
H_ H_ 0.325149 0.869317 0.324598 0.10932
H_ H_ 0.0546561 0.84598 0.187463 0.10932
H_ H_ 0.311915 0.854291 0.189117 0.10932
H_ H_ 0.033694 0.920855 0.319116 0.10932
H_ H_ 0.29383 0.9364 0.318026 0.10932
H_ H_ 0.230949 0.903774 0.313496 0.10932
H_ H_ 0.471596 0.921421 0.32358 0.10932
H_ H_ 0.1588 0.874119 0.197563 0.10932
H_ H_ 0.45058 0.850584 0.193859 0.10932
H_ H_ 0.198635 0.844649 0.317417 0.10932
H_ H_ 0.438386 0.859814 0.325026 0.10932
H_ H_ 0.191836 0.941727 0.197121 0.10932
H_ H_ 0.476557 0.918186 0.193923 0.10932
H_ H_ 0.215315 0.578697 0.314434 0.10932
H_ H_ 0.461537 0.577784 0.327536 0.10932
H_ H_ 0.203828 0.667289 0.187284 0.10932
H_ H_ 0.442137 0.64688 0.190397 0.10932
H_ H_ 0.187001 0.643261 0.318936 0.10932
H_ H_ 0.432958 0.644961 0.324492 0.10932
H_ H_ 0.238429 0.605351 0.187888 0.10932
H_ H_ 0.47503 0.586227 0.19558 0.10932
H_ H_ 0.0326872 0.581563 0.187802 0.10932
H_ H_ 0.312476 0.571307 0.184281 0.10932
H_ H_ 0.0516321 0.654787 0.317707 0.10932
H_ H_ 0.296151 0.668742 0.304809 0.10932
H_ H_ 0.0639606 0.645325 0.185624 0.10932
H_ H_ 0.336196 0.638487 0.186076 0.10932
H_ H_ 0.0246108 0.592124 0.318183 0.10932
H_ H_ 0.279272 0.598174 0.309799 0.10932
H_ H_ 0.11593 0.812936 0.359738 0.10932
H_ H_ 0.394575 0.810603 0.365358 0.10932
H_ H_ 0.129101 0.687172 0.364124 0.10932
H_ H_ 0.369427 0.682592 0.362648 0.10932
H_ H_ 0.13003 0.68756 0.445665 0.10932
H_ H_ 0.369582 0.678746 0.439143 0.10932
H_ H_ 0.107782 0.815842 0.435802 0.10932
H_ H_ 0.384145 0.810835 0.444409 0.10932
H_ H_ 0.134753 0.68198 0.148105 0.10932
H_ H_ 0.381943 0.826798 0.152545 0.10932
H_ H_ 0.110307 0.807386 0.135245 0.10932
H_ H_ 0.375291 0.698286 0.140608 0.10932
H_ H_ 0.115039 0.800481 0.0584049 0.10932
H_ H_ 0.37549 0.704011 0.0617431 0.10932
H_ H_ 0.127206 0.67154 0.0723551 0.10932
H_ H_ 0.384703 0.833937 0.075351 0.10932
C_ C_ 0.0607871 0.845452 0.257155 -0.02249
C_ C_ 0.323528 0.858372 0.256385 -0.02249
C_ C_ 0.0164526 0.964789 0.25316 -0.02249
C_ C_ 0.265598 0.964782 0.249057 -0.02249
C_ C_ 0.0344227 0.901083 0.218804 -0.11473
C_ C_ 0.290087 0.907389 0.217065 -0.11473
C_ C_ 0.0526265 0.865687 0.294363 -0.11473
C_ C_ 0.316809 0.882122 0.293217 -0.11473
C_ C_ 0.0507127 0.863119 0.218743 -0.11473
C_ C_ 0.308797 0.872407 0.21817 -0.11473
C_ C_ 0.0305866 0.923351 0.255254 -0.02249
C_ C_ 0.282485 0.926628 0.252991 -0.02249
C_ C_ 0.0806973 0.809176 0.257386 0.6875
C_ C_ 0.338987 0.818486 0.256966 0.6875
C_ C_ 0.0382311 0.903981 0.292379 -0.11473
C_ C_ 0.297744 0.917441 0.291232 -0.11473
C_ C_ 0.181484 0.850902 0.250986 -0.02249
C_ C_ 0.438644 0.852023 0.258092 -0.02249
C_ C_ 0.234155 0.964736 0.253621 -0.02249
C_ C_ 0.484646 0.969226 0.258199 -0.02249
C_ C_ 0.218939 0.895299 0.284748 -0.11473
C_ C_ 0.460771 0.911174 0.296276 -0.11473
C_ C_ 0.17908 0.878547 0.218148 -0.11473
C_ C_ 0.448196 0.869904 0.221953 -0.11473
C_ C_ 0.201031 0.860115 0.285488 -0.11473
C_ C_ 0.443827 0.874736 0.29647 -0.11473
C_ C_ 0.216382 0.924199 0.251984 -0.02249
C_ C_ 0.46586 0.930499 0.258019 -0.02249
C_ C_ 0.159574 0.815421 0.251151 0.6875
C_ C_ 0.420451 0.813371 0.255638 0.6875
C_ C_ 0.196009 0.91563 0.2183 -0.11473
C_ C_ 0.461941 0.908881 0.220183 -0.11473
C_ C_ 0.189322 0.659129 0.251769 -0.02249
C_ C_ 0.437213 0.652244 0.257149 -0.02249
C_ C_ 0.239233 0.54399 0.244662 -0.02249
C_ C_ 0.486538 0.537434 0.260806 -0.02249
C_ C_ 0.212323 0.597344 0.285902 -0.11473
C_ C_ 0.457634 0.594015 0.298336 -0.11473
C_ C_ 0.203311 0.647275 0.213944 -0.11473
C_ C_ 0.449625 0.635657 0.220223 -0.11473
C_ C_ 0.193854 0.633486 0.287416 -0.11473
C_ C_ 0.440607 0.631505 0.295798 -0.11473
C_ C_ 0.223755 0.585478 0.247802 -0.02249
C_ C_ 0.469783 0.577525 0.261686 -0.02249
C_ C_ 0.164234 0.692389 0.253039 0.6875
C_ C_ 0.417072 0.688909 0.254898 0.6875
C_ C_ 0.222426 0.612608 0.212987 -0.11473
C_ C_ 0.467368 0.600475 0.22418 -0.11473
C_ C_ 0.065439 0.651838 0.253391 -0.02249
C_ C_ 0.319273 0.65898 0.245178 -0.02249
C_ C_ 0.016284 0.535339 0.251814 -0.02249
C_ C_ 0.271123 0.539682 0.244713 -0.02249
C_ C_ 0.0429869 0.593228 0.215978 -0.11473
C_ C_ 0.307384 0.59152 0.211453 -0.11473
C_ C_ 0.0532754 0.636066 0.289819 -0.11473
C_ C_ 0.298645 0.647408 0.277139 -0.11473
C_ C_ 0.0598673 0.629657 0.215465 -0.11473
C_ C_ 0.32232 0.628987 0.212138 -0.11473
C_ C_ 0.035484 0.574299 0.254453 -0.02249
C_ C_ 0.290295 0.578484 0.246886 -0.02249
C_ C_ 0.0847576 0.689177 0.25451 0.6875
C_ C_ 0.340101 0.694399 0.250788 0.6875
C_ C_ 0.0377893 0.598659 0.290476 -0.11473
C_ C_ 0.287009 0.607564 0.279779 -0.11473
C_ C_ 0.119014 0.786445 0.379488 0.17695
C_ C_ 0.386081 0.781903 0.382428 0.17695
C_ C_ 0.125869 0.714221 0.381164 0.17695
C_ C_ 0.372266 0.711941 0.380325 0.17695
C_ C_ 0.125115 0.714806 0.426154 -0.11473
C_ C_ 0.373195 0.709145 0.424803 -0.11473
C_ C_ 0.123236 0.752564 0.44674 0.23465
C_ C_ 0.378209 0.743305 0.44899 0.23465
C_ C_ 0.117653 0.788232 0.422538 -0.11473
C_ C_ 0.381935 0.782288 0.427228 -0.11473
C_ C_ 0.129424 0.708672 0.130553 0.17695
C_ C_ 0.382014 0.799412 0.13326 0.17695
C_ C_ 0.119649 0.779115 0.123267 0.17695
C_ C_ 0.374297 0.728588 0.125973 0.17695
C_ C_ 0.121008 0.775435 0.078083 -0.11473
C_ C_ 0.37658 0.730835 0.0831002 -0.11473
C_ C_ 0.128214 0.737283 0.0592988 0.23465
C_ C_ 0.379883 0.769313 0.0642539 0.23465
C_ C_ 0.127941 0.70281 0.086795 -0.11473
C_ C_ 0.380645 0.804198 0.0891492 -0.11473
C_ C_ 0.0330202 1.000744392 0.254255 0.05793
C_ C_ 0.280268 1.00322547 0.246719 0.05793
C_ C_ 0.220828 0.507579 0.239571 0.05793
C_ C_ 0.471044 0.499183 0.258996 0.05793
Br Br 0.0756751 -0.002210999999999963 0.242168 -0.17191
Br Br 0.323419 1.00889977 0.242095 -0.17191
Br Br 0.178544 0.513027 0.2283 -0.17191
Br Br 0.427729 0.497235 0.27275 -0.17191
N_ N_ 0.12246 0.749142 0.35936 -0.272
N_ N_ 0.378244 0.749148 0.360598 -0.272
N_ N_ 0.128267 0.756181 0.490935 -0.12501
N_ N_ 0.373377 0.738138 0.494288 -0.12501
N_ N_ 0.124427 0.746193 0.148766 -0.272
N_ N_ 0.376773 0.761765 0.151186 -0.272
N_ N_ 0.127498 0.732108 0.0149221 -0.12501
N_ N_ 0.375474 0.773043 0.0204 -0.12501
O_ O_ 0.0915255 0.796793 0.221546 -0.60745
O_ O_ 0.350212 0.805005 0.223556 -0.60745
O_ O_ 0.0875309 0.791519 0.291781 -0.60745
O_ O_ 0.344985 0.799114 0.291667 -0.60745
O_ O_ 0.148444 0.8027 0.285908 -0.60745
O_ O_ 0.409092 0.798694 0.288565 -0.60745
O_ O_ 0.149872 0.79943 0.216302 -0.60745
O_ O_ 0.414947 0.797164 0.219768 -0.60745
O_ O_ 0.155843 0.707908 0.287604 -0.60745
O_ O_ 0.410342 0.708071 0.288431 -0.60745
O_ O_ 0.153202 0.706442 0.219111 -0.60745
O_ O_ 0.408816 0.705055 0.219881 -0.60745
O_ O_ 0.0919323 0.705716 0.219638 -0.60745
O_ O_ 0.346546 0.7167 0.219208 -0.60745
O_ O_ 0.0952388 0.7025 0.288767 -0.60745
O_ O_ 0.35024 0.704377 0.286698 -0.60745
Zn Zn 0.123525 0.747296 0.789147 0.9476
Zn Zn 0.373479 0.749648 0.790806 0.9476
Zn Zn 0.121962 0.746742 0.718838 0.9476
Zn Zn 0.373708 0.746252 0.722319 0.9476
H_ H_ 0.026872 0.915268 0.691518 0.10932
H_ H_ 0.289513 0.915091 0.692685 0.10932
H_ H_ 0.0597188 0.845574 0.825323 0.10932
H_ H_ 0.3043 0.837342 0.829356 0.10932
H_ H_ 0.0517268 0.848237 0.689453 0.10932
H_ H_ 0.306208 0.844125 0.691257 0.10932
H_ H_ 0.0290101 0.906362 0.827262 0.10932
H_ H_ 0.276898 0.904107 0.828479 0.10932
H_ H_ 0.202967 0.92042 0.821915 0.10932
H_ H_ 0.451607 0.930411 0.816584 0.10932
H_ H_ 0.190599 0.840693 0.689944 0.10932
H_ H_ 0.445796 0.835093 0.69839 0.10932
H_ H_ 0.175847 0.857738 0.821479 0.10932
H_ H_ 0.417812 0.872157 0.821758 0.10932
H_ H_ 0.210459 0.91123 0.686922 0.10932
H_ H_ 0.475906 0.896959 0.694227 0.10932
H_ H_ 0.19572 0.562525 0.81104 0.10932
H_ H_ 0.457344 0.576874 0.823975 0.10932
H_ H_ 0.200474 0.66502 0.693862 0.10932
H_ H_ 0.441463 0.654141 0.692971 0.10932
H_ H_ 0.171944 0.629603 0.816811 0.10932
H_ H_ 0.429905 0.641634 0.825267 0.10932
H_ H_ 0.223244 0.598179 0.684471 0.10932
H_ H_ 0.466579 0.58709 0.689443 0.10932
H_ H_ 0.052335 0.563801 0.687795 0.10932
H_ H_ 0.291931 0.575544 0.68496 0.10932
H_ H_ 0.0472568 0.657608 0.811695 0.10932
H_ H_ 0.311534 0.64941 0.821148 0.10932
H_ H_ 0.0770296 0.624703 0.688769 0.10932
H_ H_ 0.32655 0.634149 0.685855 0.10932
H_ H_ 0.0184015 0.590287 0.811653 0.10932
H_ H_ 0.274179 0.5886 0.818465 0.10932
H_ H_ 0.112713 0.813078 0.858532 0.10932
H_ H_ 0.374716 0.816288 0.869594 0.10932
H_ H_ 0.143055 0.69328 0.869472 0.10932
H_ H_ 0.378553 0.68772 0.861886 0.10932
H_ H_ 0.137567 0.691346 0.946318 0.10932
H_ H_ 0.374105 0.682455 0.937988 0.10932
H_ H_ 0.112382 0.820858 0.934865 0.10932
H_ H_ 0.376088 0.810799 0.949058 0.10932
H_ H_ 0.120134 0.679708 0.6486 0.10932
H_ H_ 0.366372 0.812291 0.656159 0.10932
H_ H_ 0.128854 0.807977 0.644167 0.10932
H_ H_ 0.390694 0.686699 0.642853 0.10932
H_ H_ 0.1286 0.804329 0.560839 0.10932
H_ H_ 0.395758 0.695245 0.56645 0.10932
H_ H_ 0.115209 0.673084 0.571475 0.10932
H_ H_ 0.362016 0.820992 0.580255 0.10932
C_ C_ 0.0620249 0.842435 0.754678 -0.02249
C_ C_ 0.308759 0.839251 0.761098 -0.02249
C_ C_ 0.0129572 0.958662 0.7619 -0.02249
C_ C_ 0.261948 0.955202 0.761279 -0.02249
C_ C_ 0.0375119 0.901717 0.722199 -0.11473
C_ C_ 0.286566 0.897675 0.721239 -0.11473
C_ C_ 0.0533784 0.859495 0.795393 -0.11473
C_ C_ 0.299567 0.854608 0.797852 -0.11473
C_ C_ 0.0499752 0.8623 0.719479 -0.11473
C_ C_ 0.302438 0.859107 0.721939 -0.11473
C_ C_ 0.0279316 0.916866 0.762042 -0.02249
C_ C_ 0.276382 0.912652 0.760749 -0.02249
C_ C_ 0.0820188 0.806694 0.752924 0.6875
C_ C_ 0.331287 0.804615 0.760655 0.6875
C_ C_ 0.0377873 0.897212 0.798584 -0.11473
C_ C_ 0.283569 0.89152 0.798799 -0.11473
C_ C_ 0.183773 0.841508 0.755992 -0.02249
C_ C_ 0.426995 0.848085 0.760576 -0.02249
C_ C_ 0.229667 0.957732 0.754103 -0.02249
C_ C_ 0.481166 0.958437 0.752579 -0.02249
C_ C_ 0.201367 0.904109 0.791942 -0.11473
C_ C_ 0.450763 0.909886 0.792036 -0.11473
C_ C_ 0.19446 0.858844 0.718034 -0.11473
C_ C_ 0.443004 0.856715 0.722723 -0.11473
C_ C_ 0.188796 0.865177 0.792613 -0.11473
C_ C_ 0.43204 0.874036 0.796093 -0.11473
C_ C_ 0.211726 0.919977 0.753839 -0.02249
C_ C_ 0.463421 0.919363 0.75394 -0.02249
C_ C_ 0.163602 0.804443 0.756144 0.6875
C_ C_ 0.407834 0.812217 0.762176 0.6875
C_ C_ 0.211295 0.89707 0.717324 -0.11473
C_ C_ 0.462267 0.891563 0.72165 -0.11473
C_ C_ 0.181074 0.65151 0.754754 -0.02249
C_ C_ 0.432979 0.653828 0.759037 -0.02249
C_ C_ 0.232291 0.537059 0.747226 -0.02249
C_ C_ 0.479889 0.537275 0.759426 -0.02249
C_ C_ 0.19617 0.582423 0.784302 -0.11473
C_ C_ 0.450894 0.592839 0.795434 -0.11473
C_ C_ 0.199954 0.644173 0.720628 -0.11473
C_ C_ 0.445568 0.63948 0.721122 -0.11473
C_ C_ 0.181579 0.622148 0.787882 -0.11473
C_ C_ 0.434625 0.629224 0.796185 -0.11473
C_ C_ 0.213753 0.57579 0.748795 -0.02249
C_ C_ 0.462999 0.577294 0.758796 -0.02249
C_ C_ 0.165419 0.691992 0.756748 0.6875
C_ C_ 0.414235 0.692061 0.76021 0.6875
C_ C_ 0.21545 0.605977 0.716669 -0.11473
C_ C_ 0.459758 0.600457 0.720292 -0.11473
C_ C_ 0.0669422 0.644714 0.751923 -0.02249
C_ C_ 0.31825 0.648867 0.752839 -0.02249
C_ C_ 0.0159837 0.533105 0.751576 -0.02249
C_ C_ 0.264329 0.536623 0.747563 -0.02249
C_ C_ 0.0523901 0.579656 0.717598 -0.11473
C_ C_ 0.293843 0.592972 0.714185 -0.11473
C_ C_ 0.0496469 0.63421 0.786201 -0.11473
C_ C_ 0.304441 0.634207 0.790623 -0.11473
C_ C_ 0.0691219 0.616514 0.718706 -0.11473
C_ C_ 0.312788 0.626966 0.714518 -0.11473
C_ C_ 0.0334061 0.571744 0.751146 -0.02249
C_ C_ 0.279652 0.577198 0.751067 -0.02249
C_ C_ 0.0850532 0.684355 0.751412 0.6875
C_ C_ 0.333899 0.688657 0.752959 0.6875
C_ C_ 0.0323709 0.599061 0.785358 -0.11473
C_ C_ 0.287194 0.597265 0.790142 -0.11473
C_ C_ 0.114733 0.785767 0.878397 0.17695
C_ C_ 0.374871 0.787469 0.88623 0.17695
C_ C_ 0.133307 0.717925 0.884625 0.17695
C_ C_ 0.375482 0.715356 0.881614 0.17695
C_ C_ 0.132247 0.721265 0.92817 -0.11473
C_ C_ 0.375448 0.711636 0.925348 -0.11473
C_ C_ 0.122361 0.756664 0.947571 0.23465
C_ C_ 0.377556 0.7471 0.950516 0.23465
C_ C_ 0.117771 0.791469 0.922314 -0.11473
C_ C_ 0.376642 0.785356 0.929592 -0.11473
C_ C_ 0.119257 0.706457 0.629584 0.17695
C_ C_ 0.371463 0.785802 0.635167 0.17695
C_ C_ 0.12663 0.778211 0.627317 0.17695
C_ C_ 0.384727 0.715176 0.628787 0.17695
C_ C_ 0.12443 0.77753 0.581444 -0.11473
C_ C_ 0.387714 0.721552 0.584922 -0.11473
C_ C_ 0.119683 0.738753 0.561379 0.23465
C_ C_ 0.379052 0.759276 0.565544 0.23465
C_ C_ 0.116757 0.703186 0.58472 -0.11473
C_ C_ 0.372227 0.791947 0.592079 -0.11473
C_ C_ 0.0292547 -0.005411000000000055 0.757239 0.05793
C_ C_ 0.278266 -0.007943999999999951 0.762275 0.05793
C_ C_ 0.217935 0.498309 0.745464 0.05793
C_ C_ 0.465068 0.500058 0.752985 0.05793
Br Br 0.0732449 -0.005144000000000037 0.76385 -0.17191
Br Br 0.320039 -0.012436000000000003 0.777452 -0.17191
Br Br 0.174501 0.495357 0.740418 -0.17191
Br Br 0.423844 0.502129 0.736889 -0.17191
N_ N_ 0.119747 0.74774 0.860387 -0.272
N_ N_ 0.375487 0.75288 0.863655 -0.272
N_ N_ 0.125674 0.762881 0.990437 -0.12501
N_ N_ 0.379125 0.742747 0.996102 -0.12501
N_ N_ 0.123035 0.742946 0.650133 -0.272
N_ N_ 0.375321 0.747539 0.652611 -0.272
N_ N_ 0.116219 0.732869 0.517052 -0.12501
N_ N_ 0.381476 0.765518 0.520537 -0.12501
O_ O_ 0.0891658 0.789616 0.71887 -0.60745
O_ O_ 0.341706 0.791168 0.726644 -0.60745
O_ O_ 0.0905029 0.790098 0.786877 -0.60745
O_ O_ 0.339166 0.788786 0.794788 -0.60745
O_ O_ 0.151904 0.795621 0.791344 -0.60745
O_ O_ 0.399399 0.797767 0.797381 -0.60745
O_ O_ 0.152178 0.790541 0.722294 -0.60745
O_ O_ 0.400728 0.794246 0.728061 -0.60745
O_ O_ 0.157935 0.706459 0.79201 -0.60745
O_ O_ 0.406442 0.708366 0.794081 -0.60745
O_ O_ 0.153297 0.706671 0.723373 -0.60745
O_ O_ 0.405663 0.707246 0.725707 -0.60745
O_ O_ 0.0905067 0.701881 0.717124 -0.60745
O_ O_ 0.343999 0.704365 0.719811 -0.60745
O_ O_ 0.093988 0.700696 0.783754 -0.60745
O_ O_ 0.343679 0.704139 0.787863 -0.60745
Zn Zn 0.633432 0.253157 0.278808 0.9476
Zn Zn 0.87308 0.249911 0.279573 0.9476
Zn Zn 0.628916 0.249992 0.208362 0.9476
Zn Zn 0.873593 0.250287 0.208607 0.9476
H_ H_ 0.538113 0.420398 0.17961 0.10932
H_ H_ 0.785576 0.416813 0.172064 0.10932
H_ H_ 0.573649 0.351316 0.307282 0.10932
H_ H_ 0.811974 0.355857 0.308693 0.10932
H_ H_ 0.561047 0.350403 0.173858 0.10932
H_ H_ 0.809687 0.353131 0.176055 0.10932
H_ H_ 0.546384 0.41913 0.310528 0.10932
H_ H_ 0.793806 0.429257 0.307094 0.10932
H_ H_ 0.728156 0.423474 0.306012 0.10932
H_ H_ 0.951598 0.426751 0.312246 0.10932
H_ H_ 0.685408 0.357698 0.178065 0.10932
H_ H_ 0.938164 0.347085 0.180062 0.10932
H_ H_ 0.698167 0.357059 0.312873 0.10932
H_ H_ 0.93593 0.354251 0.31499 0.10932
H_ H_ 0.722306 0.417515 0.175304 0.10932
H_ H_ 0.957555 0.419499 0.174056 0.10932
H_ H_ 0.713758 0.0836791 0.316945 0.10932
H_ H_ 0.981497 0.10609 0.313756 0.10932
H_ H_ 0.694512 0.15842 0.179911 0.10932
H_ H_ 0.939126 0.146473 0.174913 0.10932
H_ H_ 0.695247 0.155779 0.315429 0.10932
H_ H_ 0.944875 0.162569 0.307407 0.10932
H_ H_ 0.719826 0.0887242 0.178587 0.10932
H_ H_ 0.96377 0.0771427 0.183585 0.10932
H_ H_ 0.544429 0.0767692 0.176976 0.10932
H_ H_ 0.784855 0.0842323 0.178254 0.10932
H_ H_ 0.585313 0.131702 0.309488 0.10932
H_ H_ 0.804844 0.15776 0.308744 0.10932
H_ H_ 0.574912 0.141641 0.176903 0.10932
H_ H_ 0.817041 0.145538 0.177163 0.10932
H_ H_ 0.539744 0.0824662 0.310509 0.10932
H_ H_ 0.774369 0.0953814 0.309873 0.10932
H_ H_ 0.585245 0.251559 0.354002 0.10932
H_ H_ 0.862621 0.185009 0.353701 0.10932
H_ H_ 0.679669 0.255406 0.347371 0.10932
H_ H_ 0.888871 0.311267 0.350424 0.10932
H_ H_ 0.685732 0.262552 0.430398 0.10932
H_ H_ 0.878634 0.319206 0.429542 0.10932
H_ H_ 0.589234 0.24665 0.431525 0.10932
H_ H_ 0.8607 0.186798 0.432361 0.10932
H_ H_ 0.642877 0.188379 0.126766 0.10932
H_ H_ 0.924342 0.241512 0.13756 0.10932
H_ H_ 0.622728 0.316193 0.138759 0.10932
H_ H_ 0.827753 0.248276 0.138348 0.10932
H_ H_ 0.616489 0.318229 0.059078 0.10932
H_ H_ 0.82684 0.240805 0.059631 0.10932
H_ H_ 0.648856 0.196576 0.0489776 0.10932
H_ H_ 0.923836 0.233667 0.0590181 0.10932
C_ C_ 0.569153 0.34581 0.241312 -0.02249
C_ C_ 0.816661 0.351496 0.242833 -0.02249
C_ C_ 0.517829 0.460731 0.246393 -0.02249
C_ C_ 0.768407 0.467188 0.240571 -0.02249
C_ C_ 0.539741 0.400813 0.207793 -0.11473
C_ C_ 0.792237 0.406305 0.203114 -0.11473
C_ C_ 0.563657 0.365206 0.280755 -0.11473
C_ C_ 0.809675 0.372052 0.279506 -0.11473
C_ C_ 0.557029 0.363734 0.204517 -0.11473
C_ C_ 0.805023 0.366329 0.205351 -0.11473
C_ C_ 0.533847 0.42032 0.246162 -0.02249
C_ C_ 0.786375 0.427968 0.240523 -0.02249
C_ C_ 0.591428 0.310123 0.239837 0.6875
C_ C_ 0.835957 0.313683 0.243201 0.6875
C_ C_ 0.545525 0.403 0.281574 -0.11473
C_ C_ 0.796616 0.410221 0.278024 -0.11473
C_ C_ 0.692395 0.348365 0.245427 -0.02249
C_ C_ 0.929857 0.347711 0.245732 -0.02249
C_ C_ 0.736657 0.465723 0.235092 -0.02249
C_ C_ 0.980506 0.463401 0.244945 -0.02249
C_ C_ 0.717682 0.408071 0.278066 -0.11473
C_ C_ 0.950959 0.408372 0.283562 -0.11473
C_ C_ 0.698235 0.366735 0.206048 -0.11473
C_ C_ 0.938498 0.36681 0.20773 -0.11473
C_ C_ 0.702744 0.37014 0.281328 -0.11473
C_ C_ 0.939372 0.368478 0.283315 -0.11473
C_ C_ 0.720318 0.426895 0.240065 -0.02249
C_ C_ 0.959903 0.426892 0.24544 -0.02249
C_ C_ 0.67236 0.31168 0.248167 0.6875
C_ C_ 0.911561 0.308898 0.245813 0.6875
C_ C_ 0.71446 0.4049 0.204426 -0.11473
C_ C_ 0.955305 0.403821 0.208088 -0.11473
C_ C_ 0.691676 0.159338 0.245937 -0.02249
C_ C_ 0.936923 0.157725 0.242606 -0.02249
C_ C_ 0.733485 0.0392737 0.246915 -0.02249
C_ C_ 0.986565 0.0424605 0.254343 -0.02249
C_ C_ 0.710273 0.099039 0.285709 -0.11473
C_ C_ 0.969017 0.110839 0.283509 -0.11473
C_ C_ 0.698058 0.141426 0.207495 -0.11473
C_ C_ 0.946182 0.135941 0.206905 -0.11473
C_ C_ 0.699998 0.141164 0.28518 -0.11473
C_ C_ 0.951378 0.147574 0.280354 -0.11473
C_ C_ 0.717958 0.0805823 0.2462 -0.02249
C_ C_ 0.971722 0.083655 0.249047 -0.02249
C_ C_ 0.673787 0.198018 0.247976 0.6875
C_ C_ 0.912175 0.190782 0.241847 0.6875
C_ C_ 0.712276 0.101768 0.208584 -0.11473
C_ C_ 0.961362 0.0982919 0.209441 -0.11473
C_ C_ 0.577318 0.147976 0.244629 -0.02249
C_ C_ 0.816081 0.154019 0.243333 -0.02249
C_ C_ 0.519027 0.0411589 0.243497 -0.02249
C_ C_ 0.765045 0.0390224 0.246405 -0.02249
C_ C_ 0.549443 0.093361 0.204635 -0.11473
C_ C_ 0.793491 0.0945425 0.205688 -0.11473
C_ C_ 0.571329 0.127595 0.281681 -0.11473
C_ C_ 0.803559 0.140183 0.279501 -0.11473
C_ C_ 0.570601 0.125694 0.206226 -0.11473
C_ C_ 0.809258 0.131084 0.205369 -0.11473
C_ C_ 0.537937 0.0797162 0.243169 -0.02249
C_ C_ 0.783649 0.0788761 0.244451 -0.02249
C_ C_ 0.596013 0.187307 0.243736 0.6875
C_ C_ 0.833103 0.192645 0.243223 0.6875
C_ C_ 0.547775 0.0979064 0.281989 -0.11473
C_ C_ 0.788239 0.10232 0.281997 -0.11473
C_ C_ 0.607419 0.249787 0.371406 0.17695
C_ C_ 0.869886 0.214294 0.370804 0.17695
C_ C_ 0.660741 0.257226 0.367005 0.17695
C_ C_ 0.882154 0.284412 0.370322 0.17695
C_ C_ 0.663796 0.258935 0.413199 -0.11473
C_ C_ 0.878604 0.288552 0.414631 -0.11473
C_ C_ 0.637478 0.25567 0.436462 0.23465
C_ C_ 0.871982 0.252313 0.438719 0.23465
C_ C_ 0.609773 0.24933 0.414604 -0.11473
C_ C_ 0.868468 0.214764 0.416315 -0.11473
C_ C_ 0.637021 0.217004 0.112552 0.17695
C_ C_ 0.902879 0.241394 0.120271 0.17695
C_ C_ 0.62527 0.288136 0.118615 0.17695
C_ C_ 0.849295 0.249043 0.11966 0.17695
C_ C_ 0.620876 0.289624 0.0756104 -0.11473
C_ C_ 0.848359 0.247145 0.0755855 -0.11473
C_ C_ 0.628237 0.256069 0.0494699 0.23465
C_ C_ 0.875067 0.241564 0.051759 0.23465
C_ C_ 0.638561 0.220737 0.0684278 -0.11473
C_ C_ 0.902731 0.2392 0.0749937 -0.11473
C_ C_ 0.534087 0.497674 0.254683 0.05793
C_ C_ 0.782403 0.50691 0.246606 0.05793
C_ C_ 0.716762 1.0016199 0.247073 0.05793
C_ C_ 0.969703 1.00676533 0.259997 0.05793
Br Br 0.577607 0.494439 0.254933 -0.17191
Br Br 0.824931 0.507471 0.256792 -0.17191
Br Br 0.675497 0.0056083 0.251527 -0.17191
Br Br 0.926991 0.010702 0.268203 -0.17191
N_ N_ 0.632462 0.255584 0.349494 -0.272
N_ N_ 0.876326 0.249253 0.349498 -0.272
N_ N_ 0.640501 0.259996 0.48252 -0.12501
N_ N_ 0.866575 0.257478 0.483654 -0.12501
N_ N_ 0.630476 0.250222 0.137363 -0.272
N_ N_ 0.876813 0.245624 0.139829 -0.272
N_ N_ 0.627424 0.263024 0.00532177 -0.12501
N_ N_ 0.874377 0.232911 0.00760361 -0.12501
O_ O_ 0.596388 0.293792 0.205006 -0.60745
O_ O_ 0.842158 0.294477 0.21072 -0.60745
O_ O_ 0.599394 0.292722 0.274277 -0.60745
O_ O_ 0.847021 0.300762 0.278458 -0.60745
O_ O_ 0.661987 0.301008 0.28333 -0.60745
O_ O_ 0.909461 0.289017 0.279248 -0.60745
O_ O_ 0.6619 0.294482 0.213932 -0.60745
O_ O_ 0.90333 0.293144 0.211746 -0.60745
O_ O_ 0.667229 0.213957 0.2817 -0.60745
O_ O_ 0.900125 0.202954 0.274636 -0.60745
O_ O_ 0.66412 0.214059 0.213517 -0.60745
O_ O_ 0.906878 0.210183 0.209206 -0.60745
O_ O_ 0.601521 0.205736 0.210342 -0.60745
O_ O_ 0.847125 0.203033 0.209833 -0.60745
O_ O_ 0.606909 0.201175 0.27869 -0.60745
O_ O_ 0.838022 0.213592 0.277158 -0.60745
Zn Zn 0.624569 0.246003 0.777091 0.9476
Zn Zn 0.87614 0.245809 0.781441 0.9476
Zn Zn 0.622546 0.250467 0.70837 0.9476
Zn Zn 0.875222 0.249905 0.710629 0.9476
H_ H_ 0.54306 0.435375 0.689828 0.10932
H_ H_ 0.782203 0.412204 0.679727 0.10932
H_ H_ 0.545622 0.327244 0.801261 0.10932
H_ H_ 0.812315 0.351726 0.814912 0.10932
H_ H_ 0.581632 0.376734 0.686345 0.10932
H_ H_ 0.816084 0.354777 0.681227 0.10932
H_ H_ 0.512592 0.388107 0.807625 0.10932
H_ H_ 0.788216 0.42253 0.812615 0.10932
H_ H_ 0.711812 0.422074 0.806651 0.10932
H_ H_ 0.974516 0.407933 0.807166 0.10932
H_ H_ 0.682891 0.35461 0.670597 0.10932
H_ H_ 0.937168 0.346204 0.677681 0.10932
H_ H_ 0.679212 0.355846 0.807719 0.10932
H_ H_ 0.942585 0.352993 0.811254 0.10932
H_ H_ 0.719358 0.408459 0.673116 0.10932
H_ H_ 0.958576 0.41573 0.672694 0.10932
H_ H_ 0.729572 0.0927362 0.806484 0.10932
H_ H_ 0.961823 0.0825073 0.818285 0.10932
H_ H_ 0.677069 0.138164 0.675867 0.10932
H_ H_ 0.932228 0.144207 0.68575 0.10932
H_ H_ 0.702886 0.158232 0.803759 0.10932
H_ H_ 0.9402 0.150966 0.822192 0.10932
H_ H_ 0.705085 0.0679895 0.678684 0.10932
H_ H_ 0.96723 0.0820995 0.685119 0.10932
H_ H_ 0.547491 0.0642887 0.685227 0.10932
H_ H_ 0.769094 0.0936532 0.68567 0.10932
H_ H_ 0.55624 0.153563 0.809265 0.10932
H_ H_ 0.833279 0.129539 0.811906 0.10932
H_ H_ 0.567035 0.131949 0.678023 0.10932
H_ H_ 0.79463 0.164888 0.689821 0.10932
H_ H_ 0.52794 0.086142 0.814151 0.10932
H_ H_ 0.796939 0.0714358 0.813633 0.10932
H_ H_ 0.625388 0.305592 0.854628 0.10932
H_ H_ 0.926025 0.257114 0.847715 0.10932
H_ H_ 0.634998 0.174835 0.848146 0.10932
H_ H_ 0.835371 0.230779 0.858794 0.10932
H_ H_ 0.635043 0.171801 0.925377 0.10932
H_ H_ 0.838123 0.232287 0.93631 0.10932
H_ H_ 0.630755 0.30442 0.92948 0.10932
H_ H_ 0.931155 0.26551 0.92863 0.10932
H_ H_ 0.628416 0.316216 0.635884 0.10932
H_ H_ 0.869893 0.30899 0.628441 0.10932
H_ H_ 0.618856 0.187696 0.635888 0.10932
H_ H_ 0.868886 0.181519 0.645939 0.10932
H_ H_ 0.624687 0.185254 0.555922 0.10932
H_ H_ 0.869757 0.167318 0.566153 0.10932
H_ H_ 0.627167 0.316004 0.557756 0.10932
H_ H_ 0.863453 0.300594 0.549117 0.10932
C_ C_ 0.565044 0.346539 0.741839 -0.02249
C_ C_ 0.814582 0.347998 0.749276 -0.02249
C_ C_ 0.512574 0.461805 0.7583 -0.02249
C_ C_ 0.764316 0.462758 0.743308 -0.02249
C_ C_ 0.547367 0.414035 0.715807 -0.11473
C_ C_ 0.788824 0.400427 0.709036 -0.11473
C_ C_ 0.547458 0.351872 0.77738 -0.11473
C_ C_ 0.807845 0.368863 0.787267 -0.11473
C_ C_ 0.564773 0.378413 0.711487 -0.11473
C_ C_ 0.807252 0.36555 0.711049 -0.11473
C_ C_ 0.530791 0.421309 0.752513 -0.02249
C_ C_ 0.780966 0.422067 0.746587 -0.02249
C_ C_ 0.586454 0.310697 0.74088 0.6875
C_ C_ 0.835509 0.309659 0.748062 0.6875
C_ C_ 0.530136 0.389095 0.78386 -0.11473
C_ C_ 0.793208 0.406839 0.784879 -0.11473
C_ C_ 0.68004 0.348796 0.739801 -0.02249
C_ C_ 0.934344 0.346465 0.742331 -0.02249
C_ C_ 0.732826 0.461919 0.738233 -0.02249
C_ C_ 0.983156 0.459326 0.740402 -0.02249
C_ C_ 0.706398 0.405242 0.778934 -0.11473
C_ C_ 0.961066 0.402302 0.77827 -0.11473
C_ C_ 0.691162 0.365114 0.702751 -0.11473
C_ C_ 0.943846 0.363351 0.705599 -0.11473
C_ C_ 0.688345 0.367819 0.777991 -0.11473
C_ C_ 0.942537 0.368297 0.780649 -0.11473
C_ C_ 0.716513 0.422609 0.74088 -0.02249
C_ C_ 0.967346 0.420191 0.740593 -0.02249
C_ C_ 0.662588 0.30901 0.740003 0.6875
C_ C_ 0.916082 0.307709 0.744089 0.6875
C_ C_ 0.707545 0.402909 0.70288 -0.11473
C_ C_ 0.958667 0.400559 0.702748 -0.11473
C_ C_ 0.682547 0.149717 0.742826 -0.02249
C_ C_ 0.932695 0.15174 0.752407 -0.02249
C_ C_ 0.732534 0.0377421 0.742951 -0.02249
C_ C_ 0.982753 0.0369226 0.756183 -0.02249
C_ C_ 0.715363 0.099951 0.778896 -0.11473
C_ C_ 0.961231 0.0983762 0.790702 -0.11473
C_ C_ 0.687242 0.127583 0.705302 -0.11473
C_ C_ 0.93913 0.129839 0.714303 -0.11473
C_ C_ 0.699453 0.13745 0.777651 -0.11473
C_ C_ 0.944578 0.136772 0.790673 -0.11473
C_ C_ 0.715842 0.0756392 0.743417 -0.02249
C_ C_ 0.966551 0.0781522 0.75255 -0.02249
C_ C_ 0.66404 0.188428 0.74196 0.6875
C_ C_ 0.914747 0.18964 0.749029 0.6875
C_ C_ 0.701306 0.0870989 0.70667 -0.11473
C_ C_ 0.958598 0.0951559 0.713689 -0.11473
C_ C_ 0.56434 0.147933 0.744219 -0.02249
C_ C_ 0.815823 0.152336 0.752053 -0.02249
C_ C_ 0.513809 0.0343827 0.75193 -0.02249
C_ C_ 0.764715 0.0372072 0.744262 -0.02249
C_ C_ 0.545752 0.0858701 0.712042 -0.11473
C_ C_ 0.779748 0.105709 0.713838 -0.11473
C_ C_ 0.550686 0.135228 0.781666 -0.11473
C_ C_ 0.817903 0.122583 0.784578 -0.11473
C_ C_ 0.56074 0.122707 0.709376 -0.11473
C_ C_ 0.796473 0.14256 0.715827 -0.11473
C_ C_ 0.530352 0.0738725 0.748221 -0.02249
C_ C_ 0.781871 0.0774293 0.747173 -0.02249
C_ C_ 0.583521 0.185304 0.742506 0.6875
C_ C_ 0.836124 0.189088 0.751399 0.6875
C_ C_ 0.53262 0.0995633 0.78333 -0.11473
C_ C_ 0.800297 0.0868412 0.783531 -0.11473
C_ C_ 0.62538 0.275504 0.870249 0.17695
C_ C_ 0.907706 0.254386 0.868001 0.17695
C_ C_ 0.63055 0.202846 0.866899 0.17695
C_ C_ 0.856144 0.237764 0.873748 0.17695
C_ C_ 0.631742 0.200629 0.911075 -0.11473
C_ C_ 0.858309 0.239177 0.918006 -0.11473
C_ C_ 0.630927 0.237467 0.936112 0.23465
C_ C_ 0.885644 0.251083 0.937785 0.23465
C_ C_ 0.627938 0.274584 0.914499 -0.11473
C_ C_ 0.910145 0.258249 0.912581 -0.11473
C_ C_ 0.625572 0.286669 0.618622 0.17695
C_ C_ 0.868432 0.278619 0.614403 0.17695
C_ C_ 0.623161 0.213823 0.618763 0.17695
C_ C_ 0.868621 0.206096 0.623173 0.17695
C_ C_ 0.62355 0.21344 0.575252 -0.11473
C_ C_ 0.867712 0.198795 0.579432 -0.11473
C_ C_ 0.625223 0.249133 0.552984 0.23465
C_ C_ 0.869863 0.233907 0.551804 0.23465
C_ C_ 0.626291 0.286871 0.575015 -0.11473
C_ C_ 0.864559 0.273489 0.569215 -0.11473
C_ C_ 0.52879 0.499684 0.76784 0.05793
C_ C_ 0.779485 0.500387 0.751273 0.05793
C_ C_ 0.717658 -0.0009569999999999856 0.746057 0.05793
C_ C_ 0.967181 -0.0007230000000000292 0.761479 0.05793
Br Br 0.569318 0.501261 0.791451 -0.17191
Br Br 0.821976 0.500516 0.767563 -0.17191
Br Br 0.673474 -0.002605999999999997 0.757802 -0.17191
Br Br 0.924062 -0.0007310000000000372 0.751633 -0.17191
N_ N_ 0.625658 0.240414 0.847424 -0.272
N_ N_ 0.880238 0.246188 0.851598 -0.272
N_ N_ 0.636678 0.23573 0.979639 -0.12501
N_ N_ 0.887488 0.256794 0.981955 -0.12501
N_ N_ 0.62465 0.250356 0.6393 -0.272
N_ N_ 0.869597 0.244748 0.639261 -0.272
N_ N_ 0.621392 0.248076 0.508687 -0.12501
N_ N_ 0.866703 0.227689 0.50806 -0.12501
O_ O_ 0.591946 0.293713 0.705963 -0.60745
O_ O_ 0.844391 0.296078 0.714581 -0.60745
O_ O_ 0.591854 0.289887 0.775612 -0.60745
O_ O_ 0.841666 0.289798 0.781536 -0.60745
O_ O_ 0.654816 0.292994 0.774742 -0.60745
O_ O_ 0.907378 0.293707 0.779115 -0.60745
O_ O_ 0.65609 0.291635 0.705873 -0.60745
O_ O_ 0.906913 0.290793 0.709044 -0.60745
O_ O_ 0.655569 0.203593 0.777094 -0.60745
O_ O_ 0.906274 0.205667 0.782135 -0.60745
O_ O_ 0.655093 0.204753 0.707039 -0.60745
O_ O_ 0.905157 0.20338 0.71263 -0.60745
O_ O_ 0.589961 0.202125 0.706235 -0.60745
O_ O_ 0.841264 0.208003 0.717553 -0.60745
O_ O_ 0.593149 0.203304 0.775555 -0.60745
O_ O_ 0.847659 0.200817 0.786276 -0.60745
Zn Zn 0.627537 0.753866 0.283786 0.9476
Zn Zn 0.871477 0.75461 0.283698 0.9476
Zn Zn 0.621117 0.752493 0.21441 0.9476
Zn Zn 0.877599 0.752269 0.213884 0.9476
H_ H_ 0.530129 0.921486 0.184052 0.10932
H_ H_ 0.795826 0.9228 0.174221 0.10932
H_ H_ 0.570337 0.863112 0.317326 0.10932
H_ H_ 0.80846 0.856495 0.311269 0.10932
H_ H_ 0.557247 0.854763 0.179145 0.10932
H_ H_ 0.820759 0.858393 0.176102 0.10932
H_ H_ 0.534731 0.919665 0.323199 0.10932
H_ H_ 0.780728 0.919776 0.305533 0.10932
H_ H_ 0.719078 0.920322 0.312768 0.10932
H_ H_ 0.976351 0.907987 0.316959 0.10932
H_ H_ 0.683295 0.848494 0.181686 0.10932
H_ H_ 0.912102 0.882317 0.191698 0.10932
H_ H_ 0.685003 0.860043 0.31558 0.10932
H_ H_ 0.951956 0.837615 0.305042 0.10932
H_ H_ 0.712198 0.916909 0.176683 0.10932
H_ H_ 0.945496 0.943841 0.191492 0.10932
H_ H_ 0.711555 0.577876 0.307519 0.10932
H_ H_ 0.957135 0.580758 0.313478 0.10932
H_ H_ 0.684537 0.657559 0.178619 0.10932
H_ H_ 0.938891 0.650359 0.180002 0.10932
H_ H_ 0.685877 0.643127 0.311301 0.10932
H_ H_ 0.929891 0.643188 0.311969 0.10932
H_ H_ 0.712091 0.590226 0.170726 0.10932
H_ H_ 0.969192 0.590692 0.179252 0.10932
H_ H_ 0.542944 0.569956 0.188514 0.10932
H_ H_ 0.796565 0.577919 0.182175 0.10932
H_ H_ 0.559668 0.651964 0.317561 0.10932
H_ H_ 0.80506 0.65502 0.317234 0.10932
H_ H_ 0.573495 0.643282 0.185393 0.10932
H_ H_ 0.822458 0.646114 0.183314 0.10932
H_ H_ 0.535098 0.585881 0.320478 0.10932
H_ H_ 0.770188 0.595417 0.311834 0.10932
H_ H_ 0.620988 0.686233 0.361755 0.10932
H_ H_ 0.867219 0.819258 0.365162 0.10932
H_ H_ 0.629537 0.81685 0.357703 0.10932
H_ H_ 0.879226 0.69019 0.354284 0.10932
H_ H_ 0.638106 0.822184 0.431808 0.10932
H_ H_ 0.870244 0.682751 0.428186 0.10932
H_ H_ 0.634607 0.687476 0.440324 0.10932
H_ H_ 0.869643 0.816064 0.442376 0.10932
H_ H_ 0.640115 0.692197 0.142265 0.10932
H_ H_ 0.864482 0.685865 0.148075 0.10932
H_ H_ 0.613839 0.816424 0.139605 0.10932
H_ H_ 0.891327 0.807792 0.133053 0.10932
H_ H_ 0.619062 0.818277 0.0628052 0.10932
H_ H_ 0.886014 0.806971 0.0557008 0.10932
H_ H_ 0.623135 0.684384 0.0674748 0.10932
H_ H_ 0.855123 0.681008 0.0742281 0.10932
C_ C_ 0.566259 0.851308 0.249224 -0.02249
C_ C_ 0.816638 0.850976 0.243009 -0.02249
C_ C_ 0.51618 0.966569 0.255044 -0.02249
C_ C_ 0.764475 0.96431 0.240411 -0.02249
C_ C_ 0.538922 0.907634 0.214458 -0.11473
C_ C_ 0.793878 0.905363 0.203015 -0.11473
C_ C_ 0.56073 0.872584 0.28829 -0.11473
C_ C_ 0.805018 0.869128 0.279937 -0.11473
C_ C_ 0.554675 0.870719 0.212375 -0.11473
C_ C_ 0.811339 0.870195 0.204982 -0.11473
C_ C_ 0.529925 0.92446 0.254332 -0.02249
C_ C_ 0.781006 0.924162 0.238824 -0.02249
C_ C_ 0.58463 0.812668 0.248187 0.6875
C_ C_ 0.835876 0.813788 0.246815 0.6875
C_ C_ 0.539902 0.906273 0.291199 -0.11473
C_ C_ 0.787778 0.905224 0.277206 -0.11473
C_ C_ 0.685202 0.849122 0.248768 -0.02249
C_ C_ 0.929923 0.856361 0.24875 -0.02249
C_ C_ 0.733361 0.96339 0.240428 -0.02249
C_ C_ 0.985072 0.967413 0.256215 -0.02249
C_ C_ 0.708893 0.908442 0.283166 -0.11473
C_ C_ 0.96194 0.902922 0.288702 -0.11473
C_ C_ 0.693841 0.865274 0.209991 -0.11473
C_ C_ 0.928783 0.886551 0.216916 -0.11473
C_ C_ 0.691452 0.87337 0.285434 -0.11473
C_ C_ 0.946298 0.864475 0.286526 -0.11473
C_ C_ 0.716475 0.924538 0.243841 -0.02249
C_ C_ 0.965271 0.929635 0.253706 -0.02249
C_ C_ 0.666677 0.81174 0.250104 0.6875
C_ C_ 0.909715 0.818363 0.244783 0.6875
C_ C_ 0.709348 0.902348 0.206633 -0.11473
C_ C_ 0.947657 0.92076 0.216888 -0.11473
C_ C_ 0.685956 0.65778 0.246171 -0.02249
C_ C_ 0.934899 0.656101 0.246828 -0.02249
C_ C_ 0.734289 0.541297 0.238305 -0.02249
C_ C_ 0.984546 0.538561 0.251149 -0.02249
C_ C_ 0.70886 0.596169 0.278674 -0.11473
C_ C_ 0.955513 0.594102 0.284535 -0.11473
C_ C_ 0.694005 0.640595 0.206779 -0.11473
C_ C_ 0.945645 0.638202 0.210302 -0.11473
C_ C_ 0.692243 0.632245 0.280978 -0.11473
C_ C_ 0.940056 0.632439 0.282921 -0.11473
C_ C_ 0.716776 0.581478 0.239035 -0.02249
C_ C_ 0.970931 0.580596 0.249671 -0.02249
C_ C_ 0.665791 0.693348 0.249521 0.6875
C_ C_ 0.915424 0.695103 0.246178 0.6875
C_ C_ 0.707214 0.601562 0.202005 -0.11473
C_ C_ 0.963903 0.602491 0.210935 -0.11473
C_ C_ 0.565665 0.654504 0.248904 -0.02249
C_ C_ 0.813033 0.657439 0.249194 -0.02249
C_ C_ 0.518805 0.536628 0.258232 -0.02249
C_ C_ 0.764982 0.543223 0.246797 -0.02249
C_ C_ 0.546727 0.590212 0.216086 -0.11473
C_ C_ 0.794171 0.596907 0.210921 -0.11473
C_ C_ 0.557309 0.635691 0.289103 -0.11473
C_ C_ 0.801404 0.639492 0.286157 -0.11473
C_ C_ 0.56158 0.629875 0.212255 -0.11473
C_ C_ 0.809199 0.634387 0.211193 -0.11473
C_ C_ 0.534383 0.575911 0.254058 -0.02249
C_ C_ 0.781338 0.581662 0.247134 -0.02249
C_ C_ 0.582373 0.695834 0.246706 0.6875
C_ C_ 0.832407 0.696356 0.252262 0.6875
C_ C_ 0.542832 0.597359 0.290039 -0.11473
C_ C_ 0.783099 0.60456 0.284011 -0.11473
C_ C_ 0.62696 0.715346 0.377758 0.17695
C_ C_ 0.872308 0.789298 0.378714 0.17695
C_ C_ 0.6307 0.786952 0.375004 0.17695
C_ C_ 0.875934 0.717889 0.373435 0.17695
C_ C_ 0.633927 0.790263 0.417962 -0.11473
C_ C_ 0.876405 0.713913 0.417215 -0.11473
C_ C_ 0.634446 0.754469 0.443844 0.23465
C_ C_ 0.875205 0.749019 0.44353 0.23465
C_ C_ 0.63138 0.715801 0.422213 -0.11473
C_ C_ 0.874583 0.788537 0.423974 -0.11473
C_ C_ 0.633061 0.718679 0.124468 0.17695
C_ C_ 0.868011 0.712424 0.127999 0.17695
C_ C_ 0.62051 0.788574 0.123449 0.17695
C_ C_ 0.882083 0.782008 0.12033 0.17695
C_ C_ 0.617393 0.788909 0.0792852 -0.11473
C_ C_ 0.880418 0.779561 0.0751186 -0.11473
C_ C_ 0.621603 0.751097 0.0590134 0.23465
C_ C_ 0.870973 0.743136 0.0571175 0.23465
C_ C_ 0.625684 0.715295 0.0827759 -0.11473
C_ C_ 0.863716 0.709416 0.0841435 -0.11473
C_ C_ 0.533705 1.00101581 0.245352 0.05793
C_ C_ 0.780107 1.000595956 0.24721 0.05793
C_ C_ 0.719309 0.502615 0.23494 0.05793
C_ C_ 0.966241 0.502529 0.243923 0.05793
Br Br 0.576799 0.996082 0.246198 -0.17191
Br Br 0.822998 0.999472 0.259277 -0.17191
Br Br 0.675132 0.501664 0.237055 -0.17191
Br Br 0.925195 0.503681 0.223276 -0.17191
N_ N_ 0.627807 0.749802 0.354943 -0.272
N_ N_ 0.87707 0.755245 0.355262 -0.272
N_ N_ 0.633992 0.759426 0.488941 -0.12501
N_ N_ 0.869714 0.742945 0.488044 -0.12501
N_ N_ 0.62875 0.754788 0.144782 -0.272
N_ N_ 0.872969 0.750076 0.144443 -0.272
N_ N_ 0.613467 0.748991 0.01523 -0.12501
N_ N_ 0.865223 0.742019 0.0133787 -0.12501
O_ O_ 0.58864 0.794168 0.213641 -0.60745
O_ O_ 0.844828 0.796257 0.213892 -0.60745
O_ O_ 0.597014 0.799268 0.281216 -0.60745
O_ O_ 0.842574 0.799185 0.282619 -0.60745
O_ O_ 0.661526 0.795835 0.284519 -0.60745
O_ O_ 0.902703 0.79743 0.277964 -0.60745
O_ O_ 0.64946 0.802149 0.218498 -0.60745
O_ O_ 0.904065 0.802028 0.209893 -0.60745
O_ O_ 0.657209 0.70622 0.284107 -0.60745
O_ O_ 0.902623 0.707097 0.280173 -0.60745
O_ O_ 0.6562 0.709802 0.216505 -0.60745
O_ O_ 0.911548 0.713863 0.213028 -0.60745
O_ O_ 0.591027 0.710315 0.21264 -0.60745
O_ O_ 0.848439 0.707933 0.22054 -0.60745
O_ O_ 0.592382 0.71061 0.281044 -0.60745
O_ O_ 0.837875 0.712696 0.286885 -0.60745
Zn Zn 0.623374 0.745941 0.788112 0.9476
Zn Zn 0.877167 0.748991 0.787004 0.9476
Zn Zn 0.620285 0.744841 0.714797 0.9476
Zn Zn 0.874602 0.747896 0.716418 0.9476
H_ H_ 0.534891 0.918072 0.689665 0.10932
H_ H_ 0.769973 0.90042 0.686642 0.10932
H_ H_ 0.553877 0.841255 0.822786 0.10932
H_ H_ 0.82554 0.870493 0.819738 0.10932
H_ H_ 0.566363 0.854813 0.69021 0.10932
H_ H_ 0.801429 0.838318 0.689635 0.10932
H_ H_ 0.523084 0.902424 0.824325 0.10932
H_ H_ 0.795228 0.931572 0.811653 0.10932
H_ H_ 0.725147 0.912558 0.806433 0.10932
H_ H_ 0.968242 0.907089 0.826693 0.10932
H_ H_ 0.66752 0.860547 0.681906 0.10932
H_ H_ 0.925746 0.862058 0.689782 0.10932
H_ H_ 0.685742 0.855283 0.816906 0.10932
H_ H_ 0.947961 0.838844 0.81949 0.10932
H_ H_ 0.700483 0.921216 0.676665 0.10932
H_ H_ 0.951013 0.931583 0.694958 0.10932
H_ H_ 0.711001 0.576238 0.811653 0.10932
H_ H_ 0.941615 0.559188 0.79531 0.10932
H_ H_ 0.685464 0.65167 0.683179 0.10932
H_ H_ 0.959249 0.667376 0.691477 0.10932
H_ H_ 0.676347 0.637405 0.815652 0.10932
H_ H_ 0.91752 0.629461 0.800226 0.10932
H_ H_ 0.711062 0.583686 0.678327 0.10932
H_ H_ 0.981644 0.599409 0.682829 0.10932
H_ H_ 0.548908 0.562002 0.697451 0.10932
H_ H_ 0.793408 0.567957 0.684516 0.10932
H_ H_ 0.554673 0.656148 0.821459 0.10932
H_ H_ 0.794718 0.664807 0.808646 0.10932
H_ H_ 0.575945 0.625189 0.691696 0.10932
H_ H_ 0.830487 0.628893 0.68923 0.10932
H_ H_ 0.518716 0.599397 0.821203 0.10932
H_ H_ 0.770611 0.596078 0.813379 0.10932
H_ H_ 0.609969 0.686821 0.870919 0.10932
H_ H_ 0.861556 0.686059 0.866467 0.10932
H_ H_ 0.632319 0.810681 0.854562 0.10932
H_ H_ 0.887308 0.812403 0.854679 0.10932
H_ H_ 0.633984 0.82378 0.929802 0.10932
H_ H_ 0.894334 0.81537 0.932737 0.10932
H_ H_ 0.613429 0.693646 0.946828 0.10932
H_ H_ 0.863115 0.69057 0.942583 0.10932
H_ H_ 0.628216 0.672684 0.645918 0.10932
H_ H_ 0.861077 0.81557 0.65215 0.10932
H_ H_ 0.614128 0.799073 0.639383 0.10932
H_ H_ 0.890938 0.695984 0.635696 0.10932
H_ H_ 0.622009 0.797387 0.558779 0.10932
H_ H_ 0.884949 0.702317 0.557353 0.10932
H_ H_ 0.638115 0.667118 0.56878 0.10932
H_ H_ 0.849522 0.823744 0.573365 0.10932
C_ C_ 0.562875 0.843023 0.755428 -0.02249
C_ C_ 0.816691 0.84822 0.755543 -0.02249
C_ C_ 0.51317 0.959056 0.758543 -0.02249
C_ C_ 0.76485 0.961447 0.741447 -0.02249
C_ C_ 0.542624 0.905864 0.719681 -0.11473
C_ C_ 0.782508 0.89429 0.713259 -0.11473
C_ C_ 0.552332 0.859654 0.793555 -0.11473
C_ C_ 0.813985 0.874287 0.789797 -0.11473
C_ C_ 0.557815 0.867247 0.719271 -0.11473
C_ C_ 0.798149 0.856232 0.718351 -0.11473
C_ C_ 0.528425 0.918011 0.757311 -0.02249
C_ C_ 0.782111 0.922193 0.746924 -0.02249
C_ C_ 0.579662 0.802025 0.754037 0.6875
C_ C_ 0.837793 0.812927 0.756271 0.6875
C_ C_ 0.533851 0.895103 0.794249 -0.11473
C_ C_ 0.796361 0.910694 0.78559 -0.11473
C_ C_ 0.676042 0.852037 0.749634 -0.02249
C_ C_ 0.933987 0.846182 0.754487 -0.02249
C_ C_ 0.732955 0.961061 0.739326 -0.02249
C_ C_ 0.980971 0.960259 0.761871 -0.02249
C_ C_ 0.709345 0.902393 0.780057 -0.11473
C_ C_ 0.962915 0.896287 0.795309 -0.11473
C_ C_ 0.67987 0.872668 0.710588 -0.11473
C_ C_ 0.937826 0.870786 0.71803 -0.11473
C_ C_ 0.690818 0.867667 0.786509 -0.11473
C_ C_ 0.948547 0.857759 0.791302 -0.11473
C_ C_ 0.715182 0.921534 0.74138 -0.02249
C_ C_ 0.962359 0.923938 0.76154 -0.02249
C_ C_ 0.656979 0.813374 0.752297 0.6875
C_ C_ 0.916041 0.808099 0.75304 0.6875
C_ C_ 0.699653 0.905576 0.706894 -0.11473
C_ C_ 0.951698 0.909109 0.721752 -0.11473
C_ C_ 0.685917 0.654461 0.750181 -0.02249
C_ C_ 0.934412 0.651128 0.742532 -0.02249
C_ C_ 0.73169 0.538103 0.745124 -0.02249
C_ C_ 0.984528 0.535096 0.741875 -0.02249
C_ C_ 0.703728 0.590799 0.784035 -0.11473
C_ C_ 0.944717 0.58315 0.77124 -0.11473
C_ C_ 0.695419 0.637772 0.71172 -0.11473
C_ C_ 0.952902 0.641093 0.709681 -0.11473
C_ C_ 0.689327 0.629532 0.785559 -0.11473
C_ C_ 0.930565 0.62176 0.774565 -0.11473
C_ C_ 0.714053 0.575178 0.745217 -0.02249
C_ C_ 0.96634 0.576222 0.740494 -0.02249
C_ C_ 0.663809 0.690161 0.750158 0.6875
C_ C_ 0.917539 0.691227 0.74748 0.6875
C_ C_ 0.71112 0.599439 0.709733 -0.11473
C_ C_ 0.968824 0.606113 0.708602 -0.11473
C_ C_ 0.566232 0.648818 0.755471 -0.02249
C_ C_ 0.816616 0.653467 0.74799 -0.02249
C_ C_ 0.512289 0.537286 0.762977 -0.02249
C_ C_ 0.763489 0.539449 0.748307 -0.02249
C_ C_ 0.546039 0.584909 0.723631 -0.11473
C_ C_ 0.795913 0.590515 0.711875 -0.11473
C_ C_ 0.549145 0.639823 0.791172 -0.11473
C_ C_ 0.797446 0.645021 0.780998 -0.11473
C_ C_ 0.563775 0.621098 0.72177 -0.11473
C_ C_ 0.815156 0.624899 0.713236 -0.11473
C_ C_ 0.529212 0.577437 0.759806 -0.02249
C_ C_ 0.780814 0.579388 0.747671 -0.02249
C_ C_ 0.586726 0.685022 0.752632 0.6875
C_ C_ 0.838401 0.687716 0.75133 0.6875
C_ C_ 0.529174 0.606731 0.792258 -0.11473
C_ C_ 0.783922 0.603889 0.784319 -0.11473
C_ C_ 0.614632 0.716558 0.883974 0.17695
C_ C_ 0.865787 0.715839 0.880737 0.17695
C_ C_ 0.631268 0.784876 0.874718 0.17695
C_ C_ 0.883737 0.785012 0.875608 0.17695
C_ C_ 0.631298 0.791961 0.917872 -0.11473
C_ C_ 0.887111 0.788688 0.919531 -0.11473
C_ C_ 0.626539 0.758194 0.945296 0.23465
C_ C_ 0.877482 0.754885 0.943325 0.23465
C_ C_ 0.616382 0.720209 0.927505 -0.11473
C_ C_ 0.869028 0.718068 0.925081 -0.11473
C_ C_ 0.629377 0.699586 0.625851 0.17695
C_ C_ 0.862276 0.789826 0.630664 0.17695
C_ C_ 0.620331 0.771597 0.622522 0.17695
C_ C_ 0.882691 0.722874 0.62139 0.17695
C_ C_ 0.627154 0.771506 0.578286 -0.11473
C_ C_ 0.88049 0.72686 0.577643 -0.11473
C_ C_ 0.632469 0.732495 0.557683 0.23465
C_ C_ 0.86957 0.76368 0.55995 0.23465
C_ C_ 0.634805 0.696881 0.582981 -0.11473
C_ C_ 0.858566 0.794462 0.586441 -0.11473
C_ C_ 0.53006 -0.0029240000000000377 0.755073 0.05793
C_ C_ 0.780485 -0.0012579999999999814 0.744599 0.05793
C_ C_ 0.716147 0.500097 0.739099 0.05793
C_ C_ 0.96877 0.498121 0.734663 0.05793
Br Br 0.572974 -0.00651999999999997 0.770457 -0.17191
Br Br 0.821862 0.998552 0.741859 -0.17191
Br Br 0.673926 0.498758 0.722471 -0.17191
Br Br 0.928636 0.498764 0.713562 -0.17191
N_ N_ 0.624432 0.7466 0.858478 -0.272
N_ N_ 0.8768 0.748319 0.858101 -0.272
N_ N_ 0.632092 0.760623 0.989409 -0.12501
N_ N_ 0.882398 0.758018 0.987431 -0.12501
N_ N_ 0.621763 0.736897 0.644677 -0.272
N_ N_ 0.874958 0.755209 0.645999 -0.272
N_ N_ 0.638766 0.730232 0.514338 -0.12501
N_ N_ 0.868766 0.771645 0.515642 -0.12501
O_ O_ 0.5882 0.787046 0.719487 -0.60745
O_ O_ 0.839832 0.789739 0.723886 -0.60745
O_ O_ 0.591697 0.79004 0.787212 -0.60745
O_ O_ 0.850601 0.800619 0.790226 -0.60745
O_ O_ 0.655367 0.791185 0.784482 -0.60745
O_ O_ 0.913177 0.786096 0.785358 -0.60745
O_ O_ 0.647509 0.797109 0.717803 -0.60745
O_ O_ 0.898276 0.800971 0.721022 -0.60745
O_ O_ 0.654488 0.702258 0.784724 -0.60745
O_ O_ 0.905647 0.699085 0.782643 -0.60745
O_ O_ 0.653943 0.70675 0.716816 -0.60745
O_ O_ 0.912714 0.714827 0.716176 -0.60745
O_ O_ 0.593943 0.698804 0.716713 -0.60745
O_ O_ 0.848993 0.699721 0.71825 -0.60745
O_ O_ 0.594376 0.703868 0.786069 -0.60745
O_ O_ 0.842162 0.708078 0.784434 -0.60745
_cell_length_a 44.444
_cell_length_b 32.3360000049186
_cell_length_c 31.843999878906452
_cell_angle_alpha 89.99799923859553
_cell_angle_beta 91.13600050494348
_cell_angle_gamma 89.9990006550086
_symmetry_space_group_name_H-M         'P 1'
_symmetry_Int_Tables_number            1
loop_
_symmetry_equiv_pos_as_xyz
   'x, y, z'
                         
loop_
_atom_site_label
_atom_site_type_symbol
_atom_site_fract_x 
_atom_site_fract_y
_atom_site_fract_z
_atom_site_charge
Zn Zn 0.128485 0.25466 0.2845 0.9476
Zn Zn 0.376106 0.248971 0.27982 0.9476
Zn Zn 0.126382 0.252127 0.216758 0.9476
Zn Zn 0.373777 0.250684 0.208558 0.9476
H_ H_ 0.0339719 0.415679 0.178133 0.10932
H_ H_ 0.290299 0.424735 0.177105 0.10932
H_ H_ 0.0644966 0.356249 0.31793 0.10932
H_ H_ 0.312233 0.35898 0.313174 0.10932
H_ H_ 0.0647649 0.350421 0.181388 0.10932
H_ H_ 0.31495 0.357077 0.177029 0.10932
H_ H_ 0.0297667 0.4135 0.314253 0.10932
H_ H_ 0.272489 0.410243 0.307918 0.10932
H_ H_ 0.198125 0.438499 0.301132 0.10932
H_ H_ 0.471206 0.412286 0.31323 0.10932
H_ H_ 0.204557 0.33847 0.185293 0.10932
H_ H_ 0.439853 0.358233 0.179487 0.10932
H_ H_ 0.174991 0.373603 0.308458 0.10932
H_ H_ 0.433557 0.353593 0.315495 0.10932
H_ H_ 0.230358 0.407439 0.176839 0.10932
H_ H_ 0.46408 0.420065 0.182936 0.10932
H_ H_ 0.220172 0.0829982 0.31695 0.10932
H_ H_ 0.473162 0.090949 0.313642 0.10932
H_ H_ 0.179194 0.148377 0.18661 0.10932
H_ H_ 0.42639 0.13604 0.184107 0.10932
H_ H_ 0.191126 0.1516 0.323905 0.10932
H_ H_ 0.44612 0.155832 0.315495 0.10932
H_ H_ 0.20511 0.0785193 0.186321 0.10932
H_ H_ 0.460807 0.0803561 0.182976 0.10932
H_ H_ 0.0241749 0.0908662 0.188695 0.10932
H_ H_ 0.283531 0.0818127 0.178486 0.10932
H_ H_ 0.087887 0.133313 0.310548 0.10932
H_ H_ 0.30815 0.153348 0.312676 0.10932
H_ H_ 0.0540923 0.158423 0.186042 0.10932
H_ H_ 0.320019 0.138505 0.176972 0.10932
H_ H_ 0.0574016 0.0640869 0.308289 0.10932
H_ H_ 0.28065 0.0897812 0.310733 0.10932
H_ H_ 0.114935 0.191066 0.362231 0.10932
H_ H_ 0.374748 0.311545 0.355595 0.10932
H_ H_ 0.145244 0.31426 0.359726 0.10932
H_ H_ 0.37744 0.180926 0.347889 0.10932
H_ H_ 0.153417 0.312671 0.43835 0.10932
H_ H_ 0.36751 0.174428 0.426869 0.10932
H_ H_ 0.115087 0.190683 0.4386 0.10932
H_ H_ 0.375743 0.306981 0.433383 0.10932
H_ H_ 0.125624 0.320601 0.145255 0.10932
H_ H_ 0.335649 0.204346 0.135562 0.10932
H_ H_ 0.133394 0.191125 0.136852 0.10932
H_ H_ 0.408428 0.28612 0.128728 0.10932
H_ H_ 0.12252 0.194634 0.0608863 0.10932
H_ H_ 0.40206 0.29142 0.0486426 0.10932
H_ H_ 0.120624 0.325253 0.0663608 0.10932
H_ H_ 0.328519 0.204849 0.0566958 0.10932
C_ C_ 0.0660717 0.347381 0.248937 -0.02249
C_ C_ 0.320481 0.353369 0.245872 -0.02249
C_ C_ 0.0132586 0.459274 0.246378 -0.02249
C_ C_ 0.267483 0.46616 0.243166 -0.02249
C_ C_ 0.035903 0.399432 0.207023 -0.11473
C_ C_ 0.295075 0.408917 0.205291 -0.11473
C_ C_ 0.0559848 0.36591 0.286971 -0.11473
C_ C_ 0.305434 0.368467 0.282184 -0.11473
C_ C_ 0.0566507 0.364665 0.209851 -0.11473
C_ C_ 0.313668 0.37447 0.205969 -0.11473
C_ C_ 0.0281594 0.418139 0.24581 -0.02249
C_ C_ 0.282584 0.423753 0.24255 -0.02249
C_ C_ 0.0872757 0.313194 0.250287 0.6875
C_ C_ 0.334971 0.312027 0.244745 0.6875
C_ C_ 0.035883 0.398654 0.285397 -0.11473
C_ C_ 0.284951 0.400875 0.28033 -0.11473
C_ C_ 0.186548 0.351388 0.248231 -0.02249
C_ C_ 0.434229 0.347755 0.247584 -0.02249
C_ C_ 0.235762 0.469012 0.236463 -0.02249
C_ C_ 0.486044 0.461359 0.251477 -0.02249
C_ C_ 0.200297 0.418642 0.274769 -0.11473
C_ C_ 0.460632 0.401116 0.285422 -0.11473
C_ C_ 0.203665 0.361244 0.211284 -0.11473
C_ C_ 0.443582 0.368681 0.210107 -0.11473
C_ C_ 0.186202 0.380905 0.279094 -0.11473
C_ C_ 0.440527 0.36853 0.28691 -0.11473
C_ C_ 0.216907 0.430024 0.237535 -0.02249
C_ C_ 0.46723 0.423245 0.249304 -0.02249
C_ C_ 0.166786 0.315332 0.251482 0.6875
C_ C_ 0.41581 0.31055 0.2463 0.6875
C_ C_ 0.217644 0.401147 0.205987 -0.11473
C_ C_ 0.457512 0.406711 0.211317 -0.11473
C_ C_ 0.18259 0.153598 0.253787 -0.02249
C_ C_ 0.434873 0.154455 0.249507 -0.02249
C_ C_ 0.230679 0.039367 0.25087 -0.02249
C_ C_ 0.487399 0.0433227 0.249107 -0.02249
C_ C_ 0.211375 0.0997124 0.290056 -0.11473
C_ C_ 0.467376 0.106194 0.284851 -0.11473
C_ C_ 0.187306 0.133498 0.217081 -0.11473
C_ C_ 0.440046 0.131431 0.212051 -0.11473
C_ C_ 0.194272 0.137119 0.292923 -0.11473
C_ C_ 0.451162 0.144253 0.284985 -0.11473
C_ C_ 0.213357 0.0775709 0.253144 -0.02249
C_ C_ 0.471569 0.0838758 0.248849 -0.02249
C_ C_ 0.164653 0.191941 0.254399 0.6875
C_ C_ 0.413608 0.188472 0.249304 0.6875
C_ C_ 0.20349 0.0958523 0.215669 -0.11473
C_ C_ 0.457811 0.0962561 0.212026 -0.11473
C_ C_ 0.0721439 0.149951 0.249199 -0.02249
C_ C_ 0.317227 0.151283 0.243247 -0.02249
C_ C_ 0.0191625 0.0398893 0.252434 -0.02249
C_ C_ 0.262054 0.0419476 0.246053 -0.02249
C_ C_ 0.037545 0.101999 0.214953 -0.11473
C_ C_ 0.288897 0.0978313 0.206366 -0.11473
C_ C_ 0.0741792 0.123669 0.283901 -0.11473
C_ C_ 0.301534 0.140412 0.281218 -0.11473
C_ C_ 0.0544121 0.138706 0.213632 -0.11473
C_ C_ 0.310203 0.129351 0.206613 -0.11473
C_ C_ 0.0373821 0.0779155 0.250838 -0.02249
C_ C_ 0.277302 0.0830592 0.242881 -0.02249
C_ C_ 0.0889727 0.189606 0.249695 0.6875
C_ C_ 0.338227 0.186979 0.243069 0.6875
C_ C_ 0.0572376 0.0856942 0.283504 -0.11473
C_ C_ 0.28585 0.103889 0.28001 -0.11473
C_ C_ 0.120753 0.219964 0.378618 0.17695
C_ C_ 0.375084 0.281508 0.373055 0.17695
C_ C_ 0.139091 0.288726 0.377081 0.17695
C_ C_ 0.374473 0.20865 0.367334 0.17695
C_ C_ 0.143151 0.286808 0.420868 -0.11473
C_ C_ 0.370775 0.205392 0.411356 -0.11473
C_ C_ 0.13094 0.254251 0.445079 0.23465
C_ C_ 0.373305 0.241205 0.437515 0.23465
C_ C_ 0.120689 0.219327 0.422657 -0.11473
C_ C_ 0.374034 0.279788 0.416417 -0.11473
C_ C_ 0.127465 0.291616 0.126076 0.17695
C_ C_ 0.348932 0.225098 0.117474 0.17695
C_ C_ 0.13328 0.21989 0.120999 0.17695
C_ C_ 0.38929 0.271982 0.11193 0.17695
C_ C_ 0.12901 0.221287 0.0776475 -0.11473
C_ C_ 0.386073 0.272646 0.0685626 -0.11473
C_ C_ 0.126648 0.260331 0.0576803 0.23465
C_ C_ 0.366425 0.245294 0.0491161 0.23465
C_ C_ 0.121669 0.294261 0.0820481 -0.11473
C_ C_ 0.344908 0.224086 0.072951 -0.11473
C_ C_ 0.0307115 0.496122 0.244908 0.05793
C_ C_ 0.285247 0.501825 0.248059 0.05793
C_ C_ 0.216877 0.00198655 0.260109 0.05793
C_ C_ 0.469863 1.00678332 0.254692 0.05793
Br Br 0.0745252 0.492959 0.244262 -0.17191
Br Br 0.328108 0.498646 0.256905 -0.17191
Br Br 0.175013 0.00101303 0.277767 -0.17191
Br Br 0.426876 1.00908929 0.262337 -0.17191
N_ N_ 0.130445 0.254667 0.356857 -0.272
N_ N_ 0.374749 0.246001 0.348648 -0.272
N_ N_ 0.136925 0.253782 0.489896 -0.12501
N_ N_ 0.372907 0.236084 0.48234 -0.12501
N_ N_ 0.130214 0.254283 0.145737 -0.272
N_ N_ 0.370894 0.247856 0.137367 -0.272
N_ N_ 0.123613 0.26462 0.013819 -0.12501
N_ N_ 0.36255 0.247586 0.00442035 -0.12501
O_ O_ 0.0935103 0.294257 0.215687 -0.60745
O_ O_ 0.342907 0.297928 0.209812 -0.60745
O_ O_ 0.0983897 0.301087 0.284916 -0.60745
O_ O_ 0.342757 0.293369 0.27945 -0.60745
O_ O_ 0.161533 0.297886 0.285537 -0.60745
O_ O_ 0.404613 0.296154 0.280408 -0.60745
O_ O_ 0.156034 0.299039 0.217938 -0.60745
O_ O_ 0.407426 0.294342 0.212297 -0.60745
O_ O_ 0.159765 0.210961 0.288014 -0.60745
O_ O_ 0.409062 0.208355 0.282101 -0.60745
O_ O_ 0.158066 0.2089 0.220062 -0.60745
O_ O_ 0.403865 0.201918 0.212801 -0.60745
O_ O_ 0.0977907 0.205496 0.21475 -0.60745
O_ O_ 0.343355 0.206023 0.210264 -0.60745
O_ O_ 0.0954663 0.208808 0.283384 -0.60745
O_ O_ 0.347915 0.201511 0.277184 -0.60745
Zn Zn 0.125797 0.244988 0.786811 0.9476
Zn Zn 0.370779 0.24743 0.779327 0.9476
Zn Zn 0.127696 0.247576 0.71844 0.9476
Zn Zn 0.372323 0.245625 0.710542 0.9476
H_ H_ 0.0275629 0.407673 0.681158 0.10932
H_ H_ 0.305364 0.435091 0.694356 0.10932
H_ H_ 0.069949 0.355247 0.815518 0.10932
H_ H_ 0.288256 0.328293 0.801587 0.10932
H_ H_ 0.0649896 0.347999 0.685275 0.10932
H_ H_ 0.324607 0.365465 0.68235 0.10932
H_ H_ 0.0345828 0.415342 0.814029 0.10932
H_ H_ 0.2624 0.394946 0.807287 0.10932
H_ H_ 0.197929 0.430913 0.812863 0.10932
H_ H_ 0.444795 0.428881 0.816777 0.10932
H_ H_ 0.202527 0.340908 0.688282 0.10932
H_ H_ 0.449767 0.338513 0.690238 0.10932
H_ H_ 0.172991 0.3678 0.815788 0.10932
H_ H_ 0.411331 0.368833 0.809708 0.10932
H_ H_ 0.228011 0.403256 0.686044 0.10932
H_ H_ 0.479125 0.399653 0.692519 0.10932
H_ H_ 0.224029 0.0809283 0.808283 0.10932
H_ H_ 0.450315 0.0716784 0.813138 0.10932
H_ H_ 0.179198 0.138533 0.681596 0.10932
H_ H_ 0.444742 0.152147 0.682747 0.10932
H_ H_ 0.197387 0.149248 0.813775 0.10932
H_ H_ 0.421823 0.138244 0.808176 0.10932
H_ H_ 0.204013 0.0716248 0.681309 0.10932
H_ H_ 0.46709 0.0838628 0.681189 0.10932
H_ H_ 0.0413892 0.0707648 0.687784 0.10932
H_ H_ 0.279633 0.0737014 0.682225 0.10932
H_ H_ 0.0669012 0.138853 0.822221 0.10932
H_ H_ 0.322814 0.134555 0.810373 0.10932
H_ H_ 0.069694 0.135169 0.68884 0.10932
H_ H_ 0.310314 0.140761 0.678396 0.10932
H_ H_ 0.0316259 0.0824968 0.822508 0.10932
H_ H_ 0.285618 0.0780153 0.818509 0.10932
H_ H_ 0.127031 0.310945 0.860769 0.10932
H_ H_ 0.354735 0.30882 0.855747 0.10932
H_ H_ 0.12951 0.179874 0.858773 0.10932
H_ H_ 0.382093 0.181616 0.852768 0.10932
H_ H_ 0.129877 0.178157 0.936002 0.10932
H_ H_ 0.386618 0.181649 0.927721 0.10932
H_ H_ 0.127849 0.309965 0.940559 0.10932
H_ H_ 0.360615 0.30944 0.932789 0.10932
H_ H_ 0.129364 0.185092 0.637641 0.10932
H_ H_ 0.366121 0.187124 0.631358 0.10932
H_ H_ 0.117417 0.314107 0.649961 0.10932
H_ H_ 0.381965 0.313261 0.641675 0.10932
H_ H_ 0.111455 0.318849 0.570535 0.10932
H_ H_ 0.387168 0.318991 0.563371 0.10932
H_ H_ 0.130344 0.187614 0.561431 0.10932
H_ H_ 0.364101 0.193181 0.549096 0.10932
C_ C_ 0.0690374 0.347257 0.750684 -0.02249
C_ C_ 0.308208 0.340979 0.742665 -0.02249
C_ C_ 0.0152329 0.458631 0.747424 -0.02249
C_ C_ 0.26467 0.460342 0.750987 -0.02249
C_ C_ 0.0383907 0.397473 0.710856 -0.11473
C_ C_ 0.30073 0.411337 0.71804 -0.11473
C_ C_ 0.0596531 0.366867 0.787749 -0.11473
C_ C_ 0.28933 0.350083 0.77714 -0.11473
C_ C_ 0.0586572 0.364367 0.712308 -0.11473
C_ C_ 0.312369 0.370958 0.711893 -0.11473
C_ C_ 0.0323566 0.418542 0.74726 -0.02249
C_ C_ 0.282046 0.421204 0.751279 -0.02249
C_ C_ 0.0860575 0.305259 0.75356 0.6875
C_ C_ 0.330203 0.305267 0.746033 0.6875
C_ C_ 0.0431815 0.402828 0.785242 -0.11473
C_ C_ 0.277518 0.390177 0.783058 -0.11473
C_ C_ 0.184519 0.346225 0.751846 -0.02249
C_ C_ 0.429638 0.34601 0.752353 -0.02249
C_ C_ 0.233395 0.461216 0.751954 -0.02249
C_ C_ 0.480402 0.461424 0.754894 -0.02249
C_ C_ 0.200698 0.410304 0.786337 -0.11473
C_ C_ 0.445994 0.408859 0.7864 -0.11473
C_ C_ 0.202488 0.356492 0.717973 -0.11473
C_ C_ 0.445516 0.359568 0.716349 -0.11473
C_ C_ 0.184288 0.374257 0.78544 -0.11473
C_ C_ 0.426436 0.37495 0.785597 -0.11473
C_ C_ 0.217591 0.421502 0.751534 -0.02249
C_ C_ 0.463182 0.42259 0.752244 -0.02249
C_ C_ 0.162463 0.310417 0.750438 0.6875
C_ C_ 0.411305 0.306371 0.751957 0.6875
C_ C_ 0.213062 0.39662 0.713446 -0.11473
C_ C_ 0.463913 0.394821 0.717581 -0.11473
C_ C_ 0.18589 0.148571 0.746767 -0.02249
C_ C_ 0.433514 0.151706 0.746904 -0.02249
C_ C_ 0.232849 0.0335326 0.744153 -0.02249
C_ C_ 0.481804 0.0348865 0.747545 -0.02249
C_ C_ 0.213154 0.093693 0.783014 -0.11473
C_ C_ 0.452407 0.0912946 0.78471 -0.11473
C_ C_ 0.190432 0.127594 0.708574 -0.11473
C_ C_ 0.447011 0.135181 0.710516 -0.11473
C_ C_ 0.198977 0.132821 0.782936 -0.11473
C_ C_ 0.437168 0.128594 0.784179 -0.11473
C_ C_ 0.218099 0.0750596 0.745011 -0.02249
C_ C_ 0.465639 0.0765749 0.747357 -0.02249
C_ C_ 0.167454 0.188333 0.749582 0.6875
C_ C_ 0.412974 0.18774 0.744778 0.6875
C_ C_ 0.204484 0.0908269 0.708144 -0.11473
C_ C_ 0.462741 0.098937 0.71047 -0.11473
C_ C_ 0.0710103 0.144818 0.75434 -0.02249
C_ C_ 0.316911 0.145468 0.74807 -0.02249
C_ C_ 0.014727 0.035235 0.755373 -0.02249
C_ C_ 0.265239 0.0304336 0.750312 -0.02249
C_ C_ 0.0442889 0.0879891 0.717389 -0.11473
C_ C_ 0.290722 0.0868416 0.711349 -0.11473
C_ C_ 0.0591233 0.129127 0.79246 -0.11473
C_ C_ 0.310486 0.12585 0.784879 -0.11473
C_ C_ 0.0645285 0.121444 0.718119 -0.11473
C_ C_ 0.30799 0.122996 0.708929 -0.11473
C_ C_ 0.0321433 0.0739479 0.754988 -0.02249
C_ C_ 0.283445 0.0691355 0.74971 -0.02249
C_ C_ 0.0888654 0.182873 0.753812 0.6875
C_ C_ 0.335053 0.184301 0.747323 0.6875
C_ C_ 0.0406621 0.0939938 0.792324 -0.11473
C_ C_ 0.294123 0.0879955 0.787437 -0.11473
C_ C_ 0.127642 0.282194 0.878062 0.17695
C_ C_ 0.362225 0.280695 0.871489 0.17695
C_ C_ 0.129337 0.208978 0.87559 0.17695
C_ C_ 0.378116 0.210459 0.870774 0.17695
C_ C_ 0.127292 0.207048 0.918764 -0.11473
C_ C_ 0.378924 0.209721 0.913044 -0.11473
C_ C_ 0.130404 0.242577 0.942817 0.23465
C_ C_ 0.379485 0.24583 0.935602 0.23465
C_ C_ 0.131217 0.281236 0.922497 -0.11473
C_ C_ 0.368038 0.282299 0.915408 -0.11473
C_ C_ 0.129697 0.214197 0.623632 0.17695
C_ C_ 0.369481 0.216611 0.61477 0.17695
C_ C_ 0.121111 0.28705 0.629362 0.17695
C_ C_ 0.379966 0.287519 0.622119 0.17695
C_ C_ 0.11748 0.289781 0.585556 -0.11473
C_ C_ 0.380021 0.292975 0.578835 -0.11473
C_ C_ 0.124302 0.253798 0.560103 0.23465
C_ C_ 0.37674 0.258709 0.552016 0.23465
C_ C_ 0.128782 0.21537 0.581138 -0.11473
C_ C_ 0.370158 0.21924 0.57006 -0.11473
C_ C_ 0.0297444 0.49604 0.755464 0.05793
C_ C_ 0.280792 0.498718 0.750262 0.05793
C_ C_ 0.215763 -0.0038169999999999593 0.746369 0.05793
C_ C_ 0.465003 0.997979 0.748757 0.05793
Br Br 0.0715415 0.499013 0.773182 -0.17191
Br Br 0.322106 0.501272 0.76891 -0.17191
Br Br 0.172887 0.0025862 0.737022 -0.17191
Br Br 0.42242 0.996879 0.745564 -0.17191
N_ N_ 0.129877 0.245358 0.856616 -0.272
N_ N_ 0.369692 0.245653 0.850547 -0.272
N_ N_ 0.131797 0.23817 0.988116 -0.12501
N_ N_ 0.38406 0.241821 0.979801 -0.12501
N_ N_ 0.126542 0.249489 0.647734 -0.272
N_ N_ 0.37376 0.25034 0.639233 -0.272
N_ N_ 0.116736 0.255598 0.516775 -0.12501
N_ N_ 0.377512 0.264723 0.507566 -0.12501
O_ O_ 0.0953786 0.291234 0.720251 -0.60745
O_ O_ 0.343522 0.29398 0.714401 -0.60745
O_ O_ 0.0950979 0.289431 0.78736 -0.60745
O_ O_ 0.335741 0.287908 0.781137 -0.60745
O_ O_ 0.155469 0.291923 0.784275 -0.60745
O_ O_ 0.398888 0.297296 0.786195 -0.60745
O_ O_ 0.155605 0.295966 0.714358 -0.60745
O_ O_ 0.402867 0.287825 0.71887 -0.60745
O_ O_ 0.15734 0.200455 0.784666 -0.60745
O_ O_ 0.405621 0.206802 0.7773 -0.60745
O_ O_ 0.161732 0.209496 0.716417 -0.60745
O_ O_ 0.402168 0.19956 0.709284 -0.60745
O_ O_ 0.0974822 0.196938 0.718804 -0.60745
O_ O_ 0.343569 0.197654 0.712824 -0.60745
O_ O_ 0.095278 0.202889 0.78814 -0.60745
O_ O_ 0.345516 0.198865 0.781321 -0.60745
Zn Zn 0.1209 0.751228 0.288218 0.9476
Zn Zn 0.378561 0.751194 0.289975 0.9476
Zn Zn 0.122659 0.751536 0.218211 0.9476
Zn Zn 0.381423 0.756129 0.220573 0.9476
H_ H_ 0.0259831 0.914733 0.190233 0.10932
H_ H_ 0.278663 0.914624 0.186682 0.10932
H_ H_ 0.0606294 0.85191 0.323661 0.10932
H_ H_ 0.325149 0.869317 0.324598 0.10932
H_ H_ 0.0546561 0.84598 0.187463 0.10932
H_ H_ 0.311915 0.854291 0.189117 0.10932
H_ H_ 0.033694 0.920855 0.319116 0.10932
H_ H_ 0.29383 0.9364 0.318026 0.10932
H_ H_ 0.230949 0.903774 0.313496 0.10932
H_ H_ 0.471596 0.921421 0.32358 0.10932
H_ H_ 0.1588 0.874119 0.197563 0.10932
H_ H_ 0.45058 0.850584 0.193859 0.10932
H_ H_ 0.198635 0.844649 0.317417 0.10932
H_ H_ 0.438386 0.859814 0.325026 0.10932
H_ H_ 0.191836 0.941727 0.197121 0.10932
H_ H_ 0.476557 0.918186 0.193923 0.10932
H_ H_ 0.215315 0.578697 0.314434 0.10932
H_ H_ 0.461537 0.577784 0.327536 0.10932
H_ H_ 0.203828 0.667289 0.187284 0.10932
H_ H_ 0.442137 0.64688 0.190397 0.10932
H_ H_ 0.187001 0.643261 0.318936 0.10932
H_ H_ 0.432958 0.644961 0.324492 0.10932
H_ H_ 0.238429 0.605351 0.187888 0.10932
H_ H_ 0.47503 0.586227 0.19558 0.10932
H_ H_ 0.0326872 0.581563 0.187802 0.10932
H_ H_ 0.312476 0.571307 0.184281 0.10932
H_ H_ 0.0516321 0.654787 0.317707 0.10932
H_ H_ 0.296151 0.668742 0.304809 0.10932
H_ H_ 0.0639606 0.645325 0.185624 0.10932
H_ H_ 0.336196 0.638487 0.186076 0.10932
H_ H_ 0.0246108 0.592124 0.318183 0.10932
H_ H_ 0.279272 0.598174 0.309799 0.10932
H_ H_ 0.11593 0.812936 0.359738 0.10932
H_ H_ 0.394575 0.810603 0.365358 0.10932
H_ H_ 0.129101 0.687172 0.364124 0.10932
H_ H_ 0.369427 0.682592 0.362648 0.10932
H_ H_ 0.13003 0.68756 0.445665 0.10932
H_ H_ 0.369582 0.678746 0.439143 0.10932
H_ H_ 0.107782 0.815842 0.435802 0.10932
H_ H_ 0.384145 0.810835 0.444409 0.10932
H_ H_ 0.134753 0.68198 0.148105 0.10932
H_ H_ 0.381943 0.826798 0.152545 0.10932
H_ H_ 0.110307 0.807386 0.135245 0.10932
H_ H_ 0.375291 0.698286 0.140608 0.10932
H_ H_ 0.115039 0.800481 0.0584049 0.10932
H_ H_ 0.37549 0.704011 0.0617431 0.10932
H_ H_ 0.127206 0.67154 0.0723551 0.10932
H_ H_ 0.384703 0.833937 0.075351 0.10932
C_ C_ 0.0607871 0.845452 0.257155 -0.02249
C_ C_ 0.323528 0.858372 0.256385 -0.02249
C_ C_ 0.0164526 0.964789 0.25316 -0.02249
C_ C_ 0.265598 0.964782 0.249057 -0.02249
C_ C_ 0.0344227 0.901083 0.218804 -0.11473
C_ C_ 0.290087 0.907389 0.217065 -0.11473
C_ C_ 0.0526265 0.865687 0.294363 -0.11473
C_ C_ 0.316809 0.882122 0.293217 -0.11473
C_ C_ 0.0507127 0.863119 0.218743 -0.11473
C_ C_ 0.308797 0.872407 0.21817 -0.11473
C_ C_ 0.0305866 0.923351 0.255254 -0.02249
C_ C_ 0.282485 0.926628 0.252991 -0.02249
C_ C_ 0.0806973 0.809176 0.257386 0.6875
C_ C_ 0.338987 0.818486 0.256966 0.6875
C_ C_ 0.0382311 0.903981 0.292379 -0.11473
C_ C_ 0.297744 0.917441 0.291232 -0.11473
C_ C_ 0.181484 0.850902 0.250986 -0.02249
C_ C_ 0.438644 0.852023 0.258092 -0.02249
C_ C_ 0.234155 0.964736 0.253621 -0.02249
C_ C_ 0.484646 0.969226 0.258199 -0.02249
C_ C_ 0.218939 0.895299 0.284748 -0.11473
C_ C_ 0.460771 0.911174 0.296276 -0.11473
C_ C_ 0.17908 0.878547 0.218148 -0.11473
C_ C_ 0.448196 0.869904 0.221953 -0.11473
C_ C_ 0.201031 0.860115 0.285488 -0.11473
C_ C_ 0.443827 0.874736 0.29647 -0.11473
C_ C_ 0.216382 0.924199 0.251984 -0.02249
C_ C_ 0.46586 0.930499 0.258019 -0.02249
C_ C_ 0.159574 0.815421 0.251151 0.6875
C_ C_ 0.420451 0.813371 0.255638 0.6875
C_ C_ 0.196009 0.91563 0.2183 -0.11473
C_ C_ 0.461941 0.908881 0.220183 -0.11473
C_ C_ 0.189322 0.659129 0.251769 -0.02249
C_ C_ 0.437213 0.652244 0.257149 -0.02249
C_ C_ 0.239233 0.54399 0.244662 -0.02249
C_ C_ 0.486538 0.537434 0.260806 -0.02249
C_ C_ 0.212323 0.597344 0.285902 -0.11473
C_ C_ 0.457634 0.594015 0.298336 -0.11473
C_ C_ 0.203311 0.647275 0.213944 -0.11473
C_ C_ 0.449625 0.635657 0.220223 -0.11473
C_ C_ 0.193854 0.633486 0.287416 -0.11473
C_ C_ 0.440607 0.631505 0.295798 -0.11473
C_ C_ 0.223755 0.585478 0.247802 -0.02249
C_ C_ 0.469783 0.577525 0.261686 -0.02249
C_ C_ 0.164234 0.692389 0.253039 0.6875
C_ C_ 0.417072 0.688909 0.254898 0.6875
C_ C_ 0.222426 0.612608 0.212987 -0.11473
C_ C_ 0.467368 0.600475 0.22418 -0.11473
C_ C_ 0.065439 0.651838 0.253391 -0.02249
C_ C_ 0.319273 0.65898 0.245178 -0.02249
C_ C_ 0.016284 0.535339 0.251814 -0.02249
C_ C_ 0.271123 0.539682 0.244713 -0.02249
C_ C_ 0.0429869 0.593228 0.215978 -0.11473
C_ C_ 0.307384 0.59152 0.211453 -0.11473
C_ C_ 0.0532754 0.636066 0.289819 -0.11473
C_ C_ 0.298645 0.647408 0.277139 -0.11473
C_ C_ 0.0598673 0.629657 0.215465 -0.11473
C_ C_ 0.32232 0.628987 0.212138 -0.11473
C_ C_ 0.035484 0.574299 0.254453 -0.02249
C_ C_ 0.290295 0.578484 0.246886 -0.02249
C_ C_ 0.0847576 0.689177 0.25451 0.6875
C_ C_ 0.340101 0.694399 0.250788 0.6875
C_ C_ 0.0377893 0.598659 0.290476 -0.11473
C_ C_ 0.287009 0.607564 0.279779 -0.11473
C_ C_ 0.119014 0.786445 0.379488 0.17695
C_ C_ 0.386081 0.781903 0.382428 0.17695
C_ C_ 0.125869 0.714221 0.381164 0.17695
C_ C_ 0.372266 0.711941 0.380325 0.17695
C_ C_ 0.125115 0.714806 0.426154 -0.11473
C_ C_ 0.373195 0.709145 0.424803 -0.11473
C_ C_ 0.123236 0.752564 0.44674 0.23465
C_ C_ 0.378209 0.743305 0.44899 0.23465
C_ C_ 0.117653 0.788232 0.422538 -0.11473
C_ C_ 0.381935 0.782288 0.427228 -0.11473
C_ C_ 0.129424 0.708672 0.130553 0.17695
C_ C_ 0.382014 0.799412 0.13326 0.17695
C_ C_ 0.119649 0.779115 0.123267 0.17695
C_ C_ 0.374297 0.728588 0.125973 0.17695
C_ C_ 0.121008 0.775435 0.078083 -0.11473
C_ C_ 0.37658 0.730835 0.0831002 -0.11473
C_ C_ 0.128214 0.737283 0.0592988 0.23465
C_ C_ 0.379883 0.769313 0.0642539 0.23465
C_ C_ 0.127941 0.70281 0.086795 -0.11473
C_ C_ 0.380645 0.804198 0.0891492 -0.11473
C_ C_ 0.0330202 1.000744392 0.254255 0.05793
C_ C_ 0.280268 1.00322547 0.246719 0.05793
C_ C_ 0.220828 0.507579 0.239571 0.05793
C_ C_ 0.471044 0.499183 0.258996 0.05793
Br Br 0.0756751 -0.002210999999999963 0.242168 -0.17191
Br Br 0.323419 1.00889977 0.242095 -0.17191
Br Br 0.178544 0.513027 0.2283 -0.17191
Br Br 0.427729 0.497235 0.27275 -0.17191
N_ N_ 0.12246 0.749142 0.35936 -0.272
N_ N_ 0.378244 0.749148 0.360598 -0.272
N_ N_ 0.128267 0.756181 0.490935 -0.12501
N_ N_ 0.373377 0.738138 0.494288 -0.12501
N_ N_ 0.124427 0.746193 0.148766 -0.272
N_ N_ 0.376773 0.761765 0.151186 -0.272
N_ N_ 0.127498 0.732108 0.0149221 -0.12501
N_ N_ 0.375474 0.773043 0.0204 -0.12501
O_ O_ 0.0915255 0.796793 0.221546 -0.60745
O_ O_ 0.350212 0.805005 0.223556 -0.60745
O_ O_ 0.0875309 0.791519 0.291781 -0.60745
O_ O_ 0.344985 0.799114 0.291667 -0.60745
O_ O_ 0.148444 0.8027 0.285908 -0.60745
O_ O_ 0.409092 0.798694 0.288565 -0.60745
O_ O_ 0.149872 0.79943 0.216302 -0.60745
O_ O_ 0.414947 0.797164 0.219768 -0.60745
O_ O_ 0.155843 0.707908 0.287604 -0.60745
O_ O_ 0.410342 0.708071 0.288431 -0.60745
O_ O_ 0.153202 0.706442 0.219111 -0.60745
O_ O_ 0.408816 0.705055 0.219881 -0.60745
O_ O_ 0.0919323 0.705716 0.219638 -0.60745
O_ O_ 0.346546 0.7167 0.219208 -0.60745
O_ O_ 0.0952388 0.7025 0.288767 -0.60745
O_ O_ 0.35024 0.704377 0.286698 -0.60745
Zn Zn 0.123525 0.747296 0.789147 0.9476
Zn Zn 0.373479 0.749648 0.790806 0.9476
Zn Zn 0.121962 0.746742 0.718838 0.9476
Zn Zn 0.373708 0.746252 0.722319 0.9476
H_ H_ 0.026872 0.915268 0.691518 0.10932
H_ H_ 0.289513 0.915091 0.692685 0.10932
H_ H_ 0.0597188 0.845574 0.825323 0.10932
H_ H_ 0.3043 0.837342 0.829356 0.10932
H_ H_ 0.0517268 0.848237 0.689453 0.10932
H_ H_ 0.306208 0.844125 0.691257 0.10932
H_ H_ 0.0290101 0.906362 0.827262 0.10932
H_ H_ 0.276898 0.904107 0.828479 0.10932
H_ H_ 0.202967 0.92042 0.821915 0.10932
H_ H_ 0.451607 0.930411 0.816584 0.10932
H_ H_ 0.190599 0.840693 0.689944 0.10932
H_ H_ 0.445796 0.835093 0.69839 0.10932
H_ H_ 0.175847 0.857738 0.821479 0.10932
H_ H_ 0.417812 0.872157 0.821758 0.10932
H_ H_ 0.210459 0.91123 0.686922 0.10932
H_ H_ 0.475906 0.896959 0.694227 0.10932
H_ H_ 0.19572 0.562525 0.81104 0.10932
H_ H_ 0.457344 0.576874 0.823975 0.10932
H_ H_ 0.200474 0.66502 0.693862 0.10932
H_ H_ 0.441463 0.654141 0.692971 0.10932
H_ H_ 0.171944 0.629603 0.816811 0.10932
H_ H_ 0.429905 0.641634 0.825267 0.10932
H_ H_ 0.223244 0.598179 0.684471 0.10932
H_ H_ 0.466579 0.58709 0.689443 0.10932
H_ H_ 0.052335 0.563801 0.687795 0.10932
H_ H_ 0.291931 0.575544 0.68496 0.10932
H_ H_ 0.0472568 0.657608 0.811695 0.10932
H_ H_ 0.311534 0.64941 0.821148 0.10932
H_ H_ 0.0770296 0.624703 0.688769 0.10932
H_ H_ 0.32655 0.634149 0.685855 0.10932
H_ H_ 0.0184015 0.590287 0.811653 0.10932
H_ H_ 0.274179 0.5886 0.818465 0.10932
H_ H_ 0.112713 0.813078 0.858532 0.10932
H_ H_ 0.374716 0.816288 0.869594 0.10932
H_ H_ 0.143055 0.69328 0.869472 0.10932
H_ H_ 0.378553 0.68772 0.861886 0.10932
H_ H_ 0.137567 0.691346 0.946318 0.10932
H_ H_ 0.374105 0.682455 0.937988 0.10932
H_ H_ 0.112382 0.820858 0.934865 0.10932
H_ H_ 0.376088 0.810799 0.949058 0.10932
H_ H_ 0.120134 0.679708 0.6486 0.10932
H_ H_ 0.366372 0.812291 0.656159 0.10932
H_ H_ 0.128854 0.807977 0.644167 0.10932
H_ H_ 0.390694 0.686699 0.642853 0.10932
H_ H_ 0.1286 0.804329 0.560839 0.10932
H_ H_ 0.395758 0.695245 0.56645 0.10932
H_ H_ 0.115209 0.673084 0.571475 0.10932
H_ H_ 0.362016 0.820992 0.580255 0.10932
C_ C_ 0.0620249 0.842435 0.754678 -0.02249
C_ C_ 0.308759 0.839251 0.761098 -0.02249
C_ C_ 0.0129572 0.958662 0.7619 -0.02249
C_ C_ 0.261948 0.955202 0.761279 -0.02249
C_ C_ 0.0375119 0.901717 0.722199 -0.11473
C_ C_ 0.286566 0.897675 0.721239 -0.11473
C_ C_ 0.0533784 0.859495 0.795393 -0.11473
C_ C_ 0.299567 0.854608 0.797852 -0.11473
C_ C_ 0.0499752 0.8623 0.719479 -0.11473
C_ C_ 0.302438 0.859107 0.721939 -0.11473
C_ C_ 0.0279316 0.916866 0.762042 -0.02249
C_ C_ 0.276382 0.912652 0.760749 -0.02249
C_ C_ 0.0820188 0.806694 0.752924 0.6875
C_ C_ 0.331287 0.804615 0.760655 0.6875
C_ C_ 0.0377873 0.897212 0.798584 -0.11473
C_ C_ 0.283569 0.89152 0.798799 -0.11473
C_ C_ 0.183773 0.841508 0.755992 -0.02249
C_ C_ 0.426995 0.848085 0.760576 -0.02249
C_ C_ 0.229667 0.957732 0.754103 -0.02249
C_ C_ 0.481166 0.958437 0.752579 -0.02249
C_ C_ 0.201367 0.904109 0.791942 -0.11473
C_ C_ 0.450763 0.909886 0.792036 -0.11473
C_ C_ 0.19446 0.858844 0.718034 -0.11473
C_ C_ 0.443004 0.856715 0.722723 -0.11473
C_ C_ 0.188796 0.865177 0.792613 -0.11473
C_ C_ 0.43204 0.874036 0.796093 -0.11473
C_ C_ 0.211726 0.919977 0.753839 -0.02249
C_ C_ 0.463421 0.919363 0.75394 -0.02249
C_ C_ 0.163602 0.804443 0.756144 0.6875
C_ C_ 0.407834 0.812217 0.762176 0.6875
C_ C_ 0.211295 0.89707 0.717324 -0.11473
C_ C_ 0.462267 0.891563 0.72165 -0.11473
C_ C_ 0.181074 0.65151 0.754754 -0.02249
C_ C_ 0.432979 0.653828 0.759037 -0.02249
C_ C_ 0.232291 0.537059 0.747226 -0.02249
C_ C_ 0.479889 0.537275 0.759426 -0.02249
C_ C_ 0.19617 0.582423 0.784302 -0.11473
C_ C_ 0.450894 0.592839 0.795434 -0.11473
C_ C_ 0.199954 0.644173 0.720628 -0.11473
C_ C_ 0.445568 0.63948 0.721122 -0.11473
C_ C_ 0.181579 0.622148 0.787882 -0.11473
C_ C_ 0.434625 0.629224 0.796185 -0.11473
C_ C_ 0.213753 0.57579 0.748795 -0.02249
C_ C_ 0.462999 0.577294 0.758796 -0.02249
C_ C_ 0.165419 0.691992 0.756748 0.6875
C_ C_ 0.414235 0.692061 0.76021 0.6875
C_ C_ 0.21545 0.605977 0.716669 -0.11473
C_ C_ 0.459758 0.600457 0.720292 -0.11473
C_ C_ 0.0669422 0.644714 0.751923 -0.02249
C_ C_ 0.31825 0.648867 0.752839 -0.02249
C_ C_ 0.0159837 0.533105 0.751576 -0.02249
C_ C_ 0.264329 0.536623 0.747563 -0.02249
C_ C_ 0.0523901 0.579656 0.717598 -0.11473
C_ C_ 0.293843 0.592972 0.714185 -0.11473
C_ C_ 0.0496469 0.63421 0.786201 -0.11473
C_ C_ 0.304441 0.634207 0.790623 -0.11473
C_ C_ 0.0691219 0.616514 0.718706 -0.11473
C_ C_ 0.312788 0.626966 0.714518 -0.11473
C_ C_ 0.0334061 0.571744 0.751146 -0.02249
C_ C_ 0.279652 0.577198 0.751067 -0.02249
C_ C_ 0.0850532 0.684355 0.751412 0.6875
C_ C_ 0.333899 0.688657 0.752959 0.6875
C_ C_ 0.0323709 0.599061 0.785358 -0.11473
C_ C_ 0.287194 0.597265 0.790142 -0.11473
C_ C_ 0.114733 0.785767 0.878397 0.17695
C_ C_ 0.374871 0.787469 0.88623 0.17695
C_ C_ 0.133307 0.717925 0.884625 0.17695
C_ C_ 0.375482 0.715356 0.881614 0.17695
C_ C_ 0.132247 0.721265 0.92817 -0.11473
C_ C_ 0.375448 0.711636 0.925348 -0.11473
C_ C_ 0.122361 0.756664 0.947571 0.23465
C_ C_ 0.377556 0.7471 0.950516 0.23465
C_ C_ 0.117771 0.791469 0.922314 -0.11473
C_ C_ 0.376642 0.785356 0.929592 -0.11473
C_ C_ 0.119257 0.706457 0.629584 0.17695
C_ C_ 0.371463 0.785802 0.635167 0.17695
C_ C_ 0.12663 0.778211 0.627317 0.17695
C_ C_ 0.384727 0.715176 0.628787 0.17695
C_ C_ 0.12443 0.77753 0.581444 -0.11473
C_ C_ 0.387714 0.721552 0.584922 -0.11473
C_ C_ 0.119683 0.738753 0.561379 0.23465
C_ C_ 0.379052 0.759276 0.565544 0.23465
C_ C_ 0.116757 0.703186 0.58472 -0.11473
C_ C_ 0.372227 0.791947 0.592079 -0.11473
C_ C_ 0.0292547 -0.005411000000000055 0.757239 0.05793
C_ C_ 0.278266 -0.007943999999999951 0.762275 0.05793
C_ C_ 0.217935 0.498309 0.745464 0.05793
C_ C_ 0.465068 0.500058 0.752985 0.05793
Br Br 0.0732449 -0.005144000000000037 0.76385 -0.17191
Br Br 0.320039 -0.012436000000000003 0.777452 -0.17191
Br Br 0.174501 0.495357 0.740418 -0.17191
Br Br 0.423844 0.502129 0.736889 -0.17191
N_ N_ 0.119747 0.74774 0.860387 -0.272
N_ N_ 0.375487 0.75288 0.863655 -0.272
N_ N_ 0.125674 0.762881 0.990437 -0.12501
N_ N_ 0.379125 0.742747 0.996102 -0.12501
N_ N_ 0.123035 0.742946 0.650133 -0.272
N_ N_ 0.375321 0.747539 0.652611 -0.272
N_ N_ 0.116219 0.732869 0.517052 -0.12501
N_ N_ 0.381476 0.765518 0.520537 -0.12501
O_ O_ 0.0891658 0.789616 0.71887 -0.60745
O_ O_ 0.341706 0.791168 0.726644 -0.60745
O_ O_ 0.0905029 0.790098 0.786877 -0.60745
O_ O_ 0.339166 0.788786 0.794788 -0.60745
O_ O_ 0.151904 0.795621 0.791344 -0.60745
O_ O_ 0.399399 0.797767 0.797381 -0.60745
O_ O_ 0.152178 0.790541 0.722294 -0.60745
O_ O_ 0.400728 0.794246 0.728061 -0.60745
O_ O_ 0.157935 0.706459 0.79201 -0.60745
O_ O_ 0.406442 0.708366 0.794081 -0.60745
O_ O_ 0.153297 0.706671 0.723373 -0.60745
O_ O_ 0.405663 0.707246 0.725707 -0.60745
O_ O_ 0.0905067 0.701881 0.717124 -0.60745
O_ O_ 0.343999 0.704365 0.719811 -0.60745
O_ O_ 0.093988 0.700696 0.783754 -0.60745
O_ O_ 0.343679 0.704139 0.787863 -0.60745
Zn Zn 0.633432 0.253157 0.278808 0.9476
Zn Zn 0.87308 0.249911 0.279573 0.9476
Zn Zn 0.628916 0.249992 0.208362 0.9476
Zn Zn 0.873593 0.250287 0.208607 0.9476
H_ H_ 0.538113 0.420398 0.17961 0.10932
H_ H_ 0.785576 0.416813 0.172064 0.10932
H_ H_ 0.573649 0.351316 0.307282 0.10932
H_ H_ 0.811974 0.355857 0.308693 0.10932
H_ H_ 0.561047 0.350403 0.173858 0.10932
H_ H_ 0.809687 0.353131 0.176055 0.10932
H_ H_ 0.546384 0.41913 0.310528 0.10932
H_ H_ 0.793806 0.429257 0.307094 0.10932
H_ H_ 0.728156 0.423474 0.306012 0.10932
H_ H_ 0.951598 0.426751 0.312246 0.10932
H_ H_ 0.685408 0.357698 0.178065 0.10932
H_ H_ 0.938164 0.347085 0.180062 0.10932
H_ H_ 0.698167 0.357059 0.312873 0.10932
H_ H_ 0.93593 0.354251 0.31499 0.10932
H_ H_ 0.722306 0.417515 0.175304 0.10932
H_ H_ 0.957555 0.419499 0.174056 0.10932
H_ H_ 0.713758 0.0836791 0.316945 0.10932
H_ H_ 0.981497 0.10609 0.313756 0.10932
H_ H_ 0.694512 0.15842 0.179911 0.10932
H_ H_ 0.939126 0.146473 0.174913 0.10932
H_ H_ 0.695247 0.155779 0.315429 0.10932
H_ H_ 0.944875 0.162569 0.307407 0.10932
H_ H_ 0.719826 0.0887242 0.178587 0.10932
H_ H_ 0.96377 0.0771427 0.183585 0.10932
H_ H_ 0.544429 0.0767692 0.176976 0.10932
H_ H_ 0.784855 0.0842323 0.178254 0.10932
H_ H_ 0.585313 0.131702 0.309488 0.10932
H_ H_ 0.804844 0.15776 0.308744 0.10932
H_ H_ 0.574912 0.141641 0.176903 0.10932
H_ H_ 0.817041 0.145538 0.177163 0.10932
H_ H_ 0.539744 0.0824662 0.310509 0.10932
H_ H_ 0.774369 0.0953814 0.309873 0.10932
H_ H_ 0.585245 0.251559 0.354002 0.10932
H_ H_ 0.862621 0.185009 0.353701 0.10932
H_ H_ 0.679669 0.255406 0.347371 0.10932
H_ H_ 0.888871 0.311267 0.350424 0.10932
H_ H_ 0.685732 0.262552 0.430398 0.10932
H_ H_ 0.878634 0.319206 0.429542 0.10932
H_ H_ 0.589234 0.24665 0.431525 0.10932
H_ H_ 0.8607 0.186798 0.432361 0.10932
H_ H_ 0.642877 0.188379 0.126766 0.10932
H_ H_ 0.924342 0.241512 0.13756 0.10932
H_ H_ 0.622728 0.316193 0.138759 0.10932
H_ H_ 0.827753 0.248276 0.138348 0.10932
H_ H_ 0.616489 0.318229 0.059078 0.10932
H_ H_ 0.82684 0.240805 0.059631 0.10932
H_ H_ 0.648856 0.196576 0.0489776 0.10932
H_ H_ 0.923836 0.233667 0.0590181 0.10932
C_ C_ 0.569153 0.34581 0.241312 -0.02249
C_ C_ 0.816661 0.351496 0.242833 -0.02249
C_ C_ 0.517829 0.460731 0.246393 -0.02249
C_ C_ 0.768407 0.467188 0.240571 -0.02249
C_ C_ 0.539741 0.400813 0.207793 -0.11473
C_ C_ 0.792237 0.406305 0.203114 -0.11473
C_ C_ 0.563657 0.365206 0.280755 -0.11473
C_ C_ 0.809675 0.372052 0.279506 -0.11473
C_ C_ 0.557029 0.363734 0.204517 -0.11473
C_ C_ 0.805023 0.366329 0.205351 -0.11473
C_ C_ 0.533847 0.42032 0.246162 -0.02249
C_ C_ 0.786375 0.427968 0.240523 -0.02249
C_ C_ 0.591428 0.310123 0.239837 0.6875
C_ C_ 0.835957 0.313683 0.243201 0.6875
C_ C_ 0.545525 0.403 0.281574 -0.11473
C_ C_ 0.796616 0.410221 0.278024 -0.11473
C_ C_ 0.692395 0.348365 0.245427 -0.02249
C_ C_ 0.929857 0.347711 0.245732 -0.02249
C_ C_ 0.736657 0.465723 0.235092 -0.02249
C_ C_ 0.980506 0.463401 0.244945 -0.02249
C_ C_ 0.717682 0.408071 0.278066 -0.11473
C_ C_ 0.950959 0.408372 0.283562 -0.11473
C_ C_ 0.698235 0.366735 0.206048 -0.11473
C_ C_ 0.938498 0.36681 0.20773 -0.11473
C_ C_ 0.702744 0.37014 0.281328 -0.11473
C_ C_ 0.939372 0.368478 0.283315 -0.11473
C_ C_ 0.720318 0.426895 0.240065 -0.02249
C_ C_ 0.959903 0.426892 0.24544 -0.02249
C_ C_ 0.67236 0.31168 0.248167 0.6875
C_ C_ 0.911561 0.308898 0.245813 0.6875
C_ C_ 0.71446 0.4049 0.204426 -0.11473
C_ C_ 0.955305 0.403821 0.208088 -0.11473
C_ C_ 0.691676 0.159338 0.245937 -0.02249
C_ C_ 0.936923 0.157725 0.242606 -0.02249
C_ C_ 0.733485 0.0392737 0.246915 -0.02249
C_ C_ 0.986565 0.0424605 0.254343 -0.02249
C_ C_ 0.710273 0.099039 0.285709 -0.11473
C_ C_ 0.969017 0.110839 0.283509 -0.11473
C_ C_ 0.698058 0.141426 0.207495 -0.11473
C_ C_ 0.946182 0.135941 0.206905 -0.11473
C_ C_ 0.699998 0.141164 0.28518 -0.11473
C_ C_ 0.951378 0.147574 0.280354 -0.11473
C_ C_ 0.717958 0.0805823 0.2462 -0.02249
C_ C_ 0.971722 0.083655 0.249047 -0.02249
C_ C_ 0.673787 0.198018 0.247976 0.6875
C_ C_ 0.912175 0.190782 0.241847 0.6875
C_ C_ 0.712276 0.101768 0.208584 -0.11473
C_ C_ 0.961362 0.0982919 0.209441 -0.11473
C_ C_ 0.577318 0.147976 0.244629 -0.02249
C_ C_ 0.816081 0.154019 0.243333 -0.02249
C_ C_ 0.519027 0.0411589 0.243497 -0.02249
C_ C_ 0.765045 0.0390224 0.246405 -0.02249
C_ C_ 0.549443 0.093361 0.204635 -0.11473
C_ C_ 0.793491 0.0945425 0.205688 -0.11473
C_ C_ 0.571329 0.127595 0.281681 -0.11473
C_ C_ 0.803559 0.140183 0.279501 -0.11473
C_ C_ 0.570601 0.125694 0.206226 -0.11473
C_ C_ 0.809258 0.131084 0.205369 -0.11473
C_ C_ 0.537937 0.0797162 0.243169 -0.02249
C_ C_ 0.783649 0.0788761 0.244451 -0.02249
C_ C_ 0.596013 0.187307 0.243736 0.6875
C_ C_ 0.833103 0.192645 0.243223 0.6875
C_ C_ 0.547775 0.0979064 0.281989 -0.11473
C_ C_ 0.788239 0.10232 0.281997 -0.11473
C_ C_ 0.607419 0.249787 0.371406 0.17695
C_ C_ 0.869886 0.214294 0.370804 0.17695
C_ C_ 0.660741 0.257226 0.367005 0.17695
C_ C_ 0.882154 0.284412 0.370322 0.17695
C_ C_ 0.663796 0.258935 0.413199 -0.11473
C_ C_ 0.878604 0.288552 0.414631 -0.11473
C_ C_ 0.637478 0.25567 0.436462 0.23465
C_ C_ 0.871982 0.252313 0.438719 0.23465
C_ C_ 0.609773 0.24933 0.414604 -0.11473
C_ C_ 0.868468 0.214764 0.416315 -0.11473
C_ C_ 0.637021 0.217004 0.112552 0.17695
C_ C_ 0.902879 0.241394 0.120271 0.17695
C_ C_ 0.62527 0.288136 0.118615 0.17695
C_ C_ 0.849295 0.249043 0.11966 0.17695
C_ C_ 0.620876 0.289624 0.0756104 -0.11473
C_ C_ 0.848359 0.247145 0.0755855 -0.11473
C_ C_ 0.628237 0.256069 0.0494699 0.23465
C_ C_ 0.875067 0.241564 0.051759 0.23465
C_ C_ 0.638561 0.220737 0.0684278 -0.11473
C_ C_ 0.902731 0.2392 0.0749937 -0.11473
C_ C_ 0.534087 0.497674 0.254683 0.05793
C_ C_ 0.782403 0.50691 0.246606 0.05793
C_ C_ 0.716762 1.0016199 0.247073 0.05793
C_ C_ 0.969703 1.00676533 0.259997 0.05793
Br Br 0.577607 0.494439 0.254933 -0.17191
Br Br 0.824931 0.507471 0.256792 -0.17191
Br Br 0.675497 0.0056083 0.251527 -0.17191
Br Br 0.926991 0.010702 0.268203 -0.17191
N_ N_ 0.632462 0.255584 0.349494 -0.272
N_ N_ 0.876326 0.249253 0.349498 -0.272
N_ N_ 0.640501 0.259996 0.48252 -0.12501
N_ N_ 0.866575 0.257478 0.483654 -0.12501
N_ N_ 0.630476 0.250222 0.137363 -0.272
N_ N_ 0.876813 0.245624 0.139829 -0.272
N_ N_ 0.627424 0.263024 0.00532177 -0.12501
N_ N_ 0.874377 0.232911 0.00760361 -0.12501
O_ O_ 0.596388 0.293792 0.205006 -0.60745
O_ O_ 0.842158 0.294477 0.21072 -0.60745
O_ O_ 0.599394 0.292722 0.274277 -0.60745
O_ O_ 0.847021 0.300762 0.278458 -0.60745
O_ O_ 0.661987 0.301008 0.28333 -0.60745
O_ O_ 0.909461 0.289017 0.279248 -0.60745
O_ O_ 0.6619 0.294482 0.213932 -0.60745
O_ O_ 0.90333 0.293144 0.211746 -0.60745
O_ O_ 0.667229 0.213957 0.2817 -0.60745
O_ O_ 0.900125 0.202954 0.274636 -0.60745
O_ O_ 0.66412 0.214059 0.213517 -0.60745
O_ O_ 0.906878 0.210183 0.209206 -0.60745
O_ O_ 0.601521 0.205736 0.210342 -0.60745
O_ O_ 0.847125 0.203033 0.209833 -0.60745
O_ O_ 0.606909 0.201175 0.27869 -0.60745
O_ O_ 0.838022 0.213592 0.277158 -0.60745
Zn Zn 0.624569 0.246003 0.777091 0.9476
Zn Zn 0.87614 0.245809 0.781441 0.9476
Zn Zn 0.622546 0.250467 0.70837 0.9476
Zn Zn 0.875222 0.249905 0.710629 0.9476
H_ H_ 0.54306 0.435375 0.689828 0.10932
H_ H_ 0.782203 0.412204 0.679727 0.10932
H_ H_ 0.545622 0.327244 0.801261 0.10932
H_ H_ 0.812315 0.351726 0.814912 0.10932
H_ H_ 0.581632 0.376734 0.686345 0.10932
H_ H_ 0.816084 0.354777 0.681227 0.10932
H_ H_ 0.512592 0.388107 0.807625 0.10932
H_ H_ 0.788216 0.42253 0.812615 0.10932
H_ H_ 0.711812 0.422074 0.806651 0.10932
H_ H_ 0.974516 0.407933 0.807166 0.10932
H_ H_ 0.682891 0.35461 0.670597 0.10932
H_ H_ 0.937168 0.346204 0.677681 0.10932
H_ H_ 0.679212 0.355846 0.807719 0.10932
H_ H_ 0.942585 0.352993 0.811254 0.10932
H_ H_ 0.719358 0.408459 0.673116 0.10932
H_ H_ 0.958576 0.41573 0.672694 0.10932
H_ H_ 0.729572 0.0927362 0.806484 0.10932
H_ H_ 0.961823 0.0825073 0.818285 0.10932
H_ H_ 0.677069 0.138164 0.675867 0.10932
H_ H_ 0.932228 0.144207 0.68575 0.10932
H_ H_ 0.702886 0.158232 0.803759 0.10932
H_ H_ 0.9402 0.150966 0.822192 0.10932
H_ H_ 0.705085 0.0679895 0.678684 0.10932
H_ H_ 0.96723 0.0820995 0.685119 0.10932
H_ H_ 0.547491 0.0642887 0.685227 0.10932
H_ H_ 0.769094 0.0936532 0.68567 0.10932
H_ H_ 0.55624 0.153563 0.809265 0.10932
H_ H_ 0.833279 0.129539 0.811906 0.10932
H_ H_ 0.567035 0.131949 0.678023 0.10932
H_ H_ 0.79463 0.164888 0.689821 0.10932
H_ H_ 0.52794 0.086142 0.814151 0.10932
H_ H_ 0.796939 0.0714358 0.813633 0.10932
H_ H_ 0.625388 0.305592 0.854628 0.10932
H_ H_ 0.926025 0.257114 0.847715 0.10932
H_ H_ 0.634998 0.174835 0.848146 0.10932
H_ H_ 0.835371 0.230779 0.858794 0.10932
H_ H_ 0.635043 0.171801 0.925377 0.10932
H_ H_ 0.838123 0.232287 0.93631 0.10932
H_ H_ 0.630755 0.30442 0.92948 0.10932
H_ H_ 0.931155 0.26551 0.92863 0.10932
H_ H_ 0.628416 0.316216 0.635884 0.10932
H_ H_ 0.869893 0.30899 0.628441 0.10932
H_ H_ 0.618856 0.187696 0.635888 0.10932
H_ H_ 0.868886 0.181519 0.645939 0.10932
H_ H_ 0.624687 0.185254 0.555922 0.10932
H_ H_ 0.869757 0.167318 0.566153 0.10932
H_ H_ 0.627167 0.316004 0.557756 0.10932
H_ H_ 0.863453 0.300594 0.549117 0.10932
C_ C_ 0.565044 0.346539 0.741839 -0.02249
C_ C_ 0.814582 0.347998 0.749276 -0.02249
C_ C_ 0.512574 0.461805 0.7583 -0.02249
C_ C_ 0.764316 0.462758 0.743308 -0.02249
C_ C_ 0.547367 0.414035 0.715807 -0.11473
C_ C_ 0.788824 0.400427 0.709036 -0.11473
C_ C_ 0.547458 0.351872 0.77738 -0.11473
C_ C_ 0.807845 0.368863 0.787267 -0.11473
C_ C_ 0.564773 0.378413 0.711487 -0.11473
C_ C_ 0.807252 0.36555 0.711049 -0.11473
C_ C_ 0.530791 0.421309 0.752513 -0.02249
C_ C_ 0.780966 0.422067 0.746587 -0.02249
C_ C_ 0.586454 0.310697 0.74088 0.6875
C_ C_ 0.835509 0.309659 0.748062 0.6875
C_ C_ 0.530136 0.389095 0.78386 -0.11473
C_ C_ 0.793208 0.406839 0.784879 -0.11473
C_ C_ 0.68004 0.348796 0.739801 -0.02249
C_ C_ 0.934344 0.346465 0.742331 -0.02249
C_ C_ 0.732826 0.461919 0.738233 -0.02249
C_ C_ 0.983156 0.459326 0.740402 -0.02249
C_ C_ 0.706398 0.405242 0.778934 -0.11473
C_ C_ 0.961066 0.402302 0.77827 -0.11473
C_ C_ 0.691162 0.365114 0.702751 -0.11473
C_ C_ 0.943846 0.363351 0.705599 -0.11473
C_ C_ 0.688345 0.367819 0.777991 -0.11473
C_ C_ 0.942537 0.368297 0.780649 -0.11473
C_ C_ 0.716513 0.422609 0.74088 -0.02249
C_ C_ 0.967346 0.420191 0.740593 -0.02249
C_ C_ 0.662588 0.30901 0.740003 0.6875
C_ C_ 0.916082 0.307709 0.744089 0.6875
C_ C_ 0.707545 0.402909 0.70288 -0.11473
C_ C_ 0.958667 0.400559 0.702748 -0.11473
C_ C_ 0.682547 0.149717 0.742826 -0.02249
C_ C_ 0.932695 0.15174 0.752407 -0.02249
C_ C_ 0.732534 0.0377421 0.742951 -0.02249
C_ C_ 0.982753 0.0369226 0.756183 -0.02249
C_ C_ 0.715363 0.099951 0.778896 -0.11473
C_ C_ 0.961231 0.0983762 0.790702 -0.11473
C_ C_ 0.687242 0.127583 0.705302 -0.11473
C_ C_ 0.93913 0.129839 0.714303 -0.11473
C_ C_ 0.699453 0.13745 0.777651 -0.11473
C_ C_ 0.944578 0.136772 0.790673 -0.11473
C_ C_ 0.715842 0.0756392 0.743417 -0.02249
C_ C_ 0.966551 0.0781522 0.75255 -0.02249
C_ C_ 0.66404 0.188428 0.74196 0.6875
C_ C_ 0.914747 0.18964 0.749029 0.6875
C_ C_ 0.701306 0.0870989 0.70667 -0.11473
C_ C_ 0.958598 0.0951559 0.713689 -0.11473
C_ C_ 0.56434 0.147933 0.744219 -0.02249
C_ C_ 0.815823 0.152336 0.752053 -0.02249
C_ C_ 0.513809 0.0343827 0.75193 -0.02249
C_ C_ 0.764715 0.0372072 0.744262 -0.02249
C_ C_ 0.545752 0.0858701 0.712042 -0.11473
C_ C_ 0.779748 0.105709 0.713838 -0.11473
C_ C_ 0.550686 0.135228 0.781666 -0.11473
C_ C_ 0.817903 0.122583 0.784578 -0.11473
C_ C_ 0.56074 0.122707 0.709376 -0.11473
C_ C_ 0.796473 0.14256 0.715827 -0.11473
C_ C_ 0.530352 0.0738725 0.748221 -0.02249
C_ C_ 0.781871 0.0774293 0.747173 -0.02249
C_ C_ 0.583521 0.185304 0.742506 0.6875
C_ C_ 0.836124 0.189088 0.751399 0.6875
C_ C_ 0.53262 0.0995633 0.78333 -0.11473
C_ C_ 0.800297 0.0868412 0.783531 -0.11473
C_ C_ 0.62538 0.275504 0.870249 0.17695
C_ C_ 0.907706 0.254386 0.868001 0.17695
C_ C_ 0.63055 0.202846 0.866899 0.17695
C_ C_ 0.856144 0.237764 0.873748 0.17695
C_ C_ 0.631742 0.200629 0.911075 -0.11473
C_ C_ 0.858309 0.239177 0.918006 -0.11473
C_ C_ 0.630927 0.237467 0.936112 0.23465
C_ C_ 0.885644 0.251083 0.937785 0.23465
C_ C_ 0.627938 0.274584 0.914499 -0.11473
C_ C_ 0.910145 0.258249 0.912581 -0.11473
C_ C_ 0.625572 0.286669 0.618622 0.17695
C_ C_ 0.868432 0.278619 0.614403 0.17695
C_ C_ 0.623161 0.213823 0.618763 0.17695
C_ C_ 0.868621 0.206096 0.623173 0.17695
C_ C_ 0.62355 0.21344 0.575252 -0.11473
C_ C_ 0.867712 0.198795 0.579432 -0.11473
C_ C_ 0.625223 0.249133 0.552984 0.23465
C_ C_ 0.869863 0.233907 0.551804 0.23465
C_ C_ 0.626291 0.286871 0.575015 -0.11473
C_ C_ 0.864559 0.273489 0.569215 -0.11473
C_ C_ 0.52879 0.499684 0.76784 0.05793
C_ C_ 0.779485 0.500387 0.751273 0.05793
C_ C_ 0.717658 -0.0009569999999999856 0.746057 0.05793
C_ C_ 0.967181 -0.0007230000000000292 0.761479 0.05793
Br Br 0.569318 0.501261 0.791451 -0.17191
Br Br 0.821976 0.500516 0.767563 -0.17191
Br Br 0.673474 -0.002605999999999997 0.757802 -0.17191
Br Br 0.924062 -0.0007310000000000372 0.751633 -0.17191
N_ N_ 0.625658 0.240414 0.847424 -0.272
N_ N_ 0.880238 0.246188 0.851598 -0.272
N_ N_ 0.636678 0.23573 0.979639 -0.12501
N_ N_ 0.887488 0.256794 0.981955 -0.12501
N_ N_ 0.62465 0.250356 0.6393 -0.272
N_ N_ 0.869597 0.244748 0.639261 -0.272
N_ N_ 0.621392 0.248076 0.508687 -0.12501
N_ N_ 0.866703 0.227689 0.50806 -0.12501
O_ O_ 0.591946 0.293713 0.705963 -0.60745
O_ O_ 0.844391 0.296078 0.714581 -0.60745
O_ O_ 0.591854 0.289887 0.775612 -0.60745
O_ O_ 0.841666 0.289798 0.781536 -0.60745
O_ O_ 0.654816 0.292994 0.774742 -0.60745
O_ O_ 0.907378 0.293707 0.779115 -0.60745
O_ O_ 0.65609 0.291635 0.705873 -0.60745
O_ O_ 0.906913 0.290793 0.709044 -0.60745
O_ O_ 0.655569 0.203593 0.777094 -0.60745
O_ O_ 0.906274 0.205667 0.782135 -0.60745
O_ O_ 0.655093 0.204753 0.707039 -0.60745
O_ O_ 0.905157 0.20338 0.71263 -0.60745
O_ O_ 0.589961 0.202125 0.706235 -0.60745
O_ O_ 0.841264 0.208003 0.717553 -0.60745
O_ O_ 0.593149 0.203304 0.775555 -0.60745
O_ O_ 0.847659 0.200817 0.786276 -0.60745
Zn Zn 0.627537 0.753866 0.283786 0.9476
Zn Zn 0.871477 0.75461 0.283698 0.9476
Zn Zn 0.621117 0.752493 0.21441 0.9476
Zn Zn 0.877599 0.752269 0.213884 0.9476
H_ H_ 0.530129 0.921486 0.184052 0.10932
H_ H_ 0.795826 0.9228 0.174221 0.10932
H_ H_ 0.570337 0.863112 0.317326 0.10932
H_ H_ 0.80846 0.856495 0.311269 0.10932
H_ H_ 0.557247 0.854763 0.179145 0.10932
H_ H_ 0.820759 0.858393 0.176102 0.10932
H_ H_ 0.534731 0.919665 0.323199 0.10932
H_ H_ 0.780728 0.919776 0.305533 0.10932
H_ H_ 0.719078 0.920322 0.312768 0.10932
H_ H_ 0.976351 0.907987 0.316959 0.10932
H_ H_ 0.683295 0.848494 0.181686 0.10932
H_ H_ 0.912102 0.882317 0.191698 0.10932
H_ H_ 0.685003 0.860043 0.31558 0.10932
H_ H_ 0.951956 0.837615 0.305042 0.10932
H_ H_ 0.712198 0.916909 0.176683 0.10932
H_ H_ 0.945496 0.943841 0.191492 0.10932
H_ H_ 0.711555 0.577876 0.307519 0.10932
H_ H_ 0.957135 0.580758 0.313478 0.10932
H_ H_ 0.684537 0.657559 0.178619 0.10932
H_ H_ 0.938891 0.650359 0.180002 0.10932
H_ H_ 0.685877 0.643127 0.311301 0.10932
H_ H_ 0.929891 0.643188 0.311969 0.10932
H_ H_ 0.712091 0.590226 0.170726 0.10932
H_ H_ 0.969192 0.590692 0.179252 0.10932
H_ H_ 0.542944 0.569956 0.188514 0.10932
H_ H_ 0.796565 0.577919 0.182175 0.10932
H_ H_ 0.559668 0.651964 0.317561 0.10932
H_ H_ 0.80506 0.65502 0.317234 0.10932
H_ H_ 0.573495 0.643282 0.185393 0.10932
H_ H_ 0.822458 0.646114 0.183314 0.10932
H_ H_ 0.535098 0.585881 0.320478 0.10932
H_ H_ 0.770188 0.595417 0.311834 0.10932
H_ H_ 0.620988 0.686233 0.361755 0.10932
H_ H_ 0.867219 0.819258 0.365162 0.10932
H_ H_ 0.629537 0.81685 0.357703 0.10932
H_ H_ 0.879226 0.69019 0.354284 0.10932
H_ H_ 0.638106 0.822184 0.431808 0.10932
H_ H_ 0.870244 0.682751 0.428186 0.10932
H_ H_ 0.634607 0.687476 0.440324 0.10932
H_ H_ 0.869643 0.816064 0.442376 0.10932
H_ H_ 0.640115 0.692197 0.142265 0.10932
H_ H_ 0.864482 0.685865 0.148075 0.10932
H_ H_ 0.613839 0.816424 0.139605 0.10932
H_ H_ 0.891327 0.807792 0.133053 0.10932
H_ H_ 0.619062 0.818277 0.0628052 0.10932
H_ H_ 0.886014 0.806971 0.0557008 0.10932
H_ H_ 0.623135 0.684384 0.0674748 0.10932
H_ H_ 0.855123 0.681008 0.0742281 0.10932
C_ C_ 0.566259 0.851308 0.249224 -0.02249
C_ C_ 0.816638 0.850976 0.243009 -0.02249
C_ C_ 0.51618 0.966569 0.255044 -0.02249
C_ C_ 0.764475 0.96431 0.240411 -0.02249
C_ C_ 0.538922 0.907634 0.214458 -0.11473
C_ C_ 0.793878 0.905363 0.203015 -0.11473
C_ C_ 0.56073 0.872584 0.28829 -0.11473
C_ C_ 0.805018 0.869128 0.279937 -0.11473
C_ C_ 0.554675 0.870719 0.212375 -0.11473
C_ C_ 0.811339 0.870195 0.204982 -0.11473
C_ C_ 0.529925 0.92446 0.254332 -0.02249
C_ C_ 0.781006 0.924162 0.238824 -0.02249
C_ C_ 0.58463 0.812668 0.248187 0.6875
C_ C_ 0.835876 0.813788 0.246815 0.6875
C_ C_ 0.539902 0.906273 0.291199 -0.11473
C_ C_ 0.787778 0.905224 0.277206 -0.11473
C_ C_ 0.685202 0.849122 0.248768 -0.02249
C_ C_ 0.929923 0.856361 0.24875 -0.02249
C_ C_ 0.733361 0.96339 0.240428 -0.02249
C_ C_ 0.985072 0.967413 0.256215 -0.02249
C_ C_ 0.708893 0.908442 0.283166 -0.11473
C_ C_ 0.96194 0.902922 0.288702 -0.11473
C_ C_ 0.693841 0.865274 0.209991 -0.11473
C_ C_ 0.928783 0.886551 0.216916 -0.11473
C_ C_ 0.691452 0.87337 0.285434 -0.11473
C_ C_ 0.946298 0.864475 0.286526 -0.11473
C_ C_ 0.716475 0.924538 0.243841 -0.02249
C_ C_ 0.965271 0.929635 0.253706 -0.02249
C_ C_ 0.666677 0.81174 0.250104 0.6875
C_ C_ 0.909715 0.818363 0.244783 0.6875
C_ C_ 0.709348 0.902348 0.206633 -0.11473
C_ C_ 0.947657 0.92076 0.216888 -0.11473
C_ C_ 0.685956 0.65778 0.246171 -0.02249
C_ C_ 0.934899 0.656101 0.246828 -0.02249
C_ C_ 0.734289 0.541297 0.238305 -0.02249
C_ C_ 0.984546 0.538561 0.251149 -0.02249
C_ C_ 0.70886 0.596169 0.278674 -0.11473
C_ C_ 0.955513 0.594102 0.284535 -0.11473
C_ C_ 0.694005 0.640595 0.206779 -0.11473
C_ C_ 0.945645 0.638202 0.210302 -0.11473
C_ C_ 0.692243 0.632245 0.280978 -0.11473
C_ C_ 0.940056 0.632439 0.282921 -0.11473
C_ C_ 0.716776 0.581478 0.239035 -0.02249
C_ C_ 0.970931 0.580596 0.249671 -0.02249
C_ C_ 0.665791 0.693348 0.249521 0.6875
C_ C_ 0.915424 0.695103 0.246178 0.6875
C_ C_ 0.707214 0.601562 0.202005 -0.11473
C_ C_ 0.963903 0.602491 0.210935 -0.11473
C_ C_ 0.565665 0.654504 0.248904 -0.02249
C_ C_ 0.813033 0.657439 0.249194 -0.02249
C_ C_ 0.518805 0.536628 0.258232 -0.02249
C_ C_ 0.764982 0.543223 0.246797 -0.02249
C_ C_ 0.546727 0.590212 0.216086 -0.11473
C_ C_ 0.794171 0.596907 0.210921 -0.11473
C_ C_ 0.557309 0.635691 0.289103 -0.11473
C_ C_ 0.801404 0.639492 0.286157 -0.11473
C_ C_ 0.56158 0.629875 0.212255 -0.11473
C_ C_ 0.809199 0.634387 0.211193 -0.11473
C_ C_ 0.534383 0.575911 0.254058 -0.02249
C_ C_ 0.781338 0.581662 0.247134 -0.02249
C_ C_ 0.582373 0.695834 0.246706 0.6875
C_ C_ 0.832407 0.696356 0.252262 0.6875
C_ C_ 0.542832 0.597359 0.290039 -0.11473
C_ C_ 0.783099 0.60456 0.284011 -0.11473
C_ C_ 0.62696 0.715346 0.377758 0.17695
C_ C_ 0.872308 0.789298 0.378714 0.17695
C_ C_ 0.6307 0.786952 0.375004 0.17695
C_ C_ 0.875934 0.717889 0.373435 0.17695
C_ C_ 0.633927 0.790263 0.417962 -0.11473
C_ C_ 0.876405 0.713913 0.417215 -0.11473
C_ C_ 0.634446 0.754469 0.443844 0.23465
C_ C_ 0.875205 0.749019 0.44353 0.23465
C_ C_ 0.63138 0.715801 0.422213 -0.11473
C_ C_ 0.874583 0.788537 0.423974 -0.11473
C_ C_ 0.633061 0.718679 0.124468 0.17695
C_ C_ 0.868011 0.712424 0.127999 0.17695
C_ C_ 0.62051 0.788574 0.123449 0.17695
C_ C_ 0.882083 0.782008 0.12033 0.17695
C_ C_ 0.617393 0.788909 0.0792852 -0.11473
C_ C_ 0.880418 0.779561 0.0751186 -0.11473
C_ C_ 0.621603 0.751097 0.0590134 0.23465
C_ C_ 0.870973 0.743136 0.0571175 0.23465
C_ C_ 0.625684 0.715295 0.0827759 -0.11473
C_ C_ 0.863716 0.709416 0.0841435 -0.11473
C_ C_ 0.533705 1.00101581 0.245352 0.05793
C_ C_ 0.780107 1.000595956 0.24721 0.05793
C_ C_ 0.719309 0.502615 0.23494 0.05793
C_ C_ 0.966241 0.502529 0.243923 0.05793
Br Br 0.576799 0.996082 0.246198 -0.17191
Br Br 0.822998 0.999472 0.259277 -0.17191
Br Br 0.675132 0.501664 0.237055 -0.17191
Br Br 0.925195 0.503681 0.223276 -0.17191
N_ N_ 0.627807 0.749802 0.354943 -0.272
N_ N_ 0.87707 0.755245 0.355262 -0.272
N_ N_ 0.633992 0.759426 0.488941 -0.12501
N_ N_ 0.869714 0.742945 0.488044 -0.12501
N_ N_ 0.62875 0.754788 0.144782 -0.272
N_ N_ 0.872969 0.750076 0.144443 -0.272
N_ N_ 0.613467 0.748991 0.01523 -0.12501
N_ N_ 0.865223 0.742019 0.0133787 -0.12501
O_ O_ 0.58864 0.794168 0.213641 -0.60745
O_ O_ 0.844828 0.796257 0.213892 -0.60745
O_ O_ 0.597014 0.799268 0.281216 -0.60745
O_ O_ 0.842574 0.799185 0.282619 -0.60745
O_ O_ 0.661526 0.795835 0.284519 -0.60745
O_ O_ 0.902703 0.79743 0.277964 -0.60745
O_ O_ 0.64946 0.802149 0.218498 -0.60745
O_ O_ 0.904065 0.802028 0.209893 -0.60745
O_ O_ 0.657209 0.70622 0.284107 -0.60745
O_ O_ 0.902623 0.707097 0.280173 -0.60745
O_ O_ 0.6562 0.709802 0.216505 -0.60745
O_ O_ 0.911548 0.713863 0.213028 -0.60745
O_ O_ 0.591027 0.710315 0.21264 -0.60745
O_ O_ 0.848439 0.707933 0.22054 -0.60745
O_ O_ 0.592382 0.71061 0.281044 -0.60745
O_ O_ 0.837875 0.712696 0.286885 -0.60745
Zn Zn 0.623374 0.745941 0.788112 0.9476
Zn Zn 0.877167 0.748991 0.787004 0.9476
Zn Zn 0.620285 0.744841 0.714797 0.9476
Zn Zn 0.874602 0.747896 0.716418 0.9476
H_ H_ 0.534891 0.918072 0.689665 0.10932
H_ H_ 0.769973 0.90042 0.686642 0.10932
H_ H_ 0.553877 0.841255 0.822786 0.10932
H_ H_ 0.82554 0.870493 0.819738 0.10932
H_ H_ 0.566363 0.854813 0.69021 0.10932
H_ H_ 0.801429 0.838318 0.689635 0.10932
H_ H_ 0.523084 0.902424 0.824325 0.10932
H_ H_ 0.795228 0.931572 0.811653 0.10932
H_ H_ 0.725147 0.912558 0.806433 0.10932
H_ H_ 0.968242 0.907089 0.826693 0.10932
H_ H_ 0.66752 0.860547 0.681906 0.10932
H_ H_ 0.925746 0.862058 0.689782 0.10932
H_ H_ 0.685742 0.855283 0.816906 0.10932
H_ H_ 0.947961 0.838844 0.81949 0.10932
H_ H_ 0.700483 0.921216 0.676665 0.10932
H_ H_ 0.951013 0.931583 0.694958 0.10932
H_ H_ 0.711001 0.576238 0.811653 0.10932
H_ H_ 0.941615 0.559188 0.79531 0.10932
H_ H_ 0.685464 0.65167 0.683179 0.10932
H_ H_ 0.959249 0.667376 0.691477 0.10932
H_ H_ 0.676347 0.637405 0.815652 0.10932
H_ H_ 0.91752 0.629461 0.800226 0.10932
H_ H_ 0.711062 0.583686 0.678327 0.10932
H_ H_ 0.981644 0.599409 0.682829 0.10932
H_ H_ 0.548908 0.562002 0.697451 0.10932
H_ H_ 0.793408 0.567957 0.684516 0.10932
H_ H_ 0.554673 0.656148 0.821459 0.10932
H_ H_ 0.794718 0.664807 0.808646 0.10932
H_ H_ 0.575945 0.625189 0.691696 0.10932
H_ H_ 0.830487 0.628893 0.68923 0.10932
H_ H_ 0.518716 0.599397 0.821203 0.10932
H_ H_ 0.770611 0.596078 0.813379 0.10932
H_ H_ 0.609969 0.686821 0.870919 0.10932
H_ H_ 0.861556 0.686059 0.866467 0.10932
H_ H_ 0.632319 0.810681 0.854562 0.10932
H_ H_ 0.887308 0.812403 0.854679 0.10932
H_ H_ 0.633984 0.82378 0.929802 0.10932
H_ H_ 0.894334 0.81537 0.932737 0.10932
H_ H_ 0.613429 0.693646 0.946828 0.10932
H_ H_ 0.863115 0.69057 0.942583 0.10932
H_ H_ 0.628216 0.672684 0.645918 0.10932
H_ H_ 0.861077 0.81557 0.65215 0.10932
H_ H_ 0.614128 0.799073 0.639383 0.10932
H_ H_ 0.890938 0.695984 0.635696 0.10932
H_ H_ 0.622009 0.797387 0.558779 0.10932
H_ H_ 0.884949 0.702317 0.557353 0.10932
H_ H_ 0.638115 0.667118 0.56878 0.10932
H_ H_ 0.849522 0.823744 0.573365 0.10932
C_ C_ 0.562875 0.843023 0.755428 -0.02249
C_ C_ 0.816691 0.84822 0.755543 -0.02249
C_ C_ 0.51317 0.959056 0.758543 -0.02249
C_ C_ 0.76485 0.961447 0.741447 -0.02249
C_ C_ 0.542624 0.905864 0.719681 -0.11473
C_ C_ 0.782508 0.89429 0.713259 -0.11473
C_ C_ 0.552332 0.859654 0.793555 -0.11473
C_ C_ 0.813985 0.874287 0.789797 -0.11473
C_ C_ 0.557815 0.867247 0.719271 -0.11473
C_ C_ 0.798149 0.856232 0.718351 -0.11473
C_ C_ 0.528425 0.918011 0.757311 -0.02249
C_ C_ 0.782111 0.922193 0.746924 -0.02249
C_ C_ 0.579662 0.802025 0.754037 0.6875
C_ C_ 0.837793 0.812927 0.756271 0.6875
C_ C_ 0.533851 0.895103 0.794249 -0.11473
C_ C_ 0.796361 0.910694 0.78559 -0.11473
C_ C_ 0.676042 0.852037 0.749634 -0.02249
C_ C_ 0.933987 0.846182 0.754487 -0.02249
C_ C_ 0.732955 0.961061 0.739326 -0.02249
C_ C_ 0.980971 0.960259 0.761871 -0.02249
C_ C_ 0.709345 0.902393 0.780057 -0.11473
C_ C_ 0.962915 0.896287 0.795309 -0.11473
C_ C_ 0.67987 0.872668 0.710588 -0.11473
C_ C_ 0.937826 0.870786 0.71803 -0.11473
C_ C_ 0.690818 0.867667 0.786509 -0.11473
C_ C_ 0.948547 0.857759 0.791302 -0.11473
C_ C_ 0.715182 0.921534 0.74138 -0.02249
C_ C_ 0.962359 0.923938 0.76154 -0.02249
C_ C_ 0.656979 0.813374 0.752297 0.6875
C_ C_ 0.916041 0.808099 0.75304 0.6875
C_ C_ 0.699653 0.905576 0.706894 -0.11473
C_ C_ 0.951698 0.909109 0.721752 -0.11473
C_ C_ 0.685917 0.654461 0.750181 -0.02249
C_ C_ 0.934412 0.651128 0.742532 -0.02249
C_ C_ 0.73169 0.538103 0.745124 -0.02249
C_ C_ 0.984528 0.535096 0.741875 -0.02249
C_ C_ 0.703728 0.590799 0.784035 -0.11473
C_ C_ 0.944717 0.58315 0.77124 -0.11473
C_ C_ 0.695419 0.637772 0.71172 -0.11473
C_ C_ 0.952902 0.641093 0.709681 -0.11473
C_ C_ 0.689327 0.629532 0.785559 -0.11473
C_ C_ 0.930565 0.62176 0.774565 -0.11473
C_ C_ 0.714053 0.575178 0.745217 -0.02249
C_ C_ 0.96634 0.576222 0.740494 -0.02249
C_ C_ 0.663809 0.690161 0.750158 0.6875
C_ C_ 0.917539 0.691227 0.74748 0.6875
C_ C_ 0.71112 0.599439 0.709733 -0.11473
C_ C_ 0.968824 0.606113 0.708602 -0.11473
C_ C_ 0.566232 0.648818 0.755471 -0.02249
C_ C_ 0.816616 0.653467 0.74799 -0.02249
C_ C_ 0.512289 0.537286 0.762977 -0.02249
C_ C_ 0.763489 0.539449 0.748307 -0.02249
C_ C_ 0.546039 0.584909 0.723631 -0.11473
C_ C_ 0.795913 0.590515 0.711875 -0.11473
C_ C_ 0.549145 0.639823 0.791172 -0.11473
C_ C_ 0.797446 0.645021 0.780998 -0.11473
C_ C_ 0.563775 0.621098 0.72177 -0.11473
C_ C_ 0.815156 0.624899 0.713236 -0.11473
C_ C_ 0.529212 0.577437 0.759806 -0.02249
C_ C_ 0.780814 0.579388 0.747671 -0.02249
C_ C_ 0.586726 0.685022 0.752632 0.6875
C_ C_ 0.838401 0.687716 0.75133 0.6875
C_ C_ 0.529174 0.606731 0.792258 -0.11473
C_ C_ 0.783922 0.603889 0.784319 -0.11473
C_ C_ 0.614632 0.716558 0.883974 0.17695
C_ C_ 0.865787 0.715839 0.880737 0.17695
C_ C_ 0.631268 0.784876 0.874718 0.17695
C_ C_ 0.883737 0.785012 0.875608 0.17695
C_ C_ 0.631298 0.791961 0.917872 -0.11473
C_ C_ 0.887111 0.788688 0.919531 -0.11473
C_ C_ 0.626539 0.758194 0.945296 0.23465
C_ C_ 0.877482 0.754885 0.943325 0.23465
C_ C_ 0.616382 0.720209 0.927505 -0.11473
C_ C_ 0.869028 0.718068 0.925081 -0.11473
C_ C_ 0.629377 0.699586 0.625851 0.17695
C_ C_ 0.862276 0.789826 0.630664 0.17695
C_ C_ 0.620331 0.771597 0.622522 0.17695
C_ C_ 0.882691 0.722874 0.62139 0.17695
C_ C_ 0.627154 0.771506 0.578286 -0.11473
C_ C_ 0.88049 0.72686 0.577643 -0.11473
C_ C_ 0.632469 0.732495 0.557683 0.23465
C_ C_ 0.86957 0.76368 0.55995 0.23465
C_ C_ 0.634805 0.696881 0.582981 -0.11473
C_ C_ 0.858566 0.794462 0.586441 -0.11473
C_ C_ 0.53006 -0.0029240000000000377 0.755073 0.05793
C_ C_ 0.780485 -0.0012579999999999814 0.744599 0.05793
C_ C_ 0.716147 0.500097 0.739099 0.05793
C_ C_ 0.96877 0.498121 0.734663 0.05793
Br Br 0.572974 -0.00651999999999997 0.770457 -0.17191
Br Br 0.821862 0.998552 0.741859 -0.17191
Br Br 0.673926 0.498758 0.722471 -0.17191
Br Br 0.928636 0.498764 0.713562 -0.17191
N_ N_ 0.624432 0.7466 0.858478 -0.272
N_ N_ 0.8768 0.748319 0.858101 -0.272
N_ N_ 0.632092 0.760623 0.989409 -0.12501
N_ N_ 0.882398 0.758018 0.987431 -0.12501
N_ N_ 0.621763 0.736897 0.644677 -0.272
N_ N_ 0.874958 0.755209 0.645999 -0.272
N_ N_ 0.638766 0.730232 0.514338 -0.12501
N_ N_ 0.868766 0.771645 0.515642 -0.12501
O_ O_ 0.5882 0.787046 0.719487 -0.60745
O_ O_ 0.839832 0.789739 0.723886 -0.60745
O_ O_ 0.591697 0.79004 0.787212 -0.60745
O_ O_ 0.850601 0.800619 0.790226 -0.60745
O_ O_ 0.655367 0.791185 0.784482 -0.60745
O_ O_ 0.913177 0.786096 0.785358 -0.60745
O_ O_ 0.647509 0.797109 0.717803 -0.60745
O_ O_ 0.898276 0.800971 0.721022 -0.60745
O_ O_ 0.654488 0.702258 0.784724 -0.60745
O_ O_ 0.905647 0.699085 0.782643 -0.60745
O_ O_ 0.653943 0.70675 0.716816 -0.60745
O_ O_ 0.912714 0.714827 0.716176 -0.60745
O_ O_ 0.593943 0.698804 0.716713 -0.60745
O_ O_ 0.848993 0.699721 0.71825 -0.60745
O_ O_ 0.594376 0.703868 0.786069 -0.60745
O_ O_ 0.842162 0.708078 0.784434 -0.60745
