_cell_length_a 44.444
_cell_length_b 32.3360000049186
_cell_length_c 31.843999878906452
_cell_angle_alpha 89.99799923859553
_cell_angle_beta 91.13600050494348
_cell_angle_gamma 89.9990006550086
_symmetry_space_group_name_H-M         'P 1'
_symmetry_Int_Tables_number            1
loop_
_symmetry_equiv_pos_as_xyz
   'x, y, z'
                         
loop_
_atom_site_label
_atom_site_type_symbol
_atom_site_fract_x 
_atom_site_fract_y
_atom_site_fract_z
_atom_site_charge
Zn Zn 0.121831 0.247528 0.286863 0.9476
Zn Zn 0.375488 0.250561 0.291503 0.9476
Zn Zn 0.12231 0.247912 0.2155 0.9476
Zn Zn 0.374304 0.246011 0.222351 0.9476
H_ H_ 0.0273975 0.413622 0.186982 0.10932
H_ H_ 0.27896 0.41153 0.189181 0.10932
H_ H_ 0.0586597 0.346049 0.321713 0.10932
H_ H_ 0.317736 0.35272 0.322761 0.10932
H_ H_ 0.0534564 0.348903 0.186733 0.10932
H_ H_ 0.306351 0.345396 0.18887 0.10932
H_ H_ 0.0339971 0.415275 0.322428 0.10932
H_ H_ 0.284549 0.412248 0.323681 0.10932
H_ H_ 0.227266 0.396984 0.322336 0.10932
H_ H_ 0.477996 0.408866 0.318639 0.10932
H_ H_ 0.16917 0.36753 0.193319 0.10932
H_ H_ 0.422055 0.364805 0.190236 0.10932
H_ H_ 0.2023 0.328303 0.3128 0.10932
H_ H_ 0.442826 0.348368 0.321079 0.10932
H_ H_ 0.189755 0.435675 0.202789 0.10932
H_ H_ 0.456865 0.425089 0.18657 0.10932
H_ H_ 0.191921 0.0597032 0.304081 0.10932
H_ H_ 0.459635 0.0705678 0.315147 0.10932
H_ H_ 0.204974 0.15964 0.191559 0.10932
H_ H_ 0.443496 0.155567 0.188972 0.10932
H_ H_ 0.170238 0.127181 0.311591 0.10932
H_ H_ 0.436747 0.139536 0.321865 0.10932
H_ H_ 0.232708 0.0959476 0.189023 0.10932
H_ H_ 0.465095 0.0850136 0.181062 0.10932
H_ H_ 0.0462123 0.0653674 0.1834 0.10932
H_ H_ 0.293452 0.0677618 0.185865 0.10932
H_ H_ 0.0463791 0.14955 0.310973 0.10932
H_ H_ 0.304364 0.151128 0.316963 0.10932
H_ H_ 0.0736262 0.13303 0.185285 0.10932
H_ H_ 0.319174 0.137467 0.187309 0.10932
H_ H_ 0.0243556 0.0843756 0.313217 0.10932
H_ H_ 0.274829 0.0857965 0.316105 0.10932
H_ H_ 0.112957 0.190887 0.366321 0.10932
H_ H_ 0.406092 0.295876 0.365859 0.10932
H_ H_ 0.127665 0.319803 0.356495 0.10932
H_ H_ 0.345915 0.193844 0.363937 0.10932
H_ H_ 0.128522 0.326237 0.430621 0.10932
H_ H_ 0.344714 0.195725 0.442185 0.10932
H_ H_ 0.119182 0.196591 0.444328 0.10932
H_ H_ 0.408544 0.296678 0.440703 0.10932
H_ H_ 0.111436 0.314615 0.147927 0.10932
H_ H_ 0.366455 0.184776 0.153153 0.10932
H_ H_ 0.13715 0.188931 0.135561 0.10932
H_ H_ 0.384898 0.311128 0.13485 0.10932
H_ H_ 0.123903 0.190796 0.0581023 0.10932
H_ H_ 0.382226 0.305419 0.0617433 0.10932
H_ H_ 0.109668 0.321777 0.0708494 0.10932
H_ H_ 0.366175 0.175287 0.073798 0.10932
C_ C_ 0.0566524 0.339812 0.254432 -0.02249
C_ C_ 0.313352 0.342327 0.256027 -0.02249
C_ C_ 0.0121316 0.46229 0.256848 -0.02249
C_ C_ 0.264059 0.457955 0.258102 -0.02249
C_ C_ 0.033008 0.398725 0.217605 -0.11473
C_ C_ 0.288897 0.3986 0.218768 -0.11473
C_ C_ 0.0514995 0.359789 0.292438 -0.11473
C_ C_ 0.309948 0.365285 0.292436 -0.11473
C_ C_ 0.0472413 0.361286 0.217007 -0.11473
C_ C_ 0.304389 0.361661 0.217967 -0.11473
C_ C_ 0.0273518 0.420454 0.25639 -0.02249
C_ C_ 0.282268 0.419146 0.256215 -0.02249
C_ C_ 0.0763121 0.302228 0.253001 0.6875
C_ C_ 0.331637 0.304643 0.255953 0.6875
C_ C_ 0.0371132 0.3991 0.293125 -0.11473
C_ C_ 0.292485 0.400179 0.293853 -0.11473
C_ C_ 0.179891 0.345272 0.255138 -0.02249
C_ C_ 0.432744 0.348285 0.255669 -0.02249
C_ C_ 0.232803 0.457769 0.265535 -0.02249
C_ C_ 0.486046 0.459333 0.251825 -0.02249
C_ C_ 0.216888 0.389419 0.29161 -0.11473
C_ C_ 0.466994 0.397132 0.290198 -0.11473
C_ C_ 0.180916 0.374386 0.222228 -0.11473
C_ C_ 0.435958 0.370588 0.217915 -0.11473
C_ C_ 0.1999 0.351664 0.288761 -0.11473
C_ C_ 0.448325 0.362108 0.292281 -0.11473
C_ C_ 0.214541 0.41935 0.260509 -0.02249
C_ C_ 0.467762 0.4205 0.254273 -0.02249
C_ C_ 0.161389 0.306241 0.249884 0.6875
C_ C_ 0.411661 0.310002 0.255774 0.6875
C_ C_ 0.195139 0.412576 0.225165 -0.11473
C_ C_ 0.455387 0.405875 0.216134 -0.11473
C_ C_ 0.183026 0.150925 0.252235 -0.02249
C_ C_ 0.435257 0.150969 0.254143 -0.02249
C_ C_ 0.235001 0.0341727 0.24489 -0.02249
C_ C_ 0.483531 0.0351288 0.245356 -0.02249
C_ C_ 0.196511 0.0825652 0.279894 -0.11473
C_ C_ 0.455807 0.0895266 0.286954 -0.11473
C_ C_ 0.201979 0.139675 0.217234 -0.11473
C_ C_ 0.444159 0.134938 0.215543 -0.11473
C_ C_ 0.181673 0.121088 0.282529 -0.11473
C_ C_ 0.44097 0.12825 0.29016 -0.11473
C_ C_ 0.217303 0.0738011 0.249744 -0.02249
C_ C_ 0.465049 0.074341 0.247609 -0.02249
C_ C_ 0.162455 0.188075 0.250687 0.6875
C_ C_ 0.416356 0.189435 0.257527 0.6875
C_ C_ 0.220614 0.104049 0.2177 -0.11473
C_ C_ 0.459524 0.0965543 0.212008 -0.11473
C_ C_ 0.0655187 0.145188 0.251299 -0.02249
C_ C_ 0.316883 0.147333 0.253527 -0.02249
C_ C_ 0.0141858 0.0290386 0.246103 -0.02249
C_ C_ 0.266045 0.0328556 0.248868 -0.02249
C_ C_ 0.0480492 0.0822462 0.212961 -0.11473
C_ C_ 0.296187 0.0873847 0.214641 -0.11473
C_ C_ 0.0513571 0.129804 0.285388 -0.11473
C_ C_ 0.305407 0.131687 0.290577 -0.11473
C_ C_ 0.0654382 0.119432 0.214239 -0.11473
C_ C_ 0.312177 0.125262 0.216499 -0.11473
C_ C_ 0.0339317 0.0667757 0.248009 -0.02249
C_ C_ 0.283213 0.0718076 0.252166 -0.02249
C_ C_ 0.0843848 0.184095 0.254955 0.6875
C_ C_ 0.337797 0.184637 0.25478 0.6875
C_ C_ 0.0361523 0.0927118 0.284469 -0.11473
C_ C_ 0.287745 0.0950836 0.289822 -0.11473
C_ C_ 0.120472 0.219559 0.380454 0.17695
C_ C_ 0.391275 0.274106 0.380911 0.17695
C_ C_ 0.127878 0.291667 0.375047 0.17695
C_ C_ 0.357182 0.216904 0.381668 0.17695
C_ C_ 0.127822 0.295738 0.418124 -0.11473
C_ C_ 0.357242 0.217528 0.424721 -0.11473
C_ C_ 0.125946 0.262796 0.444057 0.23465
C_ C_ 0.375487 0.244829 0.44752 0.23465
C_ C_ 0.123052 0.223171 0.424712 -0.11473
C_ C_ 0.395302 0.271613 0.42562 -0.11473
C_ C_ 0.116874 0.288439 0.128504 0.17695
C_ C_ 0.36957 0.211007 0.132158 0.17695
C_ C_ 0.124823 0.216727 0.121975 0.17695
C_ C_ 0.376721 0.281947 0.123361 0.17695
C_ C_ 0.120552 0.219023 0.0775359 -0.11473
C_ C_ 0.37751 0.279197 0.0798457 -0.11473
C_ C_ 0.116905 0.25857 0.0578987 0.23465
C_ C_ 0.371839 0.239958 0.0616472 0.23465
C_ C_ 0.115225 0.292917 0.0845424 -0.11473
C_ C_ 0.366693 0.205821 0.0878103 -0.11473
C_ C_ 0.0282732 0.498636 0.258258 0.05793
C_ C_ 0.279047 0.495619 0.251901 0.05793
C_ C_ 0.219279 -0.003607000000000027 0.241114 0.05793
C_ C_ 0.467709 0.997842 0.241962 0.05793
Br Br 0.0709728 0.494996 0.261562 -0.17191
Br Br 0.320881 0.498228 0.237594 -0.17191
Br Br 0.177261 -0.0008089999999999486 0.230481 -0.17191
Br Br 0.425321 0.999153 0.234912 -0.17191
N_ N_ 0.125028 0.253696 0.356626 -0.272
N_ N_ 0.374848 0.245699 0.360811 -0.272
N_ N_ 0.132625 0.265226 0.487658 -0.12501
N_ N_ 0.378735 0.240408 0.493049 -0.12501
N_ N_ 0.119273 0.251367 0.146387 -0.272
N_ N_ 0.374905 0.247995 0.14948 -0.272
N_ N_ 0.116362 0.263387 0.0126511 -0.12501
N_ N_ 0.371803 0.235646 0.0169356 -0.12501
O_ O_ 0.0865697 0.290558 0.217407 -0.60745
O_ O_ 0.338675 0.285794 0.224259 -0.60745
O_ O_ 0.0888006 0.289504 0.28883 -0.60745
O_ O_ 0.346584 0.297293 0.28988 -0.60745
O_ O_ 0.151456 0.289185 0.282299 -0.60745
O_ O_ 0.411374 0.289297 0.288878 -0.60745
O_ O_ 0.152791 0.293317 0.214306 -0.60745
O_ O_ 0.401597 0.294371 0.221613 -0.60745
O_ O_ 0.155143 0.204544 0.285805 -0.60745
O_ O_ 0.405665 0.201271 0.292387 -0.60745
O_ O_ 0.158167 0.208635 0.216816 -0.60745
O_ O_ 0.406018 0.204774 0.224664 -0.60745
O_ O_ 0.0918847 0.202217 0.222118 -0.60745
O_ O_ 0.346255 0.2008 0.220443 -0.60745
O_ O_ 0.0928186 0.200419 0.29027 -0.60745
O_ O_ 0.345028 0.202056 0.289941 -0.60745
Zn Zn 0.127278 0.255175 0.788182 0.9476
Zn Zn 0.379596 0.255025 0.789307 0.9476
Zn Zn 0.1288 0.252098 0.716867 0.9476
Zn Zn 0.37528 0.253677 0.718956 0.9476
H_ H_ 0.0360424 0.413704 0.686318 0.10932
H_ H_ 0.297646 0.433773 0.688557 0.10932
H_ H_ 0.0817212 0.360685 0.821925 0.10932
H_ H_ 0.309531 0.34748 0.816915 0.10932
H_ H_ 0.0665801 0.347304 0.688228 0.10932
H_ H_ 0.324144 0.366774 0.682791 0.10932
H_ H_ 0.0473231 0.425015 0.819029 0.10932
H_ H_ 0.283377 0.411802 0.821172 0.10932
H_ H_ 0.223168 0.41405 0.823931 0.10932
H_ H_ 0.466333 0.42615 0.816648 0.10932
H_ H_ 0.186168 0.359533 0.687418 0.10932
H_ H_ 0.438242 0.354227 0.686522 0.10932
H_ H_ 0.191701 0.347972 0.822648 0.10932
H_ H_ 0.443949 0.356321 0.822134 0.10932
H_ H_ 0.214197 0.424824 0.691566 0.10932
H_ H_ 0.458719 0.426292 0.68287 0.10932
H_ H_ 0.224663 0.0948191 0.829031 0.10932
H_ H_ 0.475309 0.0913994 0.818776 0.10932
H_ H_ 0.1892 0.15087 0.688619 0.10932
H_ H_ 0.438769 0.156395 0.684254 0.10932
H_ H_ 0.19224 0.155191 0.823877 0.10932
H_ H_ 0.451342 0.161678 0.817339 0.10932
H_ H_ 0.217906 0.0827256 0.690118 0.10932
H_ H_ 0.464165 0.0869195 0.6852 0.10932
H_ H_ 0.0284146 0.0989293 0.679531 0.10932
H_ H_ 0.286028 0.0909537 0.685624 0.10932
H_ H_ 0.071768 0.14384 0.813051 0.10932
H_ H_ 0.320586 0.144481 0.824398 0.10932
H_ H_ 0.0583078 0.162603 0.680466 0.10932
H_ H_ 0.314728 0.154771 0.689209 0.10932
H_ H_ 0.0543482 0.0718904 0.804446 0.10932
H_ H_ 0.297882 0.074362 0.816929 0.10932
H_ H_ 0.105723 0.30694 0.863096 0.10932
H_ H_ 0.35829 0.316567 0.858602 0.10932
H_ H_ 0.143889 0.185542 0.857054 0.10932
H_ H_ 0.392319 0.194584 0.870373 0.10932
H_ H_ 0.137404 0.179259 0.934886 0.10932
H_ H_ 0.392331 0.200326 0.949202 0.10932
H_ H_ 0.0956969 0.298224 0.937089 0.10932
H_ H_ 0.355644 0.323395 0.934338 0.10932
H_ H_ 0.118355 0.190426 0.643266 0.10932
H_ H_ 0.375754 0.190874 0.642493 0.10932
H_ H_ 0.139984 0.315197 0.636635 0.10932
H_ H_ 0.372617 0.319118 0.652062 0.10932
H_ H_ 0.138064 0.311579 0.561197 0.10932
H_ H_ 0.377703 0.329847 0.574503 0.10932
H_ H_ 0.110706 0.184992 0.568146 0.10932
H_ H_ 0.379553 0.195383 0.565907 0.10932
C_ C_ 0.0753194 0.351359 0.755577 -0.02249
C_ C_ 0.321859 0.354198 0.751113 -0.02249
C_ C_ 0.0209039 0.463788 0.755074 -0.02249
C_ C_ 0.267626 0.464768 0.752176 -0.02249
C_ C_ 0.0434839 0.401573 0.716509 -0.11473
C_ C_ 0.301756 0.414961 0.715806 -0.11473
C_ C_ 0.0714029 0.375084 0.791875 -0.11473
C_ C_ 0.30799 0.366667 0.787201 -0.11473
C_ C_ 0.0610848 0.365246 0.71765 -0.11473
C_ C_ 0.31756 0.377708 0.713598 -0.11473
C_ C_ 0.039872 0.425875 0.754135 -0.02249
C_ C_ 0.284735 0.424572 0.752254 -0.02249
C_ C_ 0.0897522 0.311298 0.75583 0.6875
C_ C_ 0.338647 0.312778 0.750017 0.6875
C_ C_ 0.054726 0.412125 0.790109 -0.11473
C_ C_ 0.289879 0.401196 0.789593 -0.11473
C_ C_ 0.187171 0.348571 0.754651 -0.02249
C_ C_ 0.437978 0.35093 0.754167 -0.02249
C_ C_ 0.235972 0.464176 0.755916 -0.02249
C_ C_ 0.483813 0.470157 0.749158 -0.02249
C_ C_ 0.214207 0.401335 0.79489 -0.11473
C_ C_ 0.460141 0.411423 0.789037 -0.11473
C_ C_ 0.197378 0.366215 0.716695 -0.11473
C_ C_ 0.445063 0.369846 0.71432 -0.11473
C_ C_ 0.196109 0.364374 0.794718 -0.11473
C_ C_ 0.44513 0.372808 0.790366 -0.11473
C_ C_ 0.220391 0.423181 0.757753 -0.02249
C_ C_ 0.4656 0.430679 0.749768 -0.02249
C_ C_ 0.169338 0.309005 0.755011 0.6875
C_ C_ 0.417227 0.313967 0.75549 0.6875
C_ C_ 0.209348 0.408246 0.71858 -0.11473
C_ C_ 0.458388 0.409811 0.712463 -0.11473
C_ C_ 0.187211 0.156218 0.756819 -0.02249
C_ C_ 0.437616 0.159583 0.751886 -0.02249
C_ C_ 0.238527 0.0440859 0.760809 -0.02249
C_ C_ 0.484713 0.0437481 0.749387 -0.02249
C_ C_ 0.217019 0.108064 0.797379 -0.11473
C_ C_ 0.46601 0.104051 0.790107 -0.11473
C_ C_ 0.19375 0.13601 0.718568 -0.11473
C_ C_ 0.445493 0.140026 0.713048 -0.11473
C_ C_ 0.200186 0.143665 0.795406 -0.11473
C_ C_ 0.448205 0.140942 0.790894 -0.11473
C_ C_ 0.220319 0.0818237 0.759094 -0.02249
C_ C_ 0.469188 0.0841218 0.753044 -0.02249
C_ C_ 0.167008 0.192337 0.752992 0.6875
C_ C_ 0.41817 0.195116 0.752746 0.6875
C_ C_ 0.21097 0.0981038 0.719665 -0.11473
C_ C_ 0.457777 0.100571 0.714394 -0.11473
C_ C_ 0.0675397 0.15787 0.746491 -0.02249
C_ C_ 0.321237 0.154365 0.754847 -0.02249
C_ C_ 0.0221652 0.041512 0.739756 -0.02249
C_ C_ 0.269478 0.0429703 0.750229 -0.02249
C_ C_ 0.0399176 0.106541 0.706525 -0.11473
C_ C_ 0.291799 0.102304 0.715021 -0.11473
C_ C_ 0.0665711 0.131483 0.782052 -0.11473
C_ C_ 0.313893 0.132184 0.792527 -0.11473
C_ C_ 0.0528381 0.145107 0.70863 -0.11473
C_ C_ 0.310403 0.137496 0.71658 -0.11473
C_ C_ 0.0416539 0.0790593 0.74133 -0.02249
C_ C_ 0.287906 0.0800174 0.75094 -0.02249
C_ C_ 0.0873024 0.19783 0.748003 0.6875
C_ C_ 0.335885 0.1953 0.75606 0.6875
C_ C_ 0.0543898 0.0921804 0.778574 -0.11473
C_ C_ 0.299594 0.0935794 0.790104 -0.11473
C_ C_ 0.113606 0.279437 0.879635 0.17695
C_ C_ 0.361917 0.289314 0.876859 0.17695
C_ C_ 0.135101 0.212457 0.875158 0.17695
C_ C_ 0.38478 0.222336 0.886238 0.17695
C_ C_ 0.132305 0.208733 0.920088 -0.11473
C_ C_ 0.382891 0.225766 0.931282 -0.11473
C_ C_ 0.118175 0.240235 0.943246 0.23465
C_ C_ 0.369346 0.260873 0.950279 0.23465
C_ C_ 0.10526 0.2731 0.920926 -0.11473
C_ C_ 0.357789 0.29247 0.922106 -0.11473
C_ C_ 0.120332 0.215933 0.625027 0.17695
C_ C_ 0.374885 0.220667 0.625051 0.17695
C_ C_ 0.130959 0.288027 0.622018 0.17695
C_ C_ 0.376264 0.293385 0.632318 0.17695
C_ C_ 0.128931 0.286853 0.578833 -0.11473
C_ C_ 0.378041 0.297868 0.588564 -0.11473
C_ C_ 0.122618 0.249611 0.557933 0.23465
C_ C_ 0.379764 0.263436 0.562498 0.23465
C_ C_ 0.116392 0.214812 0.581571 -0.11473
C_ C_ 0.377413 0.223919 0.582563 -0.11473
C_ C_ 0.0346963 0.502319 0.750699 0.05793
C_ C_ 0.281319 0.502429 0.742812 0.05793
C_ C_ 0.221613 0.00538726 0.75914 0.05793
C_ C_ 0.467462 1.00588422 0.749058 0.05793
Br Br 0.077262 0.507398 0.740948 -0.17191
Br Br 0.324113 0.503804 0.748907 -0.17191
Br Br 0.178587 0.00604789 0.777129 -0.17191
Br Br 0.425719 1.00962857 0.752838 -0.17191
N_ N_ 0.126873 0.248948 0.856927 -0.272
N_ N_ 0.377801 0.256788 0.860698 -0.272
N_ N_ 0.11361 0.233693 0.988177 -0.12501
N_ N_ 0.367674 0.265745 0.993537 -0.12501
N_ N_ 0.126955 0.252417 0.64554 -0.272
N_ N_ 0.375271 0.254966 0.648682 -0.272
N_ N_ 0.118803 0.245095 0.514038 -0.12501
N_ N_ 0.381833 0.270308 0.518296 -0.12501
O_ O_ 0.103351 0.299258 0.72224 -0.60745
O_ O_ 0.342636 0.294252 0.715545 -0.60745
O_ O_ 0.0955684 0.292847 0.789791 -0.60745
O_ O_ 0.349176 0.297677 0.783839 -0.60745
O_ O_ 0.158045 0.297801 0.788398 -0.60745
O_ O_ 0.40796 0.300673 0.789368 -0.60745
O_ O_ 0.165979 0.288433 0.721972 -0.60745
O_ O_ 0.403412 0.301469 0.723159 -0.60745
O_ O_ 0.159927 0.21098 0.78797 -0.60745
O_ O_ 0.412914 0.212016 0.788408 -0.60745
O_ O_ 0.153082 0.200768 0.717217 -0.60745
O_ O_ 0.407479 0.213247 0.719947 -0.60745
O_ O_ 0.0931739 0.216194 0.713946 -0.60745
O_ O_ 0.346554 0.208892 0.721727 -0.60745
O_ O_ 0.0979094 0.211492 0.782594 -0.60745
O_ O_ 0.347887 0.208079 0.790682 -0.60745
Zn Zn 0.124723 0.753404 0.287946 0.9476
Zn Zn 0.375822 0.74372 0.280019 0.9476
Zn Zn 0.125868 0.744721 0.218382 0.9476
Zn Zn 0.374043 0.744213 0.209618 0.9476
H_ H_ 0.0426777 0.915414 0.180033 0.10932
H_ H_ 0.284754 0.914033 0.183213 0.10932
H_ H_ 0.0412105 0.833721 0.312475 0.10932
H_ H_ 0.306583 0.837046 0.31272 0.10932
H_ H_ 0.0773629 0.860441 0.18977 0.10932
H_ H_ 0.312694 0.846782 0.180401 0.10932
H_ H_ 0.0164824 0.903788 0.310849 0.10932
H_ H_ 0.288846 0.909307 0.320118 0.10932
H_ H_ 0.22628 0.913614 0.311232 0.10932
H_ H_ 0.452106 0.928041 0.307237 0.10932
H_ H_ 0.177088 0.857169 0.182931 0.10932
H_ H_ 0.431847 0.851946 0.175654 0.10932
H_ H_ 0.195405 0.849961 0.314538 0.10932
H_ H_ 0.429125 0.855924 0.311723 0.10932
H_ H_ 0.210361 0.915716 0.17996 0.10932
H_ H_ 0.468266 0.90825 0.175452 0.10932
H_ H_ 0.211596 0.581142 0.326357 0.10932
H_ H_ 0.462723 0.576729 0.307264 0.10932
H_ H_ 0.180982 0.637933 0.18995 0.10932
H_ H_ 0.440458 0.646047 0.174544 0.10932
H_ H_ 0.188732 0.648303 0.327298 0.10932
H_ H_ 0.435823 0.642386 0.306701 0.10932
H_ H_ 0.207721 0.578518 0.192009 0.10932
H_ H_ 0.473605 0.584582 0.174293 0.10932
H_ H_ 0.0501584 0.568784 0.195314 0.10932
H_ H_ 0.292609 0.566468 0.18382 0.10932
H_ H_ 0.0447268 0.667049 0.313786 0.10932
H_ H_ 0.316339 0.643755 0.310798 0.10932
H_ H_ 0.081208 0.627879 0.195489 0.10932
H_ H_ 0.318246 0.635539 0.177978 0.10932
H_ H_ 0.024191 0.596547 0.324249 0.10932
H_ H_ 0.282935 0.58525 0.313897 0.10932
H_ H_ 0.122724 0.814594 0.357068 0.10932
H_ H_ 0.356859 0.801084 0.353634 0.10932
H_ H_ 0.11871 0.683216 0.362855 0.10932
H_ H_ 0.382019 0.677395 0.347079 0.10932
H_ H_ 0.117131 0.689478 0.441557 0.10932
H_ H_ 0.377896 0.672046 0.426771 0.10932
H_ H_ 0.118099 0.818919 0.433622 0.10932
H_ H_ 0.361084 0.804697 0.430373 0.10932
H_ H_ 0.131093 0.682312 0.139911 0.10932
H_ H_ 0.371896 0.813573 0.142206 0.10932
H_ H_ 0.111192 0.808417 0.147953 0.10932
H_ H_ 0.372748 0.68618 0.12922 0.10932
H_ H_ 0.103115 0.812189 0.0696394 0.10932
H_ H_ 0.364697 0.695844 0.0495207 0.10932
H_ H_ 0.132966 0.686595 0.0613788 0.10932
H_ H_ 0.375543 0.826767 0.0622767 0.10932
C_ C_ 0.0624872 0.841497 0.248888 -0.02249
C_ C_ 0.314573 0.838702 0.247953 -0.02249
C_ C_ 0.0112066 0.952666 0.2441 -0.02249
C_ C_ 0.265919 0.956724 0.249685 -0.02249
C_ C_ 0.0420525 0.896887 0.208328 -0.11473
C_ C_ 0.292063 0.899978 0.212181 -0.11473
C_ C_ 0.0433654 0.852487 0.283773 -0.11473
C_ C_ 0.307487 0.857011 0.287212 -0.11473
C_ C_ 0.0601388 0.862444 0.211308 -0.11473
C_ C_ 0.307385 0.862186 0.210529 -0.11473
C_ C_ 0.0260526 0.910814 0.243154 -0.02249
C_ C_ 0.28363 0.917013 0.250743 -0.02249
C_ C_ 0.083527 0.806085 0.252679 0.6875
C_ C_ 0.336237 0.804036 0.245943 0.6875
C_ C_ 0.0277397 0.890388 0.281991 -0.11473
C_ C_ 0.293393 0.896967 0.288153 -0.11473
C_ C_ 0.185492 0.845404 0.251347 -0.02249
C_ C_ 0.4286 0.846442 0.243852 -0.02249
C_ C_ 0.235129 0.958452 0.243234 -0.02249
C_ C_ 0.48245 0.958924 0.241205 -0.02249
C_ C_ 0.214916 0.89971 0.283815 -0.11473
C_ C_ 0.450937 0.906898 0.279114 -0.11473
C_ C_ 0.189778 0.865609 0.2112 -0.11473
C_ C_ 0.439162 0.863382 0.204968 -0.11473
C_ C_ 0.198208 0.863239 0.286202 -0.11473
C_ C_ 0.436471 0.868269 0.281308 -0.11473
C_ C_ 0.218629 0.919291 0.245291 -0.02249
C_ C_ 0.464727 0.919126 0.242146 -0.02249
C_ C_ 0.166722 0.807256 0.25374 0.6875
C_ C_ 0.413787 0.803896 0.245715 0.6875
C_ C_ 0.206391 0.901373 0.209955 -0.11473
C_ C_ 0.459716 0.89677 0.20488 -0.11473
C_ C_ 0.182672 0.653493 0.257714 -0.02249
C_ C_ 0.437807 0.649069 0.240779 -0.02249
C_ C_ 0.232766 0.534206 0.260389 -0.02249
C_ C_ 0.485653 0.535255 0.244068 -0.02249
C_ C_ 0.207887 0.59799 0.297548 -0.11473
C_ C_ 0.46424 0.595407 0.279913 -0.11473
C_ C_ 0.187095 0.629277 0.222464 -0.11473
C_ C_ 0.44508 0.630367 0.203364 -0.11473
C_ C_ 0.192899 0.635563 0.295603 -0.11473
C_ C_ 0.446939 0.630117 0.278246 -0.11473
C_ C_ 0.215359 0.575636 0.260714 -0.02249
C_ C_ 0.471677 0.575447 0.241781 -0.02249
C_ C_ 0.168251 0.694156 0.257307 0.6875
C_ C_ 0.417119 0.68566 0.241342 0.6875
C_ C_ 0.205228 0.593615 0.22228 -0.11473
C_ C_ 0.463275 0.595121 0.202772 -0.11473
C_ C_ 0.0702654 0.648959 0.257443 -0.02249
C_ C_ 0.318515 0.64483 0.242717 -0.02249
C_ C_ 0.0132676 0.537612 0.262574 -0.02249
C_ C_ 0.263826 0.533762 0.252481 -0.02249
C_ C_ 0.0473046 0.58979 0.22162 -0.11473
C_ C_ 0.292386 0.587413 0.209824 -0.11473
C_ C_ 0.0499389 0.641694 0.291962 -0.11473
C_ C_ 0.30747 0.630188 0.282047 -0.11473
C_ C_ 0.0677193 0.623054 0.222631 -0.11473
C_ C_ 0.307358 0.626362 0.206479 -0.11473
C_ C_ 0.0320218 0.577364 0.258622 -0.02249
C_ C_ 0.280674 0.574412 0.247464 -0.02249
C_ C_ 0.0890742 0.688016 0.255732 0.6875
C_ C_ 0.337925 0.68219 0.242123 0.6875
C_ C_ 0.0327357 0.605474 0.295042 -0.11473
C_ C_ 0.289937 0.595837 0.283332 -0.11473
C_ C_ 0.126497 0.787245 0.375794 0.17695
C_ C_ 0.368574 0.776413 0.371476 0.17695
C_ C_ 0.12375 0.7138 0.379809 0.17695
C_ C_ 0.379624 0.704486 0.367449 0.17695
C_ C_ 0.122016 0.716445 0.424566 -0.11473
C_ C_ 0.375959 0.701746 0.410427 -0.11473
C_ C_ 0.122324 0.755396 0.44519 0.23465
C_ C_ 0.372155 0.738275 0.434855 0.23465
C_ C_ 0.125564 0.789298 0.419834 -0.11473
C_ C_ 0.367839 0.776336 0.415935 -0.11473
C_ C_ 0.130708 0.711299 0.124884 0.17695
C_ C_ 0.373587 0.788553 0.119931 0.17695
C_ C_ 0.120207 0.782326 0.128542 0.17695
C_ C_ 0.373584 0.715919 0.113295 0.17695
C_ C_ 0.113887 0.78583 0.084497 -0.11473
C_ C_ 0.369413 0.720596 0.0690087 -0.11473
C_ C_ 0.119395 0.750893 0.0600581 0.23465
C_ C_ 0.369288 0.760852 0.0494918 0.23465
C_ C_ 0.129165 0.714674 0.0801971 -0.11473
C_ C_ 0.372696 0.795344 0.0770251 -0.11473
C_ C_ 0.0281596 0.989642 0.245894 0.05793
C_ C_ 0.281917 0.994428 0.250883 0.05793
C_ C_ 0.217504 0.496469 0.267599 0.05793
C_ C_ 0.469404 0.498588 0.247379 0.05793
Br Br 0.0701364 -0.015302000000000038 0.252397 -0.17191
Br Br 0.325813 0.996391 0.268785 -0.17191
Br Br 0.178306 0.499485 0.289717 -0.17191
Br Br 0.427486 0.501499 0.253173 -0.17191
N_ N_ 0.127122 0.749533 0.358679 -0.272
N_ N_ 0.376968 0.742384 0.349146 -0.272
N_ N_ 0.119184 0.762867 0.488998 -0.12501
N_ N_ 0.368406 0.735383 0.4799 -0.12501
N_ N_ 0.125272 0.745911 0.147774 -0.272
N_ N_ 0.373858 0.749622 0.136934 -0.272
N_ N_ 0.114336 0.750672 0.0152365 -0.12501
N_ N_ 0.37275 0.765709 0.00450636 -0.12501
O_ O_ 0.0951025 0.789439 0.2209 -0.60745
O_ O_ 0.347523 0.790932 0.210707 -0.60745
O_ O_ 0.0953804 0.797799 0.289577 -0.60745
O_ O_ 0.34173 0.784246 0.279553 -0.60745
O_ O_ 0.159933 0.792266 0.289878 -0.60745
O_ O_ 0.402654 0.791462 0.27949 -0.60745
O_ O_ 0.156315 0.790702 0.220294 -0.60745
O_ O_ 0.405752 0.786468 0.21111 -0.60745
O_ O_ 0.154466 0.704813 0.29007 -0.60745
O_ O_ 0.407532 0.701591 0.276163 -0.60745
O_ O_ 0.158959 0.708022 0.222619 -0.60745
O_ O_ 0.404 0.695257 0.206312 -0.60745
O_ O_ 0.096759 0.702212 0.220335 -0.60745
O_ O_ 0.344765 0.699755 0.20804 -0.60745
O_ O_ 0.0921621 0.710736 0.288163 -0.60745
O_ O_ 0.350641 0.694956 0.275137 -0.60745
Zn Zn 0.12558 0.751392 0.786819 0.9476
Zn Zn 0.377129 0.752514 0.776219 0.9476
Zn Zn 0.125543 0.752097 0.716393 0.9476
Zn Zn 0.372984 0.753149 0.706565 0.9476
H_ H_ 0.0347896 0.916431 0.683159 0.10932
H_ H_ 0.271016 0.913053 0.679605 0.10932
H_ H_ 0.0651672 0.854562 0.816142 0.10932
H_ H_ 0.326916 0.86849 0.808356 0.10932
H_ H_ 0.0590028 0.848037 0.682743 0.10932
H_ H_ 0.29666 0.844498 0.681354 0.10932
H_ H_ 0.0375888 0.922475 0.815995 0.10932
H_ H_ 0.296865 0.92752 0.811288 0.10932
H_ H_ 0.22885 0.90909 0.819463 0.10932
H_ H_ 0.479955 0.912737 0.807109 0.10932
H_ H_ 0.174855 0.865749 0.687089 0.10932
H_ H_ 0.428011 0.864024 0.680607 0.10932
H_ H_ 0.194846 0.848472 0.81809 0.10932
H_ H_ 0.445201 0.852306 0.810446 0.10932
H_ H_ 0.200357 0.929657 0.687275 0.10932
H_ H_ 0.450977 0.932518 0.67913 0.10932
H_ H_ 0.213546 0.583195 0.812896 0.10932
H_ H_ 0.490652 0.609411 0.795738 0.10932
H_ H_ 0.185092 0.647178 0.675787 0.10932
H_ H_ 0.421282 0.64308 0.677782 0.10932
H_ H_ 0.186102 0.647848 0.812499 0.10932
H_ H_ 0.46318 0.674877 0.798747 0.10932
H_ H_ 0.208565 0.580153 0.676014 0.10932
H_ H_ 0.448356 0.577871 0.679827 0.10932
H_ H_ 0.0411712 0.579244 0.688668 0.10932
H_ H_ 0.28251 0.58612 0.676021 0.10932
H_ H_ 0.0605261 0.645144 0.821747 0.10932
H_ H_ 0.319273 0.645687 0.809725 0.10932
H_ H_ 0.0627489 0.648393 0.688937 0.10932
H_ H_ 0.304184 0.655497 0.674889 0.10932
H_ H_ 0.0346315 0.582632 0.818629 0.10932
H_ H_ 0.28853 0.584055 0.81089 0.10932
H_ H_ 0.103373 0.806073 0.867295 0.10932
H_ H_ 0.369286 0.811247 0.854159 0.10932
H_ H_ 0.149593 0.690907 0.859386 0.10932
H_ H_ 0.385235 0.683539 0.84308 0.10932
H_ H_ 0.147528 0.681327 0.930218 0.10932
H_ H_ 0.376553 0.676491 0.923203 0.10932
H_ H_ 0.107792 0.804969 0.944509 0.10932
H_ H_ 0.366722 0.809261 0.930835 0.10932
H_ H_ 0.134744 0.678331 0.645267 0.10932
H_ H_ 0.381126 0.81967 0.636695 0.10932
H_ H_ 0.125037 0.809227 0.639685 0.10932
H_ H_ 0.384451 0.690123 0.632924 0.10932
H_ H_ 0.119733 0.806306 0.564243 0.10932
H_ H_ 0.38598 0.689516 0.556487 0.10932
H_ H_ 0.131037 0.672973 0.567315 0.10932
H_ H_ 0.377187 0.821352 0.560412 0.10932
C_ C_ 0.0680812 0.848575 0.748963 -0.02249
C_ C_ 0.318567 0.854327 0.741708 -0.02249
C_ C_ 0.0182017 0.964642 0.744998 -0.02249
C_ C_ 0.266705 0.965782 0.747761 -0.02249
C_ C_ 0.0401916 0.903066 0.710901 -0.11473
C_ C_ 0.283601 0.902556 0.707804 -0.11473
C_ C_ 0.0578414 0.866204 0.786076 -0.11473
C_ C_ 0.317073 0.87681 0.779548 -0.11473
C_ C_ 0.0540159 0.86271 0.712571 -0.11473
C_ C_ 0.300809 0.866209 0.707571 -0.11473
C_ C_ 0.0330487 0.922625 0.747779 -0.02249
C_ C_ 0.284223 0.926528 0.74475 -0.02249
C_ C_ 0.0889828 0.811867 0.749559 0.6875
C_ C_ 0.336955 0.814511 0.73982 0.6875
C_ C_ 0.0419524 0.904539 0.786065 -0.11473
C_ C_ 0.297267 0.910991 0.780621 -0.11473
C_ C_ 0.18247 0.851542 0.753203 -0.02249
C_ C_ 0.432674 0.854838 0.744449 -0.02249
C_ C_ 0.23555 0.966 0.755266 -0.02249
C_ C_ 0.48323 0.968618 0.745466 -0.02249
C_ C_ 0.215665 0.902202 0.791039 -0.11473
C_ C_ 0.469225 0.899404 0.777698 -0.11473
C_ C_ 0.184706 0.875475 0.716991 -0.11473
C_ C_ 0.432646 0.879498 0.709473 -0.11473
C_ C_ 0.197451 0.865494 0.789942 -0.11473
C_ C_ 0.447672 0.867996 0.781282 -0.11473
C_ C_ 0.217762 0.925629 0.75415 -0.02249
C_ C_ 0.467299 0.926618 0.743519 -0.02249
C_ C_ 0.163385 0.813285 0.750836 0.6875
C_ C_ 0.413186 0.815813 0.744487 0.6875
C_ C_ 0.200906 0.912571 0.717697 -0.11473
C_ C_ 0.451137 0.914487 0.707856 -0.11473
C_ C_ 0.183179 0.6534 0.744307 -0.02249
C_ C_ 0.436541 0.661968 0.740658 -0.02249
C_ C_ 0.233397 0.54121 0.74534 -0.02249
C_ C_ 0.485745 0.545519 0.741648 -0.02249
C_ C_ 0.208265 0.59867 0.782356 -0.11473
C_ C_ 0.470747 0.611605 0.775068 -0.11473
C_ C_ 0.189912 0.633122 0.706066 -0.11473
C_ C_ 0.43555 0.635257 0.706351 -0.11473
C_ C_ 0.191843 0.6341 0.781929 -0.11473
C_ C_ 0.455841 0.650533 0.775078 -0.11473
C_ C_ 0.215771 0.579384 0.744893 -0.02249
C_ C_ 0.468746 0.585183 0.741066 -0.02249
C_ C_ 0.162718 0.689747 0.745693 0.6875
C_ C_ 0.41567 0.696171 0.744244 0.6875
C_ C_ 0.208245 0.598135 0.705645 -0.11473
C_ C_ 0.449363 0.596353 0.706722 -0.11473
C_ C_ 0.0650612 0.654668 0.754153 -0.02249
C_ C_ 0.315708 0.654643 0.743136 -0.02249
C_ C_ 0.0173757 0.538382 0.752685 -0.02249
C_ C_ 0.264428 0.541643 0.743475 -0.02249
C_ C_ 0.0406809 0.599159 0.717074 -0.11473
C_ C_ 0.284872 0.603049 0.705949 -0.11473
C_ C_ 0.0552618 0.635695 0.792083 -0.11473
C_ C_ 0.311551 0.632432 0.780521 -0.11473
C_ C_ 0.0552021 0.636452 0.717933 -0.11473
C_ C_ 0.302632 0.63919 0.704902 -0.11473
C_ C_ 0.0316754 0.580092 0.753108 -0.02249
C_ C_ 0.280942 0.581983 0.742728 -0.02249
C_ C_ 0.085738 0.689229 0.75643 0.6875
C_ C_ 0.335038 0.692501 0.739888 0.6875
C_ C_ 0.038956 0.598239 0.789845 -0.11473
C_ C_ 0.292362 0.598547 0.780953 -0.11473
C_ C_ 0.113593 0.779815 0.884849 0.17695
C_ C_ 0.375239 0.783016 0.869079 0.17695
C_ C_ 0.139138 0.714027 0.878302 0.17695
C_ C_ 0.378152 0.710414 0.863672 0.17695
C_ C_ 0.140763 0.710967 0.921491 -0.11473
C_ C_ 0.378061 0.706936 0.908401 -0.11473
C_ C_ 0.129148 0.742742 0.946963 0.23465
C_ C_ 0.374081 0.740763 0.934542 0.23465
C_ C_ 0.117598 0.779451 0.927008 -0.11473
C_ C_ 0.369652 0.779397 0.912904 -0.11473
C_ C_ 0.13337 0.706945 0.627929 0.17695
C_ C_ 0.377512 0.79154 0.618516 0.17695
C_ C_ 0.122837 0.77951 0.624623 0.17695
C_ C_ 0.381763 0.718977 0.616202 0.17695
C_ C_ 0.124522 0.777943 0.580238 -0.11473
C_ C_ 0.383093 0.719233 0.572244 -0.11473
C_ C_ 0.12666 0.739637 0.559364 0.23465
C_ C_ 0.379415 0.756773 0.550776 0.23465
C_ C_ 0.131139 0.703933 0.583539 -0.11473
C_ C_ 0.379195 0.793187 0.5754 -0.11473
C_ C_ 0.0355551 0.0020299999999999763 0.739963 0.05793
C_ C_ 0.28279 0.00415999 0.744094 0.05793
C_ C_ 0.219054 0.503207 0.752335 0.05793
C_ C_ 0.471454 0.508965 0.755463 0.05793
Br Br 0.0792013 -0.0024100000000000232 0.732158 -0.17191
Br Br 0.3244 0.00194068 0.72603 -0.17191
Br Br 0.176134 0.498715 0.762486 -0.17191
Br Br 0.430949 0.513592 0.776008 -0.17191
N_ N_ 0.126574 0.749306 0.859526 -0.272
N_ N_ 0.375692 0.747484 0.844446 -0.272
N_ N_ 0.134923 0.740715 0.990656 -0.12501
N_ N_ 0.369169 0.736309 0.978417 -0.12501
N_ N_ 0.127932 0.74519 0.646213 -0.272
N_ N_ 0.378785 0.754257 0.63813 -0.272
N_ N_ 0.127752 0.735427 0.514562 -0.12501
N_ N_ 0.381285 0.759995 0.50546 -0.12501
O_ O_ 0.0954896 0.793947 0.716021 -0.60745
O_ O_ 0.344228 0.800723 0.705342 -0.60745
O_ O_ 0.0990611 0.798114 0.784639 -0.60745
O_ O_ 0.3412 0.792915 0.772964 -0.60745
O_ O_ 0.156435 0.794957 0.78558 -0.60745
O_ O_ 0.403054 0.804237 0.778156 -0.60745
O_ O_ 0.154504 0.798878 0.716168 -0.60745
O_ O_ 0.405188 0.798643 0.710904 -0.60745
O_ O_ 0.155531 0.704536 0.780867 -0.60745
O_ O_ 0.412158 0.714428 0.779401 -0.60745
O_ O_ 0.157766 0.710239 0.711737 -0.60745
O_ O_ 0.40115 0.709077 0.711619 -0.60745
O_ O_ 0.0952174 0.704024 0.721685 -0.60745
O_ O_ 0.337428 0.711158 0.704328 -0.60745
O_ O_ 0.0926171 0.706818 0.790515 -0.60745
O_ O_ 0.349665 0.704324 0.772155 -0.60745
Zn Zn 0.621478 0.245434 0.286103 0.9476
Zn Zn 0.874613 0.246769 0.288854 0.9476
Zn Zn 0.620462 0.245877 0.218804 0.9476
Zn Zn 0.874483 0.247606 0.22026 0.9476
H_ H_ 0.51429 0.39396 0.189655 0.10932
H_ H_ 0.768229 0.399306 0.18954 0.10932
H_ H_ 0.579488 0.361931 0.313955 0.10932
H_ H_ 0.834438 0.368215 0.314889 0.10932
H_ H_ 0.53981 0.326245 0.191958 0.10932
H_ H_ 0.790568 0.330113 0.196978 0.10932
H_ H_ 0.55731 0.429839 0.304297 0.10932
H_ H_ 0.804704 0.427524 0.312748 0.10932
H_ H_ 0.722707 0.401923 0.322381 0.10932
H_ H_ 0.964026 0.414968 0.324838 0.10932
H_ H_ 0.670672 0.363917 0.191003 0.10932
H_ H_ 0.945827 0.344098 0.19242 0.10932
H_ H_ 0.695875 0.334524 0.317328 0.10932
H_ H_ 0.924057 0.358759 0.324209 0.10932
H_ H_ 0.706293 0.421135 0.191296 0.10932
H_ H_ 0.973645 0.406582 0.1951 0.10932
H_ H_ 0.71256 0.0834809 0.314747 0.10932
H_ H_ 0.952572 0.0651003 0.312028 0.10932
H_ H_ 0.687471 0.150455 0.178318 0.10932
H_ H_ 0.943894 0.154234 0.188519 0.10932
H_ H_ 0.691355 0.155615 0.313465 0.10932
H_ H_ 0.929298 0.135112 0.320773 0.10932
H_ H_ 0.716711 0.0874032 0.181245 0.10932
H_ H_ 0.968784 0.0856053 0.182633 0.10932
H_ H_ 0.53579 0.0731827 0.176284 0.10932
H_ H_ 0.795764 0.0707105 0.1812 0.10932
H_ H_ 0.566049 0.138808 0.31119 0.10932
H_ H_ 0.809412 0.148899 0.316042 0.10932
H_ H_ 0.566148 0.13902 0.178038 0.10932
H_ H_ 0.82724 0.135998 0.181279 0.10932
H_ H_ 0.531744 0.0836393 0.309494 0.10932
H_ H_ 0.777247 0.0861847 0.312301 0.10932
H_ H_ 0.577689 0.229464 0.360639 0.10932
H_ H_ 0.873035 0.179566 0.361444 0.10932
H_ H_ 0.66984 0.259278 0.365318 0.10932
H_ H_ 0.868186 0.311404 0.366394 0.10932
H_ H_ 0.670709 0.255033 0.443728 0.10932
H_ H_ 0.86541 0.305431 0.442797 0.10932
H_ H_ 0.578468 0.225433 0.440567 0.10932
H_ H_ 0.869078 0.175632 0.439237 0.10932
H_ H_ 0.620606 0.184869 0.139235 0.10932
H_ H_ 0.897913 0.197749 0.141518 0.10932
H_ H_ 0.616741 0.316005 0.148049 0.10932
H_ H_ 0.856376 0.313134 0.15476 0.10932
H_ H_ 0.625715 0.322165 0.0702408 0.10932
H_ H_ 0.85436 0.32091 0.0760292 0.10932
H_ H_ 0.61592 0.192637 0.0610581 0.10932
H_ H_ 0.899944 0.204495 0.0657936 0.10932
C_ C_ 0.558591 0.337826 0.254347 -0.02249
C_ C_ 0.818015 0.344912 0.253182 -0.02249
C_ C_ 0.516857 0.458193 0.248887 -0.02249
C_ C_ 0.76436 0.455804 0.25047 -0.02249
C_ C_ 0.528391 0.388011 0.215264 -0.11473
C_ C_ 0.781929 0.390273 0.216303 -0.11473
C_ C_ 0.56288 0.367627 0.286254 -0.11473
C_ C_ 0.819449 0.372358 0.287366 -0.11473
C_ C_ 0.541234 0.347735 0.218878 -0.11473
C_ C_ 0.798127 0.354852 0.21844 -0.11473
C_ C_ 0.53214 0.416327 0.249479 -0.02249
C_ C_ 0.784509 0.419323 0.249445 -0.02249
C_ C_ 0.577228 0.300827 0.255949 0.6875
C_ C_ 0.834498 0.304645 0.257653 0.6875
C_ C_ 0.553725 0.407564 0.279603 -0.11473
C_ C_ 0.802959 0.408857 0.28545 -0.11473
C_ C_ 0.68059 0.344293 0.253788 -0.02249
C_ C_ 0.934269 0.345237 0.259737 -0.02249
C_ C_ 0.733733 0.454246 0.255873 -0.02249
C_ C_ 0.980683 0.462757 0.260369 -0.02249
C_ C_ 0.712053 0.392133 0.29379 -0.11473
C_ C_ 0.952449 0.405947 0.296034 -0.11473
C_ C_ 0.685914 0.366895 0.217413 -0.11473
C_ C_ 0.946646 0.361577 0.221512 -0.11473
C_ C_ 0.694525 0.356765 0.292971 -0.11473
C_ C_ 0.936723 0.368416 0.296908 -0.11473
C_ C_ 0.718754 0.411531 0.254977 -0.02249
C_ C_ 0.961818 0.423777 0.258614 -0.02249
C_ C_ 0.658311 0.308627 0.254033 0.6875
C_ C_ 0.912955 0.309436 0.259408 0.6875
C_ C_ 0.702928 0.401883 0.219201 -0.11473
C_ C_ 0.962173 0.398118 0.22173 -0.11473
C_ C_ 0.686567 0.156989 0.247558 -0.02249
C_ C_ 0.938935 0.1513 0.255588 -0.02249
C_ C_ 0.734146 0.0393458 0.247442 -0.02249
C_ C_ 0.982381 0.0325415 0.249343 -0.02249
C_ C_ 0.709935 0.0990528 0.28498 -0.11473
C_ C_ 0.955621 0.087908 0.288499 -0.11473
C_ C_ 0.69559 0.13869 0.209685 -0.11473
C_ C_ 0.94832 0.136984 0.216012 -0.11473
C_ C_ 0.697634 0.140168 0.285214 -0.11473
C_ C_ 0.941556 0.126012 0.290964 -0.11473
C_ C_ 0.719683 0.0809001 0.247095 -0.02249
C_ C_ 0.968324 0.0743755 0.2498 -0.02249
C_ C_ 0.665723 0.194 0.249054 0.6875
C_ C_ 0.916987 0.188646 0.253597 0.6875
C_ C_ 0.714252 0.101708 0.210551 -0.11473
C_ C_ 0.960899 0.0964151 0.212889 -0.11473
C_ C_ 0.566104 0.147486 0.245242 -0.02249
C_ C_ 0.820095 0.148195 0.249419 -0.02249
C_ C_ 0.514009 0.0345775 0.24101 -0.02249
C_ C_ 0.765633 0.0354723 0.240515 -0.02249
C_ C_ 0.541506 0.0897644 0.206004 -0.11473
C_ C_ 0.795096 0.0912193 0.210193 -0.11473
C_ C_ 0.553715 0.133355 0.282107 -0.11473
C_ C_ 0.805645 0.132977 0.286008 -0.11473
C_ C_ 0.559218 0.125555 0.20674 -0.11473
C_ C_ 0.814895 0.125469 0.210591 -0.11473
C_ C_ 0.529289 0.0748897 0.242562 -0.02249
C_ C_ 0.783143 0.0749981 0.244769 -0.02249
C_ C_ 0.584728 0.186316 0.246111 0.6875
C_ C_ 0.837828 0.18598 0.249245 0.6875
C_ C_ 0.537206 0.0966081 0.281201 -0.11473
C_ C_ 0.786948 0.0978023 0.283963 -0.11473
C_ C_ 0.597724 0.236724 0.379402 0.17695
C_ C_ 0.874207 0.208558 0.378758 0.17695
C_ C_ 0.650511 0.249651 0.380011 0.17695
C_ C_ 0.871891 0.28169 0.382201 0.17695
C_ C_ 0.650419 0.249027 0.42575 -0.11473
C_ C_ 0.869893 0.277955 0.425966 -0.11473
C_ C_ 0.624838 0.243445 0.447984 0.23465
C_ C_ 0.871073 0.240343 0.447334 0.23465
C_ C_ 0.59828 0.234952 0.424561 -0.11473
C_ C_ 0.871964 0.205036 0.42331 -0.11473
C_ C_ 0.621796 0.215937 0.122863 0.17695
C_ C_ 0.88815 0.225579 0.128712 0.17695
C_ C_ 0.61652 0.289447 0.12821 0.17695
C_ C_ 0.866037 0.290389 0.133376 0.17695
C_ C_ 0.621541 0.293164 0.0850688 -0.11473
C_ C_ 0.865559 0.29488 0.0896045 -0.11473
C_ C_ 0.621297 0.257927 0.0600387 0.23465
C_ C_ 0.875314 0.261557 0.0637285 0.23465
C_ C_ 0.621409 0.219138 0.0790833 -0.11473
C_ C_ 0.888562 0.227604 0.0845792 -0.11473
C_ C_ 0.533798 0.495328 0.243875 0.05793
C_ C_ 0.777674 0.494573 0.241656 0.05793
C_ C_ 0.716202 1.00196 0.24985 0.05793
C_ C_ 0.965601 0.995463 0.243791 0.05793
Br Br 0.57567 0.495274 0.230367 -0.17191
Br Br 0.820626 0.495061 0.228802 -0.17191
Br Br 0.67396 0.00114712 0.255671 -0.17191
Br Br 0.925145 0.00134673 0.229245 -0.17191
N_ N_ 0.624968 0.240843 0.358596 -0.272
N_ N_ 0.876021 0.246166 0.359599 -0.272
N_ N_ 0.626454 0.237921 0.492758 -0.12501
N_ N_ 0.864209 0.238229 0.49095 -0.12501
N_ N_ 0.617444 0.2504 0.146607 -0.272
N_ N_ 0.876036 0.254556 0.152216 -0.272
N_ N_ 0.620194 0.263061 0.01534 -0.12501
N_ N_ 0.872205 0.264599 0.0180854 -0.12501
O_ O_ 0.58685 0.285435 0.222233 -0.60745
O_ O_ 0.840844 0.286624 0.223234 -0.60745
O_ O_ 0.588142 0.287175 0.291001 -0.60745
O_ O_ 0.843292 0.28995 0.292704 -0.60745
O_ O_ 0.655242 0.285952 0.287004 -0.60745
O_ O_ 0.903853 0.292952 0.292999 -0.60745
O_ O_ 0.647664 0.296946 0.218496 -0.60745
O_ O_ 0.904764 0.293975 0.225646 -0.60745
O_ O_ 0.654516 0.203458 0.282881 -0.60745
O_ O_ 0.904496 0.200641 0.287868 -0.60745
O_ O_ 0.65439 0.207172 0.215634 -0.60745
O_ O_ 0.910149 0.20709 0.21895 -0.60745
O_ O_ 0.590794 0.203127 0.211793 -0.60745
O_ O_ 0.845847 0.20135 0.215624 -0.60745
O_ O_ 0.591846 0.202904 0.280665 -0.60745
O_ O_ 0.843411 0.204053 0.283037 -0.60745
Zn Zn 0.62463 0.257906 0.787434 0.9476
Zn Zn 0.879748 0.249942 0.790008 0.9476
Zn Zn 0.625545 0.257532 0.719325 0.9476
Zn Zn 0.874468 0.252986 0.719289 0.9476
H_ H_ 0.527137 0.413556 0.676577 0.10932
H_ H_ 0.769287 0.408811 0.693289 0.10932
H_ H_ 0.56425 0.368521 0.815214 0.10932
H_ H_ 0.825781 0.365383 0.822556 0.10932
H_ H_ 0.552996 0.346566 0.683969 0.10932
H_ H_ 0.804119 0.347591 0.691888 0.10932
H_ H_ 0.533339 0.433768 0.807136 0.10932
H_ H_ 0.79601 0.427399 0.821992 0.10932
H_ H_ 0.72817 0.406819 0.821254 0.10932
H_ H_ 0.983644 0.407531 0.819564 0.10932
H_ H_ 0.68271 0.361615 0.684025 0.10932
H_ H_ 0.942865 0.353228 0.684395 0.10932
H_ H_ 0.708843 0.342306 0.813757 0.10932
H_ H_ 0.943293 0.349707 0.819789 0.10932
H_ H_ 0.708416 0.430144 0.688401 0.10932
H_ H_ 0.966308 0.422312 0.687725 0.10932
H_ H_ 0.719448 0.0949864 0.820137 0.10932
H_ H_ 0.982247 0.0885715 0.808277 0.10932
H_ H_ 0.679409 0.143164 0.686142 0.10932
H_ H_ 0.935587 0.155271 0.68281 0.10932
H_ H_ 0.680107 0.149356 0.816475 0.10932
H_ H_ 0.95613 0.155022 0.814989 0.10932
H_ H_ 0.711907 0.0851579 0.685142 0.10932
H_ H_ 0.964553 0.0969194 0.673921 0.10932
H_ H_ 0.539735 0.0862027 0.679711 0.10932
H_ H_ 0.767851 0.101946 0.694678 0.10932
H_ H_ 0.559218 0.154099 0.818283 0.10932
H_ H_ 0.834669 0.130559 0.815757 0.10932
H_ H_ 0.566797 0.152308 0.683103 0.10932
H_ H_ 0.797821 0.165224 0.696913 0.10932
H_ H_ 0.531514 0.0923851 0.813947 0.10932
H_ H_ 0.802608 0.0655446 0.814499 0.10932
H_ H_ 0.621855 0.319314 0.867587 0.10932
H_ H_ 0.928287 0.256007 0.863079 0.10932
H_ H_ 0.632955 0.189155 0.855059 0.10932
H_ H_ 0.834475 0.249222 0.862844 0.10932
H_ H_ 0.638593 0.18023 0.932173 0.10932
H_ H_ 0.837517 0.237944 0.942676 0.10932
H_ H_ 0.623183 0.312833 0.944944 0.10932
H_ H_ 0.932189 0.252109 0.940827 0.10932
H_ H_ 0.619072 0.323852 0.649539 0.10932
H_ H_ 0.876033 0.318113 0.646047 0.10932
H_ H_ 0.635234 0.1937 0.643357 0.10932
H_ H_ 0.866283 0.186018 0.640655 0.10932
H_ H_ 0.631883 0.195535 0.565467 0.10932
H_ H_ 0.8657 0.191115 0.561314 0.10932
H_ H_ 0.614684 0.328695 0.57284 0.10932
H_ H_ 0.881723 0.319063 0.571505 0.10932
C_ C_ 0.561089 0.350833 0.751986 -0.02249
C_ C_ 0.81589 0.347711 0.755223 -0.02249
C_ C_ 0.51363 0.4668 0.737591 -0.02249
C_ C_ 0.766683 0.464349 0.757064 -0.02249
C_ C_ 0.534202 0.401835 0.706879 -0.11473
C_ C_ 0.784402 0.400167 0.720663 -0.11473
C_ C_ 0.553822 0.376451 0.786095 -0.11473
C_ C_ 0.814138 0.372489 0.792096 -0.11473
C_ C_ 0.549723 0.364365 0.710928 -0.11473
C_ C_ 0.802735 0.365759 0.719742 -0.11473
C_ C_ 0.529682 0.426744 0.741364 -0.02249
C_ C_ 0.782532 0.423172 0.756767 -0.02249
C_ C_ 0.581489 0.314928 0.753288 0.6875
C_ C_ 0.834567 0.310557 0.754906 0.6875
C_ C_ 0.538012 0.413184 0.781383 -0.11473
C_ C_ 0.800291 0.411538 0.79159 -0.11473
C_ C_ 0.68917 0.34746 0.750334 -0.02249
C_ C_ 0.939044 0.346605 0.75285 -0.02249
C_ C_ 0.734176 0.465979 0.759086 -0.02249
C_ C_ 0.989846 0.45984 0.760863 -0.02249
C_ C_ 0.718301 0.399157 0.78927 -0.11473
C_ C_ 0.970852 0.396786 0.790895 -0.11473
C_ C_ 0.692143 0.370899 0.713738 -0.11473
C_ C_ 0.947439 0.366791 0.715695 -0.11473
C_ C_ 0.704645 0.360609 0.786763 -0.11473
C_ C_ 0.951399 0.363149 0.791329 -0.11473
C_ C_ 0.716994 0.42676 0.755332 -0.02249
C_ C_ 0.975072 0.41869 0.754885 -0.02249
C_ C_ 0.668134 0.311417 0.750912 0.6875
C_ C_ 0.917228 0.311562 0.752609 0.6875
C_ C_ 0.708591 0.409259 0.714506 -0.11473
C_ C_ 0.962698 0.403546 0.716531 -0.11473
C_ C_ 0.682474 0.155424 0.750158 -0.02249
C_ C_ 0.938549 0.156919 0.750616 -0.02249
C_ C_ 0.735645 0.0427554 0.756236 -0.02249
C_ C_ 0.990607 0.044107 0.738181 -0.02249
C_ C_ 0.709322 0.103141 0.791503 -0.11473
C_ C_ 0.970739 0.103729 0.780808 -0.11473
C_ C_ 0.691347 0.135148 0.713724 -0.11473
C_ C_ 0.947485 0.14335 0.710217 -0.11473
C_ C_ 0.691321 0.13937 0.788534 -0.11473
C_ C_ 0.953199 0.138953 0.786514 -0.11473
C_ C_ 0.719649 0.0832115 0.754019 -0.02249
C_ C_ 0.974241 0.0846839 0.741056 -0.02249
C_ C_ 0.664719 0.194846 0.750411 0.6875
C_ C_ 0.91716 0.194013 0.754038 0.6875
C_ C_ 0.707222 0.0990549 0.715455 -0.11473
C_ C_ 0.962357 0.106771 0.706179 -0.11473
C_ C_ 0.568692 0.155047 0.750971 -0.02249
C_ C_ 0.818726 0.153029 0.757137 -0.02249
C_ C_ 0.516596 0.0436176 0.746696 -0.02249
C_ C_ 0.766578 0.0411131 0.75278 -0.02249
C_ C_ 0.543315 0.101215 0.709738 -0.11473
C_ C_ 0.783828 0.105693 0.71971 -0.11473
C_ C_ 0.556505 0.137987 0.788977 -0.11473
C_ C_ 0.819807 0.124922 0.790902 -0.11473
C_ C_ 0.558932 0.138353 0.712153 -0.11473
C_ C_ 0.800145 0.143059 0.721604 -0.11473
C_ C_ 0.534236 0.0816892 0.747881 -0.02249
C_ C_ 0.78378 0.0800244 0.753708 -0.02249
C_ C_ 0.58689 0.195066 0.751302 0.6875
C_ C_ 0.84018 0.19021 0.757019 0.6875
C_ C_ 0.53975 0.103184 0.786482 -0.11473
C_ C_ 0.803309 0.0875999 0.788744 -0.11473
C_ C_ 0.623807 0.288496 0.882505 0.17695
C_ C_ 0.907923 0.257226 0.880567 0.17695
C_ C_ 0.630662 0.216612 0.87592 0.17695
C_ C_ 0.856362 0.252991 0.880972 0.17695
C_ C_ 0.634137 0.212214 0.920201 -0.11473
C_ C_ 0.856696 0.248787 0.925756 -0.11473
C_ C_ 0.630845 0.246596 0.9467 0.23465
C_ C_ 0.88401 0.251832 0.947924 0.23465
C_ C_ 0.62555 0.284949 0.926852 -0.11473
C_ C_ 0.910252 0.254805 0.925188 -0.11473
C_ C_ 0.620162 0.296732 0.629522 0.17695
C_ C_ 0.873255 0.288505 0.62829 0.17695
C_ C_ 0.6293 0.223208 0.625562 0.17695
C_ C_ 0.867932 0.215317 0.624924 0.17695
C_ C_ 0.6308 0.224324 0.581445 -0.11473
C_ C_ 0.871615 0.217437 0.579688 -0.11473
C_ C_ 0.627183 0.264301 0.560801 0.23465
C_ C_ 0.872386 0.257261 0.560557 0.23465
C_ C_ 0.621597 0.299732 0.586182 -0.11473
C_ C_ 0.87399 0.291711 0.585679 -0.11473
C_ C_ 0.529516 0.502285 0.724726 0.05793
C_ C_ 0.7827 0.502527 0.758877 0.05793
C_ C_ 0.720097 0.00693103 0.758441 0.05793
C_ C_ 0.972483 0.00816502 0.741671 0.05793
Br Br 0.567813 0.498045 0.700574 -0.17191
Br Br 0.824349 0.50159 0.747014 -0.17191
Br Br 0.676548 0.00910945 0.754606 -0.17191
Br Br 0.929496 0.0110239 0.74771 -0.17191
N_ N_ 0.624184 0.253965 0.858269 -0.272
N_ N_ 0.881654 0.253867 0.86014 -0.272
N_ N_ 0.63381 0.239345 0.99083 -0.12501
N_ N_ 0.885273 0.241214 0.992307 -0.12501
N_ N_ 0.626931 0.259711 0.647887 -0.272
N_ N_ 0.870333 0.250558 0.64757 -0.272
N_ N_ 0.626449 0.26866 0.516945 -0.12501
N_ N_ 0.876124 0.262415 0.516407 -0.12501
O_ O_ 0.591285 0.300197 0.719028 -0.60745
O_ O_ 0.840598 0.295331 0.718365 -0.60745
O_ O_ 0.592276 0.301127 0.787812 -0.60745
O_ O_ 0.848215 0.295609 0.787454 -0.60745
O_ O_ 0.654952 0.302544 0.784837 -0.60745
O_ O_ 0.912739 0.29211 0.786199 -0.60745
O_ O_ 0.656713 0.300411 0.715838 -0.60745
O_ O_ 0.903771 0.301764 0.717891 -0.60745
O_ O_ 0.658155 0.212115 0.785624 -0.60745
O_ O_ 0.909422 0.204896 0.790625 -0.60745
O_ O_ 0.656725 0.213083 0.716264 -0.60745
O_ O_ 0.907497 0.212428 0.720351 -0.60745
O_ O_ 0.595736 0.211316 0.717749 -0.60745
O_ O_ 0.845827 0.209441 0.722856 -0.60745
O_ O_ 0.592879 0.213224 0.785842 -0.60745
O_ O_ 0.847778 0.207608 0.791097 -0.60745
Zn Zn 0.626224 0.748178 0.279631 0.9476
Zn Zn 0.86652 0.746962 0.284723 0.9476
Zn Zn 0.619476 0.747839 0.211248 0.9476
Zn Zn 0.871869 0.742015 0.216751 0.9476
H_ H_ 0.537117 0.917916 0.179253 0.10932
H_ H_ 0.789018 0.920285 0.178716 0.10932
H_ H_ 0.559985 0.845599 0.311613 0.10932
H_ H_ 0.792393 0.838024 0.310415 0.10932
H_ H_ 0.562814 0.851369 0.180273 0.10932
H_ H_ 0.810733 0.845542 0.176853 0.10932
H_ H_ 0.528367 0.90847 0.30775 0.10932
H_ H_ 0.760429 0.901095 0.305159 0.10932
H_ H_ 0.699486 0.928604 0.307223 0.10932
H_ H_ 0.949707 0.924543 0.313454 0.10932
H_ H_ 0.689129 0.846671 0.1803 0.10932
H_ H_ 0.945826 0.830787 0.191787 0.10932
H_ H_ 0.67476 0.859705 0.310159 0.10932
H_ H_ 0.913272 0.863492 0.313081 0.10932
H_ H_ 0.718072 0.908191 0.176147 0.10932
H_ H_ 0.969955 0.902521 0.185948 0.10932
H_ H_ 0.723303 0.587948 0.31184 0.10932
H_ H_ 0.964752 0.587206 0.327079 0.10932
H_ H_ 0.669102 0.633637 0.184194 0.10932
H_ H_ 0.933847 0.645728 0.187039 0.10932
H_ H_ 0.70358 0.65904 0.305712 0.10932
H_ H_ 0.938684 0.651936 0.321008 0.10932
H_ H_ 0.695276 0.565395 0.182862 0.10932
H_ H_ 0.957733 0.576315 0.191572 0.10932
H_ H_ 0.530011 0.587415 0.177165 0.10932
H_ H_ 0.770971 0.585115 0.184227 0.10932
H_ H_ 0.570384 0.640614 0.314196 0.10932
H_ H_ 0.819688 0.633267 0.316112 0.10932
H_ H_ 0.547481 0.659357 0.183373 0.10932
H_ H_ 0.799957 0.647694 0.184971 0.10932
H_ H_ 0.540994 0.572583 0.307555 0.10932
H_ H_ 0.787807 0.570294 0.315585 0.10932
H_ H_ 0.632358 0.68198 0.361642 0.10932
H_ H_ 0.868518 0.809634 0.366288 0.10932
H_ H_ 0.620161 0.809543 0.347497 0.10932
H_ H_ 0.860333 0.678426 0.352333 0.10932
H_ H_ 0.623912 0.819971 0.423286 0.10932
H_ H_ 0.867859 0.670795 0.43012 0.10932
H_ H_ 0.626918 0.688481 0.43884 0.10932
H_ H_ 0.878115 0.80518 0.438809 0.10932
H_ H_ 0.613666 0.680901 0.144121 0.10932
H_ H_ 0.861919 0.679399 0.146041 0.10932
H_ H_ 0.622876 0.813839 0.129535 0.10932
H_ H_ 0.880421 0.810371 0.135703 0.10932
H_ H_ 0.616115 0.805096 0.0534157 0.10932
H_ H_ 0.880766 0.801063 0.0589033 0.10932
H_ H_ 0.617378 0.672733 0.066566 0.10932
H_ H_ 0.856953 0.672738 0.0677421 0.10932
C_ C_ 0.565711 0.846773 0.244472 -0.02249
C_ C_ 0.806831 0.839298 0.246063 -0.02249
C_ C_ 0.513544 0.957654 0.244245 -0.02249
C_ C_ 0.762232 0.958638 0.242706 -0.02249
C_ C_ 0.539101 0.901418 0.207093 -0.11473
C_ C_ 0.790284 0.901367 0.206833 -0.11473
C_ C_ 0.556015 0.862532 0.281428 -0.11473
C_ C_ 0.790269 0.853538 0.280587 -0.11473
C_ C_ 0.555909 0.863987 0.207072 -0.11473
C_ C_ 0.803623 0.859781 0.206144 -0.11473
C_ C_ 0.530497 0.917625 0.244845 -0.02249
C_ C_ 0.775626 0.915819 0.243617 -0.02249
C_ C_ 0.58597 0.80988 0.242335 0.6875
C_ C_ 0.825418 0.800442 0.251107 0.6875
C_ C_ 0.536364 0.895936 0.280662 -0.11473
C_ C_ 0.775033 0.892258 0.279596 -0.11473
C_ C_ 0.676116 0.849554 0.242472 -0.02249
C_ C_ 0.929567 0.839987 0.253846 -0.02249
C_ C_ 0.730738 0.961699 0.243581 -0.02249
C_ C_ 0.978813 0.955461 0.248181 -0.02249
C_ C_ 0.700505 0.906669 0.281013 -0.11473
C_ C_ 0.947506 0.904903 0.286814 -0.11473
C_ C_ 0.688372 0.866383 0.205911 -0.11473
C_ C_ 0.944068 0.853126 0.217018 -0.11473
C_ C_ 0.684781 0.870292 0.281989 -0.11473
C_ C_ 0.931085 0.867492 0.288752 -0.11473
C_ C_ 0.710983 0.923344 0.242229 -0.02249
C_ C_ 0.96101 0.917408 0.25113 -0.02249
C_ C_ 0.658514 0.810504 0.24192 0.6875
C_ C_ 0.909216 0.804411 0.253851 0.6875
C_ C_ 0.706321 0.90101 0.205019 -0.11473
C_ C_ 0.957215 0.894047 0.214057 -0.11473
C_ C_ 0.682607 0.65041 0.245043 -0.02249
C_ C_ 0.929244 0.650925 0.253627 -0.02249
C_ C_ 0.730328 0.530634 0.25002 -0.02249
C_ C_ 0.982181 0.539071 0.260835 -0.02249
C_ C_ 0.712925 0.59829 0.283223 -0.11473
C_ C_ 0.95929 0.601318 0.294994 -0.11473
C_ C_ 0.682019 0.623224 0.209709 -0.11473
C_ C_ 0.936586 0.629684 0.217014 -0.11473
C_ C_ 0.700964 0.637837 0.280693 -0.11473
C_ C_ 0.939686 0.635517 0.292081 -0.11473
C_ C_ 0.71147 0.571711 0.248675 -0.02249
C_ C_ 0.964652 0.578521 0.258988 -0.02249
C_ C_ 0.660961 0.684465 0.248619 0.6875
C_ C_ 0.910993 0.688364 0.250721 0.6875
C_ C_ 0.699063 0.585726 0.210142 -0.11473
C_ C_ 0.952779 0.592084 0.220047 -0.11473
C_ C_ 0.565115 0.652174 0.24655 -0.02249
C_ C_ 0.810184 0.646273 0.250525 -0.02249
C_ C_ 0.517097 0.534104 0.239337 -0.02249
C_ C_ 0.761824 0.531363 0.245735 -0.02249
C_ C_ 0.53692 0.598658 0.207477 -0.11473
C_ C_ 0.782853 0.592875 0.211851 -0.11473
C_ C_ 0.561352 0.628866 0.282673 -0.11473
C_ C_ 0.808612 0.622807 0.287997 -0.11473
C_ C_ 0.550751 0.637173 0.209025 -0.11473
C_ C_ 0.79636 0.63234 0.213547 -0.11473
C_ C_ 0.534347 0.573836 0.241849 -0.02249
C_ C_ 0.780486 0.569691 0.247332 -0.02249
C_ C_ 0.582108 0.690979 0.246598 0.6875
C_ C_ 0.829346 0.683772 0.249472 0.6875
C_ C_ 0.54516 0.591005 0.280492 -0.11473
C_ C_ 0.790673 0.587285 0.286533 -0.11473
C_ C_ 0.630931 0.712957 0.375421 0.17695
C_ C_ 0.872908 0.77884 0.378163 0.17695
C_ C_ 0.622062 0.784523 0.368175 0.17695
C_ C_ 0.865909 0.706019 0.371121 0.17695
C_ C_ 0.624542 0.78985 0.410757 -0.11473
C_ C_ 0.868837 0.700813 0.41604 -0.11473
C_ C_ 0.627355 0.756044 0.437163 0.23465
C_ C_ 0.870637 0.737587 0.441789 0.23465
C_ C_ 0.627464 0.715955 0.419984 -0.11473
C_ C_ 0.875315 0.776162 0.421875 -0.11473
C_ C_ 0.615386 0.709884 0.12423 0.17695
C_ C_ 0.866669 0.707052 0.126007 0.17695
C_ C_ 0.623029 0.782514 0.114805 0.17695
C_ C_ 0.877269 0.778406 0.121445 0.17695
C_ C_ 0.615557 0.77786 0.0724406 -0.11473
C_ C_ 0.876963 0.774237 0.0769335 -0.11473
C_ C_ 0.61602 0.738699 0.0543031 0.23465
C_ C_ 0.868407 0.737641 0.0556804 0.23465
C_ C_ 0.616587 0.702952 0.0801493 -0.11473
C_ C_ 0.864676 0.702279 0.0813148 -0.11473
C_ C_ 0.529614 0.99635 0.241001 0.05793
C_ C_ 0.779605 0.995667 0.241673 0.05793
C_ C_ 0.716756 0.491189 0.255916 0.05793
C_ C_ 0.965562 0.501649 0.262721 0.05793
Br Br 0.57314 0.994077 0.247775 -0.17191
Br Br 0.822392 0.990113 0.228681 -0.17191
Br Br 0.674977 0.491213 0.268496 -0.17191
Br Br 0.921568 0.50082 0.261726 -0.17191
N_ N_ 0.625252 0.745888 0.350868 -0.272
N_ N_ 0.866172 0.745233 0.354486 -0.272
N_ N_ 0.629022 0.763141 0.482335 -0.12501
N_ N_ 0.870757 0.732576 0.486234 -0.12501
N_ N_ 0.620366 0.748201 0.140609 -0.272
N_ N_ 0.872615 0.744122 0.144706 -0.272
N_ N_ 0.621078 0.735601 0.0100852 -0.12501
N_ N_ 0.86719 0.735764 0.0108879 -0.12501
O_ O_ 0.587534 0.791446 0.208567 -0.60745
O_ O_ 0.838759 0.78629 0.219985 -0.60745
O_ O_ 0.597379 0.795689 0.276265 -0.60745
O_ O_ 0.830522 0.78394 0.286493 -0.60745
O_ O_ 0.65564 0.791695 0.276702 -0.60745
O_ O_ 0.895496 0.794671 0.285583 -0.60745
O_ O_ 0.647864 0.79563 0.208302 -0.60745
O_ O_ 0.901344 0.786101 0.219608 -0.60745
O_ O_ 0.655727 0.700772 0.284274 -0.60745
O_ O_ 0.906255 0.709968 0.282249 -0.60745
O_ O_ 0.650863 0.702662 0.215862 -0.60745
O_ O_ 0.903266 0.701463 0.214542 -0.60745
O_ O_ 0.591596 0.70546 0.211955 -0.60745
O_ O_ 0.838252 0.697639 0.214362 -0.60745
O_ O_ 0.591465 0.708454 0.281663 -0.60745
O_ O_ 0.839801 0.701516 0.283621 -0.60745
Zn Zn 0.628812 0.755353 0.780496 0.9476
Zn Zn 0.877248 0.752972 0.785075 0.9476
Zn Zn 0.629299 0.753944 0.709329 0.9476
Zn Zn 0.879271 0.751566 0.714486 0.9476
H_ H_ 0.526272 0.910633 0.672765 0.10932
H_ H_ 0.766572 0.90681 0.685101 0.10932
H_ H_ 0.576223 0.870709 0.80687 0.10932
H_ H_ 0.827434 0.865786 0.816068 0.10932
H_ H_ 0.559077 0.849182 0.674321 0.10932
H_ H_ 0.798287 0.842905 0.687029 0.10932
H_ H_ 0.551982 0.935376 0.80212 0.10932
H_ H_ 0.796359 0.930665 0.813766 0.10932
H_ H_ 0.730082 0.906938 0.810331 0.10932
H_ H_ 0.978523 0.914579 0.807411 0.10932
H_ H_ 0.675028 0.871622 0.681146 0.10932
H_ H_ 0.926742 0.866199 0.67595 0.10932
H_ H_ 0.706704 0.841728 0.805394 0.10932
H_ H_ 0.952254 0.845516 0.808093 0.10932
H_ H_ 0.69605 0.940808 0.688645 0.10932
H_ H_ 0.951348 0.932591 0.679603 0.10932
H_ H_ 0.713915 0.585972 0.826103 0.10932
H_ H_ 0.95597 0.576201 0.817558 0.10932
H_ H_ 0.70047 0.65188 0.688629 0.10932
H_ H_ 0.942326 0.646356 0.682581 0.10932
H_ H_ 0.681751 0.64763 0.822457 0.10932
H_ H_ 0.932886 0.646036 0.816972 0.10932
H_ H_ 0.729023 0.588773 0.698098 0.10932
H_ H_ 0.975623 0.581278 0.685665 0.10932
H_ H_ 0.534121 0.59426 0.670098 0.10932
H_ H_ 0.800674 0.57399 0.692374 0.10932
H_ H_ 0.575367 0.640238 0.807637 0.10932
H_ H_ 0.799521 0.661498 0.817073 0.10932
H_ H_ 0.561734 0.659226 0.673581 0.10932
H_ H_ 0.832536 0.633339 0.691361 0.10932
H_ H_ 0.547201 0.574845 0.803697 0.10932
H_ H_ 0.775594 0.592226 0.817272 0.10932
H_ H_ 0.607399 0.693469 0.85408 0.10932
H_ H_ 0.855673 0.697535 0.862295 0.10932
H_ H_ 0.633539 0.819471 0.85508 0.10932
H_ H_ 0.905873 0.809282 0.859259 0.10932
H_ H_ 0.629242 0.821808 0.927869 0.10932
H_ H_ 0.907712 0.810305 0.936825 0.10932
H_ H_ 0.600351 0.693995 0.932153 0.10932
H_ H_ 0.852904 0.700642 0.939989 0.10932
H_ H_ 0.637784 0.686085 0.643941 0.10932
H_ H_ 0.8665 0.810898 0.645896 0.10932
H_ H_ 0.628254 0.812541 0.633201 0.10932
H_ H_ 0.890676 0.686669 0.638025 0.10932
H_ H_ 0.62874 0.809503 0.55288 0.10932
H_ H_ 0.887243 0.690703 0.553579 0.10932
H_ H_ 0.637605 0.676586 0.567092 0.10932
H_ H_ 0.872761 0.819713 0.57008 0.10932
C_ C_ 0.566912 0.852956 0.743071 -0.02249
C_ C_ 0.816553 0.849714 0.74976 -0.02249
C_ C_ 0.514268 0.966558 0.736468 -0.02249
C_ C_ 0.76599 0.9651 0.748691 -0.02249
C_ C_ 0.535442 0.900338 0.70211 -0.11473
C_ C_ 0.779198 0.897049 0.715396 -0.11473
C_ C_ 0.56269 0.876835 0.777877 -0.11473
C_ C_ 0.814976 0.874198 0.786805 -0.11473
C_ C_ 0.552549 0.863162 0.704123 -0.11473
C_ C_ 0.798558 0.860733 0.715759 -0.11473
C_ C_ 0.531711 0.926251 0.738062 -0.02249
C_ C_ 0.782693 0.924277 0.748279 -0.02249
C_ C_ 0.589129 0.816364 0.74352 0.6875
C_ C_ 0.837725 0.813939 0.749478 0.6875
C_ C_ 0.5484 0.914515 0.774668 -0.11473
C_ C_ 0.799533 0.912694 0.784952 -0.11473
C_ C_ 0.689299 0.850504 0.743166 -0.02249
C_ C_ 0.935994 0.850318 0.742939 -0.02249
C_ C_ 0.73446 0.968697 0.751818 -0.02249
C_ C_ 0.985305 0.967922 0.744353 -0.02249
C_ C_ 0.71668 0.902617 0.784249 -0.11473
C_ C_ 0.964503 0.904501 0.780991 -0.11473
C_ C_ 0.687519 0.877777 0.709702 -0.11473
C_ C_ 0.93847 0.875309 0.70667 -0.11473
C_ C_ 0.702166 0.865253 0.781655 -0.11473
C_ C_ 0.950832 0.865756 0.781355 -0.11473
C_ C_ 0.716234 0.929953 0.749825 -0.02249
C_ C_ 0.96678 0.928653 0.742871 -0.02249
C_ C_ 0.667481 0.81582 0.744325 0.6875
C_ C_ 0.915105 0.813627 0.743335 0.6875
C_ C_ 0.700676 0.917838 0.712357 -0.11473
C_ C_ 0.951165 0.914834 0.708199 -0.11473
C_ C_ 0.68646 0.653493 0.754264 -0.02249
C_ C_ 0.935931 0.651925 0.75049 -0.02249
C_ C_ 0.735496 0.541507 0.763149 -0.02249
C_ C_ 0.985987 0.53652 0.75561 -0.02249
C_ C_ 0.707967 0.59863 0.796069 -0.11473
C_ C_ 0.954365 0.592397 0.788532 -0.11473
C_ C_ 0.699474 0.635192 0.717746 -0.11473
C_ C_ 0.947556 0.632193 0.712821 -0.11473
C_ C_ 0.693424 0.638076 0.794683 -0.11473
C_ C_ 0.940194 0.630499 0.787635 -0.11473
C_ C_ 0.718601 0.578679 0.760258 -0.02249
C_ C_ 0.966653 0.573668 0.75242 -0.02249
C_ C_ 0.665844 0.692188 0.749859 0.6875
C_ C_ 0.916867 0.689698 0.748651 0.6875
C_ C_ 0.716678 0.600294 0.723291 -0.11473
C_ C_ 0.965446 0.595158 0.715567 -0.11473
C_ C_ 0.570702 0.655081 0.741278 -0.02249
C_ C_ 0.820438 0.652486 0.756885 -0.02249
C_ C_ 0.516813 0.541148 0.732993 -0.02249
C_ C_ 0.767283 0.540415 0.755999 -0.02249
C_ C_ 0.542136 0.605333 0.69959 -0.11473
C_ C_ 0.79965 0.591632 0.719656 -0.11473
C_ C_ 0.567568 0.63002 0.777671 -0.11473
C_ C_ 0.800446 0.643181 0.790025 -0.11473
C_ C_ 0.55728 0.643017 0.701863 -0.11473
C_ C_ 0.819528 0.626466 0.720936 -0.11473
C_ C_ 0.537063 0.580386 0.736021 -0.02249
C_ C_ 0.783873 0.580001 0.755207 -0.02249
C_ C_ 0.589607 0.693941 0.743558 0.6875
C_ C_ 0.839059 0.690938 0.755693 0.6875
C_ C_ 0.549769 0.592831 0.774757 -0.11473
C_ C_ 0.786483 0.605151 0.791303 -0.11473
C_ C_ 0.615182 0.718863 0.873471 0.17695
C_ C_ 0.864761 0.722842 0.877172 0.17695
C_ C_ 0.631294 0.789705 0.872392 0.17695
C_ C_ 0.894283 0.784101 0.87718 0.17695
C_ C_ 0.626441 0.791837 0.914884 -0.11473
C_ C_ 0.897097 0.782711 0.920244 -0.11473
C_ C_ 0.617596 0.757072 0.939371 0.23465
C_ C_ 0.881177 0.75508 0.943327 0.23465
C_ C_ 0.609653 0.720525 0.915989 -0.11473
C_ C_ 0.865658 0.722543 0.920513 -0.11473
C_ C_ 0.632536 0.711299 0.623141 0.17695
C_ C_ 0.869038 0.785479 0.625949 0.17695
C_ C_ 0.628793 0.783427 0.615427 0.17695
C_ C_ 0.884724 0.714822 0.620077 0.17695
C_ C_ 0.629156 0.780785 0.57103 -0.11473
C_ C_ 0.882559 0.716889 0.575646 -0.11473
C_ C_ 0.628275 0.741573 0.552854 0.23465
C_ C_ 0.875475 0.754541 0.556556 0.23465
C_ C_ 0.634767 0.707427 0.580455 -0.11473
C_ C_ 0.871832 0.789556 0.581886 -0.11473
C_ C_ 0.530228 0.00500026 0.735887 0.05793
C_ C_ 0.782054 0.00293953 0.743946 0.05793
C_ C_ 0.718878 0.505425 0.762762 0.05793
C_ C_ 0.972652 0.496334 0.761612 0.05793
Br Br 0.573172 0.0016747 0.725446 -0.17191
Br Br 0.826623 0.999958 0.737263 -0.17191
Br Br 0.675155 0.506714 0.764006 -0.17191
Br Br 0.93155 0.494115 0.778324 -0.17191
N_ N_ 0.62559 0.752779 0.852456 -0.272
N_ N_ 0.879529 0.753003 0.857127 -0.272
N_ N_ 0.610504 0.761043 0.983529 -0.12501
N_ N_ 0.883176 0.756985 0.989112 -0.12501
N_ N_ 0.630229 0.74961 0.640316 -0.272
N_ N_ 0.874043 0.747199 0.64268 -0.272
N_ N_ 0.630437 0.733567 0.508382 -0.12501
N_ N_ 0.877958 0.759934 0.511858 -0.12501
O_ O_ 0.597724 0.802563 0.708623 -0.60745
O_ O_ 0.847871 0.796379 0.716586 -0.60745
O_ O_ 0.598657 0.800649 0.777032 -0.60745
O_ O_ 0.846878 0.799077 0.784948 -0.60745
O_ O_ 0.657945 0.803041 0.779278 -0.60745
O_ O_ 0.908236 0.798627 0.779393 -0.60745
O_ O_ 0.658316 0.797624 0.71119 -0.60745
O_ O_ 0.90879 0.793976 0.710219 -0.60745
O_ O_ 0.655749 0.709929 0.782621 -0.60745
O_ O_ 0.910449 0.709701 0.782503 -0.60745
O_ O_ 0.660325 0.708921 0.713934 -0.60745
O_ O_ 0.908065 0.705113 0.71397 -0.60745
O_ O_ 0.598675 0.70858 0.709452 -0.60745
O_ O_ 0.848485 0.702898 0.720054 -0.60745
O_ O_ 0.597829 0.710041 0.778144 -0.60745
O_ O_ 0.849182 0.706095 0.790179 -0.60745
_cell_length_a 44.444
_cell_length_b 32.3360000049186
_cell_length_c 31.843999878906452
_cell_angle_alpha 89.99799923859553
_cell_angle_beta 91.13600050494348
_cell_angle_gamma 89.9990006550086
_symmetry_space_group_name_H-M         'P 1'
_symmetry_Int_Tables_number            1
loop_
_symmetry_equiv_pos_as_xyz
   'x, y, z'
                         
loop_
_atom_site_label
_atom_site_type_symbol
_atom_site_fract_x 
_atom_site_fract_y
_atom_site_fract_z
_atom_site_charge
Zn Zn 0.121831 0.247528 0.286863 0.9476
Zn Zn 0.375488 0.250561 0.291503 0.9476
Zn Zn 0.12231 0.247912 0.2155 0.9476
Zn Zn 0.374304 0.246011 0.222351 0.9476
H_ H_ 0.0273975 0.413622 0.186982 0.10932
H_ H_ 0.27896 0.41153 0.189181 0.10932
H_ H_ 0.0586597 0.346049 0.321713 0.10932
H_ H_ 0.317736 0.35272 0.322761 0.10932
H_ H_ 0.0534564 0.348903 0.186733 0.10932
H_ H_ 0.306351 0.345396 0.18887 0.10932
H_ H_ 0.0339971 0.415275 0.322428 0.10932
H_ H_ 0.284549 0.412248 0.323681 0.10932
H_ H_ 0.227266 0.396984 0.322336 0.10932
H_ H_ 0.477996 0.408866 0.318639 0.10932
H_ H_ 0.16917 0.36753 0.193319 0.10932
H_ H_ 0.422055 0.364805 0.190236 0.10932
H_ H_ 0.2023 0.328303 0.3128 0.10932
H_ H_ 0.442826 0.348368 0.321079 0.10932
H_ H_ 0.189755 0.435675 0.202789 0.10932
H_ H_ 0.456865 0.425089 0.18657 0.10932
H_ H_ 0.191921 0.0597032 0.304081 0.10932
H_ H_ 0.459635 0.0705678 0.315147 0.10932
H_ H_ 0.204974 0.15964 0.191559 0.10932
H_ H_ 0.443496 0.155567 0.188972 0.10932
H_ H_ 0.170238 0.127181 0.311591 0.10932
H_ H_ 0.436747 0.139536 0.321865 0.10932
H_ H_ 0.232708 0.0959476 0.189023 0.10932
H_ H_ 0.465095 0.0850136 0.181062 0.10932
H_ H_ 0.0462123 0.0653674 0.1834 0.10932
H_ H_ 0.293452 0.0677618 0.185865 0.10932
H_ H_ 0.0463791 0.14955 0.310973 0.10932
H_ H_ 0.304364 0.151128 0.316963 0.10932
H_ H_ 0.0736262 0.13303 0.185285 0.10932
H_ H_ 0.319174 0.137467 0.187309 0.10932
H_ H_ 0.0243556 0.0843756 0.313217 0.10932
H_ H_ 0.274829 0.0857965 0.316105 0.10932
H_ H_ 0.112957 0.190887 0.366321 0.10932
H_ H_ 0.406092 0.295876 0.365859 0.10932
H_ H_ 0.127665 0.319803 0.356495 0.10932
H_ H_ 0.345915 0.193844 0.363937 0.10932
H_ H_ 0.128522 0.326237 0.430621 0.10932
H_ H_ 0.344714 0.195725 0.442185 0.10932
H_ H_ 0.119182 0.196591 0.444328 0.10932
H_ H_ 0.408544 0.296678 0.440703 0.10932
H_ H_ 0.111436 0.314615 0.147927 0.10932
H_ H_ 0.366455 0.184776 0.153153 0.10932
H_ H_ 0.13715 0.188931 0.135561 0.10932
H_ H_ 0.384898 0.311128 0.13485 0.10932
H_ H_ 0.123903 0.190796 0.0581023 0.10932
H_ H_ 0.382226 0.305419 0.0617433 0.10932
H_ H_ 0.109668 0.321777 0.0708494 0.10932
H_ H_ 0.366175 0.175287 0.073798 0.10932
C_ C_ 0.0566524 0.339812 0.254432 -0.02249
C_ C_ 0.313352 0.342327 0.256027 -0.02249
C_ C_ 0.0121316 0.46229 0.256848 -0.02249
C_ C_ 0.264059 0.457955 0.258102 -0.02249
C_ C_ 0.033008 0.398725 0.217605 -0.11473
C_ C_ 0.288897 0.3986 0.218768 -0.11473
C_ C_ 0.0514995 0.359789 0.292438 -0.11473
C_ C_ 0.309948 0.365285 0.292436 -0.11473
C_ C_ 0.0472413 0.361286 0.217007 -0.11473
C_ C_ 0.304389 0.361661 0.217967 -0.11473
C_ C_ 0.0273518 0.420454 0.25639 -0.02249
C_ C_ 0.282268 0.419146 0.256215 -0.02249
C_ C_ 0.0763121 0.302228 0.253001 0.6875
C_ C_ 0.331637 0.304643 0.255953 0.6875
C_ C_ 0.0371132 0.3991 0.293125 -0.11473
C_ C_ 0.292485 0.400179 0.293853 -0.11473
C_ C_ 0.179891 0.345272 0.255138 -0.02249
C_ C_ 0.432744 0.348285 0.255669 -0.02249
C_ C_ 0.232803 0.457769 0.265535 -0.02249
C_ C_ 0.486046 0.459333 0.251825 -0.02249
C_ C_ 0.216888 0.389419 0.29161 -0.11473
C_ C_ 0.466994 0.397132 0.290198 -0.11473
C_ C_ 0.180916 0.374386 0.222228 -0.11473
C_ C_ 0.435958 0.370588 0.217915 -0.11473
C_ C_ 0.1999 0.351664 0.288761 -0.11473
C_ C_ 0.448325 0.362108 0.292281 -0.11473
C_ C_ 0.214541 0.41935 0.260509 -0.02249
C_ C_ 0.467762 0.4205 0.254273 -0.02249
C_ C_ 0.161389 0.306241 0.249884 0.6875
C_ C_ 0.411661 0.310002 0.255774 0.6875
C_ C_ 0.195139 0.412576 0.225165 -0.11473
C_ C_ 0.455387 0.405875 0.216134 -0.11473
C_ C_ 0.183026 0.150925 0.252235 -0.02249
C_ C_ 0.435257 0.150969 0.254143 -0.02249
C_ C_ 0.235001 0.0341727 0.24489 -0.02249
C_ C_ 0.483531 0.0351288 0.245356 -0.02249
C_ C_ 0.196511 0.0825652 0.279894 -0.11473
C_ C_ 0.455807 0.0895266 0.286954 -0.11473
C_ C_ 0.201979 0.139675 0.217234 -0.11473
C_ C_ 0.444159 0.134938 0.215543 -0.11473
C_ C_ 0.181673 0.121088 0.282529 -0.11473
C_ C_ 0.44097 0.12825 0.29016 -0.11473
C_ C_ 0.217303 0.0738011 0.249744 -0.02249
C_ C_ 0.465049 0.074341 0.247609 -0.02249
C_ C_ 0.162455 0.188075 0.250687 0.6875
C_ C_ 0.416356 0.189435 0.257527 0.6875
C_ C_ 0.220614 0.104049 0.2177 -0.11473
C_ C_ 0.459524 0.0965543 0.212008 -0.11473
C_ C_ 0.0655187 0.145188 0.251299 -0.02249
C_ C_ 0.316883 0.147333 0.253527 -0.02249
C_ C_ 0.0141858 0.0290386 0.246103 -0.02249
C_ C_ 0.266045 0.0328556 0.248868 -0.02249
C_ C_ 0.0480492 0.0822462 0.212961 -0.11473
C_ C_ 0.296187 0.0873847 0.214641 -0.11473
C_ C_ 0.0513571 0.129804 0.285388 -0.11473
C_ C_ 0.305407 0.131687 0.290577 -0.11473
C_ C_ 0.0654382 0.119432 0.214239 -0.11473
C_ C_ 0.312177 0.125262 0.216499 -0.11473
C_ C_ 0.0339317 0.0667757 0.248009 -0.02249
C_ C_ 0.283213 0.0718076 0.252166 -0.02249
C_ C_ 0.0843848 0.184095 0.254955 0.6875
C_ C_ 0.337797 0.184637 0.25478 0.6875
C_ C_ 0.0361523 0.0927118 0.284469 -0.11473
C_ C_ 0.287745 0.0950836 0.289822 -0.11473
C_ C_ 0.120472 0.219559 0.380454 0.17695
C_ C_ 0.391275 0.274106 0.380911 0.17695
C_ C_ 0.127878 0.291667 0.375047 0.17695
C_ C_ 0.357182 0.216904 0.381668 0.17695
C_ C_ 0.127822 0.295738 0.418124 -0.11473
C_ C_ 0.357242 0.217528 0.424721 -0.11473
C_ C_ 0.125946 0.262796 0.444057 0.23465
C_ C_ 0.375487 0.244829 0.44752 0.23465
C_ C_ 0.123052 0.223171 0.424712 -0.11473
C_ C_ 0.395302 0.271613 0.42562 -0.11473
C_ C_ 0.116874 0.288439 0.128504 0.17695
C_ C_ 0.36957 0.211007 0.132158 0.17695
C_ C_ 0.124823 0.216727 0.121975 0.17695
C_ C_ 0.376721 0.281947 0.123361 0.17695
C_ C_ 0.120552 0.219023 0.0775359 -0.11473
C_ C_ 0.37751 0.279197 0.0798457 -0.11473
C_ C_ 0.116905 0.25857 0.0578987 0.23465
C_ C_ 0.371839 0.239958 0.0616472 0.23465
C_ C_ 0.115225 0.292917 0.0845424 -0.11473
C_ C_ 0.366693 0.205821 0.0878103 -0.11473
C_ C_ 0.0282732 0.498636 0.258258 0.05793
C_ C_ 0.279047 0.495619 0.251901 0.05793
C_ C_ 0.219279 -0.003607000000000027 0.241114 0.05793
C_ C_ 0.467709 0.997842 0.241962 0.05793
Br Br 0.0709728 0.494996 0.261562 -0.17191
Br Br 0.320881 0.498228 0.237594 -0.17191
Br Br 0.177261 -0.0008089999999999486 0.230481 -0.17191
Br Br 0.425321 0.999153 0.234912 -0.17191
N_ N_ 0.125028 0.253696 0.356626 -0.272
N_ N_ 0.374848 0.245699 0.360811 -0.272
N_ N_ 0.132625 0.265226 0.487658 -0.12501
N_ N_ 0.378735 0.240408 0.493049 -0.12501
N_ N_ 0.119273 0.251367 0.146387 -0.272
N_ N_ 0.374905 0.247995 0.14948 -0.272
N_ N_ 0.116362 0.263387 0.0126511 -0.12501
N_ N_ 0.371803 0.235646 0.0169356 -0.12501
O_ O_ 0.0865697 0.290558 0.217407 -0.60745
O_ O_ 0.338675 0.285794 0.224259 -0.60745
O_ O_ 0.0888006 0.289504 0.28883 -0.60745
O_ O_ 0.346584 0.297293 0.28988 -0.60745
O_ O_ 0.151456 0.289185 0.282299 -0.60745
O_ O_ 0.411374 0.289297 0.288878 -0.60745
O_ O_ 0.152791 0.293317 0.214306 -0.60745
O_ O_ 0.401597 0.294371 0.221613 -0.60745
O_ O_ 0.155143 0.204544 0.285805 -0.60745
O_ O_ 0.405665 0.201271 0.292387 -0.60745
O_ O_ 0.158167 0.208635 0.216816 -0.60745
O_ O_ 0.406018 0.204774 0.224664 -0.60745
O_ O_ 0.0918847 0.202217 0.222118 -0.60745
O_ O_ 0.346255 0.2008 0.220443 -0.60745
O_ O_ 0.0928186 0.200419 0.29027 -0.60745
O_ O_ 0.345028 0.202056 0.289941 -0.60745
Zn Zn 0.127278 0.255175 0.788182 0.9476
Zn Zn 0.379596 0.255025 0.789307 0.9476
Zn Zn 0.1288 0.252098 0.716867 0.9476
Zn Zn 0.37528 0.253677 0.718956 0.9476
H_ H_ 0.0360424 0.413704 0.686318 0.10932
H_ H_ 0.297646 0.433773 0.688557 0.10932
H_ H_ 0.0817212 0.360685 0.821925 0.10932
H_ H_ 0.309531 0.34748 0.816915 0.10932
H_ H_ 0.0665801 0.347304 0.688228 0.10932
H_ H_ 0.324144 0.366774 0.682791 0.10932
H_ H_ 0.0473231 0.425015 0.819029 0.10932
H_ H_ 0.283377 0.411802 0.821172 0.10932
H_ H_ 0.223168 0.41405 0.823931 0.10932
H_ H_ 0.466333 0.42615 0.816648 0.10932
H_ H_ 0.186168 0.359533 0.687418 0.10932
H_ H_ 0.438242 0.354227 0.686522 0.10932
H_ H_ 0.191701 0.347972 0.822648 0.10932
H_ H_ 0.443949 0.356321 0.822134 0.10932
H_ H_ 0.214197 0.424824 0.691566 0.10932
H_ H_ 0.458719 0.426292 0.68287 0.10932
H_ H_ 0.224663 0.0948191 0.829031 0.10932
H_ H_ 0.475309 0.0913994 0.818776 0.10932
H_ H_ 0.1892 0.15087 0.688619 0.10932
H_ H_ 0.438769 0.156395 0.684254 0.10932
H_ H_ 0.19224 0.155191 0.823877 0.10932
H_ H_ 0.451342 0.161678 0.817339 0.10932
H_ H_ 0.217906 0.0827256 0.690118 0.10932
H_ H_ 0.464165 0.0869195 0.6852 0.10932
H_ H_ 0.0284146 0.0989293 0.679531 0.10932
H_ H_ 0.286028 0.0909537 0.685624 0.10932
H_ H_ 0.071768 0.14384 0.813051 0.10932
H_ H_ 0.320586 0.144481 0.824398 0.10932
H_ H_ 0.0583078 0.162603 0.680466 0.10932
H_ H_ 0.314728 0.154771 0.689209 0.10932
H_ H_ 0.0543482 0.0718904 0.804446 0.10932
H_ H_ 0.297882 0.074362 0.816929 0.10932
H_ H_ 0.105723 0.30694 0.863096 0.10932
H_ H_ 0.35829 0.316567 0.858602 0.10932
H_ H_ 0.143889 0.185542 0.857054 0.10932
H_ H_ 0.392319 0.194584 0.870373 0.10932
H_ H_ 0.137404 0.179259 0.934886 0.10932
H_ H_ 0.392331 0.200326 0.949202 0.10932
H_ H_ 0.0956969 0.298224 0.937089 0.10932
H_ H_ 0.355644 0.323395 0.934338 0.10932
H_ H_ 0.118355 0.190426 0.643266 0.10932
H_ H_ 0.375754 0.190874 0.642493 0.10932
H_ H_ 0.139984 0.315197 0.636635 0.10932
H_ H_ 0.372617 0.319118 0.652062 0.10932
H_ H_ 0.138064 0.311579 0.561197 0.10932
H_ H_ 0.377703 0.329847 0.574503 0.10932
H_ H_ 0.110706 0.184992 0.568146 0.10932
H_ H_ 0.379553 0.195383 0.565907 0.10932
C_ C_ 0.0753194 0.351359 0.755577 -0.02249
C_ C_ 0.321859 0.354198 0.751113 -0.02249
C_ C_ 0.0209039 0.463788 0.755074 -0.02249
C_ C_ 0.267626 0.464768 0.752176 -0.02249
C_ C_ 0.0434839 0.401573 0.716509 -0.11473
C_ C_ 0.301756 0.414961 0.715806 -0.11473
C_ C_ 0.0714029 0.375084 0.791875 -0.11473
C_ C_ 0.30799 0.366667 0.787201 -0.11473
C_ C_ 0.0610848 0.365246 0.71765 -0.11473
C_ C_ 0.31756 0.377708 0.713598 -0.11473
C_ C_ 0.039872 0.425875 0.754135 -0.02249
C_ C_ 0.284735 0.424572 0.752254 -0.02249
C_ C_ 0.0897522 0.311298 0.75583 0.6875
C_ C_ 0.338647 0.312778 0.750017 0.6875
C_ C_ 0.054726 0.412125 0.790109 -0.11473
C_ C_ 0.289879 0.401196 0.789593 -0.11473
C_ C_ 0.187171 0.348571 0.754651 -0.02249
C_ C_ 0.437978 0.35093 0.754167 -0.02249
C_ C_ 0.235972 0.464176 0.755916 -0.02249
C_ C_ 0.483813 0.470157 0.749158 -0.02249
C_ C_ 0.214207 0.401335 0.79489 -0.11473
C_ C_ 0.460141 0.411423 0.789037 -0.11473
C_ C_ 0.197378 0.366215 0.716695 -0.11473
C_ C_ 0.445063 0.369846 0.71432 -0.11473
C_ C_ 0.196109 0.364374 0.794718 -0.11473
C_ C_ 0.44513 0.372808 0.790366 -0.11473
C_ C_ 0.220391 0.423181 0.757753 -0.02249
C_ C_ 0.4656 0.430679 0.749768 -0.02249
C_ C_ 0.169338 0.309005 0.755011 0.6875
C_ C_ 0.417227 0.313967 0.75549 0.6875
C_ C_ 0.209348 0.408246 0.71858 -0.11473
C_ C_ 0.458388 0.409811 0.712463 -0.11473
C_ C_ 0.187211 0.156218 0.756819 -0.02249
C_ C_ 0.437616 0.159583 0.751886 -0.02249
C_ C_ 0.238527 0.0440859 0.760809 -0.02249
C_ C_ 0.484713 0.0437481 0.749387 -0.02249
C_ C_ 0.217019 0.108064 0.797379 -0.11473
C_ C_ 0.46601 0.104051 0.790107 -0.11473
C_ C_ 0.19375 0.13601 0.718568 -0.11473
C_ C_ 0.445493 0.140026 0.713048 -0.11473
C_ C_ 0.200186 0.143665 0.795406 -0.11473
C_ C_ 0.448205 0.140942 0.790894 -0.11473
C_ C_ 0.220319 0.0818237 0.759094 -0.02249
C_ C_ 0.469188 0.0841218 0.753044 -0.02249
C_ C_ 0.167008 0.192337 0.752992 0.6875
C_ C_ 0.41817 0.195116 0.752746 0.6875
C_ C_ 0.21097 0.0981038 0.719665 -0.11473
C_ C_ 0.457777 0.100571 0.714394 -0.11473
C_ C_ 0.0675397 0.15787 0.746491 -0.02249
C_ C_ 0.321237 0.154365 0.754847 -0.02249
C_ C_ 0.0221652 0.041512 0.739756 -0.02249
C_ C_ 0.269478 0.0429703 0.750229 -0.02249
C_ C_ 0.0399176 0.106541 0.706525 -0.11473
C_ C_ 0.291799 0.102304 0.715021 -0.11473
C_ C_ 0.0665711 0.131483 0.782052 -0.11473
C_ C_ 0.313893 0.132184 0.792527 -0.11473
C_ C_ 0.0528381 0.145107 0.70863 -0.11473
C_ C_ 0.310403 0.137496 0.71658 -0.11473
C_ C_ 0.0416539 0.0790593 0.74133 -0.02249
C_ C_ 0.287906 0.0800174 0.75094 -0.02249
C_ C_ 0.0873024 0.19783 0.748003 0.6875
C_ C_ 0.335885 0.1953 0.75606 0.6875
C_ C_ 0.0543898 0.0921804 0.778574 -0.11473
C_ C_ 0.299594 0.0935794 0.790104 -0.11473
C_ C_ 0.113606 0.279437 0.879635 0.17695
C_ C_ 0.361917 0.289314 0.876859 0.17695
C_ C_ 0.135101 0.212457 0.875158 0.17695
C_ C_ 0.38478 0.222336 0.886238 0.17695
C_ C_ 0.132305 0.208733 0.920088 -0.11473
C_ C_ 0.382891 0.225766 0.931282 -0.11473
C_ C_ 0.118175 0.240235 0.943246 0.23465
C_ C_ 0.369346 0.260873 0.950279 0.23465
C_ C_ 0.10526 0.2731 0.920926 -0.11473
C_ C_ 0.357789 0.29247 0.922106 -0.11473
C_ C_ 0.120332 0.215933 0.625027 0.17695
C_ C_ 0.374885 0.220667 0.625051 0.17695
C_ C_ 0.130959 0.288027 0.622018 0.17695
C_ C_ 0.376264 0.293385 0.632318 0.17695
C_ C_ 0.128931 0.286853 0.578833 -0.11473
C_ C_ 0.378041 0.297868 0.588564 -0.11473
C_ C_ 0.122618 0.249611 0.557933 0.23465
C_ C_ 0.379764 0.263436 0.562498 0.23465
C_ C_ 0.116392 0.214812 0.581571 -0.11473
C_ C_ 0.377413 0.223919 0.582563 -0.11473
C_ C_ 0.0346963 0.502319 0.750699 0.05793
C_ C_ 0.281319 0.502429 0.742812 0.05793
C_ C_ 0.221613 0.00538726 0.75914 0.05793
C_ C_ 0.467462 1.00588422 0.749058 0.05793
Br Br 0.077262 0.507398 0.740948 -0.17191
Br Br 0.324113 0.503804 0.748907 -0.17191
Br Br 0.178587 0.00604789 0.777129 -0.17191
Br Br 0.425719 1.00962857 0.752838 -0.17191
N_ N_ 0.126873 0.248948 0.856927 -0.272
N_ N_ 0.377801 0.256788 0.860698 -0.272
N_ N_ 0.11361 0.233693 0.988177 -0.12501
N_ N_ 0.367674 0.265745 0.993537 -0.12501
N_ N_ 0.126955 0.252417 0.64554 -0.272
N_ N_ 0.375271 0.254966 0.648682 -0.272
N_ N_ 0.118803 0.245095 0.514038 -0.12501
N_ N_ 0.381833 0.270308 0.518296 -0.12501
O_ O_ 0.103351 0.299258 0.72224 -0.60745
O_ O_ 0.342636 0.294252 0.715545 -0.60745
O_ O_ 0.0955684 0.292847 0.789791 -0.60745
O_ O_ 0.349176 0.297677 0.783839 -0.60745
O_ O_ 0.158045 0.297801 0.788398 -0.60745
O_ O_ 0.40796 0.300673 0.789368 -0.60745
O_ O_ 0.165979 0.288433 0.721972 -0.60745
O_ O_ 0.403412 0.301469 0.723159 -0.60745
O_ O_ 0.159927 0.21098 0.78797 -0.60745
O_ O_ 0.412914 0.212016 0.788408 -0.60745
O_ O_ 0.153082 0.200768 0.717217 -0.60745
O_ O_ 0.407479 0.213247 0.719947 -0.60745
O_ O_ 0.0931739 0.216194 0.713946 -0.60745
O_ O_ 0.346554 0.208892 0.721727 -0.60745
O_ O_ 0.0979094 0.211492 0.782594 -0.60745
O_ O_ 0.347887 0.208079 0.790682 -0.60745
Zn Zn 0.124723 0.753404 0.287946 0.9476
Zn Zn 0.375822 0.74372 0.280019 0.9476
Zn Zn 0.125868 0.744721 0.218382 0.9476
Zn Zn 0.374043 0.744213 0.209618 0.9476
H_ H_ 0.0426777 0.915414 0.180033 0.10932
H_ H_ 0.284754 0.914033 0.183213 0.10932
H_ H_ 0.0412105 0.833721 0.312475 0.10932
H_ H_ 0.306583 0.837046 0.31272 0.10932
H_ H_ 0.0773629 0.860441 0.18977 0.10932
H_ H_ 0.312694 0.846782 0.180401 0.10932
H_ H_ 0.0164824 0.903788 0.310849 0.10932
H_ H_ 0.288846 0.909307 0.320118 0.10932
H_ H_ 0.22628 0.913614 0.311232 0.10932
H_ H_ 0.452106 0.928041 0.307237 0.10932
H_ H_ 0.177088 0.857169 0.182931 0.10932
H_ H_ 0.431847 0.851946 0.175654 0.10932
H_ H_ 0.195405 0.849961 0.314538 0.10932
H_ H_ 0.429125 0.855924 0.311723 0.10932
H_ H_ 0.210361 0.915716 0.17996 0.10932
H_ H_ 0.468266 0.90825 0.175452 0.10932
H_ H_ 0.211596 0.581142 0.326357 0.10932
H_ H_ 0.462723 0.576729 0.307264 0.10932
H_ H_ 0.180982 0.637933 0.18995 0.10932
H_ H_ 0.440458 0.646047 0.174544 0.10932
H_ H_ 0.188732 0.648303 0.327298 0.10932
H_ H_ 0.435823 0.642386 0.306701 0.10932
H_ H_ 0.207721 0.578518 0.192009 0.10932
H_ H_ 0.473605 0.584582 0.174293 0.10932
H_ H_ 0.0501584 0.568784 0.195314 0.10932
H_ H_ 0.292609 0.566468 0.18382 0.10932
H_ H_ 0.0447268 0.667049 0.313786 0.10932
H_ H_ 0.316339 0.643755 0.310798 0.10932
H_ H_ 0.081208 0.627879 0.195489 0.10932
H_ H_ 0.318246 0.635539 0.177978 0.10932
H_ H_ 0.024191 0.596547 0.324249 0.10932
H_ H_ 0.282935 0.58525 0.313897 0.10932
H_ H_ 0.122724 0.814594 0.357068 0.10932
H_ H_ 0.356859 0.801084 0.353634 0.10932
H_ H_ 0.11871 0.683216 0.362855 0.10932
H_ H_ 0.382019 0.677395 0.347079 0.10932
H_ H_ 0.117131 0.689478 0.441557 0.10932
H_ H_ 0.377896 0.672046 0.426771 0.10932
H_ H_ 0.118099 0.818919 0.433622 0.10932
H_ H_ 0.361084 0.804697 0.430373 0.10932
H_ H_ 0.131093 0.682312 0.139911 0.10932
H_ H_ 0.371896 0.813573 0.142206 0.10932
H_ H_ 0.111192 0.808417 0.147953 0.10932
H_ H_ 0.372748 0.68618 0.12922 0.10932
H_ H_ 0.103115 0.812189 0.0696394 0.10932
H_ H_ 0.364697 0.695844 0.0495207 0.10932
H_ H_ 0.132966 0.686595 0.0613788 0.10932
H_ H_ 0.375543 0.826767 0.0622767 0.10932
C_ C_ 0.0624872 0.841497 0.248888 -0.02249
C_ C_ 0.314573 0.838702 0.247953 -0.02249
C_ C_ 0.0112066 0.952666 0.2441 -0.02249
C_ C_ 0.265919 0.956724 0.249685 -0.02249
C_ C_ 0.0420525 0.896887 0.208328 -0.11473
C_ C_ 0.292063 0.899978 0.212181 -0.11473
C_ C_ 0.0433654 0.852487 0.283773 -0.11473
C_ C_ 0.307487 0.857011 0.287212 -0.11473
C_ C_ 0.0601388 0.862444 0.211308 -0.11473
C_ C_ 0.307385 0.862186 0.210529 -0.11473
C_ C_ 0.0260526 0.910814 0.243154 -0.02249
C_ C_ 0.28363 0.917013 0.250743 -0.02249
C_ C_ 0.083527 0.806085 0.252679 0.6875
C_ C_ 0.336237 0.804036 0.245943 0.6875
C_ C_ 0.0277397 0.890388 0.281991 -0.11473
C_ C_ 0.293393 0.896967 0.288153 -0.11473
C_ C_ 0.185492 0.845404 0.251347 -0.02249
C_ C_ 0.4286 0.846442 0.243852 -0.02249
C_ C_ 0.235129 0.958452 0.243234 -0.02249
C_ C_ 0.48245 0.958924 0.241205 -0.02249
C_ C_ 0.214916 0.89971 0.283815 -0.11473
C_ C_ 0.450937 0.906898 0.279114 -0.11473
C_ C_ 0.189778 0.865609 0.2112 -0.11473
C_ C_ 0.439162 0.863382 0.204968 -0.11473
C_ C_ 0.198208 0.863239 0.286202 -0.11473
C_ C_ 0.436471 0.868269 0.281308 -0.11473
C_ C_ 0.218629 0.919291 0.245291 -0.02249
C_ C_ 0.464727 0.919126 0.242146 -0.02249
C_ C_ 0.166722 0.807256 0.25374 0.6875
C_ C_ 0.413787 0.803896 0.245715 0.6875
C_ C_ 0.206391 0.901373 0.209955 -0.11473
C_ C_ 0.459716 0.89677 0.20488 -0.11473
C_ C_ 0.182672 0.653493 0.257714 -0.02249
C_ C_ 0.437807 0.649069 0.240779 -0.02249
C_ C_ 0.232766 0.534206 0.260389 -0.02249
C_ C_ 0.485653 0.535255 0.244068 -0.02249
C_ C_ 0.207887 0.59799 0.297548 -0.11473
C_ C_ 0.46424 0.595407 0.279913 -0.11473
C_ C_ 0.187095 0.629277 0.222464 -0.11473
C_ C_ 0.44508 0.630367 0.203364 -0.11473
C_ C_ 0.192899 0.635563 0.295603 -0.11473
C_ C_ 0.446939 0.630117 0.278246 -0.11473
C_ C_ 0.215359 0.575636 0.260714 -0.02249
C_ C_ 0.471677 0.575447 0.241781 -0.02249
C_ C_ 0.168251 0.694156 0.257307 0.6875
C_ C_ 0.417119 0.68566 0.241342 0.6875
C_ C_ 0.205228 0.593615 0.22228 -0.11473
C_ C_ 0.463275 0.595121 0.202772 -0.11473
C_ C_ 0.0702654 0.648959 0.257443 -0.02249
C_ C_ 0.318515 0.64483 0.242717 -0.02249
C_ C_ 0.0132676 0.537612 0.262574 -0.02249
C_ C_ 0.263826 0.533762 0.252481 -0.02249
C_ C_ 0.0473046 0.58979 0.22162 -0.11473
C_ C_ 0.292386 0.587413 0.209824 -0.11473
C_ C_ 0.0499389 0.641694 0.291962 -0.11473
C_ C_ 0.30747 0.630188 0.282047 -0.11473
C_ C_ 0.0677193 0.623054 0.222631 -0.11473
C_ C_ 0.307358 0.626362 0.206479 -0.11473
C_ C_ 0.0320218 0.577364 0.258622 -0.02249
C_ C_ 0.280674 0.574412 0.247464 -0.02249
C_ C_ 0.0890742 0.688016 0.255732 0.6875
C_ C_ 0.337925 0.68219 0.242123 0.6875
C_ C_ 0.0327357 0.605474 0.295042 -0.11473
C_ C_ 0.289937 0.595837 0.283332 -0.11473
C_ C_ 0.126497 0.787245 0.375794 0.17695
C_ C_ 0.368574 0.776413 0.371476 0.17695
C_ C_ 0.12375 0.7138 0.379809 0.17695
C_ C_ 0.379624 0.704486 0.367449 0.17695
C_ C_ 0.122016 0.716445 0.424566 -0.11473
C_ C_ 0.375959 0.701746 0.410427 -0.11473
C_ C_ 0.122324 0.755396 0.44519 0.23465
C_ C_ 0.372155 0.738275 0.434855 0.23465
C_ C_ 0.125564 0.789298 0.419834 -0.11473
C_ C_ 0.367839 0.776336 0.415935 -0.11473
C_ C_ 0.130708 0.711299 0.124884 0.17695
C_ C_ 0.373587 0.788553 0.119931 0.17695
C_ C_ 0.120207 0.782326 0.128542 0.17695
C_ C_ 0.373584 0.715919 0.113295 0.17695
C_ C_ 0.113887 0.78583 0.084497 -0.11473
C_ C_ 0.369413 0.720596 0.0690087 -0.11473
C_ C_ 0.119395 0.750893 0.0600581 0.23465
C_ C_ 0.369288 0.760852 0.0494918 0.23465
C_ C_ 0.129165 0.714674 0.0801971 -0.11473
C_ C_ 0.372696 0.795344 0.0770251 -0.11473
C_ C_ 0.0281596 0.989642 0.245894 0.05793
C_ C_ 0.281917 0.994428 0.250883 0.05793
C_ C_ 0.217504 0.496469 0.267599 0.05793
C_ C_ 0.469404 0.498588 0.247379 0.05793
Br Br 0.0701364 -0.015302000000000038 0.252397 -0.17191
Br Br 0.325813 0.996391 0.268785 -0.17191
Br Br 0.178306 0.499485 0.289717 -0.17191
Br Br 0.427486 0.501499 0.253173 -0.17191
N_ N_ 0.127122 0.749533 0.358679 -0.272
N_ N_ 0.376968 0.742384 0.349146 -0.272
N_ N_ 0.119184 0.762867 0.488998 -0.12501
N_ N_ 0.368406 0.735383 0.4799 -0.12501
N_ N_ 0.125272 0.745911 0.147774 -0.272
N_ N_ 0.373858 0.749622 0.136934 -0.272
N_ N_ 0.114336 0.750672 0.0152365 -0.12501
N_ N_ 0.37275 0.765709 0.00450636 -0.12501
O_ O_ 0.0951025 0.789439 0.2209 -0.60745
O_ O_ 0.347523 0.790932 0.210707 -0.60745
O_ O_ 0.0953804 0.797799 0.289577 -0.60745
O_ O_ 0.34173 0.784246 0.279553 -0.60745
O_ O_ 0.159933 0.792266 0.289878 -0.60745
O_ O_ 0.402654 0.791462 0.27949 -0.60745
O_ O_ 0.156315 0.790702 0.220294 -0.60745
O_ O_ 0.405752 0.786468 0.21111 -0.60745
O_ O_ 0.154466 0.704813 0.29007 -0.60745
O_ O_ 0.407532 0.701591 0.276163 -0.60745
O_ O_ 0.158959 0.708022 0.222619 -0.60745
O_ O_ 0.404 0.695257 0.206312 -0.60745
O_ O_ 0.096759 0.702212 0.220335 -0.60745
O_ O_ 0.344765 0.699755 0.20804 -0.60745
O_ O_ 0.0921621 0.710736 0.288163 -0.60745
O_ O_ 0.350641 0.694956 0.275137 -0.60745
Zn Zn 0.12558 0.751392 0.786819 0.9476
Zn Zn 0.377129 0.752514 0.776219 0.9476
Zn Zn 0.125543 0.752097 0.716393 0.9476
Zn Zn 0.372984 0.753149 0.706565 0.9476
H_ H_ 0.0347896 0.916431 0.683159 0.10932
H_ H_ 0.271016 0.913053 0.679605 0.10932
H_ H_ 0.0651672 0.854562 0.816142 0.10932
H_ H_ 0.326916 0.86849 0.808356 0.10932
H_ H_ 0.0590028 0.848037 0.682743 0.10932
H_ H_ 0.29666 0.844498 0.681354 0.10932
H_ H_ 0.0375888 0.922475 0.815995 0.10932
H_ H_ 0.296865 0.92752 0.811288 0.10932
H_ H_ 0.22885 0.90909 0.819463 0.10932
H_ H_ 0.479955 0.912737 0.807109 0.10932
H_ H_ 0.174855 0.865749 0.687089 0.10932
H_ H_ 0.428011 0.864024 0.680607 0.10932
H_ H_ 0.194846 0.848472 0.81809 0.10932
H_ H_ 0.445201 0.852306 0.810446 0.10932
H_ H_ 0.200357 0.929657 0.687275 0.10932
H_ H_ 0.450977 0.932518 0.67913 0.10932
H_ H_ 0.213546 0.583195 0.812896 0.10932
H_ H_ 0.490652 0.609411 0.795738 0.10932
H_ H_ 0.185092 0.647178 0.675787 0.10932
H_ H_ 0.421282 0.64308 0.677782 0.10932
H_ H_ 0.186102 0.647848 0.812499 0.10932
H_ H_ 0.46318 0.674877 0.798747 0.10932
H_ H_ 0.208565 0.580153 0.676014 0.10932
H_ H_ 0.448356 0.577871 0.679827 0.10932
H_ H_ 0.0411712 0.579244 0.688668 0.10932
H_ H_ 0.28251 0.58612 0.676021 0.10932
H_ H_ 0.0605261 0.645144 0.821747 0.10932
H_ H_ 0.319273 0.645687 0.809725 0.10932
H_ H_ 0.0627489 0.648393 0.688937 0.10932
H_ H_ 0.304184 0.655497 0.674889 0.10932
H_ H_ 0.0346315 0.582632 0.818629 0.10932
H_ H_ 0.28853 0.584055 0.81089 0.10932
H_ H_ 0.103373 0.806073 0.867295 0.10932
H_ H_ 0.369286 0.811247 0.854159 0.10932
H_ H_ 0.149593 0.690907 0.859386 0.10932
H_ H_ 0.385235 0.683539 0.84308 0.10932
H_ H_ 0.147528 0.681327 0.930218 0.10932
H_ H_ 0.376553 0.676491 0.923203 0.10932
H_ H_ 0.107792 0.804969 0.944509 0.10932
H_ H_ 0.366722 0.809261 0.930835 0.10932
H_ H_ 0.134744 0.678331 0.645267 0.10932
H_ H_ 0.381126 0.81967 0.636695 0.10932
H_ H_ 0.125037 0.809227 0.639685 0.10932
H_ H_ 0.384451 0.690123 0.632924 0.10932
H_ H_ 0.119733 0.806306 0.564243 0.10932
H_ H_ 0.38598 0.689516 0.556487 0.10932
H_ H_ 0.131037 0.672973 0.567315 0.10932
H_ H_ 0.377187 0.821352 0.560412 0.10932
C_ C_ 0.0680812 0.848575 0.748963 -0.02249
C_ C_ 0.318567 0.854327 0.741708 -0.02249
C_ C_ 0.0182017 0.964642 0.744998 -0.02249
C_ C_ 0.266705 0.965782 0.747761 -0.02249
C_ C_ 0.0401916 0.903066 0.710901 -0.11473
C_ C_ 0.283601 0.902556 0.707804 -0.11473
C_ C_ 0.0578414 0.866204 0.786076 -0.11473
C_ C_ 0.317073 0.87681 0.779548 -0.11473
C_ C_ 0.0540159 0.86271 0.712571 -0.11473
C_ C_ 0.300809 0.866209 0.707571 -0.11473
C_ C_ 0.0330487 0.922625 0.747779 -0.02249
C_ C_ 0.284223 0.926528 0.74475 -0.02249
C_ C_ 0.0889828 0.811867 0.749559 0.6875
C_ C_ 0.336955 0.814511 0.73982 0.6875
C_ C_ 0.0419524 0.904539 0.786065 -0.11473
C_ C_ 0.297267 0.910991 0.780621 -0.11473
C_ C_ 0.18247 0.851542 0.753203 -0.02249
C_ C_ 0.432674 0.854838 0.744449 -0.02249
C_ C_ 0.23555 0.966 0.755266 -0.02249
C_ C_ 0.48323 0.968618 0.745466 -0.02249
C_ C_ 0.215665 0.902202 0.791039 -0.11473
C_ C_ 0.469225 0.899404 0.777698 -0.11473
C_ C_ 0.184706 0.875475 0.716991 -0.11473
C_ C_ 0.432646 0.879498 0.709473 -0.11473
C_ C_ 0.197451 0.865494 0.789942 -0.11473
C_ C_ 0.447672 0.867996 0.781282 -0.11473
C_ C_ 0.217762 0.925629 0.75415 -0.02249
C_ C_ 0.467299 0.926618 0.743519 -0.02249
C_ C_ 0.163385 0.813285 0.750836 0.6875
C_ C_ 0.413186 0.815813 0.744487 0.6875
C_ C_ 0.200906 0.912571 0.717697 -0.11473
C_ C_ 0.451137 0.914487 0.707856 -0.11473
C_ C_ 0.183179 0.6534 0.744307 -0.02249
C_ C_ 0.436541 0.661968 0.740658 -0.02249
C_ C_ 0.233397 0.54121 0.74534 -0.02249
C_ C_ 0.485745 0.545519 0.741648 -0.02249
C_ C_ 0.208265 0.59867 0.782356 -0.11473
C_ C_ 0.470747 0.611605 0.775068 -0.11473
C_ C_ 0.189912 0.633122 0.706066 -0.11473
C_ C_ 0.43555 0.635257 0.706351 -0.11473
C_ C_ 0.191843 0.6341 0.781929 -0.11473
C_ C_ 0.455841 0.650533 0.775078 -0.11473
C_ C_ 0.215771 0.579384 0.744893 -0.02249
C_ C_ 0.468746 0.585183 0.741066 -0.02249
C_ C_ 0.162718 0.689747 0.745693 0.6875
C_ C_ 0.41567 0.696171 0.744244 0.6875
C_ C_ 0.208245 0.598135 0.705645 -0.11473
C_ C_ 0.449363 0.596353 0.706722 -0.11473
C_ C_ 0.0650612 0.654668 0.754153 -0.02249
C_ C_ 0.315708 0.654643 0.743136 -0.02249
C_ C_ 0.0173757 0.538382 0.752685 -0.02249
C_ C_ 0.264428 0.541643 0.743475 -0.02249
C_ C_ 0.0406809 0.599159 0.717074 -0.11473
C_ C_ 0.284872 0.603049 0.705949 -0.11473
C_ C_ 0.0552618 0.635695 0.792083 -0.11473
C_ C_ 0.311551 0.632432 0.780521 -0.11473
C_ C_ 0.0552021 0.636452 0.717933 -0.11473
C_ C_ 0.302632 0.63919 0.704902 -0.11473
C_ C_ 0.0316754 0.580092 0.753108 -0.02249
C_ C_ 0.280942 0.581983 0.742728 -0.02249
C_ C_ 0.085738 0.689229 0.75643 0.6875
C_ C_ 0.335038 0.692501 0.739888 0.6875
C_ C_ 0.038956 0.598239 0.789845 -0.11473
C_ C_ 0.292362 0.598547 0.780953 -0.11473
C_ C_ 0.113593 0.779815 0.884849 0.17695
C_ C_ 0.375239 0.783016 0.869079 0.17695
C_ C_ 0.139138 0.714027 0.878302 0.17695
C_ C_ 0.378152 0.710414 0.863672 0.17695
C_ C_ 0.140763 0.710967 0.921491 -0.11473
C_ C_ 0.378061 0.706936 0.908401 -0.11473
C_ C_ 0.129148 0.742742 0.946963 0.23465
C_ C_ 0.374081 0.740763 0.934542 0.23465
C_ C_ 0.117598 0.779451 0.927008 -0.11473
C_ C_ 0.369652 0.779397 0.912904 -0.11473
C_ C_ 0.13337 0.706945 0.627929 0.17695
C_ C_ 0.377512 0.79154 0.618516 0.17695
C_ C_ 0.122837 0.77951 0.624623 0.17695
C_ C_ 0.381763 0.718977 0.616202 0.17695
C_ C_ 0.124522 0.777943 0.580238 -0.11473
C_ C_ 0.383093 0.719233 0.572244 -0.11473
C_ C_ 0.12666 0.739637 0.559364 0.23465
C_ C_ 0.379415 0.756773 0.550776 0.23465
C_ C_ 0.131139 0.703933 0.583539 -0.11473
C_ C_ 0.379195 0.793187 0.5754 -0.11473
C_ C_ 0.0355551 0.0020299999999999763 0.739963 0.05793
C_ C_ 0.28279 0.00415999 0.744094 0.05793
C_ C_ 0.219054 0.503207 0.752335 0.05793
C_ C_ 0.471454 0.508965 0.755463 0.05793
Br Br 0.0792013 -0.0024100000000000232 0.732158 -0.17191
Br Br 0.3244 0.00194068 0.72603 -0.17191
Br Br 0.176134 0.498715 0.762486 -0.17191
Br Br 0.430949 0.513592 0.776008 -0.17191
N_ N_ 0.126574 0.749306 0.859526 -0.272
N_ N_ 0.375692 0.747484 0.844446 -0.272
N_ N_ 0.134923 0.740715 0.990656 -0.12501
N_ N_ 0.369169 0.736309 0.978417 -0.12501
N_ N_ 0.127932 0.74519 0.646213 -0.272
N_ N_ 0.378785 0.754257 0.63813 -0.272
N_ N_ 0.127752 0.735427 0.514562 -0.12501
N_ N_ 0.381285 0.759995 0.50546 -0.12501
O_ O_ 0.0954896 0.793947 0.716021 -0.60745
O_ O_ 0.344228 0.800723 0.705342 -0.60745
O_ O_ 0.0990611 0.798114 0.784639 -0.60745
O_ O_ 0.3412 0.792915 0.772964 -0.60745
O_ O_ 0.156435 0.794957 0.78558 -0.60745
O_ O_ 0.403054 0.804237 0.778156 -0.60745
O_ O_ 0.154504 0.798878 0.716168 -0.60745
O_ O_ 0.405188 0.798643 0.710904 -0.60745
O_ O_ 0.155531 0.704536 0.780867 -0.60745
O_ O_ 0.412158 0.714428 0.779401 -0.60745
O_ O_ 0.157766 0.710239 0.711737 -0.60745
O_ O_ 0.40115 0.709077 0.711619 -0.60745
O_ O_ 0.0952174 0.704024 0.721685 -0.60745
O_ O_ 0.337428 0.711158 0.704328 -0.60745
O_ O_ 0.0926171 0.706818 0.790515 -0.60745
O_ O_ 0.349665 0.704324 0.772155 -0.60745
Zn Zn 0.621478 0.245434 0.286103 0.9476
Zn Zn 0.874613 0.246769 0.288854 0.9476
Zn Zn 0.620462 0.245877 0.218804 0.9476
Zn Zn 0.874483 0.247606 0.22026 0.9476
H_ H_ 0.51429 0.39396 0.189655 0.10932
H_ H_ 0.768229 0.399306 0.18954 0.10932
H_ H_ 0.579488 0.361931 0.313955 0.10932
H_ H_ 0.834438 0.368215 0.314889 0.10932
H_ H_ 0.53981 0.326245 0.191958 0.10932
H_ H_ 0.790568 0.330113 0.196978 0.10932
H_ H_ 0.55731 0.429839 0.304297 0.10932
H_ H_ 0.804704 0.427524 0.312748 0.10932
H_ H_ 0.722707 0.401923 0.322381 0.10932
H_ H_ 0.964026 0.414968 0.324838 0.10932
H_ H_ 0.670672 0.363917 0.191003 0.10932
H_ H_ 0.945827 0.344098 0.19242 0.10932
H_ H_ 0.695875 0.334524 0.317328 0.10932
H_ H_ 0.924057 0.358759 0.324209 0.10932
H_ H_ 0.706293 0.421135 0.191296 0.10932
H_ H_ 0.973645 0.406582 0.1951 0.10932
H_ H_ 0.71256 0.0834809 0.314747 0.10932
H_ H_ 0.952572 0.0651003 0.312028 0.10932
H_ H_ 0.687471 0.150455 0.178318 0.10932
H_ H_ 0.943894 0.154234 0.188519 0.10932
H_ H_ 0.691355 0.155615 0.313465 0.10932
H_ H_ 0.929298 0.135112 0.320773 0.10932
H_ H_ 0.716711 0.0874032 0.181245 0.10932
H_ H_ 0.968784 0.0856053 0.182633 0.10932
H_ H_ 0.53579 0.0731827 0.176284 0.10932
H_ H_ 0.795764 0.0707105 0.1812 0.10932
H_ H_ 0.566049 0.138808 0.31119 0.10932
H_ H_ 0.809412 0.148899 0.316042 0.10932
H_ H_ 0.566148 0.13902 0.178038 0.10932
H_ H_ 0.82724 0.135998 0.181279 0.10932
H_ H_ 0.531744 0.0836393 0.309494 0.10932
H_ H_ 0.777247 0.0861847 0.312301 0.10932
H_ H_ 0.577689 0.229464 0.360639 0.10932
H_ H_ 0.873035 0.179566 0.361444 0.10932
H_ H_ 0.66984 0.259278 0.365318 0.10932
H_ H_ 0.868186 0.311404 0.366394 0.10932
H_ H_ 0.670709 0.255033 0.443728 0.10932
H_ H_ 0.86541 0.305431 0.442797 0.10932
H_ H_ 0.578468 0.225433 0.440567 0.10932
H_ H_ 0.869078 0.175632 0.439237 0.10932
H_ H_ 0.620606 0.184869 0.139235 0.10932
H_ H_ 0.897913 0.197749 0.141518 0.10932
H_ H_ 0.616741 0.316005 0.148049 0.10932
H_ H_ 0.856376 0.313134 0.15476 0.10932
H_ H_ 0.625715 0.322165 0.0702408 0.10932
H_ H_ 0.85436 0.32091 0.0760292 0.10932
H_ H_ 0.61592 0.192637 0.0610581 0.10932
H_ H_ 0.899944 0.204495 0.0657936 0.10932
C_ C_ 0.558591 0.337826 0.254347 -0.02249
C_ C_ 0.818015 0.344912 0.253182 -0.02249
C_ C_ 0.516857 0.458193 0.248887 -0.02249
C_ C_ 0.76436 0.455804 0.25047 -0.02249
C_ C_ 0.528391 0.388011 0.215264 -0.11473
C_ C_ 0.781929 0.390273 0.216303 -0.11473
C_ C_ 0.56288 0.367627 0.286254 -0.11473
C_ C_ 0.819449 0.372358 0.287366 -0.11473
C_ C_ 0.541234 0.347735 0.218878 -0.11473
C_ C_ 0.798127 0.354852 0.21844 -0.11473
C_ C_ 0.53214 0.416327 0.249479 -0.02249
C_ C_ 0.784509 0.419323 0.249445 -0.02249
C_ C_ 0.577228 0.300827 0.255949 0.6875
C_ C_ 0.834498 0.304645 0.257653 0.6875
C_ C_ 0.553725 0.407564 0.279603 -0.11473
C_ C_ 0.802959 0.408857 0.28545 -0.11473
C_ C_ 0.68059 0.344293 0.253788 -0.02249
C_ C_ 0.934269 0.345237 0.259737 -0.02249
C_ C_ 0.733733 0.454246 0.255873 -0.02249
C_ C_ 0.980683 0.462757 0.260369 -0.02249
C_ C_ 0.712053 0.392133 0.29379 -0.11473
C_ C_ 0.952449 0.405947 0.296034 -0.11473
C_ C_ 0.685914 0.366895 0.217413 -0.11473
C_ C_ 0.946646 0.361577 0.221512 -0.11473
C_ C_ 0.694525 0.356765 0.292971 -0.11473
C_ C_ 0.936723 0.368416 0.296908 -0.11473
C_ C_ 0.718754 0.411531 0.254977 -0.02249
C_ C_ 0.961818 0.423777 0.258614 -0.02249
C_ C_ 0.658311 0.308627 0.254033 0.6875
C_ C_ 0.912955 0.309436 0.259408 0.6875
C_ C_ 0.702928 0.401883 0.219201 -0.11473
C_ C_ 0.962173 0.398118 0.22173 -0.11473
C_ C_ 0.686567 0.156989 0.247558 -0.02249
C_ C_ 0.938935 0.1513 0.255588 -0.02249
C_ C_ 0.734146 0.0393458 0.247442 -0.02249
C_ C_ 0.982381 0.0325415 0.249343 -0.02249
C_ C_ 0.709935 0.0990528 0.28498 -0.11473
C_ C_ 0.955621 0.087908 0.288499 -0.11473
C_ C_ 0.69559 0.13869 0.209685 -0.11473
C_ C_ 0.94832 0.136984 0.216012 -0.11473
C_ C_ 0.697634 0.140168 0.285214 -0.11473
C_ C_ 0.941556 0.126012 0.290964 -0.11473
C_ C_ 0.719683 0.0809001 0.247095 -0.02249
C_ C_ 0.968324 0.0743755 0.2498 -0.02249
C_ C_ 0.665723 0.194 0.249054 0.6875
C_ C_ 0.916987 0.188646 0.253597 0.6875
C_ C_ 0.714252 0.101708 0.210551 -0.11473
C_ C_ 0.960899 0.0964151 0.212889 -0.11473
C_ C_ 0.566104 0.147486 0.245242 -0.02249
C_ C_ 0.820095 0.148195 0.249419 -0.02249
C_ C_ 0.514009 0.0345775 0.24101 -0.02249
C_ C_ 0.765633 0.0354723 0.240515 -0.02249
C_ C_ 0.541506 0.0897644 0.206004 -0.11473
C_ C_ 0.795096 0.0912193 0.210193 -0.11473
C_ C_ 0.553715 0.133355 0.282107 -0.11473
C_ C_ 0.805645 0.132977 0.286008 -0.11473
C_ C_ 0.559218 0.125555 0.20674 -0.11473
C_ C_ 0.814895 0.125469 0.210591 -0.11473
C_ C_ 0.529289 0.0748897 0.242562 -0.02249
C_ C_ 0.783143 0.0749981 0.244769 -0.02249
C_ C_ 0.584728 0.186316 0.246111 0.6875
C_ C_ 0.837828 0.18598 0.249245 0.6875
C_ C_ 0.537206 0.0966081 0.281201 -0.11473
C_ C_ 0.786948 0.0978023 0.283963 -0.11473
C_ C_ 0.597724 0.236724 0.379402 0.17695
C_ C_ 0.874207 0.208558 0.378758 0.17695
C_ C_ 0.650511 0.249651 0.380011 0.17695
C_ C_ 0.871891 0.28169 0.382201 0.17695
C_ C_ 0.650419 0.249027 0.42575 -0.11473
C_ C_ 0.869893 0.277955 0.425966 -0.11473
C_ C_ 0.624838 0.243445 0.447984 0.23465
C_ C_ 0.871073 0.240343 0.447334 0.23465
C_ C_ 0.59828 0.234952 0.424561 -0.11473
C_ C_ 0.871964 0.205036 0.42331 -0.11473
C_ C_ 0.621796 0.215937 0.122863 0.17695
C_ C_ 0.88815 0.225579 0.128712 0.17695
C_ C_ 0.61652 0.289447 0.12821 0.17695
C_ C_ 0.866037 0.290389 0.133376 0.17695
C_ C_ 0.621541 0.293164 0.0850688 -0.11473
C_ C_ 0.865559 0.29488 0.0896045 -0.11473
C_ C_ 0.621297 0.257927 0.0600387 0.23465
C_ C_ 0.875314 0.261557 0.0637285 0.23465
C_ C_ 0.621409 0.219138 0.0790833 -0.11473
C_ C_ 0.888562 0.227604 0.0845792 -0.11473
C_ C_ 0.533798 0.495328 0.243875 0.05793
C_ C_ 0.777674 0.494573 0.241656 0.05793
C_ C_ 0.716202 1.00196 0.24985 0.05793
C_ C_ 0.965601 0.995463 0.243791 0.05793
Br Br 0.57567 0.495274 0.230367 -0.17191
Br Br 0.820626 0.495061 0.228802 -0.17191
Br Br 0.67396 0.00114712 0.255671 -0.17191
Br Br 0.925145 0.00134673 0.229245 -0.17191
N_ N_ 0.624968 0.240843 0.358596 -0.272
N_ N_ 0.876021 0.246166 0.359599 -0.272
N_ N_ 0.626454 0.237921 0.492758 -0.12501
N_ N_ 0.864209 0.238229 0.49095 -0.12501
N_ N_ 0.617444 0.2504 0.146607 -0.272
N_ N_ 0.876036 0.254556 0.152216 -0.272
N_ N_ 0.620194 0.263061 0.01534 -0.12501
N_ N_ 0.872205 0.264599 0.0180854 -0.12501
O_ O_ 0.58685 0.285435 0.222233 -0.60745
O_ O_ 0.840844 0.286624 0.223234 -0.60745
O_ O_ 0.588142 0.287175 0.291001 -0.60745
O_ O_ 0.843292 0.28995 0.292704 -0.60745
O_ O_ 0.655242 0.285952 0.287004 -0.60745
O_ O_ 0.903853 0.292952 0.292999 -0.60745
O_ O_ 0.647664 0.296946 0.218496 -0.60745
O_ O_ 0.904764 0.293975 0.225646 -0.60745
O_ O_ 0.654516 0.203458 0.282881 -0.60745
O_ O_ 0.904496 0.200641 0.287868 -0.60745
O_ O_ 0.65439 0.207172 0.215634 -0.60745
O_ O_ 0.910149 0.20709 0.21895 -0.60745
O_ O_ 0.590794 0.203127 0.211793 -0.60745
O_ O_ 0.845847 0.20135 0.215624 -0.60745
O_ O_ 0.591846 0.202904 0.280665 -0.60745
O_ O_ 0.843411 0.204053 0.283037 -0.60745
Zn Zn 0.62463 0.257906 0.787434 0.9476
Zn Zn 0.879748 0.249942 0.790008 0.9476
Zn Zn 0.625545 0.257532 0.719325 0.9476
Zn Zn 0.874468 0.252986 0.719289 0.9476
H_ H_ 0.527137 0.413556 0.676577 0.10932
H_ H_ 0.769287 0.408811 0.693289 0.10932
H_ H_ 0.56425 0.368521 0.815214 0.10932
H_ H_ 0.825781 0.365383 0.822556 0.10932
H_ H_ 0.552996 0.346566 0.683969 0.10932
H_ H_ 0.804119 0.347591 0.691888 0.10932
H_ H_ 0.533339 0.433768 0.807136 0.10932
H_ H_ 0.79601 0.427399 0.821992 0.10932
H_ H_ 0.72817 0.406819 0.821254 0.10932
H_ H_ 0.983644 0.407531 0.819564 0.10932
H_ H_ 0.68271 0.361615 0.684025 0.10932
H_ H_ 0.942865 0.353228 0.684395 0.10932
H_ H_ 0.708843 0.342306 0.813757 0.10932
H_ H_ 0.943293 0.349707 0.819789 0.10932
H_ H_ 0.708416 0.430144 0.688401 0.10932
H_ H_ 0.966308 0.422312 0.687725 0.10932
H_ H_ 0.719448 0.0949864 0.820137 0.10932
H_ H_ 0.982247 0.0885715 0.808277 0.10932
H_ H_ 0.679409 0.143164 0.686142 0.10932
H_ H_ 0.935587 0.155271 0.68281 0.10932
H_ H_ 0.680107 0.149356 0.816475 0.10932
H_ H_ 0.95613 0.155022 0.814989 0.10932
H_ H_ 0.711907 0.0851579 0.685142 0.10932
H_ H_ 0.964553 0.0969194 0.673921 0.10932
H_ H_ 0.539735 0.0862027 0.679711 0.10932
H_ H_ 0.767851 0.101946 0.694678 0.10932
H_ H_ 0.559218 0.154099 0.818283 0.10932
H_ H_ 0.834669 0.130559 0.815757 0.10932
H_ H_ 0.566797 0.152308 0.683103 0.10932
H_ H_ 0.797821 0.165224 0.696913 0.10932
H_ H_ 0.531514 0.0923851 0.813947 0.10932
H_ H_ 0.802608 0.0655446 0.814499 0.10932
H_ H_ 0.621855 0.319314 0.867587 0.10932
H_ H_ 0.928287 0.256007 0.863079 0.10932
H_ H_ 0.632955 0.189155 0.855059 0.10932
H_ H_ 0.834475 0.249222 0.862844 0.10932
H_ H_ 0.638593 0.18023 0.932173 0.10932
H_ H_ 0.837517 0.237944 0.942676 0.10932
H_ H_ 0.623183 0.312833 0.944944 0.10932
H_ H_ 0.932189 0.252109 0.940827 0.10932
H_ H_ 0.619072 0.323852 0.649539 0.10932
H_ H_ 0.876033 0.318113 0.646047 0.10932
H_ H_ 0.635234 0.1937 0.643357 0.10932
H_ H_ 0.866283 0.186018 0.640655 0.10932
H_ H_ 0.631883 0.195535 0.565467 0.10932
H_ H_ 0.8657 0.191115 0.561314 0.10932
H_ H_ 0.614684 0.328695 0.57284 0.10932
H_ H_ 0.881723 0.319063 0.571505 0.10932
C_ C_ 0.561089 0.350833 0.751986 -0.02249
C_ C_ 0.81589 0.347711 0.755223 -0.02249
C_ C_ 0.51363 0.4668 0.737591 -0.02249
C_ C_ 0.766683 0.464349 0.757064 -0.02249
C_ C_ 0.534202 0.401835 0.706879 -0.11473
C_ C_ 0.784402 0.400167 0.720663 -0.11473
C_ C_ 0.553822 0.376451 0.786095 -0.11473
C_ C_ 0.814138 0.372489 0.792096 -0.11473
C_ C_ 0.549723 0.364365 0.710928 -0.11473
C_ C_ 0.802735 0.365759 0.719742 -0.11473
C_ C_ 0.529682 0.426744 0.741364 -0.02249
C_ C_ 0.782532 0.423172 0.756767 -0.02249
C_ C_ 0.581489 0.314928 0.753288 0.6875
C_ C_ 0.834567 0.310557 0.754906 0.6875
C_ C_ 0.538012 0.413184 0.781383 -0.11473
C_ C_ 0.800291 0.411538 0.79159 -0.11473
C_ C_ 0.68917 0.34746 0.750334 -0.02249
C_ C_ 0.939044 0.346605 0.75285 -0.02249
C_ C_ 0.734176 0.465979 0.759086 -0.02249
C_ C_ 0.989846 0.45984 0.760863 -0.02249
C_ C_ 0.718301 0.399157 0.78927 -0.11473
C_ C_ 0.970852 0.396786 0.790895 -0.11473
C_ C_ 0.692143 0.370899 0.713738 -0.11473
C_ C_ 0.947439 0.366791 0.715695 -0.11473
C_ C_ 0.704645 0.360609 0.786763 -0.11473
C_ C_ 0.951399 0.363149 0.791329 -0.11473
C_ C_ 0.716994 0.42676 0.755332 -0.02249
C_ C_ 0.975072 0.41869 0.754885 -0.02249
C_ C_ 0.668134 0.311417 0.750912 0.6875
C_ C_ 0.917228 0.311562 0.752609 0.6875
C_ C_ 0.708591 0.409259 0.714506 -0.11473
C_ C_ 0.962698 0.403546 0.716531 -0.11473
C_ C_ 0.682474 0.155424 0.750158 -0.02249
C_ C_ 0.938549 0.156919 0.750616 -0.02249
C_ C_ 0.735645 0.0427554 0.756236 -0.02249
C_ C_ 0.990607 0.044107 0.738181 -0.02249
C_ C_ 0.709322 0.103141 0.791503 -0.11473
C_ C_ 0.970739 0.103729 0.780808 -0.11473
C_ C_ 0.691347 0.135148 0.713724 -0.11473
C_ C_ 0.947485 0.14335 0.710217 -0.11473
C_ C_ 0.691321 0.13937 0.788534 -0.11473
C_ C_ 0.953199 0.138953 0.786514 -0.11473
C_ C_ 0.719649 0.0832115 0.754019 -0.02249
C_ C_ 0.974241 0.0846839 0.741056 -0.02249
C_ C_ 0.664719 0.194846 0.750411 0.6875
C_ C_ 0.91716 0.194013 0.754038 0.6875
C_ C_ 0.707222 0.0990549 0.715455 -0.11473
C_ C_ 0.962357 0.106771 0.706179 -0.11473
C_ C_ 0.568692 0.155047 0.750971 -0.02249
C_ C_ 0.818726 0.153029 0.757137 -0.02249
C_ C_ 0.516596 0.0436176 0.746696 -0.02249
C_ C_ 0.766578 0.0411131 0.75278 -0.02249
C_ C_ 0.543315 0.101215 0.709738 -0.11473
C_ C_ 0.783828 0.105693 0.71971 -0.11473
C_ C_ 0.556505 0.137987 0.788977 -0.11473
C_ C_ 0.819807 0.124922 0.790902 -0.11473
C_ C_ 0.558932 0.138353 0.712153 -0.11473
C_ C_ 0.800145 0.143059 0.721604 -0.11473
C_ C_ 0.534236 0.0816892 0.747881 -0.02249
C_ C_ 0.78378 0.0800244 0.753708 -0.02249
C_ C_ 0.58689 0.195066 0.751302 0.6875
C_ C_ 0.84018 0.19021 0.757019 0.6875
C_ C_ 0.53975 0.103184 0.786482 -0.11473
C_ C_ 0.803309 0.0875999 0.788744 -0.11473
C_ C_ 0.623807 0.288496 0.882505 0.17695
C_ C_ 0.907923 0.257226 0.880567 0.17695
C_ C_ 0.630662 0.216612 0.87592 0.17695
C_ C_ 0.856362 0.252991 0.880972 0.17695
C_ C_ 0.634137 0.212214 0.920201 -0.11473
C_ C_ 0.856696 0.248787 0.925756 -0.11473
C_ C_ 0.630845 0.246596 0.9467 0.23465
C_ C_ 0.88401 0.251832 0.947924 0.23465
C_ C_ 0.62555 0.284949 0.926852 -0.11473
C_ C_ 0.910252 0.254805 0.925188 -0.11473
C_ C_ 0.620162 0.296732 0.629522 0.17695
C_ C_ 0.873255 0.288505 0.62829 0.17695
C_ C_ 0.6293 0.223208 0.625562 0.17695
C_ C_ 0.867932 0.215317 0.624924 0.17695
C_ C_ 0.6308 0.224324 0.581445 -0.11473
C_ C_ 0.871615 0.217437 0.579688 -0.11473
C_ C_ 0.627183 0.264301 0.560801 0.23465
C_ C_ 0.872386 0.257261 0.560557 0.23465
C_ C_ 0.621597 0.299732 0.586182 -0.11473
C_ C_ 0.87399 0.291711 0.585679 -0.11473
C_ C_ 0.529516 0.502285 0.724726 0.05793
C_ C_ 0.7827 0.502527 0.758877 0.05793
C_ C_ 0.720097 0.00693103 0.758441 0.05793
C_ C_ 0.972483 0.00816502 0.741671 0.05793
Br Br 0.567813 0.498045 0.700574 -0.17191
Br Br 0.824349 0.50159 0.747014 -0.17191
Br Br 0.676548 0.00910945 0.754606 -0.17191
Br Br 0.929496 0.0110239 0.74771 -0.17191
N_ N_ 0.624184 0.253965 0.858269 -0.272
N_ N_ 0.881654 0.253867 0.86014 -0.272
N_ N_ 0.63381 0.239345 0.99083 -0.12501
N_ N_ 0.885273 0.241214 0.992307 -0.12501
N_ N_ 0.626931 0.259711 0.647887 -0.272
N_ N_ 0.870333 0.250558 0.64757 -0.272
N_ N_ 0.626449 0.26866 0.516945 -0.12501
N_ N_ 0.876124 0.262415 0.516407 -0.12501
O_ O_ 0.591285 0.300197 0.719028 -0.60745
O_ O_ 0.840598 0.295331 0.718365 -0.60745
O_ O_ 0.592276 0.301127 0.787812 -0.60745
O_ O_ 0.848215 0.295609 0.787454 -0.60745
O_ O_ 0.654952 0.302544 0.784837 -0.60745
O_ O_ 0.912739 0.29211 0.786199 -0.60745
O_ O_ 0.656713 0.300411 0.715838 -0.60745
O_ O_ 0.903771 0.301764 0.717891 -0.60745
O_ O_ 0.658155 0.212115 0.785624 -0.60745
O_ O_ 0.909422 0.204896 0.790625 -0.60745
O_ O_ 0.656725 0.213083 0.716264 -0.60745
O_ O_ 0.907497 0.212428 0.720351 -0.60745
O_ O_ 0.595736 0.211316 0.717749 -0.60745
O_ O_ 0.845827 0.209441 0.722856 -0.60745
O_ O_ 0.592879 0.213224 0.785842 -0.60745
O_ O_ 0.847778 0.207608 0.791097 -0.60745
Zn Zn 0.626224 0.748178 0.279631 0.9476
Zn Zn 0.86652 0.746962 0.284723 0.9476
Zn Zn 0.619476 0.747839 0.211248 0.9476
Zn Zn 0.871869 0.742015 0.216751 0.9476
H_ H_ 0.537117 0.917916 0.179253 0.10932
H_ H_ 0.789018 0.920285 0.178716 0.10932
H_ H_ 0.559985 0.845599 0.311613 0.10932
H_ H_ 0.792393 0.838024 0.310415 0.10932
H_ H_ 0.562814 0.851369 0.180273 0.10932
H_ H_ 0.810733 0.845542 0.176853 0.10932
H_ H_ 0.528367 0.90847 0.30775 0.10932
H_ H_ 0.760429 0.901095 0.305159 0.10932
H_ H_ 0.699486 0.928604 0.307223 0.10932
H_ H_ 0.949707 0.924543 0.313454 0.10932
H_ H_ 0.689129 0.846671 0.1803 0.10932
H_ H_ 0.945826 0.830787 0.191787 0.10932
H_ H_ 0.67476 0.859705 0.310159 0.10932
H_ H_ 0.913272 0.863492 0.313081 0.10932
H_ H_ 0.718072 0.908191 0.176147 0.10932
H_ H_ 0.969955 0.902521 0.185948 0.10932
H_ H_ 0.723303 0.587948 0.31184 0.10932
H_ H_ 0.964752 0.587206 0.327079 0.10932
H_ H_ 0.669102 0.633637 0.184194 0.10932
H_ H_ 0.933847 0.645728 0.187039 0.10932
H_ H_ 0.70358 0.65904 0.305712 0.10932
H_ H_ 0.938684 0.651936 0.321008 0.10932
H_ H_ 0.695276 0.565395 0.182862 0.10932
H_ H_ 0.957733 0.576315 0.191572 0.10932
H_ H_ 0.530011 0.587415 0.177165 0.10932
H_ H_ 0.770971 0.585115 0.184227 0.10932
H_ H_ 0.570384 0.640614 0.314196 0.10932
H_ H_ 0.819688 0.633267 0.316112 0.10932
H_ H_ 0.547481 0.659357 0.183373 0.10932
H_ H_ 0.799957 0.647694 0.184971 0.10932
H_ H_ 0.540994 0.572583 0.307555 0.10932
H_ H_ 0.787807 0.570294 0.315585 0.10932
H_ H_ 0.632358 0.68198 0.361642 0.10932
H_ H_ 0.868518 0.809634 0.366288 0.10932
H_ H_ 0.620161 0.809543 0.347497 0.10932
H_ H_ 0.860333 0.678426 0.352333 0.10932
H_ H_ 0.623912 0.819971 0.423286 0.10932
H_ H_ 0.867859 0.670795 0.43012 0.10932
H_ H_ 0.626918 0.688481 0.43884 0.10932
H_ H_ 0.878115 0.80518 0.438809 0.10932
H_ H_ 0.613666 0.680901 0.144121 0.10932
H_ H_ 0.861919 0.679399 0.146041 0.10932
H_ H_ 0.622876 0.813839 0.129535 0.10932
H_ H_ 0.880421 0.810371 0.135703 0.10932
H_ H_ 0.616115 0.805096 0.0534157 0.10932
H_ H_ 0.880766 0.801063 0.0589033 0.10932
H_ H_ 0.617378 0.672733 0.066566 0.10932
H_ H_ 0.856953 0.672738 0.0677421 0.10932
C_ C_ 0.565711 0.846773 0.244472 -0.02249
C_ C_ 0.806831 0.839298 0.246063 -0.02249
C_ C_ 0.513544 0.957654 0.244245 -0.02249
C_ C_ 0.762232 0.958638 0.242706 -0.02249
C_ C_ 0.539101 0.901418 0.207093 -0.11473
C_ C_ 0.790284 0.901367 0.206833 -0.11473
C_ C_ 0.556015 0.862532 0.281428 -0.11473
C_ C_ 0.790269 0.853538 0.280587 -0.11473
C_ C_ 0.555909 0.863987 0.207072 -0.11473
C_ C_ 0.803623 0.859781 0.206144 -0.11473
C_ C_ 0.530497 0.917625 0.244845 -0.02249
C_ C_ 0.775626 0.915819 0.243617 -0.02249
C_ C_ 0.58597 0.80988 0.242335 0.6875
C_ C_ 0.825418 0.800442 0.251107 0.6875
C_ C_ 0.536364 0.895936 0.280662 -0.11473
C_ C_ 0.775033 0.892258 0.279596 -0.11473
C_ C_ 0.676116 0.849554 0.242472 -0.02249
C_ C_ 0.929567 0.839987 0.253846 -0.02249
C_ C_ 0.730738 0.961699 0.243581 -0.02249
C_ C_ 0.978813 0.955461 0.248181 -0.02249
C_ C_ 0.700505 0.906669 0.281013 -0.11473
C_ C_ 0.947506 0.904903 0.286814 -0.11473
C_ C_ 0.688372 0.866383 0.205911 -0.11473
C_ C_ 0.944068 0.853126 0.217018 -0.11473
C_ C_ 0.684781 0.870292 0.281989 -0.11473
C_ C_ 0.931085 0.867492 0.288752 -0.11473
C_ C_ 0.710983 0.923344 0.242229 -0.02249
C_ C_ 0.96101 0.917408 0.25113 -0.02249
C_ C_ 0.658514 0.810504 0.24192 0.6875
C_ C_ 0.909216 0.804411 0.253851 0.6875
C_ C_ 0.706321 0.90101 0.205019 -0.11473
C_ C_ 0.957215 0.894047 0.214057 -0.11473
C_ C_ 0.682607 0.65041 0.245043 -0.02249
C_ C_ 0.929244 0.650925 0.253627 -0.02249
C_ C_ 0.730328 0.530634 0.25002 -0.02249
C_ C_ 0.982181 0.539071 0.260835 -0.02249
C_ C_ 0.712925 0.59829 0.283223 -0.11473
C_ C_ 0.95929 0.601318 0.294994 -0.11473
C_ C_ 0.682019 0.623224 0.209709 -0.11473
C_ C_ 0.936586 0.629684 0.217014 -0.11473
C_ C_ 0.700964 0.637837 0.280693 -0.11473
C_ C_ 0.939686 0.635517 0.292081 -0.11473
C_ C_ 0.71147 0.571711 0.248675 -0.02249
C_ C_ 0.964652 0.578521 0.258988 -0.02249
C_ C_ 0.660961 0.684465 0.248619 0.6875
C_ C_ 0.910993 0.688364 0.250721 0.6875
C_ C_ 0.699063 0.585726 0.210142 -0.11473
C_ C_ 0.952779 0.592084 0.220047 -0.11473
C_ C_ 0.565115 0.652174 0.24655 -0.02249
C_ C_ 0.810184 0.646273 0.250525 -0.02249
C_ C_ 0.517097 0.534104 0.239337 -0.02249
C_ C_ 0.761824 0.531363 0.245735 -0.02249
C_ C_ 0.53692 0.598658 0.207477 -0.11473
C_ C_ 0.782853 0.592875 0.211851 -0.11473
C_ C_ 0.561352 0.628866 0.282673 -0.11473
C_ C_ 0.808612 0.622807 0.287997 -0.11473
C_ C_ 0.550751 0.637173 0.209025 -0.11473
C_ C_ 0.79636 0.63234 0.213547 -0.11473
C_ C_ 0.534347 0.573836 0.241849 -0.02249
C_ C_ 0.780486 0.569691 0.247332 -0.02249
C_ C_ 0.582108 0.690979 0.246598 0.6875
C_ C_ 0.829346 0.683772 0.249472 0.6875
C_ C_ 0.54516 0.591005 0.280492 -0.11473
C_ C_ 0.790673 0.587285 0.286533 -0.11473
C_ C_ 0.630931 0.712957 0.375421 0.17695
C_ C_ 0.872908 0.77884 0.378163 0.17695
C_ C_ 0.622062 0.784523 0.368175 0.17695
C_ C_ 0.865909 0.706019 0.371121 0.17695
C_ C_ 0.624542 0.78985 0.410757 -0.11473
C_ C_ 0.868837 0.700813 0.41604 -0.11473
C_ C_ 0.627355 0.756044 0.437163 0.23465
C_ C_ 0.870637 0.737587 0.441789 0.23465
C_ C_ 0.627464 0.715955 0.419984 -0.11473
C_ C_ 0.875315 0.776162 0.421875 -0.11473
C_ C_ 0.615386 0.709884 0.12423 0.17695
C_ C_ 0.866669 0.707052 0.126007 0.17695
C_ C_ 0.623029 0.782514 0.114805 0.17695
C_ C_ 0.877269 0.778406 0.121445 0.17695
C_ C_ 0.615557 0.77786 0.0724406 -0.11473
C_ C_ 0.876963 0.774237 0.0769335 -0.11473
C_ C_ 0.61602 0.738699 0.0543031 0.23465
C_ C_ 0.868407 0.737641 0.0556804 0.23465
C_ C_ 0.616587 0.702952 0.0801493 -0.11473
C_ C_ 0.864676 0.702279 0.0813148 -0.11473
C_ C_ 0.529614 0.99635 0.241001 0.05793
C_ C_ 0.779605 0.995667 0.241673 0.05793
C_ C_ 0.716756 0.491189 0.255916 0.05793
C_ C_ 0.965562 0.501649 0.262721 0.05793
Br Br 0.57314 0.994077 0.247775 -0.17191
Br Br 0.822392 0.990113 0.228681 -0.17191
Br Br 0.674977 0.491213 0.268496 -0.17191
Br Br 0.921568 0.50082 0.261726 -0.17191
N_ N_ 0.625252 0.745888 0.350868 -0.272
N_ N_ 0.866172 0.745233 0.354486 -0.272
N_ N_ 0.629022 0.763141 0.482335 -0.12501
N_ N_ 0.870757 0.732576 0.486234 -0.12501
N_ N_ 0.620366 0.748201 0.140609 -0.272
N_ N_ 0.872615 0.744122 0.144706 -0.272
N_ N_ 0.621078 0.735601 0.0100852 -0.12501
N_ N_ 0.86719 0.735764 0.0108879 -0.12501
O_ O_ 0.587534 0.791446 0.208567 -0.60745
O_ O_ 0.838759 0.78629 0.219985 -0.60745
O_ O_ 0.597379 0.795689 0.276265 -0.60745
O_ O_ 0.830522 0.78394 0.286493 -0.60745
O_ O_ 0.65564 0.791695 0.276702 -0.60745
O_ O_ 0.895496 0.794671 0.285583 -0.60745
O_ O_ 0.647864 0.79563 0.208302 -0.60745
O_ O_ 0.901344 0.786101 0.219608 -0.60745
O_ O_ 0.655727 0.700772 0.284274 -0.60745
O_ O_ 0.906255 0.709968 0.282249 -0.60745
O_ O_ 0.650863 0.702662 0.215862 -0.60745
O_ O_ 0.903266 0.701463 0.214542 -0.60745
O_ O_ 0.591596 0.70546 0.211955 -0.60745
O_ O_ 0.838252 0.697639 0.214362 -0.60745
O_ O_ 0.591465 0.708454 0.281663 -0.60745
O_ O_ 0.839801 0.701516 0.283621 -0.60745
Zn Zn 0.628812 0.755353 0.780496 0.9476
Zn Zn 0.877248 0.752972 0.785075 0.9476
Zn Zn 0.629299 0.753944 0.709329 0.9476
Zn Zn 0.879271 0.751566 0.714486 0.9476
H_ H_ 0.526272 0.910633 0.672765 0.10932
H_ H_ 0.766572 0.90681 0.685101 0.10932
H_ H_ 0.576223 0.870709 0.80687 0.10932
H_ H_ 0.827434 0.865786 0.816068 0.10932
H_ H_ 0.559077 0.849182 0.674321 0.10932
H_ H_ 0.798287 0.842905 0.687029 0.10932
H_ H_ 0.551982 0.935376 0.80212 0.10932
H_ H_ 0.796359 0.930665 0.813766 0.10932
H_ H_ 0.730082 0.906938 0.810331 0.10932
H_ H_ 0.978523 0.914579 0.807411 0.10932
H_ H_ 0.675028 0.871622 0.681146 0.10932
H_ H_ 0.926742 0.866199 0.67595 0.10932
H_ H_ 0.706704 0.841728 0.805394 0.10932
H_ H_ 0.952254 0.845516 0.808093 0.10932
H_ H_ 0.69605 0.940808 0.688645 0.10932
H_ H_ 0.951348 0.932591 0.679603 0.10932
H_ H_ 0.713915 0.585972 0.826103 0.10932
H_ H_ 0.95597 0.576201 0.817558 0.10932
H_ H_ 0.70047 0.65188 0.688629 0.10932
H_ H_ 0.942326 0.646356 0.682581 0.10932
H_ H_ 0.681751 0.64763 0.822457 0.10932
H_ H_ 0.932886 0.646036 0.816972 0.10932
H_ H_ 0.729023 0.588773 0.698098 0.10932
H_ H_ 0.975623 0.581278 0.685665 0.10932
H_ H_ 0.534121 0.59426 0.670098 0.10932
H_ H_ 0.800674 0.57399 0.692374 0.10932
H_ H_ 0.575367 0.640238 0.807637 0.10932
H_ H_ 0.799521 0.661498 0.817073 0.10932
H_ H_ 0.561734 0.659226 0.673581 0.10932
H_ H_ 0.832536 0.633339 0.691361 0.10932
H_ H_ 0.547201 0.574845 0.803697 0.10932
H_ H_ 0.775594 0.592226 0.817272 0.10932
H_ H_ 0.607399 0.693469 0.85408 0.10932
H_ H_ 0.855673 0.697535 0.862295 0.10932
H_ H_ 0.633539 0.819471 0.85508 0.10932
H_ H_ 0.905873 0.809282 0.859259 0.10932
H_ H_ 0.629242 0.821808 0.927869 0.10932
H_ H_ 0.907712 0.810305 0.936825 0.10932
H_ H_ 0.600351 0.693995 0.932153 0.10932
H_ H_ 0.852904 0.700642 0.939989 0.10932
H_ H_ 0.637784 0.686085 0.643941 0.10932
H_ H_ 0.8665 0.810898 0.645896 0.10932
H_ H_ 0.628254 0.812541 0.633201 0.10932
H_ H_ 0.890676 0.686669 0.638025 0.10932
H_ H_ 0.62874 0.809503 0.55288 0.10932
H_ H_ 0.887243 0.690703 0.553579 0.10932
H_ H_ 0.637605 0.676586 0.567092 0.10932
H_ H_ 0.872761 0.819713 0.57008 0.10932
C_ C_ 0.566912 0.852956 0.743071 -0.02249
C_ C_ 0.816553 0.849714 0.74976 -0.02249
C_ C_ 0.514268 0.966558 0.736468 -0.02249
C_ C_ 0.76599 0.9651 0.748691 -0.02249
C_ C_ 0.535442 0.900338 0.70211 -0.11473
C_ C_ 0.779198 0.897049 0.715396 -0.11473
C_ C_ 0.56269 0.876835 0.777877 -0.11473
C_ C_ 0.814976 0.874198 0.786805 -0.11473
C_ C_ 0.552549 0.863162 0.704123 -0.11473
C_ C_ 0.798558 0.860733 0.715759 -0.11473
C_ C_ 0.531711 0.926251 0.738062 -0.02249
C_ C_ 0.782693 0.924277 0.748279 -0.02249
C_ C_ 0.589129 0.816364 0.74352 0.6875
C_ C_ 0.837725 0.813939 0.749478 0.6875
C_ C_ 0.5484 0.914515 0.774668 -0.11473
C_ C_ 0.799533 0.912694 0.784952 -0.11473
C_ C_ 0.689299 0.850504 0.743166 -0.02249
C_ C_ 0.935994 0.850318 0.742939 -0.02249
C_ C_ 0.73446 0.968697 0.751818 -0.02249
C_ C_ 0.985305 0.967922 0.744353 -0.02249
C_ C_ 0.71668 0.902617 0.784249 -0.11473
C_ C_ 0.964503 0.904501 0.780991 -0.11473
C_ C_ 0.687519 0.877777 0.709702 -0.11473
C_ C_ 0.93847 0.875309 0.70667 -0.11473
C_ C_ 0.702166 0.865253 0.781655 -0.11473
C_ C_ 0.950832 0.865756 0.781355 -0.11473
C_ C_ 0.716234 0.929953 0.749825 -0.02249
C_ C_ 0.96678 0.928653 0.742871 -0.02249
C_ C_ 0.667481 0.81582 0.744325 0.6875
C_ C_ 0.915105 0.813627 0.743335 0.6875
C_ C_ 0.700676 0.917838 0.712357 -0.11473
C_ C_ 0.951165 0.914834 0.708199 -0.11473
C_ C_ 0.68646 0.653493 0.754264 -0.02249
C_ C_ 0.935931 0.651925 0.75049 -0.02249
C_ C_ 0.735496 0.541507 0.763149 -0.02249
C_ C_ 0.985987 0.53652 0.75561 -0.02249
C_ C_ 0.707967 0.59863 0.796069 -0.11473
C_ C_ 0.954365 0.592397 0.788532 -0.11473
C_ C_ 0.699474 0.635192 0.717746 -0.11473
C_ C_ 0.947556 0.632193 0.712821 -0.11473
C_ C_ 0.693424 0.638076 0.794683 -0.11473
C_ C_ 0.940194 0.630499 0.787635 -0.11473
C_ C_ 0.718601 0.578679 0.760258 -0.02249
C_ C_ 0.966653 0.573668 0.75242 -0.02249
C_ C_ 0.665844 0.692188 0.749859 0.6875
C_ C_ 0.916867 0.689698 0.748651 0.6875
C_ C_ 0.716678 0.600294 0.723291 -0.11473
C_ C_ 0.965446 0.595158 0.715567 -0.11473
C_ C_ 0.570702 0.655081 0.741278 -0.02249
C_ C_ 0.820438 0.652486 0.756885 -0.02249
C_ C_ 0.516813 0.541148 0.732993 -0.02249
C_ C_ 0.767283 0.540415 0.755999 -0.02249
C_ C_ 0.542136 0.605333 0.69959 -0.11473
C_ C_ 0.79965 0.591632 0.719656 -0.11473
C_ C_ 0.567568 0.63002 0.777671 -0.11473
C_ C_ 0.800446 0.643181 0.790025 -0.11473
C_ C_ 0.55728 0.643017 0.701863 -0.11473
C_ C_ 0.819528 0.626466 0.720936 -0.11473
C_ C_ 0.537063 0.580386 0.736021 -0.02249
C_ C_ 0.783873 0.580001 0.755207 -0.02249
C_ C_ 0.589607 0.693941 0.743558 0.6875
C_ C_ 0.839059 0.690938 0.755693 0.6875
C_ C_ 0.549769 0.592831 0.774757 -0.11473
C_ C_ 0.786483 0.605151 0.791303 -0.11473
C_ C_ 0.615182 0.718863 0.873471 0.17695
C_ C_ 0.864761 0.722842 0.877172 0.17695
C_ C_ 0.631294 0.789705 0.872392 0.17695
C_ C_ 0.894283 0.784101 0.87718 0.17695
C_ C_ 0.626441 0.791837 0.914884 -0.11473
C_ C_ 0.897097 0.782711 0.920244 -0.11473
C_ C_ 0.617596 0.757072 0.939371 0.23465
C_ C_ 0.881177 0.75508 0.943327 0.23465
C_ C_ 0.609653 0.720525 0.915989 -0.11473
C_ C_ 0.865658 0.722543 0.920513 -0.11473
C_ C_ 0.632536 0.711299 0.623141 0.17695
C_ C_ 0.869038 0.785479 0.625949 0.17695
C_ C_ 0.628793 0.783427 0.615427 0.17695
C_ C_ 0.884724 0.714822 0.620077 0.17695
C_ C_ 0.629156 0.780785 0.57103 -0.11473
C_ C_ 0.882559 0.716889 0.575646 -0.11473
C_ C_ 0.628275 0.741573 0.552854 0.23465
C_ C_ 0.875475 0.754541 0.556556 0.23465
C_ C_ 0.634767 0.707427 0.580455 -0.11473
C_ C_ 0.871832 0.789556 0.581886 -0.11473
C_ C_ 0.530228 0.00500026 0.735887 0.05793
C_ C_ 0.782054 0.00293953 0.743946 0.05793
C_ C_ 0.718878 0.505425 0.762762 0.05793
C_ C_ 0.972652 0.496334 0.761612 0.05793
Br Br 0.573172 0.0016747 0.725446 -0.17191
Br Br 0.826623 0.999958 0.737263 -0.17191
Br Br 0.675155 0.506714 0.764006 -0.17191
Br Br 0.93155 0.494115 0.778324 -0.17191
N_ N_ 0.62559 0.752779 0.852456 -0.272
N_ N_ 0.879529 0.753003 0.857127 -0.272
N_ N_ 0.610504 0.761043 0.983529 -0.12501
N_ N_ 0.883176 0.756985 0.989112 -0.12501
N_ N_ 0.630229 0.74961 0.640316 -0.272
N_ N_ 0.874043 0.747199 0.64268 -0.272
N_ N_ 0.630437 0.733567 0.508382 -0.12501
N_ N_ 0.877958 0.759934 0.511858 -0.12501
O_ O_ 0.597724 0.802563 0.708623 -0.60745
O_ O_ 0.847871 0.796379 0.716586 -0.60745
O_ O_ 0.598657 0.800649 0.777032 -0.60745
O_ O_ 0.846878 0.799077 0.784948 -0.60745
O_ O_ 0.657945 0.803041 0.779278 -0.60745
O_ O_ 0.908236 0.798627 0.779393 -0.60745
O_ O_ 0.658316 0.797624 0.71119 -0.60745
O_ O_ 0.90879 0.793976 0.710219 -0.60745
O_ O_ 0.655749 0.709929 0.782621 -0.60745
O_ O_ 0.910449 0.709701 0.782503 -0.60745
O_ O_ 0.660325 0.708921 0.713934 -0.60745
O_ O_ 0.908065 0.705113 0.71397 -0.60745
O_ O_ 0.598675 0.70858 0.709452 -0.60745
O_ O_ 0.848485 0.702898 0.720054 -0.60745
O_ O_ 0.597829 0.710041 0.778144 -0.60745
O_ O_ 0.849182 0.706095 0.790179 -0.60745
