_cell_length_a 44.444
_cell_length_b 32.3360000049186
_cell_length_c 31.843999878906452
_cell_angle_alpha 89.99799923859553
_cell_angle_beta 91.13600050494348
_cell_angle_gamma 89.9990006550086
_symmetry_space_group_name_H-M         'P 1'
_symmetry_Int_Tables_number            1
loop_
_symmetry_equiv_pos_as_xyz
   'x, y, z'
                         
loop_
_atom_site_label
_atom_site_type_symbol
_atom_site_fract_x 
_atom_site_fract_y
_atom_site_fract_z
_atom_site_charge
Zn Zn 0.1245 0.252097 0.29076 0.9476
Zn Zn 0.372411 0.252755 0.282824 0.9476
Zn Zn 0.122583 0.250368 0.222993 0.9476
Zn Zn 0.371821 0.255276 0.212582 0.9476
H_ H_ 0.0276348 0.411974 0.182321 0.10932
H_ H_ 0.269438 0.412281 0.190032 0.10932
H_ H_ 0.0583769 0.351979 0.321212 0.10932
H_ H_ 0.30703 0.351764 0.323402 0.10932
H_ H_ 0.0630924 0.354297 0.186195 0.10932
H_ H_ 0.295602 0.347111 0.189338 0.10932
H_ H_ 0.0344603 0.422061 0.316213 0.10932
H_ H_ 0.279542 0.419208 0.323294 0.10932
H_ H_ 0.206823 0.428234 0.319897 0.10932
H_ H_ 0.472172 0.40275 0.318161 0.10932
H_ H_ 0.178347 0.355595 0.188097 0.10932
H_ H_ 0.427064 0.368597 0.178513 0.10932
H_ H_ 0.18755 0.353181 0.325312 0.10932
H_ H_ 0.443574 0.339493 0.3094 0.10932
H_ H_ 0.205811 0.421622 0.187829 0.10932
H_ H_ 0.465017 0.423297 0.187825 0.10932
H_ H_ 0.20944 0.0757567 0.310768 0.10932
H_ H_ 0.449179 0.0772948 0.305824 0.10932
H_ H_ 0.182981 0.155664 0.184106 0.10932
H_ H_ 0.449173 0.166088 0.179374 0.10932
H_ H_ 0.180684 0.138023 0.318789 0.10932
H_ H_ 0.416824 0.136638 0.299452 0.10932
H_ H_ 0.217127 0.0961732 0.17893 0.10932
H_ H_ 0.472916 0.0952066 0.178119 0.10932
H_ H_ 0.0155153 0.102561 0.193417 0.10932
H_ H_ 0.304016 0.0688906 0.187551 0.10932
H_ H_ 0.0734103 0.14012 0.321092 0.10932
H_ H_ 0.292659 0.165113 0.311883 0.10932
H_ H_ 0.0409069 0.16975 0.197979 0.10932
H_ H_ 0.324753 0.138755 0.184631 0.10932
H_ H_ 0.0426999 0.0757795 0.322106 0.10932
H_ H_ 0.266227 0.0983266 0.308785 0.10932
H_ H_ 0.128578 0.322344 0.364586 0.10932
H_ H_ 0.354144 0.305212 0.362761 0.10932
H_ H_ 0.130931 0.186301 0.370499 0.10932
H_ H_ 0.405368 0.196139 0.346747 0.10932
H_ H_ 0.130204 0.189169 0.444885 0.10932
H_ H_ 0.402402 0.1833 0.424016 0.10932
H_ H_ 0.130401 0.325424 0.441197 0.10932
H_ H_ 0.364727 0.307539 0.437468 0.10932
H_ H_ 0.121514 0.317405 0.151406 0.10932
H_ H_ 0.363369 0.328167 0.141349 0.10932
H_ H_ 0.121683 0.184996 0.145203 0.10932
H_ H_ 0.370007 0.199518 0.131882 0.10932
H_ H_ 0.117928 0.188539 0.0684116 0.10932
H_ H_ 0.373437 0.201689 0.0567522 0.10932
H_ H_ 0.110878 0.31976 0.0738263 0.10932
H_ H_ 0.366491 0.334391 0.0631827 0.10932
C_ C_ 0.0648351 0.348481 0.254958 -0.02249
C_ C_ 0.309065 0.350399 0.256023 -0.02249
C_ C_ 0.0105473 0.45897 0.250492 -0.02249
C_ C_ 0.25877 0.46442 0.256533 -0.02249
C_ C_ 0.0351661 0.398566 0.213145 -0.11473
C_ C_ 0.280007 0.402159 0.218337 -0.11473
C_ C_ 0.0548236 0.3672 0.291989 -0.11473
C_ C_ 0.299948 0.365625 0.295457 -0.11473
C_ C_ 0.0539626 0.364548 0.215361 -0.11473
C_ C_ 0.293915 0.364668 0.217656 -0.11473
C_ C_ 0.025121 0.418017 0.250762 -0.02249
C_ C_ 0.273891 0.422676 0.256006 -0.02249
C_ C_ 0.0846026 0.310619 0.255281 0.6875
C_ C_ 0.332392 0.315321 0.253491 0.6875
C_ C_ 0.0368293 0.403804 0.289376 -0.11473
C_ C_ 0.284567 0.40506 0.29447 -0.11473
C_ C_ 0.179629 0.350642 0.256468 -0.02249
C_ C_ 0.436228 0.345302 0.24301 -0.02249
C_ C_ 0.22761 0.467229 0.252707 -0.02249
C_ C_ 0.483614 0.462009 0.256973 -0.02249
C_ C_ 0.201768 0.411203 0.29265 -0.11473
C_ C_ 0.46439 0.393439 0.286664 -0.11473
C_ C_ 0.185674 0.369905 0.218309 -0.11473
C_ C_ 0.441703 0.371357 0.208107 -0.11473
C_ C_ 0.19017 0.371207 0.293788 -0.11473
C_ C_ 0.449795 0.356035 0.281692 -0.11473
C_ C_ 0.209646 0.428268 0.252909 -0.02249
C_ C_ 0.468402 0.420561 0.253258 -0.02249
C_ C_ 0.163381 0.309839 0.257245 0.6875
C_ C_ 0.408617 0.316956 0.242342 0.6875
C_ C_ 0.20305 0.405869 0.217688 -0.11473
C_ C_ 0.458194 0.407183 0.214157 -0.11473
C_ C_ 0.180999 0.152809 0.250668 -0.02249
C_ C_ 0.429119 0.155443 0.23763 -0.02249
C_ C_ 0.232616 0.0419838 0.240425 -0.02249
C_ C_ 0.480373 0.0430773 0.242575 -0.02249
C_ C_ 0.20788 0.095898 0.283046 -0.11473
C_ C_ 0.449689 0.095861 0.276336 -0.11473
C_ C_ 0.191782 0.141445 0.212129 -0.11473
C_ C_ 0.444647 0.14302 0.202689 -0.11473
C_ C_ 0.189796 0.130632 0.287413 -0.11473
C_ C_ 0.430972 0.130925 0.273687 -0.11473
C_ C_ 0.21497 0.0809789 0.243927 -0.02249
C_ C_ 0.462607 0.0814504 0.240276 -0.02249
C_ C_ 0.163014 0.192101 0.253447 0.6875
C_ C_ 0.409182 0.193609 0.23818 0.6875
C_ C_ 0.207206 0.103856 0.208368 -0.11473
C_ C_ 0.457658 0.103151 0.201435 -0.11473
C_ C_ 0.060387 0.160007 0.259191 -0.02249
C_ C_ 0.314045 0.154529 0.250735 -0.02249
C_ C_ 0.0110088 0.0422262 0.25396 -0.02249
C_ C_ 0.264492 0.0413216 0.247082 -0.02249
C_ C_ 0.0259939 0.110045 0.222236 -0.11473
C_ C_ 0.298685 0.0920869 0.213371 -0.11473
C_ C_ 0.0610016 0.132085 0.292846 -0.11473
C_ C_ 0.295272 0.145597 0.285144 -0.11473
C_ C_ 0.041538 0.149724 0.225706 -0.11473
C_ C_ 0.314582 0.129572 0.214161 -0.11473
C_ C_ 0.0268369 0.0825061 0.256204 -0.02249
C_ C_ 0.282045 0.0799365 0.247125 -0.02249
C_ C_ 0.0839535 0.192376 0.257245 0.6875
C_ C_ 0.335228 0.191299 0.251927 0.6875
C_ C_ 0.0448138 0.0936395 0.291804 -0.11473
C_ C_ 0.282511 0.105202 0.284341 -0.11473
C_ C_ 0.129135 0.292741 0.382547 0.17695
C_ C_ 0.36906 0.28049 0.375682 0.17695
C_ C_ 0.12804 0.217952 0.384675 0.17695
C_ C_ 0.392997 0.215946 0.366212 0.17695
C_ C_ 0.128685 0.219226 0.429082 -0.11473
C_ C_ 0.391578 0.209863 0.410607 -0.11473
C_ C_ 0.127247 0.25794 0.449616 0.23465
C_ C_ 0.38152 0.241558 0.437884 0.23465
C_ C_ 0.12699 0.293848 0.426236 -0.11473
C_ C_ 0.371304 0.278734 0.419099 -0.11473
C_ C_ 0.120827 0.288156 0.13263 0.17695
C_ C_ 0.364384 0.300676 0.121582 0.17695
C_ C_ 0.122414 0.214622 0.128309 0.17695
C_ C_ 0.365738 0.228337 0.115843 0.17695
C_ C_ 0.119692 0.216188 0.0840821 -0.11473
C_ C_ 0.369814 0.22961 0.072946 -0.11473
C_ C_ 0.117471 0.255837 0.0646288 0.23465
C_ C_ 0.368385 0.267068 0.050932 0.23465
C_ C_ 0.114471 0.290772 0.0896812 -0.11473
C_ C_ 0.365245 0.302858 0.0760585 -0.11473
C_ C_ 0.0267141 0.498728 0.250187 0.05793
C_ C_ 0.27519 0.502323 0.26085 0.05793
C_ C_ 0.21651 0.00396375 0.233187 0.05793
C_ C_ 0.464649 1.00544889 0.240292 0.05793
Br Br 0.069227 0.496309 0.263027 -0.17191
Br Br 0.320063 0.499665 0.271898 -0.17191
Br Br 0.17754 0.00506514 0.209771 -0.17191
Br Br 0.424142 1.00340851 0.227269 -0.17191
N_ N_ 0.129757 0.255119 0.362284 -0.272
N_ N_ 0.379894 0.251059 0.349701 -0.272
N_ N_ 0.130042 0.260011 0.495083 -0.12501
N_ N_ 0.382112 0.235128 0.481482 -0.12501
N_ N_ 0.120284 0.250503 0.15174 -0.272
N_ N_ 0.367884 0.26302 0.140264 -0.272
N_ N_ 0.113491 0.260147 0.0218165 -0.12501
N_ N_ 0.367053 0.270656 0.00521608 -0.12501
O_ O_ 0.0899623 0.290001 0.221381 -0.60745
O_ O_ 0.339644 0.300967 0.218336 -0.60745
O_ O_ 0.0977717 0.299846 0.289053 -0.60745
O_ O_ 0.336279 0.292974 0.28553 -0.60745
O_ O_ 0.156891 0.293702 0.292712 -0.60745
O_ O_ 0.399135 0.304277 0.278153 -0.60745
O_ O_ 0.154936 0.293212 0.223728 -0.60745
O_ O_ 0.400254 0.298897 0.208885 -0.60745
O_ O_ 0.155219 0.206231 0.289422 -0.60745
O_ O_ 0.40577 0.212671 0.273228 -0.60745
O_ O_ 0.15352 0.20832 0.219849 -0.60745
O_ O_ 0.401349 0.210969 0.203761 -0.60745
O_ O_ 0.0929667 0.205882 0.221748 -0.60745
O_ O_ 0.341653 0.209343 0.218451 -0.60745
O_ O_ 0.0910999 0.212464 0.291107 -0.60745
O_ O_ 0.347498 0.204303 0.285602 -0.60745
Zn Zn 0.128913 0.24892 0.792594 0.9476
Zn Zn 0.378258 0.245973 0.78008 0.9476
Zn Zn 0.128393 0.248858 0.721159 0.9476
Zn Zn 0.376175 0.246524 0.709743 0.9476
H_ H_ 0.0397485 0.419987 0.685021 0.10932
H_ H_ 0.277252 0.40508 0.683778 0.10932
H_ H_ 0.058209 0.341688 0.81839 0.10932
H_ H_ 0.324975 0.348356 0.816766 0.10932
H_ H_ 0.0656999 0.353982 0.681881 0.10932
H_ H_ 0.303465 0.336759 0.684919 0.10932
H_ H_ 0.0278121 0.405742 0.817039 0.10932
H_ H_ 0.298575 0.41917 0.817543 0.10932
H_ H_ 0.225376 0.412714 0.825891 0.10932
H_ H_ 0.460594 0.424962 0.807356 0.10932
H_ H_ 0.188858 0.351268 0.694895 0.10932
H_ H_ 0.435683 0.349981 0.673085 0.10932
H_ H_ 0.202424 0.346896 0.828658 0.10932
H_ H_ 0.430107 0.358935 0.807322 0.10932
H_ H_ 0.204912 0.422095 0.692779 0.10932
H_ H_ 0.463084 0.414786 0.673226 0.10932
H_ H_ 0.21169 0.0719728 0.827666 0.10932
H_ H_ 0.472306 0.0878918 0.817976 0.10932
H_ H_ 0.183301 0.139588 0.694787 0.10932
H_ H_ 0.440978 0.144632 0.680921 0.10932
H_ H_ 0.180406 0.133029 0.828663 0.10932
H_ H_ 0.4402 0.148352 0.815696 0.10932
H_ H_ 0.211541 0.0771365 0.692666 0.10932
H_ H_ 0.469589 0.0794431 0.684734 0.10932
H_ H_ 0.0487629 0.0740221 0.680605 0.10932
H_ H_ 0.281641 0.0752028 0.690957 0.10932
H_ H_ 0.057203 0.153281 0.813215 0.10932
H_ H_ 0.332549 0.136525 0.814285 0.10932
H_ H_ 0.0794558 0.141062 0.686535 0.10932
H_ H_ 0.309913 0.139625 0.683604 0.10932
H_ H_ 0.0251255 0.0867523 0.81106 0.10932
H_ H_ 0.297398 0.076726 0.824252 0.10932
H_ H_ 0.126535 0.311031 0.872999 0.10932
H_ H_ 0.38202 0.311001 0.852892 0.10932
H_ H_ 0.118137 0.180764 0.862249 0.10932
H_ H_ 0.369379 0.182575 0.850895 0.10932
H_ H_ 0.11685 0.17323 0.939515 0.10932
H_ H_ 0.366902 0.179916 0.924094 0.10932
H_ H_ 0.132436 0.304026 0.952986 0.10932
H_ H_ 0.387085 0.312362 0.932483 0.10932
H_ H_ 0.136319 0.179575 0.651021 0.10932
H_ H_ 0.388994 0.18784 0.628912 0.10932
H_ H_ 0.115232 0.305131 0.641912 0.10932
H_ H_ 0.363731 0.311138 0.642186 0.10932
H_ H_ 0.114458 0.302915 0.565149 0.10932
H_ H_ 0.356892 0.317287 0.565635 0.10932
H_ H_ 0.124025 0.169344 0.576132 0.10932
H_ H_ 0.380621 0.190411 0.549955 0.10932
C_ C_ 0.0682296 0.346049 0.750182 -0.02249
C_ C_ 0.317339 0.34414 0.751985 -0.02249
C_ C_ 0.0198476 0.461259 0.750626 -0.02249
C_ C_ 0.268933 0.459828 0.752576 -0.02249
C_ C_ 0.0453938 0.404799 0.714005 -0.11473
C_ C_ 0.287036 0.395839 0.715613 -0.11473
C_ C_ 0.0561009 0.359425 0.789244 -0.11473
C_ C_ 0.316723 0.366827 0.788053 -0.11473
C_ C_ 0.0599035 0.367796 0.71186 -0.11473
C_ C_ 0.303533 0.35876 0.714977 -0.11473
C_ C_ 0.0356648 0.419863 0.752506 -0.02249
C_ C_ 0.286053 0.419524 0.752203 -0.02249
C_ C_ 0.0895297 0.310534 0.750583 0.6875
C_ C_ 0.333967 0.303641 0.74984 0.6875
C_ C_ 0.037811 0.395211 0.789563 -0.11473
C_ C_ 0.299024 0.402461 0.788888 -0.11473
C_ C_ 0.189355 0.344792 0.760842 -0.02249
C_ C_ 0.431407 0.348629 0.742127 -0.02249
C_ C_ 0.236941 0.460922 0.757521 -0.02249
C_ C_ 0.483143 0.461159 0.739571 -0.02249
C_ C_ 0.216512 0.400654 0.796668 -0.11473
C_ C_ 0.453832 0.406754 0.778635 -0.11473
C_ C_ 0.194114 0.36575 0.722807 -0.11473
C_ C_ 0.439541 0.366117 0.702774 -0.11473
C_ C_ 0.199776 0.364412 0.798765 -0.11473
C_ C_ 0.439462 0.368186 0.779377 -0.11473
C_ C_ 0.219398 0.422433 0.759035 -0.02249
C_ C_ 0.463682 0.422929 0.740267 -0.02249
C_ C_ 0.166742 0.310203 0.760024 0.6875
C_ C_ 0.41206 0.309798 0.743866 0.6875
C_ C_ 0.205645 0.407265 0.722206 -0.11473
C_ C_ 0.457033 0.401668 0.703457 -0.11473
C_ C_ 0.18702 0.149772 0.763628 -0.02249
C_ C_ 0.439659 0.153266 0.749258 -0.02249
C_ C_ 0.236476 0.0332151 0.758421 -0.02249
C_ C_ 0.485874 0.0363349 0.751493 -0.02249
C_ C_ 0.20858 0.088676 0.798462 -0.11473
C_ C_ 0.465391 0.0985295 0.788661 -0.11473
C_ C_ 0.194615 0.13153 0.72545 -0.11473
C_ C_ 0.44719 0.133215 0.712205 -0.11473
C_ C_ 0.193112 0.126689 0.80015 -0.11473
C_ C_ 0.447486 0.135019 0.786302 -0.11473
C_ C_ 0.219681 0.0726536 0.758918 -0.02249
C_ C_ 0.471025 0.0758561 0.752156 -0.02249
C_ C_ 0.168909 0.188344 0.762357 0.6875
C_ C_ 0.414744 0.185906 0.749137 0.6875
C_ C_ 0.210958 0.0940574 0.722544 -0.11473
C_ C_ 0.463641 0.0953333 0.714081 -0.11473
C_ C_ 0.0694486 0.149999 0.752082 -0.02249
C_ C_ 0.319269 0.147957 0.750399 -0.02249
C_ C_ 0.0174222 0.0378434 0.741812 -0.02249
C_ C_ 0.268517 0.0340087 0.759639 -0.02249
C_ C_ 0.0495268 0.0918876 0.709976 -0.11473
C_ C_ 0.290696 0.0914266 0.717901 -0.11473
C_ C_ 0.0538319 0.13571 0.786088 -0.11473
C_ C_ 0.320024 0.12451 0.787223 -0.11473
C_ C_ 0.0660817 0.128945 0.712743 -0.11473
C_ C_ 0.303641 0.130581 0.714167 -0.11473
C_ C_ 0.0345238 0.0778649 0.745555 -0.02249
C_ C_ 0.286449 0.0721338 0.756123 -0.02249
C_ C_ 0.0908707 0.185524 0.756901 0.6875
C_ C_ 0.337408 0.186361 0.748432 0.6875
C_ C_ 0.0352377 0.101379 0.783087 -0.11473
C_ C_ 0.300376 0.0909507 0.79254 -0.11473
C_ C_ 0.126985 0.282102 0.888882 0.17695
C_ C_ 0.380427 0.28317 0.870923 0.17695
C_ C_ 0.116747 0.210111 0.882048 0.17695
C_ C_ 0.373031 0.210528 0.869187 0.17695
C_ C_ 0.116137 0.205645 0.926354 -0.11473
C_ C_ 0.371622 0.210253 0.912509 -0.11473
C_ C_ 0.121373 0.240376 0.951363 0.23465
C_ C_ 0.375883 0.246278 0.93767 0.23465
C_ C_ 0.124815 0.279546 0.933213 -0.11473
C_ C_ 0.380681 0.282349 0.9163 -0.11473
C_ C_ 0.128226 0.20534 0.63265 0.17695
C_ C_ 0.381443 0.215759 0.614595 0.17695
C_ C_ 0.121994 0.276585 0.627322 0.17695
C_ C_ 0.366235 0.284174 0.622253 0.17695
C_ C_ 0.120226 0.275463 0.582631 -0.11473
C_ C_ 0.365245 0.289752 0.577215 -0.11473
C_ C_ 0.121211 0.236618 0.563454 0.23465
C_ C_ 0.37368 0.256051 0.552154 0.23465
C_ C_ 0.123496 0.201327 0.58876 -0.11473
C_ C_ 0.38006 0.21801 0.570014 -0.11473
C_ C_ 0.0358067 0.498429 0.753884 0.05793
C_ C_ 0.285127 0.496412 0.745436 0.05793
C_ C_ 0.220641 -0.0038479999999999626 0.750333 0.05793
C_ C_ 0.470591 0.998498 0.750178 0.05793
Br Br 0.0806443 0.497637 0.753058 -0.17191
Br Br 0.327925 0.49007 0.733331 -0.17191
Br Br 0.176932 -0.008835000000000037 0.761246 -0.17191
Br Br 0.426734 0.998091 0.74069 -0.17191
N_ N_ 0.124887 0.247429 0.864867 -0.272
N_ N_ 0.376761 0.246483 0.848725 -0.272
N_ N_ 0.123253 0.234737 0.99667 -0.12501
N_ N_ 0.377289 0.242573 0.981934 -0.12501
N_ N_ 0.128982 0.242311 0.649697 -0.272
N_ N_ 0.374927 0.248198 0.639928 -0.272
N_ N_ 0.121081 0.232041 0.518865 -0.12501
N_ N_ 0.36778 0.257857 0.507169 -0.12501
O_ O_ 0.0946244 0.29285 0.717338 -0.60745
O_ O_ 0.346173 0.29602 0.71461 -0.60745
O_ O_ 0.0972326 0.293994 0.783586 -0.60745
O_ O_ 0.344344 0.286787 0.783385 -0.60745
O_ O_ 0.158146 0.295033 0.794234 -0.60745
O_ O_ 0.406479 0.290696 0.778404 -0.60745
O_ O_ 0.157879 0.294139 0.725346 -0.60745
O_ O_ 0.407729 0.289986 0.70961 -0.60745
O_ O_ 0.159728 0.204866 0.796214 -0.60745
O_ O_ 0.410858 0.205605 0.783834 -0.60745
O_ O_ 0.161987 0.204062 0.728115 -0.60745
O_ O_ 0.405846 0.200944 0.714438 -0.60745
O_ O_ 0.100677 0.201329 0.723919 -0.60745
O_ O_ 0.34509 0.201803 0.713633 -0.60745
O_ O_ 0.0953407 0.205062 0.790561 -0.60745
O_ O_ 0.347445 0.203111 0.782321 -0.60745
Zn Zn 0.118268 0.753831 0.283992 0.9476
Zn Zn 0.372649 0.754742 0.282043 0.9476
Zn Zn 0.122665 0.749149 0.217405 0.9476
Zn Zn 0.371425 0.751911 0.210276 0.9476
H_ H_ 0.0386283 0.928543 0.185842 0.10932
H_ H_ 0.295928 0.939847 0.18615 0.10932
H_ H_ 0.0690538 0.857499 0.320487 0.10932
H_ H_ 0.290661 0.836137 0.302611 0.10932
H_ H_ 0.0703334 0.864911 0.186747 0.10932
H_ H_ 0.324523 0.871583 0.18262 0.10932
H_ H_ 0.0340764 0.919569 0.320206 0.10932
H_ H_ 0.266866 0.903012 0.308712 0.10932
H_ H_ 0.20049 0.933283 0.312913 0.10932
H_ H_ 0.450265 0.933946 0.303782 0.10932
H_ H_ 0.188232 0.849016 0.183142 0.10932
H_ H_ 0.443751 0.847994 0.176494 0.10932
H_ H_ 0.174665 0.865791 0.316338 0.10932
H_ H_ 0.426888 0.865966 0.307081 0.10932
H_ H_ 0.216827 0.912998 0.179611 0.10932
H_ H_ 0.472098 0.912028 0.174234 0.10932
H_ H_ 0.201475 0.583398 0.329544 0.10932
H_ H_ 0.472522 0.593171 0.322705 0.10932
H_ H_ 0.197769 0.662249 0.194751 0.10932
H_ H_ 0.423273 0.637735 0.188691 0.10932
H_ H_ 0.170243 0.645076 0.322176 0.10932
H_ H_ 0.444657 0.656765 0.321064 0.10932
H_ H_ 0.220349 0.589639 0.194745 0.10932
H_ H_ 0.449317 0.571659 0.191713 0.10932
H_ H_ 0.0557644 0.559701 0.192299 0.10932
H_ H_ 0.287145 0.575432 0.196379 0.10932
H_ H_ 0.0487596 0.656702 0.312084 0.10932
H_ H_ 0.309596 0.65971 0.317872 0.10932
H_ H_ 0.0837231 0.618286 0.18648 0.10932
H_ H_ 0.316027 0.638451 0.187571 0.10932
H_ H_ 0.0264782 0.588364 0.310178 0.10932
H_ H_ 0.279653 0.596584 0.327962 0.10932
H_ H_ 0.125472 0.811061 0.363376 0.10932
H_ H_ 0.354237 0.817203 0.35653 0.10932
H_ H_ 0.120335 0.681186 0.353063 0.10932
H_ H_ 0.392834 0.699924 0.364235 0.10932
H_ H_ 0.132164 0.672638 0.429985 0.10932
H_ H_ 0.392646 0.703092 0.440396 0.10932
H_ H_ 0.124887 0.80441 0.437062 0.10932
H_ H_ 0.358134 0.827774 0.42955 0.10932
H_ H_ 0.120134 0.689367 0.141132 0.10932
H_ H_ 0.389943 0.689072 0.138489 0.10932
H_ H_ 0.13014 0.819896 0.149914 0.10932
H_ H_ 0.355972 0.808481 0.129172 0.10932
H_ H_ 0.139919 0.822977 0.0737841 0.10932
H_ H_ 0.359844 0.804981 0.0483773 0.10932
H_ H_ 0.129092 0.693563 0.0602295 0.10932
H_ H_ 0.394967 0.68168 0.0657605 0.10932
C_ C_ 0.0654162 0.853265 0.251883 -0.02249
C_ C_ 0.31083 0.850667 0.243575 -0.02249
C_ C_ 0.0131507 0.966273 0.251787 -0.02249
C_ C_ 0.262417 0.965962 0.249343 -0.02249
C_ C_ 0.0416457 0.910754 0.21521 -0.11473
C_ C_ 0.294548 0.915996 0.210302 -0.11473
C_ C_ 0.0598315 0.872022 0.290324 -0.11473
C_ C_ 0.294941 0.859822 0.279586 -0.11473
C_ C_ 0.0587354 0.873955 0.214294 -0.11473
C_ C_ 0.309868 0.877469 0.208491 -0.11473
C_ C_ 0.0319805 0.927394 0.254048 -0.02249
C_ C_ 0.278015 0.92645 0.247291 -0.02249
C_ C_ 0.0823218 0.812945 0.251911 0.6875
C_ C_ 0.332291 0.815502 0.24284 0.6875
C_ C_ 0.0423394 0.907989 0.291266 -0.11473
C_ C_ 0.278075 0.897411 0.281325 -0.11473
C_ C_ 0.175998 0.853585 0.249516 -0.02249
C_ C_ 0.432458 0.850401 0.240957 -0.02249
C_ C_ 0.230147 0.966788 0.243031 -0.02249
C_ C_ 0.480649 0.967239 0.240386 -0.02249
C_ C_ 0.199752 0.912575 0.284139 -0.11473
C_ C_ 0.449356 0.914205 0.275687 -0.11473
C_ C_ 0.189649 0.867188 0.210894 -0.11473
C_ C_ 0.448875 0.86247 0.206048 -0.11473
C_ C_ 0.179952 0.879705 0.284982 -0.11473
C_ C_ 0.434121 0.876321 0.275554 -0.11473
C_ C_ 0.211414 0.927471 0.246428 -0.02249
C_ C_ 0.464027 0.927428 0.238559 -0.02249
C_ C_ 0.158195 0.813663 0.251238 0.6875
C_ C_ 0.41253 0.812142 0.243234 0.6875
C_ C_ 0.20714 0.903416 0.210109 -0.11473
C_ C_ 0.462758 0.901774 0.202424 -0.11473
C_ C_ 0.18194 0.6589 0.258456 -0.02249
C_ C_ 0.431053 0.652517 0.254121 -0.02249
C_ C_ 0.228824 0.542513 0.261191 -0.02249
C_ C_ 0.481999 0.53688 0.257274 -0.02249
C_ C_ 0.199868 0.598646 0.298625 -0.11473
C_ C_ 0.458145 0.600395 0.295288 -0.11473
C_ C_ 0.199101 0.644539 0.223811 -0.11473
C_ C_ 0.431802 0.625825 0.218533 -0.11473
C_ C_ 0.183015 0.63545 0.295574 -0.11473
C_ C_ 0.446204 0.639306 0.292546 -0.11473
C_ C_ 0.212129 0.582358 0.261566 -0.02249
C_ C_ 0.462126 0.575302 0.25781 -0.02249
C_ C_ 0.162045 0.692768 0.253044 0.6875
C_ C_ 0.41185 0.69201 0.252189 0.6875
C_ C_ 0.212289 0.604545 0.224694 -0.11473
C_ C_ 0.447044 0.587798 0.2209 -0.11473
C_ C_ 0.0647062 0.650302 0.244288 -0.02249
C_ C_ 0.312239 0.657558 0.251974 -0.02249
C_ C_ 0.0127289 0.53875 0.245496 -0.02249
C_ C_ 0.260412 0.541331 0.264322 -0.02249
C_ C_ 0.0485148 0.584822 0.210965 -0.11473
C_ C_ 0.29218 0.593805 0.224105 -0.11473
C_ C_ 0.048122 0.638551 0.280752 -0.11473
C_ C_ 0.299177 0.644555 0.290981 -0.11473
C_ C_ 0.0677221 0.619851 0.211157 -0.11473
C_ C_ 0.307597 0.631936 0.218942 -0.11473
C_ C_ 0.0303956 0.577628 0.244644 -0.02249
C_ C_ 0.280065 0.581092 0.26251 -0.02249
C_ C_ 0.0852999 0.687916 0.244809 0.6875
C_ C_ 0.332424 0.696332 0.249632 0.6875
C_ C_ 0.0329879 0.601514 0.280005 -0.11473
C_ C_ 0.284027 0.606711 0.296843 -0.11473
C_ C_ 0.124023 0.780302 0.377696 0.17695
C_ C_ 0.364048 0.792564 0.373806 0.17695
C_ C_ 0.120687 0.708002 0.372309 0.17695
C_ C_ 0.383184 0.727223 0.379608 0.17695
C_ C_ 0.126183 0.70327 0.416205 -0.11473
C_ C_ 0.384288 0.730414 0.423713 -0.11473
C_ C_ 0.122916 0.737877 0.44147 0.23465
C_ C_ 0.373859 0.765149 0.442057 0.23465
C_ C_ 0.123532 0.776836 0.421038 -0.11473
C_ C_ 0.364832 0.79871 0.416961 -0.11473
C_ C_ 0.121075 0.717985 0.122636 0.17695
C_ C_ 0.384764 0.715959 0.12216 0.17695
C_ C_ 0.129294 0.791839 0.130435 0.17695
C_ C_ 0.363124 0.781253 0.115358 0.17695
C_ C_ 0.130784 0.796055 0.0863661 -0.11473
C_ C_ 0.367392 0.779872 0.069653 -0.11473
C_ C_ 0.128665 0.760479 0.0604056 0.23465
C_ C_ 0.381126 0.743798 0.053505 0.23465
C_ C_ 0.128277 0.720505 0.0794415 -0.11473
C_ C_ 0.388934 0.711808 0.0801159 -0.11473
C_ C_ 0.0288427 1.00538885 0.252963 0.05793
C_ C_ 0.278504 1.00333732 0.25529 0.05793
C_ C_ 0.213029 0.506316 0.252621 0.05793
C_ C_ 0.467479 0.498546 0.261098 0.05793
Br Br 0.07163 0.00798718 0.247991 -0.17191
Br Br 0.317663 1.00235189 0.27756 -0.17191
Br Br 0.17075 0.508446 0.237756 -0.17191
Br Br 0.425833 0.495072 0.277801 -0.17191
N_ N_ 0.119256 0.746914 0.3548 -0.272
N_ N_ 0.373968 0.759018 0.354528 -0.272
N_ N_ 0.130606 0.732445 0.48445 -0.12501
N_ N_ 0.376414 0.772742 0.486862 -0.12501
N_ N_ 0.122909 0.753091 0.147711 -0.272
N_ N_ 0.374675 0.751747 0.139861 -0.272
N_ N_ 0.132197 0.766668 0.01603 -0.12501
N_ N_ 0.382829 0.737029 0.0103257 -0.12501
O_ O_ 0.0936145 0.797971 0.21988 -0.60745
O_ O_ 0.338579 0.798336 0.20815 -0.60745
O_ O_ 0.0858493 0.793997 0.286377 -0.60745
O_ O_ 0.3448 0.803458 0.277498 -0.60745
O_ O_ 0.147442 0.800509 0.286491 -0.60745
O_ O_ 0.404456 0.797434 0.278308 -0.60745
O_ O_ 0.155975 0.790411 0.219899 -0.60745
O_ O_ 0.403681 0.795405 0.208715 -0.60745
O_ O_ 0.149721 0.71007 0.284307 -0.60745
O_ O_ 0.398889 0.704446 0.284381 -0.60745
O_ O_ 0.154559 0.704258 0.215815 -0.60745
O_ O_ 0.406093 0.71199 0.217982 -0.60745
O_ O_ 0.0929543 0.706576 0.212754 -0.60745
O_ O_ 0.340692 0.708798 0.213645 -0.60745
O_ O_ 0.0905227 0.703016 0.279514 -0.60745
O_ O_ 0.339463 0.717075 0.282383 -0.60745
Zn Zn 0.130155 0.746324 0.786032 0.9476
Zn Zn 0.379653 0.748534 0.780752 0.9476
Zn Zn 0.130554 0.746229 0.714303 0.9476
Zn Zn 0.377315 0.749269 0.712716 0.9476
H_ H_ 0.0478054 0.928092 0.679422 0.10932
H_ H_ 0.293975 0.926853 0.686899 0.10932
H_ H_ 0.0592965 0.84295 0.809625 0.10932
H_ H_ 0.310325 0.83908 0.817335 0.10932
H_ H_ 0.078294 0.860259 0.675727 0.10932
H_ H_ 0.326209 0.864291 0.684674 0.10932
H_ H_ 0.0302909 0.908487 0.807834 0.10932
H_ H_ 0.284142 0.904285 0.820971 0.10932
H_ H_ 0.208415 0.922865 0.809527 0.10932
H_ H_ 0.460161 0.925636 0.815512 0.10932
H_ H_ 0.20402 0.840239 0.680205 0.10932
H_ H_ 0.452784 0.83786 0.690821 0.10932
H_ H_ 0.194528 0.848089 0.812027 0.10932
H_ H_ 0.434043 0.858887 0.820419 0.10932
H_ H_ 0.22898 0.908208 0.678563 0.10932
H_ H_ 0.475866 0.906819 0.68367 0.10932
H_ H_ 0.22642 0.584829 0.818337 0.10932
H_ H_ 0.465236 0.574917 0.813047 0.10932
H_ H_ 0.188608 0.645055 0.68294 0.10932
H_ H_ 0.451639 0.657323 0.68071 0.10932
H_ H_ 0.194385 0.649209 0.818989 0.10932
H_ H_ 0.434051 0.640018 0.815411 0.10932
H_ H_ 0.21588 0.578049 0.682098 0.10932
H_ H_ 0.482936 0.596397 0.68192 0.10932
H_ H_ 0.0347677 0.588361 0.683209 0.10932
H_ H_ 0.281103 0.585329 0.681856 0.10932
H_ H_ 0.081521 0.633112 0.821079 0.10932
H_ H_ 0.323196 0.637298 0.814824 0.10932
H_ H_ 0.0634015 0.650828 0.684895 0.10932
H_ H_ 0.306246 0.651859 0.686151 0.10932
H_ H_ 0.0476808 0.571877 0.818915 0.10932
H_ H_ 0.293474 0.575519 0.815493 0.10932
H_ H_ 0.137876 0.810788 0.866356 0.10932
H_ H_ 0.364824 0.813384 0.856621 0.10932
H_ H_ 0.132051 0.681872 0.858218 0.10932
H_ H_ 0.395821 0.689797 0.863078 0.10932
H_ H_ 0.122277 0.67488 0.934398 0.10932
H_ H_ 0.4033 0.69785 0.942098 0.10932
H_ H_ 0.134535 0.807129 0.943354 0.10932
H_ H_ 0.358626 0.814446 0.931807 0.10932
H_ H_ 0.171045 0.742618 0.633448 0.10932
H_ H_ 0.378616 0.685843 0.643864 0.10932
H_ H_ 0.0792453 0.728164 0.64782 0.10932
H_ H_ 0.378008 0.815276 0.634228 0.10932
H_ H_ 0.0699681 0.730059 0.567818 0.10932
H_ H_ 0.38098 0.810578 0.557546 0.10932
H_ H_ 0.165525 0.740901 0.556015 0.10932
H_ H_ 0.376719 0.681014 0.565198 0.10932
C_ C_ 0.0726691 0.846357 0.743345 -0.02249
C_ C_ 0.320542 0.844682 0.749366 -0.02249
C_ C_ 0.0185587 0.960807 0.743272 -0.02249
C_ C_ 0.268871 0.959735 0.75454 -0.02249
C_ C_ 0.0496307 0.906641 0.705843 -0.11473
C_ C_ 0.296586 0.906071 0.715185 -0.11473
C_ C_ 0.0571296 0.859476 0.78059 -0.11473
C_ C_ 0.305971 0.856176 0.787208 -0.11473
C_ C_ 0.0682758 0.870969 0.706095 -0.11473
C_ C_ 0.315122 0.870902 0.713381 -0.11473
C_ C_ 0.0359171 0.92145 0.742091 -0.02249
C_ C_ 0.284656 0.919216 0.753127 -0.02249
C_ C_ 0.0931905 0.808549 0.746148 0.6875
C_ C_ 0.338133 0.805101 0.746051 0.6875
C_ C_ 0.0408511 0.897573 0.77947 -0.11473
C_ C_ 0.28875 0.893039 0.789169 -0.11473
C_ C_ 0.193768 0.839506 0.744508 -0.02249
C_ C_ 0.43719 0.845465 0.75295 -0.02249
C_ C_ 0.237563 0.959351 0.747561 -0.02249
C_ C_ 0.486399 0.960208 0.749594 -0.02249
C_ C_ 0.210528 0.901975 0.781671 -0.11473
C_ C_ 0.457366 0.906543 0.788723 -0.11473
C_ C_ 0.201777 0.858899 0.707263 -0.11473
C_ C_ 0.452407 0.857982 0.717255 -0.11473
C_ C_ 0.198185 0.861012 0.782082 -0.11473
C_ C_ 0.440655 0.868945 0.789423 -0.11473
C_ C_ 0.220976 0.91866 0.745042 -0.02249
C_ C_ 0.468712 0.921225 0.750189 -0.02249
C_ C_ 0.174594 0.799541 0.745588 0.6875
C_ C_ 0.41466 0.811566 0.75147 0.6875
C_ C_ 0.216581 0.896921 0.708268 -0.11473
C_ C_ 0.466544 0.895251 0.714595 -0.11473
C_ C_ 0.186911 0.649829 0.751546 -0.02249
C_ C_ 0.440612 0.655856 0.749853 -0.02249
C_ C_ 0.239709 0.53693 0.75445 -0.02249
C_ C_ 0.489627 0.53649 0.749709 -0.02249
C_ C_ 0.217059 0.598428 0.78893 -0.11473
C_ C_ 0.463003 0.593793 0.785629 -0.11473
C_ C_ 0.196212 0.631454 0.712495 -0.11473
C_ C_ 0.45152 0.638426 0.710714 -0.11473
C_ C_ 0.198195 0.632682 0.789703 -0.11473
C_ C_ 0.444934 0.629795 0.786722 -0.11473
C_ C_ 0.22316 0.577611 0.751012 -0.02249
C_ C_ 0.475161 0.57881 0.747333 -0.02249
C_ C_ 0.169865 0.689254 0.751758 0.6875
C_ C_ 0.419333 0.692037 0.747499 0.6875
C_ C_ 0.211817 0.592852 0.711306 -0.11473
C_ C_ 0.46977 0.602235 0.710452 -0.11473
C_ C_ 0.0738433 0.649148 0.753885 -0.02249
C_ C_ 0.322744 0.646865 0.747962 -0.02249
C_ C_ 0.0200355 0.538686 0.748418 -0.02249
C_ C_ 0.271021 0.535789 0.747949 -0.02249
C_ C_ 0.0447788 0.59916 0.71338 -0.11473
C_ C_ 0.288067 0.598777 0.711503 -0.11473
C_ C_ 0.0706769 0.62406 0.7902 -0.11473
C_ C_ 0.317168 0.626034 0.785306 -0.11473
C_ C_ 0.0608878 0.635156 0.714815 -0.11473
C_ C_ 0.304852 0.635424 0.713699 -0.11473
C_ C_ 0.0373604 0.577076 0.751991 -0.02249
C_ C_ 0.287848 0.574529 0.746451 -0.02249
C_ C_ 0.0932769 0.68643 0.754778 0.6875
C_ C_ 0.341412 0.686237 0.746896 0.6875
C_ C_ 0.0520409 0.588174 0.78895 -0.11473
C_ C_ 0.299548 0.589693 0.785495 -0.11473
C_ C_ 0.138885 0.780198 0.882829 0.17695
C_ C_ 0.371356 0.786624 0.874238 0.17695
C_ C_ 0.12906 0.708819 0.876887 0.17695
C_ C_ 0.391156 0.718691 0.877667 0.17695
C_ C_ 0.125897 0.706214 0.921599 -0.11473
C_ C_ 0.391907 0.719802 0.921537 -0.11473
C_ C_ 0.12924 0.741631 0.946088 0.23465
C_ C_ 0.384583 0.758124 0.940646 0.23465
C_ C_ 0.136509 0.777974 0.926389 -0.11473
C_ C_ 0.370773 0.789642 0.917669 -0.11473
C_ C_ 0.14829 0.741986 0.618375 0.17695
C_ C_ 0.375079 0.712965 0.624968 0.17695
C_ C_ 0.0964455 0.734107 0.627588 0.17695
C_ C_ 0.37676 0.78579 0.620307 0.17695
C_ C_ 0.0921426 0.735432 0.583793 -0.11473
C_ C_ 0.379174 0.783854 0.575934 -0.11473
C_ C_ 0.116941 0.737008 0.556031 0.23465
C_ C_ 0.374868 0.74686 0.555359 0.23465
C_ C_ 0.146008 0.738555 0.574775 -0.11473
C_ C_ 0.374765 0.710191 0.580744 -0.11473
C_ C_ 0.033321 -0.0008289999999999687 0.741868 0.05793
C_ C_ 0.28409 -0.0025680000000000147 0.760783 0.05793
C_ C_ 0.222072 0.499393 0.760923 0.05793
C_ C_ 0.471071 0.502539 0.744264 0.05793
Br Br 0.0769919 -0.0024690000000000545 0.745849 -0.17191
Br Br 0.327504 -0.0035479999999999956 0.76657 -0.17191
Br Br 0.18024 0.503527 0.77247 -0.17191
Br Br 0.428159 0.509204 0.734748 -0.17191
N_ N_ 0.134779 0.746229 0.858253 -0.272
N_ N_ 0.380808 0.751103 0.85432 -0.272
N_ N_ 0.126649 0.738137 0.989587 -0.12501
N_ N_ 0.388417 0.764416 0.984883 -0.12501
N_ N_ 0.12491 0.739761 0.643344 -0.272
N_ N_ 0.377091 0.750374 0.643056 -0.272
N_ N_ 0.11103 0.737864 0.511288 -0.12501
N_ N_ 0.376337 0.743575 0.511204 -0.12501
O_ O_ 0.10103 0.792005 0.712583 -0.60745
O_ O_ 0.348381 0.792344 0.711875 -0.60745
O_ O_ 0.0988675 0.790984 0.781497 -0.60745
O_ O_ 0.344835 0.78718 0.78067 -0.60745
O_ O_ 0.162629 0.787709 0.779022 -0.60745
O_ O_ 0.402305 0.796647 0.784178 -0.60745
O_ O_ 0.162456 0.785832 0.710663 -0.60745
O_ O_ 0.407156 0.796432 0.716606 -0.60745
O_ O_ 0.160635 0.701015 0.78651 -0.60745
O_ O_ 0.412218 0.708557 0.782159 -0.60745
O_ O_ 0.159438 0.705716 0.717854 -0.60745
O_ O_ 0.411934 0.708456 0.711806 -0.60745
O_ O_ 0.0989734 0.703284 0.720361 -0.60745
O_ O_ 0.347319 0.704487 0.713716 -0.60745
O_ O_ 0.0991908 0.703216 0.789714 -0.60745
O_ O_ 0.354152 0.698304 0.779576 -0.60745
Zn Zn 0.622025 0.249679 0.282615 0.9476
Zn Zn 0.86955 0.253291 0.281742 0.9476
Zn Zn 0.626083 0.251168 0.213311 0.9476
Zn Zn 0.870535 0.248967 0.208649 0.9476
H_ H_ 0.531682 0.419482 0.180847 0.10932
H_ H_ 0.786782 0.428687 0.182234 0.10932
H_ H_ 0.57064 0.35917 0.314171 0.10932
H_ H_ 0.801371 0.344968 0.312001 0.10932
H_ H_ 0.55764 0.351976 0.177245 0.10932
H_ H_ 0.814809 0.359794 0.180254 0.10932
H_ H_ 0.541222 0.420479 0.315822 0.10932
H_ H_ 0.773431 0.414286 0.313255 0.10932
H_ H_ 0.701318 0.427605 0.32417 0.10932
H_ H_ 0.941503 0.436403 0.30531 0.10932
H_ H_ 0.698986 0.341906 0.192556 0.10932
H_ H_ 0.947903 0.337256 0.185494 0.10932
H_ H_ 0.674649 0.360286 0.323537 0.10932
H_ H_ 0.91286 0.369718 0.307993 0.10932
H_ H_ 0.724795 0.408865 0.195346 0.10932
H_ H_ 0.970505 0.407408 0.181418 0.10932
H_ H_ 0.718133 0.0814536 0.320872 0.10932
H_ H_ 0.967114 0.0930785 0.320726 0.10932
H_ H_ 0.690275 0.152133 0.187217 0.10932
H_ H_ 0.933718 0.148631 0.180657 0.10932
H_ H_ 0.68564 0.14487 0.320911 0.10932
H_ H_ 0.944381 0.164175 0.31287 0.10932
H_ H_ 0.7245 0.0874108 0.186962 0.10932
H_ H_ 0.954372 0.0754395 0.189513 0.10932
H_ H_ 0.550234 0.0639066 0.180611 0.10932
H_ H_ 0.775448 0.0815803 0.185581 0.10932
H_ H_ 0.539364 0.172161 0.292974 0.10932
H_ H_ 0.812708 0.146735 0.318197 0.10932
H_ H_ 0.585367 0.124066 0.186297 0.10932
H_ H_ 0.803558 0.147392 0.182187 0.10932
H_ H_ 0.506701 0.113557 0.293523 0.10932
H_ H_ 0.783239 0.0802309 0.315435 0.10932
H_ H_ 0.616518 0.185789 0.354703 0.10932
H_ H_ 0.853719 0.188004 0.355158 0.10932
H_ H_ 0.616538 0.31689 0.359722 0.10932
H_ H_ 0.88069 0.312254 0.359234 0.10932
H_ H_ 0.617911 0.317074 0.431512 0.10932
H_ H_ 0.890796 0.306297 0.439236 0.10932
H_ H_ 0.626159 0.183629 0.43497 0.10932
H_ H_ 0.860912 0.181839 0.42694 0.10932
H_ H_ 0.641138 0.188395 0.137971 0.10932
H_ H_ 0.824724 0.236988 0.139973 0.10932
H_ H_ 0.604118 0.309568 0.13938 0.10932
H_ H_ 0.918246 0.259307 0.134466 0.10932
H_ H_ 0.61568 0.316683 0.0668137 0.10932
H_ H_ 0.916906 0.263569 0.059624 0.10932
H_ H_ 0.632669 0.187483 0.0585058 0.10932
H_ H_ 0.821243 0.241162 0.0603924 0.10932
C_ C_ 0.566582 0.350317 0.245765 -0.02249
C_ C_ 0.809323 0.348084 0.245854 -0.02249
C_ C_ 0.514538 0.462182 0.248403 -0.02249
C_ C_ 0.761234 0.46604 0.251608 -0.02249
C_ C_ 0.541009 0.407629 0.208672 -0.11473
C_ C_ 0.791859 0.410905 0.209791 -0.11473
C_ C_ 0.560504 0.369733 0.283138 -0.11473
C_ C_ 0.796684 0.362486 0.282825 -0.11473
C_ C_ 0.555705 0.368761 0.206666 -0.11473
C_ C_ 0.806334 0.372171 0.209081 -0.11473
C_ C_ 0.532929 0.424421 0.247413 -0.02249
C_ C_ 0.777895 0.424707 0.247502 -0.02249
C_ C_ 0.58235 0.310302 0.245918 0.6875
C_ C_ 0.829233 0.3097 0.245687 0.6875
C_ C_ 0.541937 0.404625 0.285404 -0.11473
C_ C_ 0.783568 0.402006 0.284277 -0.11473
C_ C_ 0.683857 0.346706 0.258067 -0.02249
C_ C_ 0.926522 0.349817 0.246388 -0.02249
C_ C_ 0.730017 0.463118 0.254359 -0.02249
C_ C_ 0.979797 0.462688 0.246133 -0.02249
C_ C_ 0.698822 0.410314 0.295678 -0.11473
C_ C_ 0.944196 0.413776 0.281129 -0.11473
C_ C_ 0.700975 0.359332 0.223253 -0.11473
C_ C_ 0.943915 0.359388 0.211226 -0.11473
C_ C_ 0.684783 0.369585 0.29503 -0.11473
C_ C_ 0.926385 0.378282 0.280567 -0.11473
C_ C_ 0.712901 0.425115 0.259377 -0.02249
C_ C_ 0.960989 0.423943 0.245975 -0.02249
C_ C_ 0.664087 0.310461 0.253725 0.6875
C_ C_ 0.908208 0.311177 0.247636 0.6875
C_ C_ 0.711759 0.400275 0.221319 -0.11473
C_ C_ 0.959793 0.396965 0.210032 -0.11473
C_ C_ 0.688779 0.155653 0.254604 -0.02249
C_ C_ 0.932984 0.157982 0.247245 -0.02249
C_ C_ 0.734159 0.0387909 0.252448 -0.02249
C_ C_ 0.9789 0.0401137 0.256064 -0.02249
C_ C_ 0.712087 0.0968819 0.293417 -0.11473
C_ C_ 0.958774 0.10414 0.290875 -0.11473
C_ C_ 0.697562 0.137482 0.216465 -0.11473
C_ C_ 0.938823 0.134913 0.210946 -0.11473
C_ C_ 0.695865 0.134857 0.291934 -0.11473
C_ C_ 0.945698 0.144479 0.287026 -0.11473
C_ C_ 0.719878 0.0790086 0.253776 -0.02249
C_ C_ 0.961365 0.0789818 0.25433 -0.02249
C_ C_ 0.666957 0.193181 0.252555 0.6875
C_ C_ 0.911651 0.193447 0.244689 0.6875
C_ C_ 0.71571 0.101613 0.216717 -0.11473
C_ C_ 0.949726 0.0937414 0.215996 -0.11473
C_ C_ 0.565069 0.152107 0.239794 -0.02249
C_ C_ 0.812985 0.150925 0.248404 -0.02249
C_ C_ 0.512647 0.0422272 0.242895 -0.02249
C_ C_ 0.76669 0.0363202 0.253554 -0.02249
C_ C_ 0.548882 0.0858136 0.207152 -0.11473
C_ C_ 0.786823 0.0945632 0.2127 -0.11473
C_ C_ 0.541457 0.150569 0.267535 -0.11473
C_ C_ 0.80677 0.131643 0.287482 -0.11473
C_ C_ 0.56762 0.120758 0.209173 -0.11473
C_ C_ 0.804579 0.130748 0.21066 -0.11473
C_ C_ 0.529682 0.0804611 0.240995 -0.02249
C_ C_ 0.78388 0.0739321 0.250919 -0.02249
C_ C_ 0.58679 0.187387 0.243231 0.6875
C_ C_ 0.835224 0.187409 0.246387 0.6875
C_ C_ 0.524214 0.113857 0.269358 -0.11473
C_ C_ 0.791461 0.0937121 0.287784 -0.11473
C_ C_ 0.623362 0.21305 0.372718 0.17695
C_ C_ 0.860847 0.215917 0.372913 0.17695
C_ C_ 0.619656 0.286202 0.373133 0.17695
C_ C_ 0.878147 0.283715 0.375405 0.17695
C_ C_ 0.620802 0.286952 0.417096 -0.11473
C_ C_ 0.879202 0.282503 0.420438 -0.11473
C_ C_ 0.624599 0.249054 0.439911 0.23465
C_ C_ 0.873782 0.244631 0.440826 0.23465
C_ C_ 0.624515 0.212739 0.417177 -0.11473
C_ C_ 0.863831 0.210586 0.416096 -0.11473
C_ C_ 0.632633 0.215279 0.120211 0.17695
C_ C_ 0.844769 0.2404 0.12037 0.17695
C_ C_ 0.61263 0.282766 0.122658 0.17695
C_ C_ 0.896714 0.259893 0.118415 0.17695
C_ C_ 0.615524 0.286265 0.0796453 -0.11473
C_ C_ 0.896899 0.254048 0.0760633 -0.11473
C_ C_ 0.623862 0.252186 0.0567553 0.23465
C_ C_ 0.868873 0.248362 0.0537618 0.23465
C_ C_ 0.632547 0.216349 0.0757152 -0.11473
C_ C_ 0.843358 0.240796 0.0762144 -0.11473
C_ C_ 0.528951 0.501499 0.245236 0.05793
C_ C_ 0.776457 0.504474 0.250808 0.05793
C_ C_ 0.716787 1.00364759 0.24898 0.05793
C_ C_ 0.96461 1.00348117 0.260509 0.05793
Br Br 0.568932 0.502467 0.22295 -0.17191
Br Br 0.819199 0.504329 0.243597 -0.17191
Br Br 0.67277 0.00775127 0.25216 -0.17191
Br Br 0.921051 0.00106212 0.264721 -0.17191
N_ N_ 0.621567 0.25055 0.352208 -0.272
N_ N_ 0.87026 0.250174 0.352938 -0.272
N_ N_ 0.620631 0.245279 0.484416 -0.12501
N_ N_ 0.879028 0.239575 0.486284 -0.12501
N_ N_ 0.62336 0.248337 0.143132 -0.272
N_ N_ 0.871449 0.250132 0.140855 -0.272
N_ N_ 0.629742 0.256199 0.0124513 -0.12501
N_ N_ 0.866008 0.252663 0.00948037 -0.12501
O_ O_ 0.593126 0.296249 0.212716 -0.60745
O_ O_ 0.834101 0.288771 0.211265 -0.60745
O_ O_ 0.591105 0.294338 0.280156 -0.60745
O_ O_ 0.836687 0.29387 0.279846 -0.60745
O_ O_ 0.655326 0.292973 0.286523 -0.60745
O_ O_ 0.897546 0.299255 0.282038 -0.60745
O_ O_ 0.654408 0.300158 0.217545 -0.60745
O_ O_ 0.900634 0.292589 0.213925 -0.60745
O_ O_ 0.653166 0.201763 0.285668 -0.60745
O_ O_ 0.90255 0.209172 0.278546 -0.60745
O_ O_ 0.661797 0.211992 0.217776 -0.60745
O_ O_ 0.902137 0.204436 0.209221 -0.60745
O_ O_ 0.596784 0.203714 0.210455 -0.60745
O_ O_ 0.838485 0.204434 0.210732 -0.60745
O_ O_ 0.590098 0.207145 0.277513 -0.60745
O_ O_ 0.842759 0.206532 0.279539 -0.60745
Zn Zn 0.628144 0.250239 0.784608 0.9476
Zn Zn 0.879325 0.249122 0.784022 0.9476
Zn Zn 0.630073 0.249733 0.715423 0.9476
Zn Zn 0.878199 0.249299 0.715502 0.9476
H_ H_ 0.525373 0.400262 0.678185 0.10932
H_ H_ 0.803025 0.432298 0.69154 0.10932
H_ H_ 0.557717 0.346248 0.814083 0.10932
H_ H_ 0.807582 0.346292 0.819583 0.10932
H_ H_ 0.557302 0.338046 0.686133 0.10932
H_ H_ 0.834424 0.364566 0.691169 0.10932
H_ H_ 0.534743 0.417438 0.811335 0.10932
H_ H_ 0.778679 0.407731 0.818695 0.10932
H_ H_ 0.708409 0.429955 0.818375 0.10932
H_ H_ 0.961408 0.419612 0.818515 0.10932
H_ H_ 0.704398 0.336472 0.690173 0.10932
H_ H_ 0.943216 0.353248 0.683086 0.10932
H_ H_ 0.67803 0.361222 0.81926 0.10932
H_ H_ 0.933418 0.357 0.816368 0.10932
H_ H_ 0.740459 0.393365 0.696811 0.10932
H_ H_ 0.970395 0.419878 0.686478 0.10932
H_ H_ 0.733597 0.0958293 0.815584 0.10932
H_ H_ 0.94669 0.0619656 0.80341 0.10932
H_ H_ 0.676327 0.135879 0.690706 0.10932
H_ H_ 0.951723 0.15691 0.684674 0.10932
H_ H_ 0.708934 0.162267 0.81426 0.10932
H_ H_ 0.926557 0.12944 0.812151 0.10932
H_ H_ 0.706386 0.0705604 0.687959 0.10932
H_ H_ 0.983247 0.095235 0.684955 0.10932
H_ H_ 0.521938 0.0966672 0.688431 0.10932
H_ H_ 0.769232 0.0959889 0.687032 0.10932
H_ H_ 0.586623 0.132425 0.811127 0.10932
H_ H_ 0.837404 0.122341 0.806139 0.10932
H_ H_ 0.552822 0.155537 0.689153 0.10932
H_ H_ 0.798299 0.165147 0.690274 0.10932
H_ H_ 0.552464 0.0743381 0.817523 0.10932
H_ H_ 0.802865 0.0668649 0.8101 0.10932
H_ H_ 0.616649 0.307781 0.861676 0.10932
H_ H_ 0.840187 0.219815 0.859799 0.10932
H_ H_ 0.637851 0.181365 0.854304 0.10932
H_ H_ 0.924326 0.285628 0.85591 0.10932
H_ H_ 0.629311 0.1732 0.928902 0.10932
H_ H_ 0.928218 0.283556 0.935796 0.10932
H_ H_ 0.614395 0.302987 0.939089 0.10932
H_ H_ 0.840183 0.233965 0.938837 0.10932
H_ H_ 0.624871 0.187992 0.626942 0.10932
H_ H_ 0.920422 0.241051 0.635866 0.10932
H_ H_ 0.638389 0.31656 0.644169 0.10932
H_ H_ 0.82638 0.260675 0.64538 0.10932
H_ H_ 0.63461 0.327561 0.570304 0.10932
H_ H_ 0.819621 0.261751 0.567947 0.10932
H_ H_ 0.621307 0.198128 0.552749 0.10932
H_ H_ 0.915723 0.243183 0.561883 0.10932
C_ C_ 0.568113 0.344201 0.749721 -0.02249
C_ C_ 0.82386 0.349964 0.755177 -0.02249
C_ C_ 0.514683 0.45523 0.741467 -0.02249
C_ C_ 0.771176 0.461401 0.757693 -0.02249
C_ C_ 0.535836 0.391861 0.709643 -0.11473
C_ C_ 0.803566 0.412161 0.71891 -0.11473
C_ C_ 0.559087 0.364812 0.786462 -0.11473
C_ C_ 0.809222 0.36506 0.791652 -0.11473
C_ C_ 0.555773 0.357427 0.711949 -0.11473
C_ C_ 0.820659 0.374826 0.718144 -0.11473
C_ C_ 0.529336 0.412809 0.745758 -0.02249
C_ C_ 0.787878 0.422317 0.755 -0.02249
C_ C_ 0.590083 0.308625 0.753502 0.6875
C_ C_ 0.839019 0.309921 0.752744 0.6875
C_ C_ 0.54102 0.400687 0.783289 -0.11473
C_ C_ 0.789166 0.396454 0.789518 -0.11473
C_ C_ 0.688292 0.347302 0.754256 -0.02249
C_ C_ 0.938863 0.345758 0.749989 -0.02249
C_ C_ 0.739804 0.460257 0.751228 -0.02249
C_ C_ 0.987697 0.463674 0.755797 -0.02249
C_ C_ 0.706358 0.410329 0.790519 -0.11473
C_ C_ 0.960631 0.403243 0.789452 -0.11473
C_ C_ 0.704368 0.357737 0.719196 -0.11473
C_ C_ 0.950189 0.364494 0.713409 -0.11473
C_ C_ 0.689995 0.372598 0.790859 -0.11473
C_ C_ 0.945775 0.363575 0.788083 -0.11473
C_ C_ 0.721685 0.421357 0.753752 -0.02249
C_ C_ 0.968222 0.425571 0.752534 -0.02249
C_ C_ 0.670149 0.307593 0.752758 0.6875
C_ C_ 0.919971 0.306491 0.746306 0.6875
C_ C_ 0.722886 0.391456 0.720652 -0.11473
C_ C_ 0.964616 0.402976 0.714588 -0.11473
C_ C_ 0.68972 0.152327 0.750719 -0.02249
C_ C_ 0.93665 0.149623 0.747926 -0.02249
C_ C_ 0.736268 0.0375249 0.754821 -0.02249
C_ C_ 0.98558 0.0354449 0.743912 -0.02249
C_ C_ 0.719662 0.102894 0.788839 -0.11473
C_ C_ 0.950947 0.0833251 0.77949 -0.11473
C_ C_ 0.689026 0.126071 0.716869 -0.11473
C_ C_ 0.95277 0.137718 0.711318 -0.11473
C_ C_ 0.705244 0.141176 0.787588 -0.11473
C_ C_ 0.936419 0.121596 0.781093 -0.11473
C_ C_ 0.719088 0.0766763 0.75277 -0.02249
C_ C_ 0.968399 0.073857 0.745014 -0.02249
C_ C_ 0.672838 0.193568 0.749572 0.6875
C_ C_ 0.917015 0.189273 0.747568 0.6875
C_ C_ 0.702128 0.0874286 0.717698 -0.11473
C_ C_ 0.970817 0.102846 0.711786 -0.11473
C_ C_ 0.56966 0.15046 0.750167 -0.02249
C_ C_ 0.820817 0.148021 0.748716 -0.02249
C_ C_ 0.517819 0.0368227 0.751732 -0.02249
C_ C_ 0.767448 0.0360728 0.743794 -0.02249
C_ C_ 0.534932 0.102301 0.716689 -0.11473
C_ C_ 0.783941 0.103883 0.71329 -0.11473
C_ C_ 0.570005 0.127097 0.786558 -0.11473
C_ C_ 0.82198 0.118829 0.781577 -0.11473
C_ C_ 0.554251 0.136543 0.715123 -0.11473
C_ C_ 0.80026 0.140518 0.715337 -0.11473
C_ C_ 0.535497 0.0763507 0.753362 -0.02249
C_ C_ 0.78512 0.0740696 0.745885 -0.02249
C_ C_ 0.590439 0.185825 0.748124 0.6875
C_ C_ 0.84085 0.18848 0.748652 0.6875
C_ C_ 0.55174 0.0919154 0.789208 -0.11473
C_ C_ 0.804255 0.0829255 0.780555 -0.11473
C_ C_ 0.621337 0.279248 0.877528 0.17695
C_ C_ 0.859521 0.234517 0.876886 0.17695
C_ C_ 0.635321 0.209222 0.873336 0.17695
C_ C_ 0.906586 0.270862 0.874591 0.17695
C_ C_ 0.630259 0.204005 0.915795 -0.11473
C_ C_ 0.908477 0.272445 0.918471 -0.11473
C_ C_ 0.62526 0.237737 0.94142 0.23465
C_ C_ 0.883059 0.261316 0.942353 0.23465
C_ C_ 0.621363 0.276496 0.922159 -0.11473
C_ C_ 0.859115 0.242756 0.921054 -0.11473
C_ C_ 0.628499 0.218886 0.614798 0.17695
C_ C_ 0.897659 0.247755 0.622834 0.17695
C_ C_ 0.636098 0.289886 0.625387 0.17695
C_ C_ 0.844261 0.252877 0.62704 0.17695
C_ C_ 0.631128 0.298415 0.583839 -0.11473
C_ C_ 0.842284 0.256757 0.582368 -0.11473
C_ C_ 0.629992 0.267409 0.554454 0.23465
C_ C_ 0.867758 0.253877 0.557628 0.23465
C_ C_ 0.624641 0.226087 0.570124 -0.11473
C_ C_ 0.895805 0.250233 0.578401 -0.11473
C_ C_ 0.533644 0.490913 0.74235 0.05793
C_ C_ 0.787421 0.498845 0.759324 0.05793
C_ C_ 0.720819 -0.0012659999999999894 0.759651 0.05793
C_ C_ 0.971362 -0.003906999999999994 0.742116 0.05793
Br Br 0.575366 0.48858 0.738032 -0.17191
Br Br 0.829658 0.501701 0.772905 -0.17191
Br Br 0.678484 -0.0011029999999999651 0.771041 -0.17191
Br Br 0.92829 -0.0035199999999999676 0.745667 -0.17191
N_ N_ 0.629056 0.24668 0.85415 -0.272
N_ N_ 0.881745 0.253365 0.856193 -0.272
N_ N_ 0.619567 0.231973 0.985509 -0.12501
N_ N_ 0.888067 0.252462 0.985386 -0.12501
N_ N_ 0.633878 0.251589 0.641826 -0.272
N_ N_ 0.872212 0.248051 0.646957 -0.272
N_ N_ 0.629918 0.272772 0.510358 -0.12501
N_ N_ 0.864851 0.258699 0.512683 -0.12501
O_ O_ 0.599385 0.291941 0.720377 -0.60745
O_ O_ 0.851037 0.297091 0.719209 -0.60745
O_ O_ 0.597842 0.291877 0.787451 -0.60745
O_ O_ 0.845657 0.289978 0.786677 -0.60745
O_ O_ 0.661267 0.29259 0.787745 -0.60745
O_ O_ 0.908076 0.293868 0.780197 -0.60745
O_ O_ 0.66064 0.293344 0.718404 -0.60745
O_ O_ 0.911899 0.291253 0.711821 -0.60745
O_ O_ 0.660556 0.205815 0.783095 -0.60745
O_ O_ 0.912078 0.209289 0.780623 -0.60745
O_ O_ 0.662414 0.207305 0.715003 -0.60745
O_ O_ 0.906823 0.203307 0.711971 -0.60745
O_ O_ 0.600263 0.200807 0.713344 -0.60745
O_ O_ 0.844633 0.209027 0.716157 -0.60745
O_ O_ 0.597704 0.205156 0.781654 -0.60745
O_ O_ 0.846881 0.206136 0.785137 -0.60745
Zn Zn 0.622452 0.753016 0.282697 0.9476
Zn Zn 0.871511 0.751737 0.28302 0.9476
Zn Zn 0.622957 0.753295 0.213463 0.9476
Zn Zn 0.870146 0.751906 0.213785 0.9476
H_ H_ 0.543162 0.929063 0.176584 0.10932
H_ H_ 0.777487 0.91602 0.181991 0.10932
H_ H_ 0.547199 0.846202 0.307302 0.10932
H_ H_ 0.811969 0.852577 0.317117 0.10932
H_ H_ 0.573652 0.867983 0.181109 0.10932
H_ H_ 0.798118 0.842773 0.183502 0.10932
H_ H_ 0.514051 0.910695 0.302321 0.10932
H_ H_ 0.79851 0.926094 0.311734 0.10932
H_ H_ 0.716962 0.921761 0.312478 0.10932
H_ H_ 0.961551 0.922079 0.323547 0.10932
H_ H_ 0.67596 0.86189 0.180451 0.10932
H_ H_ 0.938225 0.848256 0.190998 0.10932
H_ H_ 0.687542 0.858342 0.314164 0.10932
H_ H_ 0.935903 0.84977 0.325247 0.10932
H_ H_ 0.708041 0.924885 0.177829 0.10932
H_ H_ 0.966376 0.912257 0.18783 0.10932
H_ H_ 0.71022 0.583911 0.323906 0.10932
H_ H_ 0.961 0.578744 0.307544 0.10932
H_ H_ 0.687687 0.654341 0.185656 0.10932
H_ H_ 0.940591 0.655765 0.177903 0.10932
H_ H_ 0.682828 0.650323 0.325404 0.10932
H_ H_ 0.931834 0.641855 0.311565 0.10932
H_ H_ 0.709457 0.584804 0.187023 0.10932
H_ H_ 0.963091 0.589266 0.175437 0.10932
H_ H_ 0.528785 0.585433 0.18426 0.10932
H_ H_ 0.779974 0.578198 0.185375 0.10932
H_ H_ 0.555595 0.651946 0.320077 0.10932
H_ H_ 0.806483 0.656816 0.313661 0.10932
H_ H_ 0.553245 0.655465 0.185655 0.10932
H_ H_ 0.809746 0.6463 0.177047 0.10932
H_ H_ 0.530676 0.591079 0.32035 0.10932
H_ H_ 0.774884 0.593178 0.315964 0.10932
H_ H_ 0.620784 0.691629 0.362405 0.10932
H_ H_ 0.81892 0.742028 0.353976 0.10932
H_ H_ 0.631507 0.824732 0.355411 0.10932
H_ H_ 0.912925 0.743107 0.360087 0.10932
H_ H_ 0.63417 0.830902 0.431032 0.10932
H_ H_ 0.912743 0.739147 0.438123 0.10932
H_ H_ 0.621543 0.69971 0.441849 0.10932
H_ H_ 0.818567 0.736706 0.434228 0.10932
H_ H_ 0.638321 0.806356 0.135962 0.10932
H_ H_ 0.885749 0.68842 0.132939 0.10932
H_ H_ 0.596482 0.687673 0.143286 0.10932
H_ H_ 0.874681 0.819342 0.149308 0.10932
H_ H_ 0.596732 0.678724 0.0656638 0.10932
H_ H_ 0.879712 0.829439 0.0725867 0.10932
H_ H_ 0.637209 0.798378 0.0574355 0.10932
H_ H_ 0.888307 0.699553 0.0580796 0.10932
C_ C_ 0.560495 0.849531 0.241469 -0.02249
C_ C_ 0.811288 0.848065 0.249208 -0.02249
C_ C_ 0.513004 0.965643 0.241488 -0.02249
C_ C_ 0.764329 0.96166 0.24761 -0.02249
C_ C_ 0.544468 0.913249 0.205718 -0.11473
C_ C_ 0.784188 0.900881 0.211531 -0.11473
C_ C_ 0.547693 0.863648 0.279046 -0.11473
C_ C_ 0.805984 0.867568 0.287446 -0.11473
C_ C_ 0.561675 0.87681 0.207648 -0.11473
C_ C_ 0.797684 0.863493 0.2105 -0.11473
C_ C_ 0.530071 0.926288 0.242256 -0.02249
C_ C_ 0.779172 0.920793 0.248882 -0.02249
C_ C_ 0.578793 0.810583 0.242048 0.6875
C_ C_ 0.829532 0.811075 0.250784 0.6875
C_ C_ 0.528203 0.899238 0.277433 -0.11473
C_ C_ 0.791529 0.906628 0.287099 -0.11473
C_ C_ 0.680464 0.85222 0.246121 -0.02249
C_ C_ 0.931349 0.848575 0.257672 -0.02249
C_ C_ 0.732139 0.965373 0.247482 -0.02249
C_ C_ 0.981046 0.965806 0.255357 -0.02249
C_ C_ 0.707436 0.908999 0.283862 -0.11473
C_ C_ 0.956363 0.90495 0.293742 -0.11473
C_ C_ 0.68685 0.872327 0.207561 -0.11473
C_ C_ 0.943976 0.863436 0.219679 -0.11473
C_ C_ 0.691352 0.872487 0.282515 -0.11473
C_ C_ 0.940505 0.866845 0.294699 -0.11473
C_ C_ 0.713751 0.927046 0.246784 -0.02249
C_ C_ 0.963949 0.92423 0.255574 -0.02249
C_ C_ 0.660151 0.81505 0.247203 0.6875
C_ C_ 0.911409 0.810454 0.258209 0.6875
C_ C_ 0.703159 0.910095 0.20791 -0.11473
C_ C_ 0.958242 0.902634 0.218253 -0.11473
C_ C_ 0.6824 0.657792 0.255455 -0.02249
C_ C_ 0.933765 0.655538 0.244608 -0.02249
C_ C_ 0.729133 0.541486 0.256645 -0.02249
C_ C_ 0.981526 0.538908 0.242177 -0.02249
C_ C_ 0.704798 0.600032 0.293915 -0.11473
C_ C_ 0.957975 0.596136 0.280097 -0.11473
C_ C_ 0.689803 0.637419 0.216957 -0.11473
C_ C_ 0.946001 0.641759 0.206617 -0.11473
C_ C_ 0.692172 0.639569 0.293949 -0.11473
C_ C_ 0.942808 0.634872 0.281464 -0.11473
C_ C_ 0.712105 0.581143 0.25679 -0.02249
C_ C_ 0.96639 0.578896 0.242394 -0.02249
C_ C_ 0.662792 0.695479 0.254333 0.6875
C_ C_ 0.913429 0.693021 0.247518 0.6875
C_ C_ 0.703339 0.598073 0.216958 -0.11473
C_ C_ 0.959349 0.601598 0.204984 -0.11473
C_ C_ 0.557907 0.658783 0.251336 -0.02249
C_ C_ 0.81116 0.654936 0.24612 -0.02249
C_ C_ 0.51323 0.539005 0.252649 -0.02249
C_ C_ 0.760425 0.540414 0.253711 -0.02249
C_ C_ 0.532764 0.601565 0.215057 -0.11473
C_ C_ 0.786005 0.597002 0.211209 -0.11473
C_ C_ 0.550028 0.64048 0.289773 -0.11473
C_ C_ 0.800854 0.639949 0.28359 -0.11473
C_ C_ 0.545886 0.640782 0.213849 -0.11473
C_ C_ 0.804204 0.632291 0.207636 -0.11473
C_ C_ 0.527529 0.581068 0.253026 -0.02249
C_ C_ 0.779364 0.580132 0.250893 -0.02249
C_ C_ 0.578402 0.695213 0.252707 0.6875
C_ C_ 0.830736 0.693354 0.243588 0.6875
C_ C_ 0.534912 0.602488 0.289664 -0.11473
C_ C_ 0.784633 0.601398 0.286935 -0.11473
C_ C_ 0.624167 0.722527 0.378294 0.17695
C_ C_ 0.839436 0.739343 0.372743 0.17695
C_ C_ 0.628711 0.796075 0.373263 0.17695
C_ C_ 0.891498 0.745597 0.376999 0.17695
C_ C_ 0.631573 0.800111 0.416988 -0.11473
C_ C_ 0.891797 0.74205 0.42011 -0.11473
C_ C_ 0.627819 0.764685 0.442438 0.23465
C_ C_ 0.865296 0.73583 0.441164 0.23465
C_ C_ 0.625734 0.726387 0.421949 -0.11473
C_ C_ 0.838546 0.739846 0.417165 -0.11473
C_ C_ 0.632931 0.775428 0.120733 0.17695
C_ C_ 0.880517 0.7187 0.121994 0.17695
C_ C_ 0.606875 0.711419 0.124788 0.17695
C_ C_ 0.875113 0.791427 0.128569 0.17695
C_ C_ 0.60517 0.707841 0.0813203 -0.11473
C_ C_ 0.877162 0.798646 0.0848621 -0.11473
C_ C_ 0.618427 0.737932 0.0568807 0.23465
C_ C_ 0.877444 0.763199 0.0583836 0.23465
C_ C_ 0.631492 0.772066 0.0773184 -0.11473
C_ C_ 0.881362 0.723795 0.0771762 -0.11473
C_ C_ 0.528661 1.00387779 0.247419 0.05793
C_ C_ 0.781776 0.997249 0.251069 0.05793
C_ C_ 0.71354 0.50201 0.261795 0.05793
C_ C_ 0.965044 0.500742 0.239022 0.05793
Br Br 0.568861 1.00255765 0.267635 -0.17191
Br Br 0.824514 0.995707 0.241804 -0.17191
Br Br 0.670395 0.500866 0.267824 -0.17191
Br Br 0.922311 0.502508 0.222062 -0.17191
N_ N_ 0.627315 0.7578 0.355719 -0.272
N_ N_ 0.86578 0.744611 0.352991 -0.272
N_ N_ 0.632119 0.765771 0.486199 -0.12501
N_ N_ 0.864008 0.726137 0.48544 -0.12501
N_ N_ 0.621982 0.743419 0.144143 -0.272
N_ N_ 0.879241 0.753418 0.145568 -0.272
N_ N_ 0.61397 0.735962 0.0122391 -0.12501
N_ N_ 0.881044 0.767427 0.0129035 -0.12501
O_ O_ 0.589185 0.795819 0.20782 -0.60745
O_ O_ 0.838486 0.793513 0.21805 -0.60745
O_ O_ 0.58751 0.793853 0.27589 -0.60745
O_ O_ 0.840103 0.798524 0.285759 -0.60745
O_ O_ 0.650431 0.800625 0.282075 -0.60745
O_ O_ 0.900691 0.796996 0.292286 -0.60745
O_ O_ 0.65034 0.799665 0.212217 -0.60745
O_ O_ 0.902217 0.795412 0.223393 -0.60745
O_ O_ 0.656285 0.713668 0.288158 -0.60745
O_ O_ 0.903173 0.707112 0.282157 -0.60745
O_ O_ 0.655309 0.711576 0.218702 -0.60745
O_ O_ 0.901846 0.70835 0.213476 -0.60745
O_ O_ 0.589407 0.710127 0.218899 -0.60745
O_ O_ 0.841323 0.705746 0.209232 -0.60745
O_ O_ 0.589591 0.707018 0.288186 -0.60745
O_ O_ 0.839168 0.710332 0.277435 -0.60745
Zn Zn 0.625929 0.747796 0.785716 0.9476
Zn Zn 0.87832 0.750733 0.786574 0.9476
Zn Zn 0.628566 0.745606 0.71507 0.9476
Zn Zn 0.877008 0.751855 0.715187 0.9476
H_ H_ 0.540553 0.921001 0.688924 0.10932
H_ H_ 0.771979 0.904033 0.685631 0.10932
H_ H_ 0.556791 0.84161 0.821761 0.10932
H_ H_ 0.822623 0.85998 0.818064 0.10932
H_ H_ 0.574446 0.859763 0.688177 0.10932
H_ H_ 0.812634 0.851075 0.683244 0.10932
H_ H_ 0.527863 0.905478 0.820721 0.10932
H_ H_ 0.798029 0.925654 0.814174 0.10932
H_ H_ 0.713494 0.912005 0.82067 0.10932
H_ H_ 0.958221 0.926322 0.804132 0.10932
H_ H_ 0.684964 0.855188 0.681296 0.10932
H_ H_ 0.951475 0.835201 0.679269 0.10932
H_ H_ 0.680729 0.852249 0.816166 0.10932
H_ H_ 0.92797 0.863463 0.80621 0.10932
H_ H_ 0.712896 0.92301 0.685233 0.10932
H_ H_ 0.976517 0.901144 0.674819 0.10932
H_ H_ 0.71531 0.581908 0.81781 0.10932
H_ H_ 0.980886 0.594746 0.81728 0.10932
H_ H_ 0.696929 0.648011 0.67878 0.10932
H_ H_ 0.933769 0.644561 0.686534 0.10932
H_ H_ 0.681249 0.644431 0.813447 0.10932
H_ H_ 0.944326 0.650883 0.820695 0.10932
H_ H_ 0.726254 0.582984 0.684272 0.10932
H_ H_ 0.95316 0.574049 0.685621 0.10932
H_ H_ 0.52931 0.587014 0.686237 0.10932
H_ H_ 0.792235 0.586865 0.68097 0.10932
H_ H_ 0.587995 0.621492 0.816747 0.10932
H_ H_ 0.811345 0.651131 0.817979 0.10932
H_ H_ 0.557413 0.65079 0.690045 0.10932
H_ H_ 0.822149 0.650324 0.688196 0.10932
H_ H_ 0.556252 0.5615 0.816184 0.10932
H_ H_ 0.792266 0.580654 0.816516 0.10932
H_ H_ 0.582302 0.72888 0.859532 0.10932
H_ H_ 0.872766 0.683982 0.854899 0.10932
H_ H_ 0.672427 0.759728 0.855122 0.10932
H_ H_ 0.875622 0.813885 0.861198 0.10932
H_ H_ 0.677926 0.753074 0.931797 0.10932
H_ H_ 0.876242 0.810794 0.941512 0.10932
H_ H_ 0.582729 0.729191 0.937575 0.10932
H_ H_ 0.869608 0.679261 0.935628 0.10932
H_ H_ 0.619868 0.680693 0.644377 0.10932
H_ H_ 0.889187 0.808282 0.644132 0.10932
H_ H_ 0.624441 0.809522 0.638119 0.10932
H_ H_ 0.856446 0.685503 0.641645 0.10932
H_ H_ 0.629061 0.807767 0.559664 0.10932
H_ H_ 0.853527 0.686514 0.560768 0.10932
H_ H_ 0.61538 0.678241 0.565247 0.10932
H_ H_ 0.880844 0.814675 0.563711 0.10932
C_ C_ 0.565428 0.842216 0.753042 -0.02249
C_ C_ 0.819719 0.848897 0.749943 -0.02249
C_ C_ 0.516589 0.959026 0.758643 -0.02249
C_ C_ 0.767015 0.958582 0.746654 -0.02249
C_ C_ 0.544011 0.903078 0.718226 -0.11473
C_ C_ 0.785304 0.894852 0.714362 -0.11473
C_ C_ 0.552236 0.856897 0.79083 -0.11473
C_ C_ 0.812776 0.869068 0.787926 -0.11473
C_ C_ 0.561013 0.866393 0.715975 -0.11473
C_ C_ 0.80468 0.861321 0.713542 -0.11473
C_ C_ 0.532368 0.917443 0.755435 -0.02249
C_ C_ 0.784195 0.920284 0.750202 -0.02249
C_ C_ 0.587647 0.806699 0.754728 0.6875
C_ C_ 0.841492 0.813105 0.748795 0.6875
C_ C_ 0.534245 0.893221 0.791146 -0.11473
C_ C_ 0.798915 0.906911 0.786618 -0.11473
C_ C_ 0.68223 0.848682 0.748069 -0.02249
C_ C_ 0.935673 0.845926 0.744749 -0.02249
C_ C_ 0.735034 0.959438 0.754019 -0.02249
C_ C_ 0.986987 0.959282 0.738614 -0.02249
C_ C_ 0.710147 0.898911 0.789407 -0.11473
C_ C_ 0.953822 0.907087 0.776151 -0.11473
C_ C_ 0.690157 0.87069 0.711758 -0.11473
C_ C_ 0.948342 0.85633 0.70541 -0.11473
C_ C_ 0.691647 0.863679 0.788296 -0.11473
C_ C_ 0.93956 0.871313 0.779217 -0.11473
C_ C_ 0.716164 0.921324 0.753314 -0.02249
C_ C_ 0.969372 0.917576 0.740156 -0.02249
C_ C_ 0.662459 0.811856 0.746914 0.6875
C_ C_ 0.918632 0.807409 0.74628 0.6875
C_ C_ 0.706884 0.906525 0.71424 -0.11473
C_ C_ 0.964245 0.893753 0.702311 -0.11473
C_ C_ 0.689733 0.65416 0.746296 -0.02249
C_ C_ 0.931401 0.648041 0.753454 -0.02249
C_ C_ 0.741073 0.53742 0.751369 -0.02249
C_ C_ 0.989753 0.540883 0.751308 -0.02249
C_ C_ 0.708989 0.595839 0.786751 -0.11473
C_ C_ 0.969245 0.604457 0.78877 -0.11473
C_ C_ 0.699881 0.633366 0.708865 -0.11473
C_ C_ 0.938526 0.628276 0.715682 -0.11473
C_ C_ 0.693027 0.633815 0.784752 -0.11473
C_ C_ 0.947314 0.634887 0.789947 -0.11473
C_ C_ 0.721975 0.577588 0.74907 -0.02249
C_ C_ 0.97202 0.580107 0.751783 -0.02249
C_ C_ 0.671884 0.693661 0.74411 0.6875
C_ C_ 0.914929 0.688865 0.753264 0.6875
C_ C_ 0.716565 0.596817 0.71174 -0.11473
C_ C_ 0.954277 0.591291 0.714504 -0.11473
C_ C_ 0.573545 0.644091 0.755107 -0.02249
C_ C_ 0.82142 0.654176 0.751855 -0.02249
C_ C_ 0.520373 0.531671 0.7457 -0.02249
C_ C_ 0.772585 0.536841 0.752359 -0.02249
C_ C_ 0.542971 0.59395 0.715293 -0.11473
C_ C_ 0.799606 0.595617 0.71358 -0.11473
C_ C_ 0.575909 0.613555 0.787102 -0.11473
C_ C_ 0.812641 0.634601 0.789258 -0.11473
C_ C_ 0.560553 0.630061 0.716437 -0.11473
C_ C_ 0.815295 0.632881 0.71521 -0.11473
C_ C_ 0.539307 0.569387 0.751547 -0.02249
C_ C_ 0.789854 0.576263 0.750943 -0.02249
C_ C_ 0.59285 0.680223 0.756343 0.6875
C_ C_ 0.838207 0.695634 0.751897 0.6875
C_ C_ 0.555206 0.580476 0.789882 -0.11473
C_ C_ 0.797876 0.595772 0.788353 -0.11473
C_ C_ 0.603207 0.732012 0.876866 0.17695
C_ C_ 0.870904 0.711957 0.875482 0.17695
C_ C_ 0.653919 0.752586 0.874058 0.17695
C_ C_ 0.874902 0.783764 0.879834 0.17695
C_ C_ 0.656023 0.745912 0.918041 -0.11473
C_ C_ 0.874062 0.781221 0.923635 -0.11473
C_ C_ 0.630958 0.741736 0.942972 0.23465
C_ C_ 0.875943 0.743397 0.944158 0.23465
C_ C_ 0.603988 0.73634 0.922944 -0.11473
C_ C_ 0.873873 0.708593 0.919457 -0.11473
C_ C_ 0.620232 0.70804 0.626165 0.17695
C_ C_ 0.879489 0.782939 0.624218 0.17695
C_ C_ 0.626322 0.780632 0.621893 0.17695
C_ C_ 0.861971 0.712202 0.623369 0.17695
C_ C_ 0.624757 0.779535 0.578006 -0.11473
C_ C_ 0.860535 0.714842 0.578894 -0.11473
C_ C_ 0.623958 0.742156 0.556517 0.23465
C_ C_ 0.866921 0.750715 0.557663 0.23465
C_ C_ 0.618551 0.706898 0.581017 -0.11473
C_ C_ 0.877568 0.785144 0.580227 -0.11473
C_ C_ 0.532198 -0.0031480000000000397 0.756114 0.05793
C_ C_ 0.781773 -0.002703000000000011 0.740514 0.05793
C_ C_ 0.725107 0.500006 0.751593 0.05793
C_ C_ 0.973467 0.501926 0.757538 0.05793
Br Br 0.575227 -0.006506000000000012 0.751513 -0.17191
Br Br 0.823032 0.995814 0.721899 -0.17191
Br Br 0.683667 0.498606 0.735733 -0.17191
Br Br 0.93354 0.500049 0.77463 -0.17191
N_ N_ 0.628351 0.743773 0.854409 -0.272
N_ N_ 0.872716 0.748296 0.85622 -0.272
N_ N_ 0.634612 0.743791 0.986924 -0.12501
N_ N_ 0.871632 0.740143 0.988666 -0.12501
N_ N_ 0.626459 0.744847 0.644919 -0.272
N_ N_ 0.871635 0.746295 0.644597 -0.272
N_ N_ 0.621314 0.739862 0.510341 -0.12501
N_ N_ 0.862705 0.754778 0.512403 -0.12501
O_ O_ 0.599314 0.793341 0.721026 -0.60745
O_ O_ 0.852438 0.801567 0.713785 -0.60745
O_ O_ 0.588485 0.783307 0.788131 -0.60745
O_ O_ 0.851684 0.796544 0.783098 -0.60745
O_ O_ 0.652629 0.797442 0.780551 -0.60745
O_ O_ 0.907963 0.794588 0.780751 -0.60745
O_ O_ 0.659843 0.790307 0.713656 -0.60745
O_ O_ 0.912429 0.789164 0.711647 -0.60745
O_ O_ 0.663526 0.71061 0.777068 -0.60745
O_ O_ 0.907613 0.707609 0.786585 -0.60745
O_ O_ 0.658577 0.704043 0.709322 -0.60745
O_ O_ 0.903365 0.700998 0.71965 -0.60745
O_ O_ 0.595754 0.702171 0.722431 -0.60745
O_ O_ 0.842397 0.715649 0.718353 -0.60745
O_ O_ 0.601734 0.694825 0.791455 -0.60745
O_ O_ 0.848434 0.708988 0.784907 -0.60745
_cell_length_a 44.444
_cell_length_b 32.3360000049186
_cell_length_c 31.843999878906452
_cell_angle_alpha 89.99799923859553
_cell_angle_beta 91.13600050494348
_cell_angle_gamma 89.9990006550086
_symmetry_space_group_name_H-M         'P 1'
_symmetry_Int_Tables_number            1
loop_
_symmetry_equiv_pos_as_xyz
   'x, y, z'
                         
loop_
_atom_site_label
_atom_site_type_symbol
_atom_site_fract_x 
_atom_site_fract_y
_atom_site_fract_z
_atom_site_charge
Zn Zn 0.1245 0.252097 0.29076 0.9476
Zn Zn 0.372411 0.252755 0.282824 0.9476
Zn Zn 0.122583 0.250368 0.222993 0.9476
Zn Zn 0.371821 0.255276 0.212582 0.9476
H_ H_ 0.0276348 0.411974 0.182321 0.10932
H_ H_ 0.269438 0.412281 0.190032 0.10932
H_ H_ 0.0583769 0.351979 0.321212 0.10932
H_ H_ 0.30703 0.351764 0.323402 0.10932
H_ H_ 0.0630924 0.354297 0.186195 0.10932
H_ H_ 0.295602 0.347111 0.189338 0.10932
H_ H_ 0.0344603 0.422061 0.316213 0.10932
H_ H_ 0.279542 0.419208 0.323294 0.10932
H_ H_ 0.206823 0.428234 0.319897 0.10932
H_ H_ 0.472172 0.40275 0.318161 0.10932
H_ H_ 0.178347 0.355595 0.188097 0.10932
H_ H_ 0.427064 0.368597 0.178513 0.10932
H_ H_ 0.18755 0.353181 0.325312 0.10932
H_ H_ 0.443574 0.339493 0.3094 0.10932
H_ H_ 0.205811 0.421622 0.187829 0.10932
H_ H_ 0.465017 0.423297 0.187825 0.10932
H_ H_ 0.20944 0.0757567 0.310768 0.10932
H_ H_ 0.449179 0.0772948 0.305824 0.10932
H_ H_ 0.182981 0.155664 0.184106 0.10932
H_ H_ 0.449173 0.166088 0.179374 0.10932
H_ H_ 0.180684 0.138023 0.318789 0.10932
H_ H_ 0.416824 0.136638 0.299452 0.10932
H_ H_ 0.217127 0.0961732 0.17893 0.10932
H_ H_ 0.472916 0.0952066 0.178119 0.10932
H_ H_ 0.0155153 0.102561 0.193417 0.10932
H_ H_ 0.304016 0.0688906 0.187551 0.10932
H_ H_ 0.0734103 0.14012 0.321092 0.10932
H_ H_ 0.292659 0.165113 0.311883 0.10932
H_ H_ 0.0409069 0.16975 0.197979 0.10932
H_ H_ 0.324753 0.138755 0.184631 0.10932
H_ H_ 0.0426999 0.0757795 0.322106 0.10932
H_ H_ 0.266227 0.0983266 0.308785 0.10932
H_ H_ 0.128578 0.322344 0.364586 0.10932
H_ H_ 0.354144 0.305212 0.362761 0.10932
H_ H_ 0.130931 0.186301 0.370499 0.10932
H_ H_ 0.405368 0.196139 0.346747 0.10932
H_ H_ 0.130204 0.189169 0.444885 0.10932
H_ H_ 0.402402 0.1833 0.424016 0.10932
H_ H_ 0.130401 0.325424 0.441197 0.10932
H_ H_ 0.364727 0.307539 0.437468 0.10932
H_ H_ 0.121514 0.317405 0.151406 0.10932
H_ H_ 0.363369 0.328167 0.141349 0.10932
H_ H_ 0.121683 0.184996 0.145203 0.10932
H_ H_ 0.370007 0.199518 0.131882 0.10932
H_ H_ 0.117928 0.188539 0.0684116 0.10932
H_ H_ 0.373437 0.201689 0.0567522 0.10932
H_ H_ 0.110878 0.31976 0.0738263 0.10932
H_ H_ 0.366491 0.334391 0.0631827 0.10932
C_ C_ 0.0648351 0.348481 0.254958 -0.02249
C_ C_ 0.309065 0.350399 0.256023 -0.02249
C_ C_ 0.0105473 0.45897 0.250492 -0.02249
C_ C_ 0.25877 0.46442 0.256533 -0.02249
C_ C_ 0.0351661 0.398566 0.213145 -0.11473
C_ C_ 0.280007 0.402159 0.218337 -0.11473
C_ C_ 0.0548236 0.3672 0.291989 -0.11473
C_ C_ 0.299948 0.365625 0.295457 -0.11473
C_ C_ 0.0539626 0.364548 0.215361 -0.11473
C_ C_ 0.293915 0.364668 0.217656 -0.11473
C_ C_ 0.025121 0.418017 0.250762 -0.02249
C_ C_ 0.273891 0.422676 0.256006 -0.02249
C_ C_ 0.0846026 0.310619 0.255281 0.6875
C_ C_ 0.332392 0.315321 0.253491 0.6875
C_ C_ 0.0368293 0.403804 0.289376 -0.11473
C_ C_ 0.284567 0.40506 0.29447 -0.11473
C_ C_ 0.179629 0.350642 0.256468 -0.02249
C_ C_ 0.436228 0.345302 0.24301 -0.02249
C_ C_ 0.22761 0.467229 0.252707 -0.02249
C_ C_ 0.483614 0.462009 0.256973 -0.02249
C_ C_ 0.201768 0.411203 0.29265 -0.11473
C_ C_ 0.46439 0.393439 0.286664 -0.11473
C_ C_ 0.185674 0.369905 0.218309 -0.11473
C_ C_ 0.441703 0.371357 0.208107 -0.11473
C_ C_ 0.19017 0.371207 0.293788 -0.11473
C_ C_ 0.449795 0.356035 0.281692 -0.11473
C_ C_ 0.209646 0.428268 0.252909 -0.02249
C_ C_ 0.468402 0.420561 0.253258 -0.02249
C_ C_ 0.163381 0.309839 0.257245 0.6875
C_ C_ 0.408617 0.316956 0.242342 0.6875
C_ C_ 0.20305 0.405869 0.217688 -0.11473
C_ C_ 0.458194 0.407183 0.214157 -0.11473
C_ C_ 0.180999 0.152809 0.250668 -0.02249
C_ C_ 0.429119 0.155443 0.23763 -0.02249
C_ C_ 0.232616 0.0419838 0.240425 -0.02249
C_ C_ 0.480373 0.0430773 0.242575 -0.02249
C_ C_ 0.20788 0.095898 0.283046 -0.11473
C_ C_ 0.449689 0.095861 0.276336 -0.11473
C_ C_ 0.191782 0.141445 0.212129 -0.11473
C_ C_ 0.444647 0.14302 0.202689 -0.11473
C_ C_ 0.189796 0.130632 0.287413 -0.11473
C_ C_ 0.430972 0.130925 0.273687 -0.11473
C_ C_ 0.21497 0.0809789 0.243927 -0.02249
C_ C_ 0.462607 0.0814504 0.240276 -0.02249
C_ C_ 0.163014 0.192101 0.253447 0.6875
C_ C_ 0.409182 0.193609 0.23818 0.6875
C_ C_ 0.207206 0.103856 0.208368 -0.11473
C_ C_ 0.457658 0.103151 0.201435 -0.11473
C_ C_ 0.060387 0.160007 0.259191 -0.02249
C_ C_ 0.314045 0.154529 0.250735 -0.02249
C_ C_ 0.0110088 0.0422262 0.25396 -0.02249
C_ C_ 0.264492 0.0413216 0.247082 -0.02249
C_ C_ 0.0259939 0.110045 0.222236 -0.11473
C_ C_ 0.298685 0.0920869 0.213371 -0.11473
C_ C_ 0.0610016 0.132085 0.292846 -0.11473
C_ C_ 0.295272 0.145597 0.285144 -0.11473
C_ C_ 0.041538 0.149724 0.225706 -0.11473
C_ C_ 0.314582 0.129572 0.214161 -0.11473
C_ C_ 0.0268369 0.0825061 0.256204 -0.02249
C_ C_ 0.282045 0.0799365 0.247125 -0.02249
C_ C_ 0.0839535 0.192376 0.257245 0.6875
C_ C_ 0.335228 0.191299 0.251927 0.6875
C_ C_ 0.0448138 0.0936395 0.291804 -0.11473
C_ C_ 0.282511 0.105202 0.284341 -0.11473
C_ C_ 0.129135 0.292741 0.382547 0.17695
C_ C_ 0.36906 0.28049 0.375682 0.17695
C_ C_ 0.12804 0.217952 0.384675 0.17695
C_ C_ 0.392997 0.215946 0.366212 0.17695
C_ C_ 0.128685 0.219226 0.429082 -0.11473
C_ C_ 0.391578 0.209863 0.410607 -0.11473
C_ C_ 0.127247 0.25794 0.449616 0.23465
C_ C_ 0.38152 0.241558 0.437884 0.23465
C_ C_ 0.12699 0.293848 0.426236 -0.11473
C_ C_ 0.371304 0.278734 0.419099 -0.11473
C_ C_ 0.120827 0.288156 0.13263 0.17695
C_ C_ 0.364384 0.300676 0.121582 0.17695
C_ C_ 0.122414 0.214622 0.128309 0.17695
C_ C_ 0.365738 0.228337 0.115843 0.17695
C_ C_ 0.119692 0.216188 0.0840821 -0.11473
C_ C_ 0.369814 0.22961 0.072946 -0.11473
C_ C_ 0.117471 0.255837 0.0646288 0.23465
C_ C_ 0.368385 0.267068 0.050932 0.23465
C_ C_ 0.114471 0.290772 0.0896812 -0.11473
C_ C_ 0.365245 0.302858 0.0760585 -0.11473
C_ C_ 0.0267141 0.498728 0.250187 0.05793
C_ C_ 0.27519 0.502323 0.26085 0.05793
C_ C_ 0.21651 0.00396375 0.233187 0.05793
C_ C_ 0.464649 1.00544889 0.240292 0.05793
Br Br 0.069227 0.496309 0.263027 -0.17191
Br Br 0.320063 0.499665 0.271898 -0.17191
Br Br 0.17754 0.00506514 0.209771 -0.17191
Br Br 0.424142 1.00340851 0.227269 -0.17191
N_ N_ 0.129757 0.255119 0.362284 -0.272
N_ N_ 0.379894 0.251059 0.349701 -0.272
N_ N_ 0.130042 0.260011 0.495083 -0.12501
N_ N_ 0.382112 0.235128 0.481482 -0.12501
N_ N_ 0.120284 0.250503 0.15174 -0.272
N_ N_ 0.367884 0.26302 0.140264 -0.272
N_ N_ 0.113491 0.260147 0.0218165 -0.12501
N_ N_ 0.367053 0.270656 0.00521608 -0.12501
O_ O_ 0.0899623 0.290001 0.221381 -0.60745
O_ O_ 0.339644 0.300967 0.218336 -0.60745
O_ O_ 0.0977717 0.299846 0.289053 -0.60745
O_ O_ 0.336279 0.292974 0.28553 -0.60745
O_ O_ 0.156891 0.293702 0.292712 -0.60745
O_ O_ 0.399135 0.304277 0.278153 -0.60745
O_ O_ 0.154936 0.293212 0.223728 -0.60745
O_ O_ 0.400254 0.298897 0.208885 -0.60745
O_ O_ 0.155219 0.206231 0.289422 -0.60745
O_ O_ 0.40577 0.212671 0.273228 -0.60745
O_ O_ 0.15352 0.20832 0.219849 -0.60745
O_ O_ 0.401349 0.210969 0.203761 -0.60745
O_ O_ 0.0929667 0.205882 0.221748 -0.60745
O_ O_ 0.341653 0.209343 0.218451 -0.60745
O_ O_ 0.0910999 0.212464 0.291107 -0.60745
O_ O_ 0.347498 0.204303 0.285602 -0.60745
Zn Zn 0.128913 0.24892 0.792594 0.9476
Zn Zn 0.378258 0.245973 0.78008 0.9476
Zn Zn 0.128393 0.248858 0.721159 0.9476
Zn Zn 0.376175 0.246524 0.709743 0.9476
H_ H_ 0.0397485 0.419987 0.685021 0.10932
H_ H_ 0.277252 0.40508 0.683778 0.10932
H_ H_ 0.058209 0.341688 0.81839 0.10932
H_ H_ 0.324975 0.348356 0.816766 0.10932
H_ H_ 0.0656999 0.353982 0.681881 0.10932
H_ H_ 0.303465 0.336759 0.684919 0.10932
H_ H_ 0.0278121 0.405742 0.817039 0.10932
H_ H_ 0.298575 0.41917 0.817543 0.10932
H_ H_ 0.225376 0.412714 0.825891 0.10932
H_ H_ 0.460594 0.424962 0.807356 0.10932
H_ H_ 0.188858 0.351268 0.694895 0.10932
H_ H_ 0.435683 0.349981 0.673085 0.10932
H_ H_ 0.202424 0.346896 0.828658 0.10932
H_ H_ 0.430107 0.358935 0.807322 0.10932
H_ H_ 0.204912 0.422095 0.692779 0.10932
H_ H_ 0.463084 0.414786 0.673226 0.10932
H_ H_ 0.21169 0.0719728 0.827666 0.10932
H_ H_ 0.472306 0.0878918 0.817976 0.10932
H_ H_ 0.183301 0.139588 0.694787 0.10932
H_ H_ 0.440978 0.144632 0.680921 0.10932
H_ H_ 0.180406 0.133029 0.828663 0.10932
H_ H_ 0.4402 0.148352 0.815696 0.10932
H_ H_ 0.211541 0.0771365 0.692666 0.10932
H_ H_ 0.469589 0.0794431 0.684734 0.10932
H_ H_ 0.0487629 0.0740221 0.680605 0.10932
H_ H_ 0.281641 0.0752028 0.690957 0.10932
H_ H_ 0.057203 0.153281 0.813215 0.10932
H_ H_ 0.332549 0.136525 0.814285 0.10932
H_ H_ 0.0794558 0.141062 0.686535 0.10932
H_ H_ 0.309913 0.139625 0.683604 0.10932
H_ H_ 0.0251255 0.0867523 0.81106 0.10932
H_ H_ 0.297398 0.076726 0.824252 0.10932
H_ H_ 0.126535 0.311031 0.872999 0.10932
H_ H_ 0.38202 0.311001 0.852892 0.10932
H_ H_ 0.118137 0.180764 0.862249 0.10932
H_ H_ 0.369379 0.182575 0.850895 0.10932
H_ H_ 0.11685 0.17323 0.939515 0.10932
H_ H_ 0.366902 0.179916 0.924094 0.10932
H_ H_ 0.132436 0.304026 0.952986 0.10932
H_ H_ 0.387085 0.312362 0.932483 0.10932
H_ H_ 0.136319 0.179575 0.651021 0.10932
H_ H_ 0.388994 0.18784 0.628912 0.10932
H_ H_ 0.115232 0.305131 0.641912 0.10932
H_ H_ 0.363731 0.311138 0.642186 0.10932
H_ H_ 0.114458 0.302915 0.565149 0.10932
H_ H_ 0.356892 0.317287 0.565635 0.10932
H_ H_ 0.124025 0.169344 0.576132 0.10932
H_ H_ 0.380621 0.190411 0.549955 0.10932
C_ C_ 0.0682296 0.346049 0.750182 -0.02249
C_ C_ 0.317339 0.34414 0.751985 -0.02249
C_ C_ 0.0198476 0.461259 0.750626 -0.02249
C_ C_ 0.268933 0.459828 0.752576 -0.02249
C_ C_ 0.0453938 0.404799 0.714005 -0.11473
C_ C_ 0.287036 0.395839 0.715613 -0.11473
C_ C_ 0.0561009 0.359425 0.789244 -0.11473
C_ C_ 0.316723 0.366827 0.788053 -0.11473
C_ C_ 0.0599035 0.367796 0.71186 -0.11473
C_ C_ 0.303533 0.35876 0.714977 -0.11473
C_ C_ 0.0356648 0.419863 0.752506 -0.02249
C_ C_ 0.286053 0.419524 0.752203 -0.02249
C_ C_ 0.0895297 0.310534 0.750583 0.6875
C_ C_ 0.333967 0.303641 0.74984 0.6875
C_ C_ 0.037811 0.395211 0.789563 -0.11473
C_ C_ 0.299024 0.402461 0.788888 -0.11473
C_ C_ 0.189355 0.344792 0.760842 -0.02249
C_ C_ 0.431407 0.348629 0.742127 -0.02249
C_ C_ 0.236941 0.460922 0.757521 -0.02249
C_ C_ 0.483143 0.461159 0.739571 -0.02249
C_ C_ 0.216512 0.400654 0.796668 -0.11473
C_ C_ 0.453832 0.406754 0.778635 -0.11473
C_ C_ 0.194114 0.36575 0.722807 -0.11473
C_ C_ 0.439541 0.366117 0.702774 -0.11473
C_ C_ 0.199776 0.364412 0.798765 -0.11473
C_ C_ 0.439462 0.368186 0.779377 -0.11473
C_ C_ 0.219398 0.422433 0.759035 -0.02249
C_ C_ 0.463682 0.422929 0.740267 -0.02249
C_ C_ 0.166742 0.310203 0.760024 0.6875
C_ C_ 0.41206 0.309798 0.743866 0.6875
C_ C_ 0.205645 0.407265 0.722206 -0.11473
C_ C_ 0.457033 0.401668 0.703457 -0.11473
C_ C_ 0.18702 0.149772 0.763628 -0.02249
C_ C_ 0.439659 0.153266 0.749258 -0.02249
C_ C_ 0.236476 0.0332151 0.758421 -0.02249
C_ C_ 0.485874 0.0363349 0.751493 -0.02249
C_ C_ 0.20858 0.088676 0.798462 -0.11473
C_ C_ 0.465391 0.0985295 0.788661 -0.11473
C_ C_ 0.194615 0.13153 0.72545 -0.11473
C_ C_ 0.44719 0.133215 0.712205 -0.11473
C_ C_ 0.193112 0.126689 0.80015 -0.11473
C_ C_ 0.447486 0.135019 0.786302 -0.11473
C_ C_ 0.219681 0.0726536 0.758918 -0.02249
C_ C_ 0.471025 0.0758561 0.752156 -0.02249
C_ C_ 0.168909 0.188344 0.762357 0.6875
C_ C_ 0.414744 0.185906 0.749137 0.6875
C_ C_ 0.210958 0.0940574 0.722544 -0.11473
C_ C_ 0.463641 0.0953333 0.714081 -0.11473
C_ C_ 0.0694486 0.149999 0.752082 -0.02249
C_ C_ 0.319269 0.147957 0.750399 -0.02249
C_ C_ 0.0174222 0.0378434 0.741812 -0.02249
C_ C_ 0.268517 0.0340087 0.759639 -0.02249
C_ C_ 0.0495268 0.0918876 0.709976 -0.11473
C_ C_ 0.290696 0.0914266 0.717901 -0.11473
C_ C_ 0.0538319 0.13571 0.786088 -0.11473
C_ C_ 0.320024 0.12451 0.787223 -0.11473
C_ C_ 0.0660817 0.128945 0.712743 -0.11473
C_ C_ 0.303641 0.130581 0.714167 -0.11473
C_ C_ 0.0345238 0.0778649 0.745555 -0.02249
C_ C_ 0.286449 0.0721338 0.756123 -0.02249
C_ C_ 0.0908707 0.185524 0.756901 0.6875
C_ C_ 0.337408 0.186361 0.748432 0.6875
C_ C_ 0.0352377 0.101379 0.783087 -0.11473
C_ C_ 0.300376 0.0909507 0.79254 -0.11473
C_ C_ 0.126985 0.282102 0.888882 0.17695
C_ C_ 0.380427 0.28317 0.870923 0.17695
C_ C_ 0.116747 0.210111 0.882048 0.17695
C_ C_ 0.373031 0.210528 0.869187 0.17695
C_ C_ 0.116137 0.205645 0.926354 -0.11473
C_ C_ 0.371622 0.210253 0.912509 -0.11473
C_ C_ 0.121373 0.240376 0.951363 0.23465
C_ C_ 0.375883 0.246278 0.93767 0.23465
C_ C_ 0.124815 0.279546 0.933213 -0.11473
C_ C_ 0.380681 0.282349 0.9163 -0.11473
C_ C_ 0.128226 0.20534 0.63265 0.17695
C_ C_ 0.381443 0.215759 0.614595 0.17695
C_ C_ 0.121994 0.276585 0.627322 0.17695
C_ C_ 0.366235 0.284174 0.622253 0.17695
C_ C_ 0.120226 0.275463 0.582631 -0.11473
C_ C_ 0.365245 0.289752 0.577215 -0.11473
C_ C_ 0.121211 0.236618 0.563454 0.23465
C_ C_ 0.37368 0.256051 0.552154 0.23465
C_ C_ 0.123496 0.201327 0.58876 -0.11473
C_ C_ 0.38006 0.21801 0.570014 -0.11473
C_ C_ 0.0358067 0.498429 0.753884 0.05793
C_ C_ 0.285127 0.496412 0.745436 0.05793
C_ C_ 0.220641 -0.0038479999999999626 0.750333 0.05793
C_ C_ 0.470591 0.998498 0.750178 0.05793
Br Br 0.0806443 0.497637 0.753058 -0.17191
Br Br 0.327925 0.49007 0.733331 -0.17191
Br Br 0.176932 -0.008835000000000037 0.761246 -0.17191
Br Br 0.426734 0.998091 0.74069 -0.17191
N_ N_ 0.124887 0.247429 0.864867 -0.272
N_ N_ 0.376761 0.246483 0.848725 -0.272
N_ N_ 0.123253 0.234737 0.99667 -0.12501
N_ N_ 0.377289 0.242573 0.981934 -0.12501
N_ N_ 0.128982 0.242311 0.649697 -0.272
N_ N_ 0.374927 0.248198 0.639928 -0.272
N_ N_ 0.121081 0.232041 0.518865 -0.12501
N_ N_ 0.36778 0.257857 0.507169 -0.12501
O_ O_ 0.0946244 0.29285 0.717338 -0.60745
O_ O_ 0.346173 0.29602 0.71461 -0.60745
O_ O_ 0.0972326 0.293994 0.783586 -0.60745
O_ O_ 0.344344 0.286787 0.783385 -0.60745
O_ O_ 0.158146 0.295033 0.794234 -0.60745
O_ O_ 0.406479 0.290696 0.778404 -0.60745
O_ O_ 0.157879 0.294139 0.725346 -0.60745
O_ O_ 0.407729 0.289986 0.70961 -0.60745
O_ O_ 0.159728 0.204866 0.796214 -0.60745
O_ O_ 0.410858 0.205605 0.783834 -0.60745
O_ O_ 0.161987 0.204062 0.728115 -0.60745
O_ O_ 0.405846 0.200944 0.714438 -0.60745
O_ O_ 0.100677 0.201329 0.723919 -0.60745
O_ O_ 0.34509 0.201803 0.713633 -0.60745
O_ O_ 0.0953407 0.205062 0.790561 -0.60745
O_ O_ 0.347445 0.203111 0.782321 -0.60745
Zn Zn 0.118268 0.753831 0.283992 0.9476
Zn Zn 0.372649 0.754742 0.282043 0.9476
Zn Zn 0.122665 0.749149 0.217405 0.9476
Zn Zn 0.371425 0.751911 0.210276 0.9476
H_ H_ 0.0386283 0.928543 0.185842 0.10932
H_ H_ 0.295928 0.939847 0.18615 0.10932
H_ H_ 0.0690538 0.857499 0.320487 0.10932
H_ H_ 0.290661 0.836137 0.302611 0.10932
H_ H_ 0.0703334 0.864911 0.186747 0.10932
H_ H_ 0.324523 0.871583 0.18262 0.10932
H_ H_ 0.0340764 0.919569 0.320206 0.10932
H_ H_ 0.266866 0.903012 0.308712 0.10932
H_ H_ 0.20049 0.933283 0.312913 0.10932
H_ H_ 0.450265 0.933946 0.303782 0.10932
H_ H_ 0.188232 0.849016 0.183142 0.10932
H_ H_ 0.443751 0.847994 0.176494 0.10932
H_ H_ 0.174665 0.865791 0.316338 0.10932
H_ H_ 0.426888 0.865966 0.307081 0.10932
H_ H_ 0.216827 0.912998 0.179611 0.10932
H_ H_ 0.472098 0.912028 0.174234 0.10932
H_ H_ 0.201475 0.583398 0.329544 0.10932
H_ H_ 0.472522 0.593171 0.322705 0.10932
H_ H_ 0.197769 0.662249 0.194751 0.10932
H_ H_ 0.423273 0.637735 0.188691 0.10932
H_ H_ 0.170243 0.645076 0.322176 0.10932
H_ H_ 0.444657 0.656765 0.321064 0.10932
H_ H_ 0.220349 0.589639 0.194745 0.10932
H_ H_ 0.449317 0.571659 0.191713 0.10932
H_ H_ 0.0557644 0.559701 0.192299 0.10932
H_ H_ 0.287145 0.575432 0.196379 0.10932
H_ H_ 0.0487596 0.656702 0.312084 0.10932
H_ H_ 0.309596 0.65971 0.317872 0.10932
H_ H_ 0.0837231 0.618286 0.18648 0.10932
H_ H_ 0.316027 0.638451 0.187571 0.10932
H_ H_ 0.0264782 0.588364 0.310178 0.10932
H_ H_ 0.279653 0.596584 0.327962 0.10932
H_ H_ 0.125472 0.811061 0.363376 0.10932
H_ H_ 0.354237 0.817203 0.35653 0.10932
H_ H_ 0.120335 0.681186 0.353063 0.10932
H_ H_ 0.392834 0.699924 0.364235 0.10932
H_ H_ 0.132164 0.672638 0.429985 0.10932
H_ H_ 0.392646 0.703092 0.440396 0.10932
H_ H_ 0.124887 0.80441 0.437062 0.10932
H_ H_ 0.358134 0.827774 0.42955 0.10932
H_ H_ 0.120134 0.689367 0.141132 0.10932
H_ H_ 0.389943 0.689072 0.138489 0.10932
H_ H_ 0.13014 0.819896 0.149914 0.10932
H_ H_ 0.355972 0.808481 0.129172 0.10932
H_ H_ 0.139919 0.822977 0.0737841 0.10932
H_ H_ 0.359844 0.804981 0.0483773 0.10932
H_ H_ 0.129092 0.693563 0.0602295 0.10932
H_ H_ 0.394967 0.68168 0.0657605 0.10932
C_ C_ 0.0654162 0.853265 0.251883 -0.02249
C_ C_ 0.31083 0.850667 0.243575 -0.02249
C_ C_ 0.0131507 0.966273 0.251787 -0.02249
C_ C_ 0.262417 0.965962 0.249343 -0.02249
C_ C_ 0.0416457 0.910754 0.21521 -0.11473
C_ C_ 0.294548 0.915996 0.210302 -0.11473
C_ C_ 0.0598315 0.872022 0.290324 -0.11473
C_ C_ 0.294941 0.859822 0.279586 -0.11473
C_ C_ 0.0587354 0.873955 0.214294 -0.11473
C_ C_ 0.309868 0.877469 0.208491 -0.11473
C_ C_ 0.0319805 0.927394 0.254048 -0.02249
C_ C_ 0.278015 0.92645 0.247291 -0.02249
C_ C_ 0.0823218 0.812945 0.251911 0.6875
C_ C_ 0.332291 0.815502 0.24284 0.6875
C_ C_ 0.0423394 0.907989 0.291266 -0.11473
C_ C_ 0.278075 0.897411 0.281325 -0.11473
C_ C_ 0.175998 0.853585 0.249516 -0.02249
C_ C_ 0.432458 0.850401 0.240957 -0.02249
C_ C_ 0.230147 0.966788 0.243031 -0.02249
C_ C_ 0.480649 0.967239 0.240386 -0.02249
C_ C_ 0.199752 0.912575 0.284139 -0.11473
C_ C_ 0.449356 0.914205 0.275687 -0.11473
C_ C_ 0.189649 0.867188 0.210894 -0.11473
C_ C_ 0.448875 0.86247 0.206048 -0.11473
C_ C_ 0.179952 0.879705 0.284982 -0.11473
C_ C_ 0.434121 0.876321 0.275554 -0.11473
C_ C_ 0.211414 0.927471 0.246428 -0.02249
C_ C_ 0.464027 0.927428 0.238559 -0.02249
C_ C_ 0.158195 0.813663 0.251238 0.6875
C_ C_ 0.41253 0.812142 0.243234 0.6875
C_ C_ 0.20714 0.903416 0.210109 -0.11473
C_ C_ 0.462758 0.901774 0.202424 -0.11473
C_ C_ 0.18194 0.6589 0.258456 -0.02249
C_ C_ 0.431053 0.652517 0.254121 -0.02249
C_ C_ 0.228824 0.542513 0.261191 -0.02249
C_ C_ 0.481999 0.53688 0.257274 -0.02249
C_ C_ 0.199868 0.598646 0.298625 -0.11473
C_ C_ 0.458145 0.600395 0.295288 -0.11473
C_ C_ 0.199101 0.644539 0.223811 -0.11473
C_ C_ 0.431802 0.625825 0.218533 -0.11473
C_ C_ 0.183015 0.63545 0.295574 -0.11473
C_ C_ 0.446204 0.639306 0.292546 -0.11473
C_ C_ 0.212129 0.582358 0.261566 -0.02249
C_ C_ 0.462126 0.575302 0.25781 -0.02249
C_ C_ 0.162045 0.692768 0.253044 0.6875
C_ C_ 0.41185 0.69201 0.252189 0.6875
C_ C_ 0.212289 0.604545 0.224694 -0.11473
C_ C_ 0.447044 0.587798 0.2209 -0.11473
C_ C_ 0.0647062 0.650302 0.244288 -0.02249
C_ C_ 0.312239 0.657558 0.251974 -0.02249
C_ C_ 0.0127289 0.53875 0.245496 -0.02249
C_ C_ 0.260412 0.541331 0.264322 -0.02249
C_ C_ 0.0485148 0.584822 0.210965 -0.11473
C_ C_ 0.29218 0.593805 0.224105 -0.11473
C_ C_ 0.048122 0.638551 0.280752 -0.11473
C_ C_ 0.299177 0.644555 0.290981 -0.11473
C_ C_ 0.0677221 0.619851 0.211157 -0.11473
C_ C_ 0.307597 0.631936 0.218942 -0.11473
C_ C_ 0.0303956 0.577628 0.244644 -0.02249
C_ C_ 0.280065 0.581092 0.26251 -0.02249
C_ C_ 0.0852999 0.687916 0.244809 0.6875
C_ C_ 0.332424 0.696332 0.249632 0.6875
C_ C_ 0.0329879 0.601514 0.280005 -0.11473
C_ C_ 0.284027 0.606711 0.296843 -0.11473
C_ C_ 0.124023 0.780302 0.377696 0.17695
C_ C_ 0.364048 0.792564 0.373806 0.17695
C_ C_ 0.120687 0.708002 0.372309 0.17695
C_ C_ 0.383184 0.727223 0.379608 0.17695
C_ C_ 0.126183 0.70327 0.416205 -0.11473
C_ C_ 0.384288 0.730414 0.423713 -0.11473
C_ C_ 0.122916 0.737877 0.44147 0.23465
C_ C_ 0.373859 0.765149 0.442057 0.23465
C_ C_ 0.123532 0.776836 0.421038 -0.11473
C_ C_ 0.364832 0.79871 0.416961 -0.11473
C_ C_ 0.121075 0.717985 0.122636 0.17695
C_ C_ 0.384764 0.715959 0.12216 0.17695
C_ C_ 0.129294 0.791839 0.130435 0.17695
C_ C_ 0.363124 0.781253 0.115358 0.17695
C_ C_ 0.130784 0.796055 0.0863661 -0.11473
C_ C_ 0.367392 0.779872 0.069653 -0.11473
C_ C_ 0.128665 0.760479 0.0604056 0.23465
C_ C_ 0.381126 0.743798 0.053505 0.23465
C_ C_ 0.128277 0.720505 0.0794415 -0.11473
C_ C_ 0.388934 0.711808 0.0801159 -0.11473
C_ C_ 0.0288427 1.00538885 0.252963 0.05793
C_ C_ 0.278504 1.00333732 0.25529 0.05793
C_ C_ 0.213029 0.506316 0.252621 0.05793
C_ C_ 0.467479 0.498546 0.261098 0.05793
Br Br 0.07163 0.00798718 0.247991 -0.17191
Br Br 0.317663 1.00235189 0.27756 -0.17191
Br Br 0.17075 0.508446 0.237756 -0.17191
Br Br 0.425833 0.495072 0.277801 -0.17191
N_ N_ 0.119256 0.746914 0.3548 -0.272
N_ N_ 0.373968 0.759018 0.354528 -0.272
N_ N_ 0.130606 0.732445 0.48445 -0.12501
N_ N_ 0.376414 0.772742 0.486862 -0.12501
N_ N_ 0.122909 0.753091 0.147711 -0.272
N_ N_ 0.374675 0.751747 0.139861 -0.272
N_ N_ 0.132197 0.766668 0.01603 -0.12501
N_ N_ 0.382829 0.737029 0.0103257 -0.12501
O_ O_ 0.0936145 0.797971 0.21988 -0.60745
O_ O_ 0.338579 0.798336 0.20815 -0.60745
O_ O_ 0.0858493 0.793997 0.286377 -0.60745
O_ O_ 0.3448 0.803458 0.277498 -0.60745
O_ O_ 0.147442 0.800509 0.286491 -0.60745
O_ O_ 0.404456 0.797434 0.278308 -0.60745
O_ O_ 0.155975 0.790411 0.219899 -0.60745
O_ O_ 0.403681 0.795405 0.208715 -0.60745
O_ O_ 0.149721 0.71007 0.284307 -0.60745
O_ O_ 0.398889 0.704446 0.284381 -0.60745
O_ O_ 0.154559 0.704258 0.215815 -0.60745
O_ O_ 0.406093 0.71199 0.217982 -0.60745
O_ O_ 0.0929543 0.706576 0.212754 -0.60745
O_ O_ 0.340692 0.708798 0.213645 -0.60745
O_ O_ 0.0905227 0.703016 0.279514 -0.60745
O_ O_ 0.339463 0.717075 0.282383 -0.60745
Zn Zn 0.130155 0.746324 0.786032 0.9476
Zn Zn 0.379653 0.748534 0.780752 0.9476
Zn Zn 0.130554 0.746229 0.714303 0.9476
Zn Zn 0.377315 0.749269 0.712716 0.9476
H_ H_ 0.0478054 0.928092 0.679422 0.10932
H_ H_ 0.293975 0.926853 0.686899 0.10932
H_ H_ 0.0592965 0.84295 0.809625 0.10932
H_ H_ 0.310325 0.83908 0.817335 0.10932
H_ H_ 0.078294 0.860259 0.675727 0.10932
H_ H_ 0.326209 0.864291 0.684674 0.10932
H_ H_ 0.0302909 0.908487 0.807834 0.10932
H_ H_ 0.284142 0.904285 0.820971 0.10932
H_ H_ 0.208415 0.922865 0.809527 0.10932
H_ H_ 0.460161 0.925636 0.815512 0.10932
H_ H_ 0.20402 0.840239 0.680205 0.10932
H_ H_ 0.452784 0.83786 0.690821 0.10932
H_ H_ 0.194528 0.848089 0.812027 0.10932
H_ H_ 0.434043 0.858887 0.820419 0.10932
H_ H_ 0.22898 0.908208 0.678563 0.10932
H_ H_ 0.475866 0.906819 0.68367 0.10932
H_ H_ 0.22642 0.584829 0.818337 0.10932
H_ H_ 0.465236 0.574917 0.813047 0.10932
H_ H_ 0.188608 0.645055 0.68294 0.10932
H_ H_ 0.451639 0.657323 0.68071 0.10932
H_ H_ 0.194385 0.649209 0.818989 0.10932
H_ H_ 0.434051 0.640018 0.815411 0.10932
H_ H_ 0.21588 0.578049 0.682098 0.10932
H_ H_ 0.482936 0.596397 0.68192 0.10932
H_ H_ 0.0347677 0.588361 0.683209 0.10932
H_ H_ 0.281103 0.585329 0.681856 0.10932
H_ H_ 0.081521 0.633112 0.821079 0.10932
H_ H_ 0.323196 0.637298 0.814824 0.10932
H_ H_ 0.0634015 0.650828 0.684895 0.10932
H_ H_ 0.306246 0.651859 0.686151 0.10932
H_ H_ 0.0476808 0.571877 0.818915 0.10932
H_ H_ 0.293474 0.575519 0.815493 0.10932
H_ H_ 0.137876 0.810788 0.866356 0.10932
H_ H_ 0.364824 0.813384 0.856621 0.10932
H_ H_ 0.132051 0.681872 0.858218 0.10932
H_ H_ 0.395821 0.689797 0.863078 0.10932
H_ H_ 0.122277 0.67488 0.934398 0.10932
H_ H_ 0.4033 0.69785 0.942098 0.10932
H_ H_ 0.134535 0.807129 0.943354 0.10932
H_ H_ 0.358626 0.814446 0.931807 0.10932
H_ H_ 0.171045 0.742618 0.633448 0.10932
H_ H_ 0.378616 0.685843 0.643864 0.10932
H_ H_ 0.0792453 0.728164 0.64782 0.10932
H_ H_ 0.378008 0.815276 0.634228 0.10932
H_ H_ 0.0699681 0.730059 0.567818 0.10932
H_ H_ 0.38098 0.810578 0.557546 0.10932
H_ H_ 0.165525 0.740901 0.556015 0.10932
H_ H_ 0.376719 0.681014 0.565198 0.10932
C_ C_ 0.0726691 0.846357 0.743345 -0.02249
C_ C_ 0.320542 0.844682 0.749366 -0.02249
C_ C_ 0.0185587 0.960807 0.743272 -0.02249
C_ C_ 0.268871 0.959735 0.75454 -0.02249
C_ C_ 0.0496307 0.906641 0.705843 -0.11473
C_ C_ 0.296586 0.906071 0.715185 -0.11473
C_ C_ 0.0571296 0.859476 0.78059 -0.11473
C_ C_ 0.305971 0.856176 0.787208 -0.11473
C_ C_ 0.0682758 0.870969 0.706095 -0.11473
C_ C_ 0.315122 0.870902 0.713381 -0.11473
C_ C_ 0.0359171 0.92145 0.742091 -0.02249
C_ C_ 0.284656 0.919216 0.753127 -0.02249
C_ C_ 0.0931905 0.808549 0.746148 0.6875
C_ C_ 0.338133 0.805101 0.746051 0.6875
C_ C_ 0.0408511 0.897573 0.77947 -0.11473
C_ C_ 0.28875 0.893039 0.789169 -0.11473
C_ C_ 0.193768 0.839506 0.744508 -0.02249
C_ C_ 0.43719 0.845465 0.75295 -0.02249
C_ C_ 0.237563 0.959351 0.747561 -0.02249
C_ C_ 0.486399 0.960208 0.749594 -0.02249
C_ C_ 0.210528 0.901975 0.781671 -0.11473
C_ C_ 0.457366 0.906543 0.788723 -0.11473
C_ C_ 0.201777 0.858899 0.707263 -0.11473
C_ C_ 0.452407 0.857982 0.717255 -0.11473
C_ C_ 0.198185 0.861012 0.782082 -0.11473
C_ C_ 0.440655 0.868945 0.789423 -0.11473
C_ C_ 0.220976 0.91866 0.745042 -0.02249
C_ C_ 0.468712 0.921225 0.750189 -0.02249
C_ C_ 0.174594 0.799541 0.745588 0.6875
C_ C_ 0.41466 0.811566 0.75147 0.6875
C_ C_ 0.216581 0.896921 0.708268 -0.11473
C_ C_ 0.466544 0.895251 0.714595 -0.11473
C_ C_ 0.186911 0.649829 0.751546 -0.02249
C_ C_ 0.440612 0.655856 0.749853 -0.02249
C_ C_ 0.239709 0.53693 0.75445 -0.02249
C_ C_ 0.489627 0.53649 0.749709 -0.02249
C_ C_ 0.217059 0.598428 0.78893 -0.11473
C_ C_ 0.463003 0.593793 0.785629 -0.11473
C_ C_ 0.196212 0.631454 0.712495 -0.11473
C_ C_ 0.45152 0.638426 0.710714 -0.11473
C_ C_ 0.198195 0.632682 0.789703 -0.11473
C_ C_ 0.444934 0.629795 0.786722 -0.11473
C_ C_ 0.22316 0.577611 0.751012 -0.02249
C_ C_ 0.475161 0.57881 0.747333 -0.02249
C_ C_ 0.169865 0.689254 0.751758 0.6875
C_ C_ 0.419333 0.692037 0.747499 0.6875
C_ C_ 0.211817 0.592852 0.711306 -0.11473
C_ C_ 0.46977 0.602235 0.710452 -0.11473
C_ C_ 0.0738433 0.649148 0.753885 -0.02249
C_ C_ 0.322744 0.646865 0.747962 -0.02249
C_ C_ 0.0200355 0.538686 0.748418 -0.02249
C_ C_ 0.271021 0.535789 0.747949 -0.02249
C_ C_ 0.0447788 0.59916 0.71338 -0.11473
C_ C_ 0.288067 0.598777 0.711503 -0.11473
C_ C_ 0.0706769 0.62406 0.7902 -0.11473
C_ C_ 0.317168 0.626034 0.785306 -0.11473
C_ C_ 0.0608878 0.635156 0.714815 -0.11473
C_ C_ 0.304852 0.635424 0.713699 -0.11473
C_ C_ 0.0373604 0.577076 0.751991 -0.02249
C_ C_ 0.287848 0.574529 0.746451 -0.02249
C_ C_ 0.0932769 0.68643 0.754778 0.6875
C_ C_ 0.341412 0.686237 0.746896 0.6875
C_ C_ 0.0520409 0.588174 0.78895 -0.11473
C_ C_ 0.299548 0.589693 0.785495 -0.11473
C_ C_ 0.138885 0.780198 0.882829 0.17695
C_ C_ 0.371356 0.786624 0.874238 0.17695
C_ C_ 0.12906 0.708819 0.876887 0.17695
C_ C_ 0.391156 0.718691 0.877667 0.17695
C_ C_ 0.125897 0.706214 0.921599 -0.11473
C_ C_ 0.391907 0.719802 0.921537 -0.11473
C_ C_ 0.12924 0.741631 0.946088 0.23465
C_ C_ 0.384583 0.758124 0.940646 0.23465
C_ C_ 0.136509 0.777974 0.926389 -0.11473
C_ C_ 0.370773 0.789642 0.917669 -0.11473
C_ C_ 0.14829 0.741986 0.618375 0.17695
C_ C_ 0.375079 0.712965 0.624968 0.17695
C_ C_ 0.0964455 0.734107 0.627588 0.17695
C_ C_ 0.37676 0.78579 0.620307 0.17695
C_ C_ 0.0921426 0.735432 0.583793 -0.11473
C_ C_ 0.379174 0.783854 0.575934 -0.11473
C_ C_ 0.116941 0.737008 0.556031 0.23465
C_ C_ 0.374868 0.74686 0.555359 0.23465
C_ C_ 0.146008 0.738555 0.574775 -0.11473
C_ C_ 0.374765 0.710191 0.580744 -0.11473
C_ C_ 0.033321 -0.0008289999999999687 0.741868 0.05793
C_ C_ 0.28409 -0.0025680000000000147 0.760783 0.05793
C_ C_ 0.222072 0.499393 0.760923 0.05793
C_ C_ 0.471071 0.502539 0.744264 0.05793
Br Br 0.0769919 -0.0024690000000000545 0.745849 -0.17191
Br Br 0.327504 -0.0035479999999999956 0.76657 -0.17191
Br Br 0.18024 0.503527 0.77247 -0.17191
Br Br 0.428159 0.509204 0.734748 -0.17191
N_ N_ 0.134779 0.746229 0.858253 -0.272
N_ N_ 0.380808 0.751103 0.85432 -0.272
N_ N_ 0.126649 0.738137 0.989587 -0.12501
N_ N_ 0.388417 0.764416 0.984883 -0.12501
N_ N_ 0.12491 0.739761 0.643344 -0.272
N_ N_ 0.377091 0.750374 0.643056 -0.272
N_ N_ 0.11103 0.737864 0.511288 -0.12501
N_ N_ 0.376337 0.743575 0.511204 -0.12501
O_ O_ 0.10103 0.792005 0.712583 -0.60745
O_ O_ 0.348381 0.792344 0.711875 -0.60745
O_ O_ 0.0988675 0.790984 0.781497 -0.60745
O_ O_ 0.344835 0.78718 0.78067 -0.60745
O_ O_ 0.162629 0.787709 0.779022 -0.60745
O_ O_ 0.402305 0.796647 0.784178 -0.60745
O_ O_ 0.162456 0.785832 0.710663 -0.60745
O_ O_ 0.407156 0.796432 0.716606 -0.60745
O_ O_ 0.160635 0.701015 0.78651 -0.60745
O_ O_ 0.412218 0.708557 0.782159 -0.60745
O_ O_ 0.159438 0.705716 0.717854 -0.60745
O_ O_ 0.411934 0.708456 0.711806 -0.60745
O_ O_ 0.0989734 0.703284 0.720361 -0.60745
O_ O_ 0.347319 0.704487 0.713716 -0.60745
O_ O_ 0.0991908 0.703216 0.789714 -0.60745
O_ O_ 0.354152 0.698304 0.779576 -0.60745
Zn Zn 0.622025 0.249679 0.282615 0.9476
Zn Zn 0.86955 0.253291 0.281742 0.9476
Zn Zn 0.626083 0.251168 0.213311 0.9476
Zn Zn 0.870535 0.248967 0.208649 0.9476
H_ H_ 0.531682 0.419482 0.180847 0.10932
H_ H_ 0.786782 0.428687 0.182234 0.10932
H_ H_ 0.57064 0.35917 0.314171 0.10932
H_ H_ 0.801371 0.344968 0.312001 0.10932
H_ H_ 0.55764 0.351976 0.177245 0.10932
H_ H_ 0.814809 0.359794 0.180254 0.10932
H_ H_ 0.541222 0.420479 0.315822 0.10932
H_ H_ 0.773431 0.414286 0.313255 0.10932
H_ H_ 0.701318 0.427605 0.32417 0.10932
H_ H_ 0.941503 0.436403 0.30531 0.10932
H_ H_ 0.698986 0.341906 0.192556 0.10932
H_ H_ 0.947903 0.337256 0.185494 0.10932
H_ H_ 0.674649 0.360286 0.323537 0.10932
H_ H_ 0.91286 0.369718 0.307993 0.10932
H_ H_ 0.724795 0.408865 0.195346 0.10932
H_ H_ 0.970505 0.407408 0.181418 0.10932
H_ H_ 0.718133 0.0814536 0.320872 0.10932
H_ H_ 0.967114 0.0930785 0.320726 0.10932
H_ H_ 0.690275 0.152133 0.187217 0.10932
H_ H_ 0.933718 0.148631 0.180657 0.10932
H_ H_ 0.68564 0.14487 0.320911 0.10932
H_ H_ 0.944381 0.164175 0.31287 0.10932
H_ H_ 0.7245 0.0874108 0.186962 0.10932
H_ H_ 0.954372 0.0754395 0.189513 0.10932
H_ H_ 0.550234 0.0639066 0.180611 0.10932
H_ H_ 0.775448 0.0815803 0.185581 0.10932
H_ H_ 0.539364 0.172161 0.292974 0.10932
H_ H_ 0.812708 0.146735 0.318197 0.10932
H_ H_ 0.585367 0.124066 0.186297 0.10932
H_ H_ 0.803558 0.147392 0.182187 0.10932
H_ H_ 0.506701 0.113557 0.293523 0.10932
H_ H_ 0.783239 0.0802309 0.315435 0.10932
H_ H_ 0.616518 0.185789 0.354703 0.10932
H_ H_ 0.853719 0.188004 0.355158 0.10932
H_ H_ 0.616538 0.31689 0.359722 0.10932
H_ H_ 0.88069 0.312254 0.359234 0.10932
H_ H_ 0.617911 0.317074 0.431512 0.10932
H_ H_ 0.890796 0.306297 0.439236 0.10932
H_ H_ 0.626159 0.183629 0.43497 0.10932
H_ H_ 0.860912 0.181839 0.42694 0.10932
H_ H_ 0.641138 0.188395 0.137971 0.10932
H_ H_ 0.824724 0.236988 0.139973 0.10932
H_ H_ 0.604118 0.309568 0.13938 0.10932
H_ H_ 0.918246 0.259307 0.134466 0.10932
H_ H_ 0.61568 0.316683 0.0668137 0.10932
H_ H_ 0.916906 0.263569 0.059624 0.10932
H_ H_ 0.632669 0.187483 0.0585058 0.10932
H_ H_ 0.821243 0.241162 0.0603924 0.10932
C_ C_ 0.566582 0.350317 0.245765 -0.02249
C_ C_ 0.809323 0.348084 0.245854 -0.02249
C_ C_ 0.514538 0.462182 0.248403 -0.02249
C_ C_ 0.761234 0.46604 0.251608 -0.02249
C_ C_ 0.541009 0.407629 0.208672 -0.11473
C_ C_ 0.791859 0.410905 0.209791 -0.11473
C_ C_ 0.560504 0.369733 0.283138 -0.11473
C_ C_ 0.796684 0.362486 0.282825 -0.11473
C_ C_ 0.555705 0.368761 0.206666 -0.11473
C_ C_ 0.806334 0.372171 0.209081 -0.11473
C_ C_ 0.532929 0.424421 0.247413 -0.02249
C_ C_ 0.777895 0.424707 0.247502 -0.02249
C_ C_ 0.58235 0.310302 0.245918 0.6875
C_ C_ 0.829233 0.3097 0.245687 0.6875
C_ C_ 0.541937 0.404625 0.285404 -0.11473
C_ C_ 0.783568 0.402006 0.284277 -0.11473
C_ C_ 0.683857 0.346706 0.258067 -0.02249
C_ C_ 0.926522 0.349817 0.246388 -0.02249
C_ C_ 0.730017 0.463118 0.254359 -0.02249
C_ C_ 0.979797 0.462688 0.246133 -0.02249
C_ C_ 0.698822 0.410314 0.295678 -0.11473
C_ C_ 0.944196 0.413776 0.281129 -0.11473
C_ C_ 0.700975 0.359332 0.223253 -0.11473
C_ C_ 0.943915 0.359388 0.211226 -0.11473
C_ C_ 0.684783 0.369585 0.29503 -0.11473
C_ C_ 0.926385 0.378282 0.280567 -0.11473
C_ C_ 0.712901 0.425115 0.259377 -0.02249
C_ C_ 0.960989 0.423943 0.245975 -0.02249
C_ C_ 0.664087 0.310461 0.253725 0.6875
C_ C_ 0.908208 0.311177 0.247636 0.6875
C_ C_ 0.711759 0.400275 0.221319 -0.11473
C_ C_ 0.959793 0.396965 0.210032 -0.11473
C_ C_ 0.688779 0.155653 0.254604 -0.02249
C_ C_ 0.932984 0.157982 0.247245 -0.02249
C_ C_ 0.734159 0.0387909 0.252448 -0.02249
C_ C_ 0.9789 0.0401137 0.256064 -0.02249
C_ C_ 0.712087 0.0968819 0.293417 -0.11473
C_ C_ 0.958774 0.10414 0.290875 -0.11473
C_ C_ 0.697562 0.137482 0.216465 -0.11473
C_ C_ 0.938823 0.134913 0.210946 -0.11473
C_ C_ 0.695865 0.134857 0.291934 -0.11473
C_ C_ 0.945698 0.144479 0.287026 -0.11473
C_ C_ 0.719878 0.0790086 0.253776 -0.02249
C_ C_ 0.961365 0.0789818 0.25433 -0.02249
C_ C_ 0.666957 0.193181 0.252555 0.6875
C_ C_ 0.911651 0.193447 0.244689 0.6875
C_ C_ 0.71571 0.101613 0.216717 -0.11473
C_ C_ 0.949726 0.0937414 0.215996 -0.11473
C_ C_ 0.565069 0.152107 0.239794 -0.02249
C_ C_ 0.812985 0.150925 0.248404 -0.02249
C_ C_ 0.512647 0.0422272 0.242895 -0.02249
C_ C_ 0.76669 0.0363202 0.253554 -0.02249
C_ C_ 0.548882 0.0858136 0.207152 -0.11473
C_ C_ 0.786823 0.0945632 0.2127 -0.11473
C_ C_ 0.541457 0.150569 0.267535 -0.11473
C_ C_ 0.80677 0.131643 0.287482 -0.11473
C_ C_ 0.56762 0.120758 0.209173 -0.11473
C_ C_ 0.804579 0.130748 0.21066 -0.11473
C_ C_ 0.529682 0.0804611 0.240995 -0.02249
C_ C_ 0.78388 0.0739321 0.250919 -0.02249
C_ C_ 0.58679 0.187387 0.243231 0.6875
C_ C_ 0.835224 0.187409 0.246387 0.6875
C_ C_ 0.524214 0.113857 0.269358 -0.11473
C_ C_ 0.791461 0.0937121 0.287784 -0.11473
C_ C_ 0.623362 0.21305 0.372718 0.17695
C_ C_ 0.860847 0.215917 0.372913 0.17695
C_ C_ 0.619656 0.286202 0.373133 0.17695
C_ C_ 0.878147 0.283715 0.375405 0.17695
C_ C_ 0.620802 0.286952 0.417096 -0.11473
C_ C_ 0.879202 0.282503 0.420438 -0.11473
C_ C_ 0.624599 0.249054 0.439911 0.23465
C_ C_ 0.873782 0.244631 0.440826 0.23465
C_ C_ 0.624515 0.212739 0.417177 -0.11473
C_ C_ 0.863831 0.210586 0.416096 -0.11473
C_ C_ 0.632633 0.215279 0.120211 0.17695
C_ C_ 0.844769 0.2404 0.12037 0.17695
C_ C_ 0.61263 0.282766 0.122658 0.17695
C_ C_ 0.896714 0.259893 0.118415 0.17695
C_ C_ 0.615524 0.286265 0.0796453 -0.11473
C_ C_ 0.896899 0.254048 0.0760633 -0.11473
C_ C_ 0.623862 0.252186 0.0567553 0.23465
C_ C_ 0.868873 0.248362 0.0537618 0.23465
C_ C_ 0.632547 0.216349 0.0757152 -0.11473
C_ C_ 0.843358 0.240796 0.0762144 -0.11473
C_ C_ 0.528951 0.501499 0.245236 0.05793
C_ C_ 0.776457 0.504474 0.250808 0.05793
C_ C_ 0.716787 1.00364759 0.24898 0.05793
C_ C_ 0.96461 1.00348117 0.260509 0.05793
Br Br 0.568932 0.502467 0.22295 -0.17191
Br Br 0.819199 0.504329 0.243597 -0.17191
Br Br 0.67277 0.00775127 0.25216 -0.17191
Br Br 0.921051 0.00106212 0.264721 -0.17191
N_ N_ 0.621567 0.25055 0.352208 -0.272
N_ N_ 0.87026 0.250174 0.352938 -0.272
N_ N_ 0.620631 0.245279 0.484416 -0.12501
N_ N_ 0.879028 0.239575 0.486284 -0.12501
N_ N_ 0.62336 0.248337 0.143132 -0.272
N_ N_ 0.871449 0.250132 0.140855 -0.272
N_ N_ 0.629742 0.256199 0.0124513 -0.12501
N_ N_ 0.866008 0.252663 0.00948037 -0.12501
O_ O_ 0.593126 0.296249 0.212716 -0.60745
O_ O_ 0.834101 0.288771 0.211265 -0.60745
O_ O_ 0.591105 0.294338 0.280156 -0.60745
O_ O_ 0.836687 0.29387 0.279846 -0.60745
O_ O_ 0.655326 0.292973 0.286523 -0.60745
O_ O_ 0.897546 0.299255 0.282038 -0.60745
O_ O_ 0.654408 0.300158 0.217545 -0.60745
O_ O_ 0.900634 0.292589 0.213925 -0.60745
O_ O_ 0.653166 0.201763 0.285668 -0.60745
O_ O_ 0.90255 0.209172 0.278546 -0.60745
O_ O_ 0.661797 0.211992 0.217776 -0.60745
O_ O_ 0.902137 0.204436 0.209221 -0.60745
O_ O_ 0.596784 0.203714 0.210455 -0.60745
O_ O_ 0.838485 0.204434 0.210732 -0.60745
O_ O_ 0.590098 0.207145 0.277513 -0.60745
O_ O_ 0.842759 0.206532 0.279539 -0.60745
Zn Zn 0.628144 0.250239 0.784608 0.9476
Zn Zn 0.879325 0.249122 0.784022 0.9476
Zn Zn 0.630073 0.249733 0.715423 0.9476
Zn Zn 0.878199 0.249299 0.715502 0.9476
H_ H_ 0.525373 0.400262 0.678185 0.10932
H_ H_ 0.803025 0.432298 0.69154 0.10932
H_ H_ 0.557717 0.346248 0.814083 0.10932
H_ H_ 0.807582 0.346292 0.819583 0.10932
H_ H_ 0.557302 0.338046 0.686133 0.10932
H_ H_ 0.834424 0.364566 0.691169 0.10932
H_ H_ 0.534743 0.417438 0.811335 0.10932
H_ H_ 0.778679 0.407731 0.818695 0.10932
H_ H_ 0.708409 0.429955 0.818375 0.10932
H_ H_ 0.961408 0.419612 0.818515 0.10932
H_ H_ 0.704398 0.336472 0.690173 0.10932
H_ H_ 0.943216 0.353248 0.683086 0.10932
H_ H_ 0.67803 0.361222 0.81926 0.10932
H_ H_ 0.933418 0.357 0.816368 0.10932
H_ H_ 0.740459 0.393365 0.696811 0.10932
H_ H_ 0.970395 0.419878 0.686478 0.10932
H_ H_ 0.733597 0.0958293 0.815584 0.10932
H_ H_ 0.94669 0.0619656 0.80341 0.10932
H_ H_ 0.676327 0.135879 0.690706 0.10932
H_ H_ 0.951723 0.15691 0.684674 0.10932
H_ H_ 0.708934 0.162267 0.81426 0.10932
H_ H_ 0.926557 0.12944 0.812151 0.10932
H_ H_ 0.706386 0.0705604 0.687959 0.10932
H_ H_ 0.983247 0.095235 0.684955 0.10932
H_ H_ 0.521938 0.0966672 0.688431 0.10932
H_ H_ 0.769232 0.0959889 0.687032 0.10932
H_ H_ 0.586623 0.132425 0.811127 0.10932
H_ H_ 0.837404 0.122341 0.806139 0.10932
H_ H_ 0.552822 0.155537 0.689153 0.10932
H_ H_ 0.798299 0.165147 0.690274 0.10932
H_ H_ 0.552464 0.0743381 0.817523 0.10932
H_ H_ 0.802865 0.0668649 0.8101 0.10932
H_ H_ 0.616649 0.307781 0.861676 0.10932
H_ H_ 0.840187 0.219815 0.859799 0.10932
H_ H_ 0.637851 0.181365 0.854304 0.10932
H_ H_ 0.924326 0.285628 0.85591 0.10932
H_ H_ 0.629311 0.1732 0.928902 0.10932
H_ H_ 0.928218 0.283556 0.935796 0.10932
H_ H_ 0.614395 0.302987 0.939089 0.10932
H_ H_ 0.840183 0.233965 0.938837 0.10932
H_ H_ 0.624871 0.187992 0.626942 0.10932
H_ H_ 0.920422 0.241051 0.635866 0.10932
H_ H_ 0.638389 0.31656 0.644169 0.10932
H_ H_ 0.82638 0.260675 0.64538 0.10932
H_ H_ 0.63461 0.327561 0.570304 0.10932
H_ H_ 0.819621 0.261751 0.567947 0.10932
H_ H_ 0.621307 0.198128 0.552749 0.10932
H_ H_ 0.915723 0.243183 0.561883 0.10932
C_ C_ 0.568113 0.344201 0.749721 -0.02249
C_ C_ 0.82386 0.349964 0.755177 -0.02249
C_ C_ 0.514683 0.45523 0.741467 -0.02249
C_ C_ 0.771176 0.461401 0.757693 -0.02249
C_ C_ 0.535836 0.391861 0.709643 -0.11473
C_ C_ 0.803566 0.412161 0.71891 -0.11473
C_ C_ 0.559087 0.364812 0.786462 -0.11473
C_ C_ 0.809222 0.36506 0.791652 -0.11473
C_ C_ 0.555773 0.357427 0.711949 -0.11473
C_ C_ 0.820659 0.374826 0.718144 -0.11473
C_ C_ 0.529336 0.412809 0.745758 -0.02249
C_ C_ 0.787878 0.422317 0.755 -0.02249
C_ C_ 0.590083 0.308625 0.753502 0.6875
C_ C_ 0.839019 0.309921 0.752744 0.6875
C_ C_ 0.54102 0.400687 0.783289 -0.11473
C_ C_ 0.789166 0.396454 0.789518 -0.11473
C_ C_ 0.688292 0.347302 0.754256 -0.02249
C_ C_ 0.938863 0.345758 0.749989 -0.02249
C_ C_ 0.739804 0.460257 0.751228 -0.02249
C_ C_ 0.987697 0.463674 0.755797 -0.02249
C_ C_ 0.706358 0.410329 0.790519 -0.11473
C_ C_ 0.960631 0.403243 0.789452 -0.11473
C_ C_ 0.704368 0.357737 0.719196 -0.11473
C_ C_ 0.950189 0.364494 0.713409 -0.11473
C_ C_ 0.689995 0.372598 0.790859 -0.11473
C_ C_ 0.945775 0.363575 0.788083 -0.11473
C_ C_ 0.721685 0.421357 0.753752 -0.02249
C_ C_ 0.968222 0.425571 0.752534 -0.02249
C_ C_ 0.670149 0.307593 0.752758 0.6875
C_ C_ 0.919971 0.306491 0.746306 0.6875
C_ C_ 0.722886 0.391456 0.720652 -0.11473
C_ C_ 0.964616 0.402976 0.714588 -0.11473
C_ C_ 0.68972 0.152327 0.750719 -0.02249
C_ C_ 0.93665 0.149623 0.747926 -0.02249
C_ C_ 0.736268 0.0375249 0.754821 -0.02249
C_ C_ 0.98558 0.0354449 0.743912 -0.02249
C_ C_ 0.719662 0.102894 0.788839 -0.11473
C_ C_ 0.950947 0.0833251 0.77949 -0.11473
C_ C_ 0.689026 0.126071 0.716869 -0.11473
C_ C_ 0.95277 0.137718 0.711318 -0.11473
C_ C_ 0.705244 0.141176 0.787588 -0.11473
C_ C_ 0.936419 0.121596 0.781093 -0.11473
C_ C_ 0.719088 0.0766763 0.75277 -0.02249
C_ C_ 0.968399 0.073857 0.745014 -0.02249
C_ C_ 0.672838 0.193568 0.749572 0.6875
C_ C_ 0.917015 0.189273 0.747568 0.6875
C_ C_ 0.702128 0.0874286 0.717698 -0.11473
C_ C_ 0.970817 0.102846 0.711786 -0.11473
C_ C_ 0.56966 0.15046 0.750167 -0.02249
C_ C_ 0.820817 0.148021 0.748716 -0.02249
C_ C_ 0.517819 0.0368227 0.751732 -0.02249
C_ C_ 0.767448 0.0360728 0.743794 -0.02249
C_ C_ 0.534932 0.102301 0.716689 -0.11473
C_ C_ 0.783941 0.103883 0.71329 -0.11473
C_ C_ 0.570005 0.127097 0.786558 -0.11473
C_ C_ 0.82198 0.118829 0.781577 -0.11473
C_ C_ 0.554251 0.136543 0.715123 -0.11473
C_ C_ 0.80026 0.140518 0.715337 -0.11473
C_ C_ 0.535497 0.0763507 0.753362 -0.02249
C_ C_ 0.78512 0.0740696 0.745885 -0.02249
C_ C_ 0.590439 0.185825 0.748124 0.6875
C_ C_ 0.84085 0.18848 0.748652 0.6875
C_ C_ 0.55174 0.0919154 0.789208 -0.11473
C_ C_ 0.804255 0.0829255 0.780555 -0.11473
C_ C_ 0.621337 0.279248 0.877528 0.17695
C_ C_ 0.859521 0.234517 0.876886 0.17695
C_ C_ 0.635321 0.209222 0.873336 0.17695
C_ C_ 0.906586 0.270862 0.874591 0.17695
C_ C_ 0.630259 0.204005 0.915795 -0.11473
C_ C_ 0.908477 0.272445 0.918471 -0.11473
C_ C_ 0.62526 0.237737 0.94142 0.23465
C_ C_ 0.883059 0.261316 0.942353 0.23465
C_ C_ 0.621363 0.276496 0.922159 -0.11473
C_ C_ 0.859115 0.242756 0.921054 -0.11473
C_ C_ 0.628499 0.218886 0.614798 0.17695
C_ C_ 0.897659 0.247755 0.622834 0.17695
C_ C_ 0.636098 0.289886 0.625387 0.17695
C_ C_ 0.844261 0.252877 0.62704 0.17695
C_ C_ 0.631128 0.298415 0.583839 -0.11473
C_ C_ 0.842284 0.256757 0.582368 -0.11473
C_ C_ 0.629992 0.267409 0.554454 0.23465
C_ C_ 0.867758 0.253877 0.557628 0.23465
C_ C_ 0.624641 0.226087 0.570124 -0.11473
C_ C_ 0.895805 0.250233 0.578401 -0.11473
C_ C_ 0.533644 0.490913 0.74235 0.05793
C_ C_ 0.787421 0.498845 0.759324 0.05793
C_ C_ 0.720819 -0.0012659999999999894 0.759651 0.05793
C_ C_ 0.971362 -0.003906999999999994 0.742116 0.05793
Br Br 0.575366 0.48858 0.738032 -0.17191
Br Br 0.829658 0.501701 0.772905 -0.17191
Br Br 0.678484 -0.0011029999999999651 0.771041 -0.17191
Br Br 0.92829 -0.0035199999999999676 0.745667 -0.17191
N_ N_ 0.629056 0.24668 0.85415 -0.272
N_ N_ 0.881745 0.253365 0.856193 -0.272
N_ N_ 0.619567 0.231973 0.985509 -0.12501
N_ N_ 0.888067 0.252462 0.985386 -0.12501
N_ N_ 0.633878 0.251589 0.641826 -0.272
N_ N_ 0.872212 0.248051 0.646957 -0.272
N_ N_ 0.629918 0.272772 0.510358 -0.12501
N_ N_ 0.864851 0.258699 0.512683 -0.12501
O_ O_ 0.599385 0.291941 0.720377 -0.60745
O_ O_ 0.851037 0.297091 0.719209 -0.60745
O_ O_ 0.597842 0.291877 0.787451 -0.60745
O_ O_ 0.845657 0.289978 0.786677 -0.60745
O_ O_ 0.661267 0.29259 0.787745 -0.60745
O_ O_ 0.908076 0.293868 0.780197 -0.60745
O_ O_ 0.66064 0.293344 0.718404 -0.60745
O_ O_ 0.911899 0.291253 0.711821 -0.60745
O_ O_ 0.660556 0.205815 0.783095 -0.60745
O_ O_ 0.912078 0.209289 0.780623 -0.60745
O_ O_ 0.662414 0.207305 0.715003 -0.60745
O_ O_ 0.906823 0.203307 0.711971 -0.60745
O_ O_ 0.600263 0.200807 0.713344 -0.60745
O_ O_ 0.844633 0.209027 0.716157 -0.60745
O_ O_ 0.597704 0.205156 0.781654 -0.60745
O_ O_ 0.846881 0.206136 0.785137 -0.60745
Zn Zn 0.622452 0.753016 0.282697 0.9476
Zn Zn 0.871511 0.751737 0.28302 0.9476
Zn Zn 0.622957 0.753295 0.213463 0.9476
Zn Zn 0.870146 0.751906 0.213785 0.9476
H_ H_ 0.543162 0.929063 0.176584 0.10932
H_ H_ 0.777487 0.91602 0.181991 0.10932
H_ H_ 0.547199 0.846202 0.307302 0.10932
H_ H_ 0.811969 0.852577 0.317117 0.10932
H_ H_ 0.573652 0.867983 0.181109 0.10932
H_ H_ 0.798118 0.842773 0.183502 0.10932
H_ H_ 0.514051 0.910695 0.302321 0.10932
H_ H_ 0.79851 0.926094 0.311734 0.10932
H_ H_ 0.716962 0.921761 0.312478 0.10932
H_ H_ 0.961551 0.922079 0.323547 0.10932
H_ H_ 0.67596 0.86189 0.180451 0.10932
H_ H_ 0.938225 0.848256 0.190998 0.10932
H_ H_ 0.687542 0.858342 0.314164 0.10932
H_ H_ 0.935903 0.84977 0.325247 0.10932
H_ H_ 0.708041 0.924885 0.177829 0.10932
H_ H_ 0.966376 0.912257 0.18783 0.10932
H_ H_ 0.71022 0.583911 0.323906 0.10932
H_ H_ 0.961 0.578744 0.307544 0.10932
H_ H_ 0.687687 0.654341 0.185656 0.10932
H_ H_ 0.940591 0.655765 0.177903 0.10932
H_ H_ 0.682828 0.650323 0.325404 0.10932
H_ H_ 0.931834 0.641855 0.311565 0.10932
H_ H_ 0.709457 0.584804 0.187023 0.10932
H_ H_ 0.963091 0.589266 0.175437 0.10932
H_ H_ 0.528785 0.585433 0.18426 0.10932
H_ H_ 0.779974 0.578198 0.185375 0.10932
H_ H_ 0.555595 0.651946 0.320077 0.10932
H_ H_ 0.806483 0.656816 0.313661 0.10932
H_ H_ 0.553245 0.655465 0.185655 0.10932
H_ H_ 0.809746 0.6463 0.177047 0.10932
H_ H_ 0.530676 0.591079 0.32035 0.10932
H_ H_ 0.774884 0.593178 0.315964 0.10932
H_ H_ 0.620784 0.691629 0.362405 0.10932
H_ H_ 0.81892 0.742028 0.353976 0.10932
H_ H_ 0.631507 0.824732 0.355411 0.10932
H_ H_ 0.912925 0.743107 0.360087 0.10932
H_ H_ 0.63417 0.830902 0.431032 0.10932
H_ H_ 0.912743 0.739147 0.438123 0.10932
H_ H_ 0.621543 0.69971 0.441849 0.10932
H_ H_ 0.818567 0.736706 0.434228 0.10932
H_ H_ 0.638321 0.806356 0.135962 0.10932
H_ H_ 0.885749 0.68842 0.132939 0.10932
H_ H_ 0.596482 0.687673 0.143286 0.10932
H_ H_ 0.874681 0.819342 0.149308 0.10932
H_ H_ 0.596732 0.678724 0.0656638 0.10932
H_ H_ 0.879712 0.829439 0.0725867 0.10932
H_ H_ 0.637209 0.798378 0.0574355 0.10932
H_ H_ 0.888307 0.699553 0.0580796 0.10932
C_ C_ 0.560495 0.849531 0.241469 -0.02249
C_ C_ 0.811288 0.848065 0.249208 -0.02249
C_ C_ 0.513004 0.965643 0.241488 -0.02249
C_ C_ 0.764329 0.96166 0.24761 -0.02249
C_ C_ 0.544468 0.913249 0.205718 -0.11473
C_ C_ 0.784188 0.900881 0.211531 -0.11473
C_ C_ 0.547693 0.863648 0.279046 -0.11473
C_ C_ 0.805984 0.867568 0.287446 -0.11473
C_ C_ 0.561675 0.87681 0.207648 -0.11473
C_ C_ 0.797684 0.863493 0.2105 -0.11473
C_ C_ 0.530071 0.926288 0.242256 -0.02249
C_ C_ 0.779172 0.920793 0.248882 -0.02249
C_ C_ 0.578793 0.810583 0.242048 0.6875
C_ C_ 0.829532 0.811075 0.250784 0.6875
C_ C_ 0.528203 0.899238 0.277433 -0.11473
C_ C_ 0.791529 0.906628 0.287099 -0.11473
C_ C_ 0.680464 0.85222 0.246121 -0.02249
C_ C_ 0.931349 0.848575 0.257672 -0.02249
C_ C_ 0.732139 0.965373 0.247482 -0.02249
C_ C_ 0.981046 0.965806 0.255357 -0.02249
C_ C_ 0.707436 0.908999 0.283862 -0.11473
C_ C_ 0.956363 0.90495 0.293742 -0.11473
C_ C_ 0.68685 0.872327 0.207561 -0.11473
C_ C_ 0.943976 0.863436 0.219679 -0.11473
C_ C_ 0.691352 0.872487 0.282515 -0.11473
C_ C_ 0.940505 0.866845 0.294699 -0.11473
C_ C_ 0.713751 0.927046 0.246784 -0.02249
C_ C_ 0.963949 0.92423 0.255574 -0.02249
C_ C_ 0.660151 0.81505 0.247203 0.6875
C_ C_ 0.911409 0.810454 0.258209 0.6875
C_ C_ 0.703159 0.910095 0.20791 -0.11473
C_ C_ 0.958242 0.902634 0.218253 -0.11473
C_ C_ 0.6824 0.657792 0.255455 -0.02249
C_ C_ 0.933765 0.655538 0.244608 -0.02249
C_ C_ 0.729133 0.541486 0.256645 -0.02249
C_ C_ 0.981526 0.538908 0.242177 -0.02249
C_ C_ 0.704798 0.600032 0.293915 -0.11473
C_ C_ 0.957975 0.596136 0.280097 -0.11473
C_ C_ 0.689803 0.637419 0.216957 -0.11473
C_ C_ 0.946001 0.641759 0.206617 -0.11473
C_ C_ 0.692172 0.639569 0.293949 -0.11473
C_ C_ 0.942808 0.634872 0.281464 -0.11473
C_ C_ 0.712105 0.581143 0.25679 -0.02249
C_ C_ 0.96639 0.578896 0.242394 -0.02249
C_ C_ 0.662792 0.695479 0.254333 0.6875
C_ C_ 0.913429 0.693021 0.247518 0.6875
C_ C_ 0.703339 0.598073 0.216958 -0.11473
C_ C_ 0.959349 0.601598 0.204984 -0.11473
C_ C_ 0.557907 0.658783 0.251336 -0.02249
C_ C_ 0.81116 0.654936 0.24612 -0.02249
C_ C_ 0.51323 0.539005 0.252649 -0.02249
C_ C_ 0.760425 0.540414 0.253711 -0.02249
C_ C_ 0.532764 0.601565 0.215057 -0.11473
C_ C_ 0.786005 0.597002 0.211209 -0.11473
C_ C_ 0.550028 0.64048 0.289773 -0.11473
C_ C_ 0.800854 0.639949 0.28359 -0.11473
C_ C_ 0.545886 0.640782 0.213849 -0.11473
C_ C_ 0.804204 0.632291 0.207636 -0.11473
C_ C_ 0.527529 0.581068 0.253026 -0.02249
C_ C_ 0.779364 0.580132 0.250893 -0.02249
C_ C_ 0.578402 0.695213 0.252707 0.6875
C_ C_ 0.830736 0.693354 0.243588 0.6875
C_ C_ 0.534912 0.602488 0.289664 -0.11473
C_ C_ 0.784633 0.601398 0.286935 -0.11473
C_ C_ 0.624167 0.722527 0.378294 0.17695
C_ C_ 0.839436 0.739343 0.372743 0.17695
C_ C_ 0.628711 0.796075 0.373263 0.17695
C_ C_ 0.891498 0.745597 0.376999 0.17695
C_ C_ 0.631573 0.800111 0.416988 -0.11473
C_ C_ 0.891797 0.74205 0.42011 -0.11473
C_ C_ 0.627819 0.764685 0.442438 0.23465
C_ C_ 0.865296 0.73583 0.441164 0.23465
C_ C_ 0.625734 0.726387 0.421949 -0.11473
C_ C_ 0.838546 0.739846 0.417165 -0.11473
C_ C_ 0.632931 0.775428 0.120733 0.17695
C_ C_ 0.880517 0.7187 0.121994 0.17695
C_ C_ 0.606875 0.711419 0.124788 0.17695
C_ C_ 0.875113 0.791427 0.128569 0.17695
C_ C_ 0.60517 0.707841 0.0813203 -0.11473
C_ C_ 0.877162 0.798646 0.0848621 -0.11473
C_ C_ 0.618427 0.737932 0.0568807 0.23465
C_ C_ 0.877444 0.763199 0.0583836 0.23465
C_ C_ 0.631492 0.772066 0.0773184 -0.11473
C_ C_ 0.881362 0.723795 0.0771762 -0.11473
C_ C_ 0.528661 1.00387779 0.247419 0.05793
C_ C_ 0.781776 0.997249 0.251069 0.05793
C_ C_ 0.71354 0.50201 0.261795 0.05793
C_ C_ 0.965044 0.500742 0.239022 0.05793
Br Br 0.568861 1.00255765 0.267635 -0.17191
Br Br 0.824514 0.995707 0.241804 -0.17191
Br Br 0.670395 0.500866 0.267824 -0.17191
Br Br 0.922311 0.502508 0.222062 -0.17191
N_ N_ 0.627315 0.7578 0.355719 -0.272
N_ N_ 0.86578 0.744611 0.352991 -0.272
N_ N_ 0.632119 0.765771 0.486199 -0.12501
N_ N_ 0.864008 0.726137 0.48544 -0.12501
N_ N_ 0.621982 0.743419 0.144143 -0.272
N_ N_ 0.879241 0.753418 0.145568 -0.272
N_ N_ 0.61397 0.735962 0.0122391 -0.12501
N_ N_ 0.881044 0.767427 0.0129035 -0.12501
O_ O_ 0.589185 0.795819 0.20782 -0.60745
O_ O_ 0.838486 0.793513 0.21805 -0.60745
O_ O_ 0.58751 0.793853 0.27589 -0.60745
O_ O_ 0.840103 0.798524 0.285759 -0.60745
O_ O_ 0.650431 0.800625 0.282075 -0.60745
O_ O_ 0.900691 0.796996 0.292286 -0.60745
O_ O_ 0.65034 0.799665 0.212217 -0.60745
O_ O_ 0.902217 0.795412 0.223393 -0.60745
O_ O_ 0.656285 0.713668 0.288158 -0.60745
O_ O_ 0.903173 0.707112 0.282157 -0.60745
O_ O_ 0.655309 0.711576 0.218702 -0.60745
O_ O_ 0.901846 0.70835 0.213476 -0.60745
O_ O_ 0.589407 0.710127 0.218899 -0.60745
O_ O_ 0.841323 0.705746 0.209232 -0.60745
O_ O_ 0.589591 0.707018 0.288186 -0.60745
O_ O_ 0.839168 0.710332 0.277435 -0.60745
Zn Zn 0.625929 0.747796 0.785716 0.9476
Zn Zn 0.87832 0.750733 0.786574 0.9476
Zn Zn 0.628566 0.745606 0.71507 0.9476
Zn Zn 0.877008 0.751855 0.715187 0.9476
H_ H_ 0.540553 0.921001 0.688924 0.10932
H_ H_ 0.771979 0.904033 0.685631 0.10932
H_ H_ 0.556791 0.84161 0.821761 0.10932
H_ H_ 0.822623 0.85998 0.818064 0.10932
H_ H_ 0.574446 0.859763 0.688177 0.10932
H_ H_ 0.812634 0.851075 0.683244 0.10932
H_ H_ 0.527863 0.905478 0.820721 0.10932
H_ H_ 0.798029 0.925654 0.814174 0.10932
H_ H_ 0.713494 0.912005 0.82067 0.10932
H_ H_ 0.958221 0.926322 0.804132 0.10932
H_ H_ 0.684964 0.855188 0.681296 0.10932
H_ H_ 0.951475 0.835201 0.679269 0.10932
H_ H_ 0.680729 0.852249 0.816166 0.10932
H_ H_ 0.92797 0.863463 0.80621 0.10932
H_ H_ 0.712896 0.92301 0.685233 0.10932
H_ H_ 0.976517 0.901144 0.674819 0.10932
H_ H_ 0.71531 0.581908 0.81781 0.10932
H_ H_ 0.980886 0.594746 0.81728 0.10932
H_ H_ 0.696929 0.648011 0.67878 0.10932
H_ H_ 0.933769 0.644561 0.686534 0.10932
H_ H_ 0.681249 0.644431 0.813447 0.10932
H_ H_ 0.944326 0.650883 0.820695 0.10932
H_ H_ 0.726254 0.582984 0.684272 0.10932
H_ H_ 0.95316 0.574049 0.685621 0.10932
H_ H_ 0.52931 0.587014 0.686237 0.10932
H_ H_ 0.792235 0.586865 0.68097 0.10932
H_ H_ 0.587995 0.621492 0.816747 0.10932
H_ H_ 0.811345 0.651131 0.817979 0.10932
H_ H_ 0.557413 0.65079 0.690045 0.10932
H_ H_ 0.822149 0.650324 0.688196 0.10932
H_ H_ 0.556252 0.5615 0.816184 0.10932
H_ H_ 0.792266 0.580654 0.816516 0.10932
H_ H_ 0.582302 0.72888 0.859532 0.10932
H_ H_ 0.872766 0.683982 0.854899 0.10932
H_ H_ 0.672427 0.759728 0.855122 0.10932
H_ H_ 0.875622 0.813885 0.861198 0.10932
H_ H_ 0.677926 0.753074 0.931797 0.10932
H_ H_ 0.876242 0.810794 0.941512 0.10932
H_ H_ 0.582729 0.729191 0.937575 0.10932
H_ H_ 0.869608 0.679261 0.935628 0.10932
H_ H_ 0.619868 0.680693 0.644377 0.10932
H_ H_ 0.889187 0.808282 0.644132 0.10932
H_ H_ 0.624441 0.809522 0.638119 0.10932
H_ H_ 0.856446 0.685503 0.641645 0.10932
H_ H_ 0.629061 0.807767 0.559664 0.10932
H_ H_ 0.853527 0.686514 0.560768 0.10932
H_ H_ 0.61538 0.678241 0.565247 0.10932
H_ H_ 0.880844 0.814675 0.563711 0.10932
C_ C_ 0.565428 0.842216 0.753042 -0.02249
C_ C_ 0.819719 0.848897 0.749943 -0.02249
C_ C_ 0.516589 0.959026 0.758643 -0.02249
C_ C_ 0.767015 0.958582 0.746654 -0.02249
C_ C_ 0.544011 0.903078 0.718226 -0.11473
C_ C_ 0.785304 0.894852 0.714362 -0.11473
C_ C_ 0.552236 0.856897 0.79083 -0.11473
C_ C_ 0.812776 0.869068 0.787926 -0.11473
C_ C_ 0.561013 0.866393 0.715975 -0.11473
C_ C_ 0.80468 0.861321 0.713542 -0.11473
C_ C_ 0.532368 0.917443 0.755435 -0.02249
C_ C_ 0.784195 0.920284 0.750202 -0.02249
C_ C_ 0.587647 0.806699 0.754728 0.6875
C_ C_ 0.841492 0.813105 0.748795 0.6875
C_ C_ 0.534245 0.893221 0.791146 -0.11473
C_ C_ 0.798915 0.906911 0.786618 -0.11473
C_ C_ 0.68223 0.848682 0.748069 -0.02249
C_ C_ 0.935673 0.845926 0.744749 -0.02249
C_ C_ 0.735034 0.959438 0.754019 -0.02249
C_ C_ 0.986987 0.959282 0.738614 -0.02249
C_ C_ 0.710147 0.898911 0.789407 -0.11473
C_ C_ 0.953822 0.907087 0.776151 -0.11473
C_ C_ 0.690157 0.87069 0.711758 -0.11473
C_ C_ 0.948342 0.85633 0.70541 -0.11473
C_ C_ 0.691647 0.863679 0.788296 -0.11473
C_ C_ 0.93956 0.871313 0.779217 -0.11473
C_ C_ 0.716164 0.921324 0.753314 -0.02249
C_ C_ 0.969372 0.917576 0.740156 -0.02249
C_ C_ 0.662459 0.811856 0.746914 0.6875
C_ C_ 0.918632 0.807409 0.74628 0.6875
C_ C_ 0.706884 0.906525 0.71424 -0.11473
C_ C_ 0.964245 0.893753 0.702311 -0.11473
C_ C_ 0.689733 0.65416 0.746296 -0.02249
C_ C_ 0.931401 0.648041 0.753454 -0.02249
C_ C_ 0.741073 0.53742 0.751369 -0.02249
C_ C_ 0.989753 0.540883 0.751308 -0.02249
C_ C_ 0.708989 0.595839 0.786751 -0.11473
C_ C_ 0.969245 0.604457 0.78877 -0.11473
C_ C_ 0.699881 0.633366 0.708865 -0.11473
C_ C_ 0.938526 0.628276 0.715682 -0.11473
C_ C_ 0.693027 0.633815 0.784752 -0.11473
C_ C_ 0.947314 0.634887 0.789947 -0.11473
C_ C_ 0.721975 0.577588 0.74907 -0.02249
C_ C_ 0.97202 0.580107 0.751783 -0.02249
C_ C_ 0.671884 0.693661 0.74411 0.6875
C_ C_ 0.914929 0.688865 0.753264 0.6875
C_ C_ 0.716565 0.596817 0.71174 -0.11473
C_ C_ 0.954277 0.591291 0.714504 -0.11473
C_ C_ 0.573545 0.644091 0.755107 -0.02249
C_ C_ 0.82142 0.654176 0.751855 -0.02249
C_ C_ 0.520373 0.531671 0.7457 -0.02249
C_ C_ 0.772585 0.536841 0.752359 -0.02249
C_ C_ 0.542971 0.59395 0.715293 -0.11473
C_ C_ 0.799606 0.595617 0.71358 -0.11473
C_ C_ 0.575909 0.613555 0.787102 -0.11473
C_ C_ 0.812641 0.634601 0.789258 -0.11473
C_ C_ 0.560553 0.630061 0.716437 -0.11473
C_ C_ 0.815295 0.632881 0.71521 -0.11473
C_ C_ 0.539307 0.569387 0.751547 -0.02249
C_ C_ 0.789854 0.576263 0.750943 -0.02249
C_ C_ 0.59285 0.680223 0.756343 0.6875
C_ C_ 0.838207 0.695634 0.751897 0.6875
C_ C_ 0.555206 0.580476 0.789882 -0.11473
C_ C_ 0.797876 0.595772 0.788353 -0.11473
C_ C_ 0.603207 0.732012 0.876866 0.17695
C_ C_ 0.870904 0.711957 0.875482 0.17695
C_ C_ 0.653919 0.752586 0.874058 0.17695
C_ C_ 0.874902 0.783764 0.879834 0.17695
C_ C_ 0.656023 0.745912 0.918041 -0.11473
C_ C_ 0.874062 0.781221 0.923635 -0.11473
C_ C_ 0.630958 0.741736 0.942972 0.23465
C_ C_ 0.875943 0.743397 0.944158 0.23465
C_ C_ 0.603988 0.73634 0.922944 -0.11473
C_ C_ 0.873873 0.708593 0.919457 -0.11473
C_ C_ 0.620232 0.70804 0.626165 0.17695
C_ C_ 0.879489 0.782939 0.624218 0.17695
C_ C_ 0.626322 0.780632 0.621893 0.17695
C_ C_ 0.861971 0.712202 0.623369 0.17695
C_ C_ 0.624757 0.779535 0.578006 -0.11473
C_ C_ 0.860535 0.714842 0.578894 -0.11473
C_ C_ 0.623958 0.742156 0.556517 0.23465
C_ C_ 0.866921 0.750715 0.557663 0.23465
C_ C_ 0.618551 0.706898 0.581017 -0.11473
C_ C_ 0.877568 0.785144 0.580227 -0.11473
C_ C_ 0.532198 -0.0031480000000000397 0.756114 0.05793
C_ C_ 0.781773 -0.002703000000000011 0.740514 0.05793
C_ C_ 0.725107 0.500006 0.751593 0.05793
C_ C_ 0.973467 0.501926 0.757538 0.05793
Br Br 0.575227 -0.006506000000000012 0.751513 -0.17191
Br Br 0.823032 0.995814 0.721899 -0.17191
Br Br 0.683667 0.498606 0.735733 -0.17191
Br Br 0.93354 0.500049 0.77463 -0.17191
N_ N_ 0.628351 0.743773 0.854409 -0.272
N_ N_ 0.872716 0.748296 0.85622 -0.272
N_ N_ 0.634612 0.743791 0.986924 -0.12501
N_ N_ 0.871632 0.740143 0.988666 -0.12501
N_ N_ 0.626459 0.744847 0.644919 -0.272
N_ N_ 0.871635 0.746295 0.644597 -0.272
N_ N_ 0.621314 0.739862 0.510341 -0.12501
N_ N_ 0.862705 0.754778 0.512403 -0.12501
O_ O_ 0.599314 0.793341 0.721026 -0.60745
O_ O_ 0.852438 0.801567 0.713785 -0.60745
O_ O_ 0.588485 0.783307 0.788131 -0.60745
O_ O_ 0.851684 0.796544 0.783098 -0.60745
O_ O_ 0.652629 0.797442 0.780551 -0.60745
O_ O_ 0.907963 0.794588 0.780751 -0.60745
O_ O_ 0.659843 0.790307 0.713656 -0.60745
O_ O_ 0.912429 0.789164 0.711647 -0.60745
O_ O_ 0.663526 0.71061 0.777068 -0.60745
O_ O_ 0.907613 0.707609 0.786585 -0.60745
O_ O_ 0.658577 0.704043 0.709322 -0.60745
O_ O_ 0.903365 0.700998 0.71965 -0.60745
O_ O_ 0.595754 0.702171 0.722431 -0.60745
O_ O_ 0.842397 0.715649 0.718353 -0.60745
O_ O_ 0.601734 0.694825 0.791455 -0.60745
O_ O_ 0.848434 0.708988 0.784907 -0.60745
