_cell_length_a 44.444
_cell_length_b 32.3360000049186
_cell_length_c 31.843999878906452
_cell_angle_alpha 89.99799923859553
_cell_angle_beta 91.13600050494348
_cell_angle_gamma 89.9990006550086
_symmetry_space_group_name_H-M         'P 1'
_symmetry_Int_Tables_number            1
loop_
_symmetry_equiv_pos_as_xyz
   'x, y, z'
                         
loop_
_atom_site_label
_atom_site_type_symbol
_atom_site_fract_x 
_atom_site_fract_y
_atom_site_fract_z
_atom_site_charge
Zn Zn 0.12379 0.254448 0.279296 0.9476
Zn Zn 0.379418 0.253552 0.280439 0.9476
Zn Zn 0.124085 0.249481 0.211762 0.9476
Zn Zn 0.379775 0.252283 0.210123 0.9476
H_ H_ 0.0224656 0.407412 0.179219 0.10932
H_ H_ 0.284989 0.419099 0.177519 0.10932
H_ H_ 0.076162 0.371732 0.311719 0.10932
H_ H_ 0.310432 0.348743 0.3093 0.10932
H_ H_ 0.0540887 0.343708 0.180948 0.10932
H_ H_ 0.322327 0.363374 0.179168 0.10932
H_ H_ 0.0445671 0.430999 0.307656 0.10932
H_ H_ 0.277707 0.407305 0.311917 0.10932
H_ H_ 0.219478 0.417406 0.305835 0.10932
H_ H_ 0.46102 0.421386 0.310102 0.10932
H_ H_ 0.169697 0.36734 0.175681 0.10932
H_ H_ 0.43479 0.353652 0.17402 0.10932
H_ H_ 0.190698 0.352577 0.309511 0.10932
H_ H_ 0.438149 0.353736 0.309773 0.10932
H_ H_ 0.198801 0.431532 0.175305 0.10932
H_ H_ 0.461571 0.417828 0.176265 0.10932
H_ H_ 0.197872 0.0748158 0.31014 0.10932
H_ H_ 0.475349 0.0933663 0.316411 0.10932
H_ H_ 0.205419 0.161862 0.184376 0.10932
H_ H_ 0.431027 0.140198 0.182051 0.10932
H_ H_ 0.175108 0.144551 0.309359 0.10932
H_ H_ 0.445157 0.155854 0.313547 0.10932
H_ H_ 0.238195 0.102964 0.19119 0.10932
H_ H_ 0.460214 0.0747998 0.184044 0.10932
H_ H_ 0.0377593 0.0788146 0.188997 0.10932
H_ H_ 0.297786 0.077718 0.182369 0.10932
H_ H_ 0.0655064 0.151046 0.322292 0.10932
H_ H_ 0.313805 0.155138 0.315058 0.10932
H_ H_ 0.0619664 0.144829 0.185327 0.10932
H_ H_ 0.322321 0.142261 0.180363 0.10932
H_ H_ 0.0319605 0.0867342 0.325564 0.10932
H_ H_ 0.283163 0.0890295 0.313325 0.10932
H_ H_ 0.132683 0.183195 0.354144 0.10932
H_ H_ 0.398041 0.320141 0.363736 0.10932
H_ H_ 0.125895 0.314869 0.353564 0.10932
H_ H_ 0.375508 0.194367 0.349079 0.10932
H_ H_ 0.13256 0.314395 0.432679 0.10932
H_ H_ 0.369885 0.189499 0.428968 0.10932
H_ H_ 0.135523 0.182919 0.433826 0.10932
H_ H_ 0.398765 0.314282 0.440933 0.10932
H_ H_ 0.121665 0.316428 0.141683 0.10932
H_ H_ 0.360951 0.184873 0.142426 0.10932
H_ H_ 0.112021 0.189663 0.129416 0.10932
H_ H_ 0.39269 0.308047 0.130841 0.10932
H_ H_ 0.107333 0.19312 0.0557247 0.10932
H_ H_ 0.383899 0.30415 0.0561777 0.10932
H_ H_ 0.125305 0.323881 0.0646383 0.10932
H_ H_ 0.353016 0.181438 0.065633 0.10932
C_ C_ 0.0655372 0.350583 0.246914 -0.02249
C_ C_ 0.320757 0.35295 0.244817 -0.02249
C_ C_ 0.0153493 0.463624 0.237195 -0.02249
C_ C_ 0.264221 0.464048 0.242234 -0.02249
C_ C_ 0.0330697 0.397375 0.207592 -0.11473
C_ C_ 0.29215 0.407973 0.207273 -0.11473
C_ C_ 0.0622087 0.375922 0.283328 -0.11473
C_ C_ 0.306745 0.365748 0.281332 -0.11473
C_ C_ 0.0513834 0.362285 0.209139 -0.11473
C_ C_ 0.310083 0.372067 0.207964 -0.11473
C_ C_ 0.0324355 0.424231 0.242348 -0.02249
C_ C_ 0.280572 0.423893 0.243955 -0.02249
C_ C_ 0.0853296 0.311442 0.24779 0.6875
C_ C_ 0.343842 0.317218 0.246502 0.6875
C_ C_ 0.0472407 0.412356 0.28011 -0.11473
C_ C_ 0.288045 0.400911 0.282544 -0.11473
C_ C_ 0.180522 0.350965 0.240692 -0.02249
C_ C_ 0.436493 0.348063 0.241292 -0.02249
C_ C_ 0.231508 0.466416 0.23898 -0.02249
C_ C_ 0.48366 0.464748 0.242997 -0.02249
C_ C_ 0.210091 0.403512 0.277445 -0.11473
C_ C_ 0.459445 0.404752 0.281543 -0.11473
C_ C_ 0.181141 0.376181 0.204515 -0.11473
C_ C_ 0.441696 0.368401 0.204787 -0.11473
C_ C_ 0.193117 0.36747 0.278608 -0.11473
C_ C_ 0.44437 0.36637 0.278839 -0.11473
C_ C_ 0.213467 0.427012 0.240914 -0.02249
C_ C_ 0.467754 0.423894 0.243243 -0.02249
C_ C_ 0.160528 0.313447 0.242128 0.6875
C_ C_ 0.423258 0.305907 0.241445 0.6875
C_ C_ 0.19885 0.412473 0.20434 -0.11473
C_ C_ 0.458837 0.404318 0.205771 -0.11473
C_ C_ 0.186694 0.156492 0.245013 -0.02249
C_ C_ 0.435654 0.151967 0.24802 -0.02249
C_ C_ 0.237965 0.0415853 0.250688 -0.02249
C_ C_ 0.483087 0.0358977 0.250539 -0.02249
C_ C_ 0.201496 0.0958388 0.283398 -0.11473
C_ C_ 0.464327 0.10183 0.287664 -0.11473
C_ C_ 0.204094 0.142914 0.212025 -0.11473
C_ C_ 0.439721 0.128122 0.212164 -0.11473
C_ C_ 0.18731 0.134342 0.282706 -0.11473
C_ C_ 0.449244 0.138635 0.285189 -0.11473
C_ C_ 0.220525 0.0830753 0.248414 -0.02249
C_ C_ 0.466813 0.0759498 0.251148 -0.02249
C_ C_ 0.163829 0.191822 0.242976 0.6875
C_ C_ 0.414764 0.188752 0.246632 0.6875
C_ C_ 0.223628 0.109468 0.215646 -0.11473
C_ C_ 0.454477 0.0907514 0.212574 -0.11473
C_ C_ 0.065815 0.153527 0.253346 -0.02249
C_ C_ 0.320717 0.15377 0.247757 -0.02249
C_ C_ 0.0168307 0.0365705 0.259997 -0.02249
C_ C_ 0.270302 0.0399734 0.247003 -0.02249
C_ C_ 0.0408612 0.0948625 0.217671 -0.11473
C_ C_ 0.299118 0.0952655 0.209729 -0.11473
C_ C_ 0.0574904 0.136141 0.292256 -0.11473
C_ C_ 0.308925 0.139278 0.284907 -0.11473
C_ C_ 0.0572371 0.132536 0.216112 -0.11473
C_ C_ 0.313969 0.132556 0.209875 -0.11473
C_ C_ 0.0335619 0.0767031 0.257463 -0.02249
C_ C_ 0.287115 0.0793597 0.247984 -0.02249
C_ C_ 0.0860937 0.190991 0.25171 0.6875
C_ C_ 0.337671 0.195644 0.247765 0.6875
C_ C_ 0.0397298 0.0984683 0.294949 -0.11473
C_ C_ 0.291771 0.103671 0.285061 -0.11473
C_ C_ 0.131218 0.21231 0.370282 0.17695
C_ C_ 0.392854 0.290749 0.37593 0.17695
C_ C_ 0.130729 0.285368 0.370723 0.17695
C_ C_ 0.378106 0.220278 0.369534 0.17695
C_ C_ 0.134997 0.285687 0.415368 -0.11473
C_ C_ 0.377629 0.217364 0.414412 -0.11473
C_ C_ 0.134033 0.24866 0.437044 0.23465
C_ C_ 0.385026 0.25103 0.439358 0.23465
C_ C_ 0.134415 0.211762 0.414672 -0.11473
C_ C_ 0.392874 0.288759 0.419816 -0.11473
C_ C_ 0.121622 0.289391 0.122359 0.17695
C_ C_ 0.364706 0.212049 0.123151 0.17695
C_ C_ 0.110218 0.219634 0.116505 0.17695
C_ C_ 0.384156 0.278343 0.118316 0.17695
C_ C_ 0.111412 0.221212 0.0725544 -0.11473
C_ C_ 0.382208 0.275732 0.0748151 -0.11473
C_ C_ 0.118005 0.259736 0.0533461 0.23465
C_ C_ 0.374071 0.238271 0.0554833 0.23465
C_ C_ 0.123368 0.293214 0.0778308 -0.11473
C_ C_ 0.365437 0.206724 0.0804114 -0.11473
C_ C_ 0.0306927 0.501953 0.232286 0.05793
C_ C_ 0.28096 0.500808 0.243311 0.05793
C_ C_ 0.222078 0.0046182 0.256291 0.05793
C_ C_ 0.468801 0.997908 0.250237 0.05793
Br Br 0.0713701 0.498965 0.213615 -0.17191
Br Br 0.325459 0.499101 0.242959 -0.17191
Br Br 0.176918 0.0107767 0.25227 -0.17191
Br Br 0.424499 0.994547 0.254997 -0.17191
N_ N_ 0.131812 0.249432 0.348477 -0.272
N_ N_ 0.38759 0.256808 0.351007 -0.272
N_ N_ 0.139976 0.248786 0.481444 -0.12501
N_ N_ 0.376166 0.248848 0.483915 -0.12501
N_ N_ 0.118395 0.251889 0.140739 -0.272
N_ N_ 0.376844 0.24607 0.142069 -0.272
N_ N_ 0.118134 0.264648 0.00806553 -0.12501
N_ N_ 0.367724 0.236719 0.0109636 -0.12501
O_ O_ 0.0898401 0.292452 0.214449 -0.60745
O_ O_ 0.353042 0.30197 0.211759 -0.60745
O_ O_ 0.0958275 0.296344 0.282098 -0.60745
O_ O_ 0.351821 0.302402 0.2819 -0.60745
O_ O_ 0.157234 0.29538 0.277871 -0.60745
O_ O_ 0.414024 0.2909 0.275849 -0.60745
O_ O_ 0.148376 0.297673 0.208514 -0.60745
O_ O_ 0.414512 0.290371 0.206718 -0.60745
O_ O_ 0.149186 0.202776 0.274349 -0.60745
O_ O_ 0.408594 0.20634 0.281606 -0.60745
O_ O_ 0.158667 0.210246 0.208588 -0.60745
O_ O_ 0.405248 0.202234 0.211011 -0.60745
O_ O_ 0.0972479 0.201901 0.217035 -0.60745
O_ O_ 0.343147 0.214 0.213964 -0.60745
O_ O_ 0.0918616 0.211396 0.285053 -0.60745
O_ O_ 0.343804 0.214738 0.282329 -0.60745
Zn Zn 0.126378 0.251634 0.781671 0.9476
Zn Zn 0.373849 0.250711 0.784099 0.9476
Zn Zn 0.127098 0.245842 0.713026 0.9476
Zn Zn 0.370619 0.251391 0.715477 0.9476
H_ H_ 0.0175935 0.398348 0.68571 0.10932
H_ H_ 0.284396 0.422416 0.675084 0.10932
H_ H_ 0.0808933 0.363167 0.808711 0.10932
H_ H_ 0.309893 0.357422 0.811699 0.10932
H_ H_ 0.0515228 0.339378 0.681223 0.10932
H_ H_ 0.31547 0.358653 0.679129 0.10932
H_ H_ 0.0485323 0.424963 0.810845 0.10932
H_ H_ 0.291516 0.431142 0.808992 0.10932
H_ H_ 0.216416 0.418001 0.814768 0.10932
H_ H_ 0.455627 0.423526 0.81558 0.10932
H_ H_ 0.186516 0.348731 0.678878 0.10932
H_ H_ 0.441071 0.337659 0.684492 0.10932
H_ H_ 0.198002 0.349235 0.817318 0.10932
H_ H_ 0.434351 0.356283 0.81776 0.10932
H_ H_ 0.204683 0.421701 0.67915 0.10932
H_ H_ 0.465133 0.407467 0.6813 0.10932
H_ H_ 0.217621 0.0846384 0.81779 0.10932
H_ H_ 0.466497 0.078818 0.817795 0.10932
H_ H_ 0.197176 0.152486 0.684429 0.10932
H_ H_ 0.436459 0.150145 0.684621 0.10932
H_ H_ 0.183669 0.14461 0.818069 0.10932
H_ H_ 0.437784 0.144517 0.820212 0.10932
H_ H_ 0.225543 0.0891126 0.689401 0.10932
H_ H_ 0.459107 0.0787088 0.68192 0.10932
H_ H_ 0.0316395 0.0814528 0.6801 0.10932
H_ H_ 0.287084 0.077445 0.678369 0.10932
H_ H_ 0.0747542 0.142413 0.812567 0.10932
H_ H_ 0.312191 0.14875 0.811668 0.10932
H_ H_ 0.0701522 0.140141 0.679506 0.10932
H_ H_ 0.320299 0.1395 0.680488 0.10932
H_ H_ 0.0375051 0.0856904 0.816418 0.10932
H_ H_ 0.29055 0.0764294 0.814694 0.10932
H_ H_ 0.103774 0.302775 0.856638 0.10932
H_ H_ 0.374012 0.314311 0.847982 0.10932
H_ H_ 0.146899 0.185876 0.854321 0.10932
H_ H_ 0.375339 0.186219 0.866145 0.10932
H_ H_ 0.14493 0.178065 0.930535 0.10932
H_ H_ 0.369631 0.192328 0.939232 0.10932
H_ H_ 0.107617 0.303686 0.935878 0.10932
H_ H_ 0.381027 0.325216 0.928532 0.10932
H_ H_ 0.116242 0.180127 0.637357 0.10932
H_ H_ 0.384079 0.188294 0.640523 0.10932
H_ H_ 0.148517 0.303882 0.630879 0.10932
H_ H_ 0.373462 0.316967 0.646061 0.10932
H_ H_ 0.145289 0.302403 0.549736 0.10932
H_ H_ 0.377045 0.322652 0.566764 0.10932
H_ H_ 0.113051 0.176499 0.563024 0.10932
H_ H_ 0.393225 0.190863 0.565294 0.10932
C_ C_ 0.0702526 0.345859 0.745464 -0.02249
C_ C_ 0.313829 0.350231 0.744496 -0.02249
C_ C_ 0.0163334 0.460141 0.744075 -0.02249
C_ C_ 0.262828 0.463947 0.74265 -0.02249
C_ C_ 0.033388 0.392312 0.711329 -0.11473
C_ C_ 0.290186 0.408176 0.705188 -0.11473
C_ C_ 0.0660387 0.370161 0.783613 -0.11473
C_ C_ 0.30639 0.370882 0.782664 -0.11473
C_ C_ 0.0517289 0.357125 0.710188 -0.11473
C_ C_ 0.30487 0.369612 0.706446 -0.11473
C_ C_ 0.0327177 0.418906 0.74572 -0.02249
C_ C_ 0.28162 0.425958 0.742818 -0.02249
C_ C_ 0.0881639 0.307662 0.748277 0.6875
C_ C_ 0.332207 0.310749 0.745197 0.6875
C_ C_ 0.0487422 0.405621 0.78183 -0.11473
C_ C_ 0.28937 0.409437 0.781648 -0.11473
C_ C_ 0.186415 0.346089 0.747652 -0.02249
C_ C_ 0.435483 0.341578 0.751734 -0.02249
C_ C_ 0.23166 0.462653 0.747851 -0.02249
C_ C_ 0.483715 0.457969 0.749219 -0.02249
C_ C_ 0.211273 0.403324 0.784752 -0.11473
C_ C_ 0.457623 0.402412 0.788077 -0.11473
C_ C_ 0.191672 0.36439 0.70956 -0.11473
C_ C_ 0.445949 0.356594 0.713686 -0.11473
C_ C_ 0.196711 0.365358 0.786517 -0.11473
C_ C_ 0.444283 0.36296 0.789341 -0.11473
C_ C_ 0.216215 0.422283 0.746173 -0.02249
C_ C_ 0.464742 0.419397 0.748635 -0.02249
C_ C_ 0.166953 0.308104 0.749253 0.6875
C_ C_ 0.413121 0.309424 0.751108 0.6875
C_ C_ 0.204892 0.404022 0.708752 -0.11473
C_ C_ 0.458193 0.396476 0.71195 -0.11473
C_ C_ 0.184542 0.150244 0.750568 -0.02249
C_ C_ 0.433156 0.15142 0.751229 -0.02249
C_ C_ 0.235104 0.0376008 0.751985 -0.02249
C_ C_ 0.485547 0.0356601 0.750233 -0.02249
C_ C_ 0.20904 0.0948526 0.789925 -0.11473
C_ C_ 0.462696 0.095961 0.789429 -0.11473
C_ C_ 0.195768 0.13264 0.713162 -0.11473
C_ C_ 0.441178 0.132304 0.713541 -0.11473
C_ C_ 0.193171 0.132872 0.788315 -0.11473
C_ C_ 0.443842 0.13116 0.790614 -0.11473
C_ C_ 0.218539 0.0775788 0.752627 -0.02249
C_ C_ 0.467416 0.074928 0.749979 -0.02249
C_ C_ 0.164696 0.187544 0.747763 0.6875
C_ C_ 0.411413 0.187581 0.748849 0.6875
C_ C_ 0.214677 0.100406 0.716235 -0.11473
C_ C_ 0.456346 0.0937605 0.712839 -0.11473
C_ C_ 0.0724996 0.148869 0.746549 -0.02249
C_ C_ 0.31389 0.152983 0.746281 -0.02249
C_ C_ 0.0184553 0.0364796 0.748892 -0.02249
C_ C_ 0.266301 0.0347909 0.747051 -0.02249
C_ C_ 0.0440292 0.0944932 0.70982 -0.11473
C_ C_ 0.293176 0.0922208 0.708531 -0.11473
C_ C_ 0.0636999 0.130854 0.783836 -0.11473
C_ C_ 0.306857 0.132287 0.783985 -0.11473
C_ C_ 0.0622686 0.1301 0.708995 -0.11473
C_ C_ 0.308932 0.130505 0.708805 -0.11473
C_ C_ 0.0362767 0.0772374 0.747426 -0.02249
C_ C_ 0.285055 0.0731816 0.745336 -0.02249
C_ C_ 0.0889314 0.187947 0.746634 0.6875
C_ C_ 0.333278 0.189941 0.745249 0.6875
C_ C_ 0.0444631 0.0972593 0.784993 -0.11473
C_ C_ 0.293576 0.0928216 0.784072 -0.11473
C_ C_ 0.116165 0.27813 0.873583 0.17695
C_ C_ 0.372694 0.289555 0.87166 0.17695
C_ C_ 0.138493 0.211377 0.872245 0.17695
C_ C_ 0.371544 0.215986 0.87878 0.17695
C_ C_ 0.135784 0.206304 0.915301 -0.11473
C_ C_ 0.372659 0.22053 0.92118 -0.11473
C_ C_ 0.123958 0.240341 0.938536 0.23465
C_ C_ 0.372902 0.259933 0.941518 0.23465
C_ C_ 0.116959 0.27769 0.918511 -0.11473
C_ C_ 0.377685 0.29482 0.915412 -0.11473
C_ C_ 0.121373 0.207173 0.61869 0.17695
C_ C_ 0.382716 0.21664 0.623739 0.17695
C_ C_ 0.139234 0.276799 0.615184 0.17695
C_ C_ 0.373931 0.289439 0.625489 0.17695
C_ C_ 0.139087 0.275705 0.570181 -0.11473
C_ C_ 0.379725 0.292566 0.581346 -0.11473
C_ C_ 0.128589 0.239041 0.551121 0.23465
C_ C_ 0.386287 0.257484 0.557535 0.23465
C_ C_ 0.120943 0.205836 0.575563 -0.11473
C_ C_ 0.38842 0.218736 0.579588 -0.11473
C_ C_ 0.0307666 0.497597 0.74128 0.05793
C_ C_ 0.278125 0.502951 0.74293 0.05793
C_ C_ 0.21818 0.0007999999999999119 0.746837 0.05793
C_ C_ 0.469529 0.997993 0.753745 0.05793
Br Br 0.0743692 0.497496 0.748989 -0.17191
Br Br 0.320922 0.504596 0.731048 -0.17191
Br Br 0.174248 0.00423513 0.747953 -0.17191
Br Br 0.424739 1.000320101 0.752902 -0.17191
N_ N_ 0.125684 0.244469 0.851406 -0.272
N_ N_ 0.370572 0.250533 0.854172 -0.272
N_ N_ 0.122665 0.235402 0.9829 -0.12501
N_ N_ 0.375835 0.263815 0.985998 -0.12501
N_ N_ 0.128504 0.243716 0.639704 -0.272
N_ N_ 0.372305 0.250769 0.645124 -0.272
N_ N_ 0.120898 0.238083 0.507032 -0.12501
N_ N_ 0.393797 0.260394 0.51419 -0.12501
O_ O_ 0.0971816 0.288301 0.71685 -0.60745
O_ O_ 0.3423 0.294378 0.71122 -0.60745
O_ O_ 0.0926494 0.290365 0.782494 -0.60745
O_ O_ 0.341915 0.295501 0.779512 -0.60745
O_ O_ 0.15612 0.296311 0.782976 -0.60745
O_ O_ 0.404093 0.296189 0.785638 -0.60745
O_ O_ 0.15766 0.28948 0.715238 -0.60745
O_ O_ 0.402321 0.292559 0.717118 -0.60745
O_ O_ 0.161178 0.208618 0.780094 -0.60745
O_ O_ 0.403963 0.204044 0.783747 -0.60745
O_ O_ 0.158518 0.202938 0.713301 -0.60745
O_ O_ 0.402644 0.203872 0.714472 -0.60745
O_ O_ 0.0955748 0.203017 0.712264 -0.60745
O_ O_ 0.33734 0.2091 0.709158 -0.60745
O_ O_ 0.0982359 0.203287 0.781713 -0.60745
O_ O_ 0.34369 0.20489 0.779866 -0.60745
Zn Zn 0.125656 0.75343 0.285468 0.9476
Zn Zn 0.37533 0.752752 0.291335 0.9476
Zn Zn 0.123821 0.755132 0.216029 0.9476
Zn Zn 0.376662 0.753298 0.220715 0.9476
H_ H_ 0.0420044 0.927335 0.189872 0.10932
H_ H_ 0.28103 0.908915 0.188274 0.10932
H_ H_ 0.0603128 0.847685 0.322173 0.10932
H_ H_ 0.316942 0.857007 0.325478 0.10932
H_ H_ 0.0686502 0.860282 0.187506 0.10932
H_ H_ 0.304067 0.842973 0.193235 0.10932
H_ H_ 0.0313026 0.910498 0.323058 0.10932
H_ H_ 0.286461 0.922405 0.319777 0.10932
H_ H_ 0.224762 0.909517 0.318773 0.10932
H_ H_ 0.46786 0.917933 0.313357 0.10932
H_ H_ 0.178733 0.86399 0.18362 0.10932
H_ H_ 0.436771 0.846151 0.184293 0.10932
H_ H_ 0.183053 0.860983 0.321404 0.10932
H_ H_ 0.439334 0.856414 0.32145 0.10932
H_ H_ 0.212246 0.924348 0.186518 0.10932
H_ H_ 0.46648 0.910995 0.18011 0.10932
H_ H_ 0.199359 0.566797 0.300823 0.10932
H_ H_ 0.44952 0.567042 0.308475 0.10932
H_ H_ 0.205732 0.672549 0.191355 0.10932
H_ H_ 0.446121 0.66063 0.184351 0.10932
H_ H_ 0.173277 0.63309 0.30858 0.10932
H_ H_ 0.423385 0.635496 0.309704 0.10932
H_ H_ 0.232197 0.60432 0.182791 0.10932
H_ H_ 0.475588 0.594025 0.181839 0.10932
H_ H_ 0.0228473 0.597578 0.178977 0.10932
H_ H_ 0.284716 0.591787 0.181901 0.10932
H_ H_ 0.070342 0.641667 0.312335 0.10932
H_ H_ 0.318535 0.640702 0.320858 0.10932
H_ H_ 0.060146 0.658422 0.179485 0.10932
H_ H_ 0.309559 0.656386 0.185084 0.10932
H_ H_ 0.0514599 0.574719 0.308635 0.10932
H_ H_ 0.283854 0.581109 0.31587 0.10932
H_ H_ 0.123022 0.816759 0.35557 0.10932
H_ H_ 0.370613 0.817482 0.372776 0.10932
H_ H_ 0.130534 0.685574 0.362075 0.10932
H_ H_ 0.384338 0.691785 0.358247 0.10932
H_ H_ 0.133416 0.690997 0.440494 0.10932
H_ H_ 0.386011 0.682388 0.438956 0.10932
H_ H_ 0.126562 0.824552 0.434774 0.10932
H_ H_ 0.372015 0.814688 0.448538 0.10932
H_ H_ 0.135356 0.695125 0.140176 0.10932
H_ H_ 0.374819 0.813712 0.15026 0.10932
H_ H_ 0.108166 0.820442 0.140453 0.10932
H_ H_ 0.376142 0.686765 0.138306 0.10932
H_ H_ 0.106939 0.821962 0.0603045 0.10932
H_ H_ 0.376243 0.691557 0.0578638 0.10932
H_ H_ 0.129287 0.693869 0.057365 0.10932
H_ H_ 0.374524 0.820283 0.0680982 0.10932
C_ C_ 0.0636239 0.849581 0.255085 -0.02249
C_ C_ 0.31332 0.844218 0.259291 -0.02249
C_ C_ 0.0157379 0.961747 0.255667 -0.02249
C_ C_ 0.26703 0.963679 0.24953 -0.02249
C_ C_ 0.0443385 0.909221 0.218302 -0.11473
C_ C_ 0.2884 0.898724 0.218813 -0.11473
C_ C_ 0.0530809 0.86204 0.29312 -0.11473
C_ C_ 0.306483 0.868551 0.294763 -0.11473
C_ C_ 0.0606249 0.872497 0.217768 -0.11473
C_ C_ 0.30007 0.859207 0.221423 -0.11473
C_ C_ 0.0320402 0.922607 0.256013 -0.02249
C_ C_ 0.283686 0.921909 0.252561 -0.02249
C_ C_ 0.0837322 0.811166 0.25259 0.6875
C_ C_ 0.334275 0.807641 0.260753 0.6875
C_ C_ 0.0365405 0.898705 0.293414 -0.11473
C_ C_ 0.292658 0.906369 0.29167 -0.11473
C_ C_ 0.180463 0.853764 0.251129 -0.02249
C_ C_ 0.437925 0.843334 0.253996 -0.02249
C_ C_ 0.235835 0.963853 0.255515 -0.02249
C_ C_ 0.484211 0.96126 0.244464 -0.02249
C_ C_ 0.21063 0.906295 0.291204 -0.11473
C_ C_ 0.460528 0.903426 0.285479 -0.11473
C_ C_ 0.184573 0.875961 0.214096 -0.11473
C_ C_ 0.444503 0.862359 0.214239 -0.11473
C_ C_ 0.192078 0.870799 0.290095 -0.11473
C_ C_ 0.446623 0.864996 0.289813 -0.11473
C_ C_ 0.21764 0.925404 0.252559 -0.02249
C_ C_ 0.467516 0.921634 0.246355 -0.02249
C_ C_ 0.162263 0.816115 0.251414 0.6875
C_ C_ 0.420659 0.802632 0.255139 0.6875
C_ C_ 0.204206 0.911339 0.21488 -0.11473
C_ C_ 0.460533 0.899419 0.210973 -0.11473
C_ C_ 0.183993 0.656463 0.247394 -0.02249
C_ C_ 0.437134 0.657013 0.25059 -0.02249
C_ C_ 0.234381 0.543202 0.239025 -0.02249
C_ C_ 0.48421 0.539932 0.245144 -0.02249
C_ C_ 0.198716 0.589662 0.275082 -0.11473
C_ C_ 0.450748 0.589298 0.281898 -0.11473
C_ C_ 0.201111 0.647665 0.212139 -0.11473
C_ C_ 0.452248 0.643982 0.214026 -0.11473
C_ C_ 0.183816 0.628052 0.279598 -0.11473
C_ C_ 0.436615 0.628025 0.284329 -0.11473
C_ C_ 0.217154 0.582579 0.2414 -0.02249
C_ C_ 0.467974 0.578681 0.24642 -0.02249
C_ C_ 0.165131 0.695402 0.248188 0.6875
C_ C_ 0.416847 0.695179 0.250443 0.6875
C_ C_ 0.218555 0.611649 0.209783 -0.11473
C_ C_ 0.466151 0.604784 0.210297 -0.11473
C_ C_ 0.0675831 0.655364 0.246482 -0.02249
C_ C_ 0.319061 0.654012 0.254385 -0.02249
C_ C_ 0.0162901 0.540055 0.237764 -0.02249
C_ C_ 0.265896 0.540501 0.241287 -0.02249
C_ C_ 0.0386235 0.603503 0.205602 -0.11473
C_ C_ 0.293884 0.601311 0.212323 -0.11473
C_ C_ 0.0588769 0.634704 0.283032 -0.11473
C_ C_ 0.31012 0.632055 0.290392 -0.11473
C_ C_ 0.0562915 0.640744 0.207678 -0.11473
C_ C_ 0.308811 0.638163 0.21456 -0.11473
C_ C_ 0.0344975 0.580206 0.241744 -0.02249
C_ C_ 0.28263 0.580559 0.247251 -0.02249
C_ C_ 0.0859727 0.693899 0.247673 0.6875
C_ C_ 0.338634 0.692889 0.256379 0.6875
C_ C_ 0.0448451 0.595373 0.280691 -0.11473
C_ C_ 0.292297 0.594527 0.28687 -0.11473
C_ C_ 0.125716 0.789292 0.373484 0.17695
C_ C_ 0.375367 0.789202 0.386989 0.17695
C_ C_ 0.129889 0.715939 0.377178 0.17695
C_ C_ 0.384507 0.7165 0.380077 0.17695
C_ C_ 0.130483 0.719625 0.422379 -0.11473
C_ C_ 0.382448 0.711738 0.423449 -0.11473
C_ C_ 0.125887 0.758464 0.442011 0.23465
C_ C_ 0.378897 0.746953 0.449058 0.23465
C_ C_ 0.128882 0.794872 0.418243 -0.11473
C_ C_ 0.373816 0.785321 0.430249 -0.11473
C_ C_ 0.126455 0.721959 0.120623 0.17695
C_ C_ 0.375515 0.788427 0.128882 0.17695
C_ C_ 0.113486 0.791188 0.123281 0.17695
C_ C_ 0.371689 0.71633 0.122268 0.17695
C_ C_ 0.114462 0.79373 0.0782674 -0.11473
C_ C_ 0.373558 0.719419 0.0784831 -0.11473
C_ C_ 0.119157 0.758677 0.0544518 0.23465
C_ C_ 0.371206 0.758118 0.0601667 0.23465
C_ C_ 0.125524 0.721614 0.0753286 -0.11473
C_ C_ 0.374518 0.792507 0.0850071 -0.11473
C_ C_ 0.0327672 0.999249 0.259267 0.05793
C_ C_ 0.2843 1.00108786 0.245496 0.05793
C_ C_ 0.216916 0.505267 0.240616 0.05793
C_ C_ 0.466441 0.501969 0.243298 0.05793
Br Br 0.0760405 0.00152622 0.261984 -0.17191
Br Br 0.326714 1.00024 0.249307 -0.17191
Br Br 0.174621 0.509177 0.226766 -0.17191
Br Br 0.425401 0.50258 0.2274 -0.17191
N_ N_ 0.128332 0.751438 0.355693 -0.272
N_ N_ 0.381001 0.754145 0.362273 -0.272
N_ N_ 0.130163 0.76131 0.485269 -0.12501
N_ N_ 0.37922 0.739564 0.493347 -0.12501
N_ N_ 0.120205 0.755626 0.143348 -0.272
N_ N_ 0.371693 0.751703 0.146672 -0.272
N_ N_ 0.117815 0.763018 0.00866751 -0.12501
N_ N_ 0.372823 0.761893 0.01601 -0.12501
O_ O_ 0.0891497 0.793349 0.217888 -0.60745
O_ O_ 0.344542 0.793754 0.227306 -0.60745
O_ O_ 0.0957767 0.796153 0.286073 -0.60745
O_ O_ 0.344529 0.795831 0.294884 -0.60745
O_ O_ 0.155743 0.799274 0.285735 -0.60745
O_ O_ 0.408174 0.792373 0.290528 -0.60745
O_ O_ 0.15338 0.799038 0.217513 -0.60745
O_ O_ 0.408227 0.791919 0.219796 -0.60745
O_ O_ 0.153132 0.707072 0.281719 -0.60745
O_ O_ 0.405271 0.70646 0.284789 -0.60745
O_ O_ 0.158504 0.712014 0.213553 -0.60745
O_ O_ 0.405762 0.709416 0.216025 -0.60745
O_ O_ 0.0962433 0.70983 0.213992 -0.60745
O_ O_ 0.343497 0.712852 0.222945 -0.60745
O_ O_ 0.0925531 0.712963 0.282144 -0.60745
O_ O_ 0.34735 0.707354 0.291864 -0.60745
Zn Zn 0.12362 0.743747 0.780538 0.9476
Zn Zn 0.374729 0.746418 0.789385 0.9476
Zn Zn 0.123008 0.74687 0.712581 0.9476
Zn Zn 0.375031 0.747214 0.718713 0.9476
H_ H_ 0.03749 0.912814 0.683138 0.10932
H_ H_ 0.292514 0.919173 0.684253 0.10932
H_ H_ 0.0545089 0.838511 0.821334 0.10932
H_ H_ 0.306179 0.847861 0.821012 0.10932
H_ H_ 0.0567673 0.845342 0.686504 0.10932
H_ H_ 0.320025 0.856134 0.684652 0.10932
H_ H_ 0.0313456 0.906642 0.819673 0.10932
H_ H_ 0.280566 0.910757 0.813446 0.10932
H_ H_ 0.204894 0.919585 0.814535 0.10932
H_ H_ 0.453113 0.922969 0.823981 0.10932
H_ H_ 0.184527 0.844259 0.680368 0.10932
H_ H_ 0.436156 0.847664 0.68763 0.10932
H_ H_ 0.172228 0.861202 0.815186 0.10932
H_ H_ 0.415337 0.870741 0.818391 0.10932
H_ H_ 0.215564 0.909263 0.68233 0.10932
H_ H_ 0.465038 0.910564 0.686941 0.10932
H_ H_ 0.224045 0.594417 0.814507 0.10932
H_ H_ 0.457992 0.570254 0.815505 0.10932
H_ H_ 0.172682 0.633701 0.681566 0.10932
H_ H_ 0.454193 0.660429 0.692526 0.10932
H_ H_ 0.200311 0.66469 0.808598 0.10932
H_ H_ 0.427899 0.632725 0.815879 0.10932
H_ H_ 0.201354 0.568103 0.688107 0.10932
H_ H_ 0.478591 0.590634 0.683277 0.10932
H_ H_ 0.0380493 0.576695 0.67843 0.10932
H_ H_ 0.274939 0.591379 0.68467 0.10932
H_ H_ 0.0558403 0.647745 0.815195 0.10932
H_ H_ 0.316346 0.644567 0.819851 0.10932
H_ H_ 0.0651949 0.642269 0.677596 0.10932
H_ H_ 0.299614 0.658387 0.689608 0.10932
H_ H_ 0.0265918 0.580148 0.809977 0.10932
H_ H_ 0.287606 0.579003 0.818958 0.10932
H_ H_ 0.110256 0.803697 0.858648 0.10932
H_ H_ 0.388934 0.804868 0.869067 0.10932
H_ H_ 0.135494 0.679824 0.856065 0.10932
H_ H_ 0.36932 0.677798 0.860892 0.10932
H_ H_ 0.146477 0.678403 0.930593 0.10932
H_ H_ 0.363627 0.675539 0.941254 0.10932
H_ H_ 0.11793 0.807359 0.931634 0.10932
H_ H_ 0.398325 0.798509 0.943731 0.10932
H_ H_ 0.108954 0.684235 0.641956 0.10932
H_ H_ 0.380056 0.81815 0.65274 0.10932
H_ H_ 0.131754 0.810351 0.633476 0.10932
H_ H_ 0.372548 0.68746 0.636859 0.10932
H_ H_ 0.126303 0.809158 0.555894 0.10932
H_ H_ 0.370302 0.694968 0.560331 0.10932
H_ H_ 0.106807 0.679999 0.563238 0.10932
H_ H_ 0.379844 0.826332 0.572348 0.10932
C_ C_ 0.0606415 0.838525 0.753818 -0.02249
C_ C_ 0.310258 0.838798 0.751894 -0.02249
C_ C_ 0.0165479 0.958589 0.754118 -0.02249
C_ C_ 0.264222 0.958179 0.747162 -0.02249
C_ C_ 0.0392291 0.897227 0.714925 -0.11473
C_ C_ 0.29361 0.900511 0.712878 -0.11473
C_ C_ 0.0514287 0.855774 0.791227 -0.11473
C_ C_ 0.299763 0.85734 0.789431 -0.11473
C_ C_ 0.0522285 0.859099 0.715931 -0.11473
C_ C_ 0.309328 0.862956 0.713948 -0.11473
C_ C_ 0.0333578 0.918265 0.753162 -0.02249
C_ C_ 0.281101 0.917153 0.748519 -0.02249
C_ C_ 0.0818866 0.801812 0.751677 0.6875
C_ C_ 0.33283 0.803064 0.754707 0.6875
C_ C_ 0.0366991 0.894237 0.790489 -0.11473
C_ C_ 0.284971 0.895669 0.785744 -0.11473
C_ C_ 0.17802 0.846915 0.747698 -0.02249
C_ C_ 0.429806 0.848842 0.756028 -0.02249
C_ C_ 0.231989 0.960302 0.744343 -0.02249
C_ C_ 0.484701 0.958603 0.753911 -0.02249
C_ C_ 0.201222 0.904175 0.784735 -0.11473
C_ C_ 0.45491 0.902486 0.797165 -0.11473
C_ C_ 0.191172 0.859358 0.710377 -0.11473
C_ C_ 0.443419 0.862784 0.71913 -0.11473
C_ C_ 0.183554 0.868856 0.784875 -0.11473
C_ C_ 0.433474 0.870379 0.794379 -0.11473
C_ C_ 0.21165 0.922304 0.747378 -0.02249
C_ C_ 0.465797 0.919305 0.756246 -0.02249
C_ C_ 0.160843 0.806892 0.747784 0.6875
C_ C_ 0.413076 0.809894 0.756528 0.6875
C_ C_ 0.203777 0.900028 0.709798 -0.11473
C_ C_ 0.45931 0.897525 0.717734 -0.11473
C_ C_ 0.182616 0.652061 0.745088 -0.02249
C_ C_ 0.436937 0.65167 0.753875 -0.02249
C_ C_ 0.230229 0.538084 0.752483 -0.02249
C_ C_ 0.48471 0.532492 0.752307 -0.02249
C_ C_ 0.21413 0.604332 0.785402 -0.11473
C_ C_ 0.454173 0.586741 0.786953 -0.11473
C_ C_ 0.183048 0.624849 0.710224 -0.11473
C_ C_ 0.453775 0.640164 0.71796 -0.11473
C_ C_ 0.199215 0.642508 0.782654 -0.11473
C_ C_ 0.437312 0.622852 0.787924 -0.11473
C_ C_ 0.214334 0.57774 0.749403 -0.02249
C_ C_ 0.468593 0.574559 0.75034 -0.02249
C_ C_ 0.163909 0.69117 0.743421 0.6875
C_ C_ 0.415389 0.687004 0.753583 0.6875
C_ C_ 0.19685 0.586501 0.713738 -0.11473
C_ C_ 0.467622 0.60021 0.714329 -0.11473
C_ C_ 0.0657296 0.646309 0.748036 -0.02249
C_ C_ 0.314894 0.652036 0.752758 -0.02249
C_ C_ 0.013783 0.535458 0.74305 -0.02249
C_ C_ 0.262213 0.539598 0.750225 -0.02249
C_ C_ 0.0437617 0.590419 0.70786 -0.11473
C_ C_ 0.286128 0.599304 0.712641 -0.11473
C_ C_ 0.0543452 0.628619 0.784367 -0.11473
C_ C_ 0.308107 0.631993 0.789987 -0.11473
C_ C_ 0.0620427 0.626986 0.708531 -0.11473
C_ C_ 0.301486 0.637358 0.715528 -0.11473
C_ C_ 0.0322911 0.574334 0.744709 -0.02249
C_ C_ 0.278951 0.580182 0.750371 -0.02249
C_ C_ 0.0849752 0.6846 0.747181 0.6875
C_ C_ 0.333896 0.689951 0.754432 0.6875
C_ C_ 0.0395667 0.591118 0.783344 -0.11473
C_ C_ 0.289592 0.595887 0.789983 -0.11473
C_ C_ 0.115569 0.776285 0.875346 0.17695
C_ C_ 0.386055 0.774945 0.883997 0.17695
C_ C_ 0.1318 0.706597 0.874904 0.17695
C_ C_ 0.370216 0.705351 0.8807 0.17695
C_ C_ 0.135471 0.70651 0.917487 -0.11473
C_ C_ 0.371123 0.702168 0.924795 -0.11473
C_ C_ 0.128316 0.740376 0.941441 0.23465
C_ C_ 0.382295 0.735748 0.948853 0.23465
C_ C_ 0.118711 0.776891 0.917973 -0.11473
C_ C_ 0.388874 0.771826 0.928103 -0.11473
C_ C_ 0.1141 0.711158 0.624135 0.17695
C_ C_ 0.376925 0.791436 0.631966 0.17695
C_ C_ 0.126757 0.78104 0.618204 0.17695
C_ C_ 0.376953 0.718394 0.623094 0.17695
C_ C_ 0.121162 0.781068 0.573568 -0.11473
C_ C_ 0.373052 0.722677 0.579192 -0.11473
C_ C_ 0.11762 0.743482 0.554719 0.23465
C_ C_ 0.375561 0.761801 0.561572 0.23465
C_ C_ 0.109239 0.70879 0.579676 -0.11473
C_ C_ 0.373905 0.796468 0.588158 -0.11473
C_ C_ 0.0335337 -0.002314999999999956 0.75204 0.05793
C_ C_ 0.281474 -0.004526999999999948 0.748224 0.05793
C_ C_ 0.215172 0.499589 0.750331 0.05793
C_ C_ 0.469062 0.495631 0.745377 0.05793
Br Br 0.0758865 -0.0034039999999999626 0.761691 -0.17191
Br Br 0.323827 -0.006333000000000033 0.753371 -0.17191
Br Br 0.172754 0.498776 0.764277 -0.17191
Br Br 0.427773 0.495141 0.727557 -0.17191
N_ N_ 0.125754 0.742771 0.853297 -0.272
N_ N_ 0.375315 0.742339 0.861024 -0.272
N_ N_ 0.132102 0.739036 0.985161 -0.12501
N_ N_ 0.384631 0.733773 0.993422 -0.12501
N_ N_ 0.121279 0.747523 0.642509 -0.272
N_ N_ 0.376914 0.752261 0.648608 -0.272
N_ N_ 0.114807 0.740057 0.510444 -0.12501
N_ N_ 0.376334 0.768435 0.518504 -0.12501
O_ O_ 0.0904094 0.788339 0.716307 -0.60745
O_ O_ 0.343928 0.789299 0.721228 -0.60745
O_ O_ 0.0900764 0.783342 0.784733 -0.60745
O_ O_ 0.343405 0.791394 0.790778 -0.60745
O_ O_ 0.14795 0.794382 0.781164 -0.60745
O_ O_ 0.405989 0.792257 0.79094 -0.60745
O_ O_ 0.152049 0.791089 0.714233 -0.60745
O_ O_ 0.406204 0.791948 0.721573 -0.60745
O_ O_ 0.15643 0.706756 0.778853 -0.60745
O_ O_ 0.406332 0.700735 0.788571 -0.60745
O_ O_ 0.152432 0.703677 0.708665 -0.60745
O_ O_ 0.405754 0.70175 0.718993 -0.60745
O_ O_ 0.0937255 0.700547 0.713484 -0.60745
O_ O_ 0.341692 0.707022 0.72056 -0.60745
O_ O_ 0.0963557 0.695633 0.782221 -0.60745
O_ O_ 0.34373 0.701053 0.790123 -0.60745
Zn Zn 0.62033 0.251934 0.284227 0.9476
Zn Zn 0.876792 0.252983 0.284215 0.9476
Zn Zn 0.623628 0.253641 0.215716 0.9476
Zn Zn 0.876153 0.253832 0.215507 0.9476
H_ H_ 0.529912 0.415716 0.180504 0.10932
H_ H_ 0.798589 0.434141 0.193022 0.10932
H_ H_ 0.563012 0.357513 0.31792 0.10932
H_ H_ 0.796002 0.336584 0.312263 0.10932
H_ H_ 0.550814 0.342366 0.184518 0.10932
H_ H_ 0.834633 0.375699 0.197492 0.10932
H_ H_ 0.53805 0.424191 0.315296 0.10932
H_ H_ 0.767415 0.407322 0.315058 0.10932
H_ H_ 0.693142 0.432083 0.310561 0.10932
H_ H_ 0.970095 0.418817 0.320866 0.10932
H_ H_ 0.707943 0.33213 0.19512 0.10932
H_ H_ 0.943639 0.350273 0.187615 0.10932
H_ H_ 0.662035 0.367998 0.308469 0.10932
H_ H_ 0.949635 0.34972 0.320529 0.10932
H_ H_ 0.733981 0.400334 0.195216 0.10932
H_ H_ 0.96659 0.418793 0.185091 0.10932
H_ H_ 0.701119 0.0822362 0.320803 0.10932
H_ H_ 0.976227 0.0910575 0.316993 0.10932
H_ H_ 0.688665 0.150098 0.185707 0.10932
H_ H_ 0.931763 0.140352 0.181621 0.10932
H_ H_ 0.675337 0.145063 0.321675 0.10932
H_ H_ 0.952672 0.159536 0.311712 0.10932
H_ H_ 0.735039 0.108884 0.19695 0.10932
H_ H_ 0.960539 0.0738015 0.186541 0.10932
H_ H_ 0.544121 0.0764306 0.18819 0.10932
H_ H_ 0.791251 0.0771546 0.186388 0.10932
H_ H_ 0.56772 0.143041 0.321585 0.10932
H_ H_ 0.80558 0.159644 0.313816 0.10932
H_ H_ 0.566181 0.146052 0.186835 0.10932
H_ H_ 0.818254 0.141619 0.18196 0.10932
H_ H_ 0.533187 0.0844198 0.321898 0.10932
H_ H_ 0.782177 0.0941611 0.317814 0.10932
H_ H_ 0.577307 0.259634 0.359421 0.10932
H_ H_ 0.88559 0.18294 0.347825 0.10932
H_ H_ 0.672429 0.24593 0.350408 0.10932
H_ H_ 0.867492 0.311119 0.364145 0.10932
H_ H_ 0.674787 0.230105 0.428915 0.10932
H_ H_ 0.868791 0.301101 0.44623 0.10932
H_ H_ 0.58227 0.249753 0.440463 0.10932
H_ H_ 0.890426 0.174325 0.420471 0.10932
H_ H_ 0.618772 0.18478 0.134305 0.10932
H_ H_ 0.904779 0.198433 0.13 0.10932
H_ H_ 0.618102 0.314058 0.143666 0.10932
H_ H_ 0.852915 0.307238 0.143724 0.10932
H_ H_ 0.618435 0.324533 0.065439 0.10932
H_ H_ 0.850823 0.314972 0.0686069 0.10932
H_ H_ 0.627754 0.191675 0.0580507 0.10932
H_ H_ 0.907449 0.208639 0.0538441 0.10932
C_ C_ 0.56084 0.3462 0.250241 -0.02249
C_ C_ 0.816291 0.34835 0.253269 -0.02249
C_ C_ 0.514447 0.4648 0.248899 -0.02249
C_ C_ 0.764627 0.460353 0.254861 -0.02249
C_ C_ 0.536585 0.402168 0.212318 -0.11473
C_ C_ 0.798819 0.41394 0.220518 -0.11473
C_ C_ 0.555889 0.368055 0.287986 -0.11473
C_ C_ 0.798954 0.360177 0.288726 -0.11473
C_ C_ 0.550486 0.36333 0.211615 -0.11473
C_ C_ 0.816413 0.376832 0.219173 -0.11473
C_ C_ 0.533233 0.425764 0.248951 -0.02249
C_ C_ 0.780405 0.421097 0.25352 -0.02249
C_ C_ 0.582801 0.312996 0.253085 0.6875
C_ C_ 0.836907 0.311152 0.251796 0.6875
C_ C_ 0.542208 0.407398 0.286242 -0.11473
C_ C_ 0.780875 0.39518 0.288503 -0.11473
C_ C_ 0.679971 0.348252 0.248726 -0.02249
C_ C_ 0.937391 0.348643 0.254376 -0.02249
C_ C_ 0.732465 0.46233 0.25169 -0.02249
C_ C_ 0.984713 0.465232 0.246452 -0.02249
C_ C_ 0.695831 0.411111 0.284173 -0.11473
C_ C_ 0.962288 0.405775 0.2921 -0.11473
C_ C_ 0.70228 0.356236 0.217311 -0.11473
C_ C_ 0.945634 0.367646 0.21734 -0.11473
C_ C_ 0.67617 0.377005 0.281268 -0.11473
C_ C_ 0.950657 0.366484 0.292541 -0.11473
C_ C_ 0.713727 0.42264 0.249655 -0.02249
C_ C_ 0.968645 0.425262 0.252415 -0.02249
C_ C_ 0.665103 0.306204 0.247749 0.6875
C_ C_ 0.916849 0.312225 0.252492 0.6875
C_ C_ 0.716369 0.395286 0.216051 -0.11473
C_ C_ 0.959751 0.406158 0.215507 -0.11473
C_ C_ 0.67915 0.153669 0.253875 -0.02249
C_ C_ 0.935374 0.152849 0.248969 -0.02249
C_ C_ 0.734657 0.0437679 0.255713 -0.02249
C_ C_ 0.985621 0.0378132 0.254503 -0.02249
C_ C_ 0.701623 0.0974619 0.290745 -0.11473
C_ C_ 0.964208 0.101734 0.288156 -0.11473
C_ C_ 0.694241 0.139295 0.217014 -0.11473
C_ C_ 0.941354 0.128751 0.211232 -0.11473
C_ C_ 0.686768 0.135069 0.292169 -0.11473
C_ C_ 0.949628 0.140005 0.286135 -0.11473
C_ C_ 0.717847 0.0850868 0.25582 -0.02249
C_ C_ 0.969728 0.0789295 0.251988 -0.02249
C_ C_ 0.658791 0.190426 0.250724 0.6875
C_ C_ 0.917907 0.1933 0.249538 0.6875
C_ C_ 0.716697 0.111093 0.220619 -0.11473
C_ C_ 0.959731 0.0944484 0.213012 -0.11473
C_ C_ 0.567455 0.152154 0.254317 -0.02249
C_ C_ 0.817484 0.156749 0.247937 -0.02249
C_ C_ 0.515123 0.0380793 0.251123 -0.02249
C_ C_ 0.766952 0.0406642 0.255013 -0.02249
C_ C_ 0.542777 0.095766 0.215856 -0.11473
C_ C_ 0.797515 0.0933338 0.213656 -0.11473
C_ C_ 0.55688 0.134946 0.291361 -0.11473
C_ C_ 0.806091 0.141053 0.287312 -0.11473
C_ C_ 0.560859 0.13128 0.216705 -0.11473
C_ C_ 0.812371 0.131482 0.211516 -0.11473
C_ C_ 0.533233 0.0776077 0.252633 -0.02249
C_ C_ 0.784717 0.0805649 0.25133 -0.02249
C_ C_ 0.58421 0.192349 0.254159 0.6875
C_ C_ 0.837729 0.193596 0.246607 0.6875
C_ C_ 0.539364 0.0991031 0.290409 -0.11473
C_ C_ 0.791326 0.102763 0.28788 -0.11473
C_ C_ 0.599041 0.255311 0.375106 0.17695
C_ C_ 0.883423 0.210347 0.366922 0.17695
C_ C_ 0.652393 0.250525 0.371589 0.17695
C_ C_ 0.870194 0.281864 0.378242 0.17695
C_ C_ 0.654888 0.244423 0.414897 -0.11473
C_ C_ 0.872011 0.276122 0.422776 -0.11473
C_ C_ 0.629977 0.246126 0.439876 0.23465
C_ C_ 0.879987 0.238365 0.438424 0.23465
C_ C_ 0.602115 0.250684 0.420044 -0.11473
C_ C_ 0.885043 0.204289 0.409212 -0.11473
C_ C_ 0.61956 0.215375 0.118045 0.17695
C_ C_ 0.894966 0.226806 0.118546 0.17695
C_ C_ 0.61994 0.288278 0.123452 0.17695
C_ C_ 0.863625 0.284472 0.123316 0.17695
C_ C_ 0.620741 0.291798 0.0790197 -0.11473
C_ C_ 0.861544 0.287621 0.0803774 -0.11473
C_ C_ 0.623026 0.257236 0.0545718 0.23465
C_ C_ 0.878496 0.262201 0.0537439 0.23465
C_ C_ 0.622267 0.218715 0.0744886 -0.11473
C_ C_ 0.895812 0.231506 0.0730214 -0.11473
C_ C_ 0.531247 0.502797 0.252382 0.05793
C_ C_ 0.780278 0.4978 0.262325 0.05793
C_ C_ 0.717563 1.0063489 0.250266 0.05793
C_ C_ 0.969372 0.999625925 0.258724 0.05793
Br Br 0.574165 0.501257 0.264587 -0.17191
Br Br 0.823548 0.496874 0.281134 -0.17191
Br Br 0.674102 0.0108657 0.242148 -0.17191
Br Br 0.925545 0.00496993 0.264542 -0.17191
N_ N_ 0.624765 0.250461 0.353151 -0.272
N_ N_ 0.875868 0.249156 0.352613 -0.272
N_ N_ 0.633378 0.246008 0.485654 -0.12501
N_ N_ 0.882511 0.232111 0.482881 -0.12501
N_ N_ 0.620098 0.250761 0.142566 -0.272
N_ N_ 0.880651 0.254776 0.142284 -0.272
N_ N_ 0.626334 0.264187 0.0099679 -0.12501
N_ N_ 0.876052 0.26587 0.00833587 -0.12501
O_ O_ 0.593837 0.301526 0.218565 -0.60745
O_ O_ 0.847046 0.299215 0.21686 -0.60745
O_ O_ 0.590043 0.297375 0.288197 -0.60745
O_ O_ 0.846987 0.296342 0.285382 -0.60745
O_ O_ 0.655309 0.291092 0.281393 -0.60745
O_ O_ 0.907851 0.29639 0.286361 -0.60745
O_ O_ 0.656527 0.292305 0.212077 -0.60745
O_ O_ 0.907441 0.296627 0.21786 -0.60745
O_ O_ 0.648812 0.206502 0.283906 -0.60745
O_ O_ 0.906826 0.206953 0.282197 -0.60745
O_ O_ 0.653492 0.206712 0.214845 -0.60745
O_ O_ 0.908887 0.208269 0.2147 -0.60745
O_ O_ 0.593133 0.208643 0.220398 -0.60745
O_ O_ 0.843881 0.211583 0.212807 -0.60745
O_ O_ 0.585653 0.213839 0.28671 -0.60745
O_ O_ 0.844535 0.211622 0.280499 -0.60745
Zn Zn 0.627212 0.248705 0.780334 0.9476
Zn Zn 0.877277 0.247339 0.78185 0.9476
Zn Zn 0.624745 0.24527 0.710863 0.9476
Zn Zn 0.874913 0.248952 0.710425 0.9476
H_ H_ 0.535518 0.417523 0.68864 0.10932
H_ H_ 0.772906 0.399129 0.681398 0.10932
H_ H_ 0.554105 0.334518 0.817365 0.10932
H_ H_ 0.824848 0.359358 0.813446 0.10932
H_ H_ 0.565914 0.351593 0.685972 0.10932
H_ H_ 0.806796 0.341379 0.681609 0.10932
H_ H_ 0.532104 0.404139 0.822767 0.10932
H_ H_ 0.79104 0.42149 0.811906 0.10932
H_ H_ 0.727391 0.401091 0.812252 0.10932
H_ H_ 0.965813 0.41545 0.814721 0.10932
H_ H_ 0.669305 0.371294 0.684448 0.10932
H_ H_ 0.927078 0.358233 0.681558 0.10932
H_ H_ 0.700968 0.336582 0.809527 0.10932
H_ H_ 0.939801 0.346735 0.815502 0.10932
H_ H_ 0.701999 0.42399 0.68183 0.10932
H_ H_ 0.954892 0.424278 0.6833 0.10932
H_ H_ 0.697494 0.063227 0.801366 0.10932
H_ H_ 0.969195 0.085338 0.816291 0.10932
H_ H_ 0.70908 0.167831 0.685283 0.10932
H_ H_ 0.934233 0.138156 0.677388 0.10932
H_ H_ 0.663292 0.125309 0.797142 0.10932
H_ H_ 0.942982 0.148781 0.813483 0.10932
H_ H_ 0.727527 0.0914525 0.677744 0.10932
H_ H_ 0.963544 0.0729685 0.685326 0.10932
H_ H_ 0.528196 0.0826914 0.680617 0.10932
H_ H_ 0.793715 0.0729956 0.684329 0.10932
H_ H_ 0.56085 0.153366 0.80978 0.10932
H_ H_ 0.799936 0.158003 0.814577 0.10932
H_ H_ 0.563285 0.14322 0.676822 0.10932
H_ H_ 0.811298 0.145254 0.680735 0.10932
H_ H_ 0.539424 0.0788966 0.816123 0.10932
H_ H_ 0.770236 0.0986794 0.813165 0.10932
H_ H_ 0.622482 0.310814 0.861174 0.10932
H_ H_ 0.869389 0.187028 0.855663 0.10932
H_ H_ 0.638049 0.18542 0.852961 0.10932
H_ H_ 0.902329 0.308912 0.852529 0.10932
H_ H_ 0.634322 0.176296 0.928532 0.10932
H_ H_ 0.903609 0.311581 0.930679 0.10932
H_ H_ 0.620024 0.306803 0.938353 0.10932
H_ H_ 0.871989 0.186028 0.936899 0.10932
H_ H_ 0.598691 0.304459 0.63938 0.10932
H_ H_ 0.873322 0.316105 0.636779 0.10932
H_ H_ 0.637243 0.184038 0.636099 0.10932
H_ H_ 0.879022 0.183538 0.6297 0.10932
H_ H_ 0.634812 0.185091 0.560162 0.10932
H_ H_ 0.886386 0.187868 0.556646 0.10932
H_ H_ 0.600416 0.310324 0.560815 0.10932
H_ H_ 0.887686 0.322828 0.563441 0.10932
C_ C_ 0.561064 0.338892 0.750783 -0.02249
C_ C_ 0.816345 0.343636 0.749825 -0.02249
C_ C_ 0.515342 0.456685 0.756496 -0.02249
C_ C_ 0.765519 0.45978 0.745307 -0.02249
C_ C_ 0.541024 0.400573 0.716934 -0.11473
C_ C_ 0.784458 0.393511 0.709824 -0.11473
C_ C_ 0.550214 0.35307 0.789904 -0.11473
C_ C_ 0.812261 0.367737 0.786063 -0.11473
C_ C_ 0.555173 0.362725 0.714353 -0.11473
C_ C_ 0.801698 0.356595 0.711372 -0.11473
C_ C_ 0.530458 0.415271 0.754779 -0.02249
C_ C_ 0.782265 0.418309 0.746775 -0.02249
C_ C_ 0.58374 0.304156 0.750612 0.6875
C_ C_ 0.838059 0.3092 0.748511 0.6875
C_ C_ 0.537499 0.392044 0.792085 -0.11473
C_ C_ 0.796187 0.404325 0.784756 -0.11473
C_ C_ 0.684391 0.346162 0.745429 -0.02249
C_ C_ 0.935726 0.342562 0.746917 -0.02249
C_ C_ 0.733168 0.46046 0.747784 -0.02249
C_ C_ 0.985439 0.458933 0.74829 -0.02249
C_ C_ 0.713094 0.396755 0.785707 -0.11473
C_ C_ 0.961043 0.398377 0.786493 -0.11473
C_ C_ 0.68269 0.374569 0.71279 -0.11473
C_ C_ 0.9381 0.367023 0.710419 -0.11473
C_ C_ 0.701073 0.356636 0.782086 -0.11473
C_ C_ 0.94575 0.360788 0.784995 -0.11473
C_ C_ 0.714988 0.421294 0.749319 -0.02249
C_ C_ 0.967353 0.418959 0.748824 -0.02249
C_ C_ 0.664832 0.308145 0.745997 0.6875
C_ C_ 0.919159 0.302936 0.746023 0.6875
C_ C_ 0.701562 0.406708 0.711438 -0.11473
C_ C_ 0.952778 0.405299 0.711693 -0.11473
C_ C_ 0.685426 0.151505 0.743228 -0.02249
C_ C_ 0.937904 0.150335 0.74581 -0.02249
C_ C_ 0.732316 0.0361835 0.742117 -0.02249
C_ C_ 0.986895 0.0371937 0.752247 -0.02249
C_ C_ 0.697649 0.0849194 0.77313 -0.11473
C_ C_ 0.965936 0.100347 0.786226 -0.11473
C_ C_ 0.704181 0.141938 0.708953 -0.11473
C_ C_ 0.944598 0.129199 0.708662 -0.11473
C_ C_ 0.682207 0.122062 0.775643 -0.11473
C_ C_ 0.951004 0.137224 0.78396 -0.11473
C_ C_ 0.714615 0.0742964 0.738603 -0.02249
C_ C_ 0.971827 0.0778217 0.750314 -0.02249
C_ C_ 0.670222 0.192162 0.744094 0.6875
C_ C_ 0.915052 0.185629 0.745538 0.6875
C_ C_ 0.716873 0.101972 0.705488 -0.11473
C_ C_ 0.962121 0.0926086 0.711399 -0.11473
C_ C_ 0.56605 0.150746 0.742466 -0.02249
C_ C_ 0.810473 0.157383 0.747225 -0.02249
C_ C_ 0.517369 0.0354282 0.752872 -0.02249
C_ C_ 0.764471 0.0389194 0.749888 -0.02249
C_ C_ 0.541065 0.0918714 0.708359 -0.11473
C_ C_ 0.793217 0.0939042 0.711995 -0.11473
C_ C_ 0.557819 0.13441 0.781128 -0.11473
C_ C_ 0.798388 0.141269 0.784232 -0.11473
C_ C_ 0.556998 0.129431 0.706321 -0.11473
C_ C_ 0.805019 0.134346 0.711007 -0.11473
C_ C_ 0.534187 0.074226 0.747989 -0.02249
C_ C_ 0.779661 0.0803123 0.747786 -0.02249
C_ C_ 0.587443 0.186233 0.742498 0.6875
C_ C_ 0.831898 0.191903 0.748875 0.6875
C_ C_ 0.544461 0.0945359 0.784383 -0.11473
C_ C_ 0.78217 0.104395 0.78449 -0.11473
C_ C_ 0.625636 0.282436 0.876805 0.17695
C_ C_ 0.876516 0.213298 0.873743 0.17695
C_ C_ 0.633724 0.211163 0.871033 0.17695
C_ C_ 0.894716 0.28259 0.87199 0.17695
C_ C_ 0.632016 0.20604 0.91523 -0.11473
C_ C_ 0.89576 0.284283 0.915482 -0.11473
C_ C_ 0.628855 0.240824 0.94057 0.23465
C_ C_ 0.888607 0.249129 0.93899 0.23465
C_ C_ 0.625214 0.279488 0.920804 -0.11473
C_ C_ 0.87702 0.213878 0.918218 -0.11473
C_ C_ 0.60833 0.280345 0.620914 0.17695
C_ C_ 0.877877 0.287625 0.619307 0.17695
C_ C_ 0.633129 0.214202 0.619054 0.17695
C_ C_ 0.879364 0.214573 0.615737 0.17695
C_ C_ 0.633953 0.215199 0.574958 -0.11473
C_ C_ 0.882363 0.217668 0.572837 -0.11473
C_ C_ 0.619046 0.248997 0.553911 0.23465
C_ C_ 0.88403 0.25567 0.553662 0.23465
C_ C_ 0.608205 0.281824 0.576912 -0.11473
C_ C_ 0.884964 0.292031 0.577896 -0.11473
C_ C_ 0.531643 0.492634 0.760791 0.05793
C_ C_ 0.781655 0.497437 0.740416 0.05793
C_ C_ 0.717679 -0.0018639999999999768 0.740476 0.05793
C_ C_ 0.970729 -0.000878201 0.757993 0.05793
Br Br 0.573447 0.491654 0.768273 -0.17191
Br Br 0.818921 0.491295 0.710241 -0.17191
Br Br 0.677304 -0.004533000000000009 0.716624 -0.17191
Br Br 0.926695 0.0045106 0.762739 -0.17191
N_ N_ 0.629308 0.248501 0.852642 -0.272
N_ N_ 0.882772 0.247832 0.852674 -0.272
N_ N_ 0.624565 0.235678 0.98464 -0.12501
N_ N_ 0.893865 0.248635 0.983014 -0.12501
N_ N_ 0.623087 0.249462 0.641243 -0.272
N_ N_ 0.875151 0.249747 0.63871 -0.272
N_ N_ 0.612131 0.246001 0.511258 -0.12501
N_ N_ 0.88188 0.261454 0.507927 -0.12501
O_ O_ 0.588831 0.285509 0.715619 -0.60745
O_ O_ 0.844334 0.292783 0.713433 -0.60745
O_ O_ 0.594627 0.290593 0.783629 -0.60745
O_ O_ 0.846826 0.290722 0.781045 -0.60745
O_ O_ 0.660121 0.289511 0.781399 -0.60745
O_ O_ 0.910363 0.286713 0.78015 -0.60745
O_ O_ 0.651852 0.294496 0.711727 -0.60745
O_ O_ 0.908362 0.290463 0.71199 -0.60745
O_ O_ 0.659156 0.204387 0.777945 -0.60745
O_ O_ 0.905444 0.199367 0.78096 -0.60745
O_ O_ 0.659169 0.207361 0.710708 -0.60745
O_ O_ 0.905722 0.203112 0.713135 -0.60745
O_ O_ 0.597701 0.198185 0.709122 -0.60745
O_ O_ 0.841336 0.207676 0.714911 -0.60745
O_ O_ 0.596727 0.203327 0.776089 -0.60745
O_ O_ 0.842438 0.205989 0.783488 -0.60745
Zn Zn 0.627546 0.749774 0.291699 0.9476
Zn Zn 0.871802 0.748389 0.290093 0.9476
Zn Zn 0.624105 0.751546 0.221972 0.9476
Zn Zn 0.87105 0.751846 0.220338 0.9476
H_ H_ 0.537764 0.918718 0.17738 0.10932
H_ H_ 0.776404 0.910242 0.189285 0.10932
H_ H_ 0.560151 0.853296 0.317691 0.10932
H_ H_ 0.812491 0.855926 0.328348 0.10932
H_ H_ 0.565577 0.852227 0.180958 0.10932
H_ H_ 0.795895 0.842821 0.19134 0.10932
H_ H_ 0.532257 0.918466 0.31465 0.10932
H_ H_ 0.779352 0.918909 0.324115 0.10932
H_ H_ 0.710115 0.921579 0.31268 0.10932
H_ H_ 0.95727 0.925266 0.323038 0.10932
H_ H_ 0.685142 0.853519 0.177962 0.10932
H_ H_ 0.938375 0.851125 0.191368 0.10932
H_ H_ 0.678522 0.859198 0.312981 0.10932
H_ H_ 0.920523 0.865652 0.320391 0.10932
H_ H_ 0.713487 0.923074 0.179064 0.10932
H_ H_ 0.975091 0.904734 0.194519 0.10932
H_ H_ 0.704356 0.566749 0.319795 0.10932
H_ H_ 0.978347 0.590878 0.30911 0.10932
H_ H_ 0.698284 0.664633 0.197811 0.10932
H_ H_ 0.92579 0.645405 0.186162 0.10932
H_ H_ 0.681475 0.63873 0.328436 0.10932
H_ H_ 0.946772 0.655526 0.319006 0.10932
H_ H_ 0.726858 0.598745 0.193633 0.10932
H_ H_ 0.956498 0.58576 0.180926 0.10932
H_ H_ 0.542186 0.585673 0.189447 0.10932
H_ H_ 0.784214 0.577402 0.184301 0.10932
H_ H_ 0.556964 0.653096 0.324395 0.10932
H_ H_ 0.813813 0.642386 0.31971 0.10932
H_ H_ 0.5696 0.648802 0.19497 0.10932
H_ H_ 0.810148 0.644565 0.185647 0.10932
H_ H_ 0.53123 0.588287 0.32362 0.10932
H_ H_ 0.779348 0.586187 0.32226 0.10932
H_ H_ 0.618393 0.6942 0.375254 0.10932
H_ H_ 0.856313 0.809709 0.366106 0.10932
H_ H_ 0.629309 0.823029 0.358044 0.10932
H_ H_ 0.878742 0.682386 0.357186 0.10932
H_ H_ 0.622498 0.832573 0.437886 0.10932
H_ H_ 0.874255 0.675115 0.430913 0.10932
H_ H_ 0.620451 0.701163 0.453732 0.10932
H_ H_ 0.856893 0.806176 0.445544 0.10932
H_ H_ 0.62344 0.679052 0.15507 0.10932
H_ H_ 0.885124 0.690321 0.145815 0.10932
H_ H_ 0.620004 0.807503 0.148155 0.10932
H_ H_ 0.850438 0.811392 0.140828 0.10932
H_ H_ 0.627044 0.808951 0.0709154 0.10932
H_ H_ 0.849621 0.809022 0.0606706 0.10932
H_ H_ 0.613705 0.675012 0.0793547 0.10932
H_ H_ 0.884395 0.684782 0.0712117 0.10932
C_ C_ 0.565769 0.84747 0.249278 -0.02249
C_ C_ 0.807715 0.842712 0.258265 -0.02249
C_ C_ 0.515489 0.962192 0.243697 -0.02249
C_ C_ 0.76467 0.964148 0.25372 -0.02249
C_ C_ 0.543327 0.904303 0.208109 -0.11473
C_ C_ 0.783171 0.899345 0.21984 -0.11473
C_ C_ 0.556657 0.866063 0.287409 -0.11473
C_ C_ 0.804388 0.866363 0.296968 -0.11473
C_ C_ 0.559402 0.867368 0.211346 -0.11473
C_ C_ 0.796154 0.860136 0.220602 -0.11473
C_ C_ 0.533409 0.923607 0.244861 -0.02249
C_ C_ 0.778628 0.922683 0.256619 -0.02249
C_ C_ 0.587049 0.812655 0.250749 0.6875
C_ C_ 0.827357 0.804873 0.256708 0.6875
C_ C_ 0.539616 0.903964 0.283394 -0.11473
C_ C_ 0.788013 0.905188 0.295032 -0.11473
C_ C_ 0.680668 0.850358 0.24582 -0.02249
C_ C_ 0.932849 0.846951 0.25743 -0.02249
C_ C_ 0.731985 0.965831 0.247517 -0.02249
C_ C_ 0.984327 0.961912 0.258092 -0.02249
C_ C_ 0.706367 0.905826 0.283784 -0.11473
C_ C_ 0.951015 0.910447 0.293885 -0.11473
C_ C_ 0.68975 0.86953 0.207855 -0.11473
C_ C_ 0.946496 0.861818 0.221829 -0.11473
C_ C_ 0.688921 0.870213 0.28384 -0.11473
C_ C_ 0.93308 0.874938 0.293787 -0.11473
C_ C_ 0.713118 0.928016 0.246923 -0.02249
C_ C_ 0.967149 0.921679 0.259064 -0.02249
C_ C_ 0.664456 0.80828 0.249269 0.6875
C_ C_ 0.913339 0.809954 0.256189 0.6875
C_ C_ 0.705846 0.907878 0.207298 -0.11473
C_ C_ 0.963512 0.897484 0.222105 -0.11473
C_ C_ 0.68486 0.653394 0.261978 -0.02249
C_ C_ 0.93377 0.656316 0.252204 -0.02249
C_ C_ 0.733046 0.538332 0.250719 -0.02249
C_ C_ 0.985541 0.541925 0.243354 -0.02249
C_ C_ 0.703884 0.588228 0.293576 -0.11473
C_ C_ 0.967266 0.605216 0.283624 -0.11473
C_ C_ 0.698621 0.641594 0.223517 -0.11473
C_ C_ 0.939411 0.637671 0.214118 -0.11473
C_ C_ 0.689553 0.626811 0.297994 -0.11473
C_ C_ 0.949186 0.640238 0.287634 -0.11473
C_ C_ 0.715837 0.578068 0.255577 -0.02249
C_ C_ 0.969766 0.584244 0.245742 -0.02249
C_ C_ 0.665204 0.690137 0.262499 0.6875
C_ C_ 0.914941 0.693515 0.252715 0.6875
C_ C_ 0.714254 0.604985 0.2207 -0.11473
C_ C_ 0.954479 0.600383 0.210999 -0.11473
C_ C_ 0.563203 0.659209 0.260457 -0.02249
C_ C_ 0.812598 0.651311 0.253663 -0.02249
C_ C_ 0.514808 0.540066 0.250667 -0.02249
C_ C_ 0.764973 0.537781 0.254064 -0.02249
C_ C_ 0.544409 0.601303 0.218281 -0.11473
C_ C_ 0.787773 0.594955 0.215304 -0.11473
C_ C_ 0.554094 0.639073 0.296216 -0.11473
C_ C_ 0.804011 0.631442 0.290889 -0.11473
C_ C_ 0.558589 0.639469 0.221883 -0.11473
C_ C_ 0.801479 0.633391 0.215539 -0.11473
C_ C_ 0.531498 0.582657 0.255328 -0.02249
C_ C_ 0.781668 0.575803 0.254793 -0.02249
C_ C_ 0.58263 0.697638 0.26251 0.6875
C_ C_ 0.833744 0.686963 0.253875 0.6875
C_ C_ 0.536829 0.602847 0.293647 -0.11473
C_ C_ 0.787359 0.594843 0.291985 -0.11473
C_ C_ 0.620423 0.723939 0.389149 0.17695
C_ C_ 0.861822 0.780939 0.381133 0.17695
C_ C_ 0.625825 0.797104 0.379922 0.17695
C_ C_ 0.876633 0.711351 0.375503 0.17695
C_ C_ 0.622524 0.801906 0.423809 -0.11473
C_ C_ 0.874903 0.707169 0.419225 -0.11473
C_ C_ 0.623134 0.768527 0.450835 0.23465
C_ C_ 0.868751 0.741394 0.4453 0.23465
C_ C_ 0.622152 0.728185 0.4331 -0.11473
C_ C_ 0.862197 0.779304 0.4258 -0.11473
C_ C_ 0.62075 0.706697 0.135199 0.17695
C_ C_ 0.879788 0.717915 0.128721 0.17695
C_ C_ 0.618815 0.77926 0.131504 0.17695
C_ C_ 0.859836 0.784464 0.124149 0.17695
C_ C_ 0.624183 0.779216 0.0884984 -0.11473
C_ C_ 0.85888 0.783527 0.0786489 -0.11473
C_ C_ 0.621261 0.740691 0.0673106 0.23465
C_ C_ 0.870792 0.748164 0.0588906 0.23465
C_ C_ 0.61638 0.705685 0.0926285 -0.11473
C_ C_ 0.877851 0.713959 0.0848737 -0.11473
C_ C_ 0.530799 1.00082 0.244961 0.05793
C_ C_ 0.780913 1.00117559 0.257279 0.05793
C_ C_ 0.717695 0.50163 0.246941 0.05793
C_ C_ 0.969667 0.503422 0.25003 0.05793
Br Br 0.575715 1.00365474 0.244868 -0.17191
Br Br 0.82443 0.995683 0.262848 -0.17191
Br Br 0.676018 0.501688 0.232966 -0.17191
Br Br 0.928682 0.504749 0.264449 -0.17191
N_ N_ 0.624243 0.7585 0.363749 -0.272
N_ N_ 0.870937 0.748493 0.358113 -0.272
N_ N_ 0.625382 0.774028 0.496686 -0.12501
N_ N_ 0.868379 0.737142 0.489638 -0.12501
N_ N_ 0.618952 0.743679 0.154337 -0.272
N_ N_ 0.86966 0.752711 0.14785 -0.272
N_ N_ 0.620136 0.736671 0.0207865 -0.12501
N_ N_ 0.867125 0.742734 0.0150922 -0.12501
O_ O_ 0.597766 0.799621 0.216319 -0.60745
O_ O_ 0.838096 0.791245 0.222512 -0.60745
O_ O_ 0.595066 0.794273 0.286497 -0.60745
O_ O_ 0.840036 0.793426 0.291712 -0.60745
O_ O_ 0.656142 0.793415 0.284483 -0.60745
O_ O_ 0.904862 0.792855 0.290382 -0.60745
O_ O_ 0.65894 0.78601 0.216393 -0.60745
O_ O_ 0.901271 0.798442 0.220781 -0.60745
O_ O_ 0.661917 0.710039 0.297707 -0.60745
O_ O_ 0.901582 0.702939 0.287031 -0.60745
O_ O_ 0.649206 0.700966 0.229544 -0.60745
O_ O_ 0.907083 0.712746 0.219073 -0.60745
O_ O_ 0.588951 0.718162 0.22806 -0.60745
O_ O_ 0.840897 0.704118 0.219906 -0.60745
O_ O_ 0.594772 0.70846 0.296219 -0.60745
O_ O_ 0.84077 0.704508 0.289427 -0.60745
Zn Zn 0.625547 0.74779 0.793102 0.9476
Zn Zn 0.877453 0.746049 0.785015 0.9476
Zn Zn 0.623797 0.748478 0.723197 0.9476
Zn Zn 0.875638 0.751073 0.715165 0.9476
H_ H_ 0.526308 0.904762 0.685124 0.10932
H_ H_ 0.795343 0.931045 0.694445 0.10932
H_ H_ 0.562999 0.850622 0.821146 0.10932
H_ H_ 0.806849 0.840366 0.818453 0.10932
H_ H_ 0.55136 0.838735 0.686666 0.10932
H_ H_ 0.820788 0.865083 0.688652 0.10932
H_ H_ 0.547817 0.926609 0.815231 0.10932
H_ H_ 0.782551 0.908663 0.824888 0.10932
H_ H_ 0.701959 0.931168 0.819885 0.10932
H_ H_ 0.963724 0.915239 0.817862 0.10932
H_ H_ 0.685935 0.850574 0.689027 0.10932
H_ H_ 0.949947 0.847058 0.685503 0.10932
H_ H_ 0.674904 0.862877 0.820956 0.10932
H_ H_ 0.927687 0.857167 0.81569 0.10932
H_ H_ 0.714589 0.915846 0.687268 0.10932
H_ H_ 0.966083 0.919359 0.686659 0.10932
H_ H_ 0.714779 0.573175 0.818694 0.10932
H_ H_ 0.966 0.578091 0.816036 0.10932
H_ H_ 0.687891 0.654228 0.690214 0.10932
H_ H_ 0.931157 0.641104 0.68124 0.10932
H_ H_ 0.686781 0.636491 0.826413 0.10932
H_ H_ 0.942024 0.646501 0.816925 0.10932
H_ H_ 0.714504 0.587066 0.686178 0.10932
H_ H_ 0.96639 0.580089 0.683413 0.10932
H_ H_ 0.551263 0.565129 0.697613 0.10932
H_ H_ 0.783708 0.584172 0.680928 0.10932
H_ H_ 0.551254 0.653623 0.825781 0.10932
H_ H_ 0.820264 0.638375 0.822873 0.10932
H_ H_ 0.57582 0.635316 0.695938 0.10932
H_ H_ 0.81402 0.644923 0.685775 0.10932
H_ H_ 0.524776 0.584207 0.823233 0.10932
H_ H_ 0.799862 0.570607 0.817571 0.10932
H_ H_ 0.639221 0.690804 0.873837 0.10932
H_ H_ 0.855327 0.688202 0.865016 0.10932
H_ H_ 0.618854 0.818295 0.860397 0.10932
H_ H_ 0.907086 0.800761 0.858799 0.10932
H_ H_ 0.617407 0.825511 0.937345 0.10932
H_ H_ 0.911327 0.802286 0.934018 0.10932
H_ H_ 0.626451 0.692898 0.949641 0.10932
H_ H_ 0.85238 0.6996 0.943199 0.10932
H_ H_ 0.626847 0.68231 0.64957 0.10932
H_ H_ 0.876757 0.817155 0.649373 0.10932
H_ H_ 0.616434 0.813484 0.647918 0.10932
H_ H_ 0.875881 0.686916 0.637669 0.10932
H_ H_ 0.623614 0.813583 0.572955 0.10932
H_ H_ 0.87176 0.694198 0.562486 0.10932
H_ H_ 0.628106 0.681328 0.574648 0.10932
H_ H_ 0.872472 0.825116 0.569039 0.10932
C_ C_ 0.560584 0.839897 0.756405 -0.02249
C_ C_ 0.820658 0.850626 0.755026 -0.02249
C_ C_ 0.516573 0.958128 0.752941 -0.02249
C_ C_ 0.765728 0.963019 0.758236 -0.02249
C_ C_ 0.536004 0.893825 0.715138 -0.11473
C_ C_ 0.799253 0.913212 0.720928 -0.11473
C_ C_ 0.560335 0.865273 0.792207 -0.11473
C_ C_ 0.80612 0.861101 0.79244 -0.11473
C_ C_ 0.550241 0.85478 0.716352 -0.11473
C_ C_ 0.816381 0.877806 0.719302 -0.11473
C_ C_ 0.533357 0.918778 0.750842 -0.02249
C_ C_ 0.784123 0.923622 0.75873 -0.02249
C_ C_ 0.582249 0.803949 0.755053 0.6875
C_ C_ 0.839099 0.810347 0.751794 0.6875
C_ C_ 0.547363 0.905849 0.789469 -0.11473
C_ C_ 0.789781 0.899062 0.794595 -0.11473
C_ C_ 0.680302 0.850886 0.755843 -0.02249
C_ C_ 0.933691 0.847195 0.749905 -0.02249
C_ C_ 0.733743 0.962101 0.751836 -0.02249
C_ C_ 0.985305 0.960855 0.75413 -0.02249
C_ C_ 0.702389 0.911038 0.790564 -0.11473
C_ C_ 0.955813 0.904266 0.787794 -0.11473
C_ C_ 0.688916 0.867741 0.71746 -0.11473
C_ C_ 0.947604 0.863538 0.712233 -0.11473
C_ C_ 0.685899 0.873287 0.792202 -0.11473
C_ C_ 0.938661 0.867927 0.786972 -0.11473
C_ C_ 0.716599 0.922284 0.753606 -0.02249
C_ C_ 0.965718 0.923186 0.752029 -0.02249
C_ C_ 0.658807 0.813392 0.757664 0.6875
C_ C_ 0.91816 0.806072 0.747431 0.6875
C_ C_ 0.708434 0.90226 0.716968 -0.11473
C_ C_ 0.959967 0.902591 0.714467 -0.11473
C_ C_ 0.686737 0.654706 0.758924 -0.02249
C_ C_ 0.933071 0.64915 0.748906 -0.02249
C_ C_ 0.735851 0.538252 0.751842 -0.02249
C_ C_ 0.983049 0.535419 0.749253 -0.02249
C_ C_ 0.709563 0.592944 0.790728 -0.11473
C_ C_ 0.95898 0.591862 0.78581 -0.11473
C_ C_ 0.695101 0.638948 0.719344 -0.11473
C_ C_ 0.9416 0.629424 0.710932 -0.11473
C_ C_ 0.693187 0.628704 0.79442 -0.11473
C_ C_ 0.946413 0.632621 0.786294 -0.11473
C_ C_ 0.721002 0.579889 0.751938 -0.02249
C_ C_ 0.966864 0.573298 0.748763 -0.02249
C_ C_ 0.665315 0.68959 0.759139 0.6875
C_ C_ 0.917082 0.688116 0.749942 0.6875
C_ C_ 0.710785 0.600992 0.715716 -0.11473
C_ C_ 0.957825 0.592019 0.710688 -0.11473
C_ C_ 0.56499 0.649837 0.759652 -0.02249
C_ C_ 0.817919 0.651194 0.75126 -0.02249
C_ C_ 0.515656 0.531383 0.760227 -0.02249
C_ C_ 0.76798 0.53603 0.74843 -0.02249
C_ C_ 0.549902 0.584559 0.725546 -0.11473
C_ C_ 0.791557 0.597106 0.711694 -0.11473
C_ C_ 0.551117 0.634995 0.796827 -0.11473
C_ C_ 0.813625 0.628537 0.789128 -0.11473
C_ C_ 0.56458 0.624456 0.724227 -0.11473
C_ C_ 0.806319 0.634341 0.714104 -0.11473
C_ C_ 0.534772 0.571424 0.760721 -0.02249
C_ C_ 0.786782 0.574653 0.749656 -0.02249
C_ C_ 0.582727 0.690149 0.758518 0.6875
C_ C_ 0.835823 0.688739 0.753729 0.6875
C_ C_ 0.533742 0.59803 0.795248 -0.11473
C_ C_ 0.797676 0.589822 0.788106 -0.11473
C_ C_ 0.63037 0.71858 0.888344 0.17695
C_ C_ 0.864 0.718342 0.88072 0.17695
C_ C_ 0.61906 0.789978 0.880731 0.17695
C_ C_ 0.893577 0.779721 0.876821 0.17695
C_ C_ 0.619086 0.795109 0.923987 -0.11473
C_ C_ 0.897503 0.781098 0.919113 -0.11473
C_ C_ 0.622602 0.760204 0.95104 0.23465
C_ C_ 0.880006 0.753914 0.943607 0.23465
C_ C_ 0.626074 0.721007 0.931361 -0.11473
C_ C_ 0.865362 0.720362 0.925133 -0.11473
C_ C_ 0.626208 0.711949 0.632924 0.17695
C_ C_ 0.873145 0.790215 0.629198 0.17695
C_ C_ 0.621346 0.78393 0.632844 0.17695
C_ C_ 0.874221 0.71714 0.622289 0.17695
C_ C_ 0.622347 0.784207 0.588776 -0.11473
C_ C_ 0.873714 0.721738 0.579292 -0.11473
C_ C_ 0.624579 0.746178 0.566414 0.23465
C_ C_ 0.871958 0.760366 0.559633 0.23465
C_ C_ 0.627007 0.710391 0.590056 -0.11473
C_ C_ 0.870463 0.793992 0.584505 -0.11473
C_ C_ 0.531896 -0.003483000000000014 0.752643 0.05793
C_ C_ 0.781573 0.000731896 0.751966 0.05793
C_ C_ 0.718716 0.499964 0.746537 0.05793
C_ C_ 0.967466 0.497026 0.751288 0.05793
Br Br 0.574781 -0.005398000000000014 0.75339 -0.17191
Br Br 0.823712 1.00215974 0.756053 -0.17191
Br Br 0.675782 0.501503 0.754558 -0.17191
Br Br 0.923539 0.493465 0.757871 -0.17191
N_ N_ 0.624082 0.753148 0.86307 -0.272
N_ N_ 0.878677 0.747513 0.856907 -0.272
N_ N_ 0.622396 0.766439 0.996043 -0.12501
N_ N_ 0.88514 0.756509 0.988586 -0.12501
N_ N_ 0.623538 0.747371 0.653495 -0.272
N_ N_ 0.874603 0.750747 0.646118 -0.272
N_ N_ 0.623233 0.743925 0.520999 -0.12501
N_ N_ 0.872665 0.765747 0.513984 -0.12501
O_ O_ 0.59433 0.793498 0.720033 -0.60745
O_ O_ 0.845447 0.794819 0.715751 -0.60745
O_ O_ 0.589737 0.785252 0.789421 -0.60745
O_ O_ 0.847323 0.792661 0.784606 -0.60745
O_ O_ 0.650897 0.79978 0.793234 -0.60745
O_ O_ 0.908012 0.791578 0.780705 -0.60745
O_ O_ 0.656074 0.79158 0.724309 -0.60745
O_ O_ 0.904816 0.796529 0.713145 -0.60745
O_ O_ 0.660485 0.708909 0.792001 -0.60745
O_ O_ 0.907291 0.700549 0.785273 -0.60745
O_ O_ 0.652599 0.699982 0.725938 -0.60745
O_ O_ 0.910214 0.709098 0.716559 -0.60745
O_ O_ 0.590331 0.705354 0.723709 -0.60745
O_ O_ 0.846207 0.703321 0.719442 -0.60745
O_ O_ 0.598373 0.699463 0.790825 -0.60745
O_ O_ 0.845038 0.704234 0.788415 -0.60745
_cell_length_a 44.444
_cell_length_b 32.3360000049186
_cell_length_c 31.843999878906452
_cell_angle_alpha 89.99799923859553
_cell_angle_beta 91.13600050494348
_cell_angle_gamma 89.9990006550086
_symmetry_space_group_name_H-M         'P 1'
_symmetry_Int_Tables_number            1
loop_
_symmetry_equiv_pos_as_xyz
   'x, y, z'
                         
loop_
_atom_site_label
_atom_site_type_symbol
_atom_site_fract_x 
_atom_site_fract_y
_atom_site_fract_z
_atom_site_charge
Zn Zn 0.12379 0.254448 0.279296 0.9476
Zn Zn 0.379418 0.253552 0.280439 0.9476
Zn Zn 0.124085 0.249481 0.211762 0.9476
Zn Zn 0.379775 0.252283 0.210123 0.9476
H_ H_ 0.0224656 0.407412 0.179219 0.10932
H_ H_ 0.284989 0.419099 0.177519 0.10932
H_ H_ 0.076162 0.371732 0.311719 0.10932
H_ H_ 0.310432 0.348743 0.3093 0.10932
H_ H_ 0.0540887 0.343708 0.180948 0.10932
H_ H_ 0.322327 0.363374 0.179168 0.10932
H_ H_ 0.0445671 0.430999 0.307656 0.10932
H_ H_ 0.277707 0.407305 0.311917 0.10932
H_ H_ 0.219478 0.417406 0.305835 0.10932
H_ H_ 0.46102 0.421386 0.310102 0.10932
H_ H_ 0.169697 0.36734 0.175681 0.10932
H_ H_ 0.43479 0.353652 0.17402 0.10932
H_ H_ 0.190698 0.352577 0.309511 0.10932
H_ H_ 0.438149 0.353736 0.309773 0.10932
H_ H_ 0.198801 0.431532 0.175305 0.10932
H_ H_ 0.461571 0.417828 0.176265 0.10932
H_ H_ 0.197872 0.0748158 0.31014 0.10932
H_ H_ 0.475349 0.0933663 0.316411 0.10932
H_ H_ 0.205419 0.161862 0.184376 0.10932
H_ H_ 0.431027 0.140198 0.182051 0.10932
H_ H_ 0.175108 0.144551 0.309359 0.10932
H_ H_ 0.445157 0.155854 0.313547 0.10932
H_ H_ 0.238195 0.102964 0.19119 0.10932
H_ H_ 0.460214 0.0747998 0.184044 0.10932
H_ H_ 0.0377593 0.0788146 0.188997 0.10932
H_ H_ 0.297786 0.077718 0.182369 0.10932
H_ H_ 0.0655064 0.151046 0.322292 0.10932
H_ H_ 0.313805 0.155138 0.315058 0.10932
H_ H_ 0.0619664 0.144829 0.185327 0.10932
H_ H_ 0.322321 0.142261 0.180363 0.10932
H_ H_ 0.0319605 0.0867342 0.325564 0.10932
H_ H_ 0.283163 0.0890295 0.313325 0.10932
H_ H_ 0.132683 0.183195 0.354144 0.10932
H_ H_ 0.398041 0.320141 0.363736 0.10932
H_ H_ 0.125895 0.314869 0.353564 0.10932
H_ H_ 0.375508 0.194367 0.349079 0.10932
H_ H_ 0.13256 0.314395 0.432679 0.10932
H_ H_ 0.369885 0.189499 0.428968 0.10932
H_ H_ 0.135523 0.182919 0.433826 0.10932
H_ H_ 0.398765 0.314282 0.440933 0.10932
H_ H_ 0.121665 0.316428 0.141683 0.10932
H_ H_ 0.360951 0.184873 0.142426 0.10932
H_ H_ 0.112021 0.189663 0.129416 0.10932
H_ H_ 0.39269 0.308047 0.130841 0.10932
H_ H_ 0.107333 0.19312 0.0557247 0.10932
H_ H_ 0.383899 0.30415 0.0561777 0.10932
H_ H_ 0.125305 0.323881 0.0646383 0.10932
H_ H_ 0.353016 0.181438 0.065633 0.10932
C_ C_ 0.0655372 0.350583 0.246914 -0.02249
C_ C_ 0.320757 0.35295 0.244817 -0.02249
C_ C_ 0.0153493 0.463624 0.237195 -0.02249
C_ C_ 0.264221 0.464048 0.242234 -0.02249
C_ C_ 0.0330697 0.397375 0.207592 -0.11473
C_ C_ 0.29215 0.407973 0.207273 -0.11473
C_ C_ 0.0622087 0.375922 0.283328 -0.11473
C_ C_ 0.306745 0.365748 0.281332 -0.11473
C_ C_ 0.0513834 0.362285 0.209139 -0.11473
C_ C_ 0.310083 0.372067 0.207964 -0.11473
C_ C_ 0.0324355 0.424231 0.242348 -0.02249
C_ C_ 0.280572 0.423893 0.243955 -0.02249
C_ C_ 0.0853296 0.311442 0.24779 0.6875
C_ C_ 0.343842 0.317218 0.246502 0.6875
C_ C_ 0.0472407 0.412356 0.28011 -0.11473
C_ C_ 0.288045 0.400911 0.282544 -0.11473
C_ C_ 0.180522 0.350965 0.240692 -0.02249
C_ C_ 0.436493 0.348063 0.241292 -0.02249
C_ C_ 0.231508 0.466416 0.23898 -0.02249
C_ C_ 0.48366 0.464748 0.242997 -0.02249
C_ C_ 0.210091 0.403512 0.277445 -0.11473
C_ C_ 0.459445 0.404752 0.281543 -0.11473
C_ C_ 0.181141 0.376181 0.204515 -0.11473
C_ C_ 0.441696 0.368401 0.204787 -0.11473
C_ C_ 0.193117 0.36747 0.278608 -0.11473
C_ C_ 0.44437 0.36637 0.278839 -0.11473
C_ C_ 0.213467 0.427012 0.240914 -0.02249
C_ C_ 0.467754 0.423894 0.243243 -0.02249
C_ C_ 0.160528 0.313447 0.242128 0.6875
C_ C_ 0.423258 0.305907 0.241445 0.6875
C_ C_ 0.19885 0.412473 0.20434 -0.11473
C_ C_ 0.458837 0.404318 0.205771 -0.11473
C_ C_ 0.186694 0.156492 0.245013 -0.02249
C_ C_ 0.435654 0.151967 0.24802 -0.02249
C_ C_ 0.237965 0.0415853 0.250688 -0.02249
C_ C_ 0.483087 0.0358977 0.250539 -0.02249
C_ C_ 0.201496 0.0958388 0.283398 -0.11473
C_ C_ 0.464327 0.10183 0.287664 -0.11473
C_ C_ 0.204094 0.142914 0.212025 -0.11473
C_ C_ 0.439721 0.128122 0.212164 -0.11473
C_ C_ 0.18731 0.134342 0.282706 -0.11473
C_ C_ 0.449244 0.138635 0.285189 -0.11473
C_ C_ 0.220525 0.0830753 0.248414 -0.02249
C_ C_ 0.466813 0.0759498 0.251148 -0.02249
C_ C_ 0.163829 0.191822 0.242976 0.6875
C_ C_ 0.414764 0.188752 0.246632 0.6875
C_ C_ 0.223628 0.109468 0.215646 -0.11473
C_ C_ 0.454477 0.0907514 0.212574 -0.11473
C_ C_ 0.065815 0.153527 0.253346 -0.02249
C_ C_ 0.320717 0.15377 0.247757 -0.02249
C_ C_ 0.0168307 0.0365705 0.259997 -0.02249
C_ C_ 0.270302 0.0399734 0.247003 -0.02249
C_ C_ 0.0408612 0.0948625 0.217671 -0.11473
C_ C_ 0.299118 0.0952655 0.209729 -0.11473
C_ C_ 0.0574904 0.136141 0.292256 -0.11473
C_ C_ 0.308925 0.139278 0.284907 -0.11473
C_ C_ 0.0572371 0.132536 0.216112 -0.11473
C_ C_ 0.313969 0.132556 0.209875 -0.11473
C_ C_ 0.0335619 0.0767031 0.257463 -0.02249
C_ C_ 0.287115 0.0793597 0.247984 -0.02249
C_ C_ 0.0860937 0.190991 0.25171 0.6875
C_ C_ 0.337671 0.195644 0.247765 0.6875
C_ C_ 0.0397298 0.0984683 0.294949 -0.11473
C_ C_ 0.291771 0.103671 0.285061 -0.11473
C_ C_ 0.131218 0.21231 0.370282 0.17695
C_ C_ 0.392854 0.290749 0.37593 0.17695
C_ C_ 0.130729 0.285368 0.370723 0.17695
C_ C_ 0.378106 0.220278 0.369534 0.17695
C_ C_ 0.134997 0.285687 0.415368 -0.11473
C_ C_ 0.377629 0.217364 0.414412 -0.11473
C_ C_ 0.134033 0.24866 0.437044 0.23465
C_ C_ 0.385026 0.25103 0.439358 0.23465
C_ C_ 0.134415 0.211762 0.414672 -0.11473
C_ C_ 0.392874 0.288759 0.419816 -0.11473
C_ C_ 0.121622 0.289391 0.122359 0.17695
C_ C_ 0.364706 0.212049 0.123151 0.17695
C_ C_ 0.110218 0.219634 0.116505 0.17695
C_ C_ 0.384156 0.278343 0.118316 0.17695
C_ C_ 0.111412 0.221212 0.0725544 -0.11473
C_ C_ 0.382208 0.275732 0.0748151 -0.11473
C_ C_ 0.118005 0.259736 0.0533461 0.23465
C_ C_ 0.374071 0.238271 0.0554833 0.23465
C_ C_ 0.123368 0.293214 0.0778308 -0.11473
C_ C_ 0.365437 0.206724 0.0804114 -0.11473
C_ C_ 0.0306927 0.501953 0.232286 0.05793
C_ C_ 0.28096 0.500808 0.243311 0.05793
C_ C_ 0.222078 0.0046182 0.256291 0.05793
C_ C_ 0.468801 0.997908 0.250237 0.05793
Br Br 0.0713701 0.498965 0.213615 -0.17191
Br Br 0.325459 0.499101 0.242959 -0.17191
Br Br 0.176918 0.0107767 0.25227 -0.17191
Br Br 0.424499 0.994547 0.254997 -0.17191
N_ N_ 0.131812 0.249432 0.348477 -0.272
N_ N_ 0.38759 0.256808 0.351007 -0.272
N_ N_ 0.139976 0.248786 0.481444 -0.12501
N_ N_ 0.376166 0.248848 0.483915 -0.12501
N_ N_ 0.118395 0.251889 0.140739 -0.272
N_ N_ 0.376844 0.24607 0.142069 -0.272
N_ N_ 0.118134 0.264648 0.00806553 -0.12501
N_ N_ 0.367724 0.236719 0.0109636 -0.12501
O_ O_ 0.0898401 0.292452 0.214449 -0.60745
O_ O_ 0.353042 0.30197 0.211759 -0.60745
O_ O_ 0.0958275 0.296344 0.282098 -0.60745
O_ O_ 0.351821 0.302402 0.2819 -0.60745
O_ O_ 0.157234 0.29538 0.277871 -0.60745
O_ O_ 0.414024 0.2909 0.275849 -0.60745
O_ O_ 0.148376 0.297673 0.208514 -0.60745
O_ O_ 0.414512 0.290371 0.206718 -0.60745
O_ O_ 0.149186 0.202776 0.274349 -0.60745
O_ O_ 0.408594 0.20634 0.281606 -0.60745
O_ O_ 0.158667 0.210246 0.208588 -0.60745
O_ O_ 0.405248 0.202234 0.211011 -0.60745
O_ O_ 0.0972479 0.201901 0.217035 -0.60745
O_ O_ 0.343147 0.214 0.213964 -0.60745
O_ O_ 0.0918616 0.211396 0.285053 -0.60745
O_ O_ 0.343804 0.214738 0.282329 -0.60745
Zn Zn 0.126378 0.251634 0.781671 0.9476
Zn Zn 0.373849 0.250711 0.784099 0.9476
Zn Zn 0.127098 0.245842 0.713026 0.9476
Zn Zn 0.370619 0.251391 0.715477 0.9476
H_ H_ 0.0175935 0.398348 0.68571 0.10932
H_ H_ 0.284396 0.422416 0.675084 0.10932
H_ H_ 0.0808933 0.363167 0.808711 0.10932
H_ H_ 0.309893 0.357422 0.811699 0.10932
H_ H_ 0.0515228 0.339378 0.681223 0.10932
H_ H_ 0.31547 0.358653 0.679129 0.10932
H_ H_ 0.0485323 0.424963 0.810845 0.10932
H_ H_ 0.291516 0.431142 0.808992 0.10932
H_ H_ 0.216416 0.418001 0.814768 0.10932
H_ H_ 0.455627 0.423526 0.81558 0.10932
H_ H_ 0.186516 0.348731 0.678878 0.10932
H_ H_ 0.441071 0.337659 0.684492 0.10932
H_ H_ 0.198002 0.349235 0.817318 0.10932
H_ H_ 0.434351 0.356283 0.81776 0.10932
H_ H_ 0.204683 0.421701 0.67915 0.10932
H_ H_ 0.465133 0.407467 0.6813 0.10932
H_ H_ 0.217621 0.0846384 0.81779 0.10932
H_ H_ 0.466497 0.078818 0.817795 0.10932
H_ H_ 0.197176 0.152486 0.684429 0.10932
H_ H_ 0.436459 0.150145 0.684621 0.10932
H_ H_ 0.183669 0.14461 0.818069 0.10932
H_ H_ 0.437784 0.144517 0.820212 0.10932
H_ H_ 0.225543 0.0891126 0.689401 0.10932
H_ H_ 0.459107 0.0787088 0.68192 0.10932
H_ H_ 0.0316395 0.0814528 0.6801 0.10932
H_ H_ 0.287084 0.077445 0.678369 0.10932
H_ H_ 0.0747542 0.142413 0.812567 0.10932
H_ H_ 0.312191 0.14875 0.811668 0.10932
H_ H_ 0.0701522 0.140141 0.679506 0.10932
H_ H_ 0.320299 0.1395 0.680488 0.10932
H_ H_ 0.0375051 0.0856904 0.816418 0.10932
H_ H_ 0.29055 0.0764294 0.814694 0.10932
H_ H_ 0.103774 0.302775 0.856638 0.10932
H_ H_ 0.374012 0.314311 0.847982 0.10932
H_ H_ 0.146899 0.185876 0.854321 0.10932
H_ H_ 0.375339 0.186219 0.866145 0.10932
H_ H_ 0.14493 0.178065 0.930535 0.10932
H_ H_ 0.369631 0.192328 0.939232 0.10932
H_ H_ 0.107617 0.303686 0.935878 0.10932
H_ H_ 0.381027 0.325216 0.928532 0.10932
H_ H_ 0.116242 0.180127 0.637357 0.10932
H_ H_ 0.384079 0.188294 0.640523 0.10932
H_ H_ 0.148517 0.303882 0.630879 0.10932
H_ H_ 0.373462 0.316967 0.646061 0.10932
H_ H_ 0.145289 0.302403 0.549736 0.10932
H_ H_ 0.377045 0.322652 0.566764 0.10932
H_ H_ 0.113051 0.176499 0.563024 0.10932
H_ H_ 0.393225 0.190863 0.565294 0.10932
C_ C_ 0.0702526 0.345859 0.745464 -0.02249
C_ C_ 0.313829 0.350231 0.744496 -0.02249
C_ C_ 0.0163334 0.460141 0.744075 -0.02249
C_ C_ 0.262828 0.463947 0.74265 -0.02249
C_ C_ 0.033388 0.392312 0.711329 -0.11473
C_ C_ 0.290186 0.408176 0.705188 -0.11473
C_ C_ 0.0660387 0.370161 0.783613 -0.11473
C_ C_ 0.30639 0.370882 0.782664 -0.11473
C_ C_ 0.0517289 0.357125 0.710188 -0.11473
C_ C_ 0.30487 0.369612 0.706446 -0.11473
C_ C_ 0.0327177 0.418906 0.74572 -0.02249
C_ C_ 0.28162 0.425958 0.742818 -0.02249
C_ C_ 0.0881639 0.307662 0.748277 0.6875
C_ C_ 0.332207 0.310749 0.745197 0.6875
C_ C_ 0.0487422 0.405621 0.78183 -0.11473
C_ C_ 0.28937 0.409437 0.781648 -0.11473
C_ C_ 0.186415 0.346089 0.747652 -0.02249
C_ C_ 0.435483 0.341578 0.751734 -0.02249
C_ C_ 0.23166 0.462653 0.747851 -0.02249
C_ C_ 0.483715 0.457969 0.749219 -0.02249
C_ C_ 0.211273 0.403324 0.784752 -0.11473
C_ C_ 0.457623 0.402412 0.788077 -0.11473
C_ C_ 0.191672 0.36439 0.70956 -0.11473
C_ C_ 0.445949 0.356594 0.713686 -0.11473
C_ C_ 0.196711 0.365358 0.786517 -0.11473
C_ C_ 0.444283 0.36296 0.789341 -0.11473
C_ C_ 0.216215 0.422283 0.746173 -0.02249
C_ C_ 0.464742 0.419397 0.748635 -0.02249
C_ C_ 0.166953 0.308104 0.749253 0.6875
C_ C_ 0.413121 0.309424 0.751108 0.6875
C_ C_ 0.204892 0.404022 0.708752 -0.11473
C_ C_ 0.458193 0.396476 0.71195 -0.11473
C_ C_ 0.184542 0.150244 0.750568 -0.02249
C_ C_ 0.433156 0.15142 0.751229 -0.02249
C_ C_ 0.235104 0.0376008 0.751985 -0.02249
C_ C_ 0.485547 0.0356601 0.750233 -0.02249
C_ C_ 0.20904 0.0948526 0.789925 -0.11473
C_ C_ 0.462696 0.095961 0.789429 -0.11473
C_ C_ 0.195768 0.13264 0.713162 -0.11473
C_ C_ 0.441178 0.132304 0.713541 -0.11473
C_ C_ 0.193171 0.132872 0.788315 -0.11473
C_ C_ 0.443842 0.13116 0.790614 -0.11473
C_ C_ 0.218539 0.0775788 0.752627 -0.02249
C_ C_ 0.467416 0.074928 0.749979 -0.02249
C_ C_ 0.164696 0.187544 0.747763 0.6875
C_ C_ 0.411413 0.187581 0.748849 0.6875
C_ C_ 0.214677 0.100406 0.716235 -0.11473
C_ C_ 0.456346 0.0937605 0.712839 -0.11473
C_ C_ 0.0724996 0.148869 0.746549 -0.02249
C_ C_ 0.31389 0.152983 0.746281 -0.02249
C_ C_ 0.0184553 0.0364796 0.748892 -0.02249
C_ C_ 0.266301 0.0347909 0.747051 -0.02249
C_ C_ 0.0440292 0.0944932 0.70982 -0.11473
C_ C_ 0.293176 0.0922208 0.708531 -0.11473
C_ C_ 0.0636999 0.130854 0.783836 -0.11473
C_ C_ 0.306857 0.132287 0.783985 -0.11473
C_ C_ 0.0622686 0.1301 0.708995 -0.11473
C_ C_ 0.308932 0.130505 0.708805 -0.11473
C_ C_ 0.0362767 0.0772374 0.747426 -0.02249
C_ C_ 0.285055 0.0731816 0.745336 -0.02249
C_ C_ 0.0889314 0.187947 0.746634 0.6875
C_ C_ 0.333278 0.189941 0.745249 0.6875
C_ C_ 0.0444631 0.0972593 0.784993 -0.11473
C_ C_ 0.293576 0.0928216 0.784072 -0.11473
C_ C_ 0.116165 0.27813 0.873583 0.17695
C_ C_ 0.372694 0.289555 0.87166 0.17695
C_ C_ 0.138493 0.211377 0.872245 0.17695
C_ C_ 0.371544 0.215986 0.87878 0.17695
C_ C_ 0.135784 0.206304 0.915301 -0.11473
C_ C_ 0.372659 0.22053 0.92118 -0.11473
C_ C_ 0.123958 0.240341 0.938536 0.23465
C_ C_ 0.372902 0.259933 0.941518 0.23465
C_ C_ 0.116959 0.27769 0.918511 -0.11473
C_ C_ 0.377685 0.29482 0.915412 -0.11473
C_ C_ 0.121373 0.207173 0.61869 0.17695
C_ C_ 0.382716 0.21664 0.623739 0.17695
C_ C_ 0.139234 0.276799 0.615184 0.17695
C_ C_ 0.373931 0.289439 0.625489 0.17695
C_ C_ 0.139087 0.275705 0.570181 -0.11473
C_ C_ 0.379725 0.292566 0.581346 -0.11473
C_ C_ 0.128589 0.239041 0.551121 0.23465
C_ C_ 0.386287 0.257484 0.557535 0.23465
C_ C_ 0.120943 0.205836 0.575563 -0.11473
C_ C_ 0.38842 0.218736 0.579588 -0.11473
C_ C_ 0.0307666 0.497597 0.74128 0.05793
C_ C_ 0.278125 0.502951 0.74293 0.05793
C_ C_ 0.21818 0.0007999999999999119 0.746837 0.05793
C_ C_ 0.469529 0.997993 0.753745 0.05793
Br Br 0.0743692 0.497496 0.748989 -0.17191
Br Br 0.320922 0.504596 0.731048 -0.17191
Br Br 0.174248 0.00423513 0.747953 -0.17191
Br Br 0.424739 1.000320101 0.752902 -0.17191
N_ N_ 0.125684 0.244469 0.851406 -0.272
N_ N_ 0.370572 0.250533 0.854172 -0.272
N_ N_ 0.122665 0.235402 0.9829 -0.12501
N_ N_ 0.375835 0.263815 0.985998 -0.12501
N_ N_ 0.128504 0.243716 0.639704 -0.272
N_ N_ 0.372305 0.250769 0.645124 -0.272
N_ N_ 0.120898 0.238083 0.507032 -0.12501
N_ N_ 0.393797 0.260394 0.51419 -0.12501
O_ O_ 0.0971816 0.288301 0.71685 -0.60745
O_ O_ 0.3423 0.294378 0.71122 -0.60745
O_ O_ 0.0926494 0.290365 0.782494 -0.60745
O_ O_ 0.341915 0.295501 0.779512 -0.60745
O_ O_ 0.15612 0.296311 0.782976 -0.60745
O_ O_ 0.404093 0.296189 0.785638 -0.60745
O_ O_ 0.15766 0.28948 0.715238 -0.60745
O_ O_ 0.402321 0.292559 0.717118 -0.60745
O_ O_ 0.161178 0.208618 0.780094 -0.60745
O_ O_ 0.403963 0.204044 0.783747 -0.60745
O_ O_ 0.158518 0.202938 0.713301 -0.60745
O_ O_ 0.402644 0.203872 0.714472 -0.60745
O_ O_ 0.0955748 0.203017 0.712264 -0.60745
O_ O_ 0.33734 0.2091 0.709158 -0.60745
O_ O_ 0.0982359 0.203287 0.781713 -0.60745
O_ O_ 0.34369 0.20489 0.779866 -0.60745
Zn Zn 0.125656 0.75343 0.285468 0.9476
Zn Zn 0.37533 0.752752 0.291335 0.9476
Zn Zn 0.123821 0.755132 0.216029 0.9476
Zn Zn 0.376662 0.753298 0.220715 0.9476
H_ H_ 0.0420044 0.927335 0.189872 0.10932
H_ H_ 0.28103 0.908915 0.188274 0.10932
H_ H_ 0.0603128 0.847685 0.322173 0.10932
H_ H_ 0.316942 0.857007 0.325478 0.10932
H_ H_ 0.0686502 0.860282 0.187506 0.10932
H_ H_ 0.304067 0.842973 0.193235 0.10932
H_ H_ 0.0313026 0.910498 0.323058 0.10932
H_ H_ 0.286461 0.922405 0.319777 0.10932
H_ H_ 0.224762 0.909517 0.318773 0.10932
H_ H_ 0.46786 0.917933 0.313357 0.10932
H_ H_ 0.178733 0.86399 0.18362 0.10932
H_ H_ 0.436771 0.846151 0.184293 0.10932
H_ H_ 0.183053 0.860983 0.321404 0.10932
H_ H_ 0.439334 0.856414 0.32145 0.10932
H_ H_ 0.212246 0.924348 0.186518 0.10932
H_ H_ 0.46648 0.910995 0.18011 0.10932
H_ H_ 0.199359 0.566797 0.300823 0.10932
H_ H_ 0.44952 0.567042 0.308475 0.10932
H_ H_ 0.205732 0.672549 0.191355 0.10932
H_ H_ 0.446121 0.66063 0.184351 0.10932
H_ H_ 0.173277 0.63309 0.30858 0.10932
H_ H_ 0.423385 0.635496 0.309704 0.10932
H_ H_ 0.232197 0.60432 0.182791 0.10932
H_ H_ 0.475588 0.594025 0.181839 0.10932
H_ H_ 0.0228473 0.597578 0.178977 0.10932
H_ H_ 0.284716 0.591787 0.181901 0.10932
H_ H_ 0.070342 0.641667 0.312335 0.10932
H_ H_ 0.318535 0.640702 0.320858 0.10932
H_ H_ 0.060146 0.658422 0.179485 0.10932
H_ H_ 0.309559 0.656386 0.185084 0.10932
H_ H_ 0.0514599 0.574719 0.308635 0.10932
H_ H_ 0.283854 0.581109 0.31587 0.10932
H_ H_ 0.123022 0.816759 0.35557 0.10932
H_ H_ 0.370613 0.817482 0.372776 0.10932
H_ H_ 0.130534 0.685574 0.362075 0.10932
H_ H_ 0.384338 0.691785 0.358247 0.10932
H_ H_ 0.133416 0.690997 0.440494 0.10932
H_ H_ 0.386011 0.682388 0.438956 0.10932
H_ H_ 0.126562 0.824552 0.434774 0.10932
H_ H_ 0.372015 0.814688 0.448538 0.10932
H_ H_ 0.135356 0.695125 0.140176 0.10932
H_ H_ 0.374819 0.813712 0.15026 0.10932
H_ H_ 0.108166 0.820442 0.140453 0.10932
H_ H_ 0.376142 0.686765 0.138306 0.10932
H_ H_ 0.106939 0.821962 0.0603045 0.10932
H_ H_ 0.376243 0.691557 0.0578638 0.10932
H_ H_ 0.129287 0.693869 0.057365 0.10932
H_ H_ 0.374524 0.820283 0.0680982 0.10932
C_ C_ 0.0636239 0.849581 0.255085 -0.02249
C_ C_ 0.31332 0.844218 0.259291 -0.02249
C_ C_ 0.0157379 0.961747 0.255667 -0.02249
C_ C_ 0.26703 0.963679 0.24953 -0.02249
C_ C_ 0.0443385 0.909221 0.218302 -0.11473
C_ C_ 0.2884 0.898724 0.218813 -0.11473
C_ C_ 0.0530809 0.86204 0.29312 -0.11473
C_ C_ 0.306483 0.868551 0.294763 -0.11473
C_ C_ 0.0606249 0.872497 0.217768 -0.11473
C_ C_ 0.30007 0.859207 0.221423 -0.11473
C_ C_ 0.0320402 0.922607 0.256013 -0.02249
C_ C_ 0.283686 0.921909 0.252561 -0.02249
C_ C_ 0.0837322 0.811166 0.25259 0.6875
C_ C_ 0.334275 0.807641 0.260753 0.6875
C_ C_ 0.0365405 0.898705 0.293414 -0.11473
C_ C_ 0.292658 0.906369 0.29167 -0.11473
C_ C_ 0.180463 0.853764 0.251129 -0.02249
C_ C_ 0.437925 0.843334 0.253996 -0.02249
C_ C_ 0.235835 0.963853 0.255515 -0.02249
C_ C_ 0.484211 0.96126 0.244464 -0.02249
C_ C_ 0.21063 0.906295 0.291204 -0.11473
C_ C_ 0.460528 0.903426 0.285479 -0.11473
C_ C_ 0.184573 0.875961 0.214096 -0.11473
C_ C_ 0.444503 0.862359 0.214239 -0.11473
C_ C_ 0.192078 0.870799 0.290095 -0.11473
C_ C_ 0.446623 0.864996 0.289813 -0.11473
C_ C_ 0.21764 0.925404 0.252559 -0.02249
C_ C_ 0.467516 0.921634 0.246355 -0.02249
C_ C_ 0.162263 0.816115 0.251414 0.6875
C_ C_ 0.420659 0.802632 0.255139 0.6875
C_ C_ 0.204206 0.911339 0.21488 -0.11473
C_ C_ 0.460533 0.899419 0.210973 -0.11473
C_ C_ 0.183993 0.656463 0.247394 -0.02249
C_ C_ 0.437134 0.657013 0.25059 -0.02249
C_ C_ 0.234381 0.543202 0.239025 -0.02249
C_ C_ 0.48421 0.539932 0.245144 -0.02249
C_ C_ 0.198716 0.589662 0.275082 -0.11473
C_ C_ 0.450748 0.589298 0.281898 -0.11473
C_ C_ 0.201111 0.647665 0.212139 -0.11473
C_ C_ 0.452248 0.643982 0.214026 -0.11473
C_ C_ 0.183816 0.628052 0.279598 -0.11473
C_ C_ 0.436615 0.628025 0.284329 -0.11473
C_ C_ 0.217154 0.582579 0.2414 -0.02249
C_ C_ 0.467974 0.578681 0.24642 -0.02249
C_ C_ 0.165131 0.695402 0.248188 0.6875
C_ C_ 0.416847 0.695179 0.250443 0.6875
C_ C_ 0.218555 0.611649 0.209783 -0.11473
C_ C_ 0.466151 0.604784 0.210297 -0.11473
C_ C_ 0.0675831 0.655364 0.246482 -0.02249
C_ C_ 0.319061 0.654012 0.254385 -0.02249
C_ C_ 0.0162901 0.540055 0.237764 -0.02249
C_ C_ 0.265896 0.540501 0.241287 -0.02249
C_ C_ 0.0386235 0.603503 0.205602 -0.11473
C_ C_ 0.293884 0.601311 0.212323 -0.11473
C_ C_ 0.0588769 0.634704 0.283032 -0.11473
C_ C_ 0.31012 0.632055 0.290392 -0.11473
C_ C_ 0.0562915 0.640744 0.207678 -0.11473
C_ C_ 0.308811 0.638163 0.21456 -0.11473
C_ C_ 0.0344975 0.580206 0.241744 -0.02249
C_ C_ 0.28263 0.580559 0.247251 -0.02249
C_ C_ 0.0859727 0.693899 0.247673 0.6875
C_ C_ 0.338634 0.692889 0.256379 0.6875
C_ C_ 0.0448451 0.595373 0.280691 -0.11473
C_ C_ 0.292297 0.594527 0.28687 -0.11473
C_ C_ 0.125716 0.789292 0.373484 0.17695
C_ C_ 0.375367 0.789202 0.386989 0.17695
C_ C_ 0.129889 0.715939 0.377178 0.17695
C_ C_ 0.384507 0.7165 0.380077 0.17695
C_ C_ 0.130483 0.719625 0.422379 -0.11473
C_ C_ 0.382448 0.711738 0.423449 -0.11473
C_ C_ 0.125887 0.758464 0.442011 0.23465
C_ C_ 0.378897 0.746953 0.449058 0.23465
C_ C_ 0.128882 0.794872 0.418243 -0.11473
C_ C_ 0.373816 0.785321 0.430249 -0.11473
C_ C_ 0.126455 0.721959 0.120623 0.17695
C_ C_ 0.375515 0.788427 0.128882 0.17695
C_ C_ 0.113486 0.791188 0.123281 0.17695
C_ C_ 0.371689 0.71633 0.122268 0.17695
C_ C_ 0.114462 0.79373 0.0782674 -0.11473
C_ C_ 0.373558 0.719419 0.0784831 -0.11473
C_ C_ 0.119157 0.758677 0.0544518 0.23465
C_ C_ 0.371206 0.758118 0.0601667 0.23465
C_ C_ 0.125524 0.721614 0.0753286 -0.11473
C_ C_ 0.374518 0.792507 0.0850071 -0.11473
C_ C_ 0.0327672 0.999249 0.259267 0.05793
C_ C_ 0.2843 1.00108786 0.245496 0.05793
C_ C_ 0.216916 0.505267 0.240616 0.05793
C_ C_ 0.466441 0.501969 0.243298 0.05793
Br Br 0.0760405 0.00152622 0.261984 -0.17191
Br Br 0.326714 1.00024 0.249307 -0.17191
Br Br 0.174621 0.509177 0.226766 -0.17191
Br Br 0.425401 0.50258 0.2274 -0.17191
N_ N_ 0.128332 0.751438 0.355693 -0.272
N_ N_ 0.381001 0.754145 0.362273 -0.272
N_ N_ 0.130163 0.76131 0.485269 -0.12501
N_ N_ 0.37922 0.739564 0.493347 -0.12501
N_ N_ 0.120205 0.755626 0.143348 -0.272
N_ N_ 0.371693 0.751703 0.146672 -0.272
N_ N_ 0.117815 0.763018 0.00866751 -0.12501
N_ N_ 0.372823 0.761893 0.01601 -0.12501
O_ O_ 0.0891497 0.793349 0.217888 -0.60745
O_ O_ 0.344542 0.793754 0.227306 -0.60745
O_ O_ 0.0957767 0.796153 0.286073 -0.60745
O_ O_ 0.344529 0.795831 0.294884 -0.60745
O_ O_ 0.155743 0.799274 0.285735 -0.60745
O_ O_ 0.408174 0.792373 0.290528 -0.60745
O_ O_ 0.15338 0.799038 0.217513 -0.60745
O_ O_ 0.408227 0.791919 0.219796 -0.60745
O_ O_ 0.153132 0.707072 0.281719 -0.60745
O_ O_ 0.405271 0.70646 0.284789 -0.60745
O_ O_ 0.158504 0.712014 0.213553 -0.60745
O_ O_ 0.405762 0.709416 0.216025 -0.60745
O_ O_ 0.0962433 0.70983 0.213992 -0.60745
O_ O_ 0.343497 0.712852 0.222945 -0.60745
O_ O_ 0.0925531 0.712963 0.282144 -0.60745
O_ O_ 0.34735 0.707354 0.291864 -0.60745
Zn Zn 0.12362 0.743747 0.780538 0.9476
Zn Zn 0.374729 0.746418 0.789385 0.9476
Zn Zn 0.123008 0.74687 0.712581 0.9476
Zn Zn 0.375031 0.747214 0.718713 0.9476
H_ H_ 0.03749 0.912814 0.683138 0.10932
H_ H_ 0.292514 0.919173 0.684253 0.10932
H_ H_ 0.0545089 0.838511 0.821334 0.10932
H_ H_ 0.306179 0.847861 0.821012 0.10932
H_ H_ 0.0567673 0.845342 0.686504 0.10932
H_ H_ 0.320025 0.856134 0.684652 0.10932
H_ H_ 0.0313456 0.906642 0.819673 0.10932
H_ H_ 0.280566 0.910757 0.813446 0.10932
H_ H_ 0.204894 0.919585 0.814535 0.10932
H_ H_ 0.453113 0.922969 0.823981 0.10932
H_ H_ 0.184527 0.844259 0.680368 0.10932
H_ H_ 0.436156 0.847664 0.68763 0.10932
H_ H_ 0.172228 0.861202 0.815186 0.10932
H_ H_ 0.415337 0.870741 0.818391 0.10932
H_ H_ 0.215564 0.909263 0.68233 0.10932
H_ H_ 0.465038 0.910564 0.686941 0.10932
H_ H_ 0.224045 0.594417 0.814507 0.10932
H_ H_ 0.457992 0.570254 0.815505 0.10932
H_ H_ 0.172682 0.633701 0.681566 0.10932
H_ H_ 0.454193 0.660429 0.692526 0.10932
H_ H_ 0.200311 0.66469 0.808598 0.10932
H_ H_ 0.427899 0.632725 0.815879 0.10932
H_ H_ 0.201354 0.568103 0.688107 0.10932
H_ H_ 0.478591 0.590634 0.683277 0.10932
H_ H_ 0.0380493 0.576695 0.67843 0.10932
H_ H_ 0.274939 0.591379 0.68467 0.10932
H_ H_ 0.0558403 0.647745 0.815195 0.10932
H_ H_ 0.316346 0.644567 0.819851 0.10932
H_ H_ 0.0651949 0.642269 0.677596 0.10932
H_ H_ 0.299614 0.658387 0.689608 0.10932
H_ H_ 0.0265918 0.580148 0.809977 0.10932
H_ H_ 0.287606 0.579003 0.818958 0.10932
H_ H_ 0.110256 0.803697 0.858648 0.10932
H_ H_ 0.388934 0.804868 0.869067 0.10932
H_ H_ 0.135494 0.679824 0.856065 0.10932
H_ H_ 0.36932 0.677798 0.860892 0.10932
H_ H_ 0.146477 0.678403 0.930593 0.10932
H_ H_ 0.363627 0.675539 0.941254 0.10932
H_ H_ 0.11793 0.807359 0.931634 0.10932
H_ H_ 0.398325 0.798509 0.943731 0.10932
H_ H_ 0.108954 0.684235 0.641956 0.10932
H_ H_ 0.380056 0.81815 0.65274 0.10932
H_ H_ 0.131754 0.810351 0.633476 0.10932
H_ H_ 0.372548 0.68746 0.636859 0.10932
H_ H_ 0.126303 0.809158 0.555894 0.10932
H_ H_ 0.370302 0.694968 0.560331 0.10932
H_ H_ 0.106807 0.679999 0.563238 0.10932
H_ H_ 0.379844 0.826332 0.572348 0.10932
C_ C_ 0.0606415 0.838525 0.753818 -0.02249
C_ C_ 0.310258 0.838798 0.751894 -0.02249
C_ C_ 0.0165479 0.958589 0.754118 -0.02249
C_ C_ 0.264222 0.958179 0.747162 -0.02249
C_ C_ 0.0392291 0.897227 0.714925 -0.11473
C_ C_ 0.29361 0.900511 0.712878 -0.11473
C_ C_ 0.0514287 0.855774 0.791227 -0.11473
C_ C_ 0.299763 0.85734 0.789431 -0.11473
C_ C_ 0.0522285 0.859099 0.715931 -0.11473
C_ C_ 0.309328 0.862956 0.713948 -0.11473
C_ C_ 0.0333578 0.918265 0.753162 -0.02249
C_ C_ 0.281101 0.917153 0.748519 -0.02249
C_ C_ 0.0818866 0.801812 0.751677 0.6875
C_ C_ 0.33283 0.803064 0.754707 0.6875
C_ C_ 0.0366991 0.894237 0.790489 -0.11473
C_ C_ 0.284971 0.895669 0.785744 -0.11473
C_ C_ 0.17802 0.846915 0.747698 -0.02249
C_ C_ 0.429806 0.848842 0.756028 -0.02249
C_ C_ 0.231989 0.960302 0.744343 -0.02249
C_ C_ 0.484701 0.958603 0.753911 -0.02249
C_ C_ 0.201222 0.904175 0.784735 -0.11473
C_ C_ 0.45491 0.902486 0.797165 -0.11473
C_ C_ 0.191172 0.859358 0.710377 -0.11473
C_ C_ 0.443419 0.862784 0.71913 -0.11473
C_ C_ 0.183554 0.868856 0.784875 -0.11473
C_ C_ 0.433474 0.870379 0.794379 -0.11473
C_ C_ 0.21165 0.922304 0.747378 -0.02249
C_ C_ 0.465797 0.919305 0.756246 -0.02249
C_ C_ 0.160843 0.806892 0.747784 0.6875
C_ C_ 0.413076 0.809894 0.756528 0.6875
C_ C_ 0.203777 0.900028 0.709798 -0.11473
C_ C_ 0.45931 0.897525 0.717734 -0.11473
C_ C_ 0.182616 0.652061 0.745088 -0.02249
C_ C_ 0.436937 0.65167 0.753875 -0.02249
C_ C_ 0.230229 0.538084 0.752483 -0.02249
C_ C_ 0.48471 0.532492 0.752307 -0.02249
C_ C_ 0.21413 0.604332 0.785402 -0.11473
C_ C_ 0.454173 0.586741 0.786953 -0.11473
C_ C_ 0.183048 0.624849 0.710224 -0.11473
C_ C_ 0.453775 0.640164 0.71796 -0.11473
C_ C_ 0.199215 0.642508 0.782654 -0.11473
C_ C_ 0.437312 0.622852 0.787924 -0.11473
C_ C_ 0.214334 0.57774 0.749403 -0.02249
C_ C_ 0.468593 0.574559 0.75034 -0.02249
C_ C_ 0.163909 0.69117 0.743421 0.6875
C_ C_ 0.415389 0.687004 0.753583 0.6875
C_ C_ 0.19685 0.586501 0.713738 -0.11473
C_ C_ 0.467622 0.60021 0.714329 -0.11473
C_ C_ 0.0657296 0.646309 0.748036 -0.02249
C_ C_ 0.314894 0.652036 0.752758 -0.02249
C_ C_ 0.013783 0.535458 0.74305 -0.02249
C_ C_ 0.262213 0.539598 0.750225 -0.02249
C_ C_ 0.0437617 0.590419 0.70786 -0.11473
C_ C_ 0.286128 0.599304 0.712641 -0.11473
C_ C_ 0.0543452 0.628619 0.784367 -0.11473
C_ C_ 0.308107 0.631993 0.789987 -0.11473
C_ C_ 0.0620427 0.626986 0.708531 -0.11473
C_ C_ 0.301486 0.637358 0.715528 -0.11473
C_ C_ 0.0322911 0.574334 0.744709 -0.02249
C_ C_ 0.278951 0.580182 0.750371 -0.02249
C_ C_ 0.0849752 0.6846 0.747181 0.6875
C_ C_ 0.333896 0.689951 0.754432 0.6875
C_ C_ 0.0395667 0.591118 0.783344 -0.11473
C_ C_ 0.289592 0.595887 0.789983 -0.11473
C_ C_ 0.115569 0.776285 0.875346 0.17695
C_ C_ 0.386055 0.774945 0.883997 0.17695
C_ C_ 0.1318 0.706597 0.874904 0.17695
C_ C_ 0.370216 0.705351 0.8807 0.17695
C_ C_ 0.135471 0.70651 0.917487 -0.11473
C_ C_ 0.371123 0.702168 0.924795 -0.11473
C_ C_ 0.128316 0.740376 0.941441 0.23465
C_ C_ 0.382295 0.735748 0.948853 0.23465
C_ C_ 0.118711 0.776891 0.917973 -0.11473
C_ C_ 0.388874 0.771826 0.928103 -0.11473
C_ C_ 0.1141 0.711158 0.624135 0.17695
C_ C_ 0.376925 0.791436 0.631966 0.17695
C_ C_ 0.126757 0.78104 0.618204 0.17695
C_ C_ 0.376953 0.718394 0.623094 0.17695
C_ C_ 0.121162 0.781068 0.573568 -0.11473
C_ C_ 0.373052 0.722677 0.579192 -0.11473
C_ C_ 0.11762 0.743482 0.554719 0.23465
C_ C_ 0.375561 0.761801 0.561572 0.23465
C_ C_ 0.109239 0.70879 0.579676 -0.11473
C_ C_ 0.373905 0.796468 0.588158 -0.11473
C_ C_ 0.0335337 -0.002314999999999956 0.75204 0.05793
C_ C_ 0.281474 -0.004526999999999948 0.748224 0.05793
C_ C_ 0.215172 0.499589 0.750331 0.05793
C_ C_ 0.469062 0.495631 0.745377 0.05793
Br Br 0.0758865 -0.0034039999999999626 0.761691 -0.17191
Br Br 0.323827 -0.006333000000000033 0.753371 -0.17191
Br Br 0.172754 0.498776 0.764277 -0.17191
Br Br 0.427773 0.495141 0.727557 -0.17191
N_ N_ 0.125754 0.742771 0.853297 -0.272
N_ N_ 0.375315 0.742339 0.861024 -0.272
N_ N_ 0.132102 0.739036 0.985161 -0.12501
N_ N_ 0.384631 0.733773 0.993422 -0.12501
N_ N_ 0.121279 0.747523 0.642509 -0.272
N_ N_ 0.376914 0.752261 0.648608 -0.272
N_ N_ 0.114807 0.740057 0.510444 -0.12501
N_ N_ 0.376334 0.768435 0.518504 -0.12501
O_ O_ 0.0904094 0.788339 0.716307 -0.60745
O_ O_ 0.343928 0.789299 0.721228 -0.60745
O_ O_ 0.0900764 0.783342 0.784733 -0.60745
O_ O_ 0.343405 0.791394 0.790778 -0.60745
O_ O_ 0.14795 0.794382 0.781164 -0.60745
O_ O_ 0.405989 0.792257 0.79094 -0.60745
O_ O_ 0.152049 0.791089 0.714233 -0.60745
O_ O_ 0.406204 0.791948 0.721573 -0.60745
O_ O_ 0.15643 0.706756 0.778853 -0.60745
O_ O_ 0.406332 0.700735 0.788571 -0.60745
O_ O_ 0.152432 0.703677 0.708665 -0.60745
O_ O_ 0.405754 0.70175 0.718993 -0.60745
O_ O_ 0.0937255 0.700547 0.713484 -0.60745
O_ O_ 0.341692 0.707022 0.72056 -0.60745
O_ O_ 0.0963557 0.695633 0.782221 -0.60745
O_ O_ 0.34373 0.701053 0.790123 -0.60745
Zn Zn 0.62033 0.251934 0.284227 0.9476
Zn Zn 0.876792 0.252983 0.284215 0.9476
Zn Zn 0.623628 0.253641 0.215716 0.9476
Zn Zn 0.876153 0.253832 0.215507 0.9476
H_ H_ 0.529912 0.415716 0.180504 0.10932
H_ H_ 0.798589 0.434141 0.193022 0.10932
H_ H_ 0.563012 0.357513 0.31792 0.10932
H_ H_ 0.796002 0.336584 0.312263 0.10932
H_ H_ 0.550814 0.342366 0.184518 0.10932
H_ H_ 0.834633 0.375699 0.197492 0.10932
H_ H_ 0.53805 0.424191 0.315296 0.10932
H_ H_ 0.767415 0.407322 0.315058 0.10932
H_ H_ 0.693142 0.432083 0.310561 0.10932
H_ H_ 0.970095 0.418817 0.320866 0.10932
H_ H_ 0.707943 0.33213 0.19512 0.10932
H_ H_ 0.943639 0.350273 0.187615 0.10932
H_ H_ 0.662035 0.367998 0.308469 0.10932
H_ H_ 0.949635 0.34972 0.320529 0.10932
H_ H_ 0.733981 0.400334 0.195216 0.10932
H_ H_ 0.96659 0.418793 0.185091 0.10932
H_ H_ 0.701119 0.0822362 0.320803 0.10932
H_ H_ 0.976227 0.0910575 0.316993 0.10932
H_ H_ 0.688665 0.150098 0.185707 0.10932
H_ H_ 0.931763 0.140352 0.181621 0.10932
H_ H_ 0.675337 0.145063 0.321675 0.10932
H_ H_ 0.952672 0.159536 0.311712 0.10932
H_ H_ 0.735039 0.108884 0.19695 0.10932
H_ H_ 0.960539 0.0738015 0.186541 0.10932
H_ H_ 0.544121 0.0764306 0.18819 0.10932
H_ H_ 0.791251 0.0771546 0.186388 0.10932
H_ H_ 0.56772 0.143041 0.321585 0.10932
H_ H_ 0.80558 0.159644 0.313816 0.10932
H_ H_ 0.566181 0.146052 0.186835 0.10932
H_ H_ 0.818254 0.141619 0.18196 0.10932
H_ H_ 0.533187 0.0844198 0.321898 0.10932
H_ H_ 0.782177 0.0941611 0.317814 0.10932
H_ H_ 0.577307 0.259634 0.359421 0.10932
H_ H_ 0.88559 0.18294 0.347825 0.10932
H_ H_ 0.672429 0.24593 0.350408 0.10932
H_ H_ 0.867492 0.311119 0.364145 0.10932
H_ H_ 0.674787 0.230105 0.428915 0.10932
H_ H_ 0.868791 0.301101 0.44623 0.10932
H_ H_ 0.58227 0.249753 0.440463 0.10932
H_ H_ 0.890426 0.174325 0.420471 0.10932
H_ H_ 0.618772 0.18478 0.134305 0.10932
H_ H_ 0.904779 0.198433 0.13 0.10932
H_ H_ 0.618102 0.314058 0.143666 0.10932
H_ H_ 0.852915 0.307238 0.143724 0.10932
H_ H_ 0.618435 0.324533 0.065439 0.10932
H_ H_ 0.850823 0.314972 0.0686069 0.10932
H_ H_ 0.627754 0.191675 0.0580507 0.10932
H_ H_ 0.907449 0.208639 0.0538441 0.10932
C_ C_ 0.56084 0.3462 0.250241 -0.02249
C_ C_ 0.816291 0.34835 0.253269 -0.02249
C_ C_ 0.514447 0.4648 0.248899 -0.02249
C_ C_ 0.764627 0.460353 0.254861 -0.02249
C_ C_ 0.536585 0.402168 0.212318 -0.11473
C_ C_ 0.798819 0.41394 0.220518 -0.11473
C_ C_ 0.555889 0.368055 0.287986 -0.11473
C_ C_ 0.798954 0.360177 0.288726 -0.11473
C_ C_ 0.550486 0.36333 0.211615 -0.11473
C_ C_ 0.816413 0.376832 0.219173 -0.11473
C_ C_ 0.533233 0.425764 0.248951 -0.02249
C_ C_ 0.780405 0.421097 0.25352 -0.02249
C_ C_ 0.582801 0.312996 0.253085 0.6875
C_ C_ 0.836907 0.311152 0.251796 0.6875
C_ C_ 0.542208 0.407398 0.286242 -0.11473
C_ C_ 0.780875 0.39518 0.288503 -0.11473
C_ C_ 0.679971 0.348252 0.248726 -0.02249
C_ C_ 0.937391 0.348643 0.254376 -0.02249
C_ C_ 0.732465 0.46233 0.25169 -0.02249
C_ C_ 0.984713 0.465232 0.246452 -0.02249
C_ C_ 0.695831 0.411111 0.284173 -0.11473
C_ C_ 0.962288 0.405775 0.2921 -0.11473
C_ C_ 0.70228 0.356236 0.217311 -0.11473
C_ C_ 0.945634 0.367646 0.21734 -0.11473
C_ C_ 0.67617 0.377005 0.281268 -0.11473
C_ C_ 0.950657 0.366484 0.292541 -0.11473
C_ C_ 0.713727 0.42264 0.249655 -0.02249
C_ C_ 0.968645 0.425262 0.252415 -0.02249
C_ C_ 0.665103 0.306204 0.247749 0.6875
C_ C_ 0.916849 0.312225 0.252492 0.6875
C_ C_ 0.716369 0.395286 0.216051 -0.11473
C_ C_ 0.959751 0.406158 0.215507 -0.11473
C_ C_ 0.67915 0.153669 0.253875 -0.02249
C_ C_ 0.935374 0.152849 0.248969 -0.02249
C_ C_ 0.734657 0.0437679 0.255713 -0.02249
C_ C_ 0.985621 0.0378132 0.254503 -0.02249
C_ C_ 0.701623 0.0974619 0.290745 -0.11473
C_ C_ 0.964208 0.101734 0.288156 -0.11473
C_ C_ 0.694241 0.139295 0.217014 -0.11473
C_ C_ 0.941354 0.128751 0.211232 -0.11473
C_ C_ 0.686768 0.135069 0.292169 -0.11473
C_ C_ 0.949628 0.140005 0.286135 -0.11473
C_ C_ 0.717847 0.0850868 0.25582 -0.02249
C_ C_ 0.969728 0.0789295 0.251988 -0.02249
C_ C_ 0.658791 0.190426 0.250724 0.6875
C_ C_ 0.917907 0.1933 0.249538 0.6875
C_ C_ 0.716697 0.111093 0.220619 -0.11473
C_ C_ 0.959731 0.0944484 0.213012 -0.11473
C_ C_ 0.567455 0.152154 0.254317 -0.02249
C_ C_ 0.817484 0.156749 0.247937 -0.02249
C_ C_ 0.515123 0.0380793 0.251123 -0.02249
C_ C_ 0.766952 0.0406642 0.255013 -0.02249
C_ C_ 0.542777 0.095766 0.215856 -0.11473
C_ C_ 0.797515 0.0933338 0.213656 -0.11473
C_ C_ 0.55688 0.134946 0.291361 -0.11473
C_ C_ 0.806091 0.141053 0.287312 -0.11473
C_ C_ 0.560859 0.13128 0.216705 -0.11473
C_ C_ 0.812371 0.131482 0.211516 -0.11473
C_ C_ 0.533233 0.0776077 0.252633 -0.02249
C_ C_ 0.784717 0.0805649 0.25133 -0.02249
C_ C_ 0.58421 0.192349 0.254159 0.6875
C_ C_ 0.837729 0.193596 0.246607 0.6875
C_ C_ 0.539364 0.0991031 0.290409 -0.11473
C_ C_ 0.791326 0.102763 0.28788 -0.11473
C_ C_ 0.599041 0.255311 0.375106 0.17695
C_ C_ 0.883423 0.210347 0.366922 0.17695
C_ C_ 0.652393 0.250525 0.371589 0.17695
C_ C_ 0.870194 0.281864 0.378242 0.17695
C_ C_ 0.654888 0.244423 0.414897 -0.11473
C_ C_ 0.872011 0.276122 0.422776 -0.11473
C_ C_ 0.629977 0.246126 0.439876 0.23465
C_ C_ 0.879987 0.238365 0.438424 0.23465
C_ C_ 0.602115 0.250684 0.420044 -0.11473
C_ C_ 0.885043 0.204289 0.409212 -0.11473
C_ C_ 0.61956 0.215375 0.118045 0.17695
C_ C_ 0.894966 0.226806 0.118546 0.17695
C_ C_ 0.61994 0.288278 0.123452 0.17695
C_ C_ 0.863625 0.284472 0.123316 0.17695
C_ C_ 0.620741 0.291798 0.0790197 -0.11473
C_ C_ 0.861544 0.287621 0.0803774 -0.11473
C_ C_ 0.623026 0.257236 0.0545718 0.23465
C_ C_ 0.878496 0.262201 0.0537439 0.23465
C_ C_ 0.622267 0.218715 0.0744886 -0.11473
C_ C_ 0.895812 0.231506 0.0730214 -0.11473
C_ C_ 0.531247 0.502797 0.252382 0.05793
C_ C_ 0.780278 0.4978 0.262325 0.05793
C_ C_ 0.717563 1.0063489 0.250266 0.05793
C_ C_ 0.969372 0.999625925 0.258724 0.05793
Br Br 0.574165 0.501257 0.264587 -0.17191
Br Br 0.823548 0.496874 0.281134 -0.17191
Br Br 0.674102 0.0108657 0.242148 -0.17191
Br Br 0.925545 0.00496993 0.264542 -0.17191
N_ N_ 0.624765 0.250461 0.353151 -0.272
N_ N_ 0.875868 0.249156 0.352613 -0.272
N_ N_ 0.633378 0.246008 0.485654 -0.12501
N_ N_ 0.882511 0.232111 0.482881 -0.12501
N_ N_ 0.620098 0.250761 0.142566 -0.272
N_ N_ 0.880651 0.254776 0.142284 -0.272
N_ N_ 0.626334 0.264187 0.0099679 -0.12501
N_ N_ 0.876052 0.26587 0.00833587 -0.12501
O_ O_ 0.593837 0.301526 0.218565 -0.60745
O_ O_ 0.847046 0.299215 0.21686 -0.60745
O_ O_ 0.590043 0.297375 0.288197 -0.60745
O_ O_ 0.846987 0.296342 0.285382 -0.60745
O_ O_ 0.655309 0.291092 0.281393 -0.60745
O_ O_ 0.907851 0.29639 0.286361 -0.60745
O_ O_ 0.656527 0.292305 0.212077 -0.60745
O_ O_ 0.907441 0.296627 0.21786 -0.60745
O_ O_ 0.648812 0.206502 0.283906 -0.60745
O_ O_ 0.906826 0.206953 0.282197 -0.60745
O_ O_ 0.653492 0.206712 0.214845 -0.60745
O_ O_ 0.908887 0.208269 0.2147 -0.60745
O_ O_ 0.593133 0.208643 0.220398 -0.60745
O_ O_ 0.843881 0.211583 0.212807 -0.60745
O_ O_ 0.585653 0.213839 0.28671 -0.60745
O_ O_ 0.844535 0.211622 0.280499 -0.60745
Zn Zn 0.627212 0.248705 0.780334 0.9476
Zn Zn 0.877277 0.247339 0.78185 0.9476
Zn Zn 0.624745 0.24527 0.710863 0.9476
Zn Zn 0.874913 0.248952 0.710425 0.9476
H_ H_ 0.535518 0.417523 0.68864 0.10932
H_ H_ 0.772906 0.399129 0.681398 0.10932
H_ H_ 0.554105 0.334518 0.817365 0.10932
H_ H_ 0.824848 0.359358 0.813446 0.10932
H_ H_ 0.565914 0.351593 0.685972 0.10932
H_ H_ 0.806796 0.341379 0.681609 0.10932
H_ H_ 0.532104 0.404139 0.822767 0.10932
H_ H_ 0.79104 0.42149 0.811906 0.10932
H_ H_ 0.727391 0.401091 0.812252 0.10932
H_ H_ 0.965813 0.41545 0.814721 0.10932
H_ H_ 0.669305 0.371294 0.684448 0.10932
H_ H_ 0.927078 0.358233 0.681558 0.10932
H_ H_ 0.700968 0.336582 0.809527 0.10932
H_ H_ 0.939801 0.346735 0.815502 0.10932
H_ H_ 0.701999 0.42399 0.68183 0.10932
H_ H_ 0.954892 0.424278 0.6833 0.10932
H_ H_ 0.697494 0.063227 0.801366 0.10932
H_ H_ 0.969195 0.085338 0.816291 0.10932
H_ H_ 0.70908 0.167831 0.685283 0.10932
H_ H_ 0.934233 0.138156 0.677388 0.10932
H_ H_ 0.663292 0.125309 0.797142 0.10932
H_ H_ 0.942982 0.148781 0.813483 0.10932
H_ H_ 0.727527 0.0914525 0.677744 0.10932
H_ H_ 0.963544 0.0729685 0.685326 0.10932
H_ H_ 0.528196 0.0826914 0.680617 0.10932
H_ H_ 0.793715 0.0729956 0.684329 0.10932
H_ H_ 0.56085 0.153366 0.80978 0.10932
H_ H_ 0.799936 0.158003 0.814577 0.10932
H_ H_ 0.563285 0.14322 0.676822 0.10932
H_ H_ 0.811298 0.145254 0.680735 0.10932
H_ H_ 0.539424 0.0788966 0.816123 0.10932
H_ H_ 0.770236 0.0986794 0.813165 0.10932
H_ H_ 0.622482 0.310814 0.861174 0.10932
H_ H_ 0.869389 0.187028 0.855663 0.10932
H_ H_ 0.638049 0.18542 0.852961 0.10932
H_ H_ 0.902329 0.308912 0.852529 0.10932
H_ H_ 0.634322 0.176296 0.928532 0.10932
H_ H_ 0.903609 0.311581 0.930679 0.10932
H_ H_ 0.620024 0.306803 0.938353 0.10932
H_ H_ 0.871989 0.186028 0.936899 0.10932
H_ H_ 0.598691 0.304459 0.63938 0.10932
H_ H_ 0.873322 0.316105 0.636779 0.10932
H_ H_ 0.637243 0.184038 0.636099 0.10932
H_ H_ 0.879022 0.183538 0.6297 0.10932
H_ H_ 0.634812 0.185091 0.560162 0.10932
H_ H_ 0.886386 0.187868 0.556646 0.10932
H_ H_ 0.600416 0.310324 0.560815 0.10932
H_ H_ 0.887686 0.322828 0.563441 0.10932
C_ C_ 0.561064 0.338892 0.750783 -0.02249
C_ C_ 0.816345 0.343636 0.749825 -0.02249
C_ C_ 0.515342 0.456685 0.756496 -0.02249
C_ C_ 0.765519 0.45978 0.745307 -0.02249
C_ C_ 0.541024 0.400573 0.716934 -0.11473
C_ C_ 0.784458 0.393511 0.709824 -0.11473
C_ C_ 0.550214 0.35307 0.789904 -0.11473
C_ C_ 0.812261 0.367737 0.786063 -0.11473
C_ C_ 0.555173 0.362725 0.714353 -0.11473
C_ C_ 0.801698 0.356595 0.711372 -0.11473
C_ C_ 0.530458 0.415271 0.754779 -0.02249
C_ C_ 0.782265 0.418309 0.746775 -0.02249
C_ C_ 0.58374 0.304156 0.750612 0.6875
C_ C_ 0.838059 0.3092 0.748511 0.6875
C_ C_ 0.537499 0.392044 0.792085 -0.11473
C_ C_ 0.796187 0.404325 0.784756 -0.11473
C_ C_ 0.684391 0.346162 0.745429 -0.02249
C_ C_ 0.935726 0.342562 0.746917 -0.02249
C_ C_ 0.733168 0.46046 0.747784 -0.02249
C_ C_ 0.985439 0.458933 0.74829 -0.02249
C_ C_ 0.713094 0.396755 0.785707 -0.11473
C_ C_ 0.961043 0.398377 0.786493 -0.11473
C_ C_ 0.68269 0.374569 0.71279 -0.11473
C_ C_ 0.9381 0.367023 0.710419 -0.11473
C_ C_ 0.701073 0.356636 0.782086 -0.11473
C_ C_ 0.94575 0.360788 0.784995 -0.11473
C_ C_ 0.714988 0.421294 0.749319 -0.02249
C_ C_ 0.967353 0.418959 0.748824 -0.02249
C_ C_ 0.664832 0.308145 0.745997 0.6875
C_ C_ 0.919159 0.302936 0.746023 0.6875
C_ C_ 0.701562 0.406708 0.711438 -0.11473
C_ C_ 0.952778 0.405299 0.711693 -0.11473
C_ C_ 0.685426 0.151505 0.743228 -0.02249
C_ C_ 0.937904 0.150335 0.74581 -0.02249
C_ C_ 0.732316 0.0361835 0.742117 -0.02249
C_ C_ 0.986895 0.0371937 0.752247 -0.02249
C_ C_ 0.697649 0.0849194 0.77313 -0.11473
C_ C_ 0.965936 0.100347 0.786226 -0.11473
C_ C_ 0.704181 0.141938 0.708953 -0.11473
C_ C_ 0.944598 0.129199 0.708662 -0.11473
C_ C_ 0.682207 0.122062 0.775643 -0.11473
C_ C_ 0.951004 0.137224 0.78396 -0.11473
C_ C_ 0.714615 0.0742964 0.738603 -0.02249
C_ C_ 0.971827 0.0778217 0.750314 -0.02249
C_ C_ 0.670222 0.192162 0.744094 0.6875
C_ C_ 0.915052 0.185629 0.745538 0.6875
C_ C_ 0.716873 0.101972 0.705488 -0.11473
C_ C_ 0.962121 0.0926086 0.711399 -0.11473
C_ C_ 0.56605 0.150746 0.742466 -0.02249
C_ C_ 0.810473 0.157383 0.747225 -0.02249
C_ C_ 0.517369 0.0354282 0.752872 -0.02249
C_ C_ 0.764471 0.0389194 0.749888 -0.02249
C_ C_ 0.541065 0.0918714 0.708359 -0.11473
C_ C_ 0.793217 0.0939042 0.711995 -0.11473
C_ C_ 0.557819 0.13441 0.781128 -0.11473
C_ C_ 0.798388 0.141269 0.784232 -0.11473
C_ C_ 0.556998 0.129431 0.706321 -0.11473
C_ C_ 0.805019 0.134346 0.711007 -0.11473
C_ C_ 0.534187 0.074226 0.747989 -0.02249
C_ C_ 0.779661 0.0803123 0.747786 -0.02249
C_ C_ 0.587443 0.186233 0.742498 0.6875
C_ C_ 0.831898 0.191903 0.748875 0.6875
C_ C_ 0.544461 0.0945359 0.784383 -0.11473
C_ C_ 0.78217 0.104395 0.78449 -0.11473
C_ C_ 0.625636 0.282436 0.876805 0.17695
C_ C_ 0.876516 0.213298 0.873743 0.17695
C_ C_ 0.633724 0.211163 0.871033 0.17695
C_ C_ 0.894716 0.28259 0.87199 0.17695
C_ C_ 0.632016 0.20604 0.91523 -0.11473
C_ C_ 0.89576 0.284283 0.915482 -0.11473
C_ C_ 0.628855 0.240824 0.94057 0.23465
C_ C_ 0.888607 0.249129 0.93899 0.23465
C_ C_ 0.625214 0.279488 0.920804 -0.11473
C_ C_ 0.87702 0.213878 0.918218 -0.11473
C_ C_ 0.60833 0.280345 0.620914 0.17695
C_ C_ 0.877877 0.287625 0.619307 0.17695
C_ C_ 0.633129 0.214202 0.619054 0.17695
C_ C_ 0.879364 0.214573 0.615737 0.17695
C_ C_ 0.633953 0.215199 0.574958 -0.11473
C_ C_ 0.882363 0.217668 0.572837 -0.11473
C_ C_ 0.619046 0.248997 0.553911 0.23465
C_ C_ 0.88403 0.25567 0.553662 0.23465
C_ C_ 0.608205 0.281824 0.576912 -0.11473
C_ C_ 0.884964 0.292031 0.577896 -0.11473
C_ C_ 0.531643 0.492634 0.760791 0.05793
C_ C_ 0.781655 0.497437 0.740416 0.05793
C_ C_ 0.717679 -0.0018639999999999768 0.740476 0.05793
C_ C_ 0.970729 -0.000878201 0.757993 0.05793
Br Br 0.573447 0.491654 0.768273 -0.17191
Br Br 0.818921 0.491295 0.710241 -0.17191
Br Br 0.677304 -0.004533000000000009 0.716624 -0.17191
Br Br 0.926695 0.0045106 0.762739 -0.17191
N_ N_ 0.629308 0.248501 0.852642 -0.272
N_ N_ 0.882772 0.247832 0.852674 -0.272
N_ N_ 0.624565 0.235678 0.98464 -0.12501
N_ N_ 0.893865 0.248635 0.983014 -0.12501
N_ N_ 0.623087 0.249462 0.641243 -0.272
N_ N_ 0.875151 0.249747 0.63871 -0.272
N_ N_ 0.612131 0.246001 0.511258 -0.12501
N_ N_ 0.88188 0.261454 0.507927 -0.12501
O_ O_ 0.588831 0.285509 0.715619 -0.60745
O_ O_ 0.844334 0.292783 0.713433 -0.60745
O_ O_ 0.594627 0.290593 0.783629 -0.60745
O_ O_ 0.846826 0.290722 0.781045 -0.60745
O_ O_ 0.660121 0.289511 0.781399 -0.60745
O_ O_ 0.910363 0.286713 0.78015 -0.60745
O_ O_ 0.651852 0.294496 0.711727 -0.60745
O_ O_ 0.908362 0.290463 0.71199 -0.60745
O_ O_ 0.659156 0.204387 0.777945 -0.60745
O_ O_ 0.905444 0.199367 0.78096 -0.60745
O_ O_ 0.659169 0.207361 0.710708 -0.60745
O_ O_ 0.905722 0.203112 0.713135 -0.60745
O_ O_ 0.597701 0.198185 0.709122 -0.60745
O_ O_ 0.841336 0.207676 0.714911 -0.60745
O_ O_ 0.596727 0.203327 0.776089 -0.60745
O_ O_ 0.842438 0.205989 0.783488 -0.60745
Zn Zn 0.627546 0.749774 0.291699 0.9476
Zn Zn 0.871802 0.748389 0.290093 0.9476
Zn Zn 0.624105 0.751546 0.221972 0.9476
Zn Zn 0.87105 0.751846 0.220338 0.9476
H_ H_ 0.537764 0.918718 0.17738 0.10932
H_ H_ 0.776404 0.910242 0.189285 0.10932
H_ H_ 0.560151 0.853296 0.317691 0.10932
H_ H_ 0.812491 0.855926 0.328348 0.10932
H_ H_ 0.565577 0.852227 0.180958 0.10932
H_ H_ 0.795895 0.842821 0.19134 0.10932
H_ H_ 0.532257 0.918466 0.31465 0.10932
H_ H_ 0.779352 0.918909 0.324115 0.10932
H_ H_ 0.710115 0.921579 0.31268 0.10932
H_ H_ 0.95727 0.925266 0.323038 0.10932
H_ H_ 0.685142 0.853519 0.177962 0.10932
H_ H_ 0.938375 0.851125 0.191368 0.10932
H_ H_ 0.678522 0.859198 0.312981 0.10932
H_ H_ 0.920523 0.865652 0.320391 0.10932
H_ H_ 0.713487 0.923074 0.179064 0.10932
H_ H_ 0.975091 0.904734 0.194519 0.10932
H_ H_ 0.704356 0.566749 0.319795 0.10932
H_ H_ 0.978347 0.590878 0.30911 0.10932
H_ H_ 0.698284 0.664633 0.197811 0.10932
H_ H_ 0.92579 0.645405 0.186162 0.10932
H_ H_ 0.681475 0.63873 0.328436 0.10932
H_ H_ 0.946772 0.655526 0.319006 0.10932
H_ H_ 0.726858 0.598745 0.193633 0.10932
H_ H_ 0.956498 0.58576 0.180926 0.10932
H_ H_ 0.542186 0.585673 0.189447 0.10932
H_ H_ 0.784214 0.577402 0.184301 0.10932
H_ H_ 0.556964 0.653096 0.324395 0.10932
H_ H_ 0.813813 0.642386 0.31971 0.10932
H_ H_ 0.5696 0.648802 0.19497 0.10932
H_ H_ 0.810148 0.644565 0.185647 0.10932
H_ H_ 0.53123 0.588287 0.32362 0.10932
H_ H_ 0.779348 0.586187 0.32226 0.10932
H_ H_ 0.618393 0.6942 0.375254 0.10932
H_ H_ 0.856313 0.809709 0.366106 0.10932
H_ H_ 0.629309 0.823029 0.358044 0.10932
H_ H_ 0.878742 0.682386 0.357186 0.10932
H_ H_ 0.622498 0.832573 0.437886 0.10932
H_ H_ 0.874255 0.675115 0.430913 0.10932
H_ H_ 0.620451 0.701163 0.453732 0.10932
H_ H_ 0.856893 0.806176 0.445544 0.10932
H_ H_ 0.62344 0.679052 0.15507 0.10932
H_ H_ 0.885124 0.690321 0.145815 0.10932
H_ H_ 0.620004 0.807503 0.148155 0.10932
H_ H_ 0.850438 0.811392 0.140828 0.10932
H_ H_ 0.627044 0.808951 0.0709154 0.10932
H_ H_ 0.849621 0.809022 0.0606706 0.10932
H_ H_ 0.613705 0.675012 0.0793547 0.10932
H_ H_ 0.884395 0.684782 0.0712117 0.10932
C_ C_ 0.565769 0.84747 0.249278 -0.02249
C_ C_ 0.807715 0.842712 0.258265 -0.02249
C_ C_ 0.515489 0.962192 0.243697 -0.02249
C_ C_ 0.76467 0.964148 0.25372 -0.02249
C_ C_ 0.543327 0.904303 0.208109 -0.11473
C_ C_ 0.783171 0.899345 0.21984 -0.11473
C_ C_ 0.556657 0.866063 0.287409 -0.11473
C_ C_ 0.804388 0.866363 0.296968 -0.11473
C_ C_ 0.559402 0.867368 0.211346 -0.11473
C_ C_ 0.796154 0.860136 0.220602 -0.11473
C_ C_ 0.533409 0.923607 0.244861 -0.02249
C_ C_ 0.778628 0.922683 0.256619 -0.02249
C_ C_ 0.587049 0.812655 0.250749 0.6875
C_ C_ 0.827357 0.804873 0.256708 0.6875
C_ C_ 0.539616 0.903964 0.283394 -0.11473
C_ C_ 0.788013 0.905188 0.295032 -0.11473
C_ C_ 0.680668 0.850358 0.24582 -0.02249
C_ C_ 0.932849 0.846951 0.25743 -0.02249
C_ C_ 0.731985 0.965831 0.247517 -0.02249
C_ C_ 0.984327 0.961912 0.258092 -0.02249
C_ C_ 0.706367 0.905826 0.283784 -0.11473
C_ C_ 0.951015 0.910447 0.293885 -0.11473
C_ C_ 0.68975 0.86953 0.207855 -0.11473
C_ C_ 0.946496 0.861818 0.221829 -0.11473
C_ C_ 0.688921 0.870213 0.28384 -0.11473
C_ C_ 0.93308 0.874938 0.293787 -0.11473
C_ C_ 0.713118 0.928016 0.246923 -0.02249
C_ C_ 0.967149 0.921679 0.259064 -0.02249
C_ C_ 0.664456 0.80828 0.249269 0.6875
C_ C_ 0.913339 0.809954 0.256189 0.6875
C_ C_ 0.705846 0.907878 0.207298 -0.11473
C_ C_ 0.963512 0.897484 0.222105 -0.11473
C_ C_ 0.68486 0.653394 0.261978 -0.02249
C_ C_ 0.93377 0.656316 0.252204 -0.02249
C_ C_ 0.733046 0.538332 0.250719 -0.02249
C_ C_ 0.985541 0.541925 0.243354 -0.02249
C_ C_ 0.703884 0.588228 0.293576 -0.11473
C_ C_ 0.967266 0.605216 0.283624 -0.11473
C_ C_ 0.698621 0.641594 0.223517 -0.11473
C_ C_ 0.939411 0.637671 0.214118 -0.11473
C_ C_ 0.689553 0.626811 0.297994 -0.11473
C_ C_ 0.949186 0.640238 0.287634 -0.11473
C_ C_ 0.715837 0.578068 0.255577 -0.02249
C_ C_ 0.969766 0.584244 0.245742 -0.02249
C_ C_ 0.665204 0.690137 0.262499 0.6875
C_ C_ 0.914941 0.693515 0.252715 0.6875
C_ C_ 0.714254 0.604985 0.2207 -0.11473
C_ C_ 0.954479 0.600383 0.210999 -0.11473
C_ C_ 0.563203 0.659209 0.260457 -0.02249
C_ C_ 0.812598 0.651311 0.253663 -0.02249
C_ C_ 0.514808 0.540066 0.250667 -0.02249
C_ C_ 0.764973 0.537781 0.254064 -0.02249
C_ C_ 0.544409 0.601303 0.218281 -0.11473
C_ C_ 0.787773 0.594955 0.215304 -0.11473
C_ C_ 0.554094 0.639073 0.296216 -0.11473
C_ C_ 0.804011 0.631442 0.290889 -0.11473
C_ C_ 0.558589 0.639469 0.221883 -0.11473
C_ C_ 0.801479 0.633391 0.215539 -0.11473
C_ C_ 0.531498 0.582657 0.255328 -0.02249
C_ C_ 0.781668 0.575803 0.254793 -0.02249
C_ C_ 0.58263 0.697638 0.26251 0.6875
C_ C_ 0.833744 0.686963 0.253875 0.6875
C_ C_ 0.536829 0.602847 0.293647 -0.11473
C_ C_ 0.787359 0.594843 0.291985 -0.11473
C_ C_ 0.620423 0.723939 0.389149 0.17695
C_ C_ 0.861822 0.780939 0.381133 0.17695
C_ C_ 0.625825 0.797104 0.379922 0.17695
C_ C_ 0.876633 0.711351 0.375503 0.17695
C_ C_ 0.622524 0.801906 0.423809 -0.11473
C_ C_ 0.874903 0.707169 0.419225 -0.11473
C_ C_ 0.623134 0.768527 0.450835 0.23465
C_ C_ 0.868751 0.741394 0.4453 0.23465
C_ C_ 0.622152 0.728185 0.4331 -0.11473
C_ C_ 0.862197 0.779304 0.4258 -0.11473
C_ C_ 0.62075 0.706697 0.135199 0.17695
C_ C_ 0.879788 0.717915 0.128721 0.17695
C_ C_ 0.618815 0.77926 0.131504 0.17695
C_ C_ 0.859836 0.784464 0.124149 0.17695
C_ C_ 0.624183 0.779216 0.0884984 -0.11473
C_ C_ 0.85888 0.783527 0.0786489 -0.11473
C_ C_ 0.621261 0.740691 0.0673106 0.23465
C_ C_ 0.870792 0.748164 0.0588906 0.23465
C_ C_ 0.61638 0.705685 0.0926285 -0.11473
C_ C_ 0.877851 0.713959 0.0848737 -0.11473
C_ C_ 0.530799 1.00082 0.244961 0.05793
C_ C_ 0.780913 1.00117559 0.257279 0.05793
C_ C_ 0.717695 0.50163 0.246941 0.05793
C_ C_ 0.969667 0.503422 0.25003 0.05793
Br Br 0.575715 1.00365474 0.244868 -0.17191
Br Br 0.82443 0.995683 0.262848 -0.17191
Br Br 0.676018 0.501688 0.232966 -0.17191
Br Br 0.928682 0.504749 0.264449 -0.17191
N_ N_ 0.624243 0.7585 0.363749 -0.272
N_ N_ 0.870937 0.748493 0.358113 -0.272
N_ N_ 0.625382 0.774028 0.496686 -0.12501
N_ N_ 0.868379 0.737142 0.489638 -0.12501
N_ N_ 0.618952 0.743679 0.154337 -0.272
N_ N_ 0.86966 0.752711 0.14785 -0.272
N_ N_ 0.620136 0.736671 0.0207865 -0.12501
N_ N_ 0.867125 0.742734 0.0150922 -0.12501
O_ O_ 0.597766 0.799621 0.216319 -0.60745
O_ O_ 0.838096 0.791245 0.222512 -0.60745
O_ O_ 0.595066 0.794273 0.286497 -0.60745
O_ O_ 0.840036 0.793426 0.291712 -0.60745
O_ O_ 0.656142 0.793415 0.284483 -0.60745
O_ O_ 0.904862 0.792855 0.290382 -0.60745
O_ O_ 0.65894 0.78601 0.216393 -0.60745
O_ O_ 0.901271 0.798442 0.220781 -0.60745
O_ O_ 0.661917 0.710039 0.297707 -0.60745
O_ O_ 0.901582 0.702939 0.287031 -0.60745
O_ O_ 0.649206 0.700966 0.229544 -0.60745
O_ O_ 0.907083 0.712746 0.219073 -0.60745
O_ O_ 0.588951 0.718162 0.22806 -0.60745
O_ O_ 0.840897 0.704118 0.219906 -0.60745
O_ O_ 0.594772 0.70846 0.296219 -0.60745
O_ O_ 0.84077 0.704508 0.289427 -0.60745
Zn Zn 0.625547 0.74779 0.793102 0.9476
Zn Zn 0.877453 0.746049 0.785015 0.9476
Zn Zn 0.623797 0.748478 0.723197 0.9476
Zn Zn 0.875638 0.751073 0.715165 0.9476
H_ H_ 0.526308 0.904762 0.685124 0.10932
H_ H_ 0.795343 0.931045 0.694445 0.10932
H_ H_ 0.562999 0.850622 0.821146 0.10932
H_ H_ 0.806849 0.840366 0.818453 0.10932
H_ H_ 0.55136 0.838735 0.686666 0.10932
H_ H_ 0.820788 0.865083 0.688652 0.10932
H_ H_ 0.547817 0.926609 0.815231 0.10932
H_ H_ 0.782551 0.908663 0.824888 0.10932
H_ H_ 0.701959 0.931168 0.819885 0.10932
H_ H_ 0.963724 0.915239 0.817862 0.10932
H_ H_ 0.685935 0.850574 0.689027 0.10932
H_ H_ 0.949947 0.847058 0.685503 0.10932
H_ H_ 0.674904 0.862877 0.820956 0.10932
H_ H_ 0.927687 0.857167 0.81569 0.10932
H_ H_ 0.714589 0.915846 0.687268 0.10932
H_ H_ 0.966083 0.919359 0.686659 0.10932
H_ H_ 0.714779 0.573175 0.818694 0.10932
H_ H_ 0.966 0.578091 0.816036 0.10932
H_ H_ 0.687891 0.654228 0.690214 0.10932
H_ H_ 0.931157 0.641104 0.68124 0.10932
H_ H_ 0.686781 0.636491 0.826413 0.10932
H_ H_ 0.942024 0.646501 0.816925 0.10932
H_ H_ 0.714504 0.587066 0.686178 0.10932
H_ H_ 0.96639 0.580089 0.683413 0.10932
H_ H_ 0.551263 0.565129 0.697613 0.10932
H_ H_ 0.783708 0.584172 0.680928 0.10932
H_ H_ 0.551254 0.653623 0.825781 0.10932
H_ H_ 0.820264 0.638375 0.822873 0.10932
H_ H_ 0.57582 0.635316 0.695938 0.10932
H_ H_ 0.81402 0.644923 0.685775 0.10932
H_ H_ 0.524776 0.584207 0.823233 0.10932
H_ H_ 0.799862 0.570607 0.817571 0.10932
H_ H_ 0.639221 0.690804 0.873837 0.10932
H_ H_ 0.855327 0.688202 0.865016 0.10932
H_ H_ 0.618854 0.818295 0.860397 0.10932
H_ H_ 0.907086 0.800761 0.858799 0.10932
H_ H_ 0.617407 0.825511 0.937345 0.10932
H_ H_ 0.911327 0.802286 0.934018 0.10932
H_ H_ 0.626451 0.692898 0.949641 0.10932
H_ H_ 0.85238 0.6996 0.943199 0.10932
H_ H_ 0.626847 0.68231 0.64957 0.10932
H_ H_ 0.876757 0.817155 0.649373 0.10932
H_ H_ 0.616434 0.813484 0.647918 0.10932
H_ H_ 0.875881 0.686916 0.637669 0.10932
H_ H_ 0.623614 0.813583 0.572955 0.10932
H_ H_ 0.87176 0.694198 0.562486 0.10932
H_ H_ 0.628106 0.681328 0.574648 0.10932
H_ H_ 0.872472 0.825116 0.569039 0.10932
C_ C_ 0.560584 0.839897 0.756405 -0.02249
C_ C_ 0.820658 0.850626 0.755026 -0.02249
C_ C_ 0.516573 0.958128 0.752941 -0.02249
C_ C_ 0.765728 0.963019 0.758236 -0.02249
C_ C_ 0.536004 0.893825 0.715138 -0.11473
C_ C_ 0.799253 0.913212 0.720928 -0.11473
C_ C_ 0.560335 0.865273 0.792207 -0.11473
C_ C_ 0.80612 0.861101 0.79244 -0.11473
C_ C_ 0.550241 0.85478 0.716352 -0.11473
C_ C_ 0.816381 0.877806 0.719302 -0.11473
C_ C_ 0.533357 0.918778 0.750842 -0.02249
C_ C_ 0.784123 0.923622 0.75873 -0.02249
C_ C_ 0.582249 0.803949 0.755053 0.6875
C_ C_ 0.839099 0.810347 0.751794 0.6875
C_ C_ 0.547363 0.905849 0.789469 -0.11473
C_ C_ 0.789781 0.899062 0.794595 -0.11473
C_ C_ 0.680302 0.850886 0.755843 -0.02249
C_ C_ 0.933691 0.847195 0.749905 -0.02249
C_ C_ 0.733743 0.962101 0.751836 -0.02249
C_ C_ 0.985305 0.960855 0.75413 -0.02249
C_ C_ 0.702389 0.911038 0.790564 -0.11473
C_ C_ 0.955813 0.904266 0.787794 -0.11473
C_ C_ 0.688916 0.867741 0.71746 -0.11473
C_ C_ 0.947604 0.863538 0.712233 -0.11473
C_ C_ 0.685899 0.873287 0.792202 -0.11473
C_ C_ 0.938661 0.867927 0.786972 -0.11473
C_ C_ 0.716599 0.922284 0.753606 -0.02249
C_ C_ 0.965718 0.923186 0.752029 -0.02249
C_ C_ 0.658807 0.813392 0.757664 0.6875
C_ C_ 0.91816 0.806072 0.747431 0.6875
C_ C_ 0.708434 0.90226 0.716968 -0.11473
C_ C_ 0.959967 0.902591 0.714467 -0.11473
C_ C_ 0.686737 0.654706 0.758924 -0.02249
C_ C_ 0.933071 0.64915 0.748906 -0.02249
C_ C_ 0.735851 0.538252 0.751842 -0.02249
C_ C_ 0.983049 0.535419 0.749253 -0.02249
C_ C_ 0.709563 0.592944 0.790728 -0.11473
C_ C_ 0.95898 0.591862 0.78581 -0.11473
C_ C_ 0.695101 0.638948 0.719344 -0.11473
C_ C_ 0.9416 0.629424 0.710932 -0.11473
C_ C_ 0.693187 0.628704 0.79442 -0.11473
C_ C_ 0.946413 0.632621 0.786294 -0.11473
C_ C_ 0.721002 0.579889 0.751938 -0.02249
C_ C_ 0.966864 0.573298 0.748763 -0.02249
C_ C_ 0.665315 0.68959 0.759139 0.6875
C_ C_ 0.917082 0.688116 0.749942 0.6875
C_ C_ 0.710785 0.600992 0.715716 -0.11473
C_ C_ 0.957825 0.592019 0.710688 -0.11473
C_ C_ 0.56499 0.649837 0.759652 -0.02249
C_ C_ 0.817919 0.651194 0.75126 -0.02249
C_ C_ 0.515656 0.531383 0.760227 -0.02249
C_ C_ 0.76798 0.53603 0.74843 -0.02249
C_ C_ 0.549902 0.584559 0.725546 -0.11473
C_ C_ 0.791557 0.597106 0.711694 -0.11473
C_ C_ 0.551117 0.634995 0.796827 -0.11473
C_ C_ 0.813625 0.628537 0.789128 -0.11473
C_ C_ 0.56458 0.624456 0.724227 -0.11473
C_ C_ 0.806319 0.634341 0.714104 -0.11473
C_ C_ 0.534772 0.571424 0.760721 -0.02249
C_ C_ 0.786782 0.574653 0.749656 -0.02249
C_ C_ 0.582727 0.690149 0.758518 0.6875
C_ C_ 0.835823 0.688739 0.753729 0.6875
C_ C_ 0.533742 0.59803 0.795248 -0.11473
C_ C_ 0.797676 0.589822 0.788106 -0.11473
C_ C_ 0.63037 0.71858 0.888344 0.17695
C_ C_ 0.864 0.718342 0.88072 0.17695
C_ C_ 0.61906 0.789978 0.880731 0.17695
C_ C_ 0.893577 0.779721 0.876821 0.17695
C_ C_ 0.619086 0.795109 0.923987 -0.11473
C_ C_ 0.897503 0.781098 0.919113 -0.11473
C_ C_ 0.622602 0.760204 0.95104 0.23465
C_ C_ 0.880006 0.753914 0.943607 0.23465
C_ C_ 0.626074 0.721007 0.931361 -0.11473
C_ C_ 0.865362 0.720362 0.925133 -0.11473
C_ C_ 0.626208 0.711949 0.632924 0.17695
C_ C_ 0.873145 0.790215 0.629198 0.17695
C_ C_ 0.621346 0.78393 0.632844 0.17695
C_ C_ 0.874221 0.71714 0.622289 0.17695
C_ C_ 0.622347 0.784207 0.588776 -0.11473
C_ C_ 0.873714 0.721738 0.579292 -0.11473
C_ C_ 0.624579 0.746178 0.566414 0.23465
C_ C_ 0.871958 0.760366 0.559633 0.23465
C_ C_ 0.627007 0.710391 0.590056 -0.11473
C_ C_ 0.870463 0.793992 0.584505 -0.11473
C_ C_ 0.531896 -0.003483000000000014 0.752643 0.05793
C_ C_ 0.781573 0.000731896 0.751966 0.05793
C_ C_ 0.718716 0.499964 0.746537 0.05793
C_ C_ 0.967466 0.497026 0.751288 0.05793
Br Br 0.574781 -0.005398000000000014 0.75339 -0.17191
Br Br 0.823712 1.00215974 0.756053 -0.17191
Br Br 0.675782 0.501503 0.754558 -0.17191
Br Br 0.923539 0.493465 0.757871 -0.17191
N_ N_ 0.624082 0.753148 0.86307 -0.272
N_ N_ 0.878677 0.747513 0.856907 -0.272
N_ N_ 0.622396 0.766439 0.996043 -0.12501
N_ N_ 0.88514 0.756509 0.988586 -0.12501
N_ N_ 0.623538 0.747371 0.653495 -0.272
N_ N_ 0.874603 0.750747 0.646118 -0.272
N_ N_ 0.623233 0.743925 0.520999 -0.12501
N_ N_ 0.872665 0.765747 0.513984 -0.12501
O_ O_ 0.59433 0.793498 0.720033 -0.60745
O_ O_ 0.845447 0.794819 0.715751 -0.60745
O_ O_ 0.589737 0.785252 0.789421 -0.60745
O_ O_ 0.847323 0.792661 0.784606 -0.60745
O_ O_ 0.650897 0.79978 0.793234 -0.60745
O_ O_ 0.908012 0.791578 0.780705 -0.60745
O_ O_ 0.656074 0.79158 0.724309 -0.60745
O_ O_ 0.904816 0.796529 0.713145 -0.60745
O_ O_ 0.660485 0.708909 0.792001 -0.60745
O_ O_ 0.907291 0.700549 0.785273 -0.60745
O_ O_ 0.652599 0.699982 0.725938 -0.60745
O_ O_ 0.910214 0.709098 0.716559 -0.60745
O_ O_ 0.590331 0.705354 0.723709 -0.60745
O_ O_ 0.846207 0.703321 0.719442 -0.60745
O_ O_ 0.598373 0.699463 0.790825 -0.60745
O_ O_ 0.845038 0.704234 0.788415 -0.60745
