_cell_length_a 44.444
_cell_length_b 32.3360000049186
_cell_length_c 31.843999878906452
_cell_angle_alpha 89.99799923859553
_cell_angle_beta 91.13600050494348
_cell_angle_gamma 89.9990006550086
_symmetry_space_group_name_H-M         'P 1'
_symmetry_Int_Tables_number            1
loop_
_symmetry_equiv_pos_as_xyz
   'x, y, z'
                         
loop_
_atom_site_label
_atom_site_type_symbol
_atom_site_fract_x 
_atom_site_fract_y
_atom_site_fract_z
_atom_site_charge
Zn Zn 0.128674 0.250674 0.284023 0.9476
Zn Zn 0.378337 0.249465 0.286763 0.9476
Zn Zn 0.129618 0.256976 0.215095 0.9476
Zn Zn 0.375555 0.251808 0.213802 0.9476
H_ H_ 0.0453047 0.431272 0.184961 0.10932
H_ H_ 0.288893 0.423829 0.184268 0.10932
H_ H_ 0.0626721 0.349931 0.313814 0.10932
H_ H_ 0.320049 0.352116 0.316149 0.10932
H_ H_ 0.0806412 0.375209 0.184471 0.10932
H_ H_ 0.321537 0.360915 0.181855 0.10932
H_ H_ 0.0335628 0.414956 0.316454 0.10932
H_ H_ 0.285924 0.417191 0.317326 0.10932
H_ H_ 0.21592 0.422471 0.318802 0.10932
H_ H_ 0.459907 0.41806 0.330371 0.10932
H_ H_ 0.190927 0.357243 0.184624 0.10932
H_ H_ 0.444235 0.349926 0.192184 0.10932
H_ H_ 0.189916 0.356655 0.319842 0.10932
H_ H_ 0.442939 0.349476 0.328257 0.10932
H_ H_ 0.210858 0.426871 0.187296 0.10932
H_ H_ 0.468983 0.419265 0.196029 0.10932
H_ H_ 0.236162 0.099277 0.311021 0.10932
H_ H_ 0.466501 0.0842674 0.319895 0.10932
H_ H_ 0.181308 0.140835 0.179048 0.10932
H_ H_ 0.444196 0.155468 0.183686 0.10932
H_ H_ 0.213812 0.164313 0.307715 0.10932
H_ H_ 0.440689 0.152964 0.318271 0.10932
H_ H_ 0.211271 0.0766917 0.182329 0.10932
H_ H_ 0.471144 0.0873074 0.184504 0.10932
H_ H_ 0.02405 0.10201 0.182621 0.10932
H_ H_ 0.264264 0.102256 0.183925 0.10932
H_ H_ 0.0834842 0.128234 0.314125 0.10932
H_ H_ 0.334194 0.129751 0.307524 0.10932
H_ H_ 0.0591967 0.164598 0.187161 0.10932
H_ H_ 0.295331 0.170256 0.187671 0.10932
H_ H_ 0.0564594 0.0641875 0.303479 0.10932
H_ H_ 0.302707 0.0677993 0.301221 0.10932
H_ H_ 0.12436 0.189181 0.365975 0.10932
H_ H_ 0.421089 0.233424 0.365915 0.10932
H_ H_ 0.130597 0.318322 0.355863 0.10932
H_ H_ 0.328124 0.252573 0.359025 0.10932
H_ H_ 0.139561 0.325539 0.431201 0.10932
H_ H_ 0.326656 0.249363 0.436972 0.10932
H_ H_ 0.131668 0.1958 0.445767 0.10932
H_ H_ 0.420421 0.244686 0.443041 0.10932
H_ H_ 0.11611 0.324135 0.146495 0.10932
H_ H_ 0.364605 0.189698 0.135889 0.10932
H_ H_ 0.127135 0.192333 0.137838 0.10932
H_ H_ 0.384482 0.320624 0.146068 0.10932
H_ H_ 0.129535 0.197787 0.0618523 0.10932
H_ H_ 0.379769 0.328626 0.0715797 0.10932
H_ H_ 0.124402 0.329518 0.071357 0.10932
H_ H_ 0.35546 0.200123 0.055456 0.10932
C_ C_ 0.0714754 0.353343 0.247707 -0.02249
C_ C_ 0.3217 0.351878 0.248185 -0.02249
C_ C_ 0.0198458 0.467191 0.255683 -0.02249
C_ C_ 0.269724 0.465549 0.252924 -0.02249
C_ C_ 0.0519008 0.415418 0.214339 -0.11473
C_ C_ 0.298156 0.411659 0.213549 -0.11473
C_ C_ 0.0588443 0.366921 0.28498 -0.11473
C_ C_ 0.311024 0.367045 0.287634 -0.11473
C_ C_ 0.0677909 0.378814 0.21231 -0.11473
C_ C_ 0.314153 0.372449 0.21143 -0.11473
C_ C_ 0.03916 0.428417 0.251958 -0.02249
C_ C_ 0.287569 0.425092 0.252663 -0.02249
C_ C_ 0.0889774 0.313093 0.247853 0.6875
C_ C_ 0.339172 0.311348 0.246164 0.6875
C_ C_ 0.0436472 0.405373 0.286952 -0.11473
C_ C_ 0.292431 0.402862 0.288292 -0.11473
C_ C_ 0.190352 0.348276 0.252087 -0.02249
C_ C_ 0.438578 0.344302 0.258593 -0.02249
C_ C_ 0.238164 0.465357 0.253266 -0.02249
C_ C_ 0.485903 0.462836 0.265069 -0.02249
C_ C_ 0.212555 0.406457 0.290586 -0.11473
C_ C_ 0.460861 0.402101 0.299811 -0.11473
C_ C_ 0.1977 0.370171 0.215325 -0.11473
C_ C_ 0.448794 0.364342 0.221188 -0.11473
C_ C_ 0.196791 0.368487 0.2904 -0.11473
C_ C_ 0.446493 0.36278 0.297734 -0.11473
C_ C_ 0.221453 0.425628 0.253935 -0.02249
C_ C_ 0.467987 0.422803 0.263501 -0.02249
C_ C_ 0.170032 0.310381 0.248929 0.6875
C_ C_ 0.416582 0.308612 0.255773 0.6875
C_ C_ 0.210556 0.409018 0.215134 -0.11473
C_ C_ 0.463573 0.403433 0.224562 -0.11473
C_ C_ 0.189424 0.15739 0.248866 -0.02249
C_ C_ 0.439101 0.157622 0.25069 -0.02249
C_ C_ 0.237077 0.0412058 0.245483 -0.02249
C_ C_ 0.488542 0.0426069 0.252359 -0.02249
C_ C_ 0.222026 0.105037 0.284298 -0.11473
C_ C_ 0.461352 0.0997747 0.289538 -0.11473
C_ C_ 0.191968 0.133049 0.209923 -0.11473
C_ C_ 0.450842 0.141631 0.213216 -0.11473
C_ C_ 0.206082 0.142786 0.283962 -0.11473
C_ C_ 0.446125 0.137598 0.289357 -0.11473
C_ C_ 0.221514 0.0808341 0.246963 -0.02249
C_ C_ 0.47228 0.0808893 0.252688 -0.02249
C_ C_ 0.171709 0.196898 0.248541 0.6875
C_ C_ 0.418942 0.194555 0.251549 0.6875
C_ C_ 0.207452 0.0951489 0.211513 -0.11473
C_ C_ 0.465122 0.101585 0.214472 -0.11473
C_ C_ 0.0738558 0.152664 0.2509 -0.02249
C_ C_ 0.316086 0.156761 0.248548 -0.02249
C_ C_ 0.0192561 0.0409378 0.23761 -0.02249
C_ C_ 0.268327 0.0413578 0.23691 -0.02249
C_ C_ 0.0381766 0.108117 0.211174 -0.11473
C_ C_ 0.281933 0.108377 0.208995 -0.11473
C_ C_ 0.0731314 0.122384 0.284173 -0.11473
C_ C_ 0.319859 0.125895 0.28001 -0.11473
C_ C_ 0.0571663 0.144417 0.214554 -0.11473
C_ C_ 0.299395 0.145625 0.212256 -0.11473
C_ C_ 0.0381233 0.0794576 0.243152 -0.02249
C_ C_ 0.283669 0.0796954 0.240617 -0.02249
C_ C_ 0.0916496 0.193021 0.255473 0.6875
C_ C_ 0.336393 0.194117 0.248186 0.6875
C_ C_ 0.056022 0.0866149 0.279013 -0.11473
C_ C_ 0.30192 0.0899246 0.276777 -0.11473
C_ C_ 0.130499 0.218503 0.380431 0.17695
C_ C_ 0.400368 0.240715 0.380343 0.17695
C_ C_ 0.133481 0.291396 0.374199 0.17695
C_ C_ 0.348156 0.249609 0.378663 0.17695
C_ C_ 0.135375 0.295924 0.417437 -0.11473
C_ C_ 0.348166 0.247356 0.42148 -0.11473
C_ C_ 0.133933 0.262547 0.444531 0.23465
C_ C_ 0.374091 0.248395 0.444528 0.23465
C_ C_ 0.131885 0.222358 0.425417 -0.11473
C_ C_ 0.400779 0.247706 0.423988 -0.11473
C_ C_ 0.120589 0.296601 0.128782 0.17695
C_ C_ 0.365956 0.21991 0.120204 0.17695
C_ C_ 0.12516 0.222153 0.123961 0.17695
C_ C_ 0.377948 0.292494 0.127573 0.17695
C_ C_ 0.130116 0.225252 0.0807047 -0.11473
C_ C_ 0.377389 0.297681 0.0836751 -0.11473
C_ C_ 0.127366 0.263674 0.0614712 0.23465
C_ C_ 0.371482 0.262555 0.0568665 0.23465
C_ C_ 0.125605 0.299117 0.0857339 -0.11473
C_ C_ 0.362627 0.224757 0.0760956 -0.11473
C_ C_ 0.0347498 0.505211 0.264631 0.05793
C_ C_ 0.284422 0.504217 0.256919 0.05793
C_ C_ 0.221733 0.0025799 0.245696 0.05793
C_ C_ 0.472991 1.00483858 0.249146 0.05793
Br Br 0.0774827 0.509129 0.282641 -0.17191
Br Br 0.327398 0.49914 0.269979 -0.17191
Br Br 0.180409 0.0035367 0.259093 -0.17191
Br Br 0.428523 1.00301955 0.244532 -0.17191
N_ N_ 0.13145 0.253158 0.356298 -0.272
N_ N_ 0.374756 0.248032 0.357572 -0.272
N_ N_ 0.13926 0.265942 0.489383 -0.12501
N_ N_ 0.372568 0.243174 0.489019 -0.12501
N_ N_ 0.121679 0.257549 0.147 -0.272
N_ N_ 0.376036 0.25416 0.144087 -0.272
N_ N_ 0.126527 0.267641 0.0165259 -0.12501
N_ N_ 0.365171 0.267412 0.0120284 -0.12501
O_ O_ 0.0993494 0.300587 0.21262 -0.60745
O_ O_ 0.349066 0.297571 0.211191 -0.60745
O_ O_ 0.0979916 0.297833 0.2828 -0.60745
O_ O_ 0.347548 0.29496 0.279799 -0.60745
O_ O_ 0.158696 0.297487 0.281681 -0.60745
O_ O_ 0.406373 0.29259 0.288509 -0.60745
O_ O_ 0.158045 0.300883 0.21425 -0.60745
O_ O_ 0.407698 0.296901 0.22063 -0.60745
O_ O_ 0.161677 0.208111 0.281622 -0.60745
O_ O_ 0.409512 0.208241 0.286584 -0.60745
O_ O_ 0.1607 0.209515 0.214024 -0.60745
O_ O_ 0.409158 0.209857 0.216907 -0.60745
O_ O_ 0.100937 0.210778 0.222848 -0.60745
O_ O_ 0.344148 0.207354 0.212873 -0.60745
O_ O_ 0.0972063 0.208091 0.290207 -0.60745
O_ O_ 0.346449 0.206379 0.282263 -0.60745
Zn Zn 0.126866 0.250579 0.788055 0.9476
Zn Zn 0.372941 0.246667 0.786076 0.9476
Zn Zn 0.127231 0.24826 0.71928 0.9476
Zn Zn 0.373901 0.248996 0.717258 0.9476
H_ H_ 0.0257547 0.409015 0.687953 0.10932
H_ H_ 0.286623 0.418746 0.680552 0.10932
H_ H_ 0.0719128 0.35492 0.818505 0.10932
H_ H_ 0.307402 0.349509 0.816824 0.10932
H_ H_ 0.0571071 0.344172 0.687029 0.10932
H_ H_ 0.316413 0.35519 0.683551 0.10932
H_ H_ 0.0404134 0.42018 0.817997 0.10932
H_ H_ 0.284607 0.416925 0.814603 0.10932
H_ H_ 0.187303 0.443254 0.80256 0.10932
H_ H_ 0.458841 0.416624 0.828952 0.10932
H_ H_ 0.207016 0.333267 0.697187 0.10932
H_ H_ 0.440488 0.349813 0.69347 0.10932
H_ H_ 0.16725 0.371731 0.814955 0.10932
H_ H_ 0.426606 0.353885 0.824911 0.10932
H_ H_ 0.226489 0.400914 0.686415 0.10932
H_ H_ 0.469269 0.411131 0.695618 0.10932
H_ H_ 0.216263 0.0748772 0.816555 0.10932
H_ H_ 0.463118 0.0744132 0.814873 0.10932
H_ H_ 0.187038 0.146965 0.682173 0.10932
H_ H_ 0.432953 0.142031 0.683128 0.10932
H_ H_ 0.196371 0.14401 0.815078 0.10932
H_ H_ 0.427657 0.13591 0.814669 0.10932
H_ H_ 0.219773 0.0866548 0.678713 0.10932
H_ H_ 0.462043 0.0787129 0.68178 0.10932
H_ H_ 0.0412779 0.0807908 0.683559 0.10932
H_ H_ 0.289326 0.0744804 0.679583 0.10932
H_ H_ 0.062333 0.150127 0.813858 0.10932
H_ H_ 0.295732 0.156518 0.809391 0.10932
H_ H_ 0.069686 0.140576 0.68057 0.10932
H_ H_ 0.319573 0.136783 0.681405 0.10932
H_ H_ 0.0288568 0.0919228 0.814614 0.10932
H_ H_ 0.27417 0.0864661 0.810306 0.10932
H_ H_ 0.133395 0.311869 0.867159 0.10932
H_ H_ 0.375787 0.311167 0.866573 0.10932
H_ H_ 0.128446 0.183098 0.856728 0.10932
H_ H_ 0.354239 0.181704 0.855641 0.10932
H_ H_ 0.137657 0.178791 0.935383 0.10932
H_ H_ 0.357775 0.17633 0.934315 0.10932
H_ H_ 0.125525 0.31073 0.94035 0.10932
H_ H_ 0.368648 0.308293 0.940209 0.10932
H_ H_ 0.113648 0.191501 0.646248 0.10932
H_ H_ 0.380719 0.189068 0.636033 0.10932
H_ H_ 0.137632 0.318426 0.640075 0.10932
H_ H_ 0.369105 0.319693 0.647788 0.10932
H_ H_ 0.139193 0.314429 0.565082 0.10932
H_ H_ 0.36686 0.325997 0.572026 0.10932
H_ H_ 0.114003 0.187843 0.567716 0.10932
H_ H_ 0.386912 0.193137 0.560285 0.10932
C_ C_ 0.0692026 0.34945 0.751683 -0.02249
C_ C_ 0.31448 0.348192 0.749223 -0.02249
C_ C_ 0.0129189 0.459344 0.753233 -0.02249
C_ C_ 0.263834 0.464328 0.750606 -0.02249
C_ C_ 0.0359654 0.396212 0.715809 -0.11473
C_ C_ 0.290442 0.40554 0.711464 -0.11473
C_ C_ 0.062265 0.369374 0.789869 -0.11473
C_ C_ 0.303438 0.3641 0.786813 -0.11473
C_ C_ 0.0570109 0.363502 0.713672 -0.11473
C_ C_ 0.30779 0.367897 0.712298 -0.11473
C_ C_ 0.0321608 0.420284 0.752755 -0.02249
C_ C_ 0.281293 0.422573 0.748892 -0.02249
C_ C_ 0.0886731 0.311549 0.751961 0.6875
C_ C_ 0.33326 0.310712 0.74829 0.6875
C_ C_ 0.0439945 0.404886 0.789832 -0.11473
C_ C_ 0.287706 0.401289 0.787384 -0.11473
C_ C_ 0.182184 0.348035 0.75393 -0.02249
C_ C_ 0.431167 0.346532 0.758453 -0.02249
C_ C_ 0.232019 0.465005 0.742975 -0.02249
C_ C_ 0.482107 0.459623 0.765128 -0.02249
C_ C_ 0.193744 0.418124 0.781687 -0.11473
C_ C_ 0.454215 0.402715 0.798746 -0.11473
C_ C_ 0.200684 0.356574 0.71856 -0.11473
C_ C_ 0.447411 0.359816 0.722943 -0.11473
C_ C_ 0.177872 0.379491 0.784759 -0.11473
C_ C_ 0.435623 0.368475 0.796217 -0.11473
C_ C_ 0.214267 0.425669 0.747502 -0.02249
C_ C_ 0.465612 0.419504 0.763135 -0.02249
C_ C_ 0.167646 0.305529 0.758091 0.6875
C_ C_ 0.413396 0.307577 0.755901 0.6875
C_ C_ 0.214998 0.395546 0.714933 -0.11473
C_ C_ 0.463316 0.396951 0.724364 -0.11473
C_ C_ 0.184386 0.14898 0.749257 -0.02249
C_ C_ 0.432534 0.147173 0.750067 -0.02249
C_ C_ 0.233619 0.0317476 0.743615 -0.02249
C_ C_ 0.485012 0.0364544 0.744631 -0.02249
C_ C_ 0.209039 0.0900738 0.784812 -0.11473
C_ C_ 0.457603 0.0906145 0.785552 -0.11473
C_ C_ 0.192372 0.131962 0.710227 -0.11473
C_ C_ 0.442971 0.131013 0.711302 -0.11473
C_ C_ 0.194785 0.128137 0.786114 -0.11473
C_ C_ 0.438411 0.125024 0.785993 -0.11473
C_ C_ 0.216838 0.0714406 0.74496 -0.02249
C_ C_ 0.467517 0.0743222 0.748847 -0.02249
C_ C_ 0.165228 0.187187 0.749349 0.6875
C_ C_ 0.41124 0.182943 0.753565 0.6875
C_ C_ 0.208058 0.0933561 0.708275 -0.11473
C_ C_ 0.45874 0.0942331 0.710561 -0.11473
C_ C_ 0.0662676 0.153367 0.748077 -0.02249
C_ C_ 0.314346 0.145572 0.750023 -0.02249
C_ C_ 0.0168019 0.0383656 0.751391 -0.02249
C_ C_ 0.264225 0.0309949 0.747568 -0.02249
C_ C_ 0.0454477 0.0932882 0.711673 -0.11473
C_ C_ 0.295259 0.0875187 0.709003 -0.11473
C_ C_ 0.0564767 0.136318 0.78496 -0.11473
C_ C_ 0.297031 0.133054 0.783362 -0.11473
C_ C_ 0.0625232 0.129836 0.7113 -0.11473
C_ C_ 0.312694 0.122728 0.711926 -0.11473
C_ C_ 0.0353626 0.0759597 0.749131 -0.02249
C_ C_ 0.281591 0.0717492 0.745692 -0.02249
C_ C_ 0.084724 0.190491 0.750606 0.6875
C_ C_ 0.332917 0.184891 0.750579 0.6875
C_ C_ 0.0411493 0.097752 0.787073 -0.11473
C_ C_ 0.285222 0.0933782 0.782788 -0.11473
C_ C_ 0.130071 0.283014 0.882371 0.17695
C_ C_ 0.374556 0.278695 0.879316 0.17695
C_ C_ 0.132602 0.20914 0.876636 0.17695
C_ C_ 0.358709 0.209771 0.874398 0.17695
C_ C_ 0.135195 0.207525 0.92075 -0.11473
C_ C_ 0.356461 0.206391 0.919222 -0.11473
C_ C_ 0.132356 0.24247 0.946833 0.23465
C_ C_ 0.362689 0.240646 0.944809 0.23465
C_ C_ 0.129798 0.282407 0.924831 -0.11473
C_ C_ 0.370657 0.27862 0.924702 -0.11473
C_ C_ 0.119427 0.219036 0.626703 0.17695
C_ C_ 0.380132 0.220489 0.622946 0.17695
C_ C_ 0.136954 0.288013 0.624782 0.17695
C_ C_ 0.374071 0.293626 0.627868 0.17695
C_ C_ 0.136168 0.28603 0.5816 -0.11473
C_ C_ 0.374671 0.297131 0.584226 -0.11473
C_ C_ 0.129749 0.247259 0.560299 0.23465
C_ C_ 0.381493 0.26168 0.558613 0.23465
C_ C_ 0.12039 0.215311 0.584041 -0.11473
C_ C_ 0.383733 0.22395 0.578431 -0.11473
C_ C_ 0.0276607 0.497934 0.751421 0.05793
C_ C_ 0.279298 0.50343 0.756126 0.05793
C_ C_ 0.215014 -0.004943000000000031 0.742903 0.05793
C_ C_ 0.469024 0.99866 0.744608 0.05793
Br Br 0.0697341 0.498139 0.765317 -0.17191
Br Br 0.321618 0.496885 0.776549 -0.17191
Br Br 0.17044 -0.0012119999999999909 0.73646 -0.17191
Br Br 0.426317 1.000947512 0.734584 -0.17191
N_ N_ 0.129583 0.248056 0.858934 -0.272
N_ N_ 0.36859 0.244635 0.855588 -0.272
N_ N_ 0.130873 0.238192 0.991552 -0.12501
N_ N_ 0.361623 0.236809 0.989236 -0.12501
N_ N_ 0.130032 0.253772 0.647572 -0.272
N_ N_ 0.375475 0.254659 0.646518 -0.272
N_ N_ 0.125651 0.244191 0.515399 -0.12501
N_ N_ 0.385578 0.267245 0.515404 -0.12501
O_ O_ 0.100284 0.298981 0.71784 -0.60745
O_ O_ 0.340247 0.29325 0.713852 -0.60745
O_ O_ 0.0957464 0.295324 0.786169 -0.60745
O_ O_ 0.345437 0.296851 0.782651 -0.60745
O_ O_ 0.158119 0.291143 0.793207 -0.60745
O_ O_ 0.403968 0.289885 0.78951 -0.60745
O_ O_ 0.16242 0.28529 0.723946 -0.60745
O_ O_ 0.404951 0.294213 0.721054 -0.60745
O_ O_ 0.157758 0.20344 0.785341 -0.60745
O_ O_ 0.402537 0.19745 0.787958 -0.60745
O_ O_ 0.152315 0.199338 0.714218 -0.60745
O_ O_ 0.405158 0.204714 0.720375 -0.60745
O_ O_ 0.0938076 0.208408 0.715682 -0.60745
O_ O_ 0.345065 0.200134 0.716581 -0.60745
O_ O_ 0.0951852 0.203144 0.785384 -0.60745
O_ O_ 0.337894 0.203235 0.785135 -0.60745
Zn Zn 0.127349 0.754916 0.280203 0.9476
Zn Zn 0.379848 0.754179 0.283901 0.9476
Zn Zn 0.124145 0.751492 0.210546 0.9476
Zn Zn 0.379395 0.75138 0.211841 0.9476
H_ H_ 0.0317298 0.910933 0.168238 0.10932
H_ H_ 0.274215 0.903757 0.181005 0.10932
H_ H_ 0.0646486 0.858872 0.307917 0.10932
H_ H_ 0.334087 0.869007 0.308287 0.10932
H_ H_ 0.0545586 0.845478 0.173815 0.10932
H_ H_ 0.297933 0.83605 0.188567 0.10932
H_ H_ 0.037634 0.923884 0.305279 0.10932
H_ H_ 0.301471 0.930798 0.309795 0.10932
H_ H_ 0.228551 0.911073 0.305872 0.10932
H_ H_ 0.476378 0.917942 0.311192 0.10932
H_ H_ 0.172002 0.868541 0.17511 0.10932
H_ H_ 0.426831 0.861798 0.187777 0.10932
H_ H_ 0.197191 0.843315 0.30553 0.10932
H_ H_ 0.449418 0.852856 0.313193 0.10932
H_ H_ 0.19779 0.936663 0.179373 0.10932
H_ H_ 0.453562 0.931295 0.18062 0.10932
H_ H_ 0.214707 0.587194 0.315901 0.10932
H_ H_ 0.476092 0.592144 0.317655 0.10932
H_ H_ 0.193113 0.657522 0.180153 0.10932
H_ H_ 0.440451 0.644467 0.185614 0.10932
H_ H_ 0.186205 0.653945 0.316293 0.10932
H_ H_ 0.451844 0.663612 0.317355 0.10932
H_ H_ 0.218595 0.587539 0.185914 0.10932
H_ H_ 0.462213 0.578108 0.189386 0.10932
H_ H_ 0.051836 0.572595 0.196297 0.10932
H_ H_ 0.276826 0.589499 0.189134 0.10932
H_ H_ 0.0476768 0.670652 0.313789 0.10932
H_ H_ 0.33056 0.646306 0.31472 0.10932
H_ H_ 0.0778362 0.635396 0.190413 0.10932
H_ H_ 0.308508 0.65109 0.183052 0.10932
H_ H_ 0.0196658 0.60069 0.317096 0.10932
H_ H_ 0.296728 0.588347 0.321037 0.10932
H_ H_ 0.126476 0.824331 0.352815 0.10932
H_ H_ 0.381958 0.819307 0.361786 0.10932
H_ H_ 0.118618 0.695231 0.355378 0.10932
H_ H_ 0.374733 0.689414 0.351757 0.10932
H_ H_ 0.115901 0.690875 0.431935 0.10932
H_ H_ 0.365344 0.68414 0.428928 0.10932
H_ H_ 0.133006 0.820794 0.433434 0.10932
H_ H_ 0.375158 0.813279 0.437491 0.10932
H_ H_ 0.130605 0.682442 0.143387 0.10932
H_ H_ 0.378544 0.821837 0.146915 0.10932
H_ H_ 0.124008 0.810148 0.133333 0.10932
H_ H_ 0.377749 0.691549 0.134375 0.10932
H_ H_ 0.118014 0.806413 0.0527732 0.10932
H_ H_ 0.37693 0.695471 0.054287 0.10932
H_ H_ 0.136473 0.676323 0.0656159 0.10932
H_ H_ 0.380524 0.826077 0.0634903 0.10932
C_ C_ 0.0653127 0.847398 0.24148 -0.02249
C_ C_ 0.317301 0.847256 0.25083 -0.02249
C_ C_ 0.0192882 0.964492 0.235074 -0.02249
C_ C_ 0.268017 0.964564 0.241254 -0.02249
C_ C_ 0.0395026 0.901483 0.200332 -0.11473
C_ C_ 0.286016 0.896256 0.210712 -0.11473
C_ C_ 0.0605913 0.871461 0.277673 -0.11473
C_ C_ 0.317253 0.87453 0.285615 -0.11473
C_ C_ 0.0535744 0.863915 0.202934 -0.11473
C_ C_ 0.301775 0.859325 0.213548 -0.11473
C_ C_ 0.0366074 0.925755 0.23717 -0.02249
C_ C_ 0.284434 0.92253 0.2459 -0.02249
C_ C_ 0.0847619 0.80918 0.24185 0.6875
C_ C_ 0.336213 0.809493 0.251071 0.6875
C_ C_ 0.0435614 0.907911 0.276186 -0.11473
C_ C_ 0.301136 0.912335 0.282734 -0.11473
C_ C_ 0.180904 0.852503 0.24174 -0.02249
C_ C_ 0.439192 0.849335 0.248718 -0.02249
C_ C_ 0.235889 0.963578 0.244459 -0.02249
C_ C_ 0.48892 0.966566 0.246203 -0.02249
C_ C_ 0.217571 0.898615 0.277261 -0.11473
C_ C_ 0.469152 0.903326 0.28182 -0.11473
C_ C_ 0.183232 0.877412 0.205698 -0.11473
C_ C_ 0.441118 0.873025 0.212269 -0.11473
C_ C_ 0.197674 0.864501 0.278427 -0.11473
C_ C_ 0.453768 0.864735 0.28328 -0.11473
C_ C_ 0.218501 0.923882 0.241296 -0.02249
C_ C_ 0.472097 0.925673 0.244097 -0.02249
C_ C_ 0.161419 0.814158 0.24298 0.6875
C_ C_ 0.41865 0.811455 0.251692 0.6875
C_ C_ 0.200771 0.91391 0.205401 -0.11473
C_ C_ 0.458252 0.910025 0.207745 -0.11473
C_ C_ 0.186227 0.660128 0.248239 -0.02249
C_ C_ 0.436437 0.655204 0.251561 -0.02249
C_ C_ 0.2378 0.543801 0.252767 -0.02249
C_ C_ 0.483034 0.538729 0.255371 -0.02249
C_ C_ 0.209819 0.602836 0.287568 -0.11473
C_ C_ 0.462883 0.602197 0.291408 -0.11473
C_ C_ 0.198986 0.643951 0.210832 -0.11473
C_ C_ 0.439627 0.629305 0.21491 -0.11473
C_ C_ 0.193426 0.639725 0.286513 -0.11473
C_ C_ 0.451495 0.64278 0.288715 -0.11473
C_ C_ 0.22077 0.583945 0.252047 -0.02249
C_ C_ 0.462916 0.57535 0.256008 -0.02249
C_ C_ 0.163454 0.694745 0.24738 0.6875
C_ C_ 0.420592 0.694735 0.247842 0.6875
C_ C_ 0.215032 0.604993 0.21388 -0.11473
C_ C_ 0.452425 0.590261 0.218151 -0.11473
C_ C_ 0.0653931 0.658381 0.25319 -0.02249
C_ C_ 0.325316 0.649961 0.246201 -0.02249
C_ C_ 0.0182895 0.542395 0.260624 -0.02249
C_ C_ 0.269746 0.542712 0.258031 -0.02249
C_ C_ 0.0490033 0.592546 0.221693 -0.11473
C_ C_ 0.287417 0.602442 0.217009 -0.11473
C_ C_ 0.0512045 0.645766 0.29083 -0.11473
C_ C_ 0.321146 0.632031 0.285539 -0.11473
C_ C_ 0.0632616 0.63104 0.218775 -0.11473
C_ C_ 0.306043 0.638437 0.21321 -0.11473
C_ C_ 0.035097 0.581308 0.258126 -0.02249
C_ C_ 0.286156 0.581904 0.255541 -0.02249
C_ C_ 0.0859619 0.695361 0.250073 0.6875
C_ C_ 0.343298 0.690392 0.243076 0.6875
C_ C_ 0.0347413 0.606907 0.292877 -0.11473
C_ C_ 0.301986 0.598878 0.290589 -0.11473
C_ C_ 0.125407 0.796075 0.371507 0.17695
C_ C_ 0.377457 0.789976 0.376152 0.17695
C_ C_ 0.119235 0.722397 0.372164 0.17695
C_ C_ 0.37489 0.716523 0.371646 0.17695
C_ C_ 0.11871 0.720893 0.41649 -0.11473
C_ C_ 0.37186 0.713218 0.415687 -0.11473
C_ C_ 0.122337 0.757493 0.438791 0.23465
C_ C_ 0.370343 0.750206 0.439086 0.23465
C_ C_ 0.125155 0.795591 0.415564 -0.11473
C_ C_ 0.373994 0.787028 0.419016 -0.11473
C_ C_ 0.128695 0.710203 0.122744 0.17695
C_ C_ 0.378509 0.793874 0.124904 0.17695
C_ C_ 0.123182 0.782848 0.116261 0.17695
C_ C_ 0.37625 0.719567 0.118854 0.17695
C_ C_ 0.120679 0.779925 0.0718746 -0.11473
C_ C_ 0.373114 0.722608 0.0737407 -0.11473
C_ C_ 0.124738 0.740554 0.0531865 0.23465
C_ C_ 0.371448 0.762955 0.0557355 0.23465
C_ C_ 0.130621 0.70509 0.0800058 -0.11473
C_ C_ 0.375308 0.797241 0.080051 -0.11473
C_ C_ 0.0348995 1.00255044 0.228337 0.05793
C_ C_ 0.283374 1.00297669 0.237253 0.05793
C_ C_ 0.222204 0.504729 0.252221 0.05793
C_ C_ 0.468311 0.499444 0.262881 0.05793
Br Br 0.0759338 0.00194048 0.209443 -0.17191
Br Br 0.325584 0.998405 0.223855 -0.17191
Br Br 0.180004 0.503206 0.244017 -0.17191
Br Br 0.426484 0.500216 0.274555 -0.17191
N_ N_ 0.124771 0.759096 0.35274 -0.272
N_ N_ 0.378606 0.754888 0.352415 -0.272
N_ N_ 0.121375 0.76122 0.48304 -0.12501
N_ N_ 0.361783 0.749365 0.481991 -0.12501
N_ N_ 0.12444 0.747125 0.139487 -0.272
N_ N_ 0.382258 0.755242 0.142281 -0.272
N_ N_ 0.124163 0.733747 0.00729945 -0.12501
N_ N_ 0.369806 0.769671 0.0105973 -0.12501
O_ O_ 0.0912502 0.789852 0.208258 -0.60745
O_ O_ 0.348824 0.79773 0.21641 -0.60745
O_ O_ 0.0983167 0.799162 0.274555 -0.60745
O_ O_ 0.345731 0.79446 0.284932 -0.60745
O_ O_ 0.155224 0.798211 0.277835 -0.60745
O_ O_ 0.409551 0.799354 0.287245 -0.60745
O_ O_ 0.153638 0.79608 0.208052 -0.60745
O_ O_ 0.40876 0.796198 0.218139 -0.60745
O_ O_ 0.154368 0.710587 0.282767 -0.60745
O_ O_ 0.410214 0.708935 0.281763 -0.60745
O_ O_ 0.156229 0.711628 0.213202 -0.60745
O_ O_ 0.412896 0.709636 0.212188 -0.60745
O_ O_ 0.0947855 0.705758 0.214353 -0.60745
O_ O_ 0.351665 0.70406 0.207907 -0.60745
O_ O_ 0.094996 0.713516 0.283658 -0.60745
O_ O_ 0.351469 0.707865 0.276803 -0.60745
Zn Zn 0.119229 0.746961 0.778901 0.9476
Zn Zn 0.373225 0.748176 0.782164 0.9476
Zn Zn 0.118423 0.746623 0.709243 0.9476
Zn Zn 0.373468 0.746028 0.71103 0.9476
H_ H_ 0.0265359 0.916645 0.68338 0.10932
H_ H_ 0.289915 0.92071 0.68088 0.10932
H_ H_ 0.0641341 0.851652 0.812157 0.10932
H_ H_ 0.290212 0.828949 0.805492 0.10932
H_ H_ 0.0501638 0.844208 0.679489 0.10932
H_ H_ 0.316679 0.856254 0.6762 0.10932
H_ H_ 0.0367126 0.918243 0.815371 0.10932
H_ H_ 0.266269 0.900284 0.810864 0.10932
H_ H_ 0.206412 0.915256 0.813905 0.10932
H_ H_ 0.452106 0.931713 0.808605 0.10932
H_ H_ 0.196241 0.834926 0.684604 0.10932
H_ H_ 0.450961 0.830854 0.693793 0.10932
H_ H_ 0.170515 0.856761 0.810647 0.10932
H_ H_ 0.420741 0.869823 0.811646 0.10932
H_ H_ 0.217087 0.905463 0.679537 0.10932
H_ H_ 0.484893 0.896408 0.693034 0.10932
H_ H_ 0.210726 0.578315 0.807098 0.10932
H_ H_ 0.454522 0.575097 0.823072 0.10932
H_ H_ 0.177422 0.64739 0.674303 0.10932
H_ H_ 0.44236 0.648481 0.685125 0.10932
H_ H_ 0.180005 0.643114 0.809458 0.10932
H_ H_ 0.424867 0.642303 0.819722 0.10932
H_ H_ 0.211098 0.583265 0.672305 0.10932
H_ H_ 0.465986 0.577135 0.691554 0.10932
H_ H_ 0.043171 0.567536 0.6801 0.10932
H_ H_ 0.297824 0.562553 0.692509 0.10932
H_ H_ 0.0512712 0.655199 0.805085 0.10932
H_ H_ 0.298654 0.660814 0.813503 0.10932
H_ H_ 0.0700892 0.632775 0.676475 0.10932
H_ H_ 0.3233 0.631743 0.685662 0.10932
H_ H_ 0.0265434 0.590584 0.812049 0.10932
H_ H_ 0.271511 0.593292 0.819026 0.10932
H_ H_ 0.120531 0.819198 0.854926 0.10932
H_ H_ 0.379932 0.813683 0.859082 0.10932
H_ H_ 0.113952 0.685051 0.861255 0.10932
H_ H_ 0.36923 0.685188 0.850594 0.10932
H_ H_ 0.118007 0.688736 0.935532 0.10932
H_ H_ 0.363483 0.678331 0.92908 0.10932
H_ H_ 0.121098 0.823145 0.927626 0.10932
H_ H_ 0.369453 0.810314 0.936095 0.10932
H_ H_ 0.119481 0.677571 0.641721 0.10932
H_ H_ 0.359281 0.803383 0.641257 0.10932
H_ H_ 0.123038 0.809945 0.630876 0.10932
H_ H_ 0.385518 0.678497 0.638156 0.10932
H_ H_ 0.119305 0.80367 0.554627 0.10932
H_ H_ 0.394077 0.685772 0.564091 0.10932
H_ H_ 0.111199 0.671441 0.565749 0.10932
H_ H_ 0.356457 0.806804 0.557238 0.10932
C_ C_ 0.0614028 0.845273 0.746523 -0.02249
C_ C_ 0.306884 0.837716 0.742473 -0.02249
C_ C_ 0.0118878 0.961576 0.748123 -0.02249
C_ C_ 0.262204 0.955546 0.74526 -0.02249
C_ C_ 0.032612 0.900228 0.711384 -0.11473
C_ C_ 0.289962 0.900338 0.70784 -0.11473
C_ C_ 0.0529916 0.863421 0.785656 -0.11473
C_ C_ 0.294116 0.851708 0.780009 -0.11473
C_ C_ 0.0491123 0.862357 0.709775 -0.11473
C_ C_ 0.30794 0.864585 0.70779 -0.11473
C_ C_ 0.0270521 0.919948 0.7484 -0.02249
C_ C_ 0.278373 0.914488 0.746745 -0.02249
C_ C_ 0.0798507 0.806344 0.74585 0.6875
C_ C_ 0.328582 0.801822 0.745026 0.6875
C_ C_ 0.0375139 0.901204 0.785727 -0.11473
C_ C_ 0.280325 0.890036 0.783135 -0.11473
C_ C_ 0.17571 0.843828 0.743923 -0.02249
C_ C_ 0.429541 0.849074 0.748134 -0.02249
C_ C_ 0.229802 0.955919 0.743336 -0.02249
C_ C_ 0.484697 0.959376 0.746967 -0.02249
C_ C_ 0.200233 0.901366 0.78294 -0.11473
C_ C_ 0.450988 0.911003 0.782489 -0.11473
C_ C_ 0.190992 0.858037 0.707474 -0.11473
C_ C_ 0.44732 0.85689 0.713644 -0.11473
C_ C_ 0.178565 0.867672 0.781333 -0.11473
C_ C_ 0.430098 0.878331 0.781612 -0.11473
C_ C_ 0.213655 0.916452 0.745157 -0.02249
C_ C_ 0.468134 0.920416 0.748918 -0.02249
C_ C_ 0.157151 0.805646 0.742438 0.6875
C_ C_ 0.411596 0.809334 0.746814 0.6875
C_ C_ 0.208971 0.892879 0.708903 -0.11473
C_ C_ 0.466287 0.894491 0.713836 -0.11473
C_ C_ 0.179 0.650599 0.744205 -0.02249
C_ C_ 0.434225 0.650475 0.752475 -0.02249
C_ C_ 0.232555 0.540481 0.743057 -0.02249
C_ C_ 0.481262 0.533772 0.759885 -0.02249
C_ C_ 0.206753 0.597722 0.778918 -0.11473
C_ C_ 0.453194 0.592533 0.793459 -0.11473
C_ C_ 0.188705 0.635449 0.70382 -0.11473
C_ C_ 0.445001 0.630715 0.715467 -0.11473
C_ C_ 0.18902 0.632973 0.780388 -0.11473
C_ C_ 0.438265 0.631055 0.791477 -0.11473
C_ C_ 0.214171 0.578922 0.740374 -0.02249
C_ C_ 0.464387 0.574671 0.75709 -0.02249
C_ C_ 0.15943 0.689518 0.74502 0.6875
C_ C_ 0.41309 0.68704 0.750567 0.6875
C_ C_ 0.204319 0.597577 0.702943 -0.11473
C_ C_ 0.459216 0.59221 0.717671 -0.11473
C_ C_ 0.0628325 0.649741 0.740973 -0.02249
C_ C_ 0.315429 0.650205 0.750826 -0.02249
C_ C_ 0.0126062 0.535783 0.744571 -0.02249
C_ C_ 0.263536 0.540911 0.755507 -0.02249
C_ C_ 0.0442666 0.588562 0.706797 -0.11473
C_ C_ 0.296991 0.58622 0.718445 -0.11473
C_ C_ 0.0497682 0.637919 0.778069 -0.11473
C_ C_ 0.301705 0.638832 0.7887 -0.11473
C_ C_ 0.059703 0.625194 0.705291 -0.11473
C_ C_ 0.312191 0.624303 0.715228 -0.11473
C_ C_ 0.0323136 0.574522 0.744945 -0.02249
C_ C_ 0.280544 0.57914 0.754196 -0.02249
C_ C_ 0.0828252 0.686611 0.742804 0.6875
C_ C_ 0.336372 0.684035 0.749645 0.6875
C_ C_ 0.0339249 0.6005 0.781385 -0.11473
C_ C_ 0.284396 0.601773 0.790611 -0.11473
C_ C_ 0.120246 0.789633 0.871779 0.17695
C_ C_ 0.373166 0.784702 0.874439 0.17695
C_ C_ 0.118571 0.715957 0.873907 0.17695
C_ C_ 0.367377 0.711567 0.869831 0.17695
C_ C_ 0.119955 0.716769 0.918633 -0.11473
C_ C_ 0.364975 0.709593 0.913596 -0.11473
C_ C_ 0.12011 0.756459 0.939667 0.23465
C_ C_ 0.366426 0.745335 0.938508 0.23465
C_ C_ 0.12154 0.792028 0.915061 -0.11473
C_ C_ 0.371735 0.782756 0.918689 -0.11473
C_ C_ 0.118633 0.706491 0.623048 0.17695
C_ C_ 0.362441 0.776814 0.621928 0.17695
C_ C_ 0.120517 0.779859 0.616836 0.17695
C_ C_ 0.377908 0.706435 0.621139 0.17695
C_ C_ 0.117673 0.775865 0.573154 -0.11473
C_ C_ 0.38073 0.709506 0.577816 -0.11473
C_ C_ 0.11625 0.736831 0.552898 0.23465
C_ C_ 0.373966 0.74551 0.553935 0.23465
C_ C_ 0.11309 0.702634 0.579091 -0.11473
C_ C_ 0.36283 0.780403 0.576401 -0.11473
C_ C_ 0.0305551 -0.0027850000000000374 0.754324 0.05793
C_ C_ 0.280318 -0.006982000000000044 0.745283 0.05793
C_ C_ 0.217564 0.50144 0.742653 0.05793
C_ C_ 0.466343 0.496842 0.765579 0.05793
Br Br 0.0726575 -0.006990000000000052 0.761076 -0.17191
Br Br 0.323125 -0.00955499999999998 0.750503 -0.17191
Br Br 0.175292 0.502789 0.717833 -0.17191
Br Br 0.422829 0.495416 0.763298 -0.17191
N_ N_ 0.121178 0.752183 0.851689 -0.272
N_ N_ 0.370871 0.749965 0.851862 -0.272
N_ N_ 0.116165 0.761304 0.981739 -0.12501
N_ N_ 0.363033 0.7413 0.984328 -0.12501
N_ N_ 0.118431 0.744739 0.640307 -0.272
N_ N_ 0.36844 0.741223 0.642185 -0.272
N_ N_ 0.114027 0.733326 0.50816 -0.12501
N_ N_ 0.381855 0.746738 0.510773 -0.12501
O_ O_ 0.0868771 0.790384 0.710366 -0.60745
O_ O_ 0.33728 0.784325 0.711742 -0.60745
O_ O_ 0.0876227 0.78955 0.778818 -0.60745
O_ O_ 0.341671 0.794334 0.779914 -0.60745
O_ O_ 0.149003 0.790943 0.775932 -0.60745
O_ O_ 0.402625 0.793489 0.77925 -0.60745
O_ O_ 0.145139 0.795088 0.708367 -0.60745
O_ O_ 0.403511 0.795913 0.711031 -0.60745
O_ O_ 0.150111 0.704872 0.778528 -0.60745
O_ O_ 0.405542 0.70513 0.783654 -0.60745
O_ O_ 0.146658 0.700605 0.711118 -0.60745
O_ O_ 0.40716 0.704264 0.715191 -0.60745
O_ O_ 0.0922075 0.699594 0.708201 -0.60745
O_ O_ 0.346176 0.698238 0.71477 -0.60745
O_ O_ 0.0903227 0.702941 0.779499 -0.60745
O_ O_ 0.343202 0.701944 0.782993 -0.60745
Zn Zn 0.626062 0.250568 0.288759 0.9476
Zn Zn 0.878077 0.250659 0.287071 0.9476
Zn Zn 0.626362 0.254256 0.219284 0.9476
Zn Zn 0.878111 0.248055 0.217813 0.9476
H_ H_ 0.523336 0.411204 0.199916 0.10932
H_ H_ 0.784161 0.416599 0.18031 0.10932
H_ H_ 0.585411 0.369362 0.321347 0.10932
H_ H_ 0.821139 0.356347 0.314548 0.10932
H_ H_ 0.550833 0.343266 0.19907 0.10932
H_ H_ 0.820024 0.356008 0.182428 0.10932
H_ H_ 0.556633 0.437286 0.321339 0.10932
H_ H_ 0.789503 0.42076 0.312768 0.10932
H_ H_ 0.718951 0.420963 0.319405 0.10932
H_ H_ 0.960359 0.432107 0.321287 0.10932
H_ H_ 0.697527 0.342899 0.188084 0.10932
H_ H_ 0.941445 0.349769 0.191304 0.10932
H_ H_ 0.688779 0.356195 0.32376 0.10932
H_ H_ 0.926614 0.36779 0.321595 0.10932
H_ H_ 0.717219 0.412172 0.183877 0.10932
H_ H_ 0.977483 0.41115 0.189046 0.10932
H_ H_ 0.71737 0.0825497 0.316682 0.10932
H_ H_ 0.983951 0.0916159 0.316839 0.10932
H_ H_ 0.680498 0.139456 0.181753 0.10932
H_ H_ 0.933128 0.145691 0.188366 0.10932
H_ H_ 0.690191 0.147353 0.319446 0.10932
H_ H_ 0.95492 0.154616 0.322796 0.10932
H_ H_ 0.722567 0.0885444 0.184363 0.10932
H_ H_ 0.961759 0.0780802 0.187478 0.10932
H_ H_ 0.540328 0.085665 0.18396 0.10932
H_ H_ 0.78803 0.082714 0.175358 0.10932
H_ H_ 0.560378 0.153569 0.317693 0.10932
H_ H_ 0.819563 0.146441 0.315164 0.10932
H_ H_ 0.562708 0.152908 0.1841 0.10932
H_ H_ 0.821435 0.14017 0.179729 0.10932
H_ H_ 0.534113 0.0887618 0.316482 0.10932
H_ H_ 0.782771 0.0855528 0.313448 0.10932
H_ H_ 0.580687 0.273465 0.3683 0.10932
H_ H_ 0.890636 0.192799 0.368283 0.10932
H_ H_ 0.674268 0.246444 0.358542 0.10932
H_ H_ 0.872006 0.318614 0.353389 0.10932
H_ H_ 0.679136 0.251926 0.437991 0.10932
H_ H_ 0.863442 0.329285 0.427507 0.10932
H_ H_ 0.584957 0.267145 0.446907 0.10932
H_ H_ 0.886274 0.200604 0.44904 0.10932
H_ H_ 0.622942 0.188393 0.143356 0.10932
H_ H_ 0.834558 0.263462 0.13575 0.10932
H_ H_ 0.626671 0.31872 0.149628 0.10932
H_ H_ 0.925895 0.222564 0.152347 0.10932
H_ H_ 0.627155 0.322754 0.0749636 0.10932
H_ H_ 0.92951 0.215291 0.074292 0.10932
H_ H_ 0.621352 0.191742 0.0651971 0.10932
H_ H_ 0.838485 0.262853 0.0586896 0.10932
C_ C_ 0.568871 0.351285 0.260827 -0.02249
C_ C_ 0.816328 0.345231 0.248504 -0.02249
C_ C_ 0.517681 0.465899 0.262553 -0.02249
C_ C_ 0.766884 0.462436 0.246835 -0.02249
C_ C_ 0.53464 0.400474 0.227186 -0.11473
C_ C_ 0.79067 0.400959 0.208944 -0.11473
C_ C_ 0.569822 0.377733 0.295897 -0.11473
C_ C_ 0.809144 0.365924 0.28607 -0.11473
C_ C_ 0.549537 0.362374 0.227173 -0.11473
C_ C_ 0.807233 0.363897 0.210023 -0.11473
C_ C_ 0.534561 0.424321 0.262789 -0.02249
C_ C_ 0.783988 0.422279 0.245429 -0.02249
C_ C_ 0.589803 0.315807 0.256093 0.6875
C_ C_ 0.837864 0.309036 0.250418 0.6875
C_ C_ 0.552333 0.414546 0.298266 -0.11473
C_ C_ 0.795551 0.407643 0.283513 -0.11473
C_ C_ 0.689991 0.342765 0.255782 -0.02249
C_ C_ 0.933881 0.353206 0.256416 -0.02249
C_ C_ 0.734741 0.464076 0.248191 -0.02249
C_ C_ 0.986833 0.466807 0.254292 -0.02249
C_ C_ 0.712069 0.404203 0.291003 -0.11473
C_ C_ 0.958674 0.412571 0.292989 -0.11473
C_ C_ 0.700875 0.359536 0.217094 -0.11473
C_ C_ 0.945972 0.36803 0.218554 -0.11473
C_ C_ 0.694033 0.367485 0.292793 -0.11473
C_ C_ 0.940573 0.374998 0.293094 -0.11473
C_ C_ 0.717908 0.422973 0.251544 -0.02249
C_ C_ 0.971598 0.425627 0.255107 -0.02249
C_ C_ 0.668942 0.30668 0.254937 0.6875
C_ C_ 0.912928 0.316897 0.256098 0.6875
C_ C_ 0.711448 0.400078 0.214752 -0.11473
C_ C_ 0.965798 0.402675 0.217614 -0.11473
C_ C_ 0.682533 0.152937 0.250217 -0.02249
C_ C_ 0.940527 0.155659 0.254733 -0.02249
C_ C_ 0.734815 0.0395358 0.244349 -0.02249
C_ C_ 0.989328 0.0394339 0.252382 -0.02249
C_ C_ 0.711273 0.0982601 0.287246 -0.11473
C_ C_ 0.972253 0.102161 0.290064 -0.11473
C_ C_ 0.691251 0.135335 0.211944 -0.11473
C_ C_ 0.942001 0.132384 0.217544 -0.11473
C_ C_ 0.692555 0.133265 0.289019 -0.11473
C_ C_ 0.957165 0.140014 0.291745 -0.11473
C_ C_ 0.719147 0.0803949 0.247989 -0.02249
C_ C_ 0.972244 0.0776559 0.253582 -0.02249
C_ C_ 0.661878 0.19033 0.252229 0.6875
C_ C_ 0.920503 0.191895 0.254843 0.6875
C_ C_ 0.712224 0.101696 0.211426 -0.11473
C_ C_ 0.957298 0.0929158 0.217714 -0.11473
C_ C_ 0.565469 0.156965 0.252102 -0.02249
C_ C_ 0.819822 0.14938 0.248315 -0.02249
C_ C_ 0.521515 0.0425076 0.253221 -0.02249
C_ C_ 0.766291 0.0383474 0.244539 -0.02249
C_ C_ 0.542179 0.101065 0.212828 -0.11473
C_ C_ 0.792824 0.095445 0.207009 -0.11473
C_ C_ 0.556541 0.138567 0.288684 -0.11473
C_ C_ 0.809142 0.134363 0.285149 -0.11473
C_ C_ 0.553567 0.142031 0.213598 -0.11473
C_ C_ 0.812464 0.129759 0.210161 -0.11473
C_ C_ 0.535845 0.0816882 0.251318 -0.02249
C_ C_ 0.783205 0.0775264 0.245015 -0.02249
C_ C_ 0.583938 0.196933 0.255122 0.6875
C_ C_ 0.841195 0.186182 0.249278 0.6875
C_ C_ 0.542532 0.10056 0.289012 -0.11473
C_ C_ 0.789127 0.0989766 0.283401 -0.11473
C_ C_ 0.60279 0.267699 0.382128 0.17695
C_ C_ 0.882557 0.221774 0.383642 0.17695
C_ C_ 0.655179 0.249298 0.379468 0.17695
C_ C_ 0.871251 0.291484 0.373935 0.17695
C_ C_ 0.657802 0.251701 0.423379 -0.11473
C_ C_ 0.865051 0.297703 0.417586 -0.11473
C_ C_ 0.631047 0.25771 0.447998 0.23465
C_ C_ 0.871427 0.265451 0.446619 0.23465
C_ C_ 0.604533 0.268626 0.427183 -0.11473
C_ C_ 0.880166 0.225888 0.427547 -0.11473
C_ C_ 0.623113 0.217341 0.126587 0.17695
C_ C_ 0.856421 0.257261 0.122026 0.17695
C_ C_ 0.623176 0.291061 0.130557 0.17695
C_ C_ 0.907305 0.232686 0.130637 0.17695
C_ C_ 0.624484 0.294199 0.0872741 -0.11473
C_ C_ 0.909297 0.229207 0.0865009 -0.11473
C_ C_ 0.626694 0.259246 0.0623093 0.23465
C_ C_ 0.885269 0.240611 0.0597292 0.23465
C_ C_ 0.623899 0.220551 0.0829684 -0.11473
C_ C_ 0.859234 0.257232 0.0770468 -0.11473
C_ C_ 0.531467 0.504545 0.250082 0.05793
C_ C_ 0.781023 0.502504 0.242321 0.05793
C_ C_ 0.718665 1.000604233 0.246733 0.05793
C_ C_ 0.973533 1.0028144 0.252084 0.05793
Br Br 0.572798 0.509878 0.250569 -0.17191
Br Br 0.823983 0.501478 0.234997 -0.17191
Br Br 0.675838 -0.001391000000000031 0.260233 -0.17191
Br Br 0.930277 0.00305109 0.254013 -0.17191
N_ N_ 0.627996 0.258416 0.359849 -0.272
N_ N_ 0.874516 0.25378 0.358235 -0.272
N_ N_ 0.634306 0.259351 0.493509 -0.12501
N_ N_ 0.869209 0.271042 0.490346 -0.12501
N_ N_ 0.624254 0.253255 0.149374 -0.272
N_ N_ 0.880946 0.245736 0.147781 -0.272
N_ N_ 0.632819 0.263842 0.0190053 -0.12501
N_ N_ 0.889166 0.246635 0.0153354 -0.12501
O_ O_ 0.59917 0.302887 0.222085 -0.60745
O_ O_ 0.845683 0.290408 0.217201 -0.60745
O_ O_ 0.593978 0.294321 0.287473 -0.60745
O_ O_ 0.843195 0.2911 0.286994 -0.60745
O_ O_ 0.656224 0.295261 0.289256 -0.60745
O_ O_ 0.903653 0.301097 0.28961 -0.60745
O_ O_ 0.661721 0.288825 0.221348 -0.60745
O_ O_ 0.908326 0.298197 0.220956 -0.60745
O_ O_ 0.654192 0.206358 0.287692 -0.60745
O_ O_ 0.915603 0.210242 0.290284 -0.60745
O_ O_ 0.652366 0.205074 0.217975 -0.60745
O_ O_ 0.911357 0.208211 0.221167 -0.60745
O_ O_ 0.590304 0.2188 0.222764 -0.60745
O_ O_ 0.850314 0.201835 0.214929 -0.60745
O_ O_ 0.595332 0.206824 0.290776 -0.60745
O_ O_ 0.850192 0.202149 0.282511 -0.60745
Zn Zn 0.627678 0.246006 0.788935 0.9476
Zn Zn 0.87252 0.248403 0.788946 0.9476
Zn Zn 0.624915 0.250614 0.717151 0.9476
Zn Zn 0.869476 0.249052 0.719165 0.9476
H_ H_ 0.527414 0.410639 0.686115 0.10932
H_ H_ 0.785479 0.421198 0.694278 0.10932
H_ H_ 0.566568 0.350869 0.822102 0.10932
H_ H_ 0.8057 0.344974 0.828735 0.10932
H_ H_ 0.556534 0.346557 0.686114 0.10932
H_ H_ 0.801326 0.347106 0.693564 0.10932
H_ H_ 0.534659 0.41499 0.823345 0.10932
H_ H_ 0.780411 0.41056 0.832083 0.10932
H_ H_ 0.714392 0.417542 0.823108 0.10932
H_ H_ 0.951057 0.426141 0.815866 0.10932
H_ H_ 0.676021 0.359087 0.686739 0.10932
H_ H_ 0.938458 0.341681 0.685311 0.10932
H_ H_ 0.699481 0.339353 0.819355 0.10932
H_ H_ 0.93242 0.357108 0.819762 0.10932
H_ H_ 0.714873 0.415592 0.687307 0.10932
H_ H_ 0.96745 0.405679 0.68435 0.10932
H_ H_ 0.722829 0.0875098 0.820216 0.10932
H_ H_ 0.962492 0.0752395 0.80886 0.10932
H_ H_ 0.668006 0.122421 0.69253 0.10932
H_ H_ 0.940098 0.155077 0.679522 0.10932
H_ H_ 0.695347 0.151055 0.819477 0.10932
H_ H_ 0.932629 0.13972 0.812911 0.10932
H_ H_ 0.695756 0.0600134 0.697865 0.10932
H_ H_ 0.96694 0.0862318 0.675426 0.10932
H_ H_ 0.53174 0.0825551 0.679864 0.10932
H_ H_ 0.788217 0.0762721 0.684713 0.10932
H_ H_ 0.56652 0.140363 0.812259 0.10932
H_ H_ 0.812703 0.14468 0.820161 0.10932
H_ H_ 0.563251 0.147033 0.676063 0.10932
H_ H_ 0.809374 0.145317 0.683629 0.10932
H_ H_ 0.550359 0.070901 0.809135 0.10932
H_ H_ 0.782064 0.0769293 0.819552 0.10932
H_ H_ 0.63769 0.313136 0.865336 0.10932
H_ H_ 0.889455 0.308751 0.86942 0.10932
H_ H_ 0.624294 0.1825 0.858245 0.10932
H_ H_ 0.87172 0.182485 0.853468 0.10932
H_ H_ 0.618336 0.17775 0.937466 0.10932
H_ H_ 0.872908 0.171132 0.929496 0.10932
H_ H_ 0.631464 0.311987 0.944639 0.10932
H_ H_ 0.891489 0.299884 0.946179 0.10932
H_ H_ 0.621348 0.315195 0.638339 0.10932
H_ H_ 0.860158 0.311117 0.639957 0.10932
H_ H_ 0.632193 0.186629 0.646712 0.10932
H_ H_ 0.880246 0.18403 0.643259 0.10932
H_ H_ 0.635695 0.18478 0.571925 0.10932
H_ H_ 0.877097 0.180242 0.567388 0.10932
H_ H_ 0.609027 0.312686 0.562007 0.10932
H_ H_ 0.843555 0.308367 0.569053 0.10932
C_ C_ 0.565095 0.345221 0.754112 -0.02249
C_ C_ 0.810151 0.34297 0.760028 -0.02249
C_ C_ 0.513526 0.460815 0.754226 -0.02249
C_ C_ 0.763696 0.460916 0.763939 -0.02249
C_ C_ 0.535055 0.398429 0.716434 -0.11473
C_ C_ 0.790244 0.40318 0.723926 -0.11473
C_ C_ 0.557373 0.364566 0.792417 -0.11473
C_ C_ 0.799864 0.359815 0.798542 -0.11473
C_ C_ 0.552253 0.361184 0.717433 -0.11473
C_ C_ 0.799012 0.362871 0.723643 -0.11473
C_ C_ 0.530584 0.420047 0.754647 -0.02249
C_ C_ 0.78271 0.421944 0.762266 -0.02249
C_ C_ 0.587242 0.309178 0.750783 0.6875
C_ C_ 0.830383 0.305691 0.756991 0.6875
C_ C_ 0.541042 0.402689 0.792958 -0.11473
C_ C_ 0.787336 0.400257 0.799943 -0.11473
C_ C_ 0.684424 0.34457 0.755047 -0.02249
C_ C_ 0.932041 0.343892 0.75288 -0.02249
C_ C_ 0.732668 0.46105 0.752428 -0.02249
C_ C_ 0.980791 0.459206 0.750569 -0.02249
C_ C_ 0.708338 0.402374 0.793686 -0.11473
C_ C_ 0.951813 0.405949 0.787282 -0.11473
C_ C_ 0.688593 0.366744 0.716525 -0.11473
C_ C_ 0.941741 0.35884 0.713904 -0.11473
C_ C_ 0.69587 0.362404 0.793107 -0.11473
C_ C_ 0.938716 0.366026 0.789495 -0.11473
C_ C_ 0.715604 0.421337 0.75572 -0.02249
C_ C_ 0.963925 0.419958 0.749375 -0.02249
C_ C_ 0.667159 0.306051 0.75522 0.6875
C_ C_ 0.911078 0.308816 0.753486 0.6875
C_ C_ 0.708609 0.402677 0.717567 -0.11473
C_ C_ 0.961283 0.393395 0.713569 -0.11473
C_ C_ 0.680815 0.145131 0.755254 -0.02249
C_ C_ 0.935172 0.15434 0.746222 -0.02249
C_ C_ 0.734532 0.0320907 0.759007 -0.02249
C_ C_ 0.986243 0.0405297 0.739905 -0.02249
C_ C_ 0.712465 0.0952414 0.792555 -0.11473
C_ C_ 0.96032 0.0937081 0.781028 -0.11473
C_ C_ 0.682309 0.119521 0.718382 -0.11473
C_ C_ 0.943404 0.137816 0.707321 -0.11473
C_ C_ 0.697128 0.132478 0.791472 -0.11473
C_ C_ 0.941844 0.130734 0.781919 -0.11473
C_ C_ 0.716579 0.0726444 0.756383 -0.02249
C_ C_ 0.97046 0.0803627 0.742527 -0.02249
C_ C_ 0.661503 0.182097 0.756747 0.6875
C_ C_ 0.912226 0.187815 0.747104 0.6875
C_ C_ 0.701072 0.0847786 0.71975 -0.11473
C_ C_ 0.962438 0.104014 0.706084 -0.11473
C_ C_ 0.566008 0.152801 0.745573 -0.02249
C_ C_ 0.814249 0.148628 0.753972 -0.02249
C_ C_ 0.517542 0.0354331 0.743465 -0.02249
C_ C_ 0.765998 0.031272 0.75075 -0.02249
C_ C_ 0.538041 0.0975834 0.708305 -0.11473
C_ C_ 0.79322 0.0894724 0.714296 -0.11473
C_ C_ 0.559572 0.129693 0.782366 -0.11473
C_ C_ 0.805982 0.129875 0.790838 -0.11473
C_ C_ 0.555282 0.134351 0.706592 -0.11473
C_ C_ 0.804536 0.130439 0.714958 -0.11473
C_ C_ 0.535948 0.0747538 0.745045 -0.02249
C_ C_ 0.784552 0.0700122 0.752674 -0.02249
C_ C_ 0.583 0.192036 0.747664 0.6875
C_ C_ 0.831943 0.18753 0.755549 0.6875
C_ C_ 0.5469 0.0903141 0.783181 -0.11473
C_ C_ 0.789983 0.0915084 0.790104 -0.11473
C_ C_ 0.633555 0.283415 0.882721 0.17695
C_ C_ 0.884361 0.280046 0.883335 0.17695
C_ C_ 0.625964 0.211154 0.878219 0.17695
C_ C_ 0.873135 0.208624 0.87435 0.17695
C_ C_ 0.624319 0.207931 0.922833 -0.11473
C_ C_ 0.874191 0.20281 0.917322 -0.11473
C_ C_ 0.62662 0.24419 0.947495 0.23465
C_ C_ 0.8785 0.236676 0.944709 0.23465
C_ C_ 0.63065 0.28269 0.926516 -0.11473
C_ C_ 0.886066 0.274502 0.926952 -0.11473
C_ C_ 0.619008 0.286402 0.623748 0.17695
C_ C_ 0.860281 0.281955 0.624811 0.17695
C_ C_ 0.629063 0.215273 0.62756 0.17695
C_ C_ 0.875349 0.212679 0.625544 0.17695
C_ C_ 0.627143 0.212509 0.585177 -0.11473
C_ C_ 0.871749 0.209439 0.581826 -0.11473
C_ C_ 0.617867 0.246906 0.561327 0.23465
C_ C_ 0.861877 0.244866 0.55928 0.23465
C_ C_ 0.612722 0.284361 0.580311 -0.11473
C_ C_ 0.855563 0.281591 0.58156 -0.11473
C_ C_ 0.529199 0.497671 0.754397 0.05793
C_ C_ 0.778445 0.498959 0.767148 0.05793
C_ C_ 0.717587 -0.005499999999999949 0.758764 0.05793
C_ C_ 0.9679 0.00431122 0.737022 0.05793
Br Br 0.570022 0.494481 0.743037 -0.17191
Br Br 0.818803 0.502846 0.792159 -0.17191
Br Br 0.678294 -0.006152000000000046 0.788338 -0.17191
Br Br 0.925018 0.010321 0.726818 -0.17191
N_ N_ 0.629524 0.24772 0.859384 -0.272
N_ N_ 0.8768 0.246299 0.858186 -0.272
N_ N_ 0.626245 0.237756 0.992673 -0.12501
N_ N_ 0.87162 0.231125 0.988417 -0.12501
N_ N_ 0.62729 0.251584 0.646758 -0.272
N_ N_ 0.869056 0.247853 0.647553 -0.272
N_ N_ 0.615399 0.244655 0.517816 -0.12501
N_ N_ 0.859084 0.243183 0.514653 -0.12501
O_ O_ 0.597111 0.297909 0.715504 -0.60745
O_ O_ 0.833274 0.286934 0.722587 -0.60745
O_ O_ 0.597784 0.293756 0.784964 -0.60745
O_ O_ 0.84559 0.295426 0.789989 -0.60745
O_ O_ 0.660563 0.290675 0.790385 -0.60745
O_ O_ 0.906071 0.290366 0.787348 -0.60745
O_ O_ 0.65918 0.290783 0.721596 -0.60745
O_ O_ 0.895939 0.296853 0.7218 -0.60745
O_ O_ 0.653156 0.196851 0.791933 -0.60745
O_ O_ 0.899391 0.198116 0.782667 -0.60745
O_ O_ 0.656371 0.202652 0.723836 -0.60745
O_ O_ 0.904074 0.207578 0.714127 -0.60745
O_ O_ 0.592542 0.207517 0.715042 -0.60745
O_ O_ 0.843725 0.19878 0.721357 -0.60745
O_ O_ 0.593748 0.204783 0.782025 -0.60745
O_ O_ 0.838202 0.206411 0.790707 -0.60745
Zn Zn 0.626541 0.752015 0.283408 0.9476
Zn Zn 0.875951 0.74766 0.283082 0.9476
Zn Zn 0.622081 0.752136 0.214485 0.9476
Zn Zn 0.876694 0.749549 0.212271 0.9476
H_ H_ 0.535704 0.917423 0.177632 0.10932
H_ H_ 0.771493 0.905855 0.179978 0.10932
H_ H_ 0.560005 0.851858 0.314323 0.10932
H_ H_ 0.829277 0.866431 0.309571 0.10932
H_ H_ 0.569551 0.862224 0.177693 0.10932
H_ H_ 0.796888 0.836137 0.184887 0.10932
H_ H_ 0.540159 0.919604 0.311286 0.10932
H_ H_ 0.800152 0.927265 0.307815 0.10932
H_ H_ 0.733801 0.902483 0.299532 0.10932
H_ H_ 0.969309 0.917869 0.315742 0.10932
H_ H_ 0.669207 0.870178 0.179214 0.10932
H_ H_ 0.938026 0.852712 0.178443 0.10932
H_ H_ 0.703104 0.838752 0.30233 0.10932
H_ H_ 0.938611 0.855999 0.313667 0.10932
H_ H_ 0.6992 0.931322 0.17817 0.10932
H_ H_ 0.970569 0.919297 0.178187 0.10932
H_ H_ 0.722865 0.590515 0.314072 0.10932
H_ H_ 0.95473 0.571696 0.318336 0.10932
H_ H_ 0.677787 0.6463 0.184495 0.10932
H_ H_ 0.956112 0.664548 0.196989 0.10932
H_ H_ 0.694934 0.656685 0.314819 0.10932
H_ H_ 0.92393 0.634697 0.319069 0.10932
H_ H_ 0.703042 0.578236 0.183178 0.10932
H_ H_ 0.982273 0.596335 0.19358 0.10932
H_ H_ 0.533984 0.583182 0.177962 0.10932
H_ H_ 0.770485 0.601366 0.180711 0.10932
H_ H_ 0.564007 0.652415 0.310602 0.10932
H_ H_ 0.828158 0.632554 0.31167 0.10932
H_ H_ 0.56056 0.651003 0.176975 0.10932
H_ H_ 0.810045 0.652474 0.177113 0.10932
H_ H_ 0.530281 0.589558 0.311764 0.10932
H_ H_ 0.791843 0.573238 0.309725 0.10932
H_ H_ 0.624728 0.689385 0.357798 0.10932
H_ H_ 0.865005 0.812029 0.362535 0.10932
H_ H_ 0.627717 0.820091 0.355049 0.10932
H_ H_ 0.882725 0.685524 0.354711 0.10932
H_ H_ 0.625852 0.822748 0.434817 0.10932
H_ H_ 0.886575 0.679681 0.432774 0.10932
H_ H_ 0.614098 0.694265 0.438396 0.10932
H_ H_ 0.85902 0.807344 0.439231 0.10932
H_ H_ 0.628064 0.689109 0.148119 0.10932
H_ H_ 0.881192 0.685221 0.131291 0.10932
H_ H_ 0.615201 0.815869 0.128538 0.10932
H_ H_ 0.870212 0.810605 0.140907 0.10932
H_ H_ 0.611287 0.805779 0.0527625 0.10932
H_ H_ 0.869403 0.820497 0.065456 0.10932
H_ H_ 0.627012 0.675136 0.073584 0.10932
H_ H_ 0.888543 0.688099 0.0568244 0.10932
C_ C_ 0.568564 0.848724 0.246328 -0.02249
C_ C_ 0.815957 0.844252 0.246647 -0.02249
C_ C_ 0.521094 0.965775 0.24579 -0.02249
C_ C_ 0.765879 0.961828 0.242391 -0.02249
C_ C_ 0.543854 0.905632 0.207493 -0.11473
C_ C_ 0.783749 0.895319 0.209072 -0.11473
C_ C_ 0.558246 0.867505 0.284153 -0.11473
C_ C_ 0.815543 0.871049 0.281781 -0.11473
C_ C_ 0.563284 0.871799 0.208553 -0.11473
C_ C_ 0.797343 0.85619 0.21181 -0.11473
C_ C_ 0.537052 0.925169 0.246531 -0.02249
C_ C_ 0.784067 0.920992 0.244948 -0.02249
C_ C_ 0.587497 0.812142 0.244802 0.6875
C_ C_ 0.831948 0.804414 0.246594 0.6875
C_ C_ 0.545345 0.905815 0.284634 -0.11473
C_ C_ 0.798033 0.906306 0.282047 -0.11473
C_ C_ 0.679863 0.849881 0.242943 -0.02249
C_ C_ 0.93527 0.850008 0.245693 -0.02249
C_ C_ 0.733675 0.962488 0.242658 -0.02249
C_ C_ 0.988095 0.96423 0.24421 -0.02249
C_ C_ 0.71604 0.896946 0.276961 -0.11473
C_ C_ 0.962653 0.904984 0.285161 -0.11473
C_ C_ 0.682936 0.874738 0.205968 -0.11473
C_ C_ 0.943031 0.870102 0.206791 -0.11473
C_ C_ 0.698634 0.859786 0.277989 -0.11473
C_ C_ 0.946873 0.868144 0.283906 -0.11473
C_ C_ 0.715701 0.923712 0.241706 -0.02249
C_ C_ 0.969487 0.92508 0.246145 -0.02249
C_ C_ 0.661035 0.814759 0.243657 0.6875
C_ C_ 0.913427 0.814058 0.246749 0.6875
C_ C_ 0.698908 0.911491 0.205739 -0.11473
C_ C_ 0.961209 0.906173 0.207378 -0.11473
C_ C_ 0.683127 0.654968 0.250151 -0.02249
C_ C_ 0.935063 0.65498 0.254945 -0.02249
C_ C_ 0.73405 0.540496 0.245391 -0.02249
C_ C_ 0.986372 0.541195 0.256857 -0.02249
C_ C_ 0.712329 0.600767 0.285459 -0.11473
C_ C_ 0.952404 0.590289 0.289598 -0.11473
C_ C_ 0.687475 0.633585 0.212442 -0.11473
C_ C_ 0.950791 0.641772 0.220034 -0.11473
C_ C_ 0.696742 0.639082 0.287013 -0.11473
C_ C_ 0.935606 0.627265 0.29139 -0.11473
C_ C_ 0.717271 0.580176 0.248918 -0.02249
C_ C_ 0.968411 0.57912 0.254643 -0.02249
C_ C_ 0.66371 0.691997 0.252562 0.6875
C_ C_ 0.917021 0.693781 0.253593 0.6875
C_ C_ 0.70292 0.595946 0.212765 -0.11473
C_ C_ 0.969323 0.606544 0.221488 -0.11473
C_ C_ 0.563281 0.658733 0.244191 -0.02249
C_ C_ 0.824182 0.645828 0.243334 -0.02249
C_ C_ 0.513921 0.541226 0.24687 -0.02249
C_ C_ 0.76532 0.541272 0.242227 -0.02249
C_ C_ 0.541032 0.597962 0.208093 -0.11473
C_ C_ 0.784617 0.60438 0.206922 -0.11473
C_ C_ 0.5525 0.641938 0.281991 -0.11473
C_ C_ 0.819709 0.621337 0.280784 -0.11473
C_ C_ 0.554326 0.638978 0.207923 -0.11473
C_ C_ 0.808014 0.634379 0.20587 -0.11473
C_ C_ 0.529598 0.581296 0.245063 -0.02249
C_ C_ 0.782963 0.58019 0.242795 -0.02249
C_ C_ 0.586078 0.690343 0.246993 0.6875
C_ C_ 0.841846 0.684332 0.245778 0.6875
C_ C_ 0.537851 0.60238 0.284058 -0.11473
C_ C_ 0.800215 0.587567 0.279552 -0.11473
C_ C_ 0.62181 0.718856 0.374426 0.17695
C_ C_ 0.868737 0.782433 0.377798 0.17695
C_ C_ 0.62652 0.790986 0.373935 0.17695
C_ C_ 0.882987 0.713276 0.372237 0.17695
C_ C_ 0.622978 0.793589 0.417865 -0.11473
C_ C_ 0.882332 0.708328 0.417864 -0.11473
C_ C_ 0.621582 0.757993 0.441271 0.23465
C_ C_ 0.868933 0.74083 0.441281 0.23465
C_ C_ 0.618808 0.720592 0.419214 -0.11473
C_ C_ 0.866328 0.780148 0.422164 -0.11473
C_ C_ 0.625108 0.714207 0.127289 0.17695
C_ C_ 0.879855 0.714177 0.116965 0.17695
C_ C_ 0.616513 0.785819 0.116052 0.17695
C_ C_ 0.87433 0.785405 0.122266 0.17695
C_ C_ 0.612699 0.779565 0.0721795 -0.11473
C_ C_ 0.873388 0.789301 0.0787466 -0.11473
C_ C_ 0.616686 0.739285 0.056003 0.23465
C_ C_ 0.879932 0.753941 0.0530734 0.23465
C_ C_ 0.623643 0.706436 0.0844289 -0.11473
C_ C_ 0.883893 0.716141 0.0731239 -0.11473
C_ C_ 0.537032 1.00448209 0.248565 0.05793
C_ C_ 0.780359 1.0000026174 0.245384 0.05793
C_ C_ 0.719061 0.502748 0.248 0.05793
C_ C_ 0.970118 0.503206 0.254867 0.05793
Br Br 0.579907 1.00526449 0.24436 -0.17191
Br Br 0.825136 0.998888 0.256042 -0.17191
Br Br 0.676999 0.502945 0.259652 -0.17191
Br Br 0.927106 0.502248 0.239801 -0.17191
N_ N_ 0.625235 0.755453 0.352262 -0.272
N_ N_ 0.874353 0.749698 0.354198 -0.272
N_ N_ 0.621432 0.761692 0.486068 -0.12501
N_ N_ 0.866219 0.735423 0.485157 -0.12501
N_ N_ 0.621151 0.752265 0.142887 -0.272
N_ N_ 0.87677 0.748373 0.140179 -0.272
N_ N_ 0.621482 0.733294 0.01172 -0.12501
N_ N_ 0.877741 0.759414 0.00900178 -0.12501
O_ O_ 0.59215 0.793971 0.209137 -0.60745
O_ O_ 0.844515 0.790547 0.212807 -0.60745
O_ O_ 0.594473 0.79409 0.27792 -0.60745
O_ O_ 0.841055 0.790917 0.281222 -0.60745
O_ O_ 0.657921 0.796125 0.277417 -0.60745
O_ O_ 0.90383 0.799136 0.281181 -0.60745
O_ O_ 0.651389 0.798276 0.210129 -0.60745
O_ O_ 0.906302 0.794934 0.213747 -0.60745
O_ O_ 0.656576 0.707103 0.288062 -0.60745
O_ O_ 0.908535 0.709271 0.286996 -0.60745
O_ O_ 0.656397 0.710946 0.219272 -0.60745
O_ O_ 0.908567 0.710426 0.218417 -0.60745
O_ O_ 0.592473 0.708749 0.21474 -0.60745
O_ O_ 0.847529 0.703153 0.212235 -0.60745
O_ O_ 0.596574 0.705365 0.282538 -0.60745
O_ O_ 0.848872 0.699698 0.280263 -0.60745
Zn Zn 0.623625 0.745787 0.782479 0.9476
Zn Zn 0.873017 0.751847 0.784001 0.9476
Zn Zn 0.622295 0.745539 0.713828 0.9476
Zn Zn 0.872175 0.749729 0.715333 0.9476
H_ H_ 0.547488 0.924409 0.6847 0.10932
H_ H_ 0.770953 0.903079 0.684623 0.10932
H_ H_ 0.55277 0.836277 0.812404 0.10932
H_ H_ 0.805901 0.842257 0.819738 0.10932
H_ H_ 0.574002 0.859477 0.682227 0.10932
H_ H_ 0.797313 0.831467 0.686014 0.10932
H_ H_ 0.533143 0.90826 0.815306 0.10932
H_ H_ 0.783573 0.91125 0.817571 0.10932
H_ H_ 0.716685 0.90597 0.81414 0.10932
H_ H_ 0.959109 0.924596 0.809543 0.10932
H_ H_ 0.672056 0.85834 0.680691 0.10932
H_ H_ 0.939231 0.844104 0.67828 0.10932
H_ H_ 0.688287 0.845181 0.813435 0.10932
H_ H_ 0.92745 0.861867 0.811388 0.10932
H_ H_ 0.70863 0.914888 0.680254 0.10932
H_ H_ 0.956605 0.915495 0.673354 0.10932
H_ H_ 0.697722 0.566677 0.813647 0.10932
H_ H_ 0.953011 0.571742 0.807951 0.10932
H_ H_ 0.703076 0.659375 0.692117 0.10932
H_ H_ 0.941272 0.654793 0.680992 0.10932
H_ H_ 0.674631 0.635239 0.814772 0.10932
H_ H_ 0.930674 0.641786 0.810039 0.10932
H_ H_ 0.729325 0.592616 0.68661 0.10932
H_ H_ 0.964538 0.587314 0.675824 0.10932
H_ H_ 0.540318 0.566207 0.690299 0.10932
H_ H_ 0.79554 0.569226 0.693579 0.10932
H_ H_ 0.557395 0.654352 0.81679 0.10932
H_ H_ 0.808975 0.653922 0.822221 0.10932
H_ H_ 0.559879 0.638407 0.682822 0.10932
H_ H_ 0.821314 0.636242 0.687688 0.10932
H_ H_ 0.528376 0.588647 0.821958 0.10932
H_ H_ 0.77548 0.595811 0.82535 0.10932
H_ H_ 0.646063 0.691495 0.863476 0.10932
H_ H_ 0.861257 0.692078 0.856652 0.10932
H_ H_ 0.613181 0.811556 0.851807 0.10932
H_ H_ 0.893758 0.815578 0.859273 0.10932
H_ H_ 0.60736 0.819616 0.92482 0.10932
H_ H_ 0.90671 0.814238 0.934667 0.10932
H_ H_ 0.641261 0.695085 0.942079 0.10932
H_ H_ 0.876036 0.684703 0.9281 0.10932
H_ H_ 0.642207 0.681467 0.643588 0.10932
H_ H_ 0.859502 0.814168 0.644648 0.10932
H_ H_ 0.602719 0.802213 0.627182 0.10932
H_ H_ 0.879149 0.684618 0.633799 0.10932
H_ H_ 0.603743 0.795169 0.552464 0.10932
H_ H_ 0.878325 0.690826 0.554946 0.10932
H_ H_ 0.654418 0.679927 0.568535 0.10932
H_ H_ 0.851641 0.819435 0.57005 0.10932
C_ C_ 0.565323 0.843074 0.74586 -0.02249
C_ C_ 0.805669 0.834321 0.752654 -0.02249
C_ C_ 0.516977 0.960144 0.748544 -0.02249
C_ C_ 0.763353 0.954775 0.753567 -0.02249
C_ C_ 0.547253 0.905795 0.712231 -0.11473
C_ C_ 0.778801 0.889614 0.715608 -0.11473
C_ C_ 0.550697 0.854817 0.783238 -0.11473
C_ C_ 0.7991 0.855349 0.789161 -0.11473
C_ C_ 0.562995 0.868222 0.711257 -0.11473
C_ C_ 0.793709 0.84945 0.714603 -0.11473
C_ C_ 0.533829 0.919335 0.749413 -0.02249
C_ C_ 0.778255 0.914378 0.750717 -0.02249
C_ C_ 0.587481 0.807653 0.745379 0.6875
C_ C_ 0.831263 0.804433 0.754089 0.6875
C_ C_ 0.537559 0.894907 0.786003 -0.11473
C_ C_ 0.786925 0.894673 0.788163 -0.11473
C_ C_ 0.678594 0.844274 0.747375 -0.02249
C_ C_ 0.927323 0.849837 0.743955 -0.02249
C_ C_ 0.73133 0.956867 0.750733 -0.02249
C_ C_ 0.980248 0.963674 0.739051 -0.02249
C_ C_ 0.707966 0.897145 0.785136 -0.11473
C_ C_ 0.953566 0.907668 0.780805 -0.11473
C_ C_ 0.684381 0.865812 0.710459 -0.11473
C_ C_ 0.938998 0.864452 0.707054 -0.11473
C_ C_ 0.693099 0.859652 0.784346 -0.11473
C_ C_ 0.936492 0.870772 0.781646 -0.11473
C_ C_ 0.713304 0.918078 0.74757 -0.02249
C_ C_ 0.960862 0.924655 0.741647 -0.02249
C_ C_ 0.661051 0.805336 0.75005 0.6875
C_ C_ 0.907577 0.813907 0.744265 0.6875
C_ C_ 0.703656 0.901089 0.710071 -0.11473
C_ C_ 0.953436 0.902678 0.704744 -0.11473
C_ C_ 0.686585 0.652498 0.75435 -0.02249
C_ C_ 0.930289 0.652394 0.744908 -0.02249
C_ C_ 0.731153 0.536985 0.752466 -0.02249
C_ C_ 0.980227 0.536346 0.742112 -0.02249
C_ C_ 0.700531 0.587274 0.788176 -0.11473
C_ C_ 0.954011 0.594194 0.782126 -0.11473
C_ C_ 0.701874 0.639011 0.718129 -0.11473
C_ C_ 0.940812 0.635966 0.707384 -0.11473
C_ C_ 0.687832 0.62682 0.789132 -0.11473
C_ C_ 0.937146 0.629773 0.781864 -0.11473
C_ C_ 0.71416 0.57563 0.750479 -0.02249
C_ C_ 0.96422 0.578184 0.743361 -0.02249
C_ C_ 0.665 0.689239 0.753384 0.6875
C_ C_ 0.912265 0.691169 0.744982 0.6875
C_ C_ 0.71677 0.602793 0.715927 -0.11473
C_ C_ 0.954944 0.596755 0.706329 -0.11473
C_ C_ 0.562967 0.649177 0.749605 -0.02249
C_ C_ 0.814838 0.651139 0.755543 -0.02249
C_ C_ 0.512776 0.534855 0.757684 -0.02249
C_ C_ 0.762847 0.536939 0.7602 -0.02249
C_ C_ 0.540299 0.587985 0.71556 -0.11473
C_ C_ 0.794707 0.589282 0.721269 -0.11473
C_ C_ 0.551002 0.637188 0.7883 -0.11473
C_ C_ 0.803326 0.638033 0.794237 -0.11473
C_ C_ 0.553501 0.626367 0.713078 -0.11473
C_ C_ 0.811861 0.626418 0.719543 -0.11473
C_ C_ 0.528339 0.574822 0.754315 -0.02249
C_ C_ 0.780413 0.578392 0.759314 -0.02249
C_ C_ 0.582222 0.685465 0.7476 0.6875
C_ C_ 0.835682 0.688763 0.753242 0.6875
C_ C_ 0.535615 0.599197 0.791308 -0.11473
C_ C_ 0.786847 0.601827 0.796382 -0.11473
C_ C_ 0.637213 0.718924 0.878477 0.17695
C_ C_ 0.870701 0.719513 0.874116 0.17695
C_ C_ 0.617989 0.786115 0.870447 0.17695
C_ C_ 0.891638 0.787012 0.874879 0.17695
C_ C_ 0.614334 0.789691 0.912849 -0.11473
C_ C_ 0.89909 0.784465 0.916485 -0.11473
C_ C_ 0.620091 0.756633 0.940118 0.23465
C_ C_ 0.889438 0.749175 0.938609 0.23465
C_ C_ 0.634373 0.720763 0.922252 -0.11473
C_ C_ 0.877553 0.716094 0.916691 -0.11473
C_ C_ 0.637128 0.70879 0.625101 0.17695
C_ C_ 0.862755 0.787101 0.625849 0.17695
C_ C_ 0.613607 0.774283 0.617384 0.17695
C_ C_ 0.874139 0.714844 0.619388 0.17695
C_ C_ 0.614759 0.771664 0.573179 -0.11473
C_ C_ 0.873331 0.718348 0.573509 -0.11473
C_ C_ 0.630752 0.738231 0.555505 0.23465
C_ C_ 0.867049 0.757017 0.555212 0.23465
C_ C_ 0.640689 0.705848 0.580237 -0.11473
C_ C_ 0.863585 0.792671 0.582252 -0.11473
C_ C_ 0.532881 -0.0024020000000000152 0.747471 0.05793
C_ C_ 0.780056 -0.007857000000000003 0.748678 0.05793
C_ C_ 0.715489 0.498879 0.751001 0.05793
C_ C_ 0.964601 0.498354 0.744336 0.05793
Br Br 0.574675 -0.004481999999999986 0.763241 -0.17191
Br Br 0.821519 0.98976 0.736117 -0.17191
Br Br 0.673508 0.497255 0.734845 -0.17191
Br Br 0.923301 0.497539 0.731931 -0.17191
N_ N_ 0.627333 0.750451 0.853349 -0.272
N_ N_ 0.878476 0.754457 0.853095 -0.272
N_ N_ 0.61473 0.760308 0.984393 -0.12501
N_ N_ 0.895848 0.743401 0.982869 -0.12501
N_ N_ 0.62457 0.742664 0.643081 -0.272
N_ N_ 0.867887 0.749473 0.643554 -0.272
N_ N_ 0.632582 0.735362 0.511087 -0.12501
N_ N_ 0.868895 0.764342 0.510813 -0.12501
O_ O_ 0.594558 0.792711 0.710216 -0.60745
O_ O_ 0.840113 0.788822 0.720397 -0.60745
O_ O_ 0.593659 0.788423 0.779884 -0.60745
O_ O_ 0.846398 0.798514 0.788107 -0.60745
O_ O_ 0.653809 0.79297 0.784951 -0.60745
O_ O_ 0.905459 0.793632 0.777359 -0.60745
O_ O_ 0.652029 0.786093 0.717117 -0.60745
O_ O_ 0.896745 0.799929 0.711254 -0.60745
O_ O_ 0.654194 0.701542 0.786759 -0.60745
O_ O_ 0.90313 0.706285 0.779866 -0.60745
O_ O_ 0.653578 0.700425 0.719351 -0.60745
O_ O_ 0.90759 0.709352 0.709786 -0.60745
O_ O_ 0.590783 0.699527 0.713542 -0.60745
O_ O_ 0.844589 0.702311 0.718767 -0.60745
O_ O_ 0.592409 0.700994 0.780996 -0.60745
O_ O_ 0.842738 0.706969 0.786477 -0.60745
_cell_length_a 44.444
_cell_length_b 32.3360000049186
_cell_length_c 31.843999878906452
_cell_angle_alpha 89.99799923859553
_cell_angle_beta 91.13600050494348
_cell_angle_gamma 89.9990006550086
_symmetry_space_group_name_H-M         'P 1'
_symmetry_Int_Tables_number            1
loop_
_symmetry_equiv_pos_as_xyz
   'x, y, z'
                         
loop_
_atom_site_label
_atom_site_type_symbol
_atom_site_fract_x 
_atom_site_fract_y
_atom_site_fract_z
_atom_site_charge
Zn Zn 0.128674 0.250674 0.284023 0.9476
Zn Zn 0.378337 0.249465 0.286763 0.9476
Zn Zn 0.129618 0.256976 0.215095 0.9476
Zn Zn 0.375555 0.251808 0.213802 0.9476
H_ H_ 0.0453047 0.431272 0.184961 0.10932
H_ H_ 0.288893 0.423829 0.184268 0.10932
H_ H_ 0.0626721 0.349931 0.313814 0.10932
H_ H_ 0.320049 0.352116 0.316149 0.10932
H_ H_ 0.0806412 0.375209 0.184471 0.10932
H_ H_ 0.321537 0.360915 0.181855 0.10932
H_ H_ 0.0335628 0.414956 0.316454 0.10932
H_ H_ 0.285924 0.417191 0.317326 0.10932
H_ H_ 0.21592 0.422471 0.318802 0.10932
H_ H_ 0.459907 0.41806 0.330371 0.10932
H_ H_ 0.190927 0.357243 0.184624 0.10932
H_ H_ 0.444235 0.349926 0.192184 0.10932
H_ H_ 0.189916 0.356655 0.319842 0.10932
H_ H_ 0.442939 0.349476 0.328257 0.10932
H_ H_ 0.210858 0.426871 0.187296 0.10932
H_ H_ 0.468983 0.419265 0.196029 0.10932
H_ H_ 0.236162 0.099277 0.311021 0.10932
H_ H_ 0.466501 0.0842674 0.319895 0.10932
H_ H_ 0.181308 0.140835 0.179048 0.10932
H_ H_ 0.444196 0.155468 0.183686 0.10932
H_ H_ 0.213812 0.164313 0.307715 0.10932
H_ H_ 0.440689 0.152964 0.318271 0.10932
H_ H_ 0.211271 0.0766917 0.182329 0.10932
H_ H_ 0.471144 0.0873074 0.184504 0.10932
H_ H_ 0.02405 0.10201 0.182621 0.10932
H_ H_ 0.264264 0.102256 0.183925 0.10932
H_ H_ 0.0834842 0.128234 0.314125 0.10932
H_ H_ 0.334194 0.129751 0.307524 0.10932
H_ H_ 0.0591967 0.164598 0.187161 0.10932
H_ H_ 0.295331 0.170256 0.187671 0.10932
H_ H_ 0.0564594 0.0641875 0.303479 0.10932
H_ H_ 0.302707 0.0677993 0.301221 0.10932
H_ H_ 0.12436 0.189181 0.365975 0.10932
H_ H_ 0.421089 0.233424 0.365915 0.10932
H_ H_ 0.130597 0.318322 0.355863 0.10932
H_ H_ 0.328124 0.252573 0.359025 0.10932
H_ H_ 0.139561 0.325539 0.431201 0.10932
H_ H_ 0.326656 0.249363 0.436972 0.10932
H_ H_ 0.131668 0.1958 0.445767 0.10932
H_ H_ 0.420421 0.244686 0.443041 0.10932
H_ H_ 0.11611 0.324135 0.146495 0.10932
H_ H_ 0.364605 0.189698 0.135889 0.10932
H_ H_ 0.127135 0.192333 0.137838 0.10932
H_ H_ 0.384482 0.320624 0.146068 0.10932
H_ H_ 0.129535 0.197787 0.0618523 0.10932
H_ H_ 0.379769 0.328626 0.0715797 0.10932
H_ H_ 0.124402 0.329518 0.071357 0.10932
H_ H_ 0.35546 0.200123 0.055456 0.10932
C_ C_ 0.0714754 0.353343 0.247707 -0.02249
C_ C_ 0.3217 0.351878 0.248185 -0.02249
C_ C_ 0.0198458 0.467191 0.255683 -0.02249
C_ C_ 0.269724 0.465549 0.252924 -0.02249
C_ C_ 0.0519008 0.415418 0.214339 -0.11473
C_ C_ 0.298156 0.411659 0.213549 -0.11473
C_ C_ 0.0588443 0.366921 0.28498 -0.11473
C_ C_ 0.311024 0.367045 0.287634 -0.11473
C_ C_ 0.0677909 0.378814 0.21231 -0.11473
C_ C_ 0.314153 0.372449 0.21143 -0.11473
C_ C_ 0.03916 0.428417 0.251958 -0.02249
C_ C_ 0.287569 0.425092 0.252663 -0.02249
C_ C_ 0.0889774 0.313093 0.247853 0.6875
C_ C_ 0.339172 0.311348 0.246164 0.6875
C_ C_ 0.0436472 0.405373 0.286952 -0.11473
C_ C_ 0.292431 0.402862 0.288292 -0.11473
C_ C_ 0.190352 0.348276 0.252087 -0.02249
C_ C_ 0.438578 0.344302 0.258593 -0.02249
C_ C_ 0.238164 0.465357 0.253266 -0.02249
C_ C_ 0.485903 0.462836 0.265069 -0.02249
C_ C_ 0.212555 0.406457 0.290586 -0.11473
C_ C_ 0.460861 0.402101 0.299811 -0.11473
C_ C_ 0.1977 0.370171 0.215325 -0.11473
C_ C_ 0.448794 0.364342 0.221188 -0.11473
C_ C_ 0.196791 0.368487 0.2904 -0.11473
C_ C_ 0.446493 0.36278 0.297734 -0.11473
C_ C_ 0.221453 0.425628 0.253935 -0.02249
C_ C_ 0.467987 0.422803 0.263501 -0.02249
C_ C_ 0.170032 0.310381 0.248929 0.6875
C_ C_ 0.416582 0.308612 0.255773 0.6875
C_ C_ 0.210556 0.409018 0.215134 -0.11473
C_ C_ 0.463573 0.403433 0.224562 -0.11473
C_ C_ 0.189424 0.15739 0.248866 -0.02249
C_ C_ 0.439101 0.157622 0.25069 -0.02249
C_ C_ 0.237077 0.0412058 0.245483 -0.02249
C_ C_ 0.488542 0.0426069 0.252359 -0.02249
C_ C_ 0.222026 0.105037 0.284298 -0.11473
C_ C_ 0.461352 0.0997747 0.289538 -0.11473
C_ C_ 0.191968 0.133049 0.209923 -0.11473
C_ C_ 0.450842 0.141631 0.213216 -0.11473
C_ C_ 0.206082 0.142786 0.283962 -0.11473
C_ C_ 0.446125 0.137598 0.289357 -0.11473
C_ C_ 0.221514 0.0808341 0.246963 -0.02249
C_ C_ 0.47228 0.0808893 0.252688 -0.02249
C_ C_ 0.171709 0.196898 0.248541 0.6875
C_ C_ 0.418942 0.194555 0.251549 0.6875
C_ C_ 0.207452 0.0951489 0.211513 -0.11473
C_ C_ 0.465122 0.101585 0.214472 -0.11473
C_ C_ 0.0738558 0.152664 0.2509 -0.02249
C_ C_ 0.316086 0.156761 0.248548 -0.02249
C_ C_ 0.0192561 0.0409378 0.23761 -0.02249
C_ C_ 0.268327 0.0413578 0.23691 -0.02249
C_ C_ 0.0381766 0.108117 0.211174 -0.11473
C_ C_ 0.281933 0.108377 0.208995 -0.11473
C_ C_ 0.0731314 0.122384 0.284173 -0.11473
C_ C_ 0.319859 0.125895 0.28001 -0.11473
C_ C_ 0.0571663 0.144417 0.214554 -0.11473
C_ C_ 0.299395 0.145625 0.212256 -0.11473
C_ C_ 0.0381233 0.0794576 0.243152 -0.02249
C_ C_ 0.283669 0.0796954 0.240617 -0.02249
C_ C_ 0.0916496 0.193021 0.255473 0.6875
C_ C_ 0.336393 0.194117 0.248186 0.6875
C_ C_ 0.056022 0.0866149 0.279013 -0.11473
C_ C_ 0.30192 0.0899246 0.276777 -0.11473
C_ C_ 0.130499 0.218503 0.380431 0.17695
C_ C_ 0.400368 0.240715 0.380343 0.17695
C_ C_ 0.133481 0.291396 0.374199 0.17695
C_ C_ 0.348156 0.249609 0.378663 0.17695
C_ C_ 0.135375 0.295924 0.417437 -0.11473
C_ C_ 0.348166 0.247356 0.42148 -0.11473
C_ C_ 0.133933 0.262547 0.444531 0.23465
C_ C_ 0.374091 0.248395 0.444528 0.23465
C_ C_ 0.131885 0.222358 0.425417 -0.11473
C_ C_ 0.400779 0.247706 0.423988 -0.11473
C_ C_ 0.120589 0.296601 0.128782 0.17695
C_ C_ 0.365956 0.21991 0.120204 0.17695
C_ C_ 0.12516 0.222153 0.123961 0.17695
C_ C_ 0.377948 0.292494 0.127573 0.17695
C_ C_ 0.130116 0.225252 0.0807047 -0.11473
C_ C_ 0.377389 0.297681 0.0836751 -0.11473
C_ C_ 0.127366 0.263674 0.0614712 0.23465
C_ C_ 0.371482 0.262555 0.0568665 0.23465
C_ C_ 0.125605 0.299117 0.0857339 -0.11473
C_ C_ 0.362627 0.224757 0.0760956 -0.11473
C_ C_ 0.0347498 0.505211 0.264631 0.05793
C_ C_ 0.284422 0.504217 0.256919 0.05793
C_ C_ 0.221733 0.0025799 0.245696 0.05793
C_ C_ 0.472991 1.00483858 0.249146 0.05793
Br Br 0.0774827 0.509129 0.282641 -0.17191
Br Br 0.327398 0.49914 0.269979 -0.17191
Br Br 0.180409 0.0035367 0.259093 -0.17191
Br Br 0.428523 1.00301955 0.244532 -0.17191
N_ N_ 0.13145 0.253158 0.356298 -0.272
N_ N_ 0.374756 0.248032 0.357572 -0.272
N_ N_ 0.13926 0.265942 0.489383 -0.12501
N_ N_ 0.372568 0.243174 0.489019 -0.12501
N_ N_ 0.121679 0.257549 0.147 -0.272
N_ N_ 0.376036 0.25416 0.144087 -0.272
N_ N_ 0.126527 0.267641 0.0165259 -0.12501
N_ N_ 0.365171 0.267412 0.0120284 -0.12501
O_ O_ 0.0993494 0.300587 0.21262 -0.60745
O_ O_ 0.349066 0.297571 0.211191 -0.60745
O_ O_ 0.0979916 0.297833 0.2828 -0.60745
O_ O_ 0.347548 0.29496 0.279799 -0.60745
O_ O_ 0.158696 0.297487 0.281681 -0.60745
O_ O_ 0.406373 0.29259 0.288509 -0.60745
O_ O_ 0.158045 0.300883 0.21425 -0.60745
O_ O_ 0.407698 0.296901 0.22063 -0.60745
O_ O_ 0.161677 0.208111 0.281622 -0.60745
O_ O_ 0.409512 0.208241 0.286584 -0.60745
O_ O_ 0.1607 0.209515 0.214024 -0.60745
O_ O_ 0.409158 0.209857 0.216907 -0.60745
O_ O_ 0.100937 0.210778 0.222848 -0.60745
O_ O_ 0.344148 0.207354 0.212873 -0.60745
O_ O_ 0.0972063 0.208091 0.290207 -0.60745
O_ O_ 0.346449 0.206379 0.282263 -0.60745
Zn Zn 0.126866 0.250579 0.788055 0.9476
Zn Zn 0.372941 0.246667 0.786076 0.9476
Zn Zn 0.127231 0.24826 0.71928 0.9476
Zn Zn 0.373901 0.248996 0.717258 0.9476
H_ H_ 0.0257547 0.409015 0.687953 0.10932
H_ H_ 0.286623 0.418746 0.680552 0.10932
H_ H_ 0.0719128 0.35492 0.818505 0.10932
H_ H_ 0.307402 0.349509 0.816824 0.10932
H_ H_ 0.0571071 0.344172 0.687029 0.10932
H_ H_ 0.316413 0.35519 0.683551 0.10932
H_ H_ 0.0404134 0.42018 0.817997 0.10932
H_ H_ 0.284607 0.416925 0.814603 0.10932
H_ H_ 0.187303 0.443254 0.80256 0.10932
H_ H_ 0.458841 0.416624 0.828952 0.10932
H_ H_ 0.207016 0.333267 0.697187 0.10932
H_ H_ 0.440488 0.349813 0.69347 0.10932
H_ H_ 0.16725 0.371731 0.814955 0.10932
H_ H_ 0.426606 0.353885 0.824911 0.10932
H_ H_ 0.226489 0.400914 0.686415 0.10932
H_ H_ 0.469269 0.411131 0.695618 0.10932
H_ H_ 0.216263 0.0748772 0.816555 0.10932
H_ H_ 0.463118 0.0744132 0.814873 0.10932
H_ H_ 0.187038 0.146965 0.682173 0.10932
H_ H_ 0.432953 0.142031 0.683128 0.10932
H_ H_ 0.196371 0.14401 0.815078 0.10932
H_ H_ 0.427657 0.13591 0.814669 0.10932
H_ H_ 0.219773 0.0866548 0.678713 0.10932
H_ H_ 0.462043 0.0787129 0.68178 0.10932
H_ H_ 0.0412779 0.0807908 0.683559 0.10932
H_ H_ 0.289326 0.0744804 0.679583 0.10932
H_ H_ 0.062333 0.150127 0.813858 0.10932
H_ H_ 0.295732 0.156518 0.809391 0.10932
H_ H_ 0.069686 0.140576 0.68057 0.10932
H_ H_ 0.319573 0.136783 0.681405 0.10932
H_ H_ 0.0288568 0.0919228 0.814614 0.10932
H_ H_ 0.27417 0.0864661 0.810306 0.10932
H_ H_ 0.133395 0.311869 0.867159 0.10932
H_ H_ 0.375787 0.311167 0.866573 0.10932
H_ H_ 0.128446 0.183098 0.856728 0.10932
H_ H_ 0.354239 0.181704 0.855641 0.10932
H_ H_ 0.137657 0.178791 0.935383 0.10932
H_ H_ 0.357775 0.17633 0.934315 0.10932
H_ H_ 0.125525 0.31073 0.94035 0.10932
H_ H_ 0.368648 0.308293 0.940209 0.10932
H_ H_ 0.113648 0.191501 0.646248 0.10932
H_ H_ 0.380719 0.189068 0.636033 0.10932
H_ H_ 0.137632 0.318426 0.640075 0.10932
H_ H_ 0.369105 0.319693 0.647788 0.10932
H_ H_ 0.139193 0.314429 0.565082 0.10932
H_ H_ 0.36686 0.325997 0.572026 0.10932
H_ H_ 0.114003 0.187843 0.567716 0.10932
H_ H_ 0.386912 0.193137 0.560285 0.10932
C_ C_ 0.0692026 0.34945 0.751683 -0.02249
C_ C_ 0.31448 0.348192 0.749223 -0.02249
C_ C_ 0.0129189 0.459344 0.753233 -0.02249
C_ C_ 0.263834 0.464328 0.750606 -0.02249
C_ C_ 0.0359654 0.396212 0.715809 -0.11473
C_ C_ 0.290442 0.40554 0.711464 -0.11473
C_ C_ 0.062265 0.369374 0.789869 -0.11473
C_ C_ 0.303438 0.3641 0.786813 -0.11473
C_ C_ 0.0570109 0.363502 0.713672 -0.11473
C_ C_ 0.30779 0.367897 0.712298 -0.11473
C_ C_ 0.0321608 0.420284 0.752755 -0.02249
C_ C_ 0.281293 0.422573 0.748892 -0.02249
C_ C_ 0.0886731 0.311549 0.751961 0.6875
C_ C_ 0.33326 0.310712 0.74829 0.6875
C_ C_ 0.0439945 0.404886 0.789832 -0.11473
C_ C_ 0.287706 0.401289 0.787384 -0.11473
C_ C_ 0.182184 0.348035 0.75393 -0.02249
C_ C_ 0.431167 0.346532 0.758453 -0.02249
C_ C_ 0.232019 0.465005 0.742975 -0.02249
C_ C_ 0.482107 0.459623 0.765128 -0.02249
C_ C_ 0.193744 0.418124 0.781687 -0.11473
C_ C_ 0.454215 0.402715 0.798746 -0.11473
C_ C_ 0.200684 0.356574 0.71856 -0.11473
C_ C_ 0.447411 0.359816 0.722943 -0.11473
C_ C_ 0.177872 0.379491 0.784759 -0.11473
C_ C_ 0.435623 0.368475 0.796217 -0.11473
C_ C_ 0.214267 0.425669 0.747502 -0.02249
C_ C_ 0.465612 0.419504 0.763135 -0.02249
C_ C_ 0.167646 0.305529 0.758091 0.6875
C_ C_ 0.413396 0.307577 0.755901 0.6875
C_ C_ 0.214998 0.395546 0.714933 -0.11473
C_ C_ 0.463316 0.396951 0.724364 -0.11473
C_ C_ 0.184386 0.14898 0.749257 -0.02249
C_ C_ 0.432534 0.147173 0.750067 -0.02249
C_ C_ 0.233619 0.0317476 0.743615 -0.02249
C_ C_ 0.485012 0.0364544 0.744631 -0.02249
C_ C_ 0.209039 0.0900738 0.784812 -0.11473
C_ C_ 0.457603 0.0906145 0.785552 -0.11473
C_ C_ 0.192372 0.131962 0.710227 -0.11473
C_ C_ 0.442971 0.131013 0.711302 -0.11473
C_ C_ 0.194785 0.128137 0.786114 -0.11473
C_ C_ 0.438411 0.125024 0.785993 -0.11473
C_ C_ 0.216838 0.0714406 0.74496 -0.02249
C_ C_ 0.467517 0.0743222 0.748847 -0.02249
C_ C_ 0.165228 0.187187 0.749349 0.6875
C_ C_ 0.41124 0.182943 0.753565 0.6875
C_ C_ 0.208058 0.0933561 0.708275 -0.11473
C_ C_ 0.45874 0.0942331 0.710561 -0.11473
C_ C_ 0.0662676 0.153367 0.748077 -0.02249
C_ C_ 0.314346 0.145572 0.750023 -0.02249
C_ C_ 0.0168019 0.0383656 0.751391 -0.02249
C_ C_ 0.264225 0.0309949 0.747568 -0.02249
C_ C_ 0.0454477 0.0932882 0.711673 -0.11473
C_ C_ 0.295259 0.0875187 0.709003 -0.11473
C_ C_ 0.0564767 0.136318 0.78496 -0.11473
C_ C_ 0.297031 0.133054 0.783362 -0.11473
C_ C_ 0.0625232 0.129836 0.7113 -0.11473
C_ C_ 0.312694 0.122728 0.711926 -0.11473
C_ C_ 0.0353626 0.0759597 0.749131 -0.02249
C_ C_ 0.281591 0.0717492 0.745692 -0.02249
C_ C_ 0.084724 0.190491 0.750606 0.6875
C_ C_ 0.332917 0.184891 0.750579 0.6875
C_ C_ 0.0411493 0.097752 0.787073 -0.11473
C_ C_ 0.285222 0.0933782 0.782788 -0.11473
C_ C_ 0.130071 0.283014 0.882371 0.17695
C_ C_ 0.374556 0.278695 0.879316 0.17695
C_ C_ 0.132602 0.20914 0.876636 0.17695
C_ C_ 0.358709 0.209771 0.874398 0.17695
C_ C_ 0.135195 0.207525 0.92075 -0.11473
C_ C_ 0.356461 0.206391 0.919222 -0.11473
C_ C_ 0.132356 0.24247 0.946833 0.23465
C_ C_ 0.362689 0.240646 0.944809 0.23465
C_ C_ 0.129798 0.282407 0.924831 -0.11473
C_ C_ 0.370657 0.27862 0.924702 -0.11473
C_ C_ 0.119427 0.219036 0.626703 0.17695
C_ C_ 0.380132 0.220489 0.622946 0.17695
C_ C_ 0.136954 0.288013 0.624782 0.17695
C_ C_ 0.374071 0.293626 0.627868 0.17695
C_ C_ 0.136168 0.28603 0.5816 -0.11473
C_ C_ 0.374671 0.297131 0.584226 -0.11473
C_ C_ 0.129749 0.247259 0.560299 0.23465
C_ C_ 0.381493 0.26168 0.558613 0.23465
C_ C_ 0.12039 0.215311 0.584041 -0.11473
C_ C_ 0.383733 0.22395 0.578431 -0.11473
C_ C_ 0.0276607 0.497934 0.751421 0.05793
C_ C_ 0.279298 0.50343 0.756126 0.05793
C_ C_ 0.215014 -0.004943000000000031 0.742903 0.05793
C_ C_ 0.469024 0.99866 0.744608 0.05793
Br Br 0.0697341 0.498139 0.765317 -0.17191
Br Br 0.321618 0.496885 0.776549 -0.17191
Br Br 0.17044 -0.0012119999999999909 0.73646 -0.17191
Br Br 0.426317 1.000947512 0.734584 -0.17191
N_ N_ 0.129583 0.248056 0.858934 -0.272
N_ N_ 0.36859 0.244635 0.855588 -0.272
N_ N_ 0.130873 0.238192 0.991552 -0.12501
N_ N_ 0.361623 0.236809 0.989236 -0.12501
N_ N_ 0.130032 0.253772 0.647572 -0.272
N_ N_ 0.375475 0.254659 0.646518 -0.272
N_ N_ 0.125651 0.244191 0.515399 -0.12501
N_ N_ 0.385578 0.267245 0.515404 -0.12501
O_ O_ 0.100284 0.298981 0.71784 -0.60745
O_ O_ 0.340247 0.29325 0.713852 -0.60745
O_ O_ 0.0957464 0.295324 0.786169 -0.60745
O_ O_ 0.345437 0.296851 0.782651 -0.60745
O_ O_ 0.158119 0.291143 0.793207 -0.60745
O_ O_ 0.403968 0.289885 0.78951 -0.60745
O_ O_ 0.16242 0.28529 0.723946 -0.60745
O_ O_ 0.404951 0.294213 0.721054 -0.60745
O_ O_ 0.157758 0.20344 0.785341 -0.60745
O_ O_ 0.402537 0.19745 0.787958 -0.60745
O_ O_ 0.152315 0.199338 0.714218 -0.60745
O_ O_ 0.405158 0.204714 0.720375 -0.60745
O_ O_ 0.0938076 0.208408 0.715682 -0.60745
O_ O_ 0.345065 0.200134 0.716581 -0.60745
O_ O_ 0.0951852 0.203144 0.785384 -0.60745
O_ O_ 0.337894 0.203235 0.785135 -0.60745
Zn Zn 0.127349 0.754916 0.280203 0.9476
Zn Zn 0.379848 0.754179 0.283901 0.9476
Zn Zn 0.124145 0.751492 0.210546 0.9476
Zn Zn 0.379395 0.75138 0.211841 0.9476
H_ H_ 0.0317298 0.910933 0.168238 0.10932
H_ H_ 0.274215 0.903757 0.181005 0.10932
H_ H_ 0.0646486 0.858872 0.307917 0.10932
H_ H_ 0.334087 0.869007 0.308287 0.10932
H_ H_ 0.0545586 0.845478 0.173815 0.10932
H_ H_ 0.297933 0.83605 0.188567 0.10932
H_ H_ 0.037634 0.923884 0.305279 0.10932
H_ H_ 0.301471 0.930798 0.309795 0.10932
H_ H_ 0.228551 0.911073 0.305872 0.10932
H_ H_ 0.476378 0.917942 0.311192 0.10932
H_ H_ 0.172002 0.868541 0.17511 0.10932
H_ H_ 0.426831 0.861798 0.187777 0.10932
H_ H_ 0.197191 0.843315 0.30553 0.10932
H_ H_ 0.449418 0.852856 0.313193 0.10932
H_ H_ 0.19779 0.936663 0.179373 0.10932
H_ H_ 0.453562 0.931295 0.18062 0.10932
H_ H_ 0.214707 0.587194 0.315901 0.10932
H_ H_ 0.476092 0.592144 0.317655 0.10932
H_ H_ 0.193113 0.657522 0.180153 0.10932
H_ H_ 0.440451 0.644467 0.185614 0.10932
H_ H_ 0.186205 0.653945 0.316293 0.10932
H_ H_ 0.451844 0.663612 0.317355 0.10932
H_ H_ 0.218595 0.587539 0.185914 0.10932
H_ H_ 0.462213 0.578108 0.189386 0.10932
H_ H_ 0.051836 0.572595 0.196297 0.10932
H_ H_ 0.276826 0.589499 0.189134 0.10932
H_ H_ 0.0476768 0.670652 0.313789 0.10932
H_ H_ 0.33056 0.646306 0.31472 0.10932
H_ H_ 0.0778362 0.635396 0.190413 0.10932
H_ H_ 0.308508 0.65109 0.183052 0.10932
H_ H_ 0.0196658 0.60069 0.317096 0.10932
H_ H_ 0.296728 0.588347 0.321037 0.10932
H_ H_ 0.126476 0.824331 0.352815 0.10932
H_ H_ 0.381958 0.819307 0.361786 0.10932
H_ H_ 0.118618 0.695231 0.355378 0.10932
H_ H_ 0.374733 0.689414 0.351757 0.10932
H_ H_ 0.115901 0.690875 0.431935 0.10932
H_ H_ 0.365344 0.68414 0.428928 0.10932
H_ H_ 0.133006 0.820794 0.433434 0.10932
H_ H_ 0.375158 0.813279 0.437491 0.10932
H_ H_ 0.130605 0.682442 0.143387 0.10932
H_ H_ 0.378544 0.821837 0.146915 0.10932
H_ H_ 0.124008 0.810148 0.133333 0.10932
H_ H_ 0.377749 0.691549 0.134375 0.10932
H_ H_ 0.118014 0.806413 0.0527732 0.10932
H_ H_ 0.37693 0.695471 0.054287 0.10932
H_ H_ 0.136473 0.676323 0.0656159 0.10932
H_ H_ 0.380524 0.826077 0.0634903 0.10932
C_ C_ 0.0653127 0.847398 0.24148 -0.02249
C_ C_ 0.317301 0.847256 0.25083 -0.02249
C_ C_ 0.0192882 0.964492 0.235074 -0.02249
C_ C_ 0.268017 0.964564 0.241254 -0.02249
C_ C_ 0.0395026 0.901483 0.200332 -0.11473
C_ C_ 0.286016 0.896256 0.210712 -0.11473
C_ C_ 0.0605913 0.871461 0.277673 -0.11473
C_ C_ 0.317253 0.87453 0.285615 -0.11473
C_ C_ 0.0535744 0.863915 0.202934 -0.11473
C_ C_ 0.301775 0.859325 0.213548 -0.11473
C_ C_ 0.0366074 0.925755 0.23717 -0.02249
C_ C_ 0.284434 0.92253 0.2459 -0.02249
C_ C_ 0.0847619 0.80918 0.24185 0.6875
C_ C_ 0.336213 0.809493 0.251071 0.6875
C_ C_ 0.0435614 0.907911 0.276186 -0.11473
C_ C_ 0.301136 0.912335 0.282734 -0.11473
C_ C_ 0.180904 0.852503 0.24174 -0.02249
C_ C_ 0.439192 0.849335 0.248718 -0.02249
C_ C_ 0.235889 0.963578 0.244459 -0.02249
C_ C_ 0.48892 0.966566 0.246203 -0.02249
C_ C_ 0.217571 0.898615 0.277261 -0.11473
C_ C_ 0.469152 0.903326 0.28182 -0.11473
C_ C_ 0.183232 0.877412 0.205698 -0.11473
C_ C_ 0.441118 0.873025 0.212269 -0.11473
C_ C_ 0.197674 0.864501 0.278427 -0.11473
C_ C_ 0.453768 0.864735 0.28328 -0.11473
C_ C_ 0.218501 0.923882 0.241296 -0.02249
C_ C_ 0.472097 0.925673 0.244097 -0.02249
C_ C_ 0.161419 0.814158 0.24298 0.6875
C_ C_ 0.41865 0.811455 0.251692 0.6875
C_ C_ 0.200771 0.91391 0.205401 -0.11473
C_ C_ 0.458252 0.910025 0.207745 -0.11473
C_ C_ 0.186227 0.660128 0.248239 -0.02249
C_ C_ 0.436437 0.655204 0.251561 -0.02249
C_ C_ 0.2378 0.543801 0.252767 -0.02249
C_ C_ 0.483034 0.538729 0.255371 -0.02249
C_ C_ 0.209819 0.602836 0.287568 -0.11473
C_ C_ 0.462883 0.602197 0.291408 -0.11473
C_ C_ 0.198986 0.643951 0.210832 -0.11473
C_ C_ 0.439627 0.629305 0.21491 -0.11473
C_ C_ 0.193426 0.639725 0.286513 -0.11473
C_ C_ 0.451495 0.64278 0.288715 -0.11473
C_ C_ 0.22077 0.583945 0.252047 -0.02249
C_ C_ 0.462916 0.57535 0.256008 -0.02249
C_ C_ 0.163454 0.694745 0.24738 0.6875
C_ C_ 0.420592 0.694735 0.247842 0.6875
C_ C_ 0.215032 0.604993 0.21388 -0.11473
C_ C_ 0.452425 0.590261 0.218151 -0.11473
C_ C_ 0.0653931 0.658381 0.25319 -0.02249
C_ C_ 0.325316 0.649961 0.246201 -0.02249
C_ C_ 0.0182895 0.542395 0.260624 -0.02249
C_ C_ 0.269746 0.542712 0.258031 -0.02249
C_ C_ 0.0490033 0.592546 0.221693 -0.11473
C_ C_ 0.287417 0.602442 0.217009 -0.11473
C_ C_ 0.0512045 0.645766 0.29083 -0.11473
C_ C_ 0.321146 0.632031 0.285539 -0.11473
C_ C_ 0.0632616 0.63104 0.218775 -0.11473
C_ C_ 0.306043 0.638437 0.21321 -0.11473
C_ C_ 0.035097 0.581308 0.258126 -0.02249
C_ C_ 0.286156 0.581904 0.255541 -0.02249
C_ C_ 0.0859619 0.695361 0.250073 0.6875
C_ C_ 0.343298 0.690392 0.243076 0.6875
C_ C_ 0.0347413 0.606907 0.292877 -0.11473
C_ C_ 0.301986 0.598878 0.290589 -0.11473
C_ C_ 0.125407 0.796075 0.371507 0.17695
C_ C_ 0.377457 0.789976 0.376152 0.17695
C_ C_ 0.119235 0.722397 0.372164 0.17695
C_ C_ 0.37489 0.716523 0.371646 0.17695
C_ C_ 0.11871 0.720893 0.41649 -0.11473
C_ C_ 0.37186 0.713218 0.415687 -0.11473
C_ C_ 0.122337 0.757493 0.438791 0.23465
C_ C_ 0.370343 0.750206 0.439086 0.23465
C_ C_ 0.125155 0.795591 0.415564 -0.11473
C_ C_ 0.373994 0.787028 0.419016 -0.11473
C_ C_ 0.128695 0.710203 0.122744 0.17695
C_ C_ 0.378509 0.793874 0.124904 0.17695
C_ C_ 0.123182 0.782848 0.116261 0.17695
C_ C_ 0.37625 0.719567 0.118854 0.17695
C_ C_ 0.120679 0.779925 0.0718746 -0.11473
C_ C_ 0.373114 0.722608 0.0737407 -0.11473
C_ C_ 0.124738 0.740554 0.0531865 0.23465
C_ C_ 0.371448 0.762955 0.0557355 0.23465
C_ C_ 0.130621 0.70509 0.0800058 -0.11473
C_ C_ 0.375308 0.797241 0.080051 -0.11473
C_ C_ 0.0348995 1.00255044 0.228337 0.05793
C_ C_ 0.283374 1.00297669 0.237253 0.05793
C_ C_ 0.222204 0.504729 0.252221 0.05793
C_ C_ 0.468311 0.499444 0.262881 0.05793
Br Br 0.0759338 0.00194048 0.209443 -0.17191
Br Br 0.325584 0.998405 0.223855 -0.17191
Br Br 0.180004 0.503206 0.244017 -0.17191
Br Br 0.426484 0.500216 0.274555 -0.17191
N_ N_ 0.124771 0.759096 0.35274 -0.272
N_ N_ 0.378606 0.754888 0.352415 -0.272
N_ N_ 0.121375 0.76122 0.48304 -0.12501
N_ N_ 0.361783 0.749365 0.481991 -0.12501
N_ N_ 0.12444 0.747125 0.139487 -0.272
N_ N_ 0.382258 0.755242 0.142281 -0.272
N_ N_ 0.124163 0.733747 0.00729945 -0.12501
N_ N_ 0.369806 0.769671 0.0105973 -0.12501
O_ O_ 0.0912502 0.789852 0.208258 -0.60745
O_ O_ 0.348824 0.79773 0.21641 -0.60745
O_ O_ 0.0983167 0.799162 0.274555 -0.60745
O_ O_ 0.345731 0.79446 0.284932 -0.60745
O_ O_ 0.155224 0.798211 0.277835 -0.60745
O_ O_ 0.409551 0.799354 0.287245 -0.60745
O_ O_ 0.153638 0.79608 0.208052 -0.60745
O_ O_ 0.40876 0.796198 0.218139 -0.60745
O_ O_ 0.154368 0.710587 0.282767 -0.60745
O_ O_ 0.410214 0.708935 0.281763 -0.60745
O_ O_ 0.156229 0.711628 0.213202 -0.60745
O_ O_ 0.412896 0.709636 0.212188 -0.60745
O_ O_ 0.0947855 0.705758 0.214353 -0.60745
O_ O_ 0.351665 0.70406 0.207907 -0.60745
O_ O_ 0.094996 0.713516 0.283658 -0.60745
O_ O_ 0.351469 0.707865 0.276803 -0.60745
Zn Zn 0.119229 0.746961 0.778901 0.9476
Zn Zn 0.373225 0.748176 0.782164 0.9476
Zn Zn 0.118423 0.746623 0.709243 0.9476
Zn Zn 0.373468 0.746028 0.71103 0.9476
H_ H_ 0.0265359 0.916645 0.68338 0.10932
H_ H_ 0.289915 0.92071 0.68088 0.10932
H_ H_ 0.0641341 0.851652 0.812157 0.10932
H_ H_ 0.290212 0.828949 0.805492 0.10932
H_ H_ 0.0501638 0.844208 0.679489 0.10932
H_ H_ 0.316679 0.856254 0.6762 0.10932
H_ H_ 0.0367126 0.918243 0.815371 0.10932
H_ H_ 0.266269 0.900284 0.810864 0.10932
H_ H_ 0.206412 0.915256 0.813905 0.10932
H_ H_ 0.452106 0.931713 0.808605 0.10932
H_ H_ 0.196241 0.834926 0.684604 0.10932
H_ H_ 0.450961 0.830854 0.693793 0.10932
H_ H_ 0.170515 0.856761 0.810647 0.10932
H_ H_ 0.420741 0.869823 0.811646 0.10932
H_ H_ 0.217087 0.905463 0.679537 0.10932
H_ H_ 0.484893 0.896408 0.693034 0.10932
H_ H_ 0.210726 0.578315 0.807098 0.10932
H_ H_ 0.454522 0.575097 0.823072 0.10932
H_ H_ 0.177422 0.64739 0.674303 0.10932
H_ H_ 0.44236 0.648481 0.685125 0.10932
H_ H_ 0.180005 0.643114 0.809458 0.10932
H_ H_ 0.424867 0.642303 0.819722 0.10932
H_ H_ 0.211098 0.583265 0.672305 0.10932
H_ H_ 0.465986 0.577135 0.691554 0.10932
H_ H_ 0.043171 0.567536 0.6801 0.10932
H_ H_ 0.297824 0.562553 0.692509 0.10932
H_ H_ 0.0512712 0.655199 0.805085 0.10932
H_ H_ 0.298654 0.660814 0.813503 0.10932
H_ H_ 0.0700892 0.632775 0.676475 0.10932
H_ H_ 0.3233 0.631743 0.685662 0.10932
H_ H_ 0.0265434 0.590584 0.812049 0.10932
H_ H_ 0.271511 0.593292 0.819026 0.10932
H_ H_ 0.120531 0.819198 0.854926 0.10932
H_ H_ 0.379932 0.813683 0.859082 0.10932
H_ H_ 0.113952 0.685051 0.861255 0.10932
H_ H_ 0.36923 0.685188 0.850594 0.10932
H_ H_ 0.118007 0.688736 0.935532 0.10932
H_ H_ 0.363483 0.678331 0.92908 0.10932
H_ H_ 0.121098 0.823145 0.927626 0.10932
H_ H_ 0.369453 0.810314 0.936095 0.10932
H_ H_ 0.119481 0.677571 0.641721 0.10932
H_ H_ 0.359281 0.803383 0.641257 0.10932
H_ H_ 0.123038 0.809945 0.630876 0.10932
H_ H_ 0.385518 0.678497 0.638156 0.10932
H_ H_ 0.119305 0.80367 0.554627 0.10932
H_ H_ 0.394077 0.685772 0.564091 0.10932
H_ H_ 0.111199 0.671441 0.565749 0.10932
H_ H_ 0.356457 0.806804 0.557238 0.10932
C_ C_ 0.0614028 0.845273 0.746523 -0.02249
C_ C_ 0.306884 0.837716 0.742473 -0.02249
C_ C_ 0.0118878 0.961576 0.748123 -0.02249
C_ C_ 0.262204 0.955546 0.74526 -0.02249
C_ C_ 0.032612 0.900228 0.711384 -0.11473
C_ C_ 0.289962 0.900338 0.70784 -0.11473
C_ C_ 0.0529916 0.863421 0.785656 -0.11473
C_ C_ 0.294116 0.851708 0.780009 -0.11473
C_ C_ 0.0491123 0.862357 0.709775 -0.11473
C_ C_ 0.30794 0.864585 0.70779 -0.11473
C_ C_ 0.0270521 0.919948 0.7484 -0.02249
C_ C_ 0.278373 0.914488 0.746745 -0.02249
C_ C_ 0.0798507 0.806344 0.74585 0.6875
C_ C_ 0.328582 0.801822 0.745026 0.6875
C_ C_ 0.0375139 0.901204 0.785727 -0.11473
C_ C_ 0.280325 0.890036 0.783135 -0.11473
C_ C_ 0.17571 0.843828 0.743923 -0.02249
C_ C_ 0.429541 0.849074 0.748134 -0.02249
C_ C_ 0.229802 0.955919 0.743336 -0.02249
C_ C_ 0.484697 0.959376 0.746967 -0.02249
C_ C_ 0.200233 0.901366 0.78294 -0.11473
C_ C_ 0.450988 0.911003 0.782489 -0.11473
C_ C_ 0.190992 0.858037 0.707474 -0.11473
C_ C_ 0.44732 0.85689 0.713644 -0.11473
C_ C_ 0.178565 0.867672 0.781333 -0.11473
C_ C_ 0.430098 0.878331 0.781612 -0.11473
C_ C_ 0.213655 0.916452 0.745157 -0.02249
C_ C_ 0.468134 0.920416 0.748918 -0.02249
C_ C_ 0.157151 0.805646 0.742438 0.6875
C_ C_ 0.411596 0.809334 0.746814 0.6875
C_ C_ 0.208971 0.892879 0.708903 -0.11473
C_ C_ 0.466287 0.894491 0.713836 -0.11473
C_ C_ 0.179 0.650599 0.744205 -0.02249
C_ C_ 0.434225 0.650475 0.752475 -0.02249
C_ C_ 0.232555 0.540481 0.743057 -0.02249
C_ C_ 0.481262 0.533772 0.759885 -0.02249
C_ C_ 0.206753 0.597722 0.778918 -0.11473
C_ C_ 0.453194 0.592533 0.793459 -0.11473
C_ C_ 0.188705 0.635449 0.70382 -0.11473
C_ C_ 0.445001 0.630715 0.715467 -0.11473
C_ C_ 0.18902 0.632973 0.780388 -0.11473
C_ C_ 0.438265 0.631055 0.791477 -0.11473
C_ C_ 0.214171 0.578922 0.740374 -0.02249
C_ C_ 0.464387 0.574671 0.75709 -0.02249
C_ C_ 0.15943 0.689518 0.74502 0.6875
C_ C_ 0.41309 0.68704 0.750567 0.6875
C_ C_ 0.204319 0.597577 0.702943 -0.11473
C_ C_ 0.459216 0.59221 0.717671 -0.11473
C_ C_ 0.0628325 0.649741 0.740973 -0.02249
C_ C_ 0.315429 0.650205 0.750826 -0.02249
C_ C_ 0.0126062 0.535783 0.744571 -0.02249
C_ C_ 0.263536 0.540911 0.755507 -0.02249
C_ C_ 0.0442666 0.588562 0.706797 -0.11473
C_ C_ 0.296991 0.58622 0.718445 -0.11473
C_ C_ 0.0497682 0.637919 0.778069 -0.11473
C_ C_ 0.301705 0.638832 0.7887 -0.11473
C_ C_ 0.059703 0.625194 0.705291 -0.11473
C_ C_ 0.312191 0.624303 0.715228 -0.11473
C_ C_ 0.0323136 0.574522 0.744945 -0.02249
C_ C_ 0.280544 0.57914 0.754196 -0.02249
C_ C_ 0.0828252 0.686611 0.742804 0.6875
C_ C_ 0.336372 0.684035 0.749645 0.6875
C_ C_ 0.0339249 0.6005 0.781385 -0.11473
C_ C_ 0.284396 0.601773 0.790611 -0.11473
C_ C_ 0.120246 0.789633 0.871779 0.17695
C_ C_ 0.373166 0.784702 0.874439 0.17695
C_ C_ 0.118571 0.715957 0.873907 0.17695
C_ C_ 0.367377 0.711567 0.869831 0.17695
C_ C_ 0.119955 0.716769 0.918633 -0.11473
C_ C_ 0.364975 0.709593 0.913596 -0.11473
C_ C_ 0.12011 0.756459 0.939667 0.23465
C_ C_ 0.366426 0.745335 0.938508 0.23465
C_ C_ 0.12154 0.792028 0.915061 -0.11473
C_ C_ 0.371735 0.782756 0.918689 -0.11473
C_ C_ 0.118633 0.706491 0.623048 0.17695
C_ C_ 0.362441 0.776814 0.621928 0.17695
C_ C_ 0.120517 0.779859 0.616836 0.17695
C_ C_ 0.377908 0.706435 0.621139 0.17695
C_ C_ 0.117673 0.775865 0.573154 -0.11473
C_ C_ 0.38073 0.709506 0.577816 -0.11473
C_ C_ 0.11625 0.736831 0.552898 0.23465
C_ C_ 0.373966 0.74551 0.553935 0.23465
C_ C_ 0.11309 0.702634 0.579091 -0.11473
C_ C_ 0.36283 0.780403 0.576401 -0.11473
C_ C_ 0.0305551 -0.0027850000000000374 0.754324 0.05793
C_ C_ 0.280318 -0.006982000000000044 0.745283 0.05793
C_ C_ 0.217564 0.50144 0.742653 0.05793
C_ C_ 0.466343 0.496842 0.765579 0.05793
Br Br 0.0726575 -0.006990000000000052 0.761076 -0.17191
Br Br 0.323125 -0.00955499999999998 0.750503 -0.17191
Br Br 0.175292 0.502789 0.717833 -0.17191
Br Br 0.422829 0.495416 0.763298 -0.17191
N_ N_ 0.121178 0.752183 0.851689 -0.272
N_ N_ 0.370871 0.749965 0.851862 -0.272
N_ N_ 0.116165 0.761304 0.981739 -0.12501
N_ N_ 0.363033 0.7413 0.984328 -0.12501
N_ N_ 0.118431 0.744739 0.640307 -0.272
N_ N_ 0.36844 0.741223 0.642185 -0.272
N_ N_ 0.114027 0.733326 0.50816 -0.12501
N_ N_ 0.381855 0.746738 0.510773 -0.12501
O_ O_ 0.0868771 0.790384 0.710366 -0.60745
O_ O_ 0.33728 0.784325 0.711742 -0.60745
O_ O_ 0.0876227 0.78955 0.778818 -0.60745
O_ O_ 0.341671 0.794334 0.779914 -0.60745
O_ O_ 0.149003 0.790943 0.775932 -0.60745
O_ O_ 0.402625 0.793489 0.77925 -0.60745
O_ O_ 0.145139 0.795088 0.708367 -0.60745
O_ O_ 0.403511 0.795913 0.711031 -0.60745
O_ O_ 0.150111 0.704872 0.778528 -0.60745
O_ O_ 0.405542 0.70513 0.783654 -0.60745
O_ O_ 0.146658 0.700605 0.711118 -0.60745
O_ O_ 0.40716 0.704264 0.715191 -0.60745
O_ O_ 0.0922075 0.699594 0.708201 -0.60745
O_ O_ 0.346176 0.698238 0.71477 -0.60745
O_ O_ 0.0903227 0.702941 0.779499 -0.60745
O_ O_ 0.343202 0.701944 0.782993 -0.60745
Zn Zn 0.626062 0.250568 0.288759 0.9476
Zn Zn 0.878077 0.250659 0.287071 0.9476
Zn Zn 0.626362 0.254256 0.219284 0.9476
Zn Zn 0.878111 0.248055 0.217813 0.9476
H_ H_ 0.523336 0.411204 0.199916 0.10932
H_ H_ 0.784161 0.416599 0.18031 0.10932
H_ H_ 0.585411 0.369362 0.321347 0.10932
H_ H_ 0.821139 0.356347 0.314548 0.10932
H_ H_ 0.550833 0.343266 0.19907 0.10932
H_ H_ 0.820024 0.356008 0.182428 0.10932
H_ H_ 0.556633 0.437286 0.321339 0.10932
H_ H_ 0.789503 0.42076 0.312768 0.10932
H_ H_ 0.718951 0.420963 0.319405 0.10932
H_ H_ 0.960359 0.432107 0.321287 0.10932
H_ H_ 0.697527 0.342899 0.188084 0.10932
H_ H_ 0.941445 0.349769 0.191304 0.10932
H_ H_ 0.688779 0.356195 0.32376 0.10932
H_ H_ 0.926614 0.36779 0.321595 0.10932
H_ H_ 0.717219 0.412172 0.183877 0.10932
H_ H_ 0.977483 0.41115 0.189046 0.10932
H_ H_ 0.71737 0.0825497 0.316682 0.10932
H_ H_ 0.983951 0.0916159 0.316839 0.10932
H_ H_ 0.680498 0.139456 0.181753 0.10932
H_ H_ 0.933128 0.145691 0.188366 0.10932
H_ H_ 0.690191 0.147353 0.319446 0.10932
H_ H_ 0.95492 0.154616 0.322796 0.10932
H_ H_ 0.722567 0.0885444 0.184363 0.10932
H_ H_ 0.961759 0.0780802 0.187478 0.10932
H_ H_ 0.540328 0.085665 0.18396 0.10932
H_ H_ 0.78803 0.082714 0.175358 0.10932
H_ H_ 0.560378 0.153569 0.317693 0.10932
H_ H_ 0.819563 0.146441 0.315164 0.10932
H_ H_ 0.562708 0.152908 0.1841 0.10932
H_ H_ 0.821435 0.14017 0.179729 0.10932
H_ H_ 0.534113 0.0887618 0.316482 0.10932
H_ H_ 0.782771 0.0855528 0.313448 0.10932
H_ H_ 0.580687 0.273465 0.3683 0.10932
H_ H_ 0.890636 0.192799 0.368283 0.10932
H_ H_ 0.674268 0.246444 0.358542 0.10932
H_ H_ 0.872006 0.318614 0.353389 0.10932
H_ H_ 0.679136 0.251926 0.437991 0.10932
H_ H_ 0.863442 0.329285 0.427507 0.10932
H_ H_ 0.584957 0.267145 0.446907 0.10932
H_ H_ 0.886274 0.200604 0.44904 0.10932
H_ H_ 0.622942 0.188393 0.143356 0.10932
H_ H_ 0.834558 0.263462 0.13575 0.10932
H_ H_ 0.626671 0.31872 0.149628 0.10932
H_ H_ 0.925895 0.222564 0.152347 0.10932
H_ H_ 0.627155 0.322754 0.0749636 0.10932
H_ H_ 0.92951 0.215291 0.074292 0.10932
H_ H_ 0.621352 0.191742 0.0651971 0.10932
H_ H_ 0.838485 0.262853 0.0586896 0.10932
C_ C_ 0.568871 0.351285 0.260827 -0.02249
C_ C_ 0.816328 0.345231 0.248504 -0.02249
C_ C_ 0.517681 0.465899 0.262553 -0.02249
C_ C_ 0.766884 0.462436 0.246835 -0.02249
C_ C_ 0.53464 0.400474 0.227186 -0.11473
C_ C_ 0.79067 0.400959 0.208944 -0.11473
C_ C_ 0.569822 0.377733 0.295897 -0.11473
C_ C_ 0.809144 0.365924 0.28607 -0.11473
C_ C_ 0.549537 0.362374 0.227173 -0.11473
C_ C_ 0.807233 0.363897 0.210023 -0.11473
C_ C_ 0.534561 0.424321 0.262789 -0.02249
C_ C_ 0.783988 0.422279 0.245429 -0.02249
C_ C_ 0.589803 0.315807 0.256093 0.6875
C_ C_ 0.837864 0.309036 0.250418 0.6875
C_ C_ 0.552333 0.414546 0.298266 -0.11473
C_ C_ 0.795551 0.407643 0.283513 -0.11473
C_ C_ 0.689991 0.342765 0.255782 -0.02249
C_ C_ 0.933881 0.353206 0.256416 -0.02249
C_ C_ 0.734741 0.464076 0.248191 -0.02249
C_ C_ 0.986833 0.466807 0.254292 -0.02249
C_ C_ 0.712069 0.404203 0.291003 -0.11473
C_ C_ 0.958674 0.412571 0.292989 -0.11473
C_ C_ 0.700875 0.359536 0.217094 -0.11473
C_ C_ 0.945972 0.36803 0.218554 -0.11473
C_ C_ 0.694033 0.367485 0.292793 -0.11473
C_ C_ 0.940573 0.374998 0.293094 -0.11473
C_ C_ 0.717908 0.422973 0.251544 -0.02249
C_ C_ 0.971598 0.425627 0.255107 -0.02249
C_ C_ 0.668942 0.30668 0.254937 0.6875
C_ C_ 0.912928 0.316897 0.256098 0.6875
C_ C_ 0.711448 0.400078 0.214752 -0.11473
C_ C_ 0.965798 0.402675 0.217614 -0.11473
C_ C_ 0.682533 0.152937 0.250217 -0.02249
C_ C_ 0.940527 0.155659 0.254733 -0.02249
C_ C_ 0.734815 0.0395358 0.244349 -0.02249
C_ C_ 0.989328 0.0394339 0.252382 -0.02249
C_ C_ 0.711273 0.0982601 0.287246 -0.11473
C_ C_ 0.972253 0.102161 0.290064 -0.11473
C_ C_ 0.691251 0.135335 0.211944 -0.11473
C_ C_ 0.942001 0.132384 0.217544 -0.11473
C_ C_ 0.692555 0.133265 0.289019 -0.11473
C_ C_ 0.957165 0.140014 0.291745 -0.11473
C_ C_ 0.719147 0.0803949 0.247989 -0.02249
C_ C_ 0.972244 0.0776559 0.253582 -0.02249
C_ C_ 0.661878 0.19033 0.252229 0.6875
C_ C_ 0.920503 0.191895 0.254843 0.6875
C_ C_ 0.712224 0.101696 0.211426 -0.11473
C_ C_ 0.957298 0.0929158 0.217714 -0.11473
C_ C_ 0.565469 0.156965 0.252102 -0.02249
C_ C_ 0.819822 0.14938 0.248315 -0.02249
C_ C_ 0.521515 0.0425076 0.253221 -0.02249
C_ C_ 0.766291 0.0383474 0.244539 -0.02249
C_ C_ 0.542179 0.101065 0.212828 -0.11473
C_ C_ 0.792824 0.095445 0.207009 -0.11473
C_ C_ 0.556541 0.138567 0.288684 -0.11473
C_ C_ 0.809142 0.134363 0.285149 -0.11473
C_ C_ 0.553567 0.142031 0.213598 -0.11473
C_ C_ 0.812464 0.129759 0.210161 -0.11473
C_ C_ 0.535845 0.0816882 0.251318 -0.02249
C_ C_ 0.783205 0.0775264 0.245015 -0.02249
C_ C_ 0.583938 0.196933 0.255122 0.6875
C_ C_ 0.841195 0.186182 0.249278 0.6875
C_ C_ 0.542532 0.10056 0.289012 -0.11473
C_ C_ 0.789127 0.0989766 0.283401 -0.11473
C_ C_ 0.60279 0.267699 0.382128 0.17695
C_ C_ 0.882557 0.221774 0.383642 0.17695
C_ C_ 0.655179 0.249298 0.379468 0.17695
C_ C_ 0.871251 0.291484 0.373935 0.17695
C_ C_ 0.657802 0.251701 0.423379 -0.11473
C_ C_ 0.865051 0.297703 0.417586 -0.11473
C_ C_ 0.631047 0.25771 0.447998 0.23465
C_ C_ 0.871427 0.265451 0.446619 0.23465
C_ C_ 0.604533 0.268626 0.427183 -0.11473
C_ C_ 0.880166 0.225888 0.427547 -0.11473
C_ C_ 0.623113 0.217341 0.126587 0.17695
C_ C_ 0.856421 0.257261 0.122026 0.17695
C_ C_ 0.623176 0.291061 0.130557 0.17695
C_ C_ 0.907305 0.232686 0.130637 0.17695
C_ C_ 0.624484 0.294199 0.0872741 -0.11473
C_ C_ 0.909297 0.229207 0.0865009 -0.11473
C_ C_ 0.626694 0.259246 0.0623093 0.23465
C_ C_ 0.885269 0.240611 0.0597292 0.23465
C_ C_ 0.623899 0.220551 0.0829684 -0.11473
C_ C_ 0.859234 0.257232 0.0770468 -0.11473
C_ C_ 0.531467 0.504545 0.250082 0.05793
C_ C_ 0.781023 0.502504 0.242321 0.05793
C_ C_ 0.718665 1.000604233 0.246733 0.05793
C_ C_ 0.973533 1.0028144 0.252084 0.05793
Br Br 0.572798 0.509878 0.250569 -0.17191
Br Br 0.823983 0.501478 0.234997 -0.17191
Br Br 0.675838 -0.001391000000000031 0.260233 -0.17191
Br Br 0.930277 0.00305109 0.254013 -0.17191
N_ N_ 0.627996 0.258416 0.359849 -0.272
N_ N_ 0.874516 0.25378 0.358235 -0.272
N_ N_ 0.634306 0.259351 0.493509 -0.12501
N_ N_ 0.869209 0.271042 0.490346 -0.12501
N_ N_ 0.624254 0.253255 0.149374 -0.272
N_ N_ 0.880946 0.245736 0.147781 -0.272
N_ N_ 0.632819 0.263842 0.0190053 -0.12501
N_ N_ 0.889166 0.246635 0.0153354 -0.12501
O_ O_ 0.59917 0.302887 0.222085 -0.60745
O_ O_ 0.845683 0.290408 0.217201 -0.60745
O_ O_ 0.593978 0.294321 0.287473 -0.60745
O_ O_ 0.843195 0.2911 0.286994 -0.60745
O_ O_ 0.656224 0.295261 0.289256 -0.60745
O_ O_ 0.903653 0.301097 0.28961 -0.60745
O_ O_ 0.661721 0.288825 0.221348 -0.60745
O_ O_ 0.908326 0.298197 0.220956 -0.60745
O_ O_ 0.654192 0.206358 0.287692 -0.60745
O_ O_ 0.915603 0.210242 0.290284 -0.60745
O_ O_ 0.652366 0.205074 0.217975 -0.60745
O_ O_ 0.911357 0.208211 0.221167 -0.60745
O_ O_ 0.590304 0.2188 0.222764 -0.60745
O_ O_ 0.850314 0.201835 0.214929 -0.60745
O_ O_ 0.595332 0.206824 0.290776 -0.60745
O_ O_ 0.850192 0.202149 0.282511 -0.60745
Zn Zn 0.627678 0.246006 0.788935 0.9476
Zn Zn 0.87252 0.248403 0.788946 0.9476
Zn Zn 0.624915 0.250614 0.717151 0.9476
Zn Zn 0.869476 0.249052 0.719165 0.9476
H_ H_ 0.527414 0.410639 0.686115 0.10932
H_ H_ 0.785479 0.421198 0.694278 0.10932
H_ H_ 0.566568 0.350869 0.822102 0.10932
H_ H_ 0.8057 0.344974 0.828735 0.10932
H_ H_ 0.556534 0.346557 0.686114 0.10932
H_ H_ 0.801326 0.347106 0.693564 0.10932
H_ H_ 0.534659 0.41499 0.823345 0.10932
H_ H_ 0.780411 0.41056 0.832083 0.10932
H_ H_ 0.714392 0.417542 0.823108 0.10932
H_ H_ 0.951057 0.426141 0.815866 0.10932
H_ H_ 0.676021 0.359087 0.686739 0.10932
H_ H_ 0.938458 0.341681 0.685311 0.10932
H_ H_ 0.699481 0.339353 0.819355 0.10932
H_ H_ 0.93242 0.357108 0.819762 0.10932
H_ H_ 0.714873 0.415592 0.687307 0.10932
H_ H_ 0.96745 0.405679 0.68435 0.10932
H_ H_ 0.722829 0.0875098 0.820216 0.10932
H_ H_ 0.962492 0.0752395 0.80886 0.10932
H_ H_ 0.668006 0.122421 0.69253 0.10932
H_ H_ 0.940098 0.155077 0.679522 0.10932
H_ H_ 0.695347 0.151055 0.819477 0.10932
H_ H_ 0.932629 0.13972 0.812911 0.10932
H_ H_ 0.695756 0.0600134 0.697865 0.10932
H_ H_ 0.96694 0.0862318 0.675426 0.10932
H_ H_ 0.53174 0.0825551 0.679864 0.10932
H_ H_ 0.788217 0.0762721 0.684713 0.10932
H_ H_ 0.56652 0.140363 0.812259 0.10932
H_ H_ 0.812703 0.14468 0.820161 0.10932
H_ H_ 0.563251 0.147033 0.676063 0.10932
H_ H_ 0.809374 0.145317 0.683629 0.10932
H_ H_ 0.550359 0.070901 0.809135 0.10932
H_ H_ 0.782064 0.0769293 0.819552 0.10932
H_ H_ 0.63769 0.313136 0.865336 0.10932
H_ H_ 0.889455 0.308751 0.86942 0.10932
H_ H_ 0.624294 0.1825 0.858245 0.10932
H_ H_ 0.87172 0.182485 0.853468 0.10932
H_ H_ 0.618336 0.17775 0.937466 0.10932
H_ H_ 0.872908 0.171132 0.929496 0.10932
H_ H_ 0.631464 0.311987 0.944639 0.10932
H_ H_ 0.891489 0.299884 0.946179 0.10932
H_ H_ 0.621348 0.315195 0.638339 0.10932
H_ H_ 0.860158 0.311117 0.639957 0.10932
H_ H_ 0.632193 0.186629 0.646712 0.10932
H_ H_ 0.880246 0.18403 0.643259 0.10932
H_ H_ 0.635695 0.18478 0.571925 0.10932
H_ H_ 0.877097 0.180242 0.567388 0.10932
H_ H_ 0.609027 0.312686 0.562007 0.10932
H_ H_ 0.843555 0.308367 0.569053 0.10932
C_ C_ 0.565095 0.345221 0.754112 -0.02249
C_ C_ 0.810151 0.34297 0.760028 -0.02249
C_ C_ 0.513526 0.460815 0.754226 -0.02249
C_ C_ 0.763696 0.460916 0.763939 -0.02249
C_ C_ 0.535055 0.398429 0.716434 -0.11473
C_ C_ 0.790244 0.40318 0.723926 -0.11473
C_ C_ 0.557373 0.364566 0.792417 -0.11473
C_ C_ 0.799864 0.359815 0.798542 -0.11473
C_ C_ 0.552253 0.361184 0.717433 -0.11473
C_ C_ 0.799012 0.362871 0.723643 -0.11473
C_ C_ 0.530584 0.420047 0.754647 -0.02249
C_ C_ 0.78271 0.421944 0.762266 -0.02249
C_ C_ 0.587242 0.309178 0.750783 0.6875
C_ C_ 0.830383 0.305691 0.756991 0.6875
C_ C_ 0.541042 0.402689 0.792958 -0.11473
C_ C_ 0.787336 0.400257 0.799943 -0.11473
C_ C_ 0.684424 0.34457 0.755047 -0.02249
C_ C_ 0.932041 0.343892 0.75288 -0.02249
C_ C_ 0.732668 0.46105 0.752428 -0.02249
C_ C_ 0.980791 0.459206 0.750569 -0.02249
C_ C_ 0.708338 0.402374 0.793686 -0.11473
C_ C_ 0.951813 0.405949 0.787282 -0.11473
C_ C_ 0.688593 0.366744 0.716525 -0.11473
C_ C_ 0.941741 0.35884 0.713904 -0.11473
C_ C_ 0.69587 0.362404 0.793107 -0.11473
C_ C_ 0.938716 0.366026 0.789495 -0.11473
C_ C_ 0.715604 0.421337 0.75572 -0.02249
C_ C_ 0.963925 0.419958 0.749375 -0.02249
C_ C_ 0.667159 0.306051 0.75522 0.6875
C_ C_ 0.911078 0.308816 0.753486 0.6875
C_ C_ 0.708609 0.402677 0.717567 -0.11473
C_ C_ 0.961283 0.393395 0.713569 -0.11473
C_ C_ 0.680815 0.145131 0.755254 -0.02249
C_ C_ 0.935172 0.15434 0.746222 -0.02249
C_ C_ 0.734532 0.0320907 0.759007 -0.02249
C_ C_ 0.986243 0.0405297 0.739905 -0.02249
C_ C_ 0.712465 0.0952414 0.792555 -0.11473
C_ C_ 0.96032 0.0937081 0.781028 -0.11473
C_ C_ 0.682309 0.119521 0.718382 -0.11473
C_ C_ 0.943404 0.137816 0.707321 -0.11473
C_ C_ 0.697128 0.132478 0.791472 -0.11473
C_ C_ 0.941844 0.130734 0.781919 -0.11473
C_ C_ 0.716579 0.0726444 0.756383 -0.02249
C_ C_ 0.97046 0.0803627 0.742527 -0.02249
C_ C_ 0.661503 0.182097 0.756747 0.6875
C_ C_ 0.912226 0.187815 0.747104 0.6875
C_ C_ 0.701072 0.0847786 0.71975 -0.11473
C_ C_ 0.962438 0.104014 0.706084 -0.11473
C_ C_ 0.566008 0.152801 0.745573 -0.02249
C_ C_ 0.814249 0.148628 0.753972 -0.02249
C_ C_ 0.517542 0.0354331 0.743465 -0.02249
C_ C_ 0.765998 0.031272 0.75075 -0.02249
C_ C_ 0.538041 0.0975834 0.708305 -0.11473
C_ C_ 0.79322 0.0894724 0.714296 -0.11473
C_ C_ 0.559572 0.129693 0.782366 -0.11473
C_ C_ 0.805982 0.129875 0.790838 -0.11473
C_ C_ 0.555282 0.134351 0.706592 -0.11473
C_ C_ 0.804536 0.130439 0.714958 -0.11473
C_ C_ 0.535948 0.0747538 0.745045 -0.02249
C_ C_ 0.784552 0.0700122 0.752674 -0.02249
C_ C_ 0.583 0.192036 0.747664 0.6875
C_ C_ 0.831943 0.18753 0.755549 0.6875
C_ C_ 0.5469 0.0903141 0.783181 -0.11473
C_ C_ 0.789983 0.0915084 0.790104 -0.11473
C_ C_ 0.633555 0.283415 0.882721 0.17695
C_ C_ 0.884361 0.280046 0.883335 0.17695
C_ C_ 0.625964 0.211154 0.878219 0.17695
C_ C_ 0.873135 0.208624 0.87435 0.17695
C_ C_ 0.624319 0.207931 0.922833 -0.11473
C_ C_ 0.874191 0.20281 0.917322 -0.11473
C_ C_ 0.62662 0.24419 0.947495 0.23465
C_ C_ 0.8785 0.236676 0.944709 0.23465
C_ C_ 0.63065 0.28269 0.926516 -0.11473
C_ C_ 0.886066 0.274502 0.926952 -0.11473
C_ C_ 0.619008 0.286402 0.623748 0.17695
C_ C_ 0.860281 0.281955 0.624811 0.17695
C_ C_ 0.629063 0.215273 0.62756 0.17695
C_ C_ 0.875349 0.212679 0.625544 0.17695
C_ C_ 0.627143 0.212509 0.585177 -0.11473
C_ C_ 0.871749 0.209439 0.581826 -0.11473
C_ C_ 0.617867 0.246906 0.561327 0.23465
C_ C_ 0.861877 0.244866 0.55928 0.23465
C_ C_ 0.612722 0.284361 0.580311 -0.11473
C_ C_ 0.855563 0.281591 0.58156 -0.11473
C_ C_ 0.529199 0.497671 0.754397 0.05793
C_ C_ 0.778445 0.498959 0.767148 0.05793
C_ C_ 0.717587 -0.005499999999999949 0.758764 0.05793
C_ C_ 0.9679 0.00431122 0.737022 0.05793
Br Br 0.570022 0.494481 0.743037 -0.17191
Br Br 0.818803 0.502846 0.792159 -0.17191
Br Br 0.678294 -0.006152000000000046 0.788338 -0.17191
Br Br 0.925018 0.010321 0.726818 -0.17191
N_ N_ 0.629524 0.24772 0.859384 -0.272
N_ N_ 0.8768 0.246299 0.858186 -0.272
N_ N_ 0.626245 0.237756 0.992673 -0.12501
N_ N_ 0.87162 0.231125 0.988417 -0.12501
N_ N_ 0.62729 0.251584 0.646758 -0.272
N_ N_ 0.869056 0.247853 0.647553 -0.272
N_ N_ 0.615399 0.244655 0.517816 -0.12501
N_ N_ 0.859084 0.243183 0.514653 -0.12501
O_ O_ 0.597111 0.297909 0.715504 -0.60745
O_ O_ 0.833274 0.286934 0.722587 -0.60745
O_ O_ 0.597784 0.293756 0.784964 -0.60745
O_ O_ 0.84559 0.295426 0.789989 -0.60745
O_ O_ 0.660563 0.290675 0.790385 -0.60745
O_ O_ 0.906071 0.290366 0.787348 -0.60745
O_ O_ 0.65918 0.290783 0.721596 -0.60745
O_ O_ 0.895939 0.296853 0.7218 -0.60745
O_ O_ 0.653156 0.196851 0.791933 -0.60745
O_ O_ 0.899391 0.198116 0.782667 -0.60745
O_ O_ 0.656371 0.202652 0.723836 -0.60745
O_ O_ 0.904074 0.207578 0.714127 -0.60745
O_ O_ 0.592542 0.207517 0.715042 -0.60745
O_ O_ 0.843725 0.19878 0.721357 -0.60745
O_ O_ 0.593748 0.204783 0.782025 -0.60745
O_ O_ 0.838202 0.206411 0.790707 -0.60745
Zn Zn 0.626541 0.752015 0.283408 0.9476
Zn Zn 0.875951 0.74766 0.283082 0.9476
Zn Zn 0.622081 0.752136 0.214485 0.9476
Zn Zn 0.876694 0.749549 0.212271 0.9476
H_ H_ 0.535704 0.917423 0.177632 0.10932
H_ H_ 0.771493 0.905855 0.179978 0.10932
H_ H_ 0.560005 0.851858 0.314323 0.10932
H_ H_ 0.829277 0.866431 0.309571 0.10932
H_ H_ 0.569551 0.862224 0.177693 0.10932
H_ H_ 0.796888 0.836137 0.184887 0.10932
H_ H_ 0.540159 0.919604 0.311286 0.10932
H_ H_ 0.800152 0.927265 0.307815 0.10932
H_ H_ 0.733801 0.902483 0.299532 0.10932
H_ H_ 0.969309 0.917869 0.315742 0.10932
H_ H_ 0.669207 0.870178 0.179214 0.10932
H_ H_ 0.938026 0.852712 0.178443 0.10932
H_ H_ 0.703104 0.838752 0.30233 0.10932
H_ H_ 0.938611 0.855999 0.313667 0.10932
H_ H_ 0.6992 0.931322 0.17817 0.10932
H_ H_ 0.970569 0.919297 0.178187 0.10932
H_ H_ 0.722865 0.590515 0.314072 0.10932
H_ H_ 0.95473 0.571696 0.318336 0.10932
H_ H_ 0.677787 0.6463 0.184495 0.10932
H_ H_ 0.956112 0.664548 0.196989 0.10932
H_ H_ 0.694934 0.656685 0.314819 0.10932
H_ H_ 0.92393 0.634697 0.319069 0.10932
H_ H_ 0.703042 0.578236 0.183178 0.10932
H_ H_ 0.982273 0.596335 0.19358 0.10932
H_ H_ 0.533984 0.583182 0.177962 0.10932
H_ H_ 0.770485 0.601366 0.180711 0.10932
H_ H_ 0.564007 0.652415 0.310602 0.10932
H_ H_ 0.828158 0.632554 0.31167 0.10932
H_ H_ 0.56056 0.651003 0.176975 0.10932
H_ H_ 0.810045 0.652474 0.177113 0.10932
H_ H_ 0.530281 0.589558 0.311764 0.10932
H_ H_ 0.791843 0.573238 0.309725 0.10932
H_ H_ 0.624728 0.689385 0.357798 0.10932
H_ H_ 0.865005 0.812029 0.362535 0.10932
H_ H_ 0.627717 0.820091 0.355049 0.10932
H_ H_ 0.882725 0.685524 0.354711 0.10932
H_ H_ 0.625852 0.822748 0.434817 0.10932
H_ H_ 0.886575 0.679681 0.432774 0.10932
H_ H_ 0.614098 0.694265 0.438396 0.10932
H_ H_ 0.85902 0.807344 0.439231 0.10932
H_ H_ 0.628064 0.689109 0.148119 0.10932
H_ H_ 0.881192 0.685221 0.131291 0.10932
H_ H_ 0.615201 0.815869 0.128538 0.10932
H_ H_ 0.870212 0.810605 0.140907 0.10932
H_ H_ 0.611287 0.805779 0.0527625 0.10932
H_ H_ 0.869403 0.820497 0.065456 0.10932
H_ H_ 0.627012 0.675136 0.073584 0.10932
H_ H_ 0.888543 0.688099 0.0568244 0.10932
C_ C_ 0.568564 0.848724 0.246328 -0.02249
C_ C_ 0.815957 0.844252 0.246647 -0.02249
C_ C_ 0.521094 0.965775 0.24579 -0.02249
C_ C_ 0.765879 0.961828 0.242391 -0.02249
C_ C_ 0.543854 0.905632 0.207493 -0.11473
C_ C_ 0.783749 0.895319 0.209072 -0.11473
C_ C_ 0.558246 0.867505 0.284153 -0.11473
C_ C_ 0.815543 0.871049 0.281781 -0.11473
C_ C_ 0.563284 0.871799 0.208553 -0.11473
C_ C_ 0.797343 0.85619 0.21181 -0.11473
C_ C_ 0.537052 0.925169 0.246531 -0.02249
C_ C_ 0.784067 0.920992 0.244948 -0.02249
C_ C_ 0.587497 0.812142 0.244802 0.6875
C_ C_ 0.831948 0.804414 0.246594 0.6875
C_ C_ 0.545345 0.905815 0.284634 -0.11473
C_ C_ 0.798033 0.906306 0.282047 -0.11473
C_ C_ 0.679863 0.849881 0.242943 -0.02249
C_ C_ 0.93527 0.850008 0.245693 -0.02249
C_ C_ 0.733675 0.962488 0.242658 -0.02249
C_ C_ 0.988095 0.96423 0.24421 -0.02249
C_ C_ 0.71604 0.896946 0.276961 -0.11473
C_ C_ 0.962653 0.904984 0.285161 -0.11473
C_ C_ 0.682936 0.874738 0.205968 -0.11473
C_ C_ 0.943031 0.870102 0.206791 -0.11473
C_ C_ 0.698634 0.859786 0.277989 -0.11473
C_ C_ 0.946873 0.868144 0.283906 -0.11473
C_ C_ 0.715701 0.923712 0.241706 -0.02249
C_ C_ 0.969487 0.92508 0.246145 -0.02249
C_ C_ 0.661035 0.814759 0.243657 0.6875
C_ C_ 0.913427 0.814058 0.246749 0.6875
C_ C_ 0.698908 0.911491 0.205739 -0.11473
C_ C_ 0.961209 0.906173 0.207378 -0.11473
C_ C_ 0.683127 0.654968 0.250151 -0.02249
C_ C_ 0.935063 0.65498 0.254945 -0.02249
C_ C_ 0.73405 0.540496 0.245391 -0.02249
C_ C_ 0.986372 0.541195 0.256857 -0.02249
C_ C_ 0.712329 0.600767 0.285459 -0.11473
C_ C_ 0.952404 0.590289 0.289598 -0.11473
C_ C_ 0.687475 0.633585 0.212442 -0.11473
C_ C_ 0.950791 0.641772 0.220034 -0.11473
C_ C_ 0.696742 0.639082 0.287013 -0.11473
C_ C_ 0.935606 0.627265 0.29139 -0.11473
C_ C_ 0.717271 0.580176 0.248918 -0.02249
C_ C_ 0.968411 0.57912 0.254643 -0.02249
C_ C_ 0.66371 0.691997 0.252562 0.6875
C_ C_ 0.917021 0.693781 0.253593 0.6875
C_ C_ 0.70292 0.595946 0.212765 -0.11473
C_ C_ 0.969323 0.606544 0.221488 -0.11473
C_ C_ 0.563281 0.658733 0.244191 -0.02249
C_ C_ 0.824182 0.645828 0.243334 -0.02249
C_ C_ 0.513921 0.541226 0.24687 -0.02249
C_ C_ 0.76532 0.541272 0.242227 -0.02249
C_ C_ 0.541032 0.597962 0.208093 -0.11473
C_ C_ 0.784617 0.60438 0.206922 -0.11473
C_ C_ 0.5525 0.641938 0.281991 -0.11473
C_ C_ 0.819709 0.621337 0.280784 -0.11473
C_ C_ 0.554326 0.638978 0.207923 -0.11473
C_ C_ 0.808014 0.634379 0.20587 -0.11473
C_ C_ 0.529598 0.581296 0.245063 -0.02249
C_ C_ 0.782963 0.58019 0.242795 -0.02249
C_ C_ 0.586078 0.690343 0.246993 0.6875
C_ C_ 0.841846 0.684332 0.245778 0.6875
C_ C_ 0.537851 0.60238 0.284058 -0.11473
C_ C_ 0.800215 0.587567 0.279552 -0.11473
C_ C_ 0.62181 0.718856 0.374426 0.17695
C_ C_ 0.868737 0.782433 0.377798 0.17695
C_ C_ 0.62652 0.790986 0.373935 0.17695
C_ C_ 0.882987 0.713276 0.372237 0.17695
C_ C_ 0.622978 0.793589 0.417865 -0.11473
C_ C_ 0.882332 0.708328 0.417864 -0.11473
C_ C_ 0.621582 0.757993 0.441271 0.23465
C_ C_ 0.868933 0.74083 0.441281 0.23465
C_ C_ 0.618808 0.720592 0.419214 -0.11473
C_ C_ 0.866328 0.780148 0.422164 -0.11473
C_ C_ 0.625108 0.714207 0.127289 0.17695
C_ C_ 0.879855 0.714177 0.116965 0.17695
C_ C_ 0.616513 0.785819 0.116052 0.17695
C_ C_ 0.87433 0.785405 0.122266 0.17695
C_ C_ 0.612699 0.779565 0.0721795 -0.11473
C_ C_ 0.873388 0.789301 0.0787466 -0.11473
C_ C_ 0.616686 0.739285 0.056003 0.23465
C_ C_ 0.879932 0.753941 0.0530734 0.23465
C_ C_ 0.623643 0.706436 0.0844289 -0.11473
C_ C_ 0.883893 0.716141 0.0731239 -0.11473
C_ C_ 0.537032 1.00448209 0.248565 0.05793
C_ C_ 0.780359 1.0000026174 0.245384 0.05793
C_ C_ 0.719061 0.502748 0.248 0.05793
C_ C_ 0.970118 0.503206 0.254867 0.05793
Br Br 0.579907 1.00526449 0.24436 -0.17191
Br Br 0.825136 0.998888 0.256042 -0.17191
Br Br 0.676999 0.502945 0.259652 -0.17191
Br Br 0.927106 0.502248 0.239801 -0.17191
N_ N_ 0.625235 0.755453 0.352262 -0.272
N_ N_ 0.874353 0.749698 0.354198 -0.272
N_ N_ 0.621432 0.761692 0.486068 -0.12501
N_ N_ 0.866219 0.735423 0.485157 -0.12501
N_ N_ 0.621151 0.752265 0.142887 -0.272
N_ N_ 0.87677 0.748373 0.140179 -0.272
N_ N_ 0.621482 0.733294 0.01172 -0.12501
N_ N_ 0.877741 0.759414 0.00900178 -0.12501
O_ O_ 0.59215 0.793971 0.209137 -0.60745
O_ O_ 0.844515 0.790547 0.212807 -0.60745
O_ O_ 0.594473 0.79409 0.27792 -0.60745
O_ O_ 0.841055 0.790917 0.281222 -0.60745
O_ O_ 0.657921 0.796125 0.277417 -0.60745
O_ O_ 0.90383 0.799136 0.281181 -0.60745
O_ O_ 0.651389 0.798276 0.210129 -0.60745
O_ O_ 0.906302 0.794934 0.213747 -0.60745
O_ O_ 0.656576 0.707103 0.288062 -0.60745
O_ O_ 0.908535 0.709271 0.286996 -0.60745
O_ O_ 0.656397 0.710946 0.219272 -0.60745
O_ O_ 0.908567 0.710426 0.218417 -0.60745
O_ O_ 0.592473 0.708749 0.21474 -0.60745
O_ O_ 0.847529 0.703153 0.212235 -0.60745
O_ O_ 0.596574 0.705365 0.282538 -0.60745
O_ O_ 0.848872 0.699698 0.280263 -0.60745
Zn Zn 0.623625 0.745787 0.782479 0.9476
Zn Zn 0.873017 0.751847 0.784001 0.9476
Zn Zn 0.622295 0.745539 0.713828 0.9476
Zn Zn 0.872175 0.749729 0.715333 0.9476
H_ H_ 0.547488 0.924409 0.6847 0.10932
H_ H_ 0.770953 0.903079 0.684623 0.10932
H_ H_ 0.55277 0.836277 0.812404 0.10932
H_ H_ 0.805901 0.842257 0.819738 0.10932
H_ H_ 0.574002 0.859477 0.682227 0.10932
H_ H_ 0.797313 0.831467 0.686014 0.10932
H_ H_ 0.533143 0.90826 0.815306 0.10932
H_ H_ 0.783573 0.91125 0.817571 0.10932
H_ H_ 0.716685 0.90597 0.81414 0.10932
H_ H_ 0.959109 0.924596 0.809543 0.10932
H_ H_ 0.672056 0.85834 0.680691 0.10932
H_ H_ 0.939231 0.844104 0.67828 0.10932
H_ H_ 0.688287 0.845181 0.813435 0.10932
H_ H_ 0.92745 0.861867 0.811388 0.10932
H_ H_ 0.70863 0.914888 0.680254 0.10932
H_ H_ 0.956605 0.915495 0.673354 0.10932
H_ H_ 0.697722 0.566677 0.813647 0.10932
H_ H_ 0.953011 0.571742 0.807951 0.10932
H_ H_ 0.703076 0.659375 0.692117 0.10932
H_ H_ 0.941272 0.654793 0.680992 0.10932
H_ H_ 0.674631 0.635239 0.814772 0.10932
H_ H_ 0.930674 0.641786 0.810039 0.10932
H_ H_ 0.729325 0.592616 0.68661 0.10932
H_ H_ 0.964538 0.587314 0.675824 0.10932
H_ H_ 0.540318 0.566207 0.690299 0.10932
H_ H_ 0.79554 0.569226 0.693579 0.10932
H_ H_ 0.557395 0.654352 0.81679 0.10932
H_ H_ 0.808975 0.653922 0.822221 0.10932
H_ H_ 0.559879 0.638407 0.682822 0.10932
H_ H_ 0.821314 0.636242 0.687688 0.10932
H_ H_ 0.528376 0.588647 0.821958 0.10932
H_ H_ 0.77548 0.595811 0.82535 0.10932
H_ H_ 0.646063 0.691495 0.863476 0.10932
H_ H_ 0.861257 0.692078 0.856652 0.10932
H_ H_ 0.613181 0.811556 0.851807 0.10932
H_ H_ 0.893758 0.815578 0.859273 0.10932
H_ H_ 0.60736 0.819616 0.92482 0.10932
H_ H_ 0.90671 0.814238 0.934667 0.10932
H_ H_ 0.641261 0.695085 0.942079 0.10932
H_ H_ 0.876036 0.684703 0.9281 0.10932
H_ H_ 0.642207 0.681467 0.643588 0.10932
H_ H_ 0.859502 0.814168 0.644648 0.10932
H_ H_ 0.602719 0.802213 0.627182 0.10932
H_ H_ 0.879149 0.684618 0.633799 0.10932
H_ H_ 0.603743 0.795169 0.552464 0.10932
H_ H_ 0.878325 0.690826 0.554946 0.10932
H_ H_ 0.654418 0.679927 0.568535 0.10932
H_ H_ 0.851641 0.819435 0.57005 0.10932
C_ C_ 0.565323 0.843074 0.74586 -0.02249
C_ C_ 0.805669 0.834321 0.752654 -0.02249
C_ C_ 0.516977 0.960144 0.748544 -0.02249
C_ C_ 0.763353 0.954775 0.753567 -0.02249
C_ C_ 0.547253 0.905795 0.712231 -0.11473
C_ C_ 0.778801 0.889614 0.715608 -0.11473
C_ C_ 0.550697 0.854817 0.783238 -0.11473
C_ C_ 0.7991 0.855349 0.789161 -0.11473
C_ C_ 0.562995 0.868222 0.711257 -0.11473
C_ C_ 0.793709 0.84945 0.714603 -0.11473
C_ C_ 0.533829 0.919335 0.749413 -0.02249
C_ C_ 0.778255 0.914378 0.750717 -0.02249
C_ C_ 0.587481 0.807653 0.745379 0.6875
C_ C_ 0.831263 0.804433 0.754089 0.6875
C_ C_ 0.537559 0.894907 0.786003 -0.11473
C_ C_ 0.786925 0.894673 0.788163 -0.11473
C_ C_ 0.678594 0.844274 0.747375 -0.02249
C_ C_ 0.927323 0.849837 0.743955 -0.02249
C_ C_ 0.73133 0.956867 0.750733 -0.02249
C_ C_ 0.980248 0.963674 0.739051 -0.02249
C_ C_ 0.707966 0.897145 0.785136 -0.11473
C_ C_ 0.953566 0.907668 0.780805 -0.11473
C_ C_ 0.684381 0.865812 0.710459 -0.11473
C_ C_ 0.938998 0.864452 0.707054 -0.11473
C_ C_ 0.693099 0.859652 0.784346 -0.11473
C_ C_ 0.936492 0.870772 0.781646 -0.11473
C_ C_ 0.713304 0.918078 0.74757 -0.02249
C_ C_ 0.960862 0.924655 0.741647 -0.02249
C_ C_ 0.661051 0.805336 0.75005 0.6875
C_ C_ 0.907577 0.813907 0.744265 0.6875
C_ C_ 0.703656 0.901089 0.710071 -0.11473
C_ C_ 0.953436 0.902678 0.704744 -0.11473
C_ C_ 0.686585 0.652498 0.75435 -0.02249
C_ C_ 0.930289 0.652394 0.744908 -0.02249
C_ C_ 0.731153 0.536985 0.752466 -0.02249
C_ C_ 0.980227 0.536346 0.742112 -0.02249
C_ C_ 0.700531 0.587274 0.788176 -0.11473
C_ C_ 0.954011 0.594194 0.782126 -0.11473
C_ C_ 0.701874 0.639011 0.718129 -0.11473
C_ C_ 0.940812 0.635966 0.707384 -0.11473
C_ C_ 0.687832 0.62682 0.789132 -0.11473
C_ C_ 0.937146 0.629773 0.781864 -0.11473
C_ C_ 0.71416 0.57563 0.750479 -0.02249
C_ C_ 0.96422 0.578184 0.743361 -0.02249
C_ C_ 0.665 0.689239 0.753384 0.6875
C_ C_ 0.912265 0.691169 0.744982 0.6875
C_ C_ 0.71677 0.602793 0.715927 -0.11473
C_ C_ 0.954944 0.596755 0.706329 -0.11473
C_ C_ 0.562967 0.649177 0.749605 -0.02249
C_ C_ 0.814838 0.651139 0.755543 -0.02249
C_ C_ 0.512776 0.534855 0.757684 -0.02249
C_ C_ 0.762847 0.536939 0.7602 -0.02249
C_ C_ 0.540299 0.587985 0.71556 -0.11473
C_ C_ 0.794707 0.589282 0.721269 -0.11473
C_ C_ 0.551002 0.637188 0.7883 -0.11473
C_ C_ 0.803326 0.638033 0.794237 -0.11473
C_ C_ 0.553501 0.626367 0.713078 -0.11473
C_ C_ 0.811861 0.626418 0.719543 -0.11473
C_ C_ 0.528339 0.574822 0.754315 -0.02249
C_ C_ 0.780413 0.578392 0.759314 -0.02249
C_ C_ 0.582222 0.685465 0.7476 0.6875
C_ C_ 0.835682 0.688763 0.753242 0.6875
C_ C_ 0.535615 0.599197 0.791308 -0.11473
C_ C_ 0.786847 0.601827 0.796382 -0.11473
C_ C_ 0.637213 0.718924 0.878477 0.17695
C_ C_ 0.870701 0.719513 0.874116 0.17695
C_ C_ 0.617989 0.786115 0.870447 0.17695
C_ C_ 0.891638 0.787012 0.874879 0.17695
C_ C_ 0.614334 0.789691 0.912849 -0.11473
C_ C_ 0.89909 0.784465 0.916485 -0.11473
C_ C_ 0.620091 0.756633 0.940118 0.23465
C_ C_ 0.889438 0.749175 0.938609 0.23465
C_ C_ 0.634373 0.720763 0.922252 -0.11473
C_ C_ 0.877553 0.716094 0.916691 -0.11473
C_ C_ 0.637128 0.70879 0.625101 0.17695
C_ C_ 0.862755 0.787101 0.625849 0.17695
C_ C_ 0.613607 0.774283 0.617384 0.17695
C_ C_ 0.874139 0.714844 0.619388 0.17695
C_ C_ 0.614759 0.771664 0.573179 -0.11473
C_ C_ 0.873331 0.718348 0.573509 -0.11473
C_ C_ 0.630752 0.738231 0.555505 0.23465
C_ C_ 0.867049 0.757017 0.555212 0.23465
C_ C_ 0.640689 0.705848 0.580237 -0.11473
C_ C_ 0.863585 0.792671 0.582252 -0.11473
C_ C_ 0.532881 -0.0024020000000000152 0.747471 0.05793
C_ C_ 0.780056 -0.007857000000000003 0.748678 0.05793
C_ C_ 0.715489 0.498879 0.751001 0.05793
C_ C_ 0.964601 0.498354 0.744336 0.05793
Br Br 0.574675 -0.004481999999999986 0.763241 -0.17191
Br Br 0.821519 0.98976 0.736117 -0.17191
Br Br 0.673508 0.497255 0.734845 -0.17191
Br Br 0.923301 0.497539 0.731931 -0.17191
N_ N_ 0.627333 0.750451 0.853349 -0.272
N_ N_ 0.878476 0.754457 0.853095 -0.272
N_ N_ 0.61473 0.760308 0.984393 -0.12501
N_ N_ 0.895848 0.743401 0.982869 -0.12501
N_ N_ 0.62457 0.742664 0.643081 -0.272
N_ N_ 0.867887 0.749473 0.643554 -0.272
N_ N_ 0.632582 0.735362 0.511087 -0.12501
N_ N_ 0.868895 0.764342 0.510813 -0.12501
O_ O_ 0.594558 0.792711 0.710216 -0.60745
O_ O_ 0.840113 0.788822 0.720397 -0.60745
O_ O_ 0.593659 0.788423 0.779884 -0.60745
O_ O_ 0.846398 0.798514 0.788107 -0.60745
O_ O_ 0.653809 0.79297 0.784951 -0.60745
O_ O_ 0.905459 0.793632 0.777359 -0.60745
O_ O_ 0.652029 0.786093 0.717117 -0.60745
O_ O_ 0.896745 0.799929 0.711254 -0.60745
O_ O_ 0.654194 0.701542 0.786759 -0.60745
O_ O_ 0.90313 0.706285 0.779866 -0.60745
O_ O_ 0.653578 0.700425 0.719351 -0.60745
O_ O_ 0.90759 0.709352 0.709786 -0.60745
O_ O_ 0.590783 0.699527 0.713542 -0.60745
O_ O_ 0.844589 0.702311 0.718767 -0.60745
O_ O_ 0.592409 0.700994 0.780996 -0.60745
O_ O_ 0.842738 0.706969 0.786477 -0.60745
