_cell_length_a 44.444
_cell_length_b 32.3360000049186
_cell_length_c 31.843999878906452
_cell_angle_alpha 89.99799923859553
_cell_angle_beta 91.13600050494348
_cell_angle_gamma 89.9990006550086
_symmetry_space_group_name_H-M         'P 1'
_symmetry_Int_Tables_number            1
loop_
_symmetry_equiv_pos_as_xyz
   'x, y, z'
                         
loop_
_atom_site_label
_atom_site_type_symbol
_atom_site_fract_x 
_atom_site_fract_y
_atom_site_fract_z
_atom_site_charge
Zn Zn 0.125585 0.251441 0.283357 0.9476
Zn Zn 0.376018 0.255158 0.28701 0.9476
Zn Zn 0.124282 0.249552 0.214528 0.9476
Zn Zn 0.372735 0.251424 0.214474 0.9476
H_ H_ 0.0242063 0.401125 0.177852 0.10932
H_ H_ 0.273878 0.404805 0.180878 0.10932
H_ H_ 0.0755765 0.366276 0.312677 0.10932
H_ H_ 0.334468 0.377427 0.310033 0.10932
H_ H_ 0.0559609 0.33923 0.182842 0.10932
H_ H_ 0.301339 0.339408 0.187071 0.10932
H_ H_ 0.0442547 0.426317 0.309139 0.10932
H_ H_ 0.297465 0.433927 0.307908 0.10932
H_ H_ 0.236715 0.402466 0.309175 0.10932
H_ H_ 0.461793 0.42081 0.318501 0.10932
H_ H_ 0.167811 0.367297 0.188562 0.10932
H_ H_ 0.437521 0.34743 0.185329 0.10932
H_ H_ 0.204412 0.333634 0.307937 0.10932
H_ H_ 0.427628 0.358483 0.318135 0.10932
H_ H_ 0.198832 0.433732 0.185842 0.10932
H_ H_ 0.473861 0.40657 0.185382 0.10932
H_ H_ 0.21956 0.0827193 0.31011 0.10932
H_ H_ 0.466389 0.0910534 0.320133 0.10932
H_ H_ 0.183593 0.15147 0.180911 0.10932
H_ H_ 0.441222 0.145629 0.180264 0.10932
H_ H_ 0.187333 0.145849 0.314731 0.10932
H_ H_ 0.433561 0.148696 0.317858 0.10932
H_ H_ 0.205333 0.0822591 0.176366 0.10932
H_ H_ 0.469529 0.0847651 0.188594 0.10932
H_ H_ 0.0302539 0.0828085 0.196267 0.10932
H_ H_ 0.287359 0.0833116 0.186692 0.10932
H_ H_ 0.073896 0.146195 0.324986 0.10932
H_ H_ 0.311021 0.155271 0.320893 0.10932
H_ H_ 0.064646 0.13816 0.188822 0.10932
H_ H_ 0.316202 0.145534 0.183049 0.10932
H_ H_ 0.0472999 0.0786621 0.329843 0.10932
H_ H_ 0.286906 0.0837716 0.320605 0.10932
H_ H_ 0.124011 0.188599 0.361102 0.10932
H_ H_ 0.334302 0.277248 0.365795 0.10932
H_ H_ 0.141004 0.317459 0.354592 0.10932
H_ H_ 0.421506 0.227669 0.360639 0.10932
H_ H_ 0.139608 0.321642 0.432461 0.10932
H_ H_ 0.421592 0.215792 0.440957 0.10932
H_ H_ 0.121132 0.190997 0.438527 0.10932
H_ H_ 0.334233 0.266827 0.443989 0.10932
H_ H_ 0.108888 0.310393 0.141865 0.10932
H_ H_ 0.380726 0.191917 0.138716 0.10932
H_ H_ 0.139217 0.185851 0.139691 0.10932
H_ H_ 0.369421 0.321703 0.145187 0.10932
H_ H_ 0.154301 0.197711 0.0638551 0.10932
H_ H_ 0.360345 0.324586 0.0694797 0.10932
H_ H_ 0.106685 0.31137 0.0633474 0.10932
H_ H_ 0.381068 0.19464 0.0616712 0.10932
C_ C_ 0.0681046 0.34871 0.247195 -0.02249
C_ C_ 0.319139 0.352576 0.248903 -0.02249
C_ C_ 0.0153668 0.460104 0.236882 -0.02249
C_ C_ 0.265063 0.464273 0.239608 -0.02249
C_ C_ 0.0356004 0.395631 0.207349 -0.11473
C_ C_ 0.284902 0.397772 0.210214 -0.11473
C_ C_ 0.0649349 0.374512 0.283191 -0.11473
C_ C_ 0.319162 0.381778 0.282427 -0.11473
C_ C_ 0.054732 0.360729 0.209201 -0.11473
C_ C_ 0.30047 0.359644 0.214136 -0.11473
C_ C_ 0.0322539 0.420754 0.242283 -0.02249
C_ C_ 0.284479 0.42635 0.242339 -0.02249
C_ C_ 0.0882813 0.31147 0.24749 0.6875
C_ C_ 0.339301 0.315922 0.251468 0.6875
C_ C_ 0.0473135 0.41017 0.280152 -0.11473
C_ C_ 0.299984 0.417025 0.278882 -0.11473
C_ C_ 0.1844 0.349583 0.247688 -0.02249
C_ C_ 0.435192 0.344155 0.253816 -0.02249
C_ C_ 0.234519 0.461935 0.248781 -0.02249
C_ C_ 0.484299 0.458989 0.24996 -0.02249
C_ C_ 0.222399 0.393525 0.281545 -0.11473
C_ C_ 0.457251 0.405155 0.289222 -0.11473
C_ C_ 0.183801 0.375262 0.212579 -0.11473
C_ C_ 0.447553 0.357288 0.215642 -0.11473
C_ C_ 0.203443 0.358076 0.282954 -0.11473
C_ C_ 0.439218 0.368096 0.290243 -0.11473
C_ C_ 0.219528 0.421715 0.247898 -0.02249
C_ C_ 0.470685 0.416414 0.252067 -0.02249
C_ C_ 0.162369 0.312214 0.247781 0.6875
C_ C_ 0.415896 0.305529 0.25203 0.6875
C_ C_ 0.201514 0.411972 0.212588 -0.11473
C_ C_ 0.464037 0.395225 0.215586 -0.11473
C_ C_ 0.181151 0.152829 0.248781 -0.02249
C_ C_ 0.431462 0.153395 0.248081 -0.02249
C_ C_ 0.233966 0.0414305 0.239937 -0.02249
C_ C_ 0.481826 0.0377201 0.256754 -0.02249
C_ C_ 0.210322 0.0973388 0.281881 -0.11473
C_ C_ 0.458638 0.101215 0.290467 -0.11473
C_ C_ 0.18627 0.134401 0.209305 -0.11473
C_ C_ 0.443291 0.133592 0.211294 -0.11473
C_ C_ 0.193651 0.134949 0.283755 -0.11473
C_ C_ 0.439083 0.135248 0.287721 -0.11473
C_ C_ 0.216604 0.0806415 0.241914 -0.02249
C_ C_ 0.46681 0.0796685 0.254685 -0.02249
C_ C_ 0.163375 0.192432 0.250008 0.6875
C_ C_ 0.412832 0.192701 0.246497 0.6875
C_ C_ 0.203734 0.0980684 0.205856 -0.11473
C_ C_ 0.458248 0.0960651 0.21507 -0.11473
C_ C_ 0.0731936 0.150065 0.256208 -0.02249
C_ C_ 0.316945 0.157419 0.253399 -0.02249
C_ C_ 0.0183074 0.03737 0.267056 -0.02249
C_ C_ 0.264412 0.0418761 0.253156 -0.02249
C_ C_ 0.0416929 0.0944157 0.224448 -0.11473
C_ C_ 0.294634 0.0986475 0.214105 -0.11473
C_ C_ 0.0667719 0.131034 0.296132 -0.11473
C_ C_ 0.30866 0.138603 0.291299 -0.11473
C_ C_ 0.0601595 0.127823 0.2206 -0.11473
C_ C_ 0.309464 0.136658 0.213684 -0.11473
C_ C_ 0.0373938 0.074645 0.263721 -0.02249
C_ C_ 0.28246 0.0827811 0.251265 -0.02249
C_ C_ 0.08578 0.193383 0.252941 0.6875
C_ C_ 0.333165 0.197828 0.249552 0.6875
C_ C_ 0.0509153 0.0931055 0.298945 -0.11473
C_ C_ 0.292792 0.0995599 0.291374 -0.11473
C_ C_ 0.124977 0.218614 0.377347 0.17695
C_ C_ 0.355438 0.267933 0.382221 0.17695
C_ C_ 0.135724 0.289648 0.372219 0.17695
C_ C_ 0.404073 0.236851 0.380393 0.17695
C_ C_ 0.135459 0.292143 0.415901 -0.11473
C_ C_ 0.40331 0.230547 0.423557 -0.11473
C_ C_ 0.128826 0.258064 0.441934 0.23465
C_ C_ 0.378515 0.243388 0.446403 0.23465
C_ C_ 0.125354 0.219363 0.421945 -0.11473
C_ C_ 0.355214 0.260652 0.426893 -0.11473
C_ C_ 0.114598 0.283345 0.125018 0.17695
C_ C_ 0.37477 0.219443 0.122376 0.17695
C_ C_ 0.136067 0.21741 0.124863 0.17695
C_ C_ 0.372621 0.293444 0.127637 0.17695
C_ C_ 0.139713 0.219584 0.0810792 -0.11473
C_ C_ 0.367828 0.295854 0.0843092 -0.11473
C_ C_ 0.128785 0.254265 0.0591059 0.23465
C_ C_ 0.369365 0.259971 0.059189 0.23465
C_ C_ 0.116052 0.286573 0.0814479 -0.11473
C_ C_ 0.37347 0.221808 0.0795727 -0.11473
C_ C_ 0.0307137 0.498132 0.238796 0.05793
C_ C_ 0.278457 0.502376 0.233876 0.05793
C_ C_ 0.218014 0.00327354 0.241527 0.05793
C_ C_ 0.465686 1.00149983 0.253527 0.05793
Br Br 0.0699876 0.500193 0.217452 -0.17191
Br Br 0.32153 0.505445 0.222417 -0.17191
Br Br 0.177349 0.00530104 0.221889 -0.17191
Br Br 0.421729 1.00560282 0.257841 -0.17191
N_ N_ 0.128497 0.252666 0.353617 -0.272
N_ N_ 0.378632 0.252167 0.359473 -0.272
N_ N_ 0.125969 0.263256 0.485844 -0.12501
N_ N_ 0.378398 0.236395 0.491236 -0.12501
N_ N_ 0.123416 0.248058 0.14615 -0.272
N_ N_ 0.371611 0.255505 0.144624 -0.272
N_ N_ 0.124214 0.255286 0.0143054 -0.12501
N_ N_ 0.370755 0.26626 0.0151259 -0.12501
O_ O_ 0.0914695 0.289336 0.215357 -0.60745
O_ O_ 0.341496 0.293159 0.220087 -0.60745
O_ O_ 0.101085 0.30187 0.281608 -0.60745
O_ O_ 0.352601 0.305363 0.286377 -0.60745
O_ O_ 0.159347 0.290759 0.281152 -0.60745
O_ O_ 0.413829 0.287256 0.287139 -0.60745
O_ O_ 0.150798 0.300109 0.212576 -0.60745
O_ O_ 0.403799 0.292979 0.219196 -0.60745
O_ O_ 0.151648 0.20361 0.284823 -0.60745
O_ O_ 0.401018 0.203304 0.279902 -0.60745
O_ O_ 0.154737 0.209097 0.217361 -0.60745
O_ O_ 0.404802 0.207665 0.212705 -0.60745
O_ O_ 0.0955002 0.205554 0.218884 -0.60745
O_ O_ 0.342405 0.211099 0.213296 -0.60745
O_ O_ 0.090189 0.214451 0.285633 -0.60745
O_ O_ 0.339017 0.218346 0.282628 -0.60745
Zn Zn 0.126494 0.246616 0.784422 0.9476
Zn Zn 0.377172 0.252493 0.785501 0.9476
Zn Zn 0.12487 0.249179 0.713047 0.9476
Zn Zn 0.37833 0.25402 0.716726 0.9476
H_ H_ 0.0203608 0.403902 0.68607 0.10932
H_ H_ 0.26393 0.398981 0.692288 0.10932
H_ H_ 0.0817814 0.367517 0.809283 0.10932
H_ H_ 0.334349 0.373673 0.815471 0.10932
H_ H_ 0.0495599 0.337732 0.687688 0.10932
H_ H_ 0.297115 0.339763 0.692607 0.10932
H_ H_ 0.0524596 0.4321 0.81083 0.10932
H_ H_ 0.309275 0.440058 0.805924 0.10932
H_ H_ 0.216492 0.413358 0.819559 0.10932
H_ H_ 0.4747 0.41521 0.819043 0.10932
H_ H_ 0.177736 0.355198 0.68391 0.10932
H_ H_ 0.422797 0.37039 0.687603 0.10932
H_ H_ 0.187735 0.346737 0.816198 0.10932
H_ H_ 0.438292 0.360091 0.819983 0.10932
H_ H_ 0.210959 0.420845 0.686746 0.10932
H_ H_ 0.459523 0.428625 0.683255 0.10932
H_ H_ 0.229391 0.0961517 0.812423 0.10932
H_ H_ 0.478831 0.09249 0.818851 0.10932
H_ H_ 0.173753 0.130844 0.67971 0.10932
H_ H_ 0.42523 0.136315 0.687533 0.10932
H_ H_ 0.19894 0.158864 0.812836 0.10932
H_ H_ 0.443963 0.152908 0.819298 0.10932
H_ H_ 0.207513 0.0730032 0.685254 0.10932
H_ H_ 0.452388 0.0719021 0.688475 0.10932
H_ H_ 0.0409502 0.0770603 0.679187 0.10932
H_ H_ 0.294305 0.0741193 0.680123 0.10932
H_ H_ 0.0571833 0.148928 0.816873 0.10932
H_ H_ 0.311887 0.15241 0.815038 0.10932
H_ H_ 0.0735428 0.139846 0.684164 0.10932
H_ H_ 0.315232 0.146154 0.677961 0.10932
H_ H_ 0.0374217 0.0773526 0.817308 0.10932
H_ H_ 0.289958 0.0831214 0.815099 0.10932
H_ H_ 0.128376 0.311298 0.865916 0.10932
H_ H_ 0.373226 0.314001 0.866309 0.10932
H_ H_ 0.131307 0.184665 0.853267 0.10932
H_ H_ 0.378086 0.187013 0.854794 0.10932
H_ H_ 0.135687 0.172442 0.929472 0.10932
H_ H_ 0.374059 0.177428 0.930847 0.10932
H_ H_ 0.133393 0.306937 0.947208 0.10932
H_ H_ 0.376382 0.30923 0.945595 0.10932
H_ H_ 0.126169 0.181853 0.645045 0.10932
H_ H_ 0.373535 0.192181 0.639387 0.10932
H_ H_ 0.114526 0.312395 0.63313 0.10932
H_ H_ 0.380074 0.325541 0.645405 0.10932
H_ H_ 0.124495 0.311167 0.553011 0.10932
H_ H_ 0.390068 0.328642 0.57317 0.10932
H_ H_ 0.134359 0.178678 0.56904 0.10932
H_ H_ 0.382628 0.196486 0.564892 0.10932
C_ C_ 0.0668505 0.34428 0.750064 -0.02249
C_ C_ 0.317802 0.352104 0.753177 -0.02249
C_ C_ 0.0185453 0.46015 0.748644 -0.02249
C_ C_ 0.262738 0.461947 0.749534 -0.02249
C_ C_ 0.0331946 0.393423 0.71439 -0.11473
C_ C_ 0.27746 0.392611 0.720118 -0.11473
C_ C_ 0.0666506 0.372946 0.784118 -0.11473
C_ C_ 0.318196 0.377792 0.787563 -0.11473
C_ C_ 0.0473762 0.354607 0.717605 -0.11473
C_ C_ 0.297788 0.360728 0.718961 -0.11473
C_ C_ 0.0344981 0.419744 0.749203 -0.02249
C_ C_ 0.278688 0.420815 0.753741 -0.02249
C_ C_ 0.0841157 0.306917 0.750965 0.6875
C_ C_ 0.337856 0.312088 0.752393 0.6875
C_ C_ 0.0517558 0.410238 0.783578 -0.11473
C_ C_ 0.300492 0.41457 0.785002 -0.11473
C_ C_ 0.185775 0.344577 0.750272 -0.02249
C_ C_ 0.435306 0.352716 0.751259 -0.02249
C_ C_ 0.231442 0.461241 0.755196 -0.02249
C_ C_ 0.486377 0.465999 0.750324 -0.02249
C_ C_ 0.211277 0.399549 0.789467 -0.11473
C_ C_ 0.466922 0.403501 0.788992 -0.11473
C_ C_ 0.187472 0.368655 0.713785 -0.11473
C_ C_ 0.43624 0.378398 0.715375 -0.11473
C_ C_ 0.195169 0.361131 0.78862 -0.11473
C_ C_ 0.446713 0.369605 0.79 -0.11473
C_ C_ 0.215513 0.421105 0.752867 -0.02249
C_ C_ 0.47063 0.425579 0.750176 -0.02249
C_ C_ 0.164468 0.30869 0.746958 0.6875
C_ C_ 0.416754 0.313843 0.752806 0.6875
C_ C_ 0.203619 0.40546 0.714623 -0.11473
C_ C_ 0.455169 0.413492 0.714256 -0.11473
C_ C_ 0.183738 0.150496 0.74693 -0.02249
C_ C_ 0.433873 0.151931 0.751793 -0.02249
C_ C_ 0.237008 0.041527 0.750584 -0.02249
C_ C_ 0.486138 0.0364577 0.75035 -0.02249
C_ C_ 0.220636 0.105905 0.784721 -0.11473
C_ C_ 0.46787 0.102037 0.790159 -0.11473
C_ C_ 0.186225 0.12443 0.711045 -0.11473
C_ C_ 0.436982 0.127546 0.716739 -0.11473
C_ C_ 0.199917 0.139777 0.784034 -0.11473
C_ C_ 0.448608 0.137207 0.790503 -0.11473
C_ C_ 0.221232 0.0811222 0.748035 -0.02249
C_ C_ 0.46907 0.0763625 0.753294 -0.02249
C_ C_ 0.164914 0.187048 0.747336 0.6875
C_ C_ 0.418011 0.191987 0.752237 0.6875
C_ C_ 0.20342 0.0892795 0.713204 -0.11473
C_ C_ 0.452495 0.0891774 0.718162 -0.11473
C_ C_ 0.0682836 0.14928 0.751066 -0.02249
C_ C_ 0.31825 0.155811 0.746234 -0.02249
C_ C_ 0.0159915 0.0335878 0.746678 -0.02249
C_ C_ 0.268634 0.0368911 0.748812 -0.02249
C_ C_ 0.0446028 0.0928598 0.710946 -0.11473
C_ C_ 0.296279 0.094143 0.708846 -0.11473
C_ C_ 0.0532609 0.133559 0.786523 -0.11473
C_ C_ 0.306326 0.137923 0.784672 -0.11473
C_ C_ 0.0626391 0.129548 0.712434 -0.11473
C_ C_ 0.310368 0.134666 0.708111 -0.11473
C_ C_ 0.0337456 0.0743217 0.746929 -0.02249
C_ C_ 0.288987 0.07564 0.746459 -0.02249
C_ C_ 0.0859781 0.187785 0.750892 0.6875
C_ C_ 0.336515 0.193098 0.748136 0.6875
C_ C_ 0.0414028 0.0934708 0.785955 -0.11473
C_ C_ 0.294019 0.0980094 0.783641 -0.11473
C_ C_ 0.128933 0.282193 0.881624 0.17695
C_ C_ 0.373476 0.284488 0.882487 0.17695
C_ C_ 0.130301 0.210935 0.874426 0.17695
C_ C_ 0.377894 0.213579 0.87568 0.17695
C_ C_ 0.131097 0.204746 0.918324 -0.11473
C_ C_ 0.376027 0.208261 0.918006 -0.11473
C_ C_ 0.13702 0.240168 0.945158 0.23465
C_ C_ 0.378126 0.24242 0.944949 0.23465
C_ C_ 0.134641 0.279874 0.926036 -0.11473
C_ C_ 0.376959 0.280745 0.92602 -0.11473
C_ C_ 0.126139 0.210639 0.625373 0.17695
C_ C_ 0.377505 0.221901 0.624864 0.17695
C_ C_ 0.120461 0.283896 0.618748 0.17695
C_ C_ 0.382651 0.295489 0.63021 0.17695
C_ C_ 0.123728 0.282402 0.573433 -0.11473
C_ C_ 0.388742 0.297992 0.587262 -0.11473
C_ C_ 0.127614 0.242037 0.555256 0.23465
C_ C_ 0.386382 0.261587 0.561308 0.23465
C_ C_ 0.130114 0.208136 0.583025 -0.11473
C_ C_ 0.383374 0.223212 0.582034 -0.11473
C_ C_ 0.0341815 0.498729 0.74527 0.05793
C_ C_ 0.278531 0.499373 0.752218 0.05793
C_ C_ 0.221207 0.00401011 0.761744 0.05793
C_ C_ 0.469421 0.998514 0.752032 0.05793
Br Br 0.0769359 0.500743 0.740328 -0.17191
Br Br 0.319785 0.501828 0.740187 -0.17191
Br Br 0.182094 0.0117972 0.779861 -0.17191
Br Br 0.428125 0.999703 0.774766 -0.17191
N_ N_ 0.128469 0.247924 0.856368 -0.272
N_ N_ 0.377028 0.250191 0.857131 -0.272
N_ N_ 0.14139 0.236771 0.989763 -0.12501
N_ N_ 0.380659 0.239714 0.989568 -0.12501
N_ N_ 0.122838 0.248509 0.643866 -0.272
N_ N_ 0.376464 0.257673 0.647313 -0.272
N_ N_ 0.128935 0.234502 0.511449 -0.12501
N_ N_ 0.384463 0.265663 0.516394 -0.12501
O_ O_ 0.0918283 0.288877 0.71742 -0.60745
O_ O_ 0.348496 0.299631 0.718523 -0.60745
O_ O_ 0.0943138 0.292525 0.784409 -0.60745
O_ O_ 0.344128 0.293776 0.786141 -0.60745
O_ O_ 0.154917 0.295027 0.781187 -0.60745
O_ O_ 0.405233 0.302033 0.786635 -0.60745
O_ O_ 0.157386 0.291884 0.711993 -0.60745
O_ O_ 0.410579 0.294705 0.719847 -0.60745
O_ O_ 0.158538 0.203864 0.781505 -0.60745
O_ O_ 0.410399 0.20929 0.786595 -0.60745
O_ O_ 0.156549 0.205228 0.713019 -0.60745
O_ O_ 0.406576 0.205178 0.71853 -0.60745
O_ O_ 0.0965313 0.201963 0.717776 -0.60745
O_ O_ 0.343696 0.208676 0.713464 -0.60745
O_ O_ 0.0970211 0.200541 0.784358 -0.60745
O_ O_ 0.347158 0.207809 0.781285 -0.60745
Zn Zn 0.126637 0.751711 0.291621 0.9476
Zn Zn 0.370293 0.753781 0.283852 0.9476
Zn Zn 0.124626 0.752404 0.224178 0.9476
Zn Zn 0.369887 0.752215 0.214294 0.9476
H_ H_ 0.0326599 0.924526 0.199247 0.10932
H_ H_ 0.295559 0.930636 0.192008 0.10932
H_ H_ 0.0560439 0.839876 0.327287 0.10932
H_ H_ 0.293227 0.841052 0.320604 0.10932
H_ H_ 0.0623136 0.857836 0.193057 0.10932
H_ H_ 0.324661 0.868143 0.194054 0.10932
H_ H_ 0.028107 0.906149 0.332288 0.10932
H_ H_ 0.270319 0.909695 0.323145 0.10932
H_ H_ 0.208117 0.928765 0.313956 0.10932
H_ H_ 0.482429 0.898877 0.30756 0.10932
H_ H_ 0.195707 0.848472 0.187328 0.10932
H_ H_ 0.408807 0.876804 0.18999 0.10932
H_ H_ 0.179016 0.866358 0.318674 0.10932
H_ H_ 0.453259 0.834517 0.307676 0.10932
H_ H_ 0.220602 0.911588 0.18351 0.10932
H_ H_ 0.43806 0.939963 0.195476 0.10932
H_ H_ 0.21103 0.580238 0.321274 0.10932
H_ H_ 0.463479 0.585696 0.308522 0.10932
H_ H_ 0.19168 0.660333 0.187253 0.10932
H_ H_ 0.419165 0.637067 0.17325 0.10932
H_ H_ 0.184594 0.648163 0.320442 0.10932
H_ H_ 0.43126 0.646508 0.304597 0.10932
H_ H_ 0.210668 0.586347 0.184985 0.10932
H_ H_ 0.453958 0.572849 0.172403 0.10932
H_ H_ 0.0187979 0.603883 0.187737 0.10932
H_ H_ 0.270587 0.594824 0.178336 0.10932
H_ H_ 0.0862085 0.62366 0.313345 0.10932
H_ H_ 0.324267 0.633751 0.307445 0.10932
H_ H_ 0.0464121 0.671 0.203166 0.10932
H_ H_ 0.29391 0.663396 0.183245 0.10932
H_ H_ 0.0598852 0.56114 0.306387 0.10932
H_ H_ 0.293991 0.566892 0.306573 0.10932
H_ H_ 0.121293 0.818357 0.361583 0.10932
H_ H_ 0.372421 0.817497 0.354296 0.10932
H_ H_ 0.13344 0.68924 0.366147 0.10932
H_ H_ 0.364988 0.68523 0.359391 0.10932
H_ H_ 0.142213 0.693892 0.447552 0.10932
H_ H_ 0.358949 0.689163 0.437455 0.10932
H_ H_ 0.127727 0.827034 0.440402 0.10932
H_ H_ 0.377107 0.818777 0.431604 0.10932
H_ H_ 0.115389 0.687409 0.154382 0.10932
H_ H_ 0.373645 0.821267 0.143097 0.10932
H_ H_ 0.125537 0.817768 0.143604 0.10932
H_ H_ 0.357593 0.692195 0.134382 0.10932
H_ H_ 0.138882 0.811274 0.0688594 0.10932
H_ H_ 0.351148 0.700561 0.056795 0.10932
H_ H_ 0.119492 0.678896 0.0762589 0.10932
H_ H_ 0.378162 0.826453 0.0697109 0.10932
C_ C_ 0.0644967 0.846182 0.258468 -0.02249
C_ C_ 0.310948 0.849097 0.255814 -0.02249
C_ C_ 0.0146246 0.96072 0.270435 -0.02249
C_ C_ 0.263656 0.965178 0.25786 -0.02249
C_ C_ 0.0415664 0.907819 0.22667 -0.11473
C_ C_ 0.295773 0.91325 0.220059 -0.11473
C_ C_ 0.0507032 0.85851 0.297531 -0.11473
C_ C_ 0.296838 0.863445 0.294523 -0.11473
C_ C_ 0.0566926 0.869361 0.222992 -0.11473
C_ C_ 0.309424 0.874339 0.219015 -0.11473
C_ C_ 0.0304923 0.920116 0.265739 -0.02249
C_ C_ 0.280345 0.925786 0.256618 -0.02249
C_ C_ 0.0868468 0.813358 0.258968 0.6875
C_ C_ 0.329176 0.810863 0.255135 0.6875
C_ C_ 0.0352458 0.896053 0.301259 -0.11473
C_ C_ 0.281822 0.90072 0.29301 -0.11473
C_ C_ 0.18232 0.850974 0.252705 -0.02249
C_ C_ 0.428994 0.849741 0.247576 -0.02249
C_ C_ 0.232345 0.965834 0.24682 -0.02249
C_ C_ 0.47985 0.962582 0.253844 -0.02249
C_ C_ 0.204054 0.911972 0.285694 -0.11473
C_ C_ 0.466468 0.893297 0.281702 -0.11473
C_ C_ 0.196597 0.864785 0.215631 -0.11473
C_ C_ 0.425826 0.880054 0.215158 -0.11473
C_ C_ 0.187572 0.875979 0.288428 -0.11473
C_ C_ 0.450303 0.857468 0.281235 -0.11473
C_ C_ 0.213792 0.927715 0.247853 -0.02249
C_ C_ 0.461628 0.924925 0.252201 -0.02249
C_ C_ 0.16103 0.814099 0.254451 0.6875
C_ C_ 0.40989 0.812155 0.246456 0.6875
C_ C_ 0.213201 0.900586 0.212715 -0.11473
C_ C_ 0.44088 0.917721 0.219329 -0.11473
C_ C_ 0.187651 0.658539 0.253019 -0.02249
C_ C_ 0.423671 0.646848 0.2396 -0.02249
C_ C_ 0.231759 0.539669 0.250664 -0.02249
C_ C_ 0.480013 0.534942 0.244307 -0.02249
C_ C_ 0.208355 0.597273 0.290833 -0.11473
C_ C_ 0.454683 0.596564 0.277256 -0.11473
C_ C_ 0.196966 0.642293 0.215743 -0.11473
C_ C_ 0.429366 0.623673 0.201769 -0.11473
C_ C_ 0.193682 0.636519 0.291878 -0.11473
C_ C_ 0.432539 0.627789 0.277238 -0.11473
C_ C_ 0.215469 0.579488 0.252288 -0.02249
C_ C_ 0.4618 0.575396 0.240387 -0.02249
C_ C_ 0.164739 0.692712 0.255722 0.6875
C_ C_ 0.405324 0.686519 0.239772 0.6875
C_ C_ 0.209765 0.603264 0.214562 -0.11473
C_ C_ 0.448416 0.589138 0.202886 -0.11473
C_ C_ 0.0687796 0.65245 0.255899 -0.02249
C_ C_ 0.310089 0.656565 0.247386 -0.02249
C_ C_ 0.0160312 0.536575 0.243828 -0.02249
C_ C_ 0.262704 0.539984 0.240562 -0.02249
C_ C_ 0.0346311 0.60677 0.215512 -0.11473
C_ C_ 0.278425 0.606108 0.207958 -0.11473
C_ C_ 0.0705448 0.621539 0.286637 -0.11473
C_ C_ 0.310315 0.628472 0.281146 -0.11473
C_ C_ 0.0499398 0.644872 0.221877 -0.11473
C_ C_ 0.293262 0.644016 0.2125 -0.11473
C_ C_ 0.0351979 0.576077 0.24776 -0.02249
C_ C_ 0.279222 0.579559 0.242279 -0.02249
C_ C_ 0.0859838 0.692668 0.257939 0.6875
C_ C_ 0.331002 0.692811 0.246879 0.6875
C_ C_ 0.0549694 0.584757 0.282149 -0.11473
C_ C_ 0.294521 0.589467 0.279256 -0.11473
C_ C_ 0.128196 0.791664 0.382838 0.17695
C_ C_ 0.373734 0.786977 0.373073 0.17695
C_ C_ 0.133379 0.718843 0.384885 0.17695
C_ C_ 0.365982 0.715129 0.375567 0.17695
C_ C_ 0.140692 0.720699 0.42822 -0.11473
C_ C_ 0.366857 0.716195 0.420711 -0.11473
C_ C_ 0.135255 0.758941 0.449863 0.23465
C_ C_ 0.372931 0.752813 0.44123 0.23465
C_ C_ 0.129356 0.795547 0.426269 -0.11473
C_ C_ 0.372596 0.788424 0.416407 -0.11473
C_ C_ 0.118895 0.713776 0.135544 0.17695
C_ C_ 0.36965 0.793969 0.12424 0.17695
C_ C_ 0.125257 0.787122 0.1292 0.17695
C_ C_ 0.360645 0.722731 0.119242 0.17695
C_ C_ 0.129158 0.782823 0.0843508 -0.11473
C_ C_ 0.359111 0.726143 0.0751989 -0.11473
C_ C_ 0.12511 0.744685 0.0651397 0.23465
C_ C_ 0.363378 0.763149 0.0568607 0.23465
C_ C_ 0.122149 0.708884 0.0909245 -0.11473
C_ C_ 0.369874 0.797701 0.0812356 -0.11473
C_ C_ 0.032559 0.997464 0.274407 0.05793
C_ C_ 0.278879 1.00359313 0.264256 0.05793
C_ C_ 0.217616 0.501175 0.254829 0.05793
C_ C_ 0.46735 0.496807 0.253599 0.05793
Br Br 0.0757632 -0.007330999999999976 0.282565 -0.17191
Br Br 0.319836 1.00549009 0.283495 -0.17191
Br Br 0.177435 0.498599 0.278189 -0.17191
Br Br 0.425229 0.500899 0.263402 -0.17191
N_ N_ 0.129231 0.753886 0.363458 -0.272
N_ N_ 0.37219 0.749324 0.3529 -0.272
N_ N_ 0.138955 0.764096 0.494672 -0.12501
N_ N_ 0.368699 0.757205 0.486295 -0.12501
N_ N_ 0.124585 0.751952 0.154383 -0.272
N_ N_ 0.366674 0.755537 0.142547 -0.272
N_ N_ 0.120647 0.742298 0.0191209 -0.12501
N_ N_ 0.360601 0.769551 0.0120257 -0.12501
O_ O_ 0.0957533 0.799606 0.225117 -0.60745
O_ O_ 0.336809 0.795909 0.221446 -0.60745
O_ O_ 0.0907981 0.79139 0.291787 -0.60745
O_ O_ 0.340328 0.795713 0.288364 -0.60745
O_ O_ 0.154106 0.799565 0.288999 -0.60745
O_ O_ 0.402222 0.795342 0.281375 -0.60745
O_ O_ 0.155904 0.794313 0.221911 -0.60745
O_ O_ 0.3995 0.798185 0.211516 -0.60745
O_ O_ 0.162752 0.712823 0.290654 -0.60745
O_ O_ 0.400355 0.705734 0.274712 -0.60745
O_ O_ 0.151014 0.707379 0.222385 -0.60745
O_ O_ 0.397769 0.703551 0.20473 -0.60745
O_ O_ 0.0942707 0.710166 0.223796 -0.60745
O_ O_ 0.337365 0.710273 0.21261 -0.60745
O_ O_ 0.0976876 0.703661 0.291916 -0.60745
O_ O_ 0.338912 0.709472 0.280986 -0.60745
Zn Zn 0.129347 0.749285 0.791707 0.9476
Zn Zn 0.373243 0.750527 0.784944 0.9476
Zn Zn 0.128359 0.751702 0.724383 0.9476
Zn Zn 0.37118 0.750701 0.716652 0.9476
H_ H_ 0.0219708 0.897251 0.689947 0.10932
H_ H_ 0.269814 0.911707 0.692878 0.10932
H_ H_ 0.0769344 0.859862 0.822357 0.10932
H_ H_ 0.322216 0.856129 0.814528 0.10932
H_ H_ 0.0448049 0.828442 0.699675 0.10932
H_ H_ 0.300611 0.850354 0.685809 0.10932
H_ H_ 0.0463739 0.926804 0.816272 0.10932
H_ H_ 0.296149 0.917806 0.821398 0.10932
H_ H_ 0.224594 0.908601 0.825589 0.10932
H_ H_ 0.470273 0.909706 0.817648 0.10932
H_ H_ 0.180372 0.862247 0.690653 0.10932
H_ H_ 0.423812 0.866858 0.684448 0.10932
H_ H_ 0.192723 0.849738 0.827559 0.10932
H_ H_ 0.442644 0.848555 0.815274 0.10932
H_ H_ 0.209397 0.924211 0.695294 0.10932
H_ H_ 0.449427 0.927885 0.688069 0.10932
H_ H_ 0.219176 0.58707 0.822224 0.10932
H_ H_ 0.459089 0.575407 0.812324 0.10932
H_ H_ 0.174867 0.639475 0.690761 0.10932
H_ H_ 0.445674 0.661542 0.686569 0.10932
H_ H_ 0.19466 0.653042 0.823853 0.10932
H_ H_ 0.429333 0.637993 0.815928 0.10932
H_ H_ 0.203225 0.575976 0.690065 0.10932
H_ H_ 0.471533 0.594522 0.68085 0.10932
H_ H_ 0.0289607 0.592046 0.689757 0.10932
H_ H_ 0.274899 0.587568 0.689772 0.10932
H_ H_ 0.0684574 0.640378 0.826968 0.10932
H_ H_ 0.31985 0.64369 0.8208 0.10932
H_ H_ 0.0606625 0.654612 0.691135 0.10932
H_ H_ 0.309293 0.646286 0.685325 0.10932
H_ H_ 0.0481566 0.573546 0.821458 0.10932
H_ H_ 0.283198 0.583427 0.821349 0.10932
H_ H_ 0.132244 0.823362 0.865278 0.10932
H_ H_ 0.371423 0.821749 0.858001 0.10932
H_ H_ 0.131646 0.690418 0.872595 0.10932
H_ H_ 0.37294 0.690993 0.853614 0.10932
H_ H_ 0.126319 0.696438 0.94866 0.10932
H_ H_ 0.379175 0.686311 0.930983 0.10932
H_ H_ 0.136 0.828177 0.93893 0.10932
H_ H_ 0.375232 0.818336 0.940057 0.10932
H_ H_ 0.126173 0.683665 0.65571 0.10932
H_ H_ 0.365372 0.813381 0.63645 0.10932
H_ H_ 0.138959 0.811096 0.643092 0.10932
H_ H_ 0.373031 0.685236 0.649608 0.10932
H_ H_ 0.138246 0.805693 0.565594 0.10932
H_ H_ 0.381657 0.674011 0.573771 0.10932
H_ H_ 0.124709 0.676018 0.578848 0.10932
H_ H_ 0.379622 0.807104 0.559381 0.10932
C_ C_ 0.0649149 0.843173 0.758219 -0.02249
C_ C_ 0.315017 0.848086 0.749722 -0.02249
C_ C_ 0.0154365 0.957704 0.746728 -0.02249
C_ C_ 0.265077 0.961755 0.757265 -0.02249
C_ C_ 0.0297078 0.887236 0.720272 -0.11473
C_ C_ 0.284116 0.901255 0.717862 -0.11473
C_ C_ 0.0639844 0.869416 0.793294 -0.11473
C_ C_ 0.311325 0.866622 0.787708 -0.11473
C_ C_ 0.0468385 0.851036 0.722748 -0.11473
C_ C_ 0.300318 0.865525 0.714928 -0.11473
C_ C_ 0.031207 0.917169 0.751672 -0.02249
C_ C_ 0.279957 0.920954 0.756352 -0.02249
C_ C_ 0.0858164 0.806159 0.758111 0.6875
C_ C_ 0.331843 0.808847 0.748615 0.6875
C_ C_ 0.0484436 0.907287 0.788926 -0.11473
C_ C_ 0.29484 0.903917 0.792378 -0.11473
C_ C_ 0.185059 0.850099 0.75954 -0.02249
C_ C_ 0.432407 0.847617 0.750348 -0.02249
C_ C_ 0.234813 0.964126 0.761327 -0.02249
C_ C_ 0.484661 0.96158 0.75506 -0.02249
C_ C_ 0.211291 0.901718 0.798444 -0.11473
C_ C_ 0.466201 0.89696 0.786633 -0.11473
C_ C_ 0.189627 0.871497 0.721655 -0.11473
C_ C_ 0.436549 0.871531 0.712845 -0.11473
C_ C_ 0.196321 0.86514 0.79755 -0.11473
C_ C_ 0.448769 0.860017 0.786918 -0.11473
C_ C_ 0.216113 0.925639 0.761285 -0.02249
C_ C_ 0.467081 0.921214 0.751546 -0.02249
C_ C_ 0.166638 0.810581 0.758264 0.6875
C_ C_ 0.411783 0.811018 0.750386 0.6875
C_ C_ 0.205024 0.909847 0.724431 -0.11473
C_ C_ 0.452547 0.907776 0.714842 -0.11473
C_ C_ 0.183269 0.653614 0.755355 -0.02249
C_ C_ 0.428883 0.650717 0.750547 -0.02249
C_ C_ 0.231865 0.536948 0.757462 -0.02249
C_ C_ 0.48449 0.540798 0.744442 -0.02249
C_ C_ 0.210734 0.599881 0.793471 -0.11473
C_ C_ 0.453603 0.592357 0.784028 -0.11473
C_ C_ 0.185795 0.63072 0.718732 -0.11473
C_ C_ 0.445222 0.641583 0.712651 -0.11473
C_ C_ 0.195874 0.63735 0.792991 -0.11473
C_ C_ 0.436187 0.627937 0.786842 -0.11473
C_ C_ 0.214466 0.577108 0.756319 -0.02249
C_ C_ 0.465842 0.578497 0.745686 -0.02249
C_ C_ 0.165071 0.691922 0.758809 0.6875
C_ C_ 0.411141 0.689261 0.753649 0.6875
C_ C_ 0.204316 0.595529 0.71636 -0.11473
C_ C_ 0.463147 0.60533 0.712324 -0.11473
C_ C_ 0.0718234 0.649153 0.757223 -0.02249
C_ C_ 0.314482 0.649619 0.753497 -0.02249
C_ C_ 0.0191955 0.536787 0.748516 -0.02249
C_ C_ 0.262822 0.538191 0.752884 -0.02249
C_ C_ 0.0425021 0.597724 0.717474 -0.11473
C_ C_ 0.288373 0.595634 0.715991 -0.11473
C_ C_ 0.0644955 0.629473 0.794063 -0.11473
C_ C_ 0.309257 0.629615 0.792667 -0.11473
C_ C_ 0.0603691 0.634092 0.718551 -0.11473
C_ C_ 0.307006 0.630332 0.715123 -0.11473
C_ C_ 0.0368492 0.575082 0.754255 -0.02249
C_ C_ 0.280842 0.577335 0.752825 -0.02249
C_ C_ 0.0919655 0.686029 0.757316 0.6875
C_ C_ 0.331226 0.68932 0.750966 0.6875
C_ C_ 0.0480137 0.590749 0.792724 -0.11473
C_ C_ 0.2917 0.593419 0.792638 -0.11473
C_ C_ 0.134363 0.79371 0.882326 0.17695
C_ C_ 0.373142 0.791737 0.875146 0.17695
C_ C_ 0.133132 0.721907 0.888155 0.17695
C_ C_ 0.376443 0.718638 0.8714 0.17695
C_ C_ 0.130428 0.725246 0.931458 -0.11473
C_ C_ 0.377635 0.716303 0.916811 -0.11473
C_ C_ 0.129372 0.76241 0.951433 0.23465
C_ C_ 0.372867 0.752154 0.940633 0.23465
C_ C_ 0.132887 0.796537 0.926104 -0.11473
C_ C_ 0.373309 0.79057 0.92091 -0.11473
C_ C_ 0.126397 0.711492 0.63561 0.17695
C_ C_ 0.370691 0.784035 0.62204 0.17695
C_ C_ 0.13498 0.781178 0.628789 0.17695
C_ C_ 0.376379 0.710366 0.629074 0.17695
C_ C_ 0.136108 0.778205 0.584626 -0.11473
C_ C_ 0.378972 0.704644 0.585992 -0.11473
C_ C_ 0.133529 0.740586 0.564649 0.23465
C_ C_ 0.37776 0.739826 0.55853 0.23465
C_ C_ 0.129168 0.705754 0.591591 -0.11473
C_ C_ 0.374317 0.780267 0.5786 -0.11473
C_ C_ 0.0318046 -0.0038449999999999873 0.741986 0.05793
C_ C_ 0.283049 -0.00269823 0.749035 0.05793
C_ C_ 0.216754 0.499243 0.760668 0.05793
C_ C_ 0.469742 0.501996 0.749915 0.05793
Br Br 0.0757187 -0.0044199999999999795 0.736543 -0.17191
Br Br 0.327293 -0.008225000000000038 0.746237 -0.17191
Br Br 0.174558 0.497036 0.780979 -0.17191
Br Br 0.42509 0.498509 0.75017 -0.17191
N_ N_ 0.133153 0.755669 0.864076 -0.272
N_ N_ 0.375283 0.756351 0.852356 -0.272
N_ N_ 0.133797 0.766251 0.994826 -0.12501
N_ N_ 0.374396 0.747287 0.985175 -0.12501
N_ N_ 0.128732 0.748064 0.65265 -0.272
N_ N_ 0.374001 0.74894 0.645502 -0.272
N_ N_ 0.134586 0.735206 0.519648 -0.12501
N_ N_ 0.383311 0.736125 0.513101 -0.12501
O_ O_ 0.0968743 0.794889 0.722915 -0.60745
O_ O_ 0.340337 0.796862 0.713258 -0.60745
O_ O_ 0.0958613 0.790987 0.793246 -0.60745
O_ O_ 0.344029 0.795225 0.779852 -0.60745
O_ O_ 0.154865 0.797757 0.790223 -0.60745
O_ O_ 0.407488 0.792148 0.78331 -0.60745
O_ O_ 0.157486 0.795804 0.723271 -0.60745
O_ O_ 0.403699 0.794696 0.716776 -0.60745
O_ O_ 0.163097 0.709947 0.794366 -0.60745
O_ O_ 0.40094 0.700122 0.788724 -0.60745
O_ O_ 0.156605 0.707638 0.72492 -0.60745
O_ O_ 0.399188 0.704026 0.721762 -0.60745
O_ O_ 0.0990362 0.702742 0.723089 -0.60745
O_ O_ 0.340397 0.703699 0.716224 -0.60745
O_ O_ 0.101605 0.70033 0.792057 -0.60745
O_ O_ 0.338495 0.706061 0.785204 -0.60745
Zn Zn 0.622568 0.249459 0.275074 0.9476
Zn Zn 0.878317 0.251799 0.280507 0.9476
Zn Zn 0.621764 0.245849 0.207908 0.9476
Zn Zn 0.876987 0.249201 0.209692 0.9476
H_ H_ 0.5326 0.41506 0.178238 0.10932
H_ H_ 0.784491 0.421163 0.182501 0.10932
H_ H_ 0.572819 0.35751 0.311798 0.10932
H_ H_ 0.819627 0.351174 0.312297 0.10932
H_ H_ 0.56582 0.359866 0.177102 0.10932
H_ H_ 0.819071 0.36095 0.177677 0.10932
H_ H_ 0.545864 0.422421 0.315774 0.10932
H_ H_ 0.782387 0.400631 0.317851 0.10932
H_ H_ 0.703367 0.422386 0.308878 0.10932
H_ H_ 0.978258 0.410029 0.311291 0.10932
H_ H_ 0.69532 0.339841 0.178595 0.10932
H_ H_ 0.918044 0.363512 0.184209 0.10932
H_ H_ 0.67623 0.360105 0.310903 0.10932
H_ H_ 0.94937 0.346303 0.311613 0.10932
H_ H_ 0.711905 0.417138 0.17851 0.10932
H_ H_ 0.949139 0.424485 0.181534 0.10932
H_ H_ 0.706984 0.0764312 0.30634 0.10932
H_ H_ 0.976892 0.0968086 0.32447 0.10932
H_ H_ 0.693526 0.151046 0.172041 0.10932
H_ H_ 0.938084 0.139933 0.18232 0.10932
H_ H_ 0.672243 0.135016 0.305317 0.10932
H_ H_ 0.941827 0.1574 0.316592 0.10932
H_ H_ 0.726258 0.0932135 0.178775 0.10932
H_ H_ 0.970018 0.0806189 0.187395 0.10932
H_ H_ 0.533665 0.0737729 0.183668 0.10932
H_ H_ 0.791482 0.0766125 0.175113 0.10932
H_ H_ 0.555834 0.154326 0.315166 0.10932
H_ H_ 0.810855 0.149284 0.309574 0.10932
H_ H_ 0.563733 0.135857 0.181377 0.10932
H_ H_ 0.827806 0.13701 0.176905 0.10932
H_ H_ 0.537566 0.0828142 0.319147 0.10932
H_ H_ 0.78289 0.0890764 0.310391 0.10932
H_ H_ 0.581707 0.239926 0.351175 0.10932
H_ H_ 0.894859 0.191415 0.361598 0.10932
H_ H_ 0.675594 0.245075 0.351831 0.10932
H_ H_ 0.860887 0.315199 0.345987 0.10932
H_ H_ 0.677232 0.247999 0.428433 0.10932
H_ H_ 0.851033 0.316384 0.424427 0.10932
H_ H_ 0.581787 0.252976 0.43008 0.10932
H_ H_ 0.88713 0.19441 0.437513 0.10932
H_ H_ 0.622109 0.188071 0.13127 0.10932
H_ H_ 0.838948 0.278471 0.1275 0.10932
H_ H_ 0.617574 0.319446 0.140526 0.10932
H_ H_ 0.924089 0.216455 0.136484 0.10932
H_ H_ 0.624674 0.32434 0.0632279 0.10932
H_ H_ 0.922722 0.204298 0.0634242 0.10932
H_ H_ 0.630917 0.191708 0.0561003 0.10932
H_ H_ 0.8409 0.273419 0.0508427 0.10932
C_ C_ 0.566825 0.347346 0.245766 -0.02249
C_ C_ 0.818052 0.347479 0.244434 -0.02249
C_ C_ 0.516061 0.461659 0.246444 -0.02249
C_ C_ 0.762688 0.459915 0.256271 -0.02249
C_ C_ 0.540643 0.402335 0.207925 -0.11473
C_ C_ 0.790527 0.405172 0.210746 -0.11473
C_ C_ 0.563059 0.368935 0.283026 -0.11473
C_ C_ 0.808894 0.363515 0.283564 -0.11473
C_ C_ 0.559428 0.369154 0.206854 -0.11473
C_ C_ 0.810935 0.370663 0.20745 -0.11473
C_ C_ 0.536034 0.423043 0.24601 -0.02249
C_ C_ 0.779823 0.419604 0.251326 -0.02249
C_ C_ 0.58564 0.310027 0.244783 0.6875
C_ C_ 0.839561 0.311132 0.241904 0.6875
C_ C_ 0.546422 0.405427 0.283876 -0.11473
C_ C_ 0.790062 0.396387 0.285519 -0.11473
C_ C_ 0.682054 0.344033 0.245288 -0.02249
C_ C_ 0.934186 0.347765 0.248194 -0.02249
C_ C_ 0.730933 0.459631 0.248479 -0.02249
C_ C_ 0.983826 0.460246 0.241523 -0.02249
C_ C_ 0.702149 0.404206 0.281307 -0.11473
C_ C_ 0.965643 0.399777 0.282511 -0.11473
C_ C_ 0.693791 0.360072 0.206958 -0.11473
C_ C_ 0.932924 0.371703 0.210967 -0.11473
C_ C_ 0.685276 0.368685 0.281489 -0.11473
C_ C_ 0.94872 0.363535 0.28355 -0.11473
C_ C_ 0.714279 0.419225 0.245289 -0.02249
C_ C_ 0.966201 0.422484 0.244902 -0.02249
C_ C_ 0.663705 0.304897 0.247157 0.6875
C_ C_ 0.917078 0.308006 0.24816 0.6875
C_ C_ 0.708431 0.399053 0.207255 -0.11473
C_ C_ 0.95166 0.406834 0.208899 -0.11473
C_ C_ 0.679089 0.150627 0.238401 -0.02249
C_ C_ 0.941326 0.1576 0.248707 -0.02249
C_ C_ 0.733807 0.0405736 0.243134 -0.02249
C_ C_ 0.987243 0.0404696 0.259719 -0.02249
C_ C_ 0.704151 0.0957294 0.278742 -0.11473
C_ C_ 0.968219 0.105537 0.292043 -0.11473
C_ C_ 0.691689 0.134529 0.202714 -0.11473
C_ C_ 0.949081 0.133971 0.212103 -0.11473
C_ C_ 0.685479 0.131122 0.277398 -0.11473
C_ C_ 0.949609 0.140967 0.288165 -0.11473
C_ C_ 0.716 0.0802007 0.242243 -0.02249
C_ C_ 0.97351 0.0821962 0.25623 -0.02249
C_ C_ 0.66198 0.190814 0.238172 0.6875
C_ C_ 0.919675 0.19208 0.248189 0.6875
C_ C_ 0.714508 0.10451 0.20581 -0.11473
C_ C_ 0.964357 0.0973627 0.215146 -0.11473
C_ C_ 0.560869 0.153986 0.245074 -0.02249
C_ C_ 0.816583 0.15289 0.242042 -0.02249
C_ C_ 0.513819 0.0364836 0.251655 -0.02249
C_ C_ 0.765631 0.0395365 0.244772 -0.02249
C_ C_ 0.537501 0.0929068 0.211074 -0.11473
C_ C_ 0.797151 0.0912596 0.205981 -0.11473
C_ C_ 0.554173 0.137103 0.285806 -0.11473
C_ C_ 0.805797 0.136214 0.278982 -0.11473
C_ C_ 0.550895 0.132158 0.208233 -0.11473
C_ C_ 0.812882 0.129816 0.20449 -0.11473
C_ C_ 0.529255 0.0772649 0.249976 -0.02249
C_ C_ 0.78188 0.0795073 0.242334 -0.02249
C_ C_ 0.582361 0.188999 0.242723 0.6875
C_ C_ 0.835845 0.191618 0.24427 0.6875
C_ C_ 0.540731 0.0966948 0.287378 -0.11473
C_ C_ 0.789819 0.0999315 0.280242 -0.11473
C_ C_ 0.601804 0.244103 0.369351 0.17695
C_ C_ 0.885136 0.218798 0.376115 0.17695
C_ C_ 0.655217 0.243363 0.367098 0.17695
C_ C_ 0.866449 0.287069 0.36611 0.17695
C_ C_ 0.656175 0.243507 0.411893 -0.11473
C_ C_ 0.860603 0.288532 0.410513 -0.11473
C_ C_ 0.631144 0.248086 0.435231 0.23465
C_ C_ 0.869043 0.256289 0.436864 0.23465
C_ C_ 0.602345 0.247714 0.4125 -0.11473
C_ C_ 0.882157 0.221448 0.418867 -0.11473
C_ C_ 0.620833 0.216934 0.116244 0.17695
C_ C_ 0.858465 0.263326 0.112474 0.17695
C_ C_ 0.62114 0.290047 0.121123 0.17695
C_ C_ 0.902401 0.225346 0.120271 0.17695
C_ C_ 0.62414 0.293434 0.0774423 -0.11473
C_ C_ 0.902222 0.216039 0.0772082 -0.11473
C_ C_ 0.628333 0.258068 0.0528642 0.23465
C_ C_ 0.879823 0.23415 0.0512909 0.23465
C_ C_ 0.62568 0.220319 0.0732621 -0.11473
C_ C_ 0.858788 0.258819 0.0692654 -0.11473
C_ C_ 0.529053 0.500514 0.241749 0.05793
C_ C_ 0.778491 0.497259 0.256547 0.05793
C_ C_ 0.717499 1.00245362 0.245223 0.05793
C_ C_ 0.970089 1.00449762 0.255899 0.05793
Br Br 0.571828 0.504647 0.242678 -0.17191
Br Br 0.820872 0.493019 0.266545 -0.17191
Br Br 0.674265 0.00434694 0.249825 -0.17191
Br Br 0.930315 0.0121939 0.23242 -0.17191
N_ N_ 0.628545 0.244068 0.346727 -0.272
N_ N_ 0.876914 0.251362 0.350351 -0.272
N_ N_ 0.632677 0.253733 0.481955 -0.12501
N_ N_ 0.863579 0.259705 0.481436 -0.12501
N_ N_ 0.620653 0.252415 0.14021 -0.272
N_ N_ 0.87857 0.244619 0.13809 -0.272
N_ N_ 0.63419 0.264011 0.00961706 -0.12501
N_ N_ 0.883349 0.230933 0.00631063 -0.12501
O_ O_ 0.590954 0.291702 0.210458 -0.60745
O_ O_ 0.848537 0.29559 0.207149 -0.60745
O_ O_ 0.599111 0.297548 0.277378 -0.60745
O_ O_ 0.846523 0.292922 0.276051 -0.60745
O_ O_ 0.655516 0.290426 0.282461 -0.60745
O_ O_ 0.905975 0.295608 0.282597 -0.60745
O_ O_ 0.652302 0.29007 0.212189 -0.60745
O_ O_ 0.907196 0.293871 0.213846 -0.60745
O_ O_ 0.648215 0.200055 0.270614 -0.60745
O_ O_ 0.910743 0.20958 0.281462 -0.60745
O_ O_ 0.65365 0.202599 0.202291 -0.60745
O_ O_ 0.90902 0.205362 0.214131 -0.60745
O_ O_ 0.590831 0.200838 0.206834 -0.60745
O_ O_ 0.84408 0.206757 0.21072 -0.60745
O_ O_ 0.588344 0.209398 0.275634 -0.60745
O_ O_ 0.846553 0.203325 0.278975 -0.60745
Zn Zn 0.623823 0.248465 0.78157 0.9476
Zn Zn 0.880501 0.250173 0.780196 0.9476
Zn Zn 0.624612 0.244429 0.709792 0.9476
Zn Zn 0.875417 0.250446 0.709838 0.9476
H_ H_ 0.521943 0.408952 0.687236 0.10932
H_ H_ 0.768327 0.397087 0.676896 0.10932
H_ H_ 0.58084 0.364145 0.81182 0.10932
H_ H_ 0.840136 0.376629 0.796563 0.10932
H_ H_ 0.553432 0.347197 0.682651 0.10932
H_ H_ 0.799864 0.336361 0.678065 0.10932
H_ H_ 0.55665 0.429958 0.812324 0.10932
H_ H_ 0.799448 0.427714 0.800618 0.10932
H_ H_ 0.729305 0.397285 0.8102 0.10932
H_ H_ 0.968674 0.415302 0.817761 0.10932
H_ H_ 0.660577 0.369936 0.690156 0.10932
H_ H_ 0.926133 0.365992 0.683489 0.10932
H_ H_ 0.706153 0.33054 0.802476 0.10932
H_ H_ 0.939098 0.348744 0.816483 0.10932
H_ H_ 0.694552 0.429656 0.686502 0.10932
H_ H_ 0.968663 0.417549 0.684677 0.10932
H_ H_ 0.718233 0.0834388 0.819765 0.10932
H_ H_ 0.972802 0.0835974 0.81717 0.10932
H_ H_ 0.698302 0.159206 0.682366 0.10932
H_ H_ 0.926184 0.135591 0.682543 0.10932
H_ H_ 0.68781 0.146665 0.813977 0.10932
H_ H_ 0.949053 0.152738 0.812898 0.10932
H_ H_ 0.72526 0.0942042 0.682809 0.10932
H_ H_ 0.958923 0.0761113 0.684586 0.10932
H_ H_ 0.510153 0.103515 0.68902 0.10932
H_ H_ 0.794571 0.0781426 0.680927 0.10932
H_ H_ 0.586304 0.128394 0.801712 0.10932
H_ H_ 0.81664 0.152484 0.816836 0.10932
H_ H_ 0.545472 0.161677 0.684594 0.10932
H_ H_ 0.815227 0.148839 0.681794 0.10932
H_ H_ 0.554401 0.0610902 0.802282 0.10932
H_ H_ 0.794625 0.0825724 0.816895 0.10932
H_ H_ 0.622298 0.313432 0.859231 0.10932
H_ H_ 0.916235 0.214666 0.860727 0.10932
H_ H_ 0.628467 0.185044 0.850553 0.10932
H_ H_ 0.837843 0.290443 0.850818 0.10932
H_ H_ 0.635145 0.176784 0.926665 0.10932
H_ H_ 0.832602 0.288709 0.924997 0.10932
H_ H_ 0.629873 0.30957 0.936927 0.10932
H_ H_ 0.911114 0.211455 0.937517 0.10932
H_ H_ 0.618269 0.308305 0.630497 0.10932
H_ H_ 0.847899 0.304913 0.626688 0.10932
H_ H_ 0.617755 0.178382 0.6391 0.10932
H_ H_ 0.903975 0.199246 0.64033 0.10932
H_ H_ 0.611808 0.170352 0.559918 0.10932
H_ H_ 0.906576 0.194578 0.566591 0.10932
H_ H_ 0.623667 0.302484 0.552359 0.10932
H_ H_ 0.845964 0.297048 0.551087 0.10932
C_ C_ 0.567259 0.348092 0.747728 -0.02249
C_ C_ 0.81917 0.346951 0.741605 -0.02249
C_ C_ 0.519115 0.46508 0.751801 -0.02249
C_ C_ 0.765291 0.455966 0.739608 -0.02249
C_ C_ 0.536959 0.400973 0.713576 -0.11473
C_ C_ 0.782313 0.392988 0.703839 -0.11473
C_ C_ 0.567377 0.37155 0.785075 -0.11473
C_ C_ 0.822834 0.378725 0.772515 -0.11473
C_ C_ 0.553104 0.363374 0.710688 -0.11473
C_ C_ 0.799325 0.35473 0.706064 -0.11473
C_ C_ 0.537408 0.424379 0.751321 -0.02249
C_ C_ 0.783268 0.418536 0.73872 -0.02249
C_ C_ 0.586941 0.309927 0.74841 0.6875
C_ C_ 0.839512 0.31083 0.74119 0.6875
C_ C_ 0.553841 0.410664 0.785062 -0.11473
C_ C_ 0.803155 0.4113 0.772306 -0.11473
C_ C_ 0.683213 0.343145 0.743468 -0.02249
C_ C_ 0.934638 0.349113 0.749156 -0.02249
C_ C_ 0.733915 0.4566 0.745742 -0.02249
C_ C_ 0.98518 0.461851 0.751991 -0.02249
C_ C_ 0.717096 0.390151 0.780655 -0.11473
C_ C_ 0.959729 0.401837 0.789731 -0.11473
C_ C_ 0.678423 0.374646 0.71213 -0.11473
C_ C_ 0.939187 0.371874 0.712411 -0.11473
C_ C_ 0.705031 0.350127 0.776521 -0.11473
C_ C_ 0.945156 0.363638 0.786425 -0.11473
C_ C_ 0.716057 0.416299 0.745753 -0.02249
C_ C_ 0.969231 0.420194 0.751819 -0.02249
C_ C_ 0.664359 0.305336 0.744976 0.6875
C_ C_ 0.914618 0.311314 0.748303 0.6875
C_ C_ 0.696497 0.407808 0.711699 -0.11473
C_ C_ 0.96078 0.404102 0.713971 -0.11473
C_ C_ 0.68744 0.153525 0.746945 -0.02249
C_ C_ 0.934025 0.14855 0.750114 -0.02249
C_ C_ 0.737984 0.0407067 0.747951 -0.02249
C_ C_ 0.983771 0.0352003 0.748882 -0.02249
C_ C_ 0.713037 0.0978 0.788517 -0.11473
C_ C_ 0.963408 0.0979667 0.787712 -0.11473
C_ C_ 0.701779 0.142026 0.711371 -0.11473
C_ C_ 0.937725 0.12617 0.712408 -0.11473
C_ C_ 0.696244 0.134713 0.78611 -0.11473
C_ C_ 0.947641 0.132926 0.787179 -0.11473
C_ C_ 0.722518 0.0810536 0.750234 -0.02249
C_ C_ 0.968594 0.0764669 0.750037 -0.02249
C_ C_ 0.664348 0.187204 0.745586 0.6875
C_ C_ 0.91754 0.188724 0.750403 0.6875
C_ C_ 0.718005 0.105394 0.713352 -0.11473
C_ C_ 0.954151 0.0886726 0.713074 -0.11473
C_ C_ 0.567577 0.149357 0.744836 -0.02249
C_ C_ 0.820763 0.153624 0.747317 -0.02249
C_ C_ 0.517007 0.0347742 0.742762 -0.02249
C_ C_ 0.770921 0.0376875 0.745825 -0.02249
C_ C_ 0.530891 0.104544 0.709215 -0.11473
C_ C_ 0.797509 0.0958889 0.710734 -0.11473
C_ C_ 0.570061 0.120727 0.776497 -0.11473
C_ C_ 0.811345 0.136764 0.787303 -0.11473
C_ C_ 0.549926 0.139052 0.708192 -0.11473
C_ C_ 0.810466 0.134495 0.710176 -0.11473
C_ C_ 0.533285 0.0755649 0.742216 -0.02249
C_ C_ 0.789829 0.0761665 0.74776 -0.02249
C_ C_ 0.586065 0.187982 0.746541 0.6875
C_ C_ 0.840493 0.191111 0.746131 0.6875
C_ C_ 0.554175 0.0822308 0.775226 -0.11473
C_ C_ 0.798444 0.0965045 0.787416 -0.11473
C_ C_ 0.625489 0.284654 0.875938 0.17695
C_ C_ 0.895288 0.226908 0.874209 0.17695
C_ C_ 0.629914 0.212099 0.870551 0.17695
C_ C_ 0.851392 0.268897 0.867192 0.17695
C_ C_ 0.634084 0.206758 0.914093 -0.11473
C_ C_ 0.848711 0.269143 0.910426 -0.11473
C_ C_ 0.632227 0.242115 0.938885 0.23465
C_ C_ 0.868398 0.245911 0.935732 0.23465
C_ C_ 0.629673 0.281314 0.919874 -0.11473
C_ C_ 0.892734 0.224946 0.917619 -0.11473
C_ C_ 0.618142 0.278497 0.614496 0.17695
C_ C_ 0.856188 0.277066 0.615497 0.17695
C_ C_ 0.617434 0.204677 0.619207 0.17695
C_ C_ 0.892251 0.222803 0.621791 0.17695
C_ C_ 0.612627 0.201772 0.574756 -0.11473
C_ C_ 0.893871 0.219579 0.579164 -0.11473
C_ C_ 0.616425 0.237557 0.550274 0.23465
C_ C_ 0.875347 0.244525 0.552995 0.23465
C_ C_ 0.62191 0.275121 0.570967 -0.11473
C_ C_ 0.857413 0.274397 0.572041 -0.11473
C_ C_ 0.534268 0.504891 0.748382 0.05793
C_ C_ 0.780963 0.492826 0.736019 0.05793
C_ C_ 0.720765 0.00516751 0.743236 0.05793
C_ C_ 0.968019 -0.0022529999999999495 0.756478 0.05793
Br Br 0.578758 0.504842 0.749422 -0.17191
Br Br 0.816771 0.493393 0.705219 -0.17191
Br Br 0.677285 0.00883307 0.74231 -0.17191
Br Br 0.925381 0.000140000000000029 0.775537 -0.17191
N_ N_ 0.626942 0.249956 0.852676 -0.272
N_ N_ 0.876138 0.250734 0.849647 -0.272
N_ N_ 0.62657 0.237899 0.982986 -0.12501
N_ N_ 0.86336 0.245722 0.980369 -0.12501
N_ N_ 0.618969 0.242776 0.637849 -0.272
N_ N_ 0.875777 0.254247 0.640882 -0.272
N_ N_ 0.61545 0.233383 0.505577 -0.12501
N_ N_ 0.875168 0.235034 0.508079 -0.12501
O_ O_ 0.595363 0.294328 0.71432 -0.60745
O_ O_ 0.841655 0.287527 0.709082 -0.60745
O_ O_ 0.594685 0.293632 0.784183 -0.60745
O_ O_ 0.852722 0.299914 0.774898 -0.60745
O_ O_ 0.653708 0.292488 0.7793 -0.60745
O_ O_ 0.910969 0.291783 0.781406 -0.60745
O_ O_ 0.656446 0.28742 0.710669 -0.60745
O_ O_ 0.903042 0.29774 0.715049 -0.60745
O_ O_ 0.655947 0.201381 0.779667 -0.60745
O_ O_ 0.909304 0.204735 0.7836 -0.60745
O_ O_ 0.651646 0.196644 0.71031 -0.60745
O_ O_ 0.908337 0.204561 0.715059 -0.60745
O_ O_ 0.59211 0.206165 0.712951 -0.60745
O_ O_ 0.849842 0.204943 0.710565 -0.60745
O_ O_ 0.593577 0.20471 0.781768 -0.60745
O_ O_ 0.846743 0.209534 0.779455 -0.60745
Zn Zn 0.62128 0.748045 0.285859 0.9476
Zn Zn 0.874558 0.749536 0.287828 0.9476
Zn Zn 0.623122 0.750332 0.214178 0.9476
Zn Zn 0.873575 0.749544 0.215972 0.9476
H_ H_ 0.538352 0.922867 0.185718 0.10932
H_ H_ 0.764725 0.897559 0.18993 0.10932
H_ H_ 0.561534 0.847068 0.316205 0.10932
H_ H_ 0.833421 0.873442 0.311543 0.10932
H_ H_ 0.5663 0.8533 0.184601 0.10932
H_ H_ 0.795991 0.838555 0.191723 0.10932
H_ H_ 0.530162 0.913209 0.318792 0.10932
H_ H_ 0.800194 0.938467 0.307996 0.10932
H_ H_ 0.719535 0.913553 0.313259 0.10932
H_ H_ 0.959172 0.92049 0.322963 0.10932
H_ H_ 0.680244 0.854043 0.178639 0.10932
H_ H_ 0.944605 0.848395 0.18693 0.10932
H_ H_ 0.677457 0.86456 0.315007 0.10932
H_ H_ 0.931039 0.855846 0.32122 0.10932
H_ H_ 0.709781 0.924272 0.180001 0.10932
H_ H_ 0.969708 0.911577 0.189783 0.10932
H_ H_ 0.718769 0.586999 0.317879 0.10932
H_ H_ 0.972322 0.587519 0.315723 0.10932
H_ H_ 0.671272 0.6381 0.183728 0.10932
H_ H_ 0.917194 0.631283 0.189435 0.10932
H_ H_ 0.692204 0.65304 0.318908 0.10932
H_ H_ 0.946447 0.655157 0.315576 0.10932
H_ H_ 0.702494 0.574988 0.185562 0.10932
H_ H_ 0.948256 0.570693 0.185703 0.10932
H_ H_ 0.535135 0.581912 0.177693 0.10932
H_ H_ 0.77108 0.583049 0.187038 0.10932
H_ H_ 0.559619 0.64026 0.317666 0.10932
H_ H_ 0.820807 0.641187 0.314022 0.10932
H_ H_ 0.558349 0.653005 0.181109 0.10932
H_ H_ 0.799916 0.649892 0.183973 0.10932
H_ H_ 0.529441 0.576469 0.310736 0.10932
H_ H_ 0.791537 0.580302 0.31663 0.10932
H_ H_ 0.616189 0.687408 0.365892 0.10932
H_ H_ 0.882201 0.805196 0.36496 0.10932
H_ H_ 0.630413 0.812858 0.358827 0.10932
H_ H_ 0.871644 0.678359 0.357822 0.10932
H_ H_ 0.634699 0.818862 0.43592 0.10932
H_ H_ 0.868934 0.671821 0.436726 0.10932
H_ H_ 0.613098 0.691174 0.443395 0.10932
H_ H_ 0.877381 0.803893 0.441588 0.10932
H_ H_ 0.621219 0.678286 0.140586 0.10932
H_ H_ 0.891581 0.692289 0.138419 0.10932
H_ H_ 0.623751 0.8101 0.134829 0.10932
H_ H_ 0.861916 0.818351 0.146674 0.10932
H_ H_ 0.626847 0.807075 0.0585105 0.10932
H_ H_ 0.858665 0.824303 0.069111 0.10932
H_ H_ 0.620499 0.673462 0.0638639 0.10932
H_ H_ 0.878061 0.694855 0.0596881 0.10932
C_ C_ 0.562926 0.844811 0.248454 -0.02249
C_ C_ 0.818153 0.851603 0.252794 -0.02249
C_ C_ 0.511884 0.959733 0.251862 -0.02249
C_ C_ 0.764075 0.962578 0.248437 -0.02249
C_ C_ 0.541604 0.904253 0.214182 -0.11473
C_ C_ 0.778304 0.892486 0.216688 -0.11473
C_ C_ 0.554408 0.862117 0.286469 -0.11473
C_ C_ 0.81767 0.879155 0.286553 -0.11473
C_ C_ 0.559123 0.868053 0.21296 -0.11473
C_ C_ 0.797174 0.859025 0.21837 -0.11473
C_ C_ 0.528749 0.919552 0.249916 -0.02249
C_ C_ 0.781111 0.922571 0.248394 -0.02249
C_ C_ 0.584132 0.808429 0.25017 0.6875
C_ C_ 0.837626 0.812677 0.254453 0.6875
C_ C_ 0.537965 0.900479 0.286874 -0.11473
C_ C_ 0.799421 0.914149 0.284682 -0.11473
C_ C_ 0.677087 0.854601 0.247192 -0.02249
C_ C_ 0.933055 0.848022 0.253798 -0.02249
C_ C_ 0.732512 0.963629 0.250272 -0.02249
C_ C_ 0.983074 0.964558 0.260752 -0.02249
C_ C_ 0.708014 0.903065 0.284582 -0.11473
C_ C_ 0.956499 0.905511 0.292892 -0.11473
C_ C_ 0.685236 0.871069 0.207689 -0.11473
C_ C_ 0.946994 0.863663 0.217116 -0.11473
C_ C_ 0.68801 0.871453 0.285066 -0.11473
C_ C_ 0.938827 0.868745 0.291437 -0.11473
C_ C_ 0.716126 0.923418 0.245691 -0.02249
C_ C_ 0.965346 0.924613 0.256101 -0.02249
C_ C_ 0.658394 0.814331 0.246689 0.6875
C_ C_ 0.915574 0.808995 0.250884 0.6875
C_ C_ 0.704238 0.907893 0.207591 -0.11473
C_ C_ 0.962665 0.901003 0.219317 -0.11473
C_ C_ 0.681675 0.651708 0.250688 -0.02249
C_ C_ 0.930586 0.648301 0.25295 -0.02249
C_ C_ 0.730492 0.536352 0.251147 -0.02249
C_ C_ 0.983877 0.535897 0.246634 -0.02249
C_ C_ 0.710326 0.599768 0.288638 -0.11473
C_ C_ 0.963968 0.600307 0.285986 -0.11473
C_ C_ 0.682473 0.627825 0.213301 -0.11473
C_ C_ 0.933267 0.624734 0.214452 -0.11473
C_ C_ 0.693475 0.635665 0.288721 -0.11473
C_ C_ 0.947104 0.636697 0.287088 -0.11473
C_ C_ 0.712386 0.576274 0.251604 -0.02249
C_ C_ 0.966311 0.575988 0.248921 -0.02249
C_ C_ 0.660092 0.688126 0.25181 0.6875
C_ C_ 0.912411 0.688866 0.25427 0.6875
C_ C_ 0.699051 0.590526 0.214627 -0.11473
C_ C_ 0.951039 0.589238 0.21247 -0.11473
C_ C_ 0.559393 0.654202 0.24995 -0.02249
C_ C_ 0.813967 0.651852 0.247957 -0.02249
C_ C_ 0.512823 0.536395 0.240833 -0.02249
C_ C_ 0.761999 0.5363 0.252477 -0.02249
C_ C_ 0.536299 0.599145 0.20627 -0.11473
C_ C_ 0.782524 0.596655 0.214728 -0.11473
C_ C_ 0.549991 0.632842 0.286177 -0.11473
C_ C_ 0.80933 0.632073 0.285919 -0.11473
C_ C_ 0.549721 0.637681 0.208883 -0.11473
C_ C_ 0.798969 0.633746 0.212432 -0.11473
C_ C_ 0.528803 0.577989 0.243018 -0.02249
C_ C_ 0.779252 0.577233 0.251578 -0.02249
C_ C_ 0.581031 0.691845 0.25105 0.6875
C_ C_ 0.832204 0.691881 0.247851 0.6875
C_ C_ 0.534912 0.594576 0.281889 -0.11473
C_ C_ 0.794518 0.593581 0.287066 -0.11473
C_ C_ 0.620794 0.715568 0.382632 0.17695
C_ C_ 0.875973 0.777263 0.37968 0.17695
C_ C_ 0.630677 0.786613 0.37751 0.17695
C_ C_ 0.869509 0.705579 0.375729 0.17695
C_ C_ 0.634217 0.789089 0.421761 -0.11473
C_ C_ 0.866757 0.702667 0.419714 -0.11473
C_ C_ 0.629562 0.755075 0.446882 0.23465
C_ C_ 0.870627 0.738241 0.444034 0.23465
C_ C_ 0.62159 0.718011 0.426446 -0.11473
C_ C_ 0.87403 0.775375 0.424287 -0.11473
C_ C_ 0.619445 0.706399 0.123877 0.17695
C_ C_ 0.88192 0.722224 0.12263 0.17695
C_ C_ 0.620778 0.779726 0.119073 0.17695
C_ C_ 0.865487 0.791208 0.127675 0.17695
C_ C_ 0.624649 0.777721 0.0759572 -0.11473
C_ C_ 0.86502 0.794837 0.0836714 -0.11473
C_ C_ 0.624332 0.739625 0.0552171 0.23465
C_ C_ 0.86914 0.760587 0.0580901 0.23465
C_ C_ 0.619434 0.703935 0.0800704 -0.11473
C_ C_ 0.876237 0.722726 0.0785125 -0.11473
C_ C_ 0.52893 0.998537 0.249957 0.05793
C_ C_ 0.780063 1.00143579 0.243073 0.05793
C_ C_ 0.715332 0.497324 0.249022 0.05793
C_ C_ 0.968329 0.497558 0.24617 0.05793
Br Br 0.571744 0.995811 0.265155 -0.17191
Br Br 0.822222 1.00052 0.232266 -0.17191
Br Br 0.672412 0.498726 0.257702 -0.17191
Br Br 0.924797 0.495989 0.25459 -0.17191
N_ N_ 0.628133 0.748846 0.359321 -0.272
N_ N_ 0.874942 0.741112 0.357388 -0.272
N_ N_ 0.628101 0.760678 0.491505 -0.12501
N_ N_ 0.868571 0.733042 0.489186 -0.12501
N_ N_ 0.619078 0.744617 0.141948 -0.272
N_ N_ 0.87556 0.755334 0.14639 -0.272
N_ N_ 0.627326 0.735211 0.0108833 -0.12501
N_ N_ 0.868093 0.766282 0.0133349 -0.12501
O_ O_ 0.592949 0.792696 0.215675 -0.60745
O_ O_ 0.841738 0.792235 0.220515 -0.60745
O_ O_ 0.590451 0.791302 0.284457 -0.60745
O_ O_ 0.848089 0.798868 0.289991 -0.60745
O_ O_ 0.648207 0.799262 0.281274 -0.60745
O_ O_ 0.90897 0.79028 0.284908 -0.60745
O_ O_ 0.652513 0.796449 0.211789 -0.60745
O_ O_ 0.903942 0.796461 0.216753 -0.60745
O_ O_ 0.654247 0.707157 0.286687 -0.60745
O_ O_ 0.901498 0.702134 0.288339 -0.60745
O_ O_ 0.653337 0.70735 0.216981 -0.60745
O_ O_ 0.903841 0.704522 0.219381 -0.60745
O_ O_ 0.591888 0.704985 0.217443 -0.60745
O_ O_ 0.843616 0.704301 0.213971 -0.60745
O_ O_ 0.58875 0.708069 0.286904 -0.60745
O_ O_ 0.841363 0.708386 0.28263 -0.60745
Zn Zn 0.63151 0.750021 0.785578 0.9476
Zn Zn 0.874358 0.749686 0.783557 0.9476
Zn Zn 0.627109 0.753754 0.717947 0.9476
Zn Zn 0.871943 0.748699 0.712335 0.9476
H_ H_ 0.522769 0.907104 0.689135 0.10932
H_ H_ 0.780803 0.907535 0.679636 0.10932
H_ H_ 0.578835 0.862352 0.817122 0.10932
H_ H_ 0.816453 0.854824 0.812746 0.10932
H_ H_ 0.546717 0.837336 0.691882 0.10932
H_ H_ 0.793376 0.835798 0.682594 0.10932
H_ H_ 0.551821 0.924822 0.815565 0.10932
H_ H_ 0.797647 0.926192 0.808366 0.10932
H_ H_ 0.706907 0.93058 0.810291 0.10932
H_ H_ 0.981242 0.895397 0.8113 0.10932
H_ H_ 0.692462 0.851342 0.677587 0.10932
H_ H_ 0.914962 0.871076 0.689745 0.10932
H_ H_ 0.681257 0.863508 0.811863 0.10932
H_ H_ 0.95389 0.83208 0.806661 0.10932
H_ H_ 0.720675 0.916185 0.674511 0.10932
H_ H_ 0.94017 0.936037 0.692358 0.10932
H_ H_ 0.725447 0.581054 0.820081 0.10932
H_ H_ 0.981785 0.595328 0.813696 0.10932
H_ H_ 0.675209 0.633244 0.688915 0.10932
H_ H_ 0.924463 0.636943 0.68461 0.10932
H_ H_ 0.693501 0.64264 0.821445 0.10932
H_ H_ 0.950135 0.660959 0.815318 0.10932
H_ H_ 0.706672 0.571285 0.688445 0.10932
H_ H_ 0.956895 0.57392 0.685142 0.10932
H_ H_ 0.551957 0.571286 0.683881 0.10932
H_ H_ 0.769234 0.591353 0.679361 0.10932
H_ H_ 0.555317 0.661128 0.809888 0.10932
H_ H_ 0.825294 0.635162 0.810602 0.10932
H_ H_ 0.586961 0.633374 0.68855 0.10932
H_ H_ 0.797342 0.651837 0.679825 0.10932
H_ H_ 0.524571 0.593968 0.807702 0.10932
H_ H_ 0.800323 0.563055 0.806125 0.10932
H_ H_ 0.639465 0.6863 0.865319 0.10932
H_ H_ 0.867198 0.684662 0.855768 0.10932
H_ H_ 0.631877 0.814217 0.849361 0.10932
H_ H_ 0.876292 0.814248 0.863388 0.10932
H_ H_ 0.625936 0.824867 0.928562 0.10932
H_ H_ 0.872359 0.809934 0.937468 0.10932
H_ H_ 0.639249 0.694216 0.941786 0.10932
H_ H_ 0.863848 0.678443 0.928495 0.10932
H_ H_ 0.631946 0.67774 0.647692 0.10932
H_ H_ 0.865109 0.817174 0.645969 0.10932
H_ H_ 0.627399 0.809985 0.638698 0.10932
H_ H_ 0.872289 0.685438 0.63347 0.10932
H_ H_ 0.63415 0.802676 0.562525 0.10932
H_ H_ 0.868915 0.690313 0.560498 0.10932
H_ H_ 0.635293 0.671699 0.572136 0.10932
H_ H_ 0.859251 0.82286 0.571096 0.10932
C_ C_ 0.566057 0.845472 0.752383 -0.02249
C_ C_ 0.809711 0.840687 0.747457 -0.02249
C_ C_ 0.516432 0.960303 0.751691 -0.02249
C_ C_ 0.766298 0.962334 0.742181 -0.02249
C_ C_ 0.535142 0.896511 0.717619 -0.11473
C_ C_ 0.783986 0.893801 0.708798 -0.11473
C_ C_ 0.563297 0.867329 0.790408 -0.11473
C_ C_ 0.808776 0.866927 0.782782 -0.11473
C_ C_ 0.55155 0.859586 0.716326 -0.11473
C_ C_ 0.796772 0.85576 0.709418 -0.11473
C_ C_ 0.532482 0.918379 0.755001 -0.02249
C_ C_ 0.78288 0.921697 0.744033 -0.02249
C_ C_ 0.587499 0.809068 0.751331 0.6875
C_ C_ 0.831731 0.805976 0.74751 0.6875
C_ C_ 0.546008 0.902958 0.790775 -0.11473
C_ C_ 0.793782 0.906104 0.782292 -0.11473
C_ C_ 0.688704 0.847809 0.746438 -0.02249
C_ C_ 0.931461 0.845794 0.746932 -0.02249
C_ C_ 0.734597 0.96643 0.743324 -0.02249
C_ C_ 0.982988 0.958657 0.750847 -0.02249
C_ C_ 0.705105 0.912283 0.780432 -0.11473
C_ C_ 0.968697 0.889586 0.782558 -0.11473
C_ C_ 0.697109 0.865915 0.70666 -0.11473
C_ C_ 0.929661 0.876016 0.715391 -0.11473
C_ C_ 0.692189 0.872381 0.782327 -0.11473
C_ C_ 0.952216 0.851679 0.780045 -0.11473
C_ C_ 0.716025 0.927802 0.742835 -0.02249
C_ C_ 0.964212 0.920642 0.751808 -0.02249
C_ C_ 0.66934 0.810999 0.748418 0.6875
C_ C_ 0.906626 0.812731 0.747127 0.6875
C_ C_ 0.711121 0.905682 0.704992 -0.11473
C_ C_ 0.94356 0.91416 0.717578 -0.11473
C_ C_ 0.686245 0.648687 0.75352 -0.02249
C_ C_ 0.935881 0.652412 0.750155 -0.02249
C_ C_ 0.735682 0.533063 0.750815 -0.02249
C_ C_ 0.987524 0.537719 0.750869 -0.02249
C_ C_ 0.714654 0.593302 0.79098 -0.11473
C_ C_ 0.969861 0.603195 0.786233 -0.11473
C_ C_ 0.688183 0.62479 0.716984 -0.11473
C_ C_ 0.939653 0.629109 0.712279 -0.11473
C_ C_ 0.698458 0.63019 0.791429 -0.11473
C_ C_ 0.95136 0.640173 0.785938 -0.11473
C_ C_ 0.718779 0.573551 0.753242 -0.02249
C_ C_ 0.970012 0.577186 0.751263 -0.02249
C_ C_ 0.670814 0.689842 0.753913 0.6875
C_ C_ 0.915774 0.692076 0.751686 0.6875
C_ C_ 0.706548 0.588468 0.715904 -0.11473
C_ C_ 0.957212 0.592896 0.712646 -0.11473
C_ C_ 0.574182 0.651163 0.75064 -0.02249
C_ C_ 0.814784 0.647764 0.744405 -0.02249
C_ C_ 0.517505 0.542355 0.744668 -0.02249
C_ C_ 0.766665 0.530955 0.741638 -0.02249
C_ C_ 0.55288 0.592305 0.711204 -0.11473
C_ C_ 0.783696 0.597037 0.706513 -0.11473
C_ C_ 0.555668 0.63934 0.784598 -0.11473
C_ C_ 0.815597 0.622656 0.781307 -0.11473
C_ C_ 0.572642 0.625397 0.714126 -0.11473
C_ C_ 0.797046 0.636738 0.708661 -0.11473
C_ C_ 0.53478 0.58205 0.744866 -0.02249
C_ C_ 0.784485 0.570516 0.74157 -0.02249
C_ C_ 0.591665 0.688535 0.751862 0.6875
C_ C_ 0.835505 0.685479 0.74344 0.6875
C_ C_ 0.534681 0.607359 0.780164 -0.11473
C_ C_ 0.79955 0.583659 0.779516 -0.11473
C_ C_ 0.635503 0.717055 0.879228 0.17695
C_ C_ 0.869471 0.711906 0.873516 0.17695
C_ C_ 0.63336 0.789232 0.871175 0.17695
C_ C_ 0.874856 0.785788 0.878413 0.17695
C_ C_ 0.631993 0.794838 0.915172 -0.11473
C_ C_ 0.874628 0.781714 0.922847 -0.11473
C_ C_ 0.632169 0.759867 0.941836 0.23465
C_ C_ 0.871539 0.74283 0.943235 0.23465
C_ C_ 0.634935 0.720922 0.92342 -0.11473
C_ C_ 0.869198 0.708226 0.91727 -0.11473
C_ C_ 0.629889 0.705469 0.630293 0.17695
C_ C_ 0.865144 0.788901 0.627574 0.17695
C_ C_ 0.627452 0.778659 0.623574 0.17695
C_ C_ 0.872669 0.715867 0.620687 0.17695
C_ C_ 0.629148 0.775678 0.579068 -0.11473
C_ C_ 0.866589 0.718813 0.579075 -0.11473
C_ C_ 0.63088 0.736621 0.5609 0.23465
C_ C_ 0.865819 0.757058 0.558646 0.23465
C_ C_ 0.632181 0.701713 0.586471 -0.11473
C_ C_ 0.862904 0.792572 0.584062 -0.11473
C_ C_ 0.532623 -0.0035809999999999453 0.746362 0.05793
C_ C_ 0.784474 -0.00207269 0.742764 0.05793
C_ C_ 0.719147 0.495153 0.754865 0.05793
C_ C_ 0.97129 0.49937 0.755399 0.05793
Br Br 0.574017 -0.006337000000000037 0.733773 -0.17191
Br Br 0.82632 0.99448 0.735708 -0.17191
Br Br 0.675343 0.499021 0.761764 -0.17191
Br Br 0.927651 0.50168 0.761122 -0.17191
N_ N_ 0.627881 0.750324 0.854712 -0.272
N_ N_ 0.87171 0.749416 0.85444 -0.272
N_ N_ 0.626959 0.765494 0.986356 -0.12501
N_ N_ 0.872362 0.736305 0.988376 -0.12501
N_ N_ 0.626951 0.743214 0.64794 -0.272
N_ N_ 0.86806 0.749788 0.644034 -0.272
N_ N_ 0.632684 0.730103 0.516366 -0.12501
N_ N_ 0.866042 0.763039 0.513987 -0.12501
O_ O_ 0.597152 0.796609 0.717078 -0.60745
O_ O_ 0.83838 0.788301 0.713698 -0.60745
O_ O_ 0.595625 0.791278 0.785456 -0.60745
O_ O_ 0.841713 0.790251 0.781814 -0.60745
O_ O_ 0.659008 0.798799 0.783234 -0.60745
O_ O_ 0.899839 0.7962 0.7808 -0.60745
O_ O_ 0.661457 0.793437 0.714301 -0.60745
O_ O_ 0.897604 0.796588 0.713048 -0.60745
O_ O_ 0.663448 0.706093 0.788146 -0.60745
O_ O_ 0.906944 0.706222 0.786059 -0.60745
O_ O_ 0.657418 0.703089 0.720563 -0.60745
O_ O_ 0.906681 0.708378 0.716045 -0.60745
O_ O_ 0.595047 0.710539 0.718583 -0.60745
O_ O_ 0.843785 0.698718 0.708309 -0.60745
O_ O_ 0.60197 0.699518 0.787566 -0.60745
O_ O_ 0.846488 0.699967 0.778133 -0.60745
_cell_length_a 44.444
_cell_length_b 32.3360000049186
_cell_length_c 31.843999878906452
_cell_angle_alpha 89.99799923859553
_cell_angle_beta 91.13600050494348
_cell_angle_gamma 89.9990006550086
_symmetry_space_group_name_H-M         'P 1'
_symmetry_Int_Tables_number            1
loop_
_symmetry_equiv_pos_as_xyz
   'x, y, z'
                         
loop_
_atom_site_label
_atom_site_type_symbol
_atom_site_fract_x 
_atom_site_fract_y
_atom_site_fract_z
_atom_site_charge
Zn Zn 0.125585 0.251441 0.283357 0.9476
Zn Zn 0.376018 0.255158 0.28701 0.9476
Zn Zn 0.124282 0.249552 0.214528 0.9476
Zn Zn 0.372735 0.251424 0.214474 0.9476
H_ H_ 0.0242063 0.401125 0.177852 0.10932
H_ H_ 0.273878 0.404805 0.180878 0.10932
H_ H_ 0.0755765 0.366276 0.312677 0.10932
H_ H_ 0.334468 0.377427 0.310033 0.10932
H_ H_ 0.0559609 0.33923 0.182842 0.10932
H_ H_ 0.301339 0.339408 0.187071 0.10932
H_ H_ 0.0442547 0.426317 0.309139 0.10932
H_ H_ 0.297465 0.433927 0.307908 0.10932
H_ H_ 0.236715 0.402466 0.309175 0.10932
H_ H_ 0.461793 0.42081 0.318501 0.10932
H_ H_ 0.167811 0.367297 0.188562 0.10932
H_ H_ 0.437521 0.34743 0.185329 0.10932
H_ H_ 0.204412 0.333634 0.307937 0.10932
H_ H_ 0.427628 0.358483 0.318135 0.10932
H_ H_ 0.198832 0.433732 0.185842 0.10932
H_ H_ 0.473861 0.40657 0.185382 0.10932
H_ H_ 0.21956 0.0827193 0.31011 0.10932
H_ H_ 0.466389 0.0910534 0.320133 0.10932
H_ H_ 0.183593 0.15147 0.180911 0.10932
H_ H_ 0.441222 0.145629 0.180264 0.10932
H_ H_ 0.187333 0.145849 0.314731 0.10932
H_ H_ 0.433561 0.148696 0.317858 0.10932
H_ H_ 0.205333 0.0822591 0.176366 0.10932
H_ H_ 0.469529 0.0847651 0.188594 0.10932
H_ H_ 0.0302539 0.0828085 0.196267 0.10932
H_ H_ 0.287359 0.0833116 0.186692 0.10932
H_ H_ 0.073896 0.146195 0.324986 0.10932
H_ H_ 0.311021 0.155271 0.320893 0.10932
H_ H_ 0.064646 0.13816 0.188822 0.10932
H_ H_ 0.316202 0.145534 0.183049 0.10932
H_ H_ 0.0472999 0.0786621 0.329843 0.10932
H_ H_ 0.286906 0.0837716 0.320605 0.10932
H_ H_ 0.124011 0.188599 0.361102 0.10932
H_ H_ 0.334302 0.277248 0.365795 0.10932
H_ H_ 0.141004 0.317459 0.354592 0.10932
H_ H_ 0.421506 0.227669 0.360639 0.10932
H_ H_ 0.139608 0.321642 0.432461 0.10932
H_ H_ 0.421592 0.215792 0.440957 0.10932
H_ H_ 0.121132 0.190997 0.438527 0.10932
H_ H_ 0.334233 0.266827 0.443989 0.10932
H_ H_ 0.108888 0.310393 0.141865 0.10932
H_ H_ 0.380726 0.191917 0.138716 0.10932
H_ H_ 0.139217 0.185851 0.139691 0.10932
H_ H_ 0.369421 0.321703 0.145187 0.10932
H_ H_ 0.154301 0.197711 0.0638551 0.10932
H_ H_ 0.360345 0.324586 0.0694797 0.10932
H_ H_ 0.106685 0.31137 0.0633474 0.10932
H_ H_ 0.381068 0.19464 0.0616712 0.10932
C_ C_ 0.0681046 0.34871 0.247195 -0.02249
C_ C_ 0.319139 0.352576 0.248903 -0.02249
C_ C_ 0.0153668 0.460104 0.236882 -0.02249
C_ C_ 0.265063 0.464273 0.239608 -0.02249
C_ C_ 0.0356004 0.395631 0.207349 -0.11473
C_ C_ 0.284902 0.397772 0.210214 -0.11473
C_ C_ 0.0649349 0.374512 0.283191 -0.11473
C_ C_ 0.319162 0.381778 0.282427 -0.11473
C_ C_ 0.054732 0.360729 0.209201 -0.11473
C_ C_ 0.30047 0.359644 0.214136 -0.11473
C_ C_ 0.0322539 0.420754 0.242283 -0.02249
C_ C_ 0.284479 0.42635 0.242339 -0.02249
C_ C_ 0.0882813 0.31147 0.24749 0.6875
C_ C_ 0.339301 0.315922 0.251468 0.6875
C_ C_ 0.0473135 0.41017 0.280152 -0.11473
C_ C_ 0.299984 0.417025 0.278882 -0.11473
C_ C_ 0.1844 0.349583 0.247688 -0.02249
C_ C_ 0.435192 0.344155 0.253816 -0.02249
C_ C_ 0.234519 0.461935 0.248781 -0.02249
C_ C_ 0.484299 0.458989 0.24996 -0.02249
C_ C_ 0.222399 0.393525 0.281545 -0.11473
C_ C_ 0.457251 0.405155 0.289222 -0.11473
C_ C_ 0.183801 0.375262 0.212579 -0.11473
C_ C_ 0.447553 0.357288 0.215642 -0.11473
C_ C_ 0.203443 0.358076 0.282954 -0.11473
C_ C_ 0.439218 0.368096 0.290243 -0.11473
C_ C_ 0.219528 0.421715 0.247898 -0.02249
C_ C_ 0.470685 0.416414 0.252067 -0.02249
C_ C_ 0.162369 0.312214 0.247781 0.6875
C_ C_ 0.415896 0.305529 0.25203 0.6875
C_ C_ 0.201514 0.411972 0.212588 -0.11473
C_ C_ 0.464037 0.395225 0.215586 -0.11473
C_ C_ 0.181151 0.152829 0.248781 -0.02249
C_ C_ 0.431462 0.153395 0.248081 -0.02249
C_ C_ 0.233966 0.0414305 0.239937 -0.02249
C_ C_ 0.481826 0.0377201 0.256754 -0.02249
C_ C_ 0.210322 0.0973388 0.281881 -0.11473
C_ C_ 0.458638 0.101215 0.290467 -0.11473
C_ C_ 0.18627 0.134401 0.209305 -0.11473
C_ C_ 0.443291 0.133592 0.211294 -0.11473
C_ C_ 0.193651 0.134949 0.283755 -0.11473
C_ C_ 0.439083 0.135248 0.287721 -0.11473
C_ C_ 0.216604 0.0806415 0.241914 -0.02249
C_ C_ 0.46681 0.0796685 0.254685 -0.02249
C_ C_ 0.163375 0.192432 0.250008 0.6875
C_ C_ 0.412832 0.192701 0.246497 0.6875
C_ C_ 0.203734 0.0980684 0.205856 -0.11473
C_ C_ 0.458248 0.0960651 0.21507 -0.11473
C_ C_ 0.0731936 0.150065 0.256208 -0.02249
C_ C_ 0.316945 0.157419 0.253399 -0.02249
C_ C_ 0.0183074 0.03737 0.267056 -0.02249
C_ C_ 0.264412 0.0418761 0.253156 -0.02249
C_ C_ 0.0416929 0.0944157 0.224448 -0.11473
C_ C_ 0.294634 0.0986475 0.214105 -0.11473
C_ C_ 0.0667719 0.131034 0.296132 -0.11473
C_ C_ 0.30866 0.138603 0.291299 -0.11473
C_ C_ 0.0601595 0.127823 0.2206 -0.11473
C_ C_ 0.309464 0.136658 0.213684 -0.11473
C_ C_ 0.0373938 0.074645 0.263721 -0.02249
C_ C_ 0.28246 0.0827811 0.251265 -0.02249
C_ C_ 0.08578 0.193383 0.252941 0.6875
C_ C_ 0.333165 0.197828 0.249552 0.6875
C_ C_ 0.0509153 0.0931055 0.298945 -0.11473
C_ C_ 0.292792 0.0995599 0.291374 -0.11473
C_ C_ 0.124977 0.218614 0.377347 0.17695
C_ C_ 0.355438 0.267933 0.382221 0.17695
C_ C_ 0.135724 0.289648 0.372219 0.17695
C_ C_ 0.404073 0.236851 0.380393 0.17695
C_ C_ 0.135459 0.292143 0.415901 -0.11473
C_ C_ 0.40331 0.230547 0.423557 -0.11473
C_ C_ 0.128826 0.258064 0.441934 0.23465
C_ C_ 0.378515 0.243388 0.446403 0.23465
C_ C_ 0.125354 0.219363 0.421945 -0.11473
C_ C_ 0.355214 0.260652 0.426893 -0.11473
C_ C_ 0.114598 0.283345 0.125018 0.17695
C_ C_ 0.37477 0.219443 0.122376 0.17695
C_ C_ 0.136067 0.21741 0.124863 0.17695
C_ C_ 0.372621 0.293444 0.127637 0.17695
C_ C_ 0.139713 0.219584 0.0810792 -0.11473
C_ C_ 0.367828 0.295854 0.0843092 -0.11473
C_ C_ 0.128785 0.254265 0.0591059 0.23465
C_ C_ 0.369365 0.259971 0.059189 0.23465
C_ C_ 0.116052 0.286573 0.0814479 -0.11473
C_ C_ 0.37347 0.221808 0.0795727 -0.11473
C_ C_ 0.0307137 0.498132 0.238796 0.05793
C_ C_ 0.278457 0.502376 0.233876 0.05793
C_ C_ 0.218014 0.00327354 0.241527 0.05793
C_ C_ 0.465686 1.00149983 0.253527 0.05793
Br Br 0.0699876 0.500193 0.217452 -0.17191
Br Br 0.32153 0.505445 0.222417 -0.17191
Br Br 0.177349 0.00530104 0.221889 -0.17191
Br Br 0.421729 1.00560282 0.257841 -0.17191
N_ N_ 0.128497 0.252666 0.353617 -0.272
N_ N_ 0.378632 0.252167 0.359473 -0.272
N_ N_ 0.125969 0.263256 0.485844 -0.12501
N_ N_ 0.378398 0.236395 0.491236 -0.12501
N_ N_ 0.123416 0.248058 0.14615 -0.272
N_ N_ 0.371611 0.255505 0.144624 -0.272
N_ N_ 0.124214 0.255286 0.0143054 -0.12501
N_ N_ 0.370755 0.26626 0.0151259 -0.12501
O_ O_ 0.0914695 0.289336 0.215357 -0.60745
O_ O_ 0.341496 0.293159 0.220087 -0.60745
O_ O_ 0.101085 0.30187 0.281608 -0.60745
O_ O_ 0.352601 0.305363 0.286377 -0.60745
O_ O_ 0.159347 0.290759 0.281152 -0.60745
O_ O_ 0.413829 0.287256 0.287139 -0.60745
O_ O_ 0.150798 0.300109 0.212576 -0.60745
O_ O_ 0.403799 0.292979 0.219196 -0.60745
O_ O_ 0.151648 0.20361 0.284823 -0.60745
O_ O_ 0.401018 0.203304 0.279902 -0.60745
O_ O_ 0.154737 0.209097 0.217361 -0.60745
O_ O_ 0.404802 0.207665 0.212705 -0.60745
O_ O_ 0.0955002 0.205554 0.218884 -0.60745
O_ O_ 0.342405 0.211099 0.213296 -0.60745
O_ O_ 0.090189 0.214451 0.285633 -0.60745
O_ O_ 0.339017 0.218346 0.282628 -0.60745
Zn Zn 0.126494 0.246616 0.784422 0.9476
Zn Zn 0.377172 0.252493 0.785501 0.9476
Zn Zn 0.12487 0.249179 0.713047 0.9476
Zn Zn 0.37833 0.25402 0.716726 0.9476
H_ H_ 0.0203608 0.403902 0.68607 0.10932
H_ H_ 0.26393 0.398981 0.692288 0.10932
H_ H_ 0.0817814 0.367517 0.809283 0.10932
H_ H_ 0.334349 0.373673 0.815471 0.10932
H_ H_ 0.0495599 0.337732 0.687688 0.10932
H_ H_ 0.297115 0.339763 0.692607 0.10932
H_ H_ 0.0524596 0.4321 0.81083 0.10932
H_ H_ 0.309275 0.440058 0.805924 0.10932
H_ H_ 0.216492 0.413358 0.819559 0.10932
H_ H_ 0.4747 0.41521 0.819043 0.10932
H_ H_ 0.177736 0.355198 0.68391 0.10932
H_ H_ 0.422797 0.37039 0.687603 0.10932
H_ H_ 0.187735 0.346737 0.816198 0.10932
H_ H_ 0.438292 0.360091 0.819983 0.10932
H_ H_ 0.210959 0.420845 0.686746 0.10932
H_ H_ 0.459523 0.428625 0.683255 0.10932
H_ H_ 0.229391 0.0961517 0.812423 0.10932
H_ H_ 0.478831 0.09249 0.818851 0.10932
H_ H_ 0.173753 0.130844 0.67971 0.10932
H_ H_ 0.42523 0.136315 0.687533 0.10932
H_ H_ 0.19894 0.158864 0.812836 0.10932
H_ H_ 0.443963 0.152908 0.819298 0.10932
H_ H_ 0.207513 0.0730032 0.685254 0.10932
H_ H_ 0.452388 0.0719021 0.688475 0.10932
H_ H_ 0.0409502 0.0770603 0.679187 0.10932
H_ H_ 0.294305 0.0741193 0.680123 0.10932
H_ H_ 0.0571833 0.148928 0.816873 0.10932
H_ H_ 0.311887 0.15241 0.815038 0.10932
H_ H_ 0.0735428 0.139846 0.684164 0.10932
H_ H_ 0.315232 0.146154 0.677961 0.10932
H_ H_ 0.0374217 0.0773526 0.817308 0.10932
H_ H_ 0.289958 0.0831214 0.815099 0.10932
H_ H_ 0.128376 0.311298 0.865916 0.10932
H_ H_ 0.373226 0.314001 0.866309 0.10932
H_ H_ 0.131307 0.184665 0.853267 0.10932
H_ H_ 0.378086 0.187013 0.854794 0.10932
H_ H_ 0.135687 0.172442 0.929472 0.10932
H_ H_ 0.374059 0.177428 0.930847 0.10932
H_ H_ 0.133393 0.306937 0.947208 0.10932
H_ H_ 0.376382 0.30923 0.945595 0.10932
H_ H_ 0.126169 0.181853 0.645045 0.10932
H_ H_ 0.373535 0.192181 0.639387 0.10932
H_ H_ 0.114526 0.312395 0.63313 0.10932
H_ H_ 0.380074 0.325541 0.645405 0.10932
H_ H_ 0.124495 0.311167 0.553011 0.10932
H_ H_ 0.390068 0.328642 0.57317 0.10932
H_ H_ 0.134359 0.178678 0.56904 0.10932
H_ H_ 0.382628 0.196486 0.564892 0.10932
C_ C_ 0.0668505 0.34428 0.750064 -0.02249
C_ C_ 0.317802 0.352104 0.753177 -0.02249
C_ C_ 0.0185453 0.46015 0.748644 -0.02249
C_ C_ 0.262738 0.461947 0.749534 -0.02249
C_ C_ 0.0331946 0.393423 0.71439 -0.11473
C_ C_ 0.27746 0.392611 0.720118 -0.11473
C_ C_ 0.0666506 0.372946 0.784118 -0.11473
C_ C_ 0.318196 0.377792 0.787563 -0.11473
C_ C_ 0.0473762 0.354607 0.717605 -0.11473
C_ C_ 0.297788 0.360728 0.718961 -0.11473
C_ C_ 0.0344981 0.419744 0.749203 -0.02249
C_ C_ 0.278688 0.420815 0.753741 -0.02249
C_ C_ 0.0841157 0.306917 0.750965 0.6875
C_ C_ 0.337856 0.312088 0.752393 0.6875
C_ C_ 0.0517558 0.410238 0.783578 -0.11473
C_ C_ 0.300492 0.41457 0.785002 -0.11473
C_ C_ 0.185775 0.344577 0.750272 -0.02249
C_ C_ 0.435306 0.352716 0.751259 -0.02249
C_ C_ 0.231442 0.461241 0.755196 -0.02249
C_ C_ 0.486377 0.465999 0.750324 -0.02249
C_ C_ 0.211277 0.399549 0.789467 -0.11473
C_ C_ 0.466922 0.403501 0.788992 -0.11473
C_ C_ 0.187472 0.368655 0.713785 -0.11473
C_ C_ 0.43624 0.378398 0.715375 -0.11473
C_ C_ 0.195169 0.361131 0.78862 -0.11473
C_ C_ 0.446713 0.369605 0.79 -0.11473
C_ C_ 0.215513 0.421105 0.752867 -0.02249
C_ C_ 0.47063 0.425579 0.750176 -0.02249
C_ C_ 0.164468 0.30869 0.746958 0.6875
C_ C_ 0.416754 0.313843 0.752806 0.6875
C_ C_ 0.203619 0.40546 0.714623 -0.11473
C_ C_ 0.455169 0.413492 0.714256 -0.11473
C_ C_ 0.183738 0.150496 0.74693 -0.02249
C_ C_ 0.433873 0.151931 0.751793 -0.02249
C_ C_ 0.237008 0.041527 0.750584 -0.02249
C_ C_ 0.486138 0.0364577 0.75035 -0.02249
C_ C_ 0.220636 0.105905 0.784721 -0.11473
C_ C_ 0.46787 0.102037 0.790159 -0.11473
C_ C_ 0.186225 0.12443 0.711045 -0.11473
C_ C_ 0.436982 0.127546 0.716739 -0.11473
C_ C_ 0.199917 0.139777 0.784034 -0.11473
C_ C_ 0.448608 0.137207 0.790503 -0.11473
C_ C_ 0.221232 0.0811222 0.748035 -0.02249
C_ C_ 0.46907 0.0763625 0.753294 -0.02249
C_ C_ 0.164914 0.187048 0.747336 0.6875
C_ C_ 0.418011 0.191987 0.752237 0.6875
C_ C_ 0.20342 0.0892795 0.713204 -0.11473
C_ C_ 0.452495 0.0891774 0.718162 -0.11473
C_ C_ 0.0682836 0.14928 0.751066 -0.02249
C_ C_ 0.31825 0.155811 0.746234 -0.02249
C_ C_ 0.0159915 0.0335878 0.746678 -0.02249
C_ C_ 0.268634 0.0368911 0.748812 -0.02249
C_ C_ 0.0446028 0.0928598 0.710946 -0.11473
C_ C_ 0.296279 0.094143 0.708846 -0.11473
C_ C_ 0.0532609 0.133559 0.786523 -0.11473
C_ C_ 0.306326 0.137923 0.784672 -0.11473
C_ C_ 0.0626391 0.129548 0.712434 -0.11473
C_ C_ 0.310368 0.134666 0.708111 -0.11473
C_ C_ 0.0337456 0.0743217 0.746929 -0.02249
C_ C_ 0.288987 0.07564 0.746459 -0.02249
C_ C_ 0.0859781 0.187785 0.750892 0.6875
C_ C_ 0.336515 0.193098 0.748136 0.6875
C_ C_ 0.0414028 0.0934708 0.785955 -0.11473
C_ C_ 0.294019 0.0980094 0.783641 -0.11473
C_ C_ 0.128933 0.282193 0.881624 0.17695
C_ C_ 0.373476 0.284488 0.882487 0.17695
C_ C_ 0.130301 0.210935 0.874426 0.17695
C_ C_ 0.377894 0.213579 0.87568 0.17695
C_ C_ 0.131097 0.204746 0.918324 -0.11473
C_ C_ 0.376027 0.208261 0.918006 -0.11473
C_ C_ 0.13702 0.240168 0.945158 0.23465
C_ C_ 0.378126 0.24242 0.944949 0.23465
C_ C_ 0.134641 0.279874 0.926036 -0.11473
C_ C_ 0.376959 0.280745 0.92602 -0.11473
C_ C_ 0.126139 0.210639 0.625373 0.17695
C_ C_ 0.377505 0.221901 0.624864 0.17695
C_ C_ 0.120461 0.283896 0.618748 0.17695
C_ C_ 0.382651 0.295489 0.63021 0.17695
C_ C_ 0.123728 0.282402 0.573433 -0.11473
C_ C_ 0.388742 0.297992 0.587262 -0.11473
C_ C_ 0.127614 0.242037 0.555256 0.23465
C_ C_ 0.386382 0.261587 0.561308 0.23465
C_ C_ 0.130114 0.208136 0.583025 -0.11473
C_ C_ 0.383374 0.223212 0.582034 -0.11473
C_ C_ 0.0341815 0.498729 0.74527 0.05793
C_ C_ 0.278531 0.499373 0.752218 0.05793
C_ C_ 0.221207 0.00401011 0.761744 0.05793
C_ C_ 0.469421 0.998514 0.752032 0.05793
Br Br 0.0769359 0.500743 0.740328 -0.17191
Br Br 0.319785 0.501828 0.740187 -0.17191
Br Br 0.182094 0.0117972 0.779861 -0.17191
Br Br 0.428125 0.999703 0.774766 -0.17191
N_ N_ 0.128469 0.247924 0.856368 -0.272
N_ N_ 0.377028 0.250191 0.857131 -0.272
N_ N_ 0.14139 0.236771 0.989763 -0.12501
N_ N_ 0.380659 0.239714 0.989568 -0.12501
N_ N_ 0.122838 0.248509 0.643866 -0.272
N_ N_ 0.376464 0.257673 0.647313 -0.272
N_ N_ 0.128935 0.234502 0.511449 -0.12501
N_ N_ 0.384463 0.265663 0.516394 -0.12501
O_ O_ 0.0918283 0.288877 0.71742 -0.60745
O_ O_ 0.348496 0.299631 0.718523 -0.60745
O_ O_ 0.0943138 0.292525 0.784409 -0.60745
O_ O_ 0.344128 0.293776 0.786141 -0.60745
O_ O_ 0.154917 0.295027 0.781187 -0.60745
O_ O_ 0.405233 0.302033 0.786635 -0.60745
O_ O_ 0.157386 0.291884 0.711993 -0.60745
O_ O_ 0.410579 0.294705 0.719847 -0.60745
O_ O_ 0.158538 0.203864 0.781505 -0.60745
O_ O_ 0.410399 0.20929 0.786595 -0.60745
O_ O_ 0.156549 0.205228 0.713019 -0.60745
O_ O_ 0.406576 0.205178 0.71853 -0.60745
O_ O_ 0.0965313 0.201963 0.717776 -0.60745
O_ O_ 0.343696 0.208676 0.713464 -0.60745
O_ O_ 0.0970211 0.200541 0.784358 -0.60745
O_ O_ 0.347158 0.207809 0.781285 -0.60745
Zn Zn 0.126637 0.751711 0.291621 0.9476
Zn Zn 0.370293 0.753781 0.283852 0.9476
Zn Zn 0.124626 0.752404 0.224178 0.9476
Zn Zn 0.369887 0.752215 0.214294 0.9476
H_ H_ 0.0326599 0.924526 0.199247 0.10932
H_ H_ 0.295559 0.930636 0.192008 0.10932
H_ H_ 0.0560439 0.839876 0.327287 0.10932
H_ H_ 0.293227 0.841052 0.320604 0.10932
H_ H_ 0.0623136 0.857836 0.193057 0.10932
H_ H_ 0.324661 0.868143 0.194054 0.10932
H_ H_ 0.028107 0.906149 0.332288 0.10932
H_ H_ 0.270319 0.909695 0.323145 0.10932
H_ H_ 0.208117 0.928765 0.313956 0.10932
H_ H_ 0.482429 0.898877 0.30756 0.10932
H_ H_ 0.195707 0.848472 0.187328 0.10932
H_ H_ 0.408807 0.876804 0.18999 0.10932
H_ H_ 0.179016 0.866358 0.318674 0.10932
H_ H_ 0.453259 0.834517 0.307676 0.10932
H_ H_ 0.220602 0.911588 0.18351 0.10932
H_ H_ 0.43806 0.939963 0.195476 0.10932
H_ H_ 0.21103 0.580238 0.321274 0.10932
H_ H_ 0.463479 0.585696 0.308522 0.10932
H_ H_ 0.19168 0.660333 0.187253 0.10932
H_ H_ 0.419165 0.637067 0.17325 0.10932
H_ H_ 0.184594 0.648163 0.320442 0.10932
H_ H_ 0.43126 0.646508 0.304597 0.10932
H_ H_ 0.210668 0.586347 0.184985 0.10932
H_ H_ 0.453958 0.572849 0.172403 0.10932
H_ H_ 0.0187979 0.603883 0.187737 0.10932
H_ H_ 0.270587 0.594824 0.178336 0.10932
H_ H_ 0.0862085 0.62366 0.313345 0.10932
H_ H_ 0.324267 0.633751 0.307445 0.10932
H_ H_ 0.0464121 0.671 0.203166 0.10932
H_ H_ 0.29391 0.663396 0.183245 0.10932
H_ H_ 0.0598852 0.56114 0.306387 0.10932
H_ H_ 0.293991 0.566892 0.306573 0.10932
H_ H_ 0.121293 0.818357 0.361583 0.10932
H_ H_ 0.372421 0.817497 0.354296 0.10932
H_ H_ 0.13344 0.68924 0.366147 0.10932
H_ H_ 0.364988 0.68523 0.359391 0.10932
H_ H_ 0.142213 0.693892 0.447552 0.10932
H_ H_ 0.358949 0.689163 0.437455 0.10932
H_ H_ 0.127727 0.827034 0.440402 0.10932
H_ H_ 0.377107 0.818777 0.431604 0.10932
H_ H_ 0.115389 0.687409 0.154382 0.10932
H_ H_ 0.373645 0.821267 0.143097 0.10932
H_ H_ 0.125537 0.817768 0.143604 0.10932
H_ H_ 0.357593 0.692195 0.134382 0.10932
H_ H_ 0.138882 0.811274 0.0688594 0.10932
H_ H_ 0.351148 0.700561 0.056795 0.10932
H_ H_ 0.119492 0.678896 0.0762589 0.10932
H_ H_ 0.378162 0.826453 0.0697109 0.10932
C_ C_ 0.0644967 0.846182 0.258468 -0.02249
C_ C_ 0.310948 0.849097 0.255814 -0.02249
C_ C_ 0.0146246 0.96072 0.270435 -0.02249
C_ C_ 0.263656 0.965178 0.25786 -0.02249
C_ C_ 0.0415664 0.907819 0.22667 -0.11473
C_ C_ 0.295773 0.91325 0.220059 -0.11473
C_ C_ 0.0507032 0.85851 0.297531 -0.11473
C_ C_ 0.296838 0.863445 0.294523 -0.11473
C_ C_ 0.0566926 0.869361 0.222992 -0.11473
C_ C_ 0.309424 0.874339 0.219015 -0.11473
C_ C_ 0.0304923 0.920116 0.265739 -0.02249
C_ C_ 0.280345 0.925786 0.256618 -0.02249
C_ C_ 0.0868468 0.813358 0.258968 0.6875
C_ C_ 0.329176 0.810863 0.255135 0.6875
C_ C_ 0.0352458 0.896053 0.301259 -0.11473
C_ C_ 0.281822 0.90072 0.29301 -0.11473
C_ C_ 0.18232 0.850974 0.252705 -0.02249
C_ C_ 0.428994 0.849741 0.247576 -0.02249
C_ C_ 0.232345 0.965834 0.24682 -0.02249
C_ C_ 0.47985 0.962582 0.253844 -0.02249
C_ C_ 0.204054 0.911972 0.285694 -0.11473
C_ C_ 0.466468 0.893297 0.281702 -0.11473
C_ C_ 0.196597 0.864785 0.215631 -0.11473
C_ C_ 0.425826 0.880054 0.215158 -0.11473
C_ C_ 0.187572 0.875979 0.288428 -0.11473
C_ C_ 0.450303 0.857468 0.281235 -0.11473
C_ C_ 0.213792 0.927715 0.247853 -0.02249
C_ C_ 0.461628 0.924925 0.252201 -0.02249
C_ C_ 0.16103 0.814099 0.254451 0.6875
C_ C_ 0.40989 0.812155 0.246456 0.6875
C_ C_ 0.213201 0.900586 0.212715 -0.11473
C_ C_ 0.44088 0.917721 0.219329 -0.11473
C_ C_ 0.187651 0.658539 0.253019 -0.02249
C_ C_ 0.423671 0.646848 0.2396 -0.02249
C_ C_ 0.231759 0.539669 0.250664 -0.02249
C_ C_ 0.480013 0.534942 0.244307 -0.02249
C_ C_ 0.208355 0.597273 0.290833 -0.11473
C_ C_ 0.454683 0.596564 0.277256 -0.11473
C_ C_ 0.196966 0.642293 0.215743 -0.11473
C_ C_ 0.429366 0.623673 0.201769 -0.11473
C_ C_ 0.193682 0.636519 0.291878 -0.11473
C_ C_ 0.432539 0.627789 0.277238 -0.11473
C_ C_ 0.215469 0.579488 0.252288 -0.02249
C_ C_ 0.4618 0.575396 0.240387 -0.02249
C_ C_ 0.164739 0.692712 0.255722 0.6875
C_ C_ 0.405324 0.686519 0.239772 0.6875
C_ C_ 0.209765 0.603264 0.214562 -0.11473
C_ C_ 0.448416 0.589138 0.202886 -0.11473
C_ C_ 0.0687796 0.65245 0.255899 -0.02249
C_ C_ 0.310089 0.656565 0.247386 -0.02249
C_ C_ 0.0160312 0.536575 0.243828 -0.02249
C_ C_ 0.262704 0.539984 0.240562 -0.02249
C_ C_ 0.0346311 0.60677 0.215512 -0.11473
C_ C_ 0.278425 0.606108 0.207958 -0.11473
C_ C_ 0.0705448 0.621539 0.286637 -0.11473
C_ C_ 0.310315 0.628472 0.281146 -0.11473
C_ C_ 0.0499398 0.644872 0.221877 -0.11473
C_ C_ 0.293262 0.644016 0.2125 -0.11473
C_ C_ 0.0351979 0.576077 0.24776 -0.02249
C_ C_ 0.279222 0.579559 0.242279 -0.02249
C_ C_ 0.0859838 0.692668 0.257939 0.6875
C_ C_ 0.331002 0.692811 0.246879 0.6875
C_ C_ 0.0549694 0.584757 0.282149 -0.11473
C_ C_ 0.294521 0.589467 0.279256 -0.11473
C_ C_ 0.128196 0.791664 0.382838 0.17695
C_ C_ 0.373734 0.786977 0.373073 0.17695
C_ C_ 0.133379 0.718843 0.384885 0.17695
C_ C_ 0.365982 0.715129 0.375567 0.17695
C_ C_ 0.140692 0.720699 0.42822 -0.11473
C_ C_ 0.366857 0.716195 0.420711 -0.11473
C_ C_ 0.135255 0.758941 0.449863 0.23465
C_ C_ 0.372931 0.752813 0.44123 0.23465
C_ C_ 0.129356 0.795547 0.426269 -0.11473
C_ C_ 0.372596 0.788424 0.416407 -0.11473
C_ C_ 0.118895 0.713776 0.135544 0.17695
C_ C_ 0.36965 0.793969 0.12424 0.17695
C_ C_ 0.125257 0.787122 0.1292 0.17695
C_ C_ 0.360645 0.722731 0.119242 0.17695
C_ C_ 0.129158 0.782823 0.0843508 -0.11473
C_ C_ 0.359111 0.726143 0.0751989 -0.11473
C_ C_ 0.12511 0.744685 0.0651397 0.23465
C_ C_ 0.363378 0.763149 0.0568607 0.23465
C_ C_ 0.122149 0.708884 0.0909245 -0.11473
C_ C_ 0.369874 0.797701 0.0812356 -0.11473
C_ C_ 0.032559 0.997464 0.274407 0.05793
C_ C_ 0.278879 1.00359313 0.264256 0.05793
C_ C_ 0.217616 0.501175 0.254829 0.05793
C_ C_ 0.46735 0.496807 0.253599 0.05793
Br Br 0.0757632 -0.007330999999999976 0.282565 -0.17191
Br Br 0.319836 1.00549009 0.283495 -0.17191
Br Br 0.177435 0.498599 0.278189 -0.17191
Br Br 0.425229 0.500899 0.263402 -0.17191
N_ N_ 0.129231 0.753886 0.363458 -0.272
N_ N_ 0.37219 0.749324 0.3529 -0.272
N_ N_ 0.138955 0.764096 0.494672 -0.12501
N_ N_ 0.368699 0.757205 0.486295 -0.12501
N_ N_ 0.124585 0.751952 0.154383 -0.272
N_ N_ 0.366674 0.755537 0.142547 -0.272
N_ N_ 0.120647 0.742298 0.0191209 -0.12501
N_ N_ 0.360601 0.769551 0.0120257 -0.12501
O_ O_ 0.0957533 0.799606 0.225117 -0.60745
O_ O_ 0.336809 0.795909 0.221446 -0.60745
O_ O_ 0.0907981 0.79139 0.291787 -0.60745
O_ O_ 0.340328 0.795713 0.288364 -0.60745
O_ O_ 0.154106 0.799565 0.288999 -0.60745
O_ O_ 0.402222 0.795342 0.281375 -0.60745
O_ O_ 0.155904 0.794313 0.221911 -0.60745
O_ O_ 0.3995 0.798185 0.211516 -0.60745
O_ O_ 0.162752 0.712823 0.290654 -0.60745
O_ O_ 0.400355 0.705734 0.274712 -0.60745
O_ O_ 0.151014 0.707379 0.222385 -0.60745
O_ O_ 0.397769 0.703551 0.20473 -0.60745
O_ O_ 0.0942707 0.710166 0.223796 -0.60745
O_ O_ 0.337365 0.710273 0.21261 -0.60745
O_ O_ 0.0976876 0.703661 0.291916 -0.60745
O_ O_ 0.338912 0.709472 0.280986 -0.60745
Zn Zn 0.129347 0.749285 0.791707 0.9476
Zn Zn 0.373243 0.750527 0.784944 0.9476
Zn Zn 0.128359 0.751702 0.724383 0.9476
Zn Zn 0.37118 0.750701 0.716652 0.9476
H_ H_ 0.0219708 0.897251 0.689947 0.10932
H_ H_ 0.269814 0.911707 0.692878 0.10932
H_ H_ 0.0769344 0.859862 0.822357 0.10932
H_ H_ 0.322216 0.856129 0.814528 0.10932
H_ H_ 0.0448049 0.828442 0.699675 0.10932
H_ H_ 0.300611 0.850354 0.685809 0.10932
H_ H_ 0.0463739 0.926804 0.816272 0.10932
H_ H_ 0.296149 0.917806 0.821398 0.10932
H_ H_ 0.224594 0.908601 0.825589 0.10932
H_ H_ 0.470273 0.909706 0.817648 0.10932
H_ H_ 0.180372 0.862247 0.690653 0.10932
H_ H_ 0.423812 0.866858 0.684448 0.10932
H_ H_ 0.192723 0.849738 0.827559 0.10932
H_ H_ 0.442644 0.848555 0.815274 0.10932
H_ H_ 0.209397 0.924211 0.695294 0.10932
H_ H_ 0.449427 0.927885 0.688069 0.10932
H_ H_ 0.219176 0.58707 0.822224 0.10932
H_ H_ 0.459089 0.575407 0.812324 0.10932
H_ H_ 0.174867 0.639475 0.690761 0.10932
H_ H_ 0.445674 0.661542 0.686569 0.10932
H_ H_ 0.19466 0.653042 0.823853 0.10932
H_ H_ 0.429333 0.637993 0.815928 0.10932
H_ H_ 0.203225 0.575976 0.690065 0.10932
H_ H_ 0.471533 0.594522 0.68085 0.10932
H_ H_ 0.0289607 0.592046 0.689757 0.10932
H_ H_ 0.274899 0.587568 0.689772 0.10932
H_ H_ 0.0684574 0.640378 0.826968 0.10932
H_ H_ 0.31985 0.64369 0.8208 0.10932
H_ H_ 0.0606625 0.654612 0.691135 0.10932
H_ H_ 0.309293 0.646286 0.685325 0.10932
H_ H_ 0.0481566 0.573546 0.821458 0.10932
H_ H_ 0.283198 0.583427 0.821349 0.10932
H_ H_ 0.132244 0.823362 0.865278 0.10932
H_ H_ 0.371423 0.821749 0.858001 0.10932
H_ H_ 0.131646 0.690418 0.872595 0.10932
H_ H_ 0.37294 0.690993 0.853614 0.10932
H_ H_ 0.126319 0.696438 0.94866 0.10932
H_ H_ 0.379175 0.686311 0.930983 0.10932
H_ H_ 0.136 0.828177 0.93893 0.10932
H_ H_ 0.375232 0.818336 0.940057 0.10932
H_ H_ 0.126173 0.683665 0.65571 0.10932
H_ H_ 0.365372 0.813381 0.63645 0.10932
H_ H_ 0.138959 0.811096 0.643092 0.10932
H_ H_ 0.373031 0.685236 0.649608 0.10932
H_ H_ 0.138246 0.805693 0.565594 0.10932
H_ H_ 0.381657 0.674011 0.573771 0.10932
H_ H_ 0.124709 0.676018 0.578848 0.10932
H_ H_ 0.379622 0.807104 0.559381 0.10932
C_ C_ 0.0649149 0.843173 0.758219 -0.02249
C_ C_ 0.315017 0.848086 0.749722 -0.02249
C_ C_ 0.0154365 0.957704 0.746728 -0.02249
C_ C_ 0.265077 0.961755 0.757265 -0.02249
C_ C_ 0.0297078 0.887236 0.720272 -0.11473
C_ C_ 0.284116 0.901255 0.717862 -0.11473
C_ C_ 0.0639844 0.869416 0.793294 -0.11473
C_ C_ 0.311325 0.866622 0.787708 -0.11473
C_ C_ 0.0468385 0.851036 0.722748 -0.11473
C_ C_ 0.300318 0.865525 0.714928 -0.11473
C_ C_ 0.031207 0.917169 0.751672 -0.02249
C_ C_ 0.279957 0.920954 0.756352 -0.02249
C_ C_ 0.0858164 0.806159 0.758111 0.6875
C_ C_ 0.331843 0.808847 0.748615 0.6875
C_ C_ 0.0484436 0.907287 0.788926 -0.11473
C_ C_ 0.29484 0.903917 0.792378 -0.11473
C_ C_ 0.185059 0.850099 0.75954 -0.02249
C_ C_ 0.432407 0.847617 0.750348 -0.02249
C_ C_ 0.234813 0.964126 0.761327 -0.02249
C_ C_ 0.484661 0.96158 0.75506 -0.02249
C_ C_ 0.211291 0.901718 0.798444 -0.11473
C_ C_ 0.466201 0.89696 0.786633 -0.11473
C_ C_ 0.189627 0.871497 0.721655 -0.11473
C_ C_ 0.436549 0.871531 0.712845 -0.11473
C_ C_ 0.196321 0.86514 0.79755 -0.11473
C_ C_ 0.448769 0.860017 0.786918 -0.11473
C_ C_ 0.216113 0.925639 0.761285 -0.02249
C_ C_ 0.467081 0.921214 0.751546 -0.02249
C_ C_ 0.166638 0.810581 0.758264 0.6875
C_ C_ 0.411783 0.811018 0.750386 0.6875
C_ C_ 0.205024 0.909847 0.724431 -0.11473
C_ C_ 0.452547 0.907776 0.714842 -0.11473
C_ C_ 0.183269 0.653614 0.755355 -0.02249
C_ C_ 0.428883 0.650717 0.750547 -0.02249
C_ C_ 0.231865 0.536948 0.757462 -0.02249
C_ C_ 0.48449 0.540798 0.744442 -0.02249
C_ C_ 0.210734 0.599881 0.793471 -0.11473
C_ C_ 0.453603 0.592357 0.784028 -0.11473
C_ C_ 0.185795 0.63072 0.718732 -0.11473
C_ C_ 0.445222 0.641583 0.712651 -0.11473
C_ C_ 0.195874 0.63735 0.792991 -0.11473
C_ C_ 0.436187 0.627937 0.786842 -0.11473
C_ C_ 0.214466 0.577108 0.756319 -0.02249
C_ C_ 0.465842 0.578497 0.745686 -0.02249
C_ C_ 0.165071 0.691922 0.758809 0.6875
C_ C_ 0.411141 0.689261 0.753649 0.6875
C_ C_ 0.204316 0.595529 0.71636 -0.11473
C_ C_ 0.463147 0.60533 0.712324 -0.11473
C_ C_ 0.0718234 0.649153 0.757223 -0.02249
C_ C_ 0.314482 0.649619 0.753497 -0.02249
C_ C_ 0.0191955 0.536787 0.748516 -0.02249
C_ C_ 0.262822 0.538191 0.752884 -0.02249
C_ C_ 0.0425021 0.597724 0.717474 -0.11473
C_ C_ 0.288373 0.595634 0.715991 -0.11473
C_ C_ 0.0644955 0.629473 0.794063 -0.11473
C_ C_ 0.309257 0.629615 0.792667 -0.11473
C_ C_ 0.0603691 0.634092 0.718551 -0.11473
C_ C_ 0.307006 0.630332 0.715123 -0.11473
C_ C_ 0.0368492 0.575082 0.754255 -0.02249
C_ C_ 0.280842 0.577335 0.752825 -0.02249
C_ C_ 0.0919655 0.686029 0.757316 0.6875
C_ C_ 0.331226 0.68932 0.750966 0.6875
C_ C_ 0.0480137 0.590749 0.792724 -0.11473
C_ C_ 0.2917 0.593419 0.792638 -0.11473
C_ C_ 0.134363 0.79371 0.882326 0.17695
C_ C_ 0.373142 0.791737 0.875146 0.17695
C_ C_ 0.133132 0.721907 0.888155 0.17695
C_ C_ 0.376443 0.718638 0.8714 0.17695
C_ C_ 0.130428 0.725246 0.931458 -0.11473
C_ C_ 0.377635 0.716303 0.916811 -0.11473
C_ C_ 0.129372 0.76241 0.951433 0.23465
C_ C_ 0.372867 0.752154 0.940633 0.23465
C_ C_ 0.132887 0.796537 0.926104 -0.11473
C_ C_ 0.373309 0.79057 0.92091 -0.11473
C_ C_ 0.126397 0.711492 0.63561 0.17695
C_ C_ 0.370691 0.784035 0.62204 0.17695
C_ C_ 0.13498 0.781178 0.628789 0.17695
C_ C_ 0.376379 0.710366 0.629074 0.17695
C_ C_ 0.136108 0.778205 0.584626 -0.11473
C_ C_ 0.378972 0.704644 0.585992 -0.11473
C_ C_ 0.133529 0.740586 0.564649 0.23465
C_ C_ 0.37776 0.739826 0.55853 0.23465
C_ C_ 0.129168 0.705754 0.591591 -0.11473
C_ C_ 0.374317 0.780267 0.5786 -0.11473
C_ C_ 0.0318046 -0.0038449999999999873 0.741986 0.05793
C_ C_ 0.283049 -0.00269823 0.749035 0.05793
C_ C_ 0.216754 0.499243 0.760668 0.05793
C_ C_ 0.469742 0.501996 0.749915 0.05793
Br Br 0.0757187 -0.0044199999999999795 0.736543 -0.17191
Br Br 0.327293 -0.008225000000000038 0.746237 -0.17191
Br Br 0.174558 0.497036 0.780979 -0.17191
Br Br 0.42509 0.498509 0.75017 -0.17191
N_ N_ 0.133153 0.755669 0.864076 -0.272
N_ N_ 0.375283 0.756351 0.852356 -0.272
N_ N_ 0.133797 0.766251 0.994826 -0.12501
N_ N_ 0.374396 0.747287 0.985175 -0.12501
N_ N_ 0.128732 0.748064 0.65265 -0.272
N_ N_ 0.374001 0.74894 0.645502 -0.272
N_ N_ 0.134586 0.735206 0.519648 -0.12501
N_ N_ 0.383311 0.736125 0.513101 -0.12501
O_ O_ 0.0968743 0.794889 0.722915 -0.60745
O_ O_ 0.340337 0.796862 0.713258 -0.60745
O_ O_ 0.0958613 0.790987 0.793246 -0.60745
O_ O_ 0.344029 0.795225 0.779852 -0.60745
O_ O_ 0.154865 0.797757 0.790223 -0.60745
O_ O_ 0.407488 0.792148 0.78331 -0.60745
O_ O_ 0.157486 0.795804 0.723271 -0.60745
O_ O_ 0.403699 0.794696 0.716776 -0.60745
O_ O_ 0.163097 0.709947 0.794366 -0.60745
O_ O_ 0.40094 0.700122 0.788724 -0.60745
O_ O_ 0.156605 0.707638 0.72492 -0.60745
O_ O_ 0.399188 0.704026 0.721762 -0.60745
O_ O_ 0.0990362 0.702742 0.723089 -0.60745
O_ O_ 0.340397 0.703699 0.716224 -0.60745
O_ O_ 0.101605 0.70033 0.792057 -0.60745
O_ O_ 0.338495 0.706061 0.785204 -0.60745
Zn Zn 0.622568 0.249459 0.275074 0.9476
Zn Zn 0.878317 0.251799 0.280507 0.9476
Zn Zn 0.621764 0.245849 0.207908 0.9476
Zn Zn 0.876987 0.249201 0.209692 0.9476
H_ H_ 0.5326 0.41506 0.178238 0.10932
H_ H_ 0.784491 0.421163 0.182501 0.10932
H_ H_ 0.572819 0.35751 0.311798 0.10932
H_ H_ 0.819627 0.351174 0.312297 0.10932
H_ H_ 0.56582 0.359866 0.177102 0.10932
H_ H_ 0.819071 0.36095 0.177677 0.10932
H_ H_ 0.545864 0.422421 0.315774 0.10932
H_ H_ 0.782387 0.400631 0.317851 0.10932
H_ H_ 0.703367 0.422386 0.308878 0.10932
H_ H_ 0.978258 0.410029 0.311291 0.10932
H_ H_ 0.69532 0.339841 0.178595 0.10932
H_ H_ 0.918044 0.363512 0.184209 0.10932
H_ H_ 0.67623 0.360105 0.310903 0.10932
H_ H_ 0.94937 0.346303 0.311613 0.10932
H_ H_ 0.711905 0.417138 0.17851 0.10932
H_ H_ 0.949139 0.424485 0.181534 0.10932
H_ H_ 0.706984 0.0764312 0.30634 0.10932
H_ H_ 0.976892 0.0968086 0.32447 0.10932
H_ H_ 0.693526 0.151046 0.172041 0.10932
H_ H_ 0.938084 0.139933 0.18232 0.10932
H_ H_ 0.672243 0.135016 0.305317 0.10932
H_ H_ 0.941827 0.1574 0.316592 0.10932
H_ H_ 0.726258 0.0932135 0.178775 0.10932
H_ H_ 0.970018 0.0806189 0.187395 0.10932
H_ H_ 0.533665 0.0737729 0.183668 0.10932
H_ H_ 0.791482 0.0766125 0.175113 0.10932
H_ H_ 0.555834 0.154326 0.315166 0.10932
H_ H_ 0.810855 0.149284 0.309574 0.10932
H_ H_ 0.563733 0.135857 0.181377 0.10932
H_ H_ 0.827806 0.13701 0.176905 0.10932
H_ H_ 0.537566 0.0828142 0.319147 0.10932
H_ H_ 0.78289 0.0890764 0.310391 0.10932
H_ H_ 0.581707 0.239926 0.351175 0.10932
H_ H_ 0.894859 0.191415 0.361598 0.10932
H_ H_ 0.675594 0.245075 0.351831 0.10932
H_ H_ 0.860887 0.315199 0.345987 0.10932
H_ H_ 0.677232 0.247999 0.428433 0.10932
H_ H_ 0.851033 0.316384 0.424427 0.10932
H_ H_ 0.581787 0.252976 0.43008 0.10932
H_ H_ 0.88713 0.19441 0.437513 0.10932
H_ H_ 0.622109 0.188071 0.13127 0.10932
H_ H_ 0.838948 0.278471 0.1275 0.10932
H_ H_ 0.617574 0.319446 0.140526 0.10932
H_ H_ 0.924089 0.216455 0.136484 0.10932
H_ H_ 0.624674 0.32434 0.0632279 0.10932
H_ H_ 0.922722 0.204298 0.0634242 0.10932
H_ H_ 0.630917 0.191708 0.0561003 0.10932
H_ H_ 0.8409 0.273419 0.0508427 0.10932
C_ C_ 0.566825 0.347346 0.245766 -0.02249
C_ C_ 0.818052 0.347479 0.244434 -0.02249
C_ C_ 0.516061 0.461659 0.246444 -0.02249
C_ C_ 0.762688 0.459915 0.256271 -0.02249
C_ C_ 0.540643 0.402335 0.207925 -0.11473
C_ C_ 0.790527 0.405172 0.210746 -0.11473
C_ C_ 0.563059 0.368935 0.283026 -0.11473
C_ C_ 0.808894 0.363515 0.283564 -0.11473
C_ C_ 0.559428 0.369154 0.206854 -0.11473
C_ C_ 0.810935 0.370663 0.20745 -0.11473
C_ C_ 0.536034 0.423043 0.24601 -0.02249
C_ C_ 0.779823 0.419604 0.251326 -0.02249
C_ C_ 0.58564 0.310027 0.244783 0.6875
C_ C_ 0.839561 0.311132 0.241904 0.6875
C_ C_ 0.546422 0.405427 0.283876 -0.11473
C_ C_ 0.790062 0.396387 0.285519 -0.11473
C_ C_ 0.682054 0.344033 0.245288 -0.02249
C_ C_ 0.934186 0.347765 0.248194 -0.02249
C_ C_ 0.730933 0.459631 0.248479 -0.02249
C_ C_ 0.983826 0.460246 0.241523 -0.02249
C_ C_ 0.702149 0.404206 0.281307 -0.11473
C_ C_ 0.965643 0.399777 0.282511 -0.11473
C_ C_ 0.693791 0.360072 0.206958 -0.11473
C_ C_ 0.932924 0.371703 0.210967 -0.11473
C_ C_ 0.685276 0.368685 0.281489 -0.11473
C_ C_ 0.94872 0.363535 0.28355 -0.11473
C_ C_ 0.714279 0.419225 0.245289 -0.02249
C_ C_ 0.966201 0.422484 0.244902 -0.02249
C_ C_ 0.663705 0.304897 0.247157 0.6875
C_ C_ 0.917078 0.308006 0.24816 0.6875
C_ C_ 0.708431 0.399053 0.207255 -0.11473
C_ C_ 0.95166 0.406834 0.208899 -0.11473
C_ C_ 0.679089 0.150627 0.238401 -0.02249
C_ C_ 0.941326 0.1576 0.248707 -0.02249
C_ C_ 0.733807 0.0405736 0.243134 -0.02249
C_ C_ 0.987243 0.0404696 0.259719 -0.02249
C_ C_ 0.704151 0.0957294 0.278742 -0.11473
C_ C_ 0.968219 0.105537 0.292043 -0.11473
C_ C_ 0.691689 0.134529 0.202714 -0.11473
C_ C_ 0.949081 0.133971 0.212103 -0.11473
C_ C_ 0.685479 0.131122 0.277398 -0.11473
C_ C_ 0.949609 0.140967 0.288165 -0.11473
C_ C_ 0.716 0.0802007 0.242243 -0.02249
C_ C_ 0.97351 0.0821962 0.25623 -0.02249
C_ C_ 0.66198 0.190814 0.238172 0.6875
C_ C_ 0.919675 0.19208 0.248189 0.6875
C_ C_ 0.714508 0.10451 0.20581 -0.11473
C_ C_ 0.964357 0.0973627 0.215146 -0.11473
C_ C_ 0.560869 0.153986 0.245074 -0.02249
C_ C_ 0.816583 0.15289 0.242042 -0.02249
C_ C_ 0.513819 0.0364836 0.251655 -0.02249
C_ C_ 0.765631 0.0395365 0.244772 -0.02249
C_ C_ 0.537501 0.0929068 0.211074 -0.11473
C_ C_ 0.797151 0.0912596 0.205981 -0.11473
C_ C_ 0.554173 0.137103 0.285806 -0.11473
C_ C_ 0.805797 0.136214 0.278982 -0.11473
C_ C_ 0.550895 0.132158 0.208233 -0.11473
C_ C_ 0.812882 0.129816 0.20449 -0.11473
C_ C_ 0.529255 0.0772649 0.249976 -0.02249
C_ C_ 0.78188 0.0795073 0.242334 -0.02249
C_ C_ 0.582361 0.188999 0.242723 0.6875
C_ C_ 0.835845 0.191618 0.24427 0.6875
C_ C_ 0.540731 0.0966948 0.287378 -0.11473
C_ C_ 0.789819 0.0999315 0.280242 -0.11473
C_ C_ 0.601804 0.244103 0.369351 0.17695
C_ C_ 0.885136 0.218798 0.376115 0.17695
C_ C_ 0.655217 0.243363 0.367098 0.17695
C_ C_ 0.866449 0.287069 0.36611 0.17695
C_ C_ 0.656175 0.243507 0.411893 -0.11473
C_ C_ 0.860603 0.288532 0.410513 -0.11473
C_ C_ 0.631144 0.248086 0.435231 0.23465
C_ C_ 0.869043 0.256289 0.436864 0.23465
C_ C_ 0.602345 0.247714 0.4125 -0.11473
C_ C_ 0.882157 0.221448 0.418867 -0.11473
C_ C_ 0.620833 0.216934 0.116244 0.17695
C_ C_ 0.858465 0.263326 0.112474 0.17695
C_ C_ 0.62114 0.290047 0.121123 0.17695
C_ C_ 0.902401 0.225346 0.120271 0.17695
C_ C_ 0.62414 0.293434 0.0774423 -0.11473
C_ C_ 0.902222 0.216039 0.0772082 -0.11473
C_ C_ 0.628333 0.258068 0.0528642 0.23465
C_ C_ 0.879823 0.23415 0.0512909 0.23465
C_ C_ 0.62568 0.220319 0.0732621 -0.11473
C_ C_ 0.858788 0.258819 0.0692654 -0.11473
C_ C_ 0.529053 0.500514 0.241749 0.05793
C_ C_ 0.778491 0.497259 0.256547 0.05793
C_ C_ 0.717499 1.00245362 0.245223 0.05793
C_ C_ 0.970089 1.00449762 0.255899 0.05793
Br Br 0.571828 0.504647 0.242678 -0.17191
Br Br 0.820872 0.493019 0.266545 -0.17191
Br Br 0.674265 0.00434694 0.249825 -0.17191
Br Br 0.930315 0.0121939 0.23242 -0.17191
N_ N_ 0.628545 0.244068 0.346727 -0.272
N_ N_ 0.876914 0.251362 0.350351 -0.272
N_ N_ 0.632677 0.253733 0.481955 -0.12501
N_ N_ 0.863579 0.259705 0.481436 -0.12501
N_ N_ 0.620653 0.252415 0.14021 -0.272
N_ N_ 0.87857 0.244619 0.13809 -0.272
N_ N_ 0.63419 0.264011 0.00961706 -0.12501
N_ N_ 0.883349 0.230933 0.00631063 -0.12501
O_ O_ 0.590954 0.291702 0.210458 -0.60745
O_ O_ 0.848537 0.29559 0.207149 -0.60745
O_ O_ 0.599111 0.297548 0.277378 -0.60745
O_ O_ 0.846523 0.292922 0.276051 -0.60745
O_ O_ 0.655516 0.290426 0.282461 -0.60745
O_ O_ 0.905975 0.295608 0.282597 -0.60745
O_ O_ 0.652302 0.29007 0.212189 -0.60745
O_ O_ 0.907196 0.293871 0.213846 -0.60745
O_ O_ 0.648215 0.200055 0.270614 -0.60745
O_ O_ 0.910743 0.20958 0.281462 -0.60745
O_ O_ 0.65365 0.202599 0.202291 -0.60745
O_ O_ 0.90902 0.205362 0.214131 -0.60745
O_ O_ 0.590831 0.200838 0.206834 -0.60745
O_ O_ 0.84408 0.206757 0.21072 -0.60745
O_ O_ 0.588344 0.209398 0.275634 -0.60745
O_ O_ 0.846553 0.203325 0.278975 -0.60745
Zn Zn 0.623823 0.248465 0.78157 0.9476
Zn Zn 0.880501 0.250173 0.780196 0.9476
Zn Zn 0.624612 0.244429 0.709792 0.9476
Zn Zn 0.875417 0.250446 0.709838 0.9476
H_ H_ 0.521943 0.408952 0.687236 0.10932
H_ H_ 0.768327 0.397087 0.676896 0.10932
H_ H_ 0.58084 0.364145 0.81182 0.10932
H_ H_ 0.840136 0.376629 0.796563 0.10932
H_ H_ 0.553432 0.347197 0.682651 0.10932
H_ H_ 0.799864 0.336361 0.678065 0.10932
H_ H_ 0.55665 0.429958 0.812324 0.10932
H_ H_ 0.799448 0.427714 0.800618 0.10932
H_ H_ 0.729305 0.397285 0.8102 0.10932
H_ H_ 0.968674 0.415302 0.817761 0.10932
H_ H_ 0.660577 0.369936 0.690156 0.10932
H_ H_ 0.926133 0.365992 0.683489 0.10932
H_ H_ 0.706153 0.33054 0.802476 0.10932
H_ H_ 0.939098 0.348744 0.816483 0.10932
H_ H_ 0.694552 0.429656 0.686502 0.10932
H_ H_ 0.968663 0.417549 0.684677 0.10932
H_ H_ 0.718233 0.0834388 0.819765 0.10932
H_ H_ 0.972802 0.0835974 0.81717 0.10932
H_ H_ 0.698302 0.159206 0.682366 0.10932
H_ H_ 0.926184 0.135591 0.682543 0.10932
H_ H_ 0.68781 0.146665 0.813977 0.10932
H_ H_ 0.949053 0.152738 0.812898 0.10932
H_ H_ 0.72526 0.0942042 0.682809 0.10932
H_ H_ 0.958923 0.0761113 0.684586 0.10932
H_ H_ 0.510153 0.103515 0.68902 0.10932
H_ H_ 0.794571 0.0781426 0.680927 0.10932
H_ H_ 0.586304 0.128394 0.801712 0.10932
H_ H_ 0.81664 0.152484 0.816836 0.10932
H_ H_ 0.545472 0.161677 0.684594 0.10932
H_ H_ 0.815227 0.148839 0.681794 0.10932
H_ H_ 0.554401 0.0610902 0.802282 0.10932
H_ H_ 0.794625 0.0825724 0.816895 0.10932
H_ H_ 0.622298 0.313432 0.859231 0.10932
H_ H_ 0.916235 0.214666 0.860727 0.10932
H_ H_ 0.628467 0.185044 0.850553 0.10932
H_ H_ 0.837843 0.290443 0.850818 0.10932
H_ H_ 0.635145 0.176784 0.926665 0.10932
H_ H_ 0.832602 0.288709 0.924997 0.10932
H_ H_ 0.629873 0.30957 0.936927 0.10932
H_ H_ 0.911114 0.211455 0.937517 0.10932
H_ H_ 0.618269 0.308305 0.630497 0.10932
H_ H_ 0.847899 0.304913 0.626688 0.10932
H_ H_ 0.617755 0.178382 0.6391 0.10932
H_ H_ 0.903975 0.199246 0.64033 0.10932
H_ H_ 0.611808 0.170352 0.559918 0.10932
H_ H_ 0.906576 0.194578 0.566591 0.10932
H_ H_ 0.623667 0.302484 0.552359 0.10932
H_ H_ 0.845964 0.297048 0.551087 0.10932
C_ C_ 0.567259 0.348092 0.747728 -0.02249
C_ C_ 0.81917 0.346951 0.741605 -0.02249
C_ C_ 0.519115 0.46508 0.751801 -0.02249
C_ C_ 0.765291 0.455966 0.739608 -0.02249
C_ C_ 0.536959 0.400973 0.713576 -0.11473
C_ C_ 0.782313 0.392988 0.703839 -0.11473
C_ C_ 0.567377 0.37155 0.785075 -0.11473
C_ C_ 0.822834 0.378725 0.772515 -0.11473
C_ C_ 0.553104 0.363374 0.710688 -0.11473
C_ C_ 0.799325 0.35473 0.706064 -0.11473
C_ C_ 0.537408 0.424379 0.751321 -0.02249
C_ C_ 0.783268 0.418536 0.73872 -0.02249
C_ C_ 0.586941 0.309927 0.74841 0.6875
C_ C_ 0.839512 0.31083 0.74119 0.6875
C_ C_ 0.553841 0.410664 0.785062 -0.11473
C_ C_ 0.803155 0.4113 0.772306 -0.11473
C_ C_ 0.683213 0.343145 0.743468 -0.02249
C_ C_ 0.934638 0.349113 0.749156 -0.02249
C_ C_ 0.733915 0.4566 0.745742 -0.02249
C_ C_ 0.98518 0.461851 0.751991 -0.02249
C_ C_ 0.717096 0.390151 0.780655 -0.11473
C_ C_ 0.959729 0.401837 0.789731 -0.11473
C_ C_ 0.678423 0.374646 0.71213 -0.11473
C_ C_ 0.939187 0.371874 0.712411 -0.11473
C_ C_ 0.705031 0.350127 0.776521 -0.11473
C_ C_ 0.945156 0.363638 0.786425 -0.11473
C_ C_ 0.716057 0.416299 0.745753 -0.02249
C_ C_ 0.969231 0.420194 0.751819 -0.02249
C_ C_ 0.664359 0.305336 0.744976 0.6875
C_ C_ 0.914618 0.311314 0.748303 0.6875
C_ C_ 0.696497 0.407808 0.711699 -0.11473
C_ C_ 0.96078 0.404102 0.713971 -0.11473
C_ C_ 0.68744 0.153525 0.746945 -0.02249
C_ C_ 0.934025 0.14855 0.750114 -0.02249
C_ C_ 0.737984 0.0407067 0.747951 -0.02249
C_ C_ 0.983771 0.0352003 0.748882 -0.02249
C_ C_ 0.713037 0.0978 0.788517 -0.11473
C_ C_ 0.963408 0.0979667 0.787712 -0.11473
C_ C_ 0.701779 0.142026 0.711371 -0.11473
C_ C_ 0.937725 0.12617 0.712408 -0.11473
C_ C_ 0.696244 0.134713 0.78611 -0.11473
C_ C_ 0.947641 0.132926 0.787179 -0.11473
C_ C_ 0.722518 0.0810536 0.750234 -0.02249
C_ C_ 0.968594 0.0764669 0.750037 -0.02249
C_ C_ 0.664348 0.187204 0.745586 0.6875
C_ C_ 0.91754 0.188724 0.750403 0.6875
C_ C_ 0.718005 0.105394 0.713352 -0.11473
C_ C_ 0.954151 0.0886726 0.713074 -0.11473
C_ C_ 0.567577 0.149357 0.744836 -0.02249
C_ C_ 0.820763 0.153624 0.747317 -0.02249
C_ C_ 0.517007 0.0347742 0.742762 -0.02249
C_ C_ 0.770921 0.0376875 0.745825 -0.02249
C_ C_ 0.530891 0.104544 0.709215 -0.11473
C_ C_ 0.797509 0.0958889 0.710734 -0.11473
C_ C_ 0.570061 0.120727 0.776497 -0.11473
C_ C_ 0.811345 0.136764 0.787303 -0.11473
C_ C_ 0.549926 0.139052 0.708192 -0.11473
C_ C_ 0.810466 0.134495 0.710176 -0.11473
C_ C_ 0.533285 0.0755649 0.742216 -0.02249
C_ C_ 0.789829 0.0761665 0.74776 -0.02249
C_ C_ 0.586065 0.187982 0.746541 0.6875
C_ C_ 0.840493 0.191111 0.746131 0.6875
C_ C_ 0.554175 0.0822308 0.775226 -0.11473
C_ C_ 0.798444 0.0965045 0.787416 -0.11473
C_ C_ 0.625489 0.284654 0.875938 0.17695
C_ C_ 0.895288 0.226908 0.874209 0.17695
C_ C_ 0.629914 0.212099 0.870551 0.17695
C_ C_ 0.851392 0.268897 0.867192 0.17695
C_ C_ 0.634084 0.206758 0.914093 -0.11473
C_ C_ 0.848711 0.269143 0.910426 -0.11473
C_ C_ 0.632227 0.242115 0.938885 0.23465
C_ C_ 0.868398 0.245911 0.935732 0.23465
C_ C_ 0.629673 0.281314 0.919874 -0.11473
C_ C_ 0.892734 0.224946 0.917619 -0.11473
C_ C_ 0.618142 0.278497 0.614496 0.17695
C_ C_ 0.856188 0.277066 0.615497 0.17695
C_ C_ 0.617434 0.204677 0.619207 0.17695
C_ C_ 0.892251 0.222803 0.621791 0.17695
C_ C_ 0.612627 0.201772 0.574756 -0.11473
C_ C_ 0.893871 0.219579 0.579164 -0.11473
C_ C_ 0.616425 0.237557 0.550274 0.23465
C_ C_ 0.875347 0.244525 0.552995 0.23465
C_ C_ 0.62191 0.275121 0.570967 -0.11473
C_ C_ 0.857413 0.274397 0.572041 -0.11473
C_ C_ 0.534268 0.504891 0.748382 0.05793
C_ C_ 0.780963 0.492826 0.736019 0.05793
C_ C_ 0.720765 0.00516751 0.743236 0.05793
C_ C_ 0.968019 -0.0022529999999999495 0.756478 0.05793
Br Br 0.578758 0.504842 0.749422 -0.17191
Br Br 0.816771 0.493393 0.705219 -0.17191
Br Br 0.677285 0.00883307 0.74231 -0.17191
Br Br 0.925381 0.000140000000000029 0.775537 -0.17191
N_ N_ 0.626942 0.249956 0.852676 -0.272
N_ N_ 0.876138 0.250734 0.849647 -0.272
N_ N_ 0.62657 0.237899 0.982986 -0.12501
N_ N_ 0.86336 0.245722 0.980369 -0.12501
N_ N_ 0.618969 0.242776 0.637849 -0.272
N_ N_ 0.875777 0.254247 0.640882 -0.272
N_ N_ 0.61545 0.233383 0.505577 -0.12501
N_ N_ 0.875168 0.235034 0.508079 -0.12501
O_ O_ 0.595363 0.294328 0.71432 -0.60745
O_ O_ 0.841655 0.287527 0.709082 -0.60745
O_ O_ 0.594685 0.293632 0.784183 -0.60745
O_ O_ 0.852722 0.299914 0.774898 -0.60745
O_ O_ 0.653708 0.292488 0.7793 -0.60745
O_ O_ 0.910969 0.291783 0.781406 -0.60745
O_ O_ 0.656446 0.28742 0.710669 -0.60745
O_ O_ 0.903042 0.29774 0.715049 -0.60745
O_ O_ 0.655947 0.201381 0.779667 -0.60745
O_ O_ 0.909304 0.204735 0.7836 -0.60745
O_ O_ 0.651646 0.196644 0.71031 -0.60745
O_ O_ 0.908337 0.204561 0.715059 -0.60745
O_ O_ 0.59211 0.206165 0.712951 -0.60745
O_ O_ 0.849842 0.204943 0.710565 -0.60745
O_ O_ 0.593577 0.20471 0.781768 -0.60745
O_ O_ 0.846743 0.209534 0.779455 -0.60745
Zn Zn 0.62128 0.748045 0.285859 0.9476
Zn Zn 0.874558 0.749536 0.287828 0.9476
Zn Zn 0.623122 0.750332 0.214178 0.9476
Zn Zn 0.873575 0.749544 0.215972 0.9476
H_ H_ 0.538352 0.922867 0.185718 0.10932
H_ H_ 0.764725 0.897559 0.18993 0.10932
H_ H_ 0.561534 0.847068 0.316205 0.10932
H_ H_ 0.833421 0.873442 0.311543 0.10932
H_ H_ 0.5663 0.8533 0.184601 0.10932
H_ H_ 0.795991 0.838555 0.191723 0.10932
H_ H_ 0.530162 0.913209 0.318792 0.10932
H_ H_ 0.800194 0.938467 0.307996 0.10932
H_ H_ 0.719535 0.913553 0.313259 0.10932
H_ H_ 0.959172 0.92049 0.322963 0.10932
H_ H_ 0.680244 0.854043 0.178639 0.10932
H_ H_ 0.944605 0.848395 0.18693 0.10932
H_ H_ 0.677457 0.86456 0.315007 0.10932
H_ H_ 0.931039 0.855846 0.32122 0.10932
H_ H_ 0.709781 0.924272 0.180001 0.10932
H_ H_ 0.969708 0.911577 0.189783 0.10932
H_ H_ 0.718769 0.586999 0.317879 0.10932
H_ H_ 0.972322 0.587519 0.315723 0.10932
H_ H_ 0.671272 0.6381 0.183728 0.10932
H_ H_ 0.917194 0.631283 0.189435 0.10932
H_ H_ 0.692204 0.65304 0.318908 0.10932
H_ H_ 0.946447 0.655157 0.315576 0.10932
H_ H_ 0.702494 0.574988 0.185562 0.10932
H_ H_ 0.948256 0.570693 0.185703 0.10932
H_ H_ 0.535135 0.581912 0.177693 0.10932
H_ H_ 0.77108 0.583049 0.187038 0.10932
H_ H_ 0.559619 0.64026 0.317666 0.10932
H_ H_ 0.820807 0.641187 0.314022 0.10932
H_ H_ 0.558349 0.653005 0.181109 0.10932
H_ H_ 0.799916 0.649892 0.183973 0.10932
H_ H_ 0.529441 0.576469 0.310736 0.10932
H_ H_ 0.791537 0.580302 0.31663 0.10932
H_ H_ 0.616189 0.687408 0.365892 0.10932
H_ H_ 0.882201 0.805196 0.36496 0.10932
H_ H_ 0.630413 0.812858 0.358827 0.10932
H_ H_ 0.871644 0.678359 0.357822 0.10932
H_ H_ 0.634699 0.818862 0.43592 0.10932
H_ H_ 0.868934 0.671821 0.436726 0.10932
H_ H_ 0.613098 0.691174 0.443395 0.10932
H_ H_ 0.877381 0.803893 0.441588 0.10932
H_ H_ 0.621219 0.678286 0.140586 0.10932
H_ H_ 0.891581 0.692289 0.138419 0.10932
H_ H_ 0.623751 0.8101 0.134829 0.10932
H_ H_ 0.861916 0.818351 0.146674 0.10932
H_ H_ 0.626847 0.807075 0.0585105 0.10932
H_ H_ 0.858665 0.824303 0.069111 0.10932
H_ H_ 0.620499 0.673462 0.0638639 0.10932
H_ H_ 0.878061 0.694855 0.0596881 0.10932
C_ C_ 0.562926 0.844811 0.248454 -0.02249
C_ C_ 0.818153 0.851603 0.252794 -0.02249
C_ C_ 0.511884 0.959733 0.251862 -0.02249
C_ C_ 0.764075 0.962578 0.248437 -0.02249
C_ C_ 0.541604 0.904253 0.214182 -0.11473
C_ C_ 0.778304 0.892486 0.216688 -0.11473
C_ C_ 0.554408 0.862117 0.286469 -0.11473
C_ C_ 0.81767 0.879155 0.286553 -0.11473
C_ C_ 0.559123 0.868053 0.21296 -0.11473
C_ C_ 0.797174 0.859025 0.21837 -0.11473
C_ C_ 0.528749 0.919552 0.249916 -0.02249
C_ C_ 0.781111 0.922571 0.248394 -0.02249
C_ C_ 0.584132 0.808429 0.25017 0.6875
C_ C_ 0.837626 0.812677 0.254453 0.6875
C_ C_ 0.537965 0.900479 0.286874 -0.11473
C_ C_ 0.799421 0.914149 0.284682 -0.11473
C_ C_ 0.677087 0.854601 0.247192 -0.02249
C_ C_ 0.933055 0.848022 0.253798 -0.02249
C_ C_ 0.732512 0.963629 0.250272 -0.02249
C_ C_ 0.983074 0.964558 0.260752 -0.02249
C_ C_ 0.708014 0.903065 0.284582 -0.11473
C_ C_ 0.956499 0.905511 0.292892 -0.11473
C_ C_ 0.685236 0.871069 0.207689 -0.11473
C_ C_ 0.946994 0.863663 0.217116 -0.11473
C_ C_ 0.68801 0.871453 0.285066 -0.11473
C_ C_ 0.938827 0.868745 0.291437 -0.11473
C_ C_ 0.716126 0.923418 0.245691 -0.02249
C_ C_ 0.965346 0.924613 0.256101 -0.02249
C_ C_ 0.658394 0.814331 0.246689 0.6875
C_ C_ 0.915574 0.808995 0.250884 0.6875
C_ C_ 0.704238 0.907893 0.207591 -0.11473
C_ C_ 0.962665 0.901003 0.219317 -0.11473
C_ C_ 0.681675 0.651708 0.250688 -0.02249
C_ C_ 0.930586 0.648301 0.25295 -0.02249
C_ C_ 0.730492 0.536352 0.251147 -0.02249
C_ C_ 0.983877 0.535897 0.246634 -0.02249
C_ C_ 0.710326 0.599768 0.288638 -0.11473
C_ C_ 0.963968 0.600307 0.285986 -0.11473
C_ C_ 0.682473 0.627825 0.213301 -0.11473
C_ C_ 0.933267 0.624734 0.214452 -0.11473
C_ C_ 0.693475 0.635665 0.288721 -0.11473
C_ C_ 0.947104 0.636697 0.287088 -0.11473
C_ C_ 0.712386 0.576274 0.251604 -0.02249
C_ C_ 0.966311 0.575988 0.248921 -0.02249
C_ C_ 0.660092 0.688126 0.25181 0.6875
C_ C_ 0.912411 0.688866 0.25427 0.6875
C_ C_ 0.699051 0.590526 0.214627 -0.11473
C_ C_ 0.951039 0.589238 0.21247 -0.11473
C_ C_ 0.559393 0.654202 0.24995 -0.02249
C_ C_ 0.813967 0.651852 0.247957 -0.02249
C_ C_ 0.512823 0.536395 0.240833 -0.02249
C_ C_ 0.761999 0.5363 0.252477 -0.02249
C_ C_ 0.536299 0.599145 0.20627 -0.11473
C_ C_ 0.782524 0.596655 0.214728 -0.11473
C_ C_ 0.549991 0.632842 0.286177 -0.11473
C_ C_ 0.80933 0.632073 0.285919 -0.11473
C_ C_ 0.549721 0.637681 0.208883 -0.11473
C_ C_ 0.798969 0.633746 0.212432 -0.11473
C_ C_ 0.528803 0.577989 0.243018 -0.02249
C_ C_ 0.779252 0.577233 0.251578 -0.02249
C_ C_ 0.581031 0.691845 0.25105 0.6875
C_ C_ 0.832204 0.691881 0.247851 0.6875
C_ C_ 0.534912 0.594576 0.281889 -0.11473
C_ C_ 0.794518 0.593581 0.287066 -0.11473
C_ C_ 0.620794 0.715568 0.382632 0.17695
C_ C_ 0.875973 0.777263 0.37968 0.17695
C_ C_ 0.630677 0.786613 0.37751 0.17695
C_ C_ 0.869509 0.705579 0.375729 0.17695
C_ C_ 0.634217 0.789089 0.421761 -0.11473
C_ C_ 0.866757 0.702667 0.419714 -0.11473
C_ C_ 0.629562 0.755075 0.446882 0.23465
C_ C_ 0.870627 0.738241 0.444034 0.23465
C_ C_ 0.62159 0.718011 0.426446 -0.11473
C_ C_ 0.87403 0.775375 0.424287 -0.11473
C_ C_ 0.619445 0.706399 0.123877 0.17695
C_ C_ 0.88192 0.722224 0.12263 0.17695
C_ C_ 0.620778 0.779726 0.119073 0.17695
C_ C_ 0.865487 0.791208 0.127675 0.17695
C_ C_ 0.624649 0.777721 0.0759572 -0.11473
C_ C_ 0.86502 0.794837 0.0836714 -0.11473
C_ C_ 0.624332 0.739625 0.0552171 0.23465
C_ C_ 0.86914 0.760587 0.0580901 0.23465
C_ C_ 0.619434 0.703935 0.0800704 -0.11473
C_ C_ 0.876237 0.722726 0.0785125 -0.11473
C_ C_ 0.52893 0.998537 0.249957 0.05793
C_ C_ 0.780063 1.00143579 0.243073 0.05793
C_ C_ 0.715332 0.497324 0.249022 0.05793
C_ C_ 0.968329 0.497558 0.24617 0.05793
Br Br 0.571744 0.995811 0.265155 -0.17191
Br Br 0.822222 1.00052 0.232266 -0.17191
Br Br 0.672412 0.498726 0.257702 -0.17191
Br Br 0.924797 0.495989 0.25459 -0.17191
N_ N_ 0.628133 0.748846 0.359321 -0.272
N_ N_ 0.874942 0.741112 0.357388 -0.272
N_ N_ 0.628101 0.760678 0.491505 -0.12501
N_ N_ 0.868571 0.733042 0.489186 -0.12501
N_ N_ 0.619078 0.744617 0.141948 -0.272
N_ N_ 0.87556 0.755334 0.14639 -0.272
N_ N_ 0.627326 0.735211 0.0108833 -0.12501
N_ N_ 0.868093 0.766282 0.0133349 -0.12501
O_ O_ 0.592949 0.792696 0.215675 -0.60745
O_ O_ 0.841738 0.792235 0.220515 -0.60745
O_ O_ 0.590451 0.791302 0.284457 -0.60745
O_ O_ 0.848089 0.798868 0.289991 -0.60745
O_ O_ 0.648207 0.799262 0.281274 -0.60745
O_ O_ 0.90897 0.79028 0.284908 -0.60745
O_ O_ 0.652513 0.796449 0.211789 -0.60745
O_ O_ 0.903942 0.796461 0.216753 -0.60745
O_ O_ 0.654247 0.707157 0.286687 -0.60745
O_ O_ 0.901498 0.702134 0.288339 -0.60745
O_ O_ 0.653337 0.70735 0.216981 -0.60745
O_ O_ 0.903841 0.704522 0.219381 -0.60745
O_ O_ 0.591888 0.704985 0.217443 -0.60745
O_ O_ 0.843616 0.704301 0.213971 -0.60745
O_ O_ 0.58875 0.708069 0.286904 -0.60745
O_ O_ 0.841363 0.708386 0.28263 -0.60745
Zn Zn 0.63151 0.750021 0.785578 0.9476
Zn Zn 0.874358 0.749686 0.783557 0.9476
Zn Zn 0.627109 0.753754 0.717947 0.9476
Zn Zn 0.871943 0.748699 0.712335 0.9476
H_ H_ 0.522769 0.907104 0.689135 0.10932
H_ H_ 0.780803 0.907535 0.679636 0.10932
H_ H_ 0.578835 0.862352 0.817122 0.10932
H_ H_ 0.816453 0.854824 0.812746 0.10932
H_ H_ 0.546717 0.837336 0.691882 0.10932
H_ H_ 0.793376 0.835798 0.682594 0.10932
H_ H_ 0.551821 0.924822 0.815565 0.10932
H_ H_ 0.797647 0.926192 0.808366 0.10932
H_ H_ 0.706907 0.93058 0.810291 0.10932
H_ H_ 0.981242 0.895397 0.8113 0.10932
H_ H_ 0.692462 0.851342 0.677587 0.10932
H_ H_ 0.914962 0.871076 0.689745 0.10932
H_ H_ 0.681257 0.863508 0.811863 0.10932
H_ H_ 0.95389 0.83208 0.806661 0.10932
H_ H_ 0.720675 0.916185 0.674511 0.10932
H_ H_ 0.94017 0.936037 0.692358 0.10932
H_ H_ 0.725447 0.581054 0.820081 0.10932
H_ H_ 0.981785 0.595328 0.813696 0.10932
H_ H_ 0.675209 0.633244 0.688915 0.10932
H_ H_ 0.924463 0.636943 0.68461 0.10932
H_ H_ 0.693501 0.64264 0.821445 0.10932
H_ H_ 0.950135 0.660959 0.815318 0.10932
H_ H_ 0.706672 0.571285 0.688445 0.10932
H_ H_ 0.956895 0.57392 0.685142 0.10932
H_ H_ 0.551957 0.571286 0.683881 0.10932
H_ H_ 0.769234 0.591353 0.679361 0.10932
H_ H_ 0.555317 0.661128 0.809888 0.10932
H_ H_ 0.825294 0.635162 0.810602 0.10932
H_ H_ 0.586961 0.633374 0.68855 0.10932
H_ H_ 0.797342 0.651837 0.679825 0.10932
H_ H_ 0.524571 0.593968 0.807702 0.10932
H_ H_ 0.800323 0.563055 0.806125 0.10932
H_ H_ 0.639465 0.6863 0.865319 0.10932
H_ H_ 0.867198 0.684662 0.855768 0.10932
H_ H_ 0.631877 0.814217 0.849361 0.10932
H_ H_ 0.876292 0.814248 0.863388 0.10932
H_ H_ 0.625936 0.824867 0.928562 0.10932
H_ H_ 0.872359 0.809934 0.937468 0.10932
H_ H_ 0.639249 0.694216 0.941786 0.10932
H_ H_ 0.863848 0.678443 0.928495 0.10932
H_ H_ 0.631946 0.67774 0.647692 0.10932
H_ H_ 0.865109 0.817174 0.645969 0.10932
H_ H_ 0.627399 0.809985 0.638698 0.10932
H_ H_ 0.872289 0.685438 0.63347 0.10932
H_ H_ 0.63415 0.802676 0.562525 0.10932
H_ H_ 0.868915 0.690313 0.560498 0.10932
H_ H_ 0.635293 0.671699 0.572136 0.10932
H_ H_ 0.859251 0.82286 0.571096 0.10932
C_ C_ 0.566057 0.845472 0.752383 -0.02249
C_ C_ 0.809711 0.840687 0.747457 -0.02249
C_ C_ 0.516432 0.960303 0.751691 -0.02249
C_ C_ 0.766298 0.962334 0.742181 -0.02249
C_ C_ 0.535142 0.896511 0.717619 -0.11473
C_ C_ 0.783986 0.893801 0.708798 -0.11473
C_ C_ 0.563297 0.867329 0.790408 -0.11473
C_ C_ 0.808776 0.866927 0.782782 -0.11473
C_ C_ 0.55155 0.859586 0.716326 -0.11473
C_ C_ 0.796772 0.85576 0.709418 -0.11473
C_ C_ 0.532482 0.918379 0.755001 -0.02249
C_ C_ 0.78288 0.921697 0.744033 -0.02249
C_ C_ 0.587499 0.809068 0.751331 0.6875
C_ C_ 0.831731 0.805976 0.74751 0.6875
C_ C_ 0.546008 0.902958 0.790775 -0.11473
C_ C_ 0.793782 0.906104 0.782292 -0.11473
C_ C_ 0.688704 0.847809 0.746438 -0.02249
C_ C_ 0.931461 0.845794 0.746932 -0.02249
C_ C_ 0.734597 0.96643 0.743324 -0.02249
C_ C_ 0.982988 0.958657 0.750847 -0.02249
C_ C_ 0.705105 0.912283 0.780432 -0.11473
C_ C_ 0.968697 0.889586 0.782558 -0.11473
C_ C_ 0.697109 0.865915 0.70666 -0.11473
C_ C_ 0.929661 0.876016 0.715391 -0.11473
C_ C_ 0.692189 0.872381 0.782327 -0.11473
C_ C_ 0.952216 0.851679 0.780045 -0.11473
C_ C_ 0.716025 0.927802 0.742835 -0.02249
C_ C_ 0.964212 0.920642 0.751808 -0.02249
C_ C_ 0.66934 0.810999 0.748418 0.6875
C_ C_ 0.906626 0.812731 0.747127 0.6875
C_ C_ 0.711121 0.905682 0.704992 -0.11473
C_ C_ 0.94356 0.91416 0.717578 -0.11473
C_ C_ 0.686245 0.648687 0.75352 -0.02249
C_ C_ 0.935881 0.652412 0.750155 -0.02249
C_ C_ 0.735682 0.533063 0.750815 -0.02249
C_ C_ 0.987524 0.537719 0.750869 -0.02249
C_ C_ 0.714654 0.593302 0.79098 -0.11473
C_ C_ 0.969861 0.603195 0.786233 -0.11473
C_ C_ 0.688183 0.62479 0.716984 -0.11473
C_ C_ 0.939653 0.629109 0.712279 -0.11473
C_ C_ 0.698458 0.63019 0.791429 -0.11473
C_ C_ 0.95136 0.640173 0.785938 -0.11473
C_ C_ 0.718779 0.573551 0.753242 -0.02249
C_ C_ 0.970012 0.577186 0.751263 -0.02249
C_ C_ 0.670814 0.689842 0.753913 0.6875
C_ C_ 0.915774 0.692076 0.751686 0.6875
C_ C_ 0.706548 0.588468 0.715904 -0.11473
C_ C_ 0.957212 0.592896 0.712646 -0.11473
C_ C_ 0.574182 0.651163 0.75064 -0.02249
C_ C_ 0.814784 0.647764 0.744405 -0.02249
C_ C_ 0.517505 0.542355 0.744668 -0.02249
C_ C_ 0.766665 0.530955 0.741638 -0.02249
C_ C_ 0.55288 0.592305 0.711204 -0.11473
C_ C_ 0.783696 0.597037 0.706513 -0.11473
C_ C_ 0.555668 0.63934 0.784598 -0.11473
C_ C_ 0.815597 0.622656 0.781307 -0.11473
C_ C_ 0.572642 0.625397 0.714126 -0.11473
C_ C_ 0.797046 0.636738 0.708661 -0.11473
C_ C_ 0.53478 0.58205 0.744866 -0.02249
C_ C_ 0.784485 0.570516 0.74157 -0.02249
C_ C_ 0.591665 0.688535 0.751862 0.6875
C_ C_ 0.835505 0.685479 0.74344 0.6875
C_ C_ 0.534681 0.607359 0.780164 -0.11473
C_ C_ 0.79955 0.583659 0.779516 -0.11473
C_ C_ 0.635503 0.717055 0.879228 0.17695
C_ C_ 0.869471 0.711906 0.873516 0.17695
C_ C_ 0.63336 0.789232 0.871175 0.17695
C_ C_ 0.874856 0.785788 0.878413 0.17695
C_ C_ 0.631993 0.794838 0.915172 -0.11473
C_ C_ 0.874628 0.781714 0.922847 -0.11473
C_ C_ 0.632169 0.759867 0.941836 0.23465
C_ C_ 0.871539 0.74283 0.943235 0.23465
C_ C_ 0.634935 0.720922 0.92342 -0.11473
C_ C_ 0.869198 0.708226 0.91727 -0.11473
C_ C_ 0.629889 0.705469 0.630293 0.17695
C_ C_ 0.865144 0.788901 0.627574 0.17695
C_ C_ 0.627452 0.778659 0.623574 0.17695
C_ C_ 0.872669 0.715867 0.620687 0.17695
C_ C_ 0.629148 0.775678 0.579068 -0.11473
C_ C_ 0.866589 0.718813 0.579075 -0.11473
C_ C_ 0.63088 0.736621 0.5609 0.23465
C_ C_ 0.865819 0.757058 0.558646 0.23465
C_ C_ 0.632181 0.701713 0.586471 -0.11473
C_ C_ 0.862904 0.792572 0.584062 -0.11473
C_ C_ 0.532623 -0.0035809999999999453 0.746362 0.05793
C_ C_ 0.784474 -0.00207269 0.742764 0.05793
C_ C_ 0.719147 0.495153 0.754865 0.05793
C_ C_ 0.97129 0.49937 0.755399 0.05793
Br Br 0.574017 -0.006337000000000037 0.733773 -0.17191
Br Br 0.82632 0.99448 0.735708 -0.17191
Br Br 0.675343 0.499021 0.761764 -0.17191
Br Br 0.927651 0.50168 0.761122 -0.17191
N_ N_ 0.627881 0.750324 0.854712 -0.272
N_ N_ 0.87171 0.749416 0.85444 -0.272
N_ N_ 0.626959 0.765494 0.986356 -0.12501
N_ N_ 0.872362 0.736305 0.988376 -0.12501
N_ N_ 0.626951 0.743214 0.64794 -0.272
N_ N_ 0.86806 0.749788 0.644034 -0.272
N_ N_ 0.632684 0.730103 0.516366 -0.12501
N_ N_ 0.866042 0.763039 0.513987 -0.12501
O_ O_ 0.597152 0.796609 0.717078 -0.60745
O_ O_ 0.83838 0.788301 0.713698 -0.60745
O_ O_ 0.595625 0.791278 0.785456 -0.60745
O_ O_ 0.841713 0.790251 0.781814 -0.60745
O_ O_ 0.659008 0.798799 0.783234 -0.60745
O_ O_ 0.899839 0.7962 0.7808 -0.60745
O_ O_ 0.661457 0.793437 0.714301 -0.60745
O_ O_ 0.897604 0.796588 0.713048 -0.60745
O_ O_ 0.663448 0.706093 0.788146 -0.60745
O_ O_ 0.906944 0.706222 0.786059 -0.60745
O_ O_ 0.657418 0.703089 0.720563 -0.60745
O_ O_ 0.906681 0.708378 0.716045 -0.60745
O_ O_ 0.595047 0.710539 0.718583 -0.60745
O_ O_ 0.843785 0.698718 0.708309 -0.60745
O_ O_ 0.60197 0.699518 0.787566 -0.60745
O_ O_ 0.846488 0.699967 0.778133 -0.60745
