_cell_length_a 44.444
_cell_length_b 32.3360000049186
_cell_length_c 31.843999878906452
_cell_angle_alpha 89.99799923859553
_cell_angle_beta 91.13600050494348
_cell_angle_gamma 89.9990006550086
_symmetry_space_group_name_H-M         'P 1'
_symmetry_Int_Tables_number            1
loop_
_symmetry_equiv_pos_as_xyz
   'x, y, z'
                         
loop_
_atom_site_label
_atom_site_type_symbol
_atom_site_fract_x 
_atom_site_fract_y
_atom_site_fract_z
_atom_site_charge
Zn Zn 0.131172 0.256648 0.28941 0.9476
Zn Zn 0.37317 0.252817 0.285237 0.9476
Zn Zn 0.130182 0.254805 0.220517 0.9476
Zn Zn 0.371636 0.253026 0.216832 0.9476
H_ H_ 0.030819 0.413059 0.184275 0.10932
H_ H_ 0.282253 0.423583 0.192499 0.10932
H_ H_ 0.0637812 0.351028 0.32003 0.10932
H_ H_ 0.325796 0.36711 0.323941 0.10932
H_ H_ 0.0655759 0.354346 0.186188 0.10932
H_ H_ 0.306792 0.353663 0.19295 0.10932
H_ H_ 0.0319301 0.413676 0.320739 0.10932
H_ H_ 0.302929 0.43574 0.325585 0.10932
H_ H_ 0.231492 0.41544 0.316994 0.10932
H_ H_ 0.456241 0.422897 0.319512 0.10932
H_ H_ 0.185626 0.362836 0.184039 0.10932
H_ H_ 0.445312 0.345663 0.185729 0.10932
H_ H_ 0.207112 0.349446 0.315943 0.10932
H_ H_ 0.431893 0.357504 0.321094 0.10932
H_ H_ 0.20717 0.432346 0.188276 0.10932
H_ H_ 0.471495 0.410221 0.185181 0.10932
H_ H_ 0.222722 0.0886524 0.327969 0.10932
H_ H_ 0.476613 0.0997976 0.309766 0.10932
H_ H_ 0.177686 0.144264 0.195854 0.10932
H_ H_ 0.419787 0.1431 0.182478 0.10932
H_ H_ 0.198623 0.155332 0.328724 0.10932
H_ H_ 0.443829 0.159702 0.313068 0.10932
H_ H_ 0.198755 0.0750826 0.199866 0.10932
H_ H_ 0.449525 0.0784869 0.181083 0.10932
H_ H_ 0.0334283 0.0910749 0.182201 0.10932
H_ H_ 0.280049 0.0875437 0.18434 0.10932
H_ H_ 0.064973 0.156826 0.315391 0.10932
H_ H_ 0.31275 0.144765 0.321556 0.10932
H_ H_ 0.0688822 0.152823 0.182926 0.10932
H_ H_ 0.308205 0.150418 0.185293 0.10932
H_ H_ 0.0350223 0.0954963 0.314695 0.10932
H_ H_ 0.291379 0.0775554 0.319189 0.10932
H_ H_ 0.126882 0.197481 0.367891 0.10932
H_ H_ 0.322314 0.256355 0.359027 0.10932
H_ H_ 0.138229 0.327759 0.364991 0.10932
H_ H_ 0.417342 0.248496 0.364978 0.10932
H_ H_ 0.135186 0.33183 0.440686 0.10932
H_ H_ 0.414672 0.242063 0.447753 0.10932
H_ H_ 0.119864 0.200244 0.445828 0.10932
H_ H_ 0.320586 0.267705 0.434565 0.10932
H_ H_ 0.123177 0.322168 0.149394 0.10932
H_ H_ 0.365198 0.19141 0.139694 0.10932
H_ H_ 0.139041 0.189732 0.14152 0.10932
H_ H_ 0.359565 0.319692 0.147965 0.10932
H_ H_ 0.134876 0.196377 0.062573 0.10932
H_ H_ 0.365343 0.328828 0.0719654 0.10932
H_ H_ 0.117558 0.324809 0.0725443 0.10932
H_ H_ 0.374429 0.197228 0.063419 0.10932
C_ C_ 0.0700326 0.352553 0.252393 -0.02249
C_ C_ 0.317674 0.356218 0.258433 -0.02249
C_ C_ 0.0164065 0.463171 0.252154 -0.02249
C_ C_ 0.267725 0.473063 0.26183 -0.02249
C_ C_ 0.0414433 0.406016 0.214963 -0.11473
C_ C_ 0.291249 0.412365 0.223223 -0.11473
C_ C_ 0.0604948 0.368784 0.290987 -0.11473
C_ C_ 0.315082 0.378254 0.296518 -0.11473
C_ C_ 0.0589006 0.370264 0.21465 -0.11473
C_ C_ 0.304669 0.372571 0.221659 -0.11473
C_ C_ 0.0317113 0.422742 0.252522 -0.02249
C_ C_ 0.287046 0.433401 0.261547 -0.02249
C_ C_ 0.0919112 0.316061 0.253107 0.6875
C_ C_ 0.334463 0.315285 0.258795 0.6875
C_ C_ 0.0412979 0.404248 0.290678 -0.11473
C_ C_ 0.300741 0.416706 0.297707 -0.11473
C_ C_ 0.189433 0.353343 0.252146 -0.02249
C_ C_ 0.434732 0.348319 0.251711 -0.02249
C_ C_ 0.235677 0.471088 0.255455 -0.02249
C_ C_ 0.483111 0.46456 0.252274 -0.02249
C_ C_ 0.221858 0.404509 0.28796 -0.11473
C_ C_ 0.457652 0.40416 0.290423 -0.11473
C_ C_ 0.191463 0.377233 0.214002 -0.11473
C_ C_ 0.447637 0.363227 0.215082 -0.11473
C_ C_ 0.205291 0.368147 0.289245 -0.11473
C_ C_ 0.438911 0.369846 0.289218 -0.11473
C_ C_ 0.220081 0.430141 0.253576 -0.02249
C_ C_ 0.468176 0.421314 0.252224 -0.02249
C_ C_ 0.170106 0.315787 0.255063 0.6875
C_ C_ 0.415372 0.310262 0.251927 0.6875
C_ C_ 0.208064 0.413966 0.21577 -0.11473
C_ C_ 0.462427 0.400897 0.214355 -0.11473
C_ C_ 0.188066 0.156818 0.261242 -0.02249
C_ C_ 0.433331 0.158846 0.245223 -0.02249
C_ C_ 0.234622 0.0376672 0.255998 -0.02249
C_ C_ 0.483442 0.0446098 0.245989 -0.02249
C_ C_ 0.216092 0.102492 0.298591 -0.11473
C_ C_ 0.464684 0.110267 0.281259 -0.11473
C_ C_ 0.191317 0.134248 0.223738 -0.11473
C_ C_ 0.435408 0.135693 0.209428 -0.11473
C_ C_ 0.200822 0.141076 0.298592 -0.11473
C_ C_ 0.447428 0.146157 0.281983 -0.11473
C_ C_ 0.217583 0.0785928 0.260203 -0.02249
C_ C_ 0.466642 0.085673 0.245141 -0.02249
C_ C_ 0.167556 0.194848 0.259123 0.6875
C_ C_ 0.408954 0.192478 0.245645 0.6875
C_ C_ 0.204802 0.0953226 0.22482 -0.11473
C_ C_ 0.453122 0.0998799 0.207893 -0.11473
C_ C_ 0.0724996 0.156834 0.247587 -0.02249
C_ C_ 0.311534 0.156808 0.252952 -0.02249
C_ C_ 0.017805 0.043853 0.247435 -0.02249
C_ C_ 0.26624 0.0383633 0.25047 -0.02249
C_ C_ 0.0438382 0.101663 0.210144 -0.11473
C_ C_ 0.28574 0.101104 0.215423 -0.11473
C_ C_ 0.0620774 0.140185 0.285253 -0.11473
C_ C_ 0.304143 0.135404 0.291005 -0.11473
C_ C_ 0.0633657 0.137019 0.210778 -0.11473
C_ C_ 0.302009 0.137671 0.215502 -0.11473
C_ C_ 0.0359469 0.0837549 0.248325 -0.02249
C_ C_ 0.282395 0.0781863 0.252751 -0.02249
C_ C_ 0.0930362 0.194802 0.24975 0.6875
C_ C_ 0.332886 0.194669 0.253744 0.6875
C_ C_ 0.0451472 0.104552 0.28588 -0.11473
C_ C_ 0.28958 0.0966232 0.291787 -0.11473
C_ C_ 0.128082 0.226414 0.384616 0.17695
C_ C_ 0.34298 0.255312 0.377953 0.17695
C_ C_ 0.133841 0.298958 0.382495 0.17695
C_ C_ 0.396269 0.247961 0.384109 0.17695
C_ C_ 0.13296 0.301751 0.426934 -0.11473
C_ C_ 0.394174 0.247194 0.428825 -0.11473
C_ C_ 0.126873 0.265878 0.449953 0.23465
C_ C_ 0.366012 0.254562 0.446614 0.23465
C_ C_ 0.127617 0.227886 0.42886 -0.11473
C_ C_ 0.341144 0.259893 0.422035 -0.11473
C_ C_ 0.124152 0.292497 0.130214 0.17695
C_ C_ 0.36774 0.221063 0.124179 0.17695
C_ C_ 0.136424 0.218946 0.125848 0.17695
C_ C_ 0.361943 0.294569 0.127312 0.17695
C_ C_ 0.130894 0.2211 0.0823496 -0.11473
C_ C_ 0.367581 0.298625 0.085523 -0.11473
C_ C_ 0.125962 0.260142 0.0619817 0.23465
C_ C_ 0.369899 0.262794 0.0593408 0.23465
C_ C_ 0.122448 0.294735 0.0870536 -0.11473
C_ C_ 0.372844 0.224657 0.0806127 -0.11473
C_ C_ 0.0319311 0.500288 0.257101 0.05793
C_ C_ 0.282482 0.510971 0.265559 0.05793
C_ C_ 0.217683 0.00202489 0.258316 0.05793
C_ C_ 0.466952 1.00670701 0.246249 0.05793
Br Br 0.0728822 0.498298 0.275333 -0.17191
Br Br 0.32601 0.517002 0.281452 -0.17191
Br Br 0.175235 0.0023738 0.273193 -0.17191
Br Br 0.423753 1.00679439 0.244482 -0.17191
N_ N_ 0.130248 0.262482 0.361768 -0.272
N_ N_ 0.370759 0.250212 0.359939 -0.272
N_ N_ 0.121873 0.270539 0.4948 -0.12501
N_ N_ 0.3618 0.250654 0.491037 -0.12501
N_ N_ 0.130915 0.255028 0.148549 -0.272
N_ N_ 0.366286 0.25667 0.146393 -0.272
N_ N_ 0.121529 0.264244 0.0173678 -0.12501
N_ N_ 0.371516 0.266828 0.0143356 -0.12501
O_ O_ 0.100975 0.299762 0.22008 -0.60745
O_ O_ 0.339845 0.297639 0.224249 -0.60745
O_ O_ 0.0997906 0.300334 0.28729 -0.60745
O_ O_ 0.350006 0.305116 0.291207 -0.60745
O_ O_ 0.159364 0.304192 0.289708 -0.60745
O_ O_ 0.412198 0.289147 0.285403 -0.60745
O_ O_ 0.162183 0.296603 0.220447 -0.60745
O_ O_ 0.400703 0.299963 0.217978 -0.60745
O_ O_ 0.164909 0.217416 0.291241 -0.60745
O_ O_ 0.397599 0.202341 0.280567 -0.60745
O_ O_ 0.161299 0.210256 0.223834 -0.60745
O_ O_ 0.402414 0.213879 0.213133 -0.60745
O_ O_ 0.0981712 0.215594 0.217111 -0.60745
O_ O_ 0.344738 0.204394 0.220816 -0.60745
O_ O_ 0.105484 0.206961 0.284749 -0.60745
O_ O_ 0.336969 0.21752 0.28547 -0.60745
Zn Zn 0.127897 0.243482 0.787134 0.9476
Zn Zn 0.377623 0.249321 0.786089 0.9476
Zn Zn 0.127186 0.243693 0.719913 0.9476
Zn Zn 0.376565 0.247306 0.71996 0.9476
H_ H_ 0.0225373 0.402221 0.688944 0.10932
H_ H_ 0.271906 0.399959 0.691429 0.10932
H_ H_ 0.0720325 0.349327 0.822082 0.10932
H_ H_ 0.332675 0.366211 0.81917 0.10932
H_ H_ 0.0510489 0.338197 0.688631 0.10932
H_ H_ 0.300155 0.337841 0.692848 0.10932
H_ H_ 0.0359909 0.410142 0.821357 0.10932
H_ H_ 0.306081 0.429931 0.817229 0.10932
H_ H_ 0.21048 0.416297 0.821214 0.10932
H_ H_ 0.478509 0.410673 0.815451 0.10932
H_ H_ 0.192699 0.343945 0.685782 0.10932
H_ H_ 0.424797 0.357334 0.688355 0.10932
H_ H_ 0.188095 0.348346 0.820121 0.10932
H_ H_ 0.441526 0.353233 0.821165 0.10932
H_ H_ 0.220885 0.407657 0.684302 0.10932
H_ H_ 0.458741 0.414597 0.683324 0.10932
H_ H_ 0.213961 0.0731731 0.817956 0.10932
H_ H_ 0.470198 0.0812245 0.813015 0.10932
H_ H_ 0.19581 0.151417 0.684205 0.10932
H_ H_ 0.441007 0.15171 0.681251 0.10932
H_ H_ 0.1938 0.141889 0.817652 0.10932
H_ H_ 0.441804 0.145333 0.817044 0.10932
H_ H_ 0.223891 0.0868361 0.681001 0.10932
H_ H_ 0.470047 0.0854296 0.678532 0.10932
H_ H_ 0.0519755 0.0686333 0.690808 0.10932
H_ H_ 0.308088 0.0652532 0.682047 0.10932
H_ H_ 0.0469367 0.16134 0.811051 0.10932
H_ H_ 0.311941 0.147353 0.811431 0.10932
H_ H_ 0.0747171 0.137735 0.685849 0.10932
H_ H_ 0.340812 0.12642 0.686589 0.10932
H_ H_ 0.0294029 0.0898723 0.816337 0.10932
H_ H_ 0.281306 0.0854843 0.80661 0.10932
H_ H_ 0.108329 0.307104 0.867856 0.10932
H_ H_ 0.368989 0.310098 0.867251 0.10932
H_ H_ 0.135641 0.180564 0.859623 0.10932
H_ H_ 0.382829 0.18403 0.854452 0.10932
H_ H_ 0.142427 0.182834 0.937451 0.10932
H_ H_ 0.394645 0.17844 0.933603 0.10932
H_ H_ 0.106012 0.301574 0.942896 0.10932
H_ H_ 0.36916 0.305934 0.943352 0.10932
H_ H_ 0.13406 0.183483 0.650499 0.10932
H_ H_ 0.372336 0.186361 0.638522 0.10932
H_ H_ 0.118124 0.311473 0.643365 0.10932
H_ H_ 0.380356 0.315685 0.65292 0.10932
H_ H_ 0.11293 0.307209 0.566841 0.10932
H_ H_ 0.376178 0.323604 0.57787 0.10932
H_ H_ 0.128967 0.17836 0.572971 0.10932
H_ H_ 0.372638 0.192059 0.562486 0.10932
C_ C_ 0.0656827 0.341254 0.755225 -0.02249
C_ C_ 0.316773 0.34504 0.757388 -0.02249
C_ C_ 0.01426 0.455863 0.753432 -0.02249
C_ C_ 0.269263 0.458921 0.753872 -0.02249
C_ C_ 0.034425 0.393217 0.71619 -0.11473
C_ C_ 0.286145 0.39615 0.720252 -0.11473
C_ C_ 0.0628712 0.363288 0.792202 -0.11473
C_ C_ 0.319926 0.372938 0.792477 -0.11473
C_ C_ 0.049981 0.356183 0.716802 -0.11473
C_ C_ 0.300448 0.357422 0.721854 -0.11473
C_ C_ 0.0296225 0.414535 0.753868 -0.02249
C_ C_ 0.287757 0.422344 0.754715 -0.02249
C_ C_ 0.0857769 0.30435 0.753566 0.6875
C_ C_ 0.334231 0.30511 0.755048 0.6875
C_ C_ 0.0429667 0.396707 0.792535 -0.11473
C_ C_ 0.304324 0.410175 0.790943 -0.11473
C_ C_ 0.189077 0.339748 0.753227 -0.02249
C_ C_ 0.432259 0.34913 0.755484 -0.02249
C_ C_ 0.237817 0.456255 0.752566 -0.02249
C_ C_ 0.487939 0.457167 0.749453 -0.02249
C_ C_ 0.212585 0.397957 0.791316 -0.11473
C_ C_ 0.465393 0.399558 0.788272 -0.11473
C_ C_ 0.198657 0.357015 0.71507 -0.11473
C_ C_ 0.438201 0.367012 0.716542 -0.11473
C_ C_ 0.198044 0.359307 0.790708 -0.11473
C_ C_ 0.445113 0.366414 0.791326 -0.11473
C_ C_ 0.222507 0.413648 0.753409 -0.02249
C_ C_ 0.470636 0.417556 0.749817 -0.02249
C_ C_ 0.170233 0.303288 0.752676 0.6875
C_ C_ 0.413789 0.309572 0.757567 0.6875
C_ C_ 0.213871 0.394516 0.715203 -0.11473
C_ C_ 0.456132 0.402824 0.713593 -0.11473
C_ C_ 0.189993 0.150877 0.75122 -0.02249
C_ C_ 0.435946 0.151798 0.749997 -0.02249
C_ C_ 0.238887 0.0350451 0.745426 -0.02249
C_ C_ 0.484232 0.0356999 0.744214 -0.02249
C_ C_ 0.214093 0.0935972 0.787314 -0.11473
C_ C_ 0.461281 0.0935484 0.784209 -0.11473
C_ C_ 0.19993 0.135797 0.7119 -0.11473
C_ C_ 0.446675 0.135316 0.710851 -0.11473
C_ C_ 0.199328 0.130356 0.788329 -0.11473
C_ C_ 0.445992 0.132441 0.786676 -0.11473
C_ C_ 0.224373 0.0772913 0.748604 -0.02249
C_ C_ 0.468402 0.0768092 0.745296 -0.02249
C_ C_ 0.168219 0.185562 0.751777 0.6875
C_ C_ 0.41585 0.188529 0.752176 0.6875
C_ C_ 0.217497 0.100176 0.711762 -0.11473
C_ C_ 0.463038 0.0990386 0.708855 -0.11473
C_ C_ 0.0662405 0.152042 0.750702 -0.02249
C_ C_ 0.322088 0.147648 0.744785 -0.02249
C_ C_ 0.0173798 0.0341215 0.752201 -0.02249
C_ C_ 0.270313 0.0334551 0.742767 -0.02249
C_ C_ 0.0524259 0.0877819 0.717016 -0.11473
C_ C_ 0.306258 0.0844753 0.708343 -0.11473
C_ C_ 0.0499514 0.139464 0.786006 -0.11473
C_ C_ 0.306908 0.134202 0.781246 -0.11473
C_ C_ 0.0673991 0.125604 0.715917 -0.11473
C_ C_ 0.322732 0.121286 0.708352 -0.11473
C_ C_ 0.0358983 0.0734672 0.752717 -0.02249
C_ C_ 0.289138 0.0734708 0.743254 -0.02249
C_ C_ 0.0848342 0.189632 0.75105 0.6875
C_ C_ 0.339249 0.187882 0.743955 0.6875
C_ C_ 0.0350475 0.100372 0.787298 -0.11473
C_ C_ 0.29087 0.0970532 0.779191 -0.11473
C_ C_ 0.113238 0.275954 0.881568 0.17695
C_ C_ 0.369524 0.280351 0.881086 0.17695
C_ C_ 0.129608 0.208237 0.878287 0.17695
C_ C_ 0.383967 0.210689 0.874788 0.17695
C_ C_ 0.12904 0.205454 0.923376 -0.11473
C_ C_ 0.388849 0.207104 0.919755 -0.11473
C_ C_ 0.122438 0.238958 0.947624 0.23465
C_ C_ 0.38005 0.241204 0.945464 0.23465
C_ C_ 0.110666 0.273429 0.92591 -0.11473
C_ C_ 0.37122 0.27848 0.925368 -0.11473
C_ C_ 0.130916 0.210421 0.631832 0.17695
C_ C_ 0.37505 0.216789 0.625586 0.17695
C_ C_ 0.117789 0.282303 0.627922 0.17695
C_ C_ 0.381342 0.288316 0.634404 0.17695
C_ C_ 0.119669 0.281397 0.58551 -0.11473
C_ C_ 0.380682 0.29299 0.589876 -0.11473
C_ C_ 0.123387 0.243775 0.56525 0.23465
C_ C_ 0.375233 0.259691 0.562795 0.23465
C_ C_ 0.130288 0.207547 0.588559 -0.11473
C_ C_ 0.372719 0.220072 0.581199 -0.11473
C_ C_ 0.0296538 0.493322 0.745304 0.05793
C_ C_ 0.283643 0.498712 0.74992 0.05793
C_ C_ 0.221148 -0.0004910000000000192 0.748052 0.05793
C_ C_ 0.468152 0.998536 0.746545 0.05793
Br Br 0.0731773 0.495788 0.746424 -0.17191
Br Br 0.326325 0.504287 0.753503 -0.17191
Br Br 0.178034 0.00281773 0.750444 -0.17191
Br Br 0.42598 0.997416 0.733195 -0.17191
N_ N_ 0.124295 0.24419 0.858756 -0.272
N_ N_ 0.375664 0.247854 0.855815 -0.272
N_ N_ 0.123889 0.233977 0.992438 -0.12501
N_ N_ 0.382625 0.238997 0.991257 -0.12501
N_ N_ 0.124907 0.248173 0.65057 -0.272
N_ N_ 0.379683 0.250039 0.651666 -0.272
N_ N_ 0.126031 0.240548 0.520095 -0.12501
N_ N_ 0.380716 0.263808 0.518582 -0.12501
O_ O_ 0.09202 0.286034 0.718658 -0.60745
O_ O_ 0.344872 0.294429 0.721516 -0.60745
O_ O_ 0.0978229 0.291122 0.786484 -0.60745
O_ O_ 0.342513 0.288029 0.78953 -0.60745
O_ O_ 0.163078 0.28514 0.788075 -0.60745
O_ O_ 0.405006 0.297001 0.79255 -0.60745
O_ O_ 0.157983 0.2893 0.718787 -0.60745
O_ O_ 0.404508 0.291921 0.723567 -0.60745
O_ O_ 0.155214 0.195552 0.786312 -0.60745
O_ O_ 0.409114 0.203379 0.787678 -0.60745
O_ O_ 0.161777 0.203781 0.717024 -0.60745
O_ O_ 0.407608 0.205812 0.719088 -0.60745
O_ O_ 0.0970568 0.200097 0.717958 -0.60745
O_ O_ 0.347155 0.203733 0.709198 -0.60745
O_ O_ 0.0933564 0.205945 0.785996 -0.60745
O_ O_ 0.348066 0.202079 0.778944 -0.60745
Zn Zn 0.121873 0.75339 0.28397 0.9476
Zn Zn 0.377404 0.754426 0.289616 0.9476
Zn Zn 0.121753 0.754954 0.216215 0.9476
Zn Zn 0.376435 0.753047 0.21872 0.9476
H_ H_ 0.0346725 0.924354 0.178198 0.10932
H_ H_ 0.2821 0.916787 0.18106 0.10932
H_ H_ 0.0656095 0.856852 0.308023 0.10932
H_ H_ 0.31521 0.856802 0.319076 0.10932
H_ H_ 0.0631971 0.860911 0.174371 0.10932
H_ H_ 0.31519 0.85592 0.183999 0.10932
H_ H_ 0.0392803 0.923661 0.313367 0.10932
H_ H_ 0.288303 0.923886 0.311645 0.10932
H_ H_ 0.220093 0.912076 0.320001 0.10932
H_ H_ 0.47544 0.913864 0.30887 0.10932
H_ H_ 0.168386 0.874409 0.184362 0.10932
H_ H_ 0.428588 0.864713 0.17498 0.10932
H_ H_ 0.191142 0.84982 0.316861 0.10932
H_ H_ 0.443847 0.852825 0.309064 0.10932
H_ H_ 0.197226 0.939614 0.192428 0.10932
H_ H_ 0.452782 0.934158 0.180073 0.10932
H_ H_ 0.201101 0.579583 0.317765 0.10932
H_ H_ 0.457212 0.581199 0.319842 0.10932
H_ H_ 0.200757 0.673174 0.197858 0.10932
H_ H_ 0.434951 0.652876 0.180927 0.10932
H_ H_ 0.161814 0.634352 0.311764 0.10932
H_ H_ 0.42796 0.646537 0.317311 0.10932
H_ H_ 0.231438 0.608787 0.194879 0.10932
H_ H_ 0.463808 0.591837 0.183618 0.10932
H_ H_ 0.028638 0.591864 0.182603 0.10932
H_ H_ 0.286428 0.579552 0.19621 0.10932
H_ H_ 0.0669137 0.646156 0.318254 0.10932
H_ H_ 0.314603 0.660485 0.324864 0.10932
H_ H_ 0.0601394 0.652115 0.182946 0.10932
H_ H_ 0.317989 0.644403 0.192668 0.10932
H_ H_ 0.0402541 0.57435 0.31625 0.10932
H_ H_ 0.282121 0.599518 0.327091 0.10932
H_ H_ 0.119307 0.821033 0.35147 0.10932
H_ H_ 0.370938 0.820751 0.356752 0.10932
H_ H_ 0.115218 0.692784 0.360058 0.10932
H_ H_ 0.380738 0.694778 0.368873 0.10932
H_ H_ 0.115894 0.696135 0.439063 0.10932
H_ H_ 0.381586 0.699723 0.445688 0.10932
H_ H_ 0.134539 0.827142 0.424459 0.10932
H_ H_ 0.37862 0.832261 0.428835 0.10932
H_ H_ 0.109847 0.688829 0.148811 0.10932
H_ H_ 0.370468 0.815755 0.146316 0.10932
H_ H_ 0.134105 0.816228 0.137198 0.10932
H_ H_ 0.369033 0.68469 0.137105 0.10932
H_ H_ 0.138304 0.807727 0.0633545 0.10932
H_ H_ 0.3727 0.688947 0.0613521 0.10932
H_ H_ 0.11469 0.677634 0.0747847 0.10932
H_ H_ 0.363235 0.823501 0.0707978 0.10932
C_ C_ 0.0663242 0.852959 0.243183 -0.02249
C_ C_ 0.316998 0.850045 0.251976 -0.02249
C_ C_ 0.0152705 0.968119 0.244376 -0.02249
C_ C_ 0.264635 0.962742 0.247005 -0.02249
C_ C_ 0.0424611 0.911393 0.206753 -0.11473
C_ C_ 0.289755 0.903891 0.211562 -0.11473
C_ C_ 0.0589225 0.872036 0.281382 -0.11473
C_ C_ 0.308188 0.869778 0.289151 -0.11473
C_ C_ 0.0603461 0.875224 0.205137 -0.11473
C_ C_ 0.30834 0.868296 0.213234 -0.11473
C_ C_ 0.0334156 0.928398 0.246307 -0.02249
C_ C_ 0.281964 0.923777 0.248568 -0.02249
C_ C_ 0.0829751 0.812127 0.24511 0.6875
C_ C_ 0.33575 0.812189 0.252601 0.6875
C_ C_ 0.0441366 0.910844 0.28358 -0.11473
C_ C_ 0.289141 0.904951 0.286164 -0.11473
C_ C_ 0.178692 0.852241 0.250002 -0.02249
C_ C_ 0.431685 0.853818 0.243857 -0.02249
C_ C_ 0.234225 0.96284 0.25642 -0.02249
C_ C_ 0.481681 0.968194 0.242041 -0.02249
C_ C_ 0.210947 0.900499 0.290192 -0.11473
C_ C_ 0.464851 0.904618 0.281018 -0.11473
C_ C_ 0.181669 0.878218 0.213626 -0.11473
C_ C_ 0.435405 0.876836 0.206772 -0.11473
C_ C_ 0.195955 0.863785 0.287277 -0.11473
C_ C_ 0.446736 0.8689 0.28119 -0.11473
C_ C_ 0.216463 0.923114 0.254372 -0.02249
C_ C_ 0.463898 0.928697 0.244348 -0.02249
C_ C_ 0.158012 0.814724 0.25078 0.6875
C_ C_ 0.414165 0.814435 0.247261 0.6875
C_ C_ 0.200883 0.913425 0.215457 -0.11473
C_ C_ 0.450691 0.914444 0.208388 -0.11473
C_ C_ 0.178281 0.654599 0.252975 -0.02249
C_ C_ 0.433538 0.658383 0.250331 -0.02249
C_ C_ 0.233917 0.54742 0.255791 -0.02249
C_ C_ 0.479486 0.538337 0.249301 -0.02249
C_ C_ 0.197931 0.595971 0.289383 -0.11473
C_ C_ 0.451009 0.594973 0.28971 -0.11473
C_ C_ 0.19829 0.648903 0.220723 -0.11473
C_ C_ 0.441756 0.638217 0.211665 -0.11473
C_ C_ 0.178192 0.627678 0.286408 -0.11473
C_ C_ 0.436299 0.633808 0.28802 -0.11473
C_ C_ 0.214933 0.584938 0.254336 -0.02249
C_ C_ 0.461566 0.577737 0.250656 -0.02249
C_ C_ 0.159282 0.692844 0.254548 0.6875
C_ C_ 0.415171 0.694561 0.250958 0.6875
C_ C_ 0.216228 0.612662 0.220303 -0.11473
C_ C_ 0.454812 0.598741 0.212881 -0.11473
C_ C_ 0.0646792 0.654166 0.251761 -0.02249
C_ C_ 0.319747 0.655446 0.257863 -0.02249
C_ C_ 0.0172868 0.537903 0.246167 -0.02249
C_ C_ 0.264902 0.548079 0.265411 -0.02249
C_ C_ 0.0385701 0.599469 0.211688 -0.11473
C_ C_ 0.290061 0.601064 0.223727 -0.11473
C_ C_ 0.0614257 0.630331 0.289185 -0.11473
C_ C_ 0.30945 0.642613 0.296195 -0.11473
C_ C_ 0.0549387 0.6359 0.212859 -0.11473
C_ C_ 0.312404 0.632242 0.221859 -0.11473
C_ C_ 0.0357878 0.575318 0.247641 -0.02249
C_ C_ 0.280782 0.588411 0.263181 -0.02249
C_ C_ 0.0829659 0.692879 0.251204 0.6875
C_ C_ 0.341138 0.69199 0.255538 0.6875
C_ C_ 0.0446312 0.592556 0.287485 -0.11473
C_ C_ 0.288522 0.610848 0.298184 -0.11473
C_ C_ 0.121982 0.795134 0.370685 0.17695
C_ C_ 0.375028 0.79531 0.376793 0.17695
C_ C_ 0.116613 0.722698 0.377489 0.17695
C_ C_ 0.382623 0.724553 0.383102 0.17695
C_ C_ 0.11819 0.724248 0.420803 -0.11473
C_ C_ 0.381566 0.72802 0.42716 -0.11473
C_ C_ 0.124979 0.762886 0.439996 0.23465
C_ C_ 0.378172 0.766764 0.446123 0.23465
C_ C_ 0.128735 0.797025 0.413579 -0.11473
C_ C_ 0.376141 0.801427 0.419996 -0.11473
C_ C_ 0.115009 0.71511 0.128563 0.17695
C_ C_ 0.371473 0.789312 0.126914 0.17695
C_ C_ 0.127854 0.785911 0.123349 0.17695
C_ C_ 0.370479 0.715779 0.121342 0.17695
C_ C_ 0.132186 0.782224 0.0802187 -0.11473
C_ C_ 0.370813 0.718382 0.078012 -0.11473
C_ C_ 0.123342 0.744802 0.0602281 0.23465
C_ C_ 0.367976 0.755947 0.0577004 0.23465
C_ C_ 0.116168 0.70997 0.0857831 -0.11473
C_ C_ 0.368306 0.791865 0.0830163 -0.11473
C_ C_ 0.0324076 1.00503429 0.243723 0.05793
C_ C_ 0.2818 1.000405988 0.244401 0.05793
C_ C_ 0.218717 0.508052 0.252873 0.05793
C_ C_ 0.466368 0.500128 0.249907 0.05793
Br Br 0.0757016 0.00211223 0.239437 -0.17191
Br Br 0.321056 1.00195825 0.220189 -0.17191
Br Br 0.176607 0.503339 0.257466 -0.17191
Br Br 0.420243 0.496086 0.25078 -0.17191
N_ N_ 0.120678 0.757518 0.352803 -0.272
N_ N_ 0.379154 0.758594 0.359691 -0.272
N_ N_ 0.129292 0.767026 0.484883 -0.12501
N_ N_ 0.376139 0.770515 0.49124 -0.12501
N_ N_ 0.12384 0.752252 0.146214 -0.272
N_ N_ 0.374571 0.751278 0.144508 -0.272
N_ N_ 0.123792 0.739357 0.0139001 -0.12501
N_ N_ 0.367692 0.759173 0.0128317 -0.12501
O_ O_ 0.085196 0.791917 0.212322 -0.60745
O_ O_ 0.345196 0.797556 0.218903 -0.60745
O_ O_ 0.0957819 0.801406 0.278335 -0.60745
O_ O_ 0.348018 0.800848 0.287378 -0.60745
O_ O_ 0.155277 0.793104 0.28498 -0.60745
O_ O_ 0.408128 0.797002 0.282864 -0.60745
O_ O_ 0.145723 0.801906 0.217208 -0.60745
O_ O_ 0.401633 0.799811 0.214532 -0.60745
O_ O_ 0.14949 0.707351 0.288797 -0.60745
O_ O_ 0.405647 0.706768 0.286718 -0.60745
O_ O_ 0.15664 0.714497 0.221286 -0.60745
O_ O_ 0.4053 0.71056 0.216517 -0.60745
O_ O_ 0.0950379 0.705291 0.21816 -0.60745
O_ O_ 0.348581 0.706811 0.219672 -0.60745
O_ O_ 0.0889907 0.713762 0.284442 -0.60745
O_ O_ 0.347994 0.712803 0.289356 -0.60745
Zn Zn 0.126707 0.741665 0.783567 0.9476
Zn Zn 0.373994 0.745714 0.786647 0.9476
Zn Zn 0.126795 0.746188 0.712955 0.9476
Zn Zn 0.373293 0.745255 0.716817 0.9476
H_ H_ 0.0296872 0.912172 0.679071 0.10932
H_ H_ 0.278827 0.903665 0.678853 0.10932
H_ H_ 0.0732979 0.857217 0.812114 0.10932
H_ H_ 0.322749 0.858303 0.81718 0.10932
H_ H_ 0.0607177 0.847396 0.677677 0.10932
H_ H_ 0.306657 0.836204 0.684024 0.10932
H_ H_ 0.0381267 0.912029 0.815076 0.10932
H_ H_ 0.288281 0.924921 0.811426 0.10932
H_ H_ 0.207837 0.922235 0.812281 0.10932
H_ H_ 0.45825 0.918147 0.812596 0.10932
H_ H_ 0.18983 0.847731 0.682119 0.10932
H_ H_ 0.44383 0.837249 0.683244 0.10932
H_ H_ 0.184083 0.855682 0.817691 0.10932
H_ H_ 0.417854 0.865124 0.808334 0.10932
H_ H_ 0.214315 0.913597 0.67769 0.10932
H_ H_ 0.471967 0.905536 0.680966 0.10932
H_ H_ 0.201772 0.563096 0.813231 0.10932
H_ H_ 0.454267 0.565657 0.817359 0.10932
H_ H_ 0.206919 0.655456 0.689442 0.10932
H_ H_ 0.449357 0.655576 0.694284 0.10932
H_ H_ 0.176467 0.63088 0.813424 0.10932
H_ H_ 0.423632 0.6301 0.820187 0.10932
H_ H_ 0.228684 0.583903 0.687132 0.10932
H_ H_ 0.478968 0.591878 0.693747 0.10932
H_ H_ 0.0270656 0.584046 0.678392 0.10932
H_ H_ 0.287226 0.574755 0.679519 0.10932
H_ H_ 0.0769412 0.62969 0.810205 0.10932
H_ H_ 0.317538 0.640327 0.813955 0.10932
H_ H_ 0.0610723 0.64549 0.677991 0.10932
H_ H_ 0.315495 0.6402 0.679355 0.10932
H_ H_ 0.0394918 0.568117 0.811291 0.10932
H_ H_ 0.279023 0.582171 0.813966 0.10932
H_ H_ 0.130217 0.81098 0.849736 0.10932
H_ H_ 0.364148 0.806748 0.862744 0.10932
H_ H_ 0.119013 0.68211 0.867545 0.10932
H_ H_ 0.373474 0.677312 0.852812 0.10932
H_ H_ 0.114661 0.691609 0.94504 0.10932
H_ H_ 0.365853 0.669806 0.930129 0.10932
H_ H_ 0.122318 0.822332 0.927878 0.10932
H_ H_ 0.362952 0.802481 0.942679 0.10932
H_ H_ 0.120057 0.681487 0.644966 0.10932
H_ H_ 0.378248 0.808678 0.643197 0.10932
H_ H_ 0.131502 0.810032 0.638043 0.10932
H_ H_ 0.370529 0.679698 0.646707 0.10932
H_ H_ 0.138476 0.805621 0.559319 0.10932
H_ H_ 0.374082 0.6763 0.566966 0.10932
H_ H_ 0.120078 0.673652 0.568267 0.10932
H_ H_ 0.378 0.810109 0.565909 0.10932
C_ C_ 0.065408 0.840382 0.746274 -0.02249
C_ C_ 0.313891 0.839112 0.751982 -0.02249
C_ C_ 0.0149969 0.958811 0.749278 -0.02249
C_ C_ 0.267651 0.956583 0.739643 -0.02249
C_ C_ 0.0383787 0.89824 0.709702 -0.11473
C_ C_ 0.286733 0.892382 0.71009 -0.11473
C_ C_ 0.0573007 0.860522 0.785233 -0.11473
C_ C_ 0.309956 0.86687 0.787591 -0.11473
C_ C_ 0.0552005 0.860706 0.708881 -0.11473
C_ C_ 0.300585 0.851997 0.713575 -0.11473
C_ C_ 0.0289409 0.916876 0.750014 -0.02249
C_ C_ 0.283159 0.916432 0.74392 -0.02249
C_ C_ 0.0863994 0.804981 0.746117 0.6875
C_ C_ 0.332665 0.801683 0.752687 0.6875
C_ C_ 0.0417359 0.898041 0.78676 -0.11473
C_ C_ 0.295576 0.90528 0.783677 -0.11473
C_ C_ 0.182599 0.847451 0.748287 -0.02249
C_ C_ 0.433847 0.842175 0.748576 -0.02249
C_ C_ 0.23597 0.959565 0.748187 -0.02249
C_ C_ 0.483302 0.960066 0.745791 -0.02249
C_ C_ 0.209811 0.902337 0.78484 -0.11473
C_ C_ 0.454748 0.902671 0.782725 -0.11473
C_ C_ 0.192427 0.864861 0.710748 -0.11473
C_ C_ 0.448114 0.853996 0.712361 -0.11473
C_ C_ 0.19202 0.865988 0.786642 -0.11473
C_ C_ 0.43737 0.866167 0.78426 -0.11473
C_ C_ 0.217041 0.920072 0.746329 -0.02249
C_ C_ 0.468279 0.917168 0.746374 -0.02249
C_ C_ 0.164939 0.807475 0.74843 0.6875
C_ C_ 0.412431 0.805261 0.750467 0.6875
C_ C_ 0.211296 0.898719 0.709088 -0.11473
C_ C_ 0.46505 0.892962 0.710935 -0.11473
C_ C_ 0.187202 0.648151 0.751292 -0.02249
C_ C_ 0.430945 0.643811 0.755065 -0.02249
C_ C_ 0.233787 0.532208 0.752333 -0.02249
C_ C_ 0.488218 0.534732 0.751864 -0.02249
C_ C_ 0.200955 0.583498 0.78576 -0.11473
C_ C_ 0.455004 0.587252 0.792638 -0.11473
C_ C_ 0.202226 0.635271 0.715587 -0.11473
C_ C_ 0.450219 0.635297 0.7218 -0.11473
C_ C_ 0.190221 0.623399 0.787982 -0.11473
C_ C_ 0.433979 0.62013 0.79136 -0.11473
C_ C_ 0.217217 0.572467 0.751659 -0.02249
C_ C_ 0.471159 0.575059 0.755558 -0.02249
C_ C_ 0.168411 0.686659 0.751413 0.6875
C_ C_ 0.41106 0.682932 0.754357 0.6875
C_ C_ 0.215869 0.595603 0.714341 -0.11473
C_ C_ 0.466084 0.5995 0.719843 -0.11473
C_ C_ 0.067378 0.645382 0.745327 -0.02249
C_ C_ 0.31659 0.646478 0.747236 -0.02249
C_ C_ 0.0155409 0.533501 0.745993 -0.02249
C_ C_ 0.265225 0.534789 0.747796 -0.02249
C_ C_ 0.0368698 0.593814 0.708603 -0.11473
C_ C_ 0.290933 0.592225 0.708229 -0.11473
C_ C_ 0.0652732 0.621645 0.781579 -0.11473
C_ C_ 0.308219 0.62814 0.784121 -0.11473
C_ C_ 0.0555946 0.630608 0.707307 -0.11473
C_ C_ 0.308489 0.626653 0.709056 -0.11473
C_ C_ 0.0317796 0.573963 0.745964 -0.02249
C_ C_ 0.280079 0.575622 0.746016 -0.02249
C_ C_ 0.0856179 0.68502 0.747556 0.6875
C_ C_ 0.333308 0.688241 0.748087 0.6875
C_ C_ 0.0440643 0.587927 0.783231 -0.11473
C_ C_ 0.288538 0.594989 0.784519 -0.11473
C_ C_ 0.12307 0.786519 0.871549 0.17695
C_ C_ 0.364935 0.77831 0.878964 0.17695
C_ C_ 0.122118 0.712147 0.881842 0.17695
C_ C_ 0.372892 0.706086 0.873047 0.17695
C_ C_ 0.11895 0.71815 0.925489 -0.11473
C_ C_ 0.369414 0.70096 0.917558 -0.11473
C_ C_ 0.118648 0.758256 0.942501 0.23465
C_ C_ 0.362793 0.736637 0.943274 0.23465
C_ C_ 0.118821 0.792996 0.914361 -0.11473
C_ C_ 0.362875 0.774774 0.923904 -0.11473
C_ C_ 0.12545 0.707306 0.626543 0.17695
C_ C_ 0.377182 0.779807 0.62552 0.17695
C_ C_ 0.133672 0.779868 0.621994 0.17695
C_ C_ 0.37273 0.707179 0.627788 0.17695
C_ C_ 0.135862 0.777411 0.576947 -0.11473
C_ C_ 0.374273 0.7047 0.58465 -0.11473
C_ C_ 0.132544 0.738917 0.554841 0.23465
C_ C_ 0.375411 0.742223 0.55988 0.23465
C_ C_ 0.12639 0.7041 0.580895 -0.11473
C_ C_ 0.378794 0.78036 0.581046 -0.11473
C_ C_ 0.0317053 -0.004569000000000045 0.756396 0.05793
C_ C_ 0.285059 -0.006464000000000025 0.739739 0.05793
C_ C_ 0.220312 0.492382 0.754411 0.05793
C_ C_ 0.47281 0.495629 0.75016 0.05793
Br Br 0.074133 -0.008438999999999974 0.768276 -0.17191
Br Br 0.329203 -0.006777000000000033 0.738204 -0.17191
Br Br 0.178973 0.488868 0.761156 -0.17191
Br Br 0.429657 0.49637 0.747581 -0.17191
N_ N_ 0.124358 0.746325 0.856134 -0.272
N_ N_ 0.372372 0.744475 0.856176 -0.272
N_ N_ 0.113368 0.764307 0.98596 -0.12501
N_ N_ 0.359467 0.731557 0.988187 -0.12501
N_ N_ 0.127214 0.745474 0.643379 -0.272
N_ N_ 0.371419 0.743642 0.64759 -0.272
N_ N_ 0.129797 0.73604 0.509169 -0.12501
N_ N_ 0.377864 0.740118 0.514736 -0.12501
O_ O_ 0.0975606 0.792845 0.713064 -0.60745
O_ O_ 0.342984 0.786795 0.719608 -0.60745
O_ O_ 0.0921424 0.784433 0.779131 -0.60745
O_ O_ 0.343034 0.78894 0.787133 -0.60745
O_ O_ 0.156734 0.79189 0.782909 -0.60745
O_ O_ 0.403646 0.792154 0.786368 -0.60745
O_ O_ 0.157616 0.789236 0.713273 -0.60745
O_ O_ 0.402227 0.790107 0.716642 -0.60745
O_ O_ 0.159217 0.70048 0.78607 -0.60745
O_ O_ 0.404881 0.699208 0.789369 -0.60745
O_ O_ 0.156997 0.700441 0.717989 -0.60745
O_ O_ 0.404812 0.700508 0.71917 -0.60745
O_ O_ 0.0921259 0.703976 0.714336 -0.60745
O_ O_ 0.341681 0.703329 0.712607 -0.60745
O_ O_ 0.0993052 0.694659 0.781931 -0.60745
O_ O_ 0.347586 0.697636 0.781982 -0.60745
Zn Zn 0.628569 0.254185 0.281797 0.9476
Zn Zn 0.87258 0.252551 0.286356 0.9476
Zn Zn 0.623044 0.255551 0.214013 0.9476
Zn Zn 0.87381 0.250322 0.215955 0.9476
H_ H_ 0.544693 0.434307 0.184514 0.10932
H_ H_ 0.799576 0.42194 0.172947 0.10932
H_ H_ 0.557223 0.34774 0.313366 0.10932
H_ H_ 0.795933 0.340081 0.304438 0.10932
H_ H_ 0.583267 0.372741 0.183528 0.10932
H_ H_ 0.823167 0.355158 0.177465 0.10932
H_ H_ 0.530446 0.413095 0.316016 0.10932
H_ H_ 0.76944 0.413568 0.298968 0.10932
H_ H_ 0.705248 0.43605 0.308554 0.10932
H_ H_ 0.968248 0.414875 0.314586 0.10932
H_ H_ 0.691334 0.349832 0.181961 0.10932
H_ H_ 0.918219 0.370839 0.183692 0.10932
H_ H_ 0.678572 0.367362 0.314538 0.10932
H_ H_ 0.93927 0.354056 0.318603 0.10932
H_ H_ 0.722247 0.409392 0.176918 0.10932
H_ H_ 0.955203 0.426061 0.182397 0.10932
H_ H_ 0.69182 0.0677465 0.309471 0.10932
H_ H_ 0.969114 0.0938285 0.318834 0.10932
H_ H_ 0.699775 0.155634 0.186468 0.10932
H_ H_ 0.94837 0.16375 0.187296 0.10932
H_ H_ 0.664059 0.13377 0.310271 0.10932
H_ H_ 0.933436 0.148339 0.317706 0.10932
H_ H_ 0.731863 0.0999599 0.189895 0.10932
H_ H_ 0.975128 0.100462 0.184682 0.10932
H_ H_ 0.526247 0.0973797 0.17608 0.10932
H_ H_ 0.801753 0.065055 0.191026 0.10932
H_ H_ 0.5648 0.15058 0.313758 0.10932
H_ H_ 0.804747 0.15582 0.313334 0.10932
H_ H_ 0.553846 0.162945 0.179205 0.10932
H_ H_ 0.833942 0.12556 0.191795 0.10932
H_ H_ 0.542344 0.0836807 0.309995 0.10932
H_ H_ 0.771963 0.0912063 0.314646 0.10932
H_ H_ 0.582634 0.236991 0.359438 0.10932
H_ H_ 0.865606 0.195912 0.360453 0.10932
H_ H_ 0.675865 0.26056 0.353085 0.10932
H_ H_ 0.881796 0.324858 0.363022 0.10932
H_ H_ 0.679604 0.260847 0.433094 0.10932
H_ H_ 0.882068 0.325109 0.44078 0.10932
H_ H_ 0.584429 0.239899 0.433101 0.10932
H_ H_ 0.858182 0.1963 0.439497 0.10932
H_ H_ 0.618188 0.191344 0.139107 0.10932
H_ H_ 0.824703 0.252551 0.140657 0.10932
H_ H_ 0.633823 0.320033 0.140863 0.10932
H_ H_ 0.921607 0.253712 0.140035 0.10932
H_ H_ 0.632244 0.326517 0.0666531 0.10932
H_ H_ 0.920881 0.241986 0.0632445 0.10932
H_ H_ 0.62055 0.194859 0.0604438 0.10932
H_ H_ 0.823305 0.243999 0.0665729 0.10932
C_ C_ 0.570898 0.355971 0.246907 -0.02249
C_ C_ 0.810236 0.343457 0.242421 -0.02249
C_ C_ 0.515563 0.46648 0.25276 -0.02249
C_ C_ 0.766661 0.464489 0.234143 -0.02249
C_ C_ 0.548146 0.415533 0.211889 -0.11473
C_ C_ 0.799057 0.406474 0.204028 -0.11473
C_ C_ 0.555894 0.367213 0.284806 -0.11473
C_ C_ 0.793973 0.3589 0.27614 -0.11473
C_ C_ 0.56943 0.381175 0.212157 -0.11473
C_ C_ 0.810315 0.365931 0.204489 -0.11473
C_ C_ 0.534107 0.427953 0.248985 -0.02249
C_ C_ 0.783904 0.423565 0.237182 -0.02249
C_ C_ 0.588583 0.316905 0.244343 0.6875
C_ C_ 0.830967 0.307379 0.249094 0.6875
C_ C_ 0.53935 0.405007 0.287589 -0.11473
C_ C_ 0.781126 0.399374 0.273646 -0.11473
C_ C_ 0.685186 0.350169 0.248966 -0.02249
C_ C_ 0.930668 0.351095 0.249554 -0.02249
C_ C_ 0.734966 0.464321 0.238161 -0.02249
C_ C_ 0.984234 0.465253 0.251886 -0.02249
C_ C_ 0.70517 0.414332 0.2816 -0.11473
C_ C_ 0.961999 0.40328 0.285747 -0.11473
C_ C_ 0.698051 0.363159 0.210887 -0.11473
C_ C_ 0.932622 0.376124 0.212161 -0.11473
C_ C_ 0.688373 0.377476 0.284141 -0.11473
C_ C_ 0.944292 0.367423 0.286944 -0.11473
C_ C_ 0.717884 0.425802 0.242842 -0.02249
C_ C_ 0.966045 0.425465 0.248828 -0.02249
C_ C_ 0.664742 0.313184 0.249351 0.6875
C_ C_ 0.909073 0.314669 0.250732 0.6875
C_ C_ 0.714261 0.400297 0.207565 -0.11473
C_ C_ 0.952491 0.409701 0.212906 -0.11473
C_ C_ 0.679557 0.15113 0.248675 -0.02249
C_ C_ 0.935215 0.158935 0.251209 -0.02249
C_ C_ 0.731997 0.0370754 0.252153 -0.02249
C_ C_ 0.985948 0.044758 0.251879 -0.02249
C_ C_ 0.698202 0.0902749 0.286024 -0.11473
C_ C_ 0.959718 0.103635 0.290528 -0.11473
C_ C_ 0.700004 0.141309 0.216515 -0.11473
C_ C_ 0.950206 0.146077 0.215863 -0.11473
C_ C_ 0.679005 0.124586 0.283519 -0.11473
C_ C_ 0.941294 0.137321 0.289084 -0.11473
C_ C_ 0.716266 0.0787326 0.252312 -0.02249
C_ C_ 0.970548 0.0860936 0.25281 -0.02249
C_ C_ 0.662651 0.190663 0.247255 0.6875
C_ C_ 0.915778 0.197839 0.250109 0.6875
C_ C_ 0.716913 0.104886 0.217429 -0.11473
C_ C_ 0.966061 0.10778 0.215502 -0.11473
C_ C_ 0.565567 0.158227 0.247353 -0.02249
C_ C_ 0.818432 0.147814 0.249607 -0.02249
C_ C_ 0.51457 0.0431423 0.243256 -0.02249
C_ C_ 0.764097 0.036247 0.252982 -0.02249
C_ C_ 0.537625 0.105501 0.205978 -0.11473
C_ C_ 0.801503 0.084368 0.216642 -0.11473
C_ C_ 0.560617 0.1352 0.282825 -0.11473
C_ C_ 0.803878 0.136701 0.285669 -0.11473
C_ C_ 0.551486 0.145105 0.208974 -0.11473
C_ C_ 0.818695 0.120745 0.215975 -0.11473
C_ C_ 0.53311 0.0819531 0.242277 -0.02249
C_ C_ 0.782549 0.075279 0.250436 -0.02249
C_ C_ 0.584883 0.196897 0.248631 0.6875
C_ C_ 0.838165 0.184872 0.248474 0.6875
C_ C_ 0.544018 0.100057 0.28131 -0.11473
C_ C_ 0.782612 0.10239 0.285075 -0.11473
C_ C_ 0.603667 0.248203 0.372702 0.17695
C_ C_ 0.866423 0.223343 0.378658 0.17695
C_ C_ 0.656544 0.25745 0.371994 0.17695
C_ C_ 0.877966 0.295177 0.379681 0.17695
C_ C_ 0.657454 0.258507 0.41641 -0.11473
C_ C_ 0.879605 0.296895 0.424054 -0.11473
C_ C_ 0.631212 0.252945 0.438925 0.23465
C_ C_ 0.871745 0.260377 0.445489 0.23465
C_ C_ 0.604751 0.245687 0.416637 -0.11473
C_ C_ 0.865062 0.224613 0.423366 -0.11473
C_ C_ 0.623446 0.220151 0.121033 0.17695
C_ C_ 0.846646 0.245935 0.125684 0.17695
C_ C_ 0.632594 0.29219 0.123971 0.17695
C_ C_ 0.900156 0.251273 0.124514 0.17695
C_ C_ 0.63072 0.295486 0.0797744 -0.11473
C_ C_ 0.900148 0.239614 0.0813683 -0.11473
C_ C_ 0.628965 0.260149 0.0546526 0.23465
C_ C_ 0.871147 0.237409 0.0592161 0.23465
C_ C_ 0.625821 0.221875 0.0766101 -0.11473
C_ C_ 0.844921 0.238429 0.0824046 -0.11473
C_ C_ 0.528684 0.504628 0.253548 0.05793
C_ C_ 0.78295 0.502066 0.240413 0.05793
C_ C_ 0.715906 1.00039 0.251554 0.05793
C_ C_ 0.969296 1.0076369 0.248327 0.05793
Br Br 0.572532 0.508866 0.256969 -0.17191
Br Br 0.826445 0.504001 0.252019 -0.17191
Br Br 0.673032 -0.0041480000000000405 0.233973 -0.17191
Br Br 0.925439 0.00878528 0.246266 -0.17191
N_ N_ 0.629427 0.248263 0.350998 -0.272
N_ N_ 0.871914 0.258716 0.358495 -0.272
N_ N_ 0.631706 0.260121 0.483387 -0.12501
N_ N_ 0.877641 0.260389 0.490511 -0.12501
N_ N_ 0.627268 0.254619 0.143952 -0.272
N_ N_ 0.874109 0.253313 0.144935 -0.272
N_ N_ 0.628055 0.262976 0.00856349 -0.12501
N_ N_ 0.868718 0.234533 0.0152677 -0.12501
O_ O_ 0.59791 0.303361 0.2092 -0.60745
O_ O_ 0.836532 0.28503 0.217269 -0.60745
O_ O_ 0.597391 0.300196 0.278233 -0.60745
O_ O_ 0.8401 0.295692 0.2856 -0.60745
O_ O_ 0.662014 0.291226 0.281059 -0.60745
O_ O_ 0.903867 0.295636 0.284794 -0.60745
O_ O_ 0.653248 0.30025 0.215322 -0.60745
O_ O_ 0.896192 0.301768 0.216998 -0.60745
O_ O_ 0.656218 0.206903 0.281929 -0.60745
O_ O_ 0.904452 0.210343 0.283511 -0.60745
O_ O_ 0.653188 0.20818 0.212463 -0.60745
O_ O_ 0.909902 0.215898 0.215266 -0.60745
O_ O_ 0.591655 0.214398 0.215028 -0.60745
O_ O_ 0.851953 0.196547 0.216025 -0.60745
O_ O_ 0.596151 0.21125 0.282687 -0.60745
O_ O_ 0.840376 0.206595 0.281571 -0.60745
Zn Zn 0.627489 0.244243 0.780983 0.9476
Zn Zn 0.877048 0.246308 0.78709 0.9476
Zn Zn 0.624034 0.245655 0.709487 0.9476
Zn Zn 0.874736 0.245464 0.717187 0.9476
H_ H_ 0.542892 0.41826 0.680461 0.10932
H_ H_ 0.792748 0.419057 0.68927 0.10932
H_ H_ 0.571068 0.348419 0.814101 0.10932
H_ H_ 0.820683 0.353701 0.823459 0.10932
H_ H_ 0.564012 0.348954 0.675772 0.10932
H_ H_ 0.814623 0.349963 0.687372 0.10932
H_ H_ 0.541641 0.412672 0.814593 0.10932
H_ H_ 0.784352 0.408993 0.824135 0.10932
H_ H_ 0.721942 0.406505 0.819876 0.10932
H_ H_ 0.958789 0.413512 0.823044 0.10932
H_ H_ 0.684532 0.347051 0.686134 0.10932
H_ H_ 0.933971 0.350762 0.686999 0.10932
H_ H_ 0.691656 0.343959 0.821839 0.10932
H_ H_ 0.931464 0.351324 0.820734 0.10932
H_ H_ 0.714711 0.41339 0.686067 0.10932
H_ H_ 0.9642 0.413581 0.687853 0.10932
H_ H_ 0.715801 0.0775368 0.811799 0.10932
H_ H_ 0.951497 0.066842 0.811374 0.10932
H_ H_ 0.698162 0.159081 0.683586 0.10932
H_ H_ 0.947798 0.154511 0.687571 0.10932
H_ H_ 0.680742 0.137387 0.814679 0.10932
H_ H_ 0.919787 0.130906 0.813096 0.10932
H_ H_ 0.725802 0.0929247 0.67909 0.10932
H_ H_ 0.982162 0.0924312 0.686345 0.10932
H_ H_ 0.531892 0.0810565 0.676873 0.10932
H_ H_ 0.796459 0.0719983 0.685753 0.10932
H_ H_ 0.563838 0.140962 0.813973 0.10932
H_ H_ 0.805241 0.152047 0.820276 0.10932
H_ H_ 0.555847 0.151349 0.678075 0.10932
H_ H_ 0.826173 0.134943 0.689342 0.10932
H_ H_ 0.541662 0.0753226 0.809008 0.10932
H_ H_ 0.776201 0.0871434 0.82035 0.10932
H_ H_ 0.624782 0.301137 0.858903 0.10932
H_ H_ 0.881985 0.180401 0.869382 0.10932
H_ H_ 0.626056 0.172943 0.854479 0.10932
H_ H_ 0.876474 0.312989 0.862851 0.10932
H_ H_ 0.634369 0.167877 0.931554 0.10932
H_ H_ 0.879094 0.31879 0.939248 0.10932
H_ H_ 0.618845 0.300514 0.938416 0.10932
H_ H_ 0.890742 0.187545 0.94484 0.10932
H_ H_ 0.627085 0.315962 0.632394 0.10932
H_ H_ 0.915283 0.262267 0.638685 0.10932
H_ H_ 0.619845 0.185863 0.642752 0.10932
H_ H_ 0.822835 0.236751 0.644568 0.10932
H_ H_ 0.629569 0.178594 0.568688 0.10932
H_ H_ 0.819836 0.232357 0.566555 0.10932
H_ H_ 0.619843 0.308117 0.553333 0.10932
H_ H_ 0.911565 0.265393 0.561656 0.10932
C_ C_ 0.569113 0.342318 0.743262 -0.02249
C_ C_ 0.819149 0.346151 0.756107 -0.02249
C_ C_ 0.519804 0.457729 0.751134 -0.02249
C_ C_ 0.764893 0.457266 0.754802 -0.02249
C_ C_ 0.545068 0.401169 0.708782 -0.11473
C_ C_ 0.79576 0.401036 0.718216 -0.11473
C_ C_ 0.562 0.360221 0.78332 -0.11473
C_ C_ 0.810593 0.362846 0.793961 -0.11473
C_ C_ 0.55655 0.361116 0.707156 -0.11473
C_ C_ 0.809605 0.364286 0.717876 -0.11473
C_ C_ 0.536976 0.418393 0.748358 -0.02249
C_ C_ 0.782423 0.415956 0.755338 -0.02249
C_ C_ 0.587876 0.305074 0.742267 0.6875
C_ C_ 0.837061 0.306899 0.756236 0.6875
C_ C_ 0.546286 0.397317 0.784906 -0.11473
C_ C_ 0.789334 0.395978 0.793154 -0.11473
C_ C_ 0.684099 0.342279 0.753638 -0.02249
C_ C_ 0.934427 0.34259 0.752514 -0.02249
C_ C_ 0.732756 0.459155 0.7544 -0.02249
C_ C_ 0.982294 0.458317 0.754729 -0.02249
C_ C_ 0.711671 0.396075 0.79211 -0.11473
C_ C_ 0.954378 0.400615 0.790999 -0.11473
C_ C_ 0.691819 0.362919 0.715164 -0.11473
C_ C_ 0.939579 0.363624 0.716895 -0.11473
C_ C_ 0.695897 0.359011 0.791773 -0.11473
C_ C_ 0.940511 0.360692 0.791773 -0.11473
C_ C_ 0.714306 0.420506 0.754792 -0.02249
C_ C_ 0.964961 0.41939 0.754478 -0.02249
C_ C_ 0.664002 0.30488 0.752381 0.6875
C_ C_ 0.915113 0.304839 0.751446 0.6875
C_ C_ 0.707698 0.400855 0.716417 -0.11473
C_ C_ 0.95837 0.397917 0.716878 -0.11473
C_ C_ 0.686973 0.152381 0.748836 -0.02249
C_ C_ 0.933867 0.147892 0.749857 -0.02249
C_ C_ 0.736472 0.0359232 0.743874 -0.02249
C_ C_ 0.985277 0.0362875 0.749594 -0.02249
C_ C_ 0.708441 0.0916746 0.782919 -0.11473
C_ C_ 0.953534 0.0874724 0.785967 -0.11473
C_ C_ 0.701038 0.139621 0.711864 -0.11473
C_ C_ 0.950134 0.135723 0.714559 -0.11473
C_ C_ 0.692092 0.128721 0.784729 -0.11473
C_ C_ 0.936486 0.125313 0.787608 -0.11473
C_ C_ 0.720186 0.0767797 0.74548 -0.02249
C_ C_ 0.97074 0.0761682 0.750468 -0.02249
C_ C_ 0.668257 0.190915 0.747676 0.6875
C_ C_ 0.913716 0.185823 0.749824 0.6875
C_ C_ 0.716274 0.101124 0.708469 -0.11473
C_ C_ 0.969207 0.102325 0.715551 -0.11473
C_ C_ 0.566584 0.147767 0.74507 -0.02249
C_ C_ 0.815195 0.151016 0.755457 -0.02249
C_ C_ 0.515397 0.034787 0.74411 -0.02249
C_ C_ 0.768192 0.0341402 0.752044 -0.02249
C_ C_ 0.538254 0.0964387 0.704773 -0.11473
C_ C_ 0.797992 0.088231 0.714462 -0.11473
C_ C_ 0.560485 0.12672 0.783354 -0.11473
C_ C_ 0.802693 0.133876 0.792241 -0.11473
C_ C_ 0.556222 0.131106 0.706379 -0.11473
C_ C_ 0.813096 0.126217 0.717697 -0.11473
C_ C_ 0.534883 0.0737849 0.742577 -0.02249
C_ C_ 0.785078 0.0733049 0.752516 -0.02249
C_ C_ 0.589889 0.181838 0.74334 0.6875
C_ C_ 0.83593 0.186983 0.754351 0.6875
C_ C_ 0.541067 0.094841 0.781301 -0.11473
C_ C_ 0.788478 0.0960901 0.791927 -0.11473
C_ C_ 0.625259 0.273115 0.875751 0.17695
C_ C_ 0.881922 0.211563 0.883359 0.17695
C_ C_ 0.625209 0.200251 0.872268 0.17695
C_ C_ 0.877395 0.284883 0.879167 0.17695
C_ C_ 0.629619 0.19856 0.917154 -0.11473
C_ C_ 0.877429 0.287659 0.924092 -0.11473
C_ C_ 0.629098 0.234868 0.94166 0.23465
C_ C_ 0.880787 0.251001 0.947164 0.23465
C_ C_ 0.622996 0.272007 0.919896 -0.11473
C_ C_ 0.884732 0.213492 0.927011 -0.11473
C_ C_ 0.622234 0.284592 0.616571 0.17695
C_ C_ 0.895444 0.251055 0.623635 0.17695
C_ C_ 0.622951 0.212133 0.623488 0.17695
C_ C_ 0.842875 0.237864 0.626523 0.17695
C_ C_ 0.626681 0.208812 0.579991 -0.11473
C_ C_ 0.840899 0.2407 0.582961 -0.11473
C_ C_ 0.622218 0.241898 0.552587 0.23465
C_ C_ 0.867496 0.239884 0.559416 0.23465
C_ C_ 0.619884 0.280713 0.572087 -0.11473
C_ C_ 0.894222 0.252015 0.580075 -0.11473
C_ C_ 0.535772 0.495913 0.75522 0.05793
C_ C_ 0.780325 0.496658 0.754659 0.05793
C_ C_ 0.719747 -0.00135073 0.740237 0.05793
C_ C_ 0.969025 -0.0014210000000000056 0.744636 0.05793
Br Br 0.579433 0.495582 0.755963 -0.17191
Br Br 0.823118 0.498292 0.767171 -0.17191
Br Br 0.675032 0.00102942 0.74154 -0.17191
Br Br 0.928104 0.00276951 0.728905 -0.17191
N_ N_ 0.626444 0.237385 0.852418 -0.272
N_ N_ 0.880535 0.246982 0.859474 -0.272
N_ N_ 0.630003 0.231961 0.985827 -0.12501
N_ N_ 0.88489 0.255612 0.990976 -0.12501
N_ N_ 0.625477 0.249623 0.640364 -0.272
N_ N_ 0.870098 0.245564 0.647255 -0.272
N_ N_ 0.620735 0.23496 0.5082 -0.12501
N_ N_ 0.864721 0.237033 0.515227 -0.12501
O_ O_ 0.596801 0.290525 0.70765 -0.60745
O_ O_ 0.845266 0.29268 0.72093 -0.60745
O_ O_ 0.592875 0.285588 0.77667 -0.60745
O_ O_ 0.848489 0.292667 0.789652 -0.60745
O_ O_ 0.653262 0.291549 0.78584 -0.60745
O_ O_ 0.908216 0.28654 0.785866 -0.60745
O_ O_ 0.656385 0.287359 0.717458 -0.60745
O_ O_ 0.905891 0.291783 0.717168 -0.60745
O_ O_ 0.66173 0.210369 0.781086 -0.60745
O_ O_ 0.906209 0.200523 0.783616 -0.60745
O_ O_ 0.655598 0.199238 0.713513 -0.60745
O_ O_ 0.90375 0.200297 0.714795 -0.60745
O_ O_ 0.593092 0.201104 0.709146 -0.60745
O_ O_ 0.843652 0.200813 0.71955 -0.60745
O_ O_ 0.59908 0.197393 0.777403 -0.60745
O_ O_ 0.843896 0.204394 0.788911 -0.60745
Zn Zn 0.620324 0.752128 0.282812 0.9476
Zn Zn 0.876604 0.750327 0.284954 0.9476
Zn Zn 0.619108 0.755568 0.211055 0.9476
Zn Zn 0.874106 0.754934 0.213229 0.9476
H_ H_ 0.533661 0.921773 0.173057 0.10932
H_ H_ 0.79655 0.93437 0.193351 0.10932
H_ H_ 0.557195 0.854697 0.308828 0.10932
H_ H_ 0.798205 0.83584 0.317836 0.10932
H_ H_ 0.564512 0.862324 0.173916 0.10932
H_ H_ 0.821502 0.861673 0.188235 0.10932
H_ H_ 0.537666 0.925442 0.308107 0.10932
H_ H_ 0.770529 0.901993 0.31833 0.10932
H_ H_ 0.70895 0.92117 0.321862 0.10932
H_ H_ 0.953216 0.932708 0.313 0.10932
H_ H_ 0.683485 0.862288 0.182111 0.10932
H_ H_ 0.951882 0.842556 0.187607 0.10932
H_ H_ 0.679434 0.85503 0.317663 0.10932
H_ H_ 0.928354 0.871877 0.315379 0.10932
H_ H_ 0.716661 0.92115 0.18729 0.10932
H_ H_ 0.972848 0.912689 0.181348 0.10932
H_ H_ 0.698439 0.566901 0.300736 0.10932
H_ H_ 0.980856 0.596659 0.304914 0.10932
H_ H_ 0.692345 0.666769 0.181376 0.10932
H_ H_ 0.924776 0.643272 0.178927 0.10932
H_ H_ 0.669942 0.632486 0.307459 0.10932
H_ H_ 0.958858 0.668731 0.301613 0.10932
H_ H_ 0.72288 0.601447 0.175901 0.10932
H_ H_ 0.958641 0.583013 0.173127 0.10932
H_ H_ 0.528688 0.586707 0.185789 0.10932
H_ H_ 0.794707 0.580529 0.171553 0.10932
H_ H_ 0.556365 0.653579 0.318988 0.10932
H_ H_ 0.81775 0.649618 0.307382 0.10932
H_ H_ 0.554611 0.652329 0.18679 0.10932
H_ H_ 0.824781 0.64576 0.173617 0.10932
H_ H_ 0.52776 0.588438 0.320095 0.10932
H_ H_ 0.782677 0.586797 0.306548 0.10932
H_ H_ 0.616241 0.690713 0.357346 0.10932
H_ H_ 0.894987 0.805376 0.362871 0.10932
H_ H_ 0.621457 0.82141 0.358142 0.10932
H_ H_ 0.863606 0.683864 0.355942 0.10932
H_ H_ 0.614519 0.821519 0.435079 0.10932
H_ H_ 0.857561 0.678483 0.433526 0.10932
H_ H_ 0.620652 0.688661 0.433668 0.10932
H_ H_ 0.887735 0.8024 0.441438 0.10932
H_ H_ 0.610253 0.685361 0.143496 0.10932
H_ H_ 0.887677 0.696654 0.138497 0.10932
H_ H_ 0.626439 0.816189 0.132449 0.10932
H_ H_ 0.857749 0.820576 0.139099 0.10932
H_ H_ 0.629014 0.808092 0.0553081 0.10932
H_ H_ 0.857891 0.822955 0.0617672 0.10932
H_ H_ 0.612519 0.678563 0.0648886 0.10932
H_ H_ 0.894755 0.701128 0.0614708 0.10932
C_ C_ 0.5593 0.848804 0.242439 -0.02249
C_ C_ 0.815846 0.844975 0.253974 -0.02249
C_ C_ 0.51297 0.96796 0.239181 -0.02249
C_ C_ 0.76419 0.960854 0.258307 -0.02249
C_ C_ 0.536366 0.906663 0.202941 -0.11473
C_ C_ 0.798575 0.910903 0.220004 -0.11473
C_ C_ 0.553625 0.870603 0.280002 -0.11473
C_ C_ 0.798343 0.856027 0.28946 -0.11473
C_ C_ 0.551798 0.870038 0.203674 -0.11473
C_ C_ 0.81234 0.871253 0.217694 -0.11473
C_ C_ 0.528762 0.926529 0.241632 -0.02249
C_ C_ 0.78211 0.921393 0.256284 -0.02249
C_ C_ 0.578061 0.810762 0.241247 0.6875
C_ C_ 0.834277 0.807494 0.251655 0.6875
C_ C_ 0.541196 0.909615 0.280004 -0.11473
C_ C_ 0.785805 0.896058 0.292238 -0.11473
C_ C_ 0.67603 0.854414 0.250006 -0.02249
C_ C_ 0.937533 0.850572 0.253011 -0.02249
C_ C_ 0.731734 0.963111 0.259081 -0.02249
C_ C_ 0.983837 0.969544 0.247499 -0.02249
C_ C_ 0.703727 0.90753 0.29127 -0.11473
C_ C_ 0.954403 0.914006 0.284755 -0.11473
C_ C_ 0.689692 0.872811 0.21339 -0.11473
C_ C_ 0.951046 0.863243 0.21498 -0.11473
C_ C_ 0.686371 0.869142 0.288957 -0.11473
C_ C_ 0.938321 0.878387 0.286814 -0.11473
C_ C_ 0.716013 0.9241 0.254648 -0.02249
C_ C_ 0.965396 0.928977 0.246626 -0.02249
C_ C_ 0.655711 0.815799 0.247384 0.6875
C_ C_ 0.915877 0.813127 0.253718 0.6875
C_ C_ 0.708106 0.906142 0.215961 -0.11473
C_ C_ 0.964477 0.903566 0.211886 -0.11473
C_ C_ 0.680339 0.656993 0.246103 -0.02249
C_ C_ 0.935555 0.656827 0.242987 -0.02249
C_ C_ 0.735915 0.543149 0.237487 -0.02249
C_ C_ 0.985282 0.540371 0.24194 -0.02249
C_ C_ 0.701906 0.591119 0.276681 -0.11473
C_ C_ 0.972082 0.607581 0.275983 -0.11473
C_ C_ 0.69253 0.644061 0.205681 -0.11473
C_ C_ 0.936037 0.632395 0.207043 -0.11473
C_ C_ 0.681868 0.62651 0.279459 -0.11473
C_ C_ 0.954336 0.645617 0.277458 -0.11473
C_ C_ 0.71932 0.585167 0.240506 -0.02249
C_ C_ 0.970958 0.582256 0.240487 -0.02249
C_ C_ 0.659356 0.69402 0.249025 0.6875
C_ C_ 0.914287 0.692817 0.244763 0.6875
C_ C_ 0.711564 0.609013 0.204748 -0.11473
C_ C_ 0.9546 0.596605 0.204898 -0.11473
C_ C_ 0.559079 0.655677 0.251924 -0.02249
C_ C_ 0.820305 0.651793 0.24227 -0.02249
C_ C_ 0.511989 0.540539 0.251866 -0.02249
C_ C_ 0.766951 0.541598 0.236735 -0.02249
C_ C_ 0.533755 0.600599 0.215849 -0.11473
C_ C_ 0.797629 0.596488 0.201381 -0.11473
C_ C_ 0.549888 0.639165 0.290492 -0.11473
C_ C_ 0.810105 0.635383 0.278533 -0.11473
C_ C_ 0.550233 0.635915 0.214429 -0.11473
C_ C_ 0.815041 0.632055 0.203413 -0.11473
C_ C_ 0.524576 0.582748 0.253221 -0.02249
C_ C_ 0.784447 0.580981 0.238145 -0.02249
C_ C_ 0.579147 0.694129 0.249598 0.6875
C_ C_ 0.838593 0.690802 0.243374 0.6875
C_ C_ 0.533019 0.603568 0.291421 -0.11473
C_ C_ 0.790185 0.601742 0.27721 -0.11473
C_ C_ 0.617279 0.719675 0.374932 0.17695
C_ C_ 0.883275 0.778814 0.37929 0.17695
C_ C_ 0.618958 0.792068 0.375032 0.17695
C_ C_ 0.864322 0.711512 0.373497 0.17695
C_ C_ 0.619379 0.792828 0.418833 -0.11473
C_ C_ 0.861776 0.707031 0.417458 -0.11473
C_ C_ 0.621168 0.754807 0.442608 0.23465
C_ C_ 0.868961 0.740531 0.442944 0.23465
C_ C_ 0.619347 0.718551 0.419792 -0.11473
C_ C_ 0.879951 0.777057 0.423852 -0.11473
C_ C_ 0.613491 0.713288 0.123913 0.17695
C_ C_ 0.883354 0.725145 0.1219 0.17695
C_ C_ 0.624003 0.784332 0.118509 0.17695
C_ C_ 0.863106 0.791894 0.121474 0.17695
C_ C_ 0.62146 0.783134 0.0738453 -0.11473
C_ C_ 0.865545 0.795199 0.0785076 -0.11473
C_ C_ 0.615046 0.743948 0.0536655 0.23465
C_ C_ 0.877728 0.761361 0.055366 0.23465
C_ C_ 0.612996 0.70852 0.0791343 -0.11473
C_ C_ 0.886425 0.727118 0.0778097 -0.11473
C_ C_ 0.529071 1.00450341 0.236186 0.05793
C_ C_ 0.781116 0.99822793 0.257677 0.05793
C_ C_ 0.720379 0.504183 0.233176 0.05793
C_ C_ 0.96899 0.503724 0.2432 0.05793
Br Br 0.570102 1.00642132 0.224949 -0.17191
Br Br 0.824726 1.00024 0.271118 -0.17191
Br Br 0.676148 0.502297 0.221155 -0.17191
Br Br 0.927196 0.510612 0.25549 -0.17191
N_ N_ 0.617629 0.755387 0.353399 -0.272
N_ N_ 0.874199 0.746778 0.355414 -0.272
N_ N_ 0.619978 0.757902 0.487211 -0.12501
N_ N_ 0.863829 0.739094 0.486337 -0.12501
N_ N_ 0.619963 0.750886 0.142721 -0.272
N_ N_ 0.870774 0.757409 0.142565 -0.272
N_ N_ 0.617945 0.737819 0.00948147 -0.12501
N_ N_ 0.873174 0.760944 0.00987784 -0.12501
O_ O_ 0.587992 0.799782 0.206316 -0.60745
O_ O_ 0.841323 0.793139 0.215809 -0.60745
O_ O_ 0.582459 0.790182 0.275471 -0.60745
O_ O_ 0.844428 0.793435 0.285275 -0.60745
O_ O_ 0.645873 0.801979 0.281667 -0.60745
O_ O_ 0.910574 0.794495 0.287698 -0.60745
O_ O_ 0.650038 0.799009 0.212959 -0.60745
O_ O_ 0.904548 0.800491 0.218725 -0.60745
O_ O_ 0.651036 0.706032 0.284635 -0.60745
O_ O_ 0.905349 0.70518 0.280884 -0.60745
O_ O_ 0.648456 0.70839 0.21457 -0.60745
O_ O_ 0.908254 0.712943 0.212205 -0.60745
O_ O_ 0.585331 0.713716 0.216545 -0.60745
O_ O_ 0.845524 0.71055 0.210749 -0.60745
O_ O_ 0.591678 0.704589 0.283994 -0.60745
O_ O_ 0.844867 0.70664 0.279171 -0.60745
Zn Zn 0.626236 0.748121 0.779552 0.9476
Zn Zn 0.874777 0.744811 0.782932 0.9476
Zn Zn 0.624409 0.746238 0.710272 0.9476
Zn Zn 0.873574 0.746603 0.713292 0.9476
H_ H_ 0.543715 0.927261 0.678331 0.10932
H_ H_ 0.786628 0.918996 0.68374 0.10932
H_ H_ 0.557325 0.838521 0.806949 0.10932
H_ H_ 0.806622 0.843183 0.816541 0.10932
H_ H_ 0.571664 0.865526 0.673374 0.10932
H_ H_ 0.812238 0.848105 0.68082 0.10932
H_ H_ 0.533067 0.908979 0.811943 0.10932
H_ H_ 0.784369 0.9138 0.818313 0.10932
H_ H_ 0.701284 0.926958 0.813627 0.10932
H_ H_ 0.970895 0.908775 0.813856 0.10932
H_ H_ 0.690031 0.846014 0.681129 0.10932
H_ H_ 0.919684 0.867216 0.681354 0.10932
H_ H_ 0.67553 0.862117 0.815284 0.10932
H_ H_ 0.936459 0.846639 0.814502 0.10932
H_ H_ 0.721639 0.90769 0.683233 0.10932
H_ H_ 0.951459 0.928728 0.684717 0.10932
H_ H_ 0.700216 0.567053 0.810358 0.10932
H_ H_ 0.979279 0.591329 0.816679 0.10932
H_ H_ 0.697761 0.654752 0.683179 0.10932
H_ H_ 0.926992 0.633596 0.681736 0.10932
H_ H_ 0.669604 0.631605 0.812936 0.10932
H_ H_ 0.941341 0.644066 0.811753 0.10932
H_ H_ 0.724378 0.58791 0.68061 0.10932
H_ H_ 0.961812 0.572504 0.685073 0.10932
H_ H_ 0.543438 0.570892 0.683433 0.10932
H_ H_ 0.805532 0.556368 0.689657 0.10932
H_ H_ 0.574005 0.641773 0.815609 0.10932
H_ H_ 0.79931 0.650116 0.813353 0.10932
H_ H_ 0.572956 0.636258 0.682408 0.10932
H_ H_ 0.838668 0.621026 0.692552 0.10932
H_ H_ 0.541979 0.577806 0.816238 0.10932
H_ H_ 0.771611 0.591616 0.811569 0.10932
H_ H_ 0.611494 0.682551 0.859042 0.10932
H_ H_ 0.891817 0.677782 0.859734 0.10932
H_ H_ 0.630885 0.809825 0.84773 0.10932
H_ H_ 0.871657 0.807461 0.857948 0.10932
H_ H_ 0.623777 0.818738 0.92534 0.10932
H_ H_ 0.88045 0.810293 0.932235 0.10932
H_ H_ 0.595546 0.692761 0.933114 0.10932
H_ H_ 0.895206 0.676964 0.93556 0.10932
H_ H_ 0.618095 0.676246 0.645759 0.10932
H_ H_ 0.87024 0.817275 0.644267 0.10932
H_ H_ 0.637957 0.804037 0.633502 0.10932
H_ H_ 0.882927 0.68598 0.632801 0.10932
H_ H_ 0.638716 0.796166 0.556515 0.10932
H_ H_ 0.881699 0.692288 0.556959 0.10932
H_ H_ 0.607785 0.669463 0.566378 0.10932
H_ H_ 0.856522 0.818485 0.568773 0.10932
C_ C_ 0.565064 0.843154 0.739783 -0.02249
C_ C_ 0.811423 0.839579 0.749196 -0.02249
C_ C_ 0.515336 0.961174 0.747399 -0.02249
C_ C_ 0.766204 0.958248 0.748709 -0.02249
C_ C_ 0.545366 0.907833 0.70625 -0.11473
C_ C_ 0.789263 0.899931 0.71222 -0.11473
C_ C_ 0.553021 0.856232 0.778478 -0.11473
C_ C_ 0.801097 0.858616 0.787078 -0.11473
C_ C_ 0.559584 0.869425 0.702963 -0.11473
C_ C_ 0.806899 0.862338 0.711214 -0.11473
C_ C_ 0.533177 0.920695 0.744364 -0.02249
C_ C_ 0.781873 0.917866 0.751082 -0.02249
C_ C_ 0.583893 0.804807 0.738901 0.6875
C_ C_ 0.831072 0.80129 0.748293 0.6875
C_ C_ 0.538499 0.896719 0.780686 -0.11473
C_ C_ 0.789114 0.897394 0.788756 -0.11473
C_ C_ 0.681729 0.849185 0.748796 -0.02249
C_ C_ 0.927447 0.849395 0.747038 -0.02249
C_ C_ 0.734613 0.959898 0.746863 -0.02249
C_ C_ 0.983137 0.960946 0.748538 -0.02249
C_ C_ 0.701381 0.908562 0.786049 -0.11473
C_ C_ 0.956924 0.90112 0.786349 -0.11473
C_ C_ 0.696188 0.861614 0.711338 -0.11473
C_ C_ 0.933847 0.87124 0.709177 -0.11473
C_ C_ 0.687175 0.869769 0.786918 -0.11473
C_ C_ 0.940485 0.86367 0.784542 -0.11473
C_ C_ 0.71588 0.92103 0.749165 -0.02249
C_ C_ 0.964913 0.921422 0.748758 -0.02249
C_ C_ 0.665903 0.808961 0.749004 0.6875
C_ C_ 0.911069 0.808728 0.746071 0.6875
C_ C_ 0.713485 0.897709 0.711897 -0.11473
C_ C_ 0.949609 0.909211 0.712319 -0.11473
C_ C_ 0.685601 0.650843 0.74844 -0.02249
C_ C_ 0.93574 0.649067 0.746561 -0.02249
C_ C_ 0.732931 0.534143 0.748665 -0.02249
C_ C_ 0.983605 0.533564 0.753958 -0.02249
C_ C_ 0.701196 0.58743 0.783995 -0.11473
C_ C_ 0.966433 0.598801 0.785667 -0.11473
C_ C_ 0.70003 0.63726 0.711695 -0.11473
C_ C_ 0.938391 0.625936 0.710793 -0.11473
C_ C_ 0.686436 0.6262 0.785408 -0.11473
C_ C_ 0.949538 0.633582 0.784647 -0.11473
C_ C_ 0.71529 0.573447 0.74688 -0.02249
C_ C_ 0.967372 0.574204 0.75064 -0.02249
C_ C_ 0.664257 0.685866 0.747473 0.6875
C_ C_ 0.91495 0.686314 0.745744 0.6875
C_ C_ 0.712402 0.59732 0.709989 -0.11473
C_ C_ 0.955915 0.589993 0.713122 -0.11473
C_ C_ 0.572345 0.64663 0.748288 -0.02249
C_ C_ 0.818986 0.645069 0.750492 -0.02249
C_ C_ 0.520062 0.534565 0.749683 -0.02249
C_ C_ 0.764565 0.534434 0.745546 -0.02249
C_ C_ 0.547821 0.588694 0.711445 -0.11473
C_ C_ 0.804101 0.580829 0.715051 -0.11473
C_ C_ 0.565831 0.626753 0.786613 -0.11473
C_ C_ 0.800362 0.634165 0.783681 -0.11473
C_ C_ 0.566301 0.623304 0.711617 -0.11473
C_ C_ 0.822019 0.617088 0.717143 -0.11473
C_ C_ 0.537194 0.573863 0.749592 -0.02249
C_ C_ 0.782465 0.573244 0.746767 -0.02249
C_ C_ 0.589128 0.686079 0.748668 0.6875
C_ C_ 0.837578 0.683864 0.750538 0.6875
C_ C_ 0.548592 0.590994 0.787739 -0.11473
C_ C_ 0.781947 0.599039 0.781342 -0.11473
C_ C_ 0.611939 0.713082 0.87321 0.17695
C_ C_ 0.888083 0.705266 0.875415 0.17695
C_ C_ 0.621266 0.784558 0.867151 0.17695
C_ C_ 0.874796 0.777653 0.875345 0.17695
C_ C_ 0.618208 0.790096 0.910718 -0.11473
C_ C_ 0.877115 0.77842 0.91914 -0.11473
C_ C_ 0.612854 0.755349 0.936153 0.23465
C_ C_ 0.885878 0.74211 0.941292 0.23465
C_ C_ 0.607438 0.717595 0.916889 -0.11473
C_ C_ 0.890044 0.705504 0.919086 -0.11473
C_ C_ 0.617695 0.703585 0.62585 0.17695
C_ C_ 0.871384 0.788811 0.624369 0.17695
C_ C_ 0.633368 0.773861 0.618469 0.17695
C_ C_ 0.878551 0.71648 0.619241 0.17695
C_ C_ 0.630348 0.771072 0.575627 -0.11473
C_ C_ 0.880064 0.719734 0.574985 -0.11473
C_ C_ 0.622094 0.732194 0.556569 0.23465
C_ C_ 0.87209 0.757593 0.554889 0.23465
C_ C_ 0.612957 0.699346 0.582381 -0.11473
C_ C_ 0.868932 0.792504 0.580845 -0.11473
C_ C_ 0.530725 -0.0019090000000000495 0.742883 0.05793
C_ C_ 0.782568 -0.005059999999999953 0.756662 0.05793
C_ C_ 0.7173 0.497159 0.746177 0.05793
C_ C_ 0.967197 0.497703 0.754064 0.05793
Br Br 0.575444 -0.005296999999999996 0.744624 -0.17191
Br Br 0.8243 0.988719 0.767424 -0.17191
Br Br 0.674894 0.497905 0.733568 -0.17191
Br Br 0.924301 0.502009 0.756335 -0.17191
N_ N_ 0.619028 0.74644 0.84879 -0.272
N_ N_ 0.879724 0.74116 0.854201 -0.272
N_ N_ 0.607273 0.761602 0.981523 -0.12501
N_ N_ 0.888867 0.740601 0.985563 -0.12501
N_ N_ 0.624209 0.742018 0.642131 -0.272
N_ N_ 0.871619 0.751547 0.643163 -0.272
N_ N_ 0.622846 0.727009 0.512027 -0.12501
N_ N_ 0.876169 0.76297 0.512109 -0.12501
O_ O_ 0.592611 0.788559 0.705139 -0.60745
O_ O_ 0.841883 0.789432 0.714599 -0.60745
O_ O_ 0.596895 0.793625 0.772643 -0.60745
O_ O_ 0.840352 0.786091 0.782786 -0.60745
O_ O_ 0.657544 0.79186 0.783273 -0.60745
O_ O_ 0.90348 0.791589 0.779912 -0.60745
O_ O_ 0.655319 0.795611 0.715308 -0.60745
O_ O_ 0.902352 0.793674 0.712729 -0.60745
O_ O_ 0.657779 0.703676 0.78273 -0.60745
O_ O_ 0.908802 0.70442 0.779801 -0.60745
O_ O_ 0.653468 0.699654 0.712737 -0.60745
O_ O_ 0.906549 0.703245 0.711197 -0.60745
O_ O_ 0.593116 0.705098 0.713497 -0.60745
O_ O_ 0.846345 0.69947 0.715359 -0.60745
O_ O_ 0.596856 0.703401 0.782208 -0.60745
O_ O_ 0.846888 0.700085 0.785508 -0.60745
_cell_length_a 44.444
_cell_length_b 32.3360000049186
_cell_length_c 31.843999878906452
_cell_angle_alpha 89.99799923859553
_cell_angle_beta 91.13600050494348
_cell_angle_gamma 89.9990006550086
_symmetry_space_group_name_H-M         'P 1'
_symmetry_Int_Tables_number            1
loop_
_symmetry_equiv_pos_as_xyz
   'x, y, z'
                         
loop_
_atom_site_label
_atom_site_type_symbol
_atom_site_fract_x 
_atom_site_fract_y
_atom_site_fract_z
_atom_site_charge
Zn Zn 0.131172 0.256648 0.28941 0.9476
Zn Zn 0.37317 0.252817 0.285237 0.9476
Zn Zn 0.130182 0.254805 0.220517 0.9476
Zn Zn 0.371636 0.253026 0.216832 0.9476
H_ H_ 0.030819 0.413059 0.184275 0.10932
H_ H_ 0.282253 0.423583 0.192499 0.10932
H_ H_ 0.0637812 0.351028 0.32003 0.10932
H_ H_ 0.325796 0.36711 0.323941 0.10932
H_ H_ 0.0655759 0.354346 0.186188 0.10932
H_ H_ 0.306792 0.353663 0.19295 0.10932
H_ H_ 0.0319301 0.413676 0.320739 0.10932
H_ H_ 0.302929 0.43574 0.325585 0.10932
H_ H_ 0.231492 0.41544 0.316994 0.10932
H_ H_ 0.456241 0.422897 0.319512 0.10932
H_ H_ 0.185626 0.362836 0.184039 0.10932
H_ H_ 0.445312 0.345663 0.185729 0.10932
H_ H_ 0.207112 0.349446 0.315943 0.10932
H_ H_ 0.431893 0.357504 0.321094 0.10932
H_ H_ 0.20717 0.432346 0.188276 0.10932
H_ H_ 0.471495 0.410221 0.185181 0.10932
H_ H_ 0.222722 0.0886524 0.327969 0.10932
H_ H_ 0.476613 0.0997976 0.309766 0.10932
H_ H_ 0.177686 0.144264 0.195854 0.10932
H_ H_ 0.419787 0.1431 0.182478 0.10932
H_ H_ 0.198623 0.155332 0.328724 0.10932
H_ H_ 0.443829 0.159702 0.313068 0.10932
H_ H_ 0.198755 0.0750826 0.199866 0.10932
H_ H_ 0.449525 0.0784869 0.181083 0.10932
H_ H_ 0.0334283 0.0910749 0.182201 0.10932
H_ H_ 0.280049 0.0875437 0.18434 0.10932
H_ H_ 0.064973 0.156826 0.315391 0.10932
H_ H_ 0.31275 0.144765 0.321556 0.10932
H_ H_ 0.0688822 0.152823 0.182926 0.10932
H_ H_ 0.308205 0.150418 0.185293 0.10932
H_ H_ 0.0350223 0.0954963 0.314695 0.10932
H_ H_ 0.291379 0.0775554 0.319189 0.10932
H_ H_ 0.126882 0.197481 0.367891 0.10932
H_ H_ 0.322314 0.256355 0.359027 0.10932
H_ H_ 0.138229 0.327759 0.364991 0.10932
H_ H_ 0.417342 0.248496 0.364978 0.10932
H_ H_ 0.135186 0.33183 0.440686 0.10932
H_ H_ 0.414672 0.242063 0.447753 0.10932
H_ H_ 0.119864 0.200244 0.445828 0.10932
H_ H_ 0.320586 0.267705 0.434565 0.10932
H_ H_ 0.123177 0.322168 0.149394 0.10932
H_ H_ 0.365198 0.19141 0.139694 0.10932
H_ H_ 0.139041 0.189732 0.14152 0.10932
H_ H_ 0.359565 0.319692 0.147965 0.10932
H_ H_ 0.134876 0.196377 0.062573 0.10932
H_ H_ 0.365343 0.328828 0.0719654 0.10932
H_ H_ 0.117558 0.324809 0.0725443 0.10932
H_ H_ 0.374429 0.197228 0.063419 0.10932
C_ C_ 0.0700326 0.352553 0.252393 -0.02249
C_ C_ 0.317674 0.356218 0.258433 -0.02249
C_ C_ 0.0164065 0.463171 0.252154 -0.02249
C_ C_ 0.267725 0.473063 0.26183 -0.02249
C_ C_ 0.0414433 0.406016 0.214963 -0.11473
C_ C_ 0.291249 0.412365 0.223223 -0.11473
C_ C_ 0.0604948 0.368784 0.290987 -0.11473
C_ C_ 0.315082 0.378254 0.296518 -0.11473
C_ C_ 0.0589006 0.370264 0.21465 -0.11473
C_ C_ 0.304669 0.372571 0.221659 -0.11473
C_ C_ 0.0317113 0.422742 0.252522 -0.02249
C_ C_ 0.287046 0.433401 0.261547 -0.02249
C_ C_ 0.0919112 0.316061 0.253107 0.6875
C_ C_ 0.334463 0.315285 0.258795 0.6875
C_ C_ 0.0412979 0.404248 0.290678 -0.11473
C_ C_ 0.300741 0.416706 0.297707 -0.11473
C_ C_ 0.189433 0.353343 0.252146 -0.02249
C_ C_ 0.434732 0.348319 0.251711 -0.02249
C_ C_ 0.235677 0.471088 0.255455 -0.02249
C_ C_ 0.483111 0.46456 0.252274 -0.02249
C_ C_ 0.221858 0.404509 0.28796 -0.11473
C_ C_ 0.457652 0.40416 0.290423 -0.11473
C_ C_ 0.191463 0.377233 0.214002 -0.11473
C_ C_ 0.447637 0.363227 0.215082 -0.11473
C_ C_ 0.205291 0.368147 0.289245 -0.11473
C_ C_ 0.438911 0.369846 0.289218 -0.11473
C_ C_ 0.220081 0.430141 0.253576 -0.02249
C_ C_ 0.468176 0.421314 0.252224 -0.02249
C_ C_ 0.170106 0.315787 0.255063 0.6875
C_ C_ 0.415372 0.310262 0.251927 0.6875
C_ C_ 0.208064 0.413966 0.21577 -0.11473
C_ C_ 0.462427 0.400897 0.214355 -0.11473
C_ C_ 0.188066 0.156818 0.261242 -0.02249
C_ C_ 0.433331 0.158846 0.245223 -0.02249
C_ C_ 0.234622 0.0376672 0.255998 -0.02249
C_ C_ 0.483442 0.0446098 0.245989 -0.02249
C_ C_ 0.216092 0.102492 0.298591 -0.11473
C_ C_ 0.464684 0.110267 0.281259 -0.11473
C_ C_ 0.191317 0.134248 0.223738 -0.11473
C_ C_ 0.435408 0.135693 0.209428 -0.11473
C_ C_ 0.200822 0.141076 0.298592 -0.11473
C_ C_ 0.447428 0.146157 0.281983 -0.11473
C_ C_ 0.217583 0.0785928 0.260203 -0.02249
C_ C_ 0.466642 0.085673 0.245141 -0.02249
C_ C_ 0.167556 0.194848 0.259123 0.6875
C_ C_ 0.408954 0.192478 0.245645 0.6875
C_ C_ 0.204802 0.0953226 0.22482 -0.11473
C_ C_ 0.453122 0.0998799 0.207893 -0.11473
C_ C_ 0.0724996 0.156834 0.247587 -0.02249
C_ C_ 0.311534 0.156808 0.252952 -0.02249
C_ C_ 0.017805 0.043853 0.247435 -0.02249
C_ C_ 0.26624 0.0383633 0.25047 -0.02249
C_ C_ 0.0438382 0.101663 0.210144 -0.11473
C_ C_ 0.28574 0.101104 0.215423 -0.11473
C_ C_ 0.0620774 0.140185 0.285253 -0.11473
C_ C_ 0.304143 0.135404 0.291005 -0.11473
C_ C_ 0.0633657 0.137019 0.210778 -0.11473
C_ C_ 0.302009 0.137671 0.215502 -0.11473
C_ C_ 0.0359469 0.0837549 0.248325 -0.02249
C_ C_ 0.282395 0.0781863 0.252751 -0.02249
C_ C_ 0.0930362 0.194802 0.24975 0.6875
C_ C_ 0.332886 0.194669 0.253744 0.6875
C_ C_ 0.0451472 0.104552 0.28588 -0.11473
C_ C_ 0.28958 0.0966232 0.291787 -0.11473
C_ C_ 0.128082 0.226414 0.384616 0.17695
C_ C_ 0.34298 0.255312 0.377953 0.17695
C_ C_ 0.133841 0.298958 0.382495 0.17695
C_ C_ 0.396269 0.247961 0.384109 0.17695
C_ C_ 0.13296 0.301751 0.426934 -0.11473
C_ C_ 0.394174 0.247194 0.428825 -0.11473
C_ C_ 0.126873 0.265878 0.449953 0.23465
C_ C_ 0.366012 0.254562 0.446614 0.23465
C_ C_ 0.127617 0.227886 0.42886 -0.11473
C_ C_ 0.341144 0.259893 0.422035 -0.11473
C_ C_ 0.124152 0.292497 0.130214 0.17695
C_ C_ 0.36774 0.221063 0.124179 0.17695
C_ C_ 0.136424 0.218946 0.125848 0.17695
C_ C_ 0.361943 0.294569 0.127312 0.17695
C_ C_ 0.130894 0.2211 0.0823496 -0.11473
C_ C_ 0.367581 0.298625 0.085523 -0.11473
C_ C_ 0.125962 0.260142 0.0619817 0.23465
C_ C_ 0.369899 0.262794 0.0593408 0.23465
C_ C_ 0.122448 0.294735 0.0870536 -0.11473
C_ C_ 0.372844 0.224657 0.0806127 -0.11473
C_ C_ 0.0319311 0.500288 0.257101 0.05793
C_ C_ 0.282482 0.510971 0.265559 0.05793
C_ C_ 0.217683 0.00202489 0.258316 0.05793
C_ C_ 0.466952 1.00670701 0.246249 0.05793
Br Br 0.0728822 0.498298 0.275333 -0.17191
Br Br 0.32601 0.517002 0.281452 -0.17191
Br Br 0.175235 0.0023738 0.273193 -0.17191
Br Br 0.423753 1.00679439 0.244482 -0.17191
N_ N_ 0.130248 0.262482 0.361768 -0.272
N_ N_ 0.370759 0.250212 0.359939 -0.272
N_ N_ 0.121873 0.270539 0.4948 -0.12501
N_ N_ 0.3618 0.250654 0.491037 -0.12501
N_ N_ 0.130915 0.255028 0.148549 -0.272
N_ N_ 0.366286 0.25667 0.146393 -0.272
N_ N_ 0.121529 0.264244 0.0173678 -0.12501
N_ N_ 0.371516 0.266828 0.0143356 -0.12501
O_ O_ 0.100975 0.299762 0.22008 -0.60745
O_ O_ 0.339845 0.297639 0.224249 -0.60745
O_ O_ 0.0997906 0.300334 0.28729 -0.60745
O_ O_ 0.350006 0.305116 0.291207 -0.60745
O_ O_ 0.159364 0.304192 0.289708 -0.60745
O_ O_ 0.412198 0.289147 0.285403 -0.60745
O_ O_ 0.162183 0.296603 0.220447 -0.60745
O_ O_ 0.400703 0.299963 0.217978 -0.60745
O_ O_ 0.164909 0.217416 0.291241 -0.60745
O_ O_ 0.397599 0.202341 0.280567 -0.60745
O_ O_ 0.161299 0.210256 0.223834 -0.60745
O_ O_ 0.402414 0.213879 0.213133 -0.60745
O_ O_ 0.0981712 0.215594 0.217111 -0.60745
O_ O_ 0.344738 0.204394 0.220816 -0.60745
O_ O_ 0.105484 0.206961 0.284749 -0.60745
O_ O_ 0.336969 0.21752 0.28547 -0.60745
Zn Zn 0.127897 0.243482 0.787134 0.9476
Zn Zn 0.377623 0.249321 0.786089 0.9476
Zn Zn 0.127186 0.243693 0.719913 0.9476
Zn Zn 0.376565 0.247306 0.71996 0.9476
H_ H_ 0.0225373 0.402221 0.688944 0.10932
H_ H_ 0.271906 0.399959 0.691429 0.10932
H_ H_ 0.0720325 0.349327 0.822082 0.10932
H_ H_ 0.332675 0.366211 0.81917 0.10932
H_ H_ 0.0510489 0.338197 0.688631 0.10932
H_ H_ 0.300155 0.337841 0.692848 0.10932
H_ H_ 0.0359909 0.410142 0.821357 0.10932
H_ H_ 0.306081 0.429931 0.817229 0.10932
H_ H_ 0.21048 0.416297 0.821214 0.10932
H_ H_ 0.478509 0.410673 0.815451 0.10932
H_ H_ 0.192699 0.343945 0.685782 0.10932
H_ H_ 0.424797 0.357334 0.688355 0.10932
H_ H_ 0.188095 0.348346 0.820121 0.10932
H_ H_ 0.441526 0.353233 0.821165 0.10932
H_ H_ 0.220885 0.407657 0.684302 0.10932
H_ H_ 0.458741 0.414597 0.683324 0.10932
H_ H_ 0.213961 0.0731731 0.817956 0.10932
H_ H_ 0.470198 0.0812245 0.813015 0.10932
H_ H_ 0.19581 0.151417 0.684205 0.10932
H_ H_ 0.441007 0.15171 0.681251 0.10932
H_ H_ 0.1938 0.141889 0.817652 0.10932
H_ H_ 0.441804 0.145333 0.817044 0.10932
H_ H_ 0.223891 0.0868361 0.681001 0.10932
H_ H_ 0.470047 0.0854296 0.678532 0.10932
H_ H_ 0.0519755 0.0686333 0.690808 0.10932
H_ H_ 0.308088 0.0652532 0.682047 0.10932
H_ H_ 0.0469367 0.16134 0.811051 0.10932
H_ H_ 0.311941 0.147353 0.811431 0.10932
H_ H_ 0.0747171 0.137735 0.685849 0.10932
H_ H_ 0.340812 0.12642 0.686589 0.10932
H_ H_ 0.0294029 0.0898723 0.816337 0.10932
H_ H_ 0.281306 0.0854843 0.80661 0.10932
H_ H_ 0.108329 0.307104 0.867856 0.10932
H_ H_ 0.368989 0.310098 0.867251 0.10932
H_ H_ 0.135641 0.180564 0.859623 0.10932
H_ H_ 0.382829 0.18403 0.854452 0.10932
H_ H_ 0.142427 0.182834 0.937451 0.10932
H_ H_ 0.394645 0.17844 0.933603 0.10932
H_ H_ 0.106012 0.301574 0.942896 0.10932
H_ H_ 0.36916 0.305934 0.943352 0.10932
H_ H_ 0.13406 0.183483 0.650499 0.10932
H_ H_ 0.372336 0.186361 0.638522 0.10932
H_ H_ 0.118124 0.311473 0.643365 0.10932
H_ H_ 0.380356 0.315685 0.65292 0.10932
H_ H_ 0.11293 0.307209 0.566841 0.10932
H_ H_ 0.376178 0.323604 0.57787 0.10932
H_ H_ 0.128967 0.17836 0.572971 0.10932
H_ H_ 0.372638 0.192059 0.562486 0.10932
C_ C_ 0.0656827 0.341254 0.755225 -0.02249
C_ C_ 0.316773 0.34504 0.757388 -0.02249
C_ C_ 0.01426 0.455863 0.753432 -0.02249
C_ C_ 0.269263 0.458921 0.753872 -0.02249
C_ C_ 0.034425 0.393217 0.71619 -0.11473
C_ C_ 0.286145 0.39615 0.720252 -0.11473
C_ C_ 0.0628712 0.363288 0.792202 -0.11473
C_ C_ 0.319926 0.372938 0.792477 -0.11473
C_ C_ 0.049981 0.356183 0.716802 -0.11473
C_ C_ 0.300448 0.357422 0.721854 -0.11473
C_ C_ 0.0296225 0.414535 0.753868 -0.02249
C_ C_ 0.287757 0.422344 0.754715 -0.02249
C_ C_ 0.0857769 0.30435 0.753566 0.6875
C_ C_ 0.334231 0.30511 0.755048 0.6875
C_ C_ 0.0429667 0.396707 0.792535 -0.11473
C_ C_ 0.304324 0.410175 0.790943 -0.11473
C_ C_ 0.189077 0.339748 0.753227 -0.02249
C_ C_ 0.432259 0.34913 0.755484 -0.02249
C_ C_ 0.237817 0.456255 0.752566 -0.02249
C_ C_ 0.487939 0.457167 0.749453 -0.02249
C_ C_ 0.212585 0.397957 0.791316 -0.11473
C_ C_ 0.465393 0.399558 0.788272 -0.11473
C_ C_ 0.198657 0.357015 0.71507 -0.11473
C_ C_ 0.438201 0.367012 0.716542 -0.11473
C_ C_ 0.198044 0.359307 0.790708 -0.11473
C_ C_ 0.445113 0.366414 0.791326 -0.11473
C_ C_ 0.222507 0.413648 0.753409 -0.02249
C_ C_ 0.470636 0.417556 0.749817 -0.02249
C_ C_ 0.170233 0.303288 0.752676 0.6875
C_ C_ 0.413789 0.309572 0.757567 0.6875
C_ C_ 0.213871 0.394516 0.715203 -0.11473
C_ C_ 0.456132 0.402824 0.713593 -0.11473
C_ C_ 0.189993 0.150877 0.75122 -0.02249
C_ C_ 0.435946 0.151798 0.749997 -0.02249
C_ C_ 0.238887 0.0350451 0.745426 -0.02249
C_ C_ 0.484232 0.0356999 0.744214 -0.02249
C_ C_ 0.214093 0.0935972 0.787314 -0.11473
C_ C_ 0.461281 0.0935484 0.784209 -0.11473
C_ C_ 0.19993 0.135797 0.7119 -0.11473
C_ C_ 0.446675 0.135316 0.710851 -0.11473
C_ C_ 0.199328 0.130356 0.788329 -0.11473
C_ C_ 0.445992 0.132441 0.786676 -0.11473
C_ C_ 0.224373 0.0772913 0.748604 -0.02249
C_ C_ 0.468402 0.0768092 0.745296 -0.02249
C_ C_ 0.168219 0.185562 0.751777 0.6875
C_ C_ 0.41585 0.188529 0.752176 0.6875
C_ C_ 0.217497 0.100176 0.711762 -0.11473
C_ C_ 0.463038 0.0990386 0.708855 -0.11473
C_ C_ 0.0662405 0.152042 0.750702 -0.02249
C_ C_ 0.322088 0.147648 0.744785 -0.02249
C_ C_ 0.0173798 0.0341215 0.752201 -0.02249
C_ C_ 0.270313 0.0334551 0.742767 -0.02249
C_ C_ 0.0524259 0.0877819 0.717016 -0.11473
C_ C_ 0.306258 0.0844753 0.708343 -0.11473
C_ C_ 0.0499514 0.139464 0.786006 -0.11473
C_ C_ 0.306908 0.134202 0.781246 -0.11473
C_ C_ 0.0673991 0.125604 0.715917 -0.11473
C_ C_ 0.322732 0.121286 0.708352 -0.11473
C_ C_ 0.0358983 0.0734672 0.752717 -0.02249
C_ C_ 0.289138 0.0734708 0.743254 -0.02249
C_ C_ 0.0848342 0.189632 0.75105 0.6875
C_ C_ 0.339249 0.187882 0.743955 0.6875
C_ C_ 0.0350475 0.100372 0.787298 -0.11473
C_ C_ 0.29087 0.0970532 0.779191 -0.11473
C_ C_ 0.113238 0.275954 0.881568 0.17695
C_ C_ 0.369524 0.280351 0.881086 0.17695
C_ C_ 0.129608 0.208237 0.878287 0.17695
C_ C_ 0.383967 0.210689 0.874788 0.17695
C_ C_ 0.12904 0.205454 0.923376 -0.11473
C_ C_ 0.388849 0.207104 0.919755 -0.11473
C_ C_ 0.122438 0.238958 0.947624 0.23465
C_ C_ 0.38005 0.241204 0.945464 0.23465
C_ C_ 0.110666 0.273429 0.92591 -0.11473
C_ C_ 0.37122 0.27848 0.925368 -0.11473
C_ C_ 0.130916 0.210421 0.631832 0.17695
C_ C_ 0.37505 0.216789 0.625586 0.17695
C_ C_ 0.117789 0.282303 0.627922 0.17695
C_ C_ 0.381342 0.288316 0.634404 0.17695
C_ C_ 0.119669 0.281397 0.58551 -0.11473
C_ C_ 0.380682 0.29299 0.589876 -0.11473
C_ C_ 0.123387 0.243775 0.56525 0.23465
C_ C_ 0.375233 0.259691 0.562795 0.23465
C_ C_ 0.130288 0.207547 0.588559 -0.11473
C_ C_ 0.372719 0.220072 0.581199 -0.11473
C_ C_ 0.0296538 0.493322 0.745304 0.05793
C_ C_ 0.283643 0.498712 0.74992 0.05793
C_ C_ 0.221148 -0.0004910000000000192 0.748052 0.05793
C_ C_ 0.468152 0.998536 0.746545 0.05793
Br Br 0.0731773 0.495788 0.746424 -0.17191
Br Br 0.326325 0.504287 0.753503 -0.17191
Br Br 0.178034 0.00281773 0.750444 -0.17191
Br Br 0.42598 0.997416 0.733195 -0.17191
N_ N_ 0.124295 0.24419 0.858756 -0.272
N_ N_ 0.375664 0.247854 0.855815 -0.272
N_ N_ 0.123889 0.233977 0.992438 -0.12501
N_ N_ 0.382625 0.238997 0.991257 -0.12501
N_ N_ 0.124907 0.248173 0.65057 -0.272
N_ N_ 0.379683 0.250039 0.651666 -0.272
N_ N_ 0.126031 0.240548 0.520095 -0.12501
N_ N_ 0.380716 0.263808 0.518582 -0.12501
O_ O_ 0.09202 0.286034 0.718658 -0.60745
O_ O_ 0.344872 0.294429 0.721516 -0.60745
O_ O_ 0.0978229 0.291122 0.786484 -0.60745
O_ O_ 0.342513 0.288029 0.78953 -0.60745
O_ O_ 0.163078 0.28514 0.788075 -0.60745
O_ O_ 0.405006 0.297001 0.79255 -0.60745
O_ O_ 0.157983 0.2893 0.718787 -0.60745
O_ O_ 0.404508 0.291921 0.723567 -0.60745
O_ O_ 0.155214 0.195552 0.786312 -0.60745
O_ O_ 0.409114 0.203379 0.787678 -0.60745
O_ O_ 0.161777 0.203781 0.717024 -0.60745
O_ O_ 0.407608 0.205812 0.719088 -0.60745
O_ O_ 0.0970568 0.200097 0.717958 -0.60745
O_ O_ 0.347155 0.203733 0.709198 -0.60745
O_ O_ 0.0933564 0.205945 0.785996 -0.60745
O_ O_ 0.348066 0.202079 0.778944 -0.60745
Zn Zn 0.121873 0.75339 0.28397 0.9476
Zn Zn 0.377404 0.754426 0.289616 0.9476
Zn Zn 0.121753 0.754954 0.216215 0.9476
Zn Zn 0.376435 0.753047 0.21872 0.9476
H_ H_ 0.0346725 0.924354 0.178198 0.10932
H_ H_ 0.2821 0.916787 0.18106 0.10932
H_ H_ 0.0656095 0.856852 0.308023 0.10932
H_ H_ 0.31521 0.856802 0.319076 0.10932
H_ H_ 0.0631971 0.860911 0.174371 0.10932
H_ H_ 0.31519 0.85592 0.183999 0.10932
H_ H_ 0.0392803 0.923661 0.313367 0.10932
H_ H_ 0.288303 0.923886 0.311645 0.10932
H_ H_ 0.220093 0.912076 0.320001 0.10932
H_ H_ 0.47544 0.913864 0.30887 0.10932
H_ H_ 0.168386 0.874409 0.184362 0.10932
H_ H_ 0.428588 0.864713 0.17498 0.10932
H_ H_ 0.191142 0.84982 0.316861 0.10932
H_ H_ 0.443847 0.852825 0.309064 0.10932
H_ H_ 0.197226 0.939614 0.192428 0.10932
H_ H_ 0.452782 0.934158 0.180073 0.10932
H_ H_ 0.201101 0.579583 0.317765 0.10932
H_ H_ 0.457212 0.581199 0.319842 0.10932
H_ H_ 0.200757 0.673174 0.197858 0.10932
H_ H_ 0.434951 0.652876 0.180927 0.10932
H_ H_ 0.161814 0.634352 0.311764 0.10932
H_ H_ 0.42796 0.646537 0.317311 0.10932
H_ H_ 0.231438 0.608787 0.194879 0.10932
H_ H_ 0.463808 0.591837 0.183618 0.10932
H_ H_ 0.028638 0.591864 0.182603 0.10932
H_ H_ 0.286428 0.579552 0.19621 0.10932
H_ H_ 0.0669137 0.646156 0.318254 0.10932
H_ H_ 0.314603 0.660485 0.324864 0.10932
H_ H_ 0.0601394 0.652115 0.182946 0.10932
H_ H_ 0.317989 0.644403 0.192668 0.10932
H_ H_ 0.0402541 0.57435 0.31625 0.10932
H_ H_ 0.282121 0.599518 0.327091 0.10932
H_ H_ 0.119307 0.821033 0.35147 0.10932
H_ H_ 0.370938 0.820751 0.356752 0.10932
H_ H_ 0.115218 0.692784 0.360058 0.10932
H_ H_ 0.380738 0.694778 0.368873 0.10932
H_ H_ 0.115894 0.696135 0.439063 0.10932
H_ H_ 0.381586 0.699723 0.445688 0.10932
H_ H_ 0.134539 0.827142 0.424459 0.10932
H_ H_ 0.37862 0.832261 0.428835 0.10932
H_ H_ 0.109847 0.688829 0.148811 0.10932
H_ H_ 0.370468 0.815755 0.146316 0.10932
H_ H_ 0.134105 0.816228 0.137198 0.10932
H_ H_ 0.369033 0.68469 0.137105 0.10932
H_ H_ 0.138304 0.807727 0.0633545 0.10932
H_ H_ 0.3727 0.688947 0.0613521 0.10932
H_ H_ 0.11469 0.677634 0.0747847 0.10932
H_ H_ 0.363235 0.823501 0.0707978 0.10932
C_ C_ 0.0663242 0.852959 0.243183 -0.02249
C_ C_ 0.316998 0.850045 0.251976 -0.02249
C_ C_ 0.0152705 0.968119 0.244376 -0.02249
C_ C_ 0.264635 0.962742 0.247005 -0.02249
C_ C_ 0.0424611 0.911393 0.206753 -0.11473
C_ C_ 0.289755 0.903891 0.211562 -0.11473
C_ C_ 0.0589225 0.872036 0.281382 -0.11473
C_ C_ 0.308188 0.869778 0.289151 -0.11473
C_ C_ 0.0603461 0.875224 0.205137 -0.11473
C_ C_ 0.30834 0.868296 0.213234 -0.11473
C_ C_ 0.0334156 0.928398 0.246307 -0.02249
C_ C_ 0.281964 0.923777 0.248568 -0.02249
C_ C_ 0.0829751 0.812127 0.24511 0.6875
C_ C_ 0.33575 0.812189 0.252601 0.6875
C_ C_ 0.0441366 0.910844 0.28358 -0.11473
C_ C_ 0.289141 0.904951 0.286164 -0.11473
C_ C_ 0.178692 0.852241 0.250002 -0.02249
C_ C_ 0.431685 0.853818 0.243857 -0.02249
C_ C_ 0.234225 0.96284 0.25642 -0.02249
C_ C_ 0.481681 0.968194 0.242041 -0.02249
C_ C_ 0.210947 0.900499 0.290192 -0.11473
C_ C_ 0.464851 0.904618 0.281018 -0.11473
C_ C_ 0.181669 0.878218 0.213626 -0.11473
C_ C_ 0.435405 0.876836 0.206772 -0.11473
C_ C_ 0.195955 0.863785 0.287277 -0.11473
C_ C_ 0.446736 0.8689 0.28119 -0.11473
C_ C_ 0.216463 0.923114 0.254372 -0.02249
C_ C_ 0.463898 0.928697 0.244348 -0.02249
C_ C_ 0.158012 0.814724 0.25078 0.6875
C_ C_ 0.414165 0.814435 0.247261 0.6875
C_ C_ 0.200883 0.913425 0.215457 -0.11473
C_ C_ 0.450691 0.914444 0.208388 -0.11473
C_ C_ 0.178281 0.654599 0.252975 -0.02249
C_ C_ 0.433538 0.658383 0.250331 -0.02249
C_ C_ 0.233917 0.54742 0.255791 -0.02249
C_ C_ 0.479486 0.538337 0.249301 -0.02249
C_ C_ 0.197931 0.595971 0.289383 -0.11473
C_ C_ 0.451009 0.594973 0.28971 -0.11473
C_ C_ 0.19829 0.648903 0.220723 -0.11473
C_ C_ 0.441756 0.638217 0.211665 -0.11473
C_ C_ 0.178192 0.627678 0.286408 -0.11473
C_ C_ 0.436299 0.633808 0.28802 -0.11473
C_ C_ 0.214933 0.584938 0.254336 -0.02249
C_ C_ 0.461566 0.577737 0.250656 -0.02249
C_ C_ 0.159282 0.692844 0.254548 0.6875
C_ C_ 0.415171 0.694561 0.250958 0.6875
C_ C_ 0.216228 0.612662 0.220303 -0.11473
C_ C_ 0.454812 0.598741 0.212881 -0.11473
C_ C_ 0.0646792 0.654166 0.251761 -0.02249
C_ C_ 0.319747 0.655446 0.257863 -0.02249
C_ C_ 0.0172868 0.537903 0.246167 -0.02249
C_ C_ 0.264902 0.548079 0.265411 -0.02249
C_ C_ 0.0385701 0.599469 0.211688 -0.11473
C_ C_ 0.290061 0.601064 0.223727 -0.11473
C_ C_ 0.0614257 0.630331 0.289185 -0.11473
C_ C_ 0.30945 0.642613 0.296195 -0.11473
C_ C_ 0.0549387 0.6359 0.212859 -0.11473
C_ C_ 0.312404 0.632242 0.221859 -0.11473
C_ C_ 0.0357878 0.575318 0.247641 -0.02249
C_ C_ 0.280782 0.588411 0.263181 -0.02249
C_ C_ 0.0829659 0.692879 0.251204 0.6875
C_ C_ 0.341138 0.69199 0.255538 0.6875
C_ C_ 0.0446312 0.592556 0.287485 -0.11473
C_ C_ 0.288522 0.610848 0.298184 -0.11473
C_ C_ 0.121982 0.795134 0.370685 0.17695
C_ C_ 0.375028 0.79531 0.376793 0.17695
C_ C_ 0.116613 0.722698 0.377489 0.17695
C_ C_ 0.382623 0.724553 0.383102 0.17695
C_ C_ 0.11819 0.724248 0.420803 -0.11473
C_ C_ 0.381566 0.72802 0.42716 -0.11473
C_ C_ 0.124979 0.762886 0.439996 0.23465
C_ C_ 0.378172 0.766764 0.446123 0.23465
C_ C_ 0.128735 0.797025 0.413579 -0.11473
C_ C_ 0.376141 0.801427 0.419996 -0.11473
C_ C_ 0.115009 0.71511 0.128563 0.17695
C_ C_ 0.371473 0.789312 0.126914 0.17695
C_ C_ 0.127854 0.785911 0.123349 0.17695
C_ C_ 0.370479 0.715779 0.121342 0.17695
C_ C_ 0.132186 0.782224 0.0802187 -0.11473
C_ C_ 0.370813 0.718382 0.078012 -0.11473
C_ C_ 0.123342 0.744802 0.0602281 0.23465
C_ C_ 0.367976 0.755947 0.0577004 0.23465
C_ C_ 0.116168 0.70997 0.0857831 -0.11473
C_ C_ 0.368306 0.791865 0.0830163 -0.11473
C_ C_ 0.0324076 1.00503429 0.243723 0.05793
C_ C_ 0.2818 1.000405988 0.244401 0.05793
C_ C_ 0.218717 0.508052 0.252873 0.05793
C_ C_ 0.466368 0.500128 0.249907 0.05793
Br Br 0.0757016 0.00211223 0.239437 -0.17191
Br Br 0.321056 1.00195825 0.220189 -0.17191
Br Br 0.176607 0.503339 0.257466 -0.17191
Br Br 0.420243 0.496086 0.25078 -0.17191
N_ N_ 0.120678 0.757518 0.352803 -0.272
N_ N_ 0.379154 0.758594 0.359691 -0.272
N_ N_ 0.129292 0.767026 0.484883 -0.12501
N_ N_ 0.376139 0.770515 0.49124 -0.12501
N_ N_ 0.12384 0.752252 0.146214 -0.272
N_ N_ 0.374571 0.751278 0.144508 -0.272
N_ N_ 0.123792 0.739357 0.0139001 -0.12501
N_ N_ 0.367692 0.759173 0.0128317 -0.12501
O_ O_ 0.085196 0.791917 0.212322 -0.60745
O_ O_ 0.345196 0.797556 0.218903 -0.60745
O_ O_ 0.0957819 0.801406 0.278335 -0.60745
O_ O_ 0.348018 0.800848 0.287378 -0.60745
O_ O_ 0.155277 0.793104 0.28498 -0.60745
O_ O_ 0.408128 0.797002 0.282864 -0.60745
O_ O_ 0.145723 0.801906 0.217208 -0.60745
O_ O_ 0.401633 0.799811 0.214532 -0.60745
O_ O_ 0.14949 0.707351 0.288797 -0.60745
O_ O_ 0.405647 0.706768 0.286718 -0.60745
O_ O_ 0.15664 0.714497 0.221286 -0.60745
O_ O_ 0.4053 0.71056 0.216517 -0.60745
O_ O_ 0.0950379 0.705291 0.21816 -0.60745
O_ O_ 0.348581 0.706811 0.219672 -0.60745
O_ O_ 0.0889907 0.713762 0.284442 -0.60745
O_ O_ 0.347994 0.712803 0.289356 -0.60745
Zn Zn 0.126707 0.741665 0.783567 0.9476
Zn Zn 0.373994 0.745714 0.786647 0.9476
Zn Zn 0.126795 0.746188 0.712955 0.9476
Zn Zn 0.373293 0.745255 0.716817 0.9476
H_ H_ 0.0296872 0.912172 0.679071 0.10932
H_ H_ 0.278827 0.903665 0.678853 0.10932
H_ H_ 0.0732979 0.857217 0.812114 0.10932
H_ H_ 0.322749 0.858303 0.81718 0.10932
H_ H_ 0.0607177 0.847396 0.677677 0.10932
H_ H_ 0.306657 0.836204 0.684024 0.10932
H_ H_ 0.0381267 0.912029 0.815076 0.10932
H_ H_ 0.288281 0.924921 0.811426 0.10932
H_ H_ 0.207837 0.922235 0.812281 0.10932
H_ H_ 0.45825 0.918147 0.812596 0.10932
H_ H_ 0.18983 0.847731 0.682119 0.10932
H_ H_ 0.44383 0.837249 0.683244 0.10932
H_ H_ 0.184083 0.855682 0.817691 0.10932
H_ H_ 0.417854 0.865124 0.808334 0.10932
H_ H_ 0.214315 0.913597 0.67769 0.10932
H_ H_ 0.471967 0.905536 0.680966 0.10932
H_ H_ 0.201772 0.563096 0.813231 0.10932
H_ H_ 0.454267 0.565657 0.817359 0.10932
H_ H_ 0.206919 0.655456 0.689442 0.10932
H_ H_ 0.449357 0.655576 0.694284 0.10932
H_ H_ 0.176467 0.63088 0.813424 0.10932
H_ H_ 0.423632 0.6301 0.820187 0.10932
H_ H_ 0.228684 0.583903 0.687132 0.10932
H_ H_ 0.478968 0.591878 0.693747 0.10932
H_ H_ 0.0270656 0.584046 0.678392 0.10932
H_ H_ 0.287226 0.574755 0.679519 0.10932
H_ H_ 0.0769412 0.62969 0.810205 0.10932
H_ H_ 0.317538 0.640327 0.813955 0.10932
H_ H_ 0.0610723 0.64549 0.677991 0.10932
H_ H_ 0.315495 0.6402 0.679355 0.10932
H_ H_ 0.0394918 0.568117 0.811291 0.10932
H_ H_ 0.279023 0.582171 0.813966 0.10932
H_ H_ 0.130217 0.81098 0.849736 0.10932
H_ H_ 0.364148 0.806748 0.862744 0.10932
H_ H_ 0.119013 0.68211 0.867545 0.10932
H_ H_ 0.373474 0.677312 0.852812 0.10932
H_ H_ 0.114661 0.691609 0.94504 0.10932
H_ H_ 0.365853 0.669806 0.930129 0.10932
H_ H_ 0.122318 0.822332 0.927878 0.10932
H_ H_ 0.362952 0.802481 0.942679 0.10932
H_ H_ 0.120057 0.681487 0.644966 0.10932
H_ H_ 0.378248 0.808678 0.643197 0.10932
H_ H_ 0.131502 0.810032 0.638043 0.10932
H_ H_ 0.370529 0.679698 0.646707 0.10932
H_ H_ 0.138476 0.805621 0.559319 0.10932
H_ H_ 0.374082 0.6763 0.566966 0.10932
H_ H_ 0.120078 0.673652 0.568267 0.10932
H_ H_ 0.378 0.810109 0.565909 0.10932
C_ C_ 0.065408 0.840382 0.746274 -0.02249
C_ C_ 0.313891 0.839112 0.751982 -0.02249
C_ C_ 0.0149969 0.958811 0.749278 -0.02249
C_ C_ 0.267651 0.956583 0.739643 -0.02249
C_ C_ 0.0383787 0.89824 0.709702 -0.11473
C_ C_ 0.286733 0.892382 0.71009 -0.11473
C_ C_ 0.0573007 0.860522 0.785233 -0.11473
C_ C_ 0.309956 0.86687 0.787591 -0.11473
C_ C_ 0.0552005 0.860706 0.708881 -0.11473
C_ C_ 0.300585 0.851997 0.713575 -0.11473
C_ C_ 0.0289409 0.916876 0.750014 -0.02249
C_ C_ 0.283159 0.916432 0.74392 -0.02249
C_ C_ 0.0863994 0.804981 0.746117 0.6875
C_ C_ 0.332665 0.801683 0.752687 0.6875
C_ C_ 0.0417359 0.898041 0.78676 -0.11473
C_ C_ 0.295576 0.90528 0.783677 -0.11473
C_ C_ 0.182599 0.847451 0.748287 -0.02249
C_ C_ 0.433847 0.842175 0.748576 -0.02249
C_ C_ 0.23597 0.959565 0.748187 -0.02249
C_ C_ 0.483302 0.960066 0.745791 -0.02249
C_ C_ 0.209811 0.902337 0.78484 -0.11473
C_ C_ 0.454748 0.902671 0.782725 -0.11473
C_ C_ 0.192427 0.864861 0.710748 -0.11473
C_ C_ 0.448114 0.853996 0.712361 -0.11473
C_ C_ 0.19202 0.865988 0.786642 -0.11473
C_ C_ 0.43737 0.866167 0.78426 -0.11473
C_ C_ 0.217041 0.920072 0.746329 -0.02249
C_ C_ 0.468279 0.917168 0.746374 -0.02249
C_ C_ 0.164939 0.807475 0.74843 0.6875
C_ C_ 0.412431 0.805261 0.750467 0.6875
C_ C_ 0.211296 0.898719 0.709088 -0.11473
C_ C_ 0.46505 0.892962 0.710935 -0.11473
C_ C_ 0.187202 0.648151 0.751292 -0.02249
C_ C_ 0.430945 0.643811 0.755065 -0.02249
C_ C_ 0.233787 0.532208 0.752333 -0.02249
C_ C_ 0.488218 0.534732 0.751864 -0.02249
C_ C_ 0.200955 0.583498 0.78576 -0.11473
C_ C_ 0.455004 0.587252 0.792638 -0.11473
C_ C_ 0.202226 0.635271 0.715587 -0.11473
C_ C_ 0.450219 0.635297 0.7218 -0.11473
C_ C_ 0.190221 0.623399 0.787982 -0.11473
C_ C_ 0.433979 0.62013 0.79136 -0.11473
C_ C_ 0.217217 0.572467 0.751659 -0.02249
C_ C_ 0.471159 0.575059 0.755558 -0.02249
C_ C_ 0.168411 0.686659 0.751413 0.6875
C_ C_ 0.41106 0.682932 0.754357 0.6875
C_ C_ 0.215869 0.595603 0.714341 -0.11473
C_ C_ 0.466084 0.5995 0.719843 -0.11473
C_ C_ 0.067378 0.645382 0.745327 -0.02249
C_ C_ 0.31659 0.646478 0.747236 -0.02249
C_ C_ 0.0155409 0.533501 0.745993 -0.02249
C_ C_ 0.265225 0.534789 0.747796 -0.02249
C_ C_ 0.0368698 0.593814 0.708603 -0.11473
C_ C_ 0.290933 0.592225 0.708229 -0.11473
C_ C_ 0.0652732 0.621645 0.781579 -0.11473
C_ C_ 0.308219 0.62814 0.784121 -0.11473
C_ C_ 0.0555946 0.630608 0.707307 -0.11473
C_ C_ 0.308489 0.626653 0.709056 -0.11473
C_ C_ 0.0317796 0.573963 0.745964 -0.02249
C_ C_ 0.280079 0.575622 0.746016 -0.02249
C_ C_ 0.0856179 0.68502 0.747556 0.6875
C_ C_ 0.333308 0.688241 0.748087 0.6875
C_ C_ 0.0440643 0.587927 0.783231 -0.11473
C_ C_ 0.288538 0.594989 0.784519 -0.11473
C_ C_ 0.12307 0.786519 0.871549 0.17695
C_ C_ 0.364935 0.77831 0.878964 0.17695
C_ C_ 0.122118 0.712147 0.881842 0.17695
C_ C_ 0.372892 0.706086 0.873047 0.17695
C_ C_ 0.11895 0.71815 0.925489 -0.11473
C_ C_ 0.369414 0.70096 0.917558 -0.11473
C_ C_ 0.118648 0.758256 0.942501 0.23465
C_ C_ 0.362793 0.736637 0.943274 0.23465
C_ C_ 0.118821 0.792996 0.914361 -0.11473
C_ C_ 0.362875 0.774774 0.923904 -0.11473
C_ C_ 0.12545 0.707306 0.626543 0.17695
C_ C_ 0.377182 0.779807 0.62552 0.17695
C_ C_ 0.133672 0.779868 0.621994 0.17695
C_ C_ 0.37273 0.707179 0.627788 0.17695
C_ C_ 0.135862 0.777411 0.576947 -0.11473
C_ C_ 0.374273 0.7047 0.58465 -0.11473
C_ C_ 0.132544 0.738917 0.554841 0.23465
C_ C_ 0.375411 0.742223 0.55988 0.23465
C_ C_ 0.12639 0.7041 0.580895 -0.11473
C_ C_ 0.378794 0.78036 0.581046 -0.11473
C_ C_ 0.0317053 -0.004569000000000045 0.756396 0.05793
C_ C_ 0.285059 -0.006464000000000025 0.739739 0.05793
C_ C_ 0.220312 0.492382 0.754411 0.05793
C_ C_ 0.47281 0.495629 0.75016 0.05793
Br Br 0.074133 -0.008438999999999974 0.768276 -0.17191
Br Br 0.329203 -0.006777000000000033 0.738204 -0.17191
Br Br 0.178973 0.488868 0.761156 -0.17191
Br Br 0.429657 0.49637 0.747581 -0.17191
N_ N_ 0.124358 0.746325 0.856134 -0.272
N_ N_ 0.372372 0.744475 0.856176 -0.272
N_ N_ 0.113368 0.764307 0.98596 -0.12501
N_ N_ 0.359467 0.731557 0.988187 -0.12501
N_ N_ 0.127214 0.745474 0.643379 -0.272
N_ N_ 0.371419 0.743642 0.64759 -0.272
N_ N_ 0.129797 0.73604 0.509169 -0.12501
N_ N_ 0.377864 0.740118 0.514736 -0.12501
O_ O_ 0.0975606 0.792845 0.713064 -0.60745
O_ O_ 0.342984 0.786795 0.719608 -0.60745
O_ O_ 0.0921424 0.784433 0.779131 -0.60745
O_ O_ 0.343034 0.78894 0.787133 -0.60745
O_ O_ 0.156734 0.79189 0.782909 -0.60745
O_ O_ 0.403646 0.792154 0.786368 -0.60745
O_ O_ 0.157616 0.789236 0.713273 -0.60745
O_ O_ 0.402227 0.790107 0.716642 -0.60745
O_ O_ 0.159217 0.70048 0.78607 -0.60745
O_ O_ 0.404881 0.699208 0.789369 -0.60745
O_ O_ 0.156997 0.700441 0.717989 -0.60745
O_ O_ 0.404812 0.700508 0.71917 -0.60745
O_ O_ 0.0921259 0.703976 0.714336 -0.60745
O_ O_ 0.341681 0.703329 0.712607 -0.60745
O_ O_ 0.0993052 0.694659 0.781931 -0.60745
O_ O_ 0.347586 0.697636 0.781982 -0.60745
Zn Zn 0.628569 0.254185 0.281797 0.9476
Zn Zn 0.87258 0.252551 0.286356 0.9476
Zn Zn 0.623044 0.255551 0.214013 0.9476
Zn Zn 0.87381 0.250322 0.215955 0.9476
H_ H_ 0.544693 0.434307 0.184514 0.10932
H_ H_ 0.799576 0.42194 0.172947 0.10932
H_ H_ 0.557223 0.34774 0.313366 0.10932
H_ H_ 0.795933 0.340081 0.304438 0.10932
H_ H_ 0.583267 0.372741 0.183528 0.10932
H_ H_ 0.823167 0.355158 0.177465 0.10932
H_ H_ 0.530446 0.413095 0.316016 0.10932
H_ H_ 0.76944 0.413568 0.298968 0.10932
H_ H_ 0.705248 0.43605 0.308554 0.10932
H_ H_ 0.968248 0.414875 0.314586 0.10932
H_ H_ 0.691334 0.349832 0.181961 0.10932
H_ H_ 0.918219 0.370839 0.183692 0.10932
H_ H_ 0.678572 0.367362 0.314538 0.10932
H_ H_ 0.93927 0.354056 0.318603 0.10932
H_ H_ 0.722247 0.409392 0.176918 0.10932
H_ H_ 0.955203 0.426061 0.182397 0.10932
H_ H_ 0.69182 0.0677465 0.309471 0.10932
H_ H_ 0.969114 0.0938285 0.318834 0.10932
H_ H_ 0.699775 0.155634 0.186468 0.10932
H_ H_ 0.94837 0.16375 0.187296 0.10932
H_ H_ 0.664059 0.13377 0.310271 0.10932
H_ H_ 0.933436 0.148339 0.317706 0.10932
H_ H_ 0.731863 0.0999599 0.189895 0.10932
H_ H_ 0.975128 0.100462 0.184682 0.10932
H_ H_ 0.526247 0.0973797 0.17608 0.10932
H_ H_ 0.801753 0.065055 0.191026 0.10932
H_ H_ 0.5648 0.15058 0.313758 0.10932
H_ H_ 0.804747 0.15582 0.313334 0.10932
H_ H_ 0.553846 0.162945 0.179205 0.10932
H_ H_ 0.833942 0.12556 0.191795 0.10932
H_ H_ 0.542344 0.0836807 0.309995 0.10932
H_ H_ 0.771963 0.0912063 0.314646 0.10932
H_ H_ 0.582634 0.236991 0.359438 0.10932
H_ H_ 0.865606 0.195912 0.360453 0.10932
H_ H_ 0.675865 0.26056 0.353085 0.10932
H_ H_ 0.881796 0.324858 0.363022 0.10932
H_ H_ 0.679604 0.260847 0.433094 0.10932
H_ H_ 0.882068 0.325109 0.44078 0.10932
H_ H_ 0.584429 0.239899 0.433101 0.10932
H_ H_ 0.858182 0.1963 0.439497 0.10932
H_ H_ 0.618188 0.191344 0.139107 0.10932
H_ H_ 0.824703 0.252551 0.140657 0.10932
H_ H_ 0.633823 0.320033 0.140863 0.10932
H_ H_ 0.921607 0.253712 0.140035 0.10932
H_ H_ 0.632244 0.326517 0.0666531 0.10932
H_ H_ 0.920881 0.241986 0.0632445 0.10932
H_ H_ 0.62055 0.194859 0.0604438 0.10932
H_ H_ 0.823305 0.243999 0.0665729 0.10932
C_ C_ 0.570898 0.355971 0.246907 -0.02249
C_ C_ 0.810236 0.343457 0.242421 -0.02249
C_ C_ 0.515563 0.46648 0.25276 -0.02249
C_ C_ 0.766661 0.464489 0.234143 -0.02249
C_ C_ 0.548146 0.415533 0.211889 -0.11473
C_ C_ 0.799057 0.406474 0.204028 -0.11473
C_ C_ 0.555894 0.367213 0.284806 -0.11473
C_ C_ 0.793973 0.3589 0.27614 -0.11473
C_ C_ 0.56943 0.381175 0.212157 -0.11473
C_ C_ 0.810315 0.365931 0.204489 -0.11473
C_ C_ 0.534107 0.427953 0.248985 -0.02249
C_ C_ 0.783904 0.423565 0.237182 -0.02249
C_ C_ 0.588583 0.316905 0.244343 0.6875
C_ C_ 0.830967 0.307379 0.249094 0.6875
C_ C_ 0.53935 0.405007 0.287589 -0.11473
C_ C_ 0.781126 0.399374 0.273646 -0.11473
C_ C_ 0.685186 0.350169 0.248966 -0.02249
C_ C_ 0.930668 0.351095 0.249554 -0.02249
C_ C_ 0.734966 0.464321 0.238161 -0.02249
C_ C_ 0.984234 0.465253 0.251886 -0.02249
C_ C_ 0.70517 0.414332 0.2816 -0.11473
C_ C_ 0.961999 0.40328 0.285747 -0.11473
C_ C_ 0.698051 0.363159 0.210887 -0.11473
C_ C_ 0.932622 0.376124 0.212161 -0.11473
C_ C_ 0.688373 0.377476 0.284141 -0.11473
C_ C_ 0.944292 0.367423 0.286944 -0.11473
C_ C_ 0.717884 0.425802 0.242842 -0.02249
C_ C_ 0.966045 0.425465 0.248828 -0.02249
C_ C_ 0.664742 0.313184 0.249351 0.6875
C_ C_ 0.909073 0.314669 0.250732 0.6875
C_ C_ 0.714261 0.400297 0.207565 -0.11473
C_ C_ 0.952491 0.409701 0.212906 -0.11473
C_ C_ 0.679557 0.15113 0.248675 -0.02249
C_ C_ 0.935215 0.158935 0.251209 -0.02249
C_ C_ 0.731997 0.0370754 0.252153 -0.02249
C_ C_ 0.985948 0.044758 0.251879 -0.02249
C_ C_ 0.698202 0.0902749 0.286024 -0.11473
C_ C_ 0.959718 0.103635 0.290528 -0.11473
C_ C_ 0.700004 0.141309 0.216515 -0.11473
C_ C_ 0.950206 0.146077 0.215863 -0.11473
C_ C_ 0.679005 0.124586 0.283519 -0.11473
C_ C_ 0.941294 0.137321 0.289084 -0.11473
C_ C_ 0.716266 0.0787326 0.252312 -0.02249
C_ C_ 0.970548 0.0860936 0.25281 -0.02249
C_ C_ 0.662651 0.190663 0.247255 0.6875
C_ C_ 0.915778 0.197839 0.250109 0.6875
C_ C_ 0.716913 0.104886 0.217429 -0.11473
C_ C_ 0.966061 0.10778 0.215502 -0.11473
C_ C_ 0.565567 0.158227 0.247353 -0.02249
C_ C_ 0.818432 0.147814 0.249607 -0.02249
C_ C_ 0.51457 0.0431423 0.243256 -0.02249
C_ C_ 0.764097 0.036247 0.252982 -0.02249
C_ C_ 0.537625 0.105501 0.205978 -0.11473
C_ C_ 0.801503 0.084368 0.216642 -0.11473
C_ C_ 0.560617 0.1352 0.282825 -0.11473
C_ C_ 0.803878 0.136701 0.285669 -0.11473
C_ C_ 0.551486 0.145105 0.208974 -0.11473
C_ C_ 0.818695 0.120745 0.215975 -0.11473
C_ C_ 0.53311 0.0819531 0.242277 -0.02249
C_ C_ 0.782549 0.075279 0.250436 -0.02249
C_ C_ 0.584883 0.196897 0.248631 0.6875
C_ C_ 0.838165 0.184872 0.248474 0.6875
C_ C_ 0.544018 0.100057 0.28131 -0.11473
C_ C_ 0.782612 0.10239 0.285075 -0.11473
C_ C_ 0.603667 0.248203 0.372702 0.17695
C_ C_ 0.866423 0.223343 0.378658 0.17695
C_ C_ 0.656544 0.25745 0.371994 0.17695
C_ C_ 0.877966 0.295177 0.379681 0.17695
C_ C_ 0.657454 0.258507 0.41641 -0.11473
C_ C_ 0.879605 0.296895 0.424054 -0.11473
C_ C_ 0.631212 0.252945 0.438925 0.23465
C_ C_ 0.871745 0.260377 0.445489 0.23465
C_ C_ 0.604751 0.245687 0.416637 -0.11473
C_ C_ 0.865062 0.224613 0.423366 -0.11473
C_ C_ 0.623446 0.220151 0.121033 0.17695
C_ C_ 0.846646 0.245935 0.125684 0.17695
C_ C_ 0.632594 0.29219 0.123971 0.17695
C_ C_ 0.900156 0.251273 0.124514 0.17695
C_ C_ 0.63072 0.295486 0.0797744 -0.11473
C_ C_ 0.900148 0.239614 0.0813683 -0.11473
C_ C_ 0.628965 0.260149 0.0546526 0.23465
C_ C_ 0.871147 0.237409 0.0592161 0.23465
C_ C_ 0.625821 0.221875 0.0766101 -0.11473
C_ C_ 0.844921 0.238429 0.0824046 -0.11473
C_ C_ 0.528684 0.504628 0.253548 0.05793
C_ C_ 0.78295 0.502066 0.240413 0.05793
C_ C_ 0.715906 1.00039 0.251554 0.05793
C_ C_ 0.969296 1.0076369 0.248327 0.05793
Br Br 0.572532 0.508866 0.256969 -0.17191
Br Br 0.826445 0.504001 0.252019 -0.17191
Br Br 0.673032 -0.0041480000000000405 0.233973 -0.17191
Br Br 0.925439 0.00878528 0.246266 -0.17191
N_ N_ 0.629427 0.248263 0.350998 -0.272
N_ N_ 0.871914 0.258716 0.358495 -0.272
N_ N_ 0.631706 0.260121 0.483387 -0.12501
N_ N_ 0.877641 0.260389 0.490511 -0.12501
N_ N_ 0.627268 0.254619 0.143952 -0.272
N_ N_ 0.874109 0.253313 0.144935 -0.272
N_ N_ 0.628055 0.262976 0.00856349 -0.12501
N_ N_ 0.868718 0.234533 0.0152677 -0.12501
O_ O_ 0.59791 0.303361 0.2092 -0.60745
O_ O_ 0.836532 0.28503 0.217269 -0.60745
O_ O_ 0.597391 0.300196 0.278233 -0.60745
O_ O_ 0.8401 0.295692 0.2856 -0.60745
O_ O_ 0.662014 0.291226 0.281059 -0.60745
O_ O_ 0.903867 0.295636 0.284794 -0.60745
O_ O_ 0.653248 0.30025 0.215322 -0.60745
O_ O_ 0.896192 0.301768 0.216998 -0.60745
O_ O_ 0.656218 0.206903 0.281929 -0.60745
O_ O_ 0.904452 0.210343 0.283511 -0.60745
O_ O_ 0.653188 0.20818 0.212463 -0.60745
O_ O_ 0.909902 0.215898 0.215266 -0.60745
O_ O_ 0.591655 0.214398 0.215028 -0.60745
O_ O_ 0.851953 0.196547 0.216025 -0.60745
O_ O_ 0.596151 0.21125 0.282687 -0.60745
O_ O_ 0.840376 0.206595 0.281571 -0.60745
Zn Zn 0.627489 0.244243 0.780983 0.9476
Zn Zn 0.877048 0.246308 0.78709 0.9476
Zn Zn 0.624034 0.245655 0.709487 0.9476
Zn Zn 0.874736 0.245464 0.717187 0.9476
H_ H_ 0.542892 0.41826 0.680461 0.10932
H_ H_ 0.792748 0.419057 0.68927 0.10932
H_ H_ 0.571068 0.348419 0.814101 0.10932
H_ H_ 0.820683 0.353701 0.823459 0.10932
H_ H_ 0.564012 0.348954 0.675772 0.10932
H_ H_ 0.814623 0.349963 0.687372 0.10932
H_ H_ 0.541641 0.412672 0.814593 0.10932
H_ H_ 0.784352 0.408993 0.824135 0.10932
H_ H_ 0.721942 0.406505 0.819876 0.10932
H_ H_ 0.958789 0.413512 0.823044 0.10932
H_ H_ 0.684532 0.347051 0.686134 0.10932
H_ H_ 0.933971 0.350762 0.686999 0.10932
H_ H_ 0.691656 0.343959 0.821839 0.10932
H_ H_ 0.931464 0.351324 0.820734 0.10932
H_ H_ 0.714711 0.41339 0.686067 0.10932
H_ H_ 0.9642 0.413581 0.687853 0.10932
H_ H_ 0.715801 0.0775368 0.811799 0.10932
H_ H_ 0.951497 0.066842 0.811374 0.10932
H_ H_ 0.698162 0.159081 0.683586 0.10932
H_ H_ 0.947798 0.154511 0.687571 0.10932
H_ H_ 0.680742 0.137387 0.814679 0.10932
H_ H_ 0.919787 0.130906 0.813096 0.10932
H_ H_ 0.725802 0.0929247 0.67909 0.10932
H_ H_ 0.982162 0.0924312 0.686345 0.10932
H_ H_ 0.531892 0.0810565 0.676873 0.10932
H_ H_ 0.796459 0.0719983 0.685753 0.10932
H_ H_ 0.563838 0.140962 0.813973 0.10932
H_ H_ 0.805241 0.152047 0.820276 0.10932
H_ H_ 0.555847 0.151349 0.678075 0.10932
H_ H_ 0.826173 0.134943 0.689342 0.10932
H_ H_ 0.541662 0.0753226 0.809008 0.10932
H_ H_ 0.776201 0.0871434 0.82035 0.10932
H_ H_ 0.624782 0.301137 0.858903 0.10932
H_ H_ 0.881985 0.180401 0.869382 0.10932
H_ H_ 0.626056 0.172943 0.854479 0.10932
H_ H_ 0.876474 0.312989 0.862851 0.10932
H_ H_ 0.634369 0.167877 0.931554 0.10932
H_ H_ 0.879094 0.31879 0.939248 0.10932
H_ H_ 0.618845 0.300514 0.938416 0.10932
H_ H_ 0.890742 0.187545 0.94484 0.10932
H_ H_ 0.627085 0.315962 0.632394 0.10932
H_ H_ 0.915283 0.262267 0.638685 0.10932
H_ H_ 0.619845 0.185863 0.642752 0.10932
H_ H_ 0.822835 0.236751 0.644568 0.10932
H_ H_ 0.629569 0.178594 0.568688 0.10932
H_ H_ 0.819836 0.232357 0.566555 0.10932
H_ H_ 0.619843 0.308117 0.553333 0.10932
H_ H_ 0.911565 0.265393 0.561656 0.10932
C_ C_ 0.569113 0.342318 0.743262 -0.02249
C_ C_ 0.819149 0.346151 0.756107 -0.02249
C_ C_ 0.519804 0.457729 0.751134 -0.02249
C_ C_ 0.764893 0.457266 0.754802 -0.02249
C_ C_ 0.545068 0.401169 0.708782 -0.11473
C_ C_ 0.79576 0.401036 0.718216 -0.11473
C_ C_ 0.562 0.360221 0.78332 -0.11473
C_ C_ 0.810593 0.362846 0.793961 -0.11473
C_ C_ 0.55655 0.361116 0.707156 -0.11473
C_ C_ 0.809605 0.364286 0.717876 -0.11473
C_ C_ 0.536976 0.418393 0.748358 -0.02249
C_ C_ 0.782423 0.415956 0.755338 -0.02249
C_ C_ 0.587876 0.305074 0.742267 0.6875
C_ C_ 0.837061 0.306899 0.756236 0.6875
C_ C_ 0.546286 0.397317 0.784906 -0.11473
C_ C_ 0.789334 0.395978 0.793154 -0.11473
C_ C_ 0.684099 0.342279 0.753638 -0.02249
C_ C_ 0.934427 0.34259 0.752514 -0.02249
C_ C_ 0.732756 0.459155 0.7544 -0.02249
C_ C_ 0.982294 0.458317 0.754729 -0.02249
C_ C_ 0.711671 0.396075 0.79211 -0.11473
C_ C_ 0.954378 0.400615 0.790999 -0.11473
C_ C_ 0.691819 0.362919 0.715164 -0.11473
C_ C_ 0.939579 0.363624 0.716895 -0.11473
C_ C_ 0.695897 0.359011 0.791773 -0.11473
C_ C_ 0.940511 0.360692 0.791773 -0.11473
C_ C_ 0.714306 0.420506 0.754792 -0.02249
C_ C_ 0.964961 0.41939 0.754478 -0.02249
C_ C_ 0.664002 0.30488 0.752381 0.6875
C_ C_ 0.915113 0.304839 0.751446 0.6875
C_ C_ 0.707698 0.400855 0.716417 -0.11473
C_ C_ 0.95837 0.397917 0.716878 -0.11473
C_ C_ 0.686973 0.152381 0.748836 -0.02249
C_ C_ 0.933867 0.147892 0.749857 -0.02249
C_ C_ 0.736472 0.0359232 0.743874 -0.02249
C_ C_ 0.985277 0.0362875 0.749594 -0.02249
C_ C_ 0.708441 0.0916746 0.782919 -0.11473
C_ C_ 0.953534 0.0874724 0.785967 -0.11473
C_ C_ 0.701038 0.139621 0.711864 -0.11473
C_ C_ 0.950134 0.135723 0.714559 -0.11473
C_ C_ 0.692092 0.128721 0.784729 -0.11473
C_ C_ 0.936486 0.125313 0.787608 -0.11473
C_ C_ 0.720186 0.0767797 0.74548 -0.02249
C_ C_ 0.97074 0.0761682 0.750468 -0.02249
C_ C_ 0.668257 0.190915 0.747676 0.6875
C_ C_ 0.913716 0.185823 0.749824 0.6875
C_ C_ 0.716274 0.101124 0.708469 -0.11473
C_ C_ 0.969207 0.102325 0.715551 -0.11473
C_ C_ 0.566584 0.147767 0.74507 -0.02249
C_ C_ 0.815195 0.151016 0.755457 -0.02249
C_ C_ 0.515397 0.034787 0.74411 -0.02249
C_ C_ 0.768192 0.0341402 0.752044 -0.02249
C_ C_ 0.538254 0.0964387 0.704773 -0.11473
C_ C_ 0.797992 0.088231 0.714462 -0.11473
C_ C_ 0.560485 0.12672 0.783354 -0.11473
C_ C_ 0.802693 0.133876 0.792241 -0.11473
C_ C_ 0.556222 0.131106 0.706379 -0.11473
C_ C_ 0.813096 0.126217 0.717697 -0.11473
C_ C_ 0.534883 0.0737849 0.742577 -0.02249
C_ C_ 0.785078 0.0733049 0.752516 -0.02249
C_ C_ 0.589889 0.181838 0.74334 0.6875
C_ C_ 0.83593 0.186983 0.754351 0.6875
C_ C_ 0.541067 0.094841 0.781301 -0.11473
C_ C_ 0.788478 0.0960901 0.791927 -0.11473
C_ C_ 0.625259 0.273115 0.875751 0.17695
C_ C_ 0.881922 0.211563 0.883359 0.17695
C_ C_ 0.625209 0.200251 0.872268 0.17695
C_ C_ 0.877395 0.284883 0.879167 0.17695
C_ C_ 0.629619 0.19856 0.917154 -0.11473
C_ C_ 0.877429 0.287659 0.924092 -0.11473
C_ C_ 0.629098 0.234868 0.94166 0.23465
C_ C_ 0.880787 0.251001 0.947164 0.23465
C_ C_ 0.622996 0.272007 0.919896 -0.11473
C_ C_ 0.884732 0.213492 0.927011 -0.11473
C_ C_ 0.622234 0.284592 0.616571 0.17695
C_ C_ 0.895444 0.251055 0.623635 0.17695
C_ C_ 0.622951 0.212133 0.623488 0.17695
C_ C_ 0.842875 0.237864 0.626523 0.17695
C_ C_ 0.626681 0.208812 0.579991 -0.11473
C_ C_ 0.840899 0.2407 0.582961 -0.11473
C_ C_ 0.622218 0.241898 0.552587 0.23465
C_ C_ 0.867496 0.239884 0.559416 0.23465
C_ C_ 0.619884 0.280713 0.572087 -0.11473
C_ C_ 0.894222 0.252015 0.580075 -0.11473
C_ C_ 0.535772 0.495913 0.75522 0.05793
C_ C_ 0.780325 0.496658 0.754659 0.05793
C_ C_ 0.719747 -0.00135073 0.740237 0.05793
C_ C_ 0.969025 -0.0014210000000000056 0.744636 0.05793
Br Br 0.579433 0.495582 0.755963 -0.17191
Br Br 0.823118 0.498292 0.767171 -0.17191
Br Br 0.675032 0.00102942 0.74154 -0.17191
Br Br 0.928104 0.00276951 0.728905 -0.17191
N_ N_ 0.626444 0.237385 0.852418 -0.272
N_ N_ 0.880535 0.246982 0.859474 -0.272
N_ N_ 0.630003 0.231961 0.985827 -0.12501
N_ N_ 0.88489 0.255612 0.990976 -0.12501
N_ N_ 0.625477 0.249623 0.640364 -0.272
N_ N_ 0.870098 0.245564 0.647255 -0.272
N_ N_ 0.620735 0.23496 0.5082 -0.12501
N_ N_ 0.864721 0.237033 0.515227 -0.12501
O_ O_ 0.596801 0.290525 0.70765 -0.60745
O_ O_ 0.845266 0.29268 0.72093 -0.60745
O_ O_ 0.592875 0.285588 0.77667 -0.60745
O_ O_ 0.848489 0.292667 0.789652 -0.60745
O_ O_ 0.653262 0.291549 0.78584 -0.60745
O_ O_ 0.908216 0.28654 0.785866 -0.60745
O_ O_ 0.656385 0.287359 0.717458 -0.60745
O_ O_ 0.905891 0.291783 0.717168 -0.60745
O_ O_ 0.66173 0.210369 0.781086 -0.60745
O_ O_ 0.906209 0.200523 0.783616 -0.60745
O_ O_ 0.655598 0.199238 0.713513 -0.60745
O_ O_ 0.90375 0.200297 0.714795 -0.60745
O_ O_ 0.593092 0.201104 0.709146 -0.60745
O_ O_ 0.843652 0.200813 0.71955 -0.60745
O_ O_ 0.59908 0.197393 0.777403 -0.60745
O_ O_ 0.843896 0.204394 0.788911 -0.60745
Zn Zn 0.620324 0.752128 0.282812 0.9476
Zn Zn 0.876604 0.750327 0.284954 0.9476
Zn Zn 0.619108 0.755568 0.211055 0.9476
Zn Zn 0.874106 0.754934 0.213229 0.9476
H_ H_ 0.533661 0.921773 0.173057 0.10932
H_ H_ 0.79655 0.93437 0.193351 0.10932
H_ H_ 0.557195 0.854697 0.308828 0.10932
H_ H_ 0.798205 0.83584 0.317836 0.10932
H_ H_ 0.564512 0.862324 0.173916 0.10932
H_ H_ 0.821502 0.861673 0.188235 0.10932
H_ H_ 0.537666 0.925442 0.308107 0.10932
H_ H_ 0.770529 0.901993 0.31833 0.10932
H_ H_ 0.70895 0.92117 0.321862 0.10932
H_ H_ 0.953216 0.932708 0.313 0.10932
H_ H_ 0.683485 0.862288 0.182111 0.10932
H_ H_ 0.951882 0.842556 0.187607 0.10932
H_ H_ 0.679434 0.85503 0.317663 0.10932
H_ H_ 0.928354 0.871877 0.315379 0.10932
H_ H_ 0.716661 0.92115 0.18729 0.10932
H_ H_ 0.972848 0.912689 0.181348 0.10932
H_ H_ 0.698439 0.566901 0.300736 0.10932
H_ H_ 0.980856 0.596659 0.304914 0.10932
H_ H_ 0.692345 0.666769 0.181376 0.10932
H_ H_ 0.924776 0.643272 0.178927 0.10932
H_ H_ 0.669942 0.632486 0.307459 0.10932
H_ H_ 0.958858 0.668731 0.301613 0.10932
H_ H_ 0.72288 0.601447 0.175901 0.10932
H_ H_ 0.958641 0.583013 0.173127 0.10932
H_ H_ 0.528688 0.586707 0.185789 0.10932
H_ H_ 0.794707 0.580529 0.171553 0.10932
H_ H_ 0.556365 0.653579 0.318988 0.10932
H_ H_ 0.81775 0.649618 0.307382 0.10932
H_ H_ 0.554611 0.652329 0.18679 0.10932
H_ H_ 0.824781 0.64576 0.173617 0.10932
H_ H_ 0.52776 0.588438 0.320095 0.10932
H_ H_ 0.782677 0.586797 0.306548 0.10932
H_ H_ 0.616241 0.690713 0.357346 0.10932
H_ H_ 0.894987 0.805376 0.362871 0.10932
H_ H_ 0.621457 0.82141 0.358142 0.10932
H_ H_ 0.863606 0.683864 0.355942 0.10932
H_ H_ 0.614519 0.821519 0.435079 0.10932
H_ H_ 0.857561 0.678483 0.433526 0.10932
H_ H_ 0.620652 0.688661 0.433668 0.10932
H_ H_ 0.887735 0.8024 0.441438 0.10932
H_ H_ 0.610253 0.685361 0.143496 0.10932
H_ H_ 0.887677 0.696654 0.138497 0.10932
H_ H_ 0.626439 0.816189 0.132449 0.10932
H_ H_ 0.857749 0.820576 0.139099 0.10932
H_ H_ 0.629014 0.808092 0.0553081 0.10932
H_ H_ 0.857891 0.822955 0.0617672 0.10932
H_ H_ 0.612519 0.678563 0.0648886 0.10932
H_ H_ 0.894755 0.701128 0.0614708 0.10932
C_ C_ 0.5593 0.848804 0.242439 -0.02249
C_ C_ 0.815846 0.844975 0.253974 -0.02249
C_ C_ 0.51297 0.96796 0.239181 -0.02249
C_ C_ 0.76419 0.960854 0.258307 -0.02249
C_ C_ 0.536366 0.906663 0.202941 -0.11473
C_ C_ 0.798575 0.910903 0.220004 -0.11473
C_ C_ 0.553625 0.870603 0.280002 -0.11473
C_ C_ 0.798343 0.856027 0.28946 -0.11473
C_ C_ 0.551798 0.870038 0.203674 -0.11473
C_ C_ 0.81234 0.871253 0.217694 -0.11473
C_ C_ 0.528762 0.926529 0.241632 -0.02249
C_ C_ 0.78211 0.921393 0.256284 -0.02249
C_ C_ 0.578061 0.810762 0.241247 0.6875
C_ C_ 0.834277 0.807494 0.251655 0.6875
C_ C_ 0.541196 0.909615 0.280004 -0.11473
C_ C_ 0.785805 0.896058 0.292238 -0.11473
C_ C_ 0.67603 0.854414 0.250006 -0.02249
C_ C_ 0.937533 0.850572 0.253011 -0.02249
C_ C_ 0.731734 0.963111 0.259081 -0.02249
C_ C_ 0.983837 0.969544 0.247499 -0.02249
C_ C_ 0.703727 0.90753 0.29127 -0.11473
C_ C_ 0.954403 0.914006 0.284755 -0.11473
C_ C_ 0.689692 0.872811 0.21339 -0.11473
C_ C_ 0.951046 0.863243 0.21498 -0.11473
C_ C_ 0.686371 0.869142 0.288957 -0.11473
C_ C_ 0.938321 0.878387 0.286814 -0.11473
C_ C_ 0.716013 0.9241 0.254648 -0.02249
C_ C_ 0.965396 0.928977 0.246626 -0.02249
C_ C_ 0.655711 0.815799 0.247384 0.6875
C_ C_ 0.915877 0.813127 0.253718 0.6875
C_ C_ 0.708106 0.906142 0.215961 -0.11473
C_ C_ 0.964477 0.903566 0.211886 -0.11473
C_ C_ 0.680339 0.656993 0.246103 -0.02249
C_ C_ 0.935555 0.656827 0.242987 -0.02249
C_ C_ 0.735915 0.543149 0.237487 -0.02249
C_ C_ 0.985282 0.540371 0.24194 -0.02249
C_ C_ 0.701906 0.591119 0.276681 -0.11473
C_ C_ 0.972082 0.607581 0.275983 -0.11473
C_ C_ 0.69253 0.644061 0.205681 -0.11473
C_ C_ 0.936037 0.632395 0.207043 -0.11473
C_ C_ 0.681868 0.62651 0.279459 -0.11473
C_ C_ 0.954336 0.645617 0.277458 -0.11473
C_ C_ 0.71932 0.585167 0.240506 -0.02249
C_ C_ 0.970958 0.582256 0.240487 -0.02249
C_ C_ 0.659356 0.69402 0.249025 0.6875
C_ C_ 0.914287 0.692817 0.244763 0.6875
C_ C_ 0.711564 0.609013 0.204748 -0.11473
C_ C_ 0.9546 0.596605 0.204898 -0.11473
C_ C_ 0.559079 0.655677 0.251924 -0.02249
C_ C_ 0.820305 0.651793 0.24227 -0.02249
C_ C_ 0.511989 0.540539 0.251866 -0.02249
C_ C_ 0.766951 0.541598 0.236735 -0.02249
C_ C_ 0.533755 0.600599 0.215849 -0.11473
C_ C_ 0.797629 0.596488 0.201381 -0.11473
C_ C_ 0.549888 0.639165 0.290492 -0.11473
C_ C_ 0.810105 0.635383 0.278533 -0.11473
C_ C_ 0.550233 0.635915 0.214429 -0.11473
C_ C_ 0.815041 0.632055 0.203413 -0.11473
C_ C_ 0.524576 0.582748 0.253221 -0.02249
C_ C_ 0.784447 0.580981 0.238145 -0.02249
C_ C_ 0.579147 0.694129 0.249598 0.6875
C_ C_ 0.838593 0.690802 0.243374 0.6875
C_ C_ 0.533019 0.603568 0.291421 -0.11473
C_ C_ 0.790185 0.601742 0.27721 -0.11473
C_ C_ 0.617279 0.719675 0.374932 0.17695
C_ C_ 0.883275 0.778814 0.37929 0.17695
C_ C_ 0.618958 0.792068 0.375032 0.17695
C_ C_ 0.864322 0.711512 0.373497 0.17695
C_ C_ 0.619379 0.792828 0.418833 -0.11473
C_ C_ 0.861776 0.707031 0.417458 -0.11473
C_ C_ 0.621168 0.754807 0.442608 0.23465
C_ C_ 0.868961 0.740531 0.442944 0.23465
C_ C_ 0.619347 0.718551 0.419792 -0.11473
C_ C_ 0.879951 0.777057 0.423852 -0.11473
C_ C_ 0.613491 0.713288 0.123913 0.17695
C_ C_ 0.883354 0.725145 0.1219 0.17695
C_ C_ 0.624003 0.784332 0.118509 0.17695
C_ C_ 0.863106 0.791894 0.121474 0.17695
C_ C_ 0.62146 0.783134 0.0738453 -0.11473
C_ C_ 0.865545 0.795199 0.0785076 -0.11473
C_ C_ 0.615046 0.743948 0.0536655 0.23465
C_ C_ 0.877728 0.761361 0.055366 0.23465
C_ C_ 0.612996 0.70852 0.0791343 -0.11473
C_ C_ 0.886425 0.727118 0.0778097 -0.11473
C_ C_ 0.529071 1.00450341 0.236186 0.05793
C_ C_ 0.781116 0.99822793 0.257677 0.05793
C_ C_ 0.720379 0.504183 0.233176 0.05793
C_ C_ 0.96899 0.503724 0.2432 0.05793
Br Br 0.570102 1.00642132 0.224949 -0.17191
Br Br 0.824726 1.00024 0.271118 -0.17191
Br Br 0.676148 0.502297 0.221155 -0.17191
Br Br 0.927196 0.510612 0.25549 -0.17191
N_ N_ 0.617629 0.755387 0.353399 -0.272
N_ N_ 0.874199 0.746778 0.355414 -0.272
N_ N_ 0.619978 0.757902 0.487211 -0.12501
N_ N_ 0.863829 0.739094 0.486337 -0.12501
N_ N_ 0.619963 0.750886 0.142721 -0.272
N_ N_ 0.870774 0.757409 0.142565 -0.272
N_ N_ 0.617945 0.737819 0.00948147 -0.12501
N_ N_ 0.873174 0.760944 0.00987784 -0.12501
O_ O_ 0.587992 0.799782 0.206316 -0.60745
O_ O_ 0.841323 0.793139 0.215809 -0.60745
O_ O_ 0.582459 0.790182 0.275471 -0.60745
O_ O_ 0.844428 0.793435 0.285275 -0.60745
O_ O_ 0.645873 0.801979 0.281667 -0.60745
O_ O_ 0.910574 0.794495 0.287698 -0.60745
O_ O_ 0.650038 0.799009 0.212959 -0.60745
O_ O_ 0.904548 0.800491 0.218725 -0.60745
O_ O_ 0.651036 0.706032 0.284635 -0.60745
O_ O_ 0.905349 0.70518 0.280884 -0.60745
O_ O_ 0.648456 0.70839 0.21457 -0.60745
O_ O_ 0.908254 0.712943 0.212205 -0.60745
O_ O_ 0.585331 0.713716 0.216545 -0.60745
O_ O_ 0.845524 0.71055 0.210749 -0.60745
O_ O_ 0.591678 0.704589 0.283994 -0.60745
O_ O_ 0.844867 0.70664 0.279171 -0.60745
Zn Zn 0.626236 0.748121 0.779552 0.9476
Zn Zn 0.874777 0.744811 0.782932 0.9476
Zn Zn 0.624409 0.746238 0.710272 0.9476
Zn Zn 0.873574 0.746603 0.713292 0.9476
H_ H_ 0.543715 0.927261 0.678331 0.10932
H_ H_ 0.786628 0.918996 0.68374 0.10932
H_ H_ 0.557325 0.838521 0.806949 0.10932
H_ H_ 0.806622 0.843183 0.816541 0.10932
H_ H_ 0.571664 0.865526 0.673374 0.10932
H_ H_ 0.812238 0.848105 0.68082 0.10932
H_ H_ 0.533067 0.908979 0.811943 0.10932
H_ H_ 0.784369 0.9138 0.818313 0.10932
H_ H_ 0.701284 0.926958 0.813627 0.10932
H_ H_ 0.970895 0.908775 0.813856 0.10932
H_ H_ 0.690031 0.846014 0.681129 0.10932
H_ H_ 0.919684 0.867216 0.681354 0.10932
H_ H_ 0.67553 0.862117 0.815284 0.10932
H_ H_ 0.936459 0.846639 0.814502 0.10932
H_ H_ 0.721639 0.90769 0.683233 0.10932
H_ H_ 0.951459 0.928728 0.684717 0.10932
H_ H_ 0.700216 0.567053 0.810358 0.10932
H_ H_ 0.979279 0.591329 0.816679 0.10932
H_ H_ 0.697761 0.654752 0.683179 0.10932
H_ H_ 0.926992 0.633596 0.681736 0.10932
H_ H_ 0.669604 0.631605 0.812936 0.10932
H_ H_ 0.941341 0.644066 0.811753 0.10932
H_ H_ 0.724378 0.58791 0.68061 0.10932
H_ H_ 0.961812 0.572504 0.685073 0.10932
H_ H_ 0.543438 0.570892 0.683433 0.10932
H_ H_ 0.805532 0.556368 0.689657 0.10932
H_ H_ 0.574005 0.641773 0.815609 0.10932
H_ H_ 0.79931 0.650116 0.813353 0.10932
H_ H_ 0.572956 0.636258 0.682408 0.10932
H_ H_ 0.838668 0.621026 0.692552 0.10932
H_ H_ 0.541979 0.577806 0.816238 0.10932
H_ H_ 0.771611 0.591616 0.811569 0.10932
H_ H_ 0.611494 0.682551 0.859042 0.10932
H_ H_ 0.891817 0.677782 0.859734 0.10932
H_ H_ 0.630885 0.809825 0.84773 0.10932
H_ H_ 0.871657 0.807461 0.857948 0.10932
H_ H_ 0.623777 0.818738 0.92534 0.10932
H_ H_ 0.88045 0.810293 0.932235 0.10932
H_ H_ 0.595546 0.692761 0.933114 0.10932
H_ H_ 0.895206 0.676964 0.93556 0.10932
H_ H_ 0.618095 0.676246 0.645759 0.10932
H_ H_ 0.87024 0.817275 0.644267 0.10932
H_ H_ 0.637957 0.804037 0.633502 0.10932
H_ H_ 0.882927 0.68598 0.632801 0.10932
H_ H_ 0.638716 0.796166 0.556515 0.10932
H_ H_ 0.881699 0.692288 0.556959 0.10932
H_ H_ 0.607785 0.669463 0.566378 0.10932
H_ H_ 0.856522 0.818485 0.568773 0.10932
C_ C_ 0.565064 0.843154 0.739783 -0.02249
C_ C_ 0.811423 0.839579 0.749196 -0.02249
C_ C_ 0.515336 0.961174 0.747399 -0.02249
C_ C_ 0.766204 0.958248 0.748709 -0.02249
C_ C_ 0.545366 0.907833 0.70625 -0.11473
C_ C_ 0.789263 0.899931 0.71222 -0.11473
C_ C_ 0.553021 0.856232 0.778478 -0.11473
C_ C_ 0.801097 0.858616 0.787078 -0.11473
C_ C_ 0.559584 0.869425 0.702963 -0.11473
C_ C_ 0.806899 0.862338 0.711214 -0.11473
C_ C_ 0.533177 0.920695 0.744364 -0.02249
C_ C_ 0.781873 0.917866 0.751082 -0.02249
C_ C_ 0.583893 0.804807 0.738901 0.6875
C_ C_ 0.831072 0.80129 0.748293 0.6875
C_ C_ 0.538499 0.896719 0.780686 -0.11473
C_ C_ 0.789114 0.897394 0.788756 -0.11473
C_ C_ 0.681729 0.849185 0.748796 -0.02249
C_ C_ 0.927447 0.849395 0.747038 -0.02249
C_ C_ 0.734613 0.959898 0.746863 -0.02249
C_ C_ 0.983137 0.960946 0.748538 -0.02249
C_ C_ 0.701381 0.908562 0.786049 -0.11473
C_ C_ 0.956924 0.90112 0.786349 -0.11473
C_ C_ 0.696188 0.861614 0.711338 -0.11473
C_ C_ 0.933847 0.87124 0.709177 -0.11473
C_ C_ 0.687175 0.869769 0.786918 -0.11473
C_ C_ 0.940485 0.86367 0.784542 -0.11473
C_ C_ 0.71588 0.92103 0.749165 -0.02249
C_ C_ 0.964913 0.921422 0.748758 -0.02249
C_ C_ 0.665903 0.808961 0.749004 0.6875
C_ C_ 0.911069 0.808728 0.746071 0.6875
C_ C_ 0.713485 0.897709 0.711897 -0.11473
C_ C_ 0.949609 0.909211 0.712319 -0.11473
C_ C_ 0.685601 0.650843 0.74844 -0.02249
C_ C_ 0.93574 0.649067 0.746561 -0.02249
C_ C_ 0.732931 0.534143 0.748665 -0.02249
C_ C_ 0.983605 0.533564 0.753958 -0.02249
C_ C_ 0.701196 0.58743 0.783995 -0.11473
C_ C_ 0.966433 0.598801 0.785667 -0.11473
C_ C_ 0.70003 0.63726 0.711695 -0.11473
C_ C_ 0.938391 0.625936 0.710793 -0.11473
C_ C_ 0.686436 0.6262 0.785408 -0.11473
C_ C_ 0.949538 0.633582 0.784647 -0.11473
C_ C_ 0.71529 0.573447 0.74688 -0.02249
C_ C_ 0.967372 0.574204 0.75064 -0.02249
C_ C_ 0.664257 0.685866 0.747473 0.6875
C_ C_ 0.91495 0.686314 0.745744 0.6875
C_ C_ 0.712402 0.59732 0.709989 -0.11473
C_ C_ 0.955915 0.589993 0.713122 -0.11473
C_ C_ 0.572345 0.64663 0.748288 -0.02249
C_ C_ 0.818986 0.645069 0.750492 -0.02249
C_ C_ 0.520062 0.534565 0.749683 -0.02249
C_ C_ 0.764565 0.534434 0.745546 -0.02249
C_ C_ 0.547821 0.588694 0.711445 -0.11473
C_ C_ 0.804101 0.580829 0.715051 -0.11473
C_ C_ 0.565831 0.626753 0.786613 -0.11473
C_ C_ 0.800362 0.634165 0.783681 -0.11473
C_ C_ 0.566301 0.623304 0.711617 -0.11473
C_ C_ 0.822019 0.617088 0.717143 -0.11473
C_ C_ 0.537194 0.573863 0.749592 -0.02249
C_ C_ 0.782465 0.573244 0.746767 -0.02249
C_ C_ 0.589128 0.686079 0.748668 0.6875
C_ C_ 0.837578 0.683864 0.750538 0.6875
C_ C_ 0.548592 0.590994 0.787739 -0.11473
C_ C_ 0.781947 0.599039 0.781342 -0.11473
C_ C_ 0.611939 0.713082 0.87321 0.17695
C_ C_ 0.888083 0.705266 0.875415 0.17695
C_ C_ 0.621266 0.784558 0.867151 0.17695
C_ C_ 0.874796 0.777653 0.875345 0.17695
C_ C_ 0.618208 0.790096 0.910718 -0.11473
C_ C_ 0.877115 0.77842 0.91914 -0.11473
C_ C_ 0.612854 0.755349 0.936153 0.23465
C_ C_ 0.885878 0.74211 0.941292 0.23465
C_ C_ 0.607438 0.717595 0.916889 -0.11473
C_ C_ 0.890044 0.705504 0.919086 -0.11473
C_ C_ 0.617695 0.703585 0.62585 0.17695
C_ C_ 0.871384 0.788811 0.624369 0.17695
C_ C_ 0.633368 0.773861 0.618469 0.17695
C_ C_ 0.878551 0.71648 0.619241 0.17695
C_ C_ 0.630348 0.771072 0.575627 -0.11473
C_ C_ 0.880064 0.719734 0.574985 -0.11473
C_ C_ 0.622094 0.732194 0.556569 0.23465
C_ C_ 0.87209 0.757593 0.554889 0.23465
C_ C_ 0.612957 0.699346 0.582381 -0.11473
C_ C_ 0.868932 0.792504 0.580845 -0.11473
C_ C_ 0.530725 -0.0019090000000000495 0.742883 0.05793
C_ C_ 0.782568 -0.005059999999999953 0.756662 0.05793
C_ C_ 0.7173 0.497159 0.746177 0.05793
C_ C_ 0.967197 0.497703 0.754064 0.05793
Br Br 0.575444 -0.005296999999999996 0.744624 -0.17191
Br Br 0.8243 0.988719 0.767424 -0.17191
Br Br 0.674894 0.497905 0.733568 -0.17191
Br Br 0.924301 0.502009 0.756335 -0.17191
N_ N_ 0.619028 0.74644 0.84879 -0.272
N_ N_ 0.879724 0.74116 0.854201 -0.272
N_ N_ 0.607273 0.761602 0.981523 -0.12501
N_ N_ 0.888867 0.740601 0.985563 -0.12501
N_ N_ 0.624209 0.742018 0.642131 -0.272
N_ N_ 0.871619 0.751547 0.643163 -0.272
N_ N_ 0.622846 0.727009 0.512027 -0.12501
N_ N_ 0.876169 0.76297 0.512109 -0.12501
O_ O_ 0.592611 0.788559 0.705139 -0.60745
O_ O_ 0.841883 0.789432 0.714599 -0.60745
O_ O_ 0.596895 0.793625 0.772643 -0.60745
O_ O_ 0.840352 0.786091 0.782786 -0.60745
O_ O_ 0.657544 0.79186 0.783273 -0.60745
O_ O_ 0.90348 0.791589 0.779912 -0.60745
O_ O_ 0.655319 0.795611 0.715308 -0.60745
O_ O_ 0.902352 0.793674 0.712729 -0.60745
O_ O_ 0.657779 0.703676 0.78273 -0.60745
O_ O_ 0.908802 0.70442 0.779801 -0.60745
O_ O_ 0.653468 0.699654 0.712737 -0.60745
O_ O_ 0.906549 0.703245 0.711197 -0.60745
O_ O_ 0.593116 0.705098 0.713497 -0.60745
O_ O_ 0.846345 0.69947 0.715359 -0.60745
O_ O_ 0.596856 0.703401 0.782208 -0.60745
O_ O_ 0.846888 0.700085 0.785508 -0.60745
