_cell_length_a 44.444
_cell_length_b 32.3360000049186
_cell_length_c 31.843999878906452
_cell_angle_alpha 89.99799923859553
_cell_angle_beta 91.13600050494348
_cell_angle_gamma 89.9990006550086
_symmetry_space_group_name_H-M         'P 1'
_symmetry_Int_Tables_number            1
loop_
_symmetry_equiv_pos_as_xyz
   'x, y, z'
                         
loop_
_atom_site_label
_atom_site_type_symbol
_atom_site_fract_x 
_atom_site_fract_y
_atom_site_fract_z
_atom_site_charge
Zn Zn 0.127668 0.253525 0.281753 0.9476
Zn Zn 0.377007 0.250722 0.283038 0.9476
Zn Zn 0.123933 0.249351 0.210806 0.9476
Zn Zn 0.378891 0.245078 0.212695 0.9476
H_ H_ 0.0372727 0.428494 0.194167 0.10932
H_ H_ 0.277404 0.405497 0.171593 0.10932
H_ H_ 0.0648288 0.351987 0.319003 0.10932
H_ H_ 0.33785 0.370147 0.300801 0.10932
H_ H_ 0.067671 0.366021 0.185424 0.10932
H_ H_ 0.305178 0.340228 0.176808 0.10932
H_ H_ 0.0309186 0.408096 0.322879 0.10932
H_ H_ 0.304691 0.433824 0.297818 0.10932
H_ H_ 0.225841 0.412095 0.30667 0.10932
H_ H_ 0.467275 0.41507 0.317826 0.10932
H_ H_ 0.191285 0.347326 0.175261 0.10932
H_ H_ 0.45161 0.343327 0.182336 0.10932
H_ H_ 0.19133 0.350036 0.309758 0.10932
H_ H_ 0.44375 0.351781 0.31541 0.10932
H_ H_ 0.214505 0.415686 0.171239 0.10932
H_ H_ 0.474381 0.412916 0.182034 0.10932
H_ H_ 0.220887 0.0892213 0.312266 0.10932
H_ H_ 0.485675 0.0999973 0.317784 0.10932
H_ H_ 0.1755 0.139628 0.17868 0.10932
H_ H_ 0.419246 0.121535 0.19349 0.10932
H_ H_ 0.197377 0.1582 0.314016 0.10932
H_ H_ 0.458206 0.168162 0.311406 0.10932
H_ H_ 0.204263 0.0763101 0.177403 0.10932
H_ H_ 0.446978 0.0619284 0.200242 0.10932
H_ H_ 0.0368263 0.0855034 0.174707 0.10932
H_ H_ 0.287209 0.0829546 0.175876 0.10932
H_ H_ 0.0676656 0.1459 0.310886 0.10932
H_ H_ 0.312553 0.146056 0.310786 0.10932
H_ H_ 0.0672996 0.147496 0.175823 0.10932
H_ H_ 0.31554 0.146555 0.175226 0.10932
H_ H_ 0.0424914 0.0763156 0.3099 0.10932
H_ H_ 0.281361 0.0869384 0.309285 0.10932
H_ H_ 0.130365 0.194952 0.360802 0.10932
H_ H_ 0.344376 0.198446 0.353441 0.10932
H_ H_ 0.128012 0.3244 0.35294 0.10932
H_ H_ 0.406864 0.299364 0.365587 0.10932
H_ H_ 0.121221 0.328315 0.431078 0.10932
H_ H_ 0.408662 0.287079 0.439874 0.10932
H_ H_ 0.126747 0.195129 0.436889 0.10932
H_ H_ 0.34393 0.186243 0.429335 0.10932
H_ H_ 0.124369 0.320067 0.137357 0.10932
H_ H_ 0.373427 0.181371 0.134496 0.10932
H_ H_ 0.1076 0.192916 0.134635 0.10932
H_ H_ 0.384194 0.310893 0.145283 0.10932
H_ H_ 0.104392 0.193427 0.0557473 0.10932
H_ H_ 0.379503 0.32106 0.0684183 0.10932
H_ H_ 0.122148 0.320714 0.0589282 0.10932
H_ H_ 0.374315 0.186736 0.0560878 0.10932
C_ C_ 0.0674393 0.350294 0.25248 -0.02249
C_ C_ 0.322395 0.349937 0.239902 -0.02249
C_ C_ 0.0142147 0.463754 0.262826 -0.02249
C_ C_ 0.267835 0.461286 0.234854 -0.02249
C_ C_ 0.0403463 0.409109 0.219789 -0.11473
C_ C_ 0.287342 0.395355 0.200486 -0.11473
C_ C_ 0.0556115 0.36411 0.290342 -0.11473
C_ C_ 0.323028 0.377869 0.272559 -0.11473
C_ C_ 0.0590686 0.37369 0.215446 -0.11473
C_ C_ 0.303912 0.359088 0.204136 -0.11473
C_ C_ 0.030156 0.422674 0.258801 -0.02249
C_ C_ 0.28539 0.421286 0.236471 -0.02249
C_ C_ 0.0866872 0.312404 0.24777 0.6875
C_ C_ 0.340844 0.312163 0.242454 0.6875
C_ C_ 0.035476 0.396957 0.292343 -0.11473
C_ C_ 0.304194 0.412754 0.27159 -0.11473
C_ C_ 0.185353 0.346359 0.242289 -0.02249
C_ C_ 0.441145 0.342372 0.249107 -0.02249
C_ C_ 0.236707 0.460658 0.236126 -0.02249
C_ C_ 0.484919 0.462015 0.252248 -0.02249
C_ C_ 0.215798 0.399853 0.277539 -0.11473
C_ C_ 0.459186 0.403713 0.287092 -0.11473
C_ C_ 0.192574 0.365992 0.203795 -0.11473
C_ C_ 0.450755 0.360722 0.211052 -0.11473
C_ C_ 0.197321 0.365023 0.279312 -0.11473
C_ C_ 0.448106 0.363157 0.286895 -0.11473
C_ C_ 0.22007 0.420388 0.239622 -0.02249
C_ C_ 0.469094 0.421421 0.249761 -0.02249
C_ C_ 0.166351 0.308946 0.245583 0.6875
C_ C_ 0.419773 0.304381 0.249861 0.6875
C_ C_ 0.210026 0.401953 0.202031 -0.11473
C_ C_ 0.466188 0.399879 0.211931 -0.11473
C_ C_ 0.186462 0.156137 0.244436 -0.02249
C_ C_ 0.433744 0.151494 0.25276 -0.02249
C_ C_ 0.233688 0.0407011 0.248553 -0.02249
C_ C_ 0.486366 0.0391781 0.260304 -0.02249
C_ C_ 0.215045 0.104622 0.282695 -0.11473
C_ C_ 0.472007 0.107576 0.290009 -0.11473
C_ C_ 0.186959 0.130117 0.207015 -0.11473
C_ C_ 0.433147 0.121256 0.220437 -0.11473
C_ C_ 0.20039 0.143754 0.283179 -0.11473
C_ C_ 0.453701 0.144078 0.288288 -0.11473
C_ C_ 0.217279 0.0803983 0.245594 -0.02249
C_ C_ 0.469031 0.078329 0.257456 -0.02249
C_ C_ 0.167073 0.194435 0.243327 0.6875
C_ C_ 0.414784 0.189188 0.249347 0.6875
C_ C_ 0.201732 0.092761 0.208335 -0.11473
C_ C_ 0.449877 0.0855666 0.223054 -0.11473
C_ C_ 0.0715869 0.151052 0.245746 -0.02249
C_ C_ 0.316855 0.152776 0.243103 -0.02249
C_ C_ 0.0207543 0.0351529 0.247627 -0.02249
C_ C_ 0.264093 0.0395303 0.242791 -0.02249
C_ C_ 0.0436628 0.0981286 0.205885 -0.11473
C_ C_ 0.294489 0.0945847 0.205837 -0.11473
C_ C_ 0.0615815 0.132583 0.281967 -0.11473
C_ C_ 0.30401 0.136643 0.280291 -0.11473
C_ C_ 0.0618708 0.132859 0.206433 -0.11473
C_ C_ 0.309179 0.1327 0.205772 -0.11473
C_ C_ 0.0388848 0.0746957 0.244336 -0.02249
C_ C_ 0.281978 0.0789941 0.244476 -0.02249
C_ C_ 0.0874222 0.192504 0.245281 0.6875
C_ C_ 0.334379 0.194129 0.244713 0.6875
C_ C_ 0.0479394 0.0922011 0.281397 -0.11473
C_ C_ 0.288984 0.0992274 0.28089 -0.11473
C_ C_ 0.130889 0.223589 0.376393 0.17695
C_ C_ 0.360765 0.215481 0.371981 0.17695
C_ C_ 0.127081 0.295996 0.370573 0.17695
C_ C_ 0.394362 0.273044 0.378979 0.17695
C_ C_ 0.124962 0.298648 0.416503 -0.11473
C_ C_ 0.394422 0.267294 0.422561 -0.11473
C_ C_ 0.126325 0.263359 0.441861 0.23465
C_ C_ 0.375817 0.237506 0.442366 0.23465
C_ C_ 0.128047 0.22512 0.420869 -0.11473
C_ C_ 0.360838 0.209468 0.416113 -0.11473
C_ C_ 0.124411 0.291994 0.119402 0.17695
C_ C_ 0.378976 0.211472 0.11831 0.17695
C_ C_ 0.114148 0.220344 0.118071 0.17695
C_ C_ 0.37827 0.285378 0.12428 0.17695
C_ C_ 0.113429 0.221829 0.0737696 -0.11473
C_ C_ 0.37828 0.288954 0.0804379 -0.11473
C_ C_ 0.119619 0.256704 0.0529567 0.23465
C_ C_ 0.380267 0.254474 0.0540404 0.23465
C_ C_ 0.125237 0.292636 0.075094 -0.11473
C_ C_ 0.379261 0.214284 0.0739003 -0.11473
C_ C_ 0.0310312 0.500217 0.259517 0.05793
C_ C_ 0.282378 0.500559 0.232902 0.05793
C_ C_ 0.217982 0.00213423 0.250624 0.05793
C_ C_ 0.469864 1.00204 0.255489 0.05793
Br Br 0.0754774 0.498461 0.256975 -0.17191
Br Br 0.32536 0.501 0.236872 -0.17191
Br Br 0.176279 0.00243497 0.255219 -0.17191
Br Br 0.42561 0.997982 0.264682 -0.17191
N_ N_ 0.129654 0.25817 0.351501 -0.272
N_ N_ 0.377228 0.247949 0.355618 -0.272
N_ N_ 0.125558 0.267626 0.485815 -0.12501
N_ N_ 0.375105 0.233591 0.486989 -0.12501
N_ N_ 0.123392 0.255701 0.140222 -0.272
N_ N_ 0.376752 0.246016 0.141584 -0.272
N_ N_ 0.110459 0.259406 0.0101207 -0.12501
N_ N_ 0.376368 0.259847 0.0100524 -0.12501
O_ O_ 0.0946231 0.297652 0.212397 -0.60745
O_ O_ 0.348298 0.291825 0.210304 -0.60745
O_ O_ 0.0928532 0.290879 0.280264 -0.60745
O_ O_ 0.345968 0.297294 0.278875 -0.60745
O_ O_ 0.153167 0.302006 0.280507 -0.60745
O_ O_ 0.409482 0.291557 0.283683 -0.60745
O_ O_ 0.157442 0.291093 0.212156 -0.60745
O_ O_ 0.411427 0.286536 0.215398 -0.60745
O_ O_ 0.161484 0.214216 0.276751 -0.60745
O_ O_ 0.403557 0.204065 0.281987 -0.60745
O_ O_ 0.154614 0.20665 0.208845 -0.60745
O_ O_ 0.408563 0.203975 0.213598 -0.60745
O_ O_ 0.0919319 0.209539 0.210422 -0.60745
O_ O_ 0.347814 0.20371 0.212466 -0.60745
O_ O_ 0.101986 0.203614 0.277536 -0.60745
O_ O_ 0.342241 0.210126 0.279966 -0.60745
Zn Zn 0.125951 0.251139 0.780048 0.9476
Zn Zn 0.377632 0.250661 0.783231 0.9476
Zn Zn 0.122535 0.252343 0.711124 0.9476
Zn Zn 0.374247 0.246975 0.710735 0.9476
H_ H_ 0.0484514 0.439946 0.689518 0.10932
H_ H_ 0.294589 0.422021 0.682621 0.10932
H_ H_ 0.0536408 0.340235 0.806127 0.10932
H_ H_ 0.309991 0.352511 0.819704 0.10932
H_ H_ 0.0701851 0.362751 0.678676 0.10932
H_ H_ 0.315023 0.350044 0.685089 0.10932
H_ H_ 0.0258164 0.404794 0.814777 0.10932
H_ H_ 0.276097 0.412871 0.81598 0.10932
H_ H_ 0.197551 0.43429 0.804549 0.10932
H_ H_ 0.476323 0.404354 0.809126 0.10932
H_ H_ 0.201254 0.336422 0.685069 0.10932
H_ H_ 0.421907 0.365324 0.681646 0.10932
H_ H_ 0.164859 0.376495 0.806495 0.10932
H_ H_ 0.441026 0.349371 0.813908 0.10932
H_ H_ 0.234878 0.392045 0.689109 0.10932
H_ H_ 0.453591 0.428413 0.678268 0.10932
H_ H_ 0.217248 0.0847395 0.809367 0.10932
H_ H_ 0.457265 0.0745815 0.812224 0.10932
H_ H_ 0.180494 0.14771 0.678595 0.10932
H_ H_ 0.441894 0.146783 0.676474 0.10932
H_ H_ 0.190218 0.154665 0.812211 0.10932
H_ H_ 0.424293 0.139321 0.807065 0.10932
H_ H_ 0.212582 0.0866213 0.679608 0.10932
H_ H_ 0.47571 0.0884657 0.68 0.10932
H_ H_ 0.0328785 0.080214 0.676693 0.10932
H_ H_ 0.299428 0.070043 0.684235 0.10932
H_ H_ 0.0547905 0.155311 0.80759 0.10932
H_ H_ 0.310856 0.156572 0.812396 0.10932
H_ H_ 0.0594704 0.143097 0.673717 0.10932
H_ H_ 0.333314 0.131027 0.686615 0.10932
H_ H_ 0.0280158 0.0881234 0.813751 0.10932
H_ H_ 0.277462 0.0954043 0.816855 0.10932
H_ H_ 0.133089 0.316094 0.853173 0.10932
H_ H_ 0.370215 0.307377 0.856291 0.10932
H_ H_ 0.117465 0.187568 0.858502 0.10932
H_ H_ 0.40285 0.190568 0.850084 0.10932
H_ H_ 0.122061 0.186906 0.933387 0.10932
H_ H_ 0.409591 0.183071 0.926351 0.10932
H_ H_ 0.127315 0.321529 0.931132 0.10932
H_ H_ 0.368825 0.305768 0.936495 0.10932
H_ H_ 0.112994 0.188633 0.644948 0.10932
H_ H_ 0.369527 0.190843 0.633035 0.10932
H_ H_ 0.138458 0.314133 0.634818 0.10932
H_ H_ 0.379794 0.317396 0.646313 0.10932
H_ H_ 0.139122 0.306157 0.557785 0.10932
H_ H_ 0.379648 0.327598 0.569557 0.10932
H_ H_ 0.107936 0.17876 0.5693 0.10932
H_ H_ 0.373548 0.195698 0.557985 0.10932
C_ C_ 0.0649414 0.348791 0.742755 -0.02249
C_ C_ 0.314733 0.345981 0.751709 -0.02249
C_ C_ 0.0132211 0.461968 0.758829 -0.02249
C_ C_ 0.266039 0.462099 0.745019 -0.02249
C_ C_ 0.0449856 0.412831 0.711168 -0.11473
C_ C_ 0.295627 0.405244 0.712018 -0.11473
C_ C_ 0.0507741 0.360387 0.77964 -0.11473
C_ C_ 0.302116 0.364201 0.788127 -0.11473
C_ C_ 0.0628579 0.376284 0.708154 -0.11473
C_ C_ 0.309128 0.366014 0.71274 -0.11473
C_ C_ 0.0305632 0.422595 0.749097 -0.02249
C_ C_ 0.281984 0.42219 0.748121 -0.02249
C_ C_ 0.0841042 0.310202 0.73932 0.6875
C_ C_ 0.334885 0.309717 0.754682 0.6875
C_ C_ 0.0350676 0.396755 0.783654 -0.11473
C_ C_ 0.28551 0.401931 0.786973 -0.11473
C_ C_ 0.184642 0.346035 0.749187 -0.02249
C_ C_ 0.430195 0.350695 0.747389 -0.02249
C_ C_ 0.233225 0.462787 0.741478 -0.02249
C_ C_ 0.483921 0.460307 0.745303 -0.02249
C_ C_ 0.198468 0.412838 0.780213 -0.11473
C_ C_ 0.464409 0.3979 0.780216 -0.11473
C_ C_ 0.201203 0.356851 0.713191 -0.11473
C_ C_ 0.43279 0.374054 0.709386 -0.11473
C_ C_ 0.180865 0.377539 0.780446 -0.11473
C_ C_ 0.446068 0.363437 0.782078 -0.11473
C_ C_ 0.217589 0.421863 0.745918 -0.02249
C_ C_ 0.46849 0.420588 0.743875 -0.02249
C_ C_ 0.165675 0.307288 0.749348 0.6875
C_ C_ 0.413489 0.310819 0.749226 0.6875
C_ C_ 0.220227 0.391572 0.714924 -0.11473
C_ C_ 0.451197 0.408795 0.707691 -0.11473
C_ C_ 0.181713 0.153923 0.745418 -0.02249
C_ C_ 0.433582 0.149402 0.743317 -0.02249
C_ C_ 0.233044 0.041015 0.746163 -0.02249
C_ C_ 0.483637 0.0370481 0.747984 -0.02249
C_ C_ 0.210119 0.100153 0.783087 -0.11473
C_ C_ 0.456485 0.0944302 0.783996 -0.11473
C_ C_ 0.189009 0.134902 0.708945 -0.11473
C_ C_ 0.448234 0.134713 0.706184 -0.11473
C_ C_ 0.192088 0.136424 0.782295 -0.11473
C_ C_ 0.438154 0.12899 0.78161 -0.11473
C_ C_ 0.215033 0.0808316 0.745718 -0.02249
C_ C_ 0.469083 0.0787226 0.746559 -0.02249
C_ C_ 0.161734 0.190889 0.745612 0.6875
C_ C_ 0.414924 0.18796 0.740839 0.6875
C_ C_ 0.207164 0.100278 0.707879 -0.11473
C_ C_ 0.466264 0.099506 0.707448 -0.11473
C_ C_ 0.0628516 0.152261 0.741038 -0.02249
C_ C_ 0.318942 0.153622 0.746569 -0.02249
C_ C_ 0.015656 0.0372396 0.748473 -0.02249
C_ C_ 0.265875 0.040186 0.749564 -0.02249
C_ C_ 0.0406408 0.0933515 0.706497 -0.11473
C_ C_ 0.299993 0.090236 0.712783 -0.11473
C_ C_ 0.0554117 0.13468 0.781351 -0.11473
C_ C_ 0.305417 0.14029 0.782563 -0.11473
C_ C_ 0.0557138 0.130583 0.70332 -0.11473
C_ C_ 0.316099 0.126512 0.711445 -0.11473
C_ C_ 0.0321908 0.0769525 0.746021 -0.02249
C_ C_ 0.284981 0.0799951 0.750014 -0.02249
C_ C_ 0.084198 0.189022 0.740292 0.6875
C_ C_ 0.335103 0.193256 0.745109 0.6875
C_ C_ 0.0384215 0.0992139 0.783223 -0.11473
C_ C_ 0.287376 0.104546 0.786305 -0.11473
C_ C_ 0.124216 0.290451 0.869028 0.17695
C_ C_ 0.377497 0.280316 0.873888 0.17695
C_ C_ 0.119558 0.218161 0.87277 0.17695
C_ C_ 0.393175 0.212687 0.870092 0.17695
C_ C_ 0.120788 0.217517 0.916452 -0.11473
C_ C_ 0.397869 0.210864 0.913264 -0.11473
C_ C_ 0.122619 0.255629 0.937495 0.23465
C_ C_ 0.386291 0.242775 0.939448 0.23465
C_ C_ 0.124044 0.292385 0.914845 -0.11473
C_ C_ 0.376666 0.27834 0.918613 -0.11473
C_ C_ 0.116184 0.214928 0.62579 0.17695
C_ C_ 0.369467 0.221666 0.619176 0.17695
C_ C_ 0.134176 0.283989 0.619385 0.17695
C_ C_ 0.371173 0.293618 0.625656 0.17695
C_ C_ 0.129514 0.281287 0.575252 -0.11473
C_ C_ 0.374393 0.297939 0.582445 -0.11473
C_ C_ 0.121161 0.244206 0.555222 0.23465
C_ C_ 0.37333 0.261995 0.556022 0.23465
C_ C_ 0.114802 0.210333 0.581667 -0.11473
C_ C_ 0.373169 0.225196 0.576379 -0.11473
C_ C_ 0.0302772 0.500425 0.759496 0.05793
C_ C_ 0.281422 0.499697 0.750617 0.05793
C_ C_ 0.218309 0.0032028 0.734484 0.05793
C_ C_ 0.465501 1.000812475 0.744542 0.05793
Br Br 0.0728526 0.497035 0.767957 -0.17191
Br Br 0.3251 0.499509 0.762287 -0.17191
Br Br 0.174722 0.00688747 0.72346 -0.17191
Br Br 0.420726 1.00518877 0.733083 -0.17191
N_ N_ 0.123301 0.253344 0.849843 -0.272
N_ N_ 0.380843 0.245905 0.85167 -0.272
N_ N_ 0.129932 0.255243 0.98233 -0.12501
N_ N_ 0.39357 0.242126 0.984277 -0.12501
N_ N_ 0.124712 0.251648 0.643379 -0.272
N_ N_ 0.368833 0.25523 0.643415 -0.272
N_ N_ 0.120109 0.237623 0.509896 -0.12501
N_ N_ 0.373396 0.265164 0.510741 -0.12501
O_ O_ 0.0982482 0.30395 0.706806 -0.60745
O_ O_ 0.341754 0.290649 0.720051 -0.60745
O_ O_ 0.0893425 0.286536 0.771283 -0.60745
O_ O_ 0.347942 0.29729 0.788523 -0.60745
O_ O_ 0.153157 0.295592 0.783424 -0.60745
O_ O_ 0.407257 0.295063 0.784593 -0.60745
O_ O_ 0.159078 0.290944 0.714751 -0.60745
O_ O_ 0.405842 0.294329 0.715368 -0.60745
O_ O_ 0.158369 0.211423 0.780011 -0.60745
O_ O_ 0.409382 0.204444 0.774029 -0.60745
O_ O_ 0.146901 0.200056 0.712207 -0.60745
O_ O_ 0.402476 0.198291 0.70605 -0.60745
O_ O_ 0.0860093 0.213639 0.708619 -0.60745
O_ O_ 0.344224 0.206593 0.711242 -0.60745
O_ O_ 0.0982547 0.200491 0.772978 -0.60745
O_ O_ 0.344163 0.209926 0.780034 -0.60745
Zn Zn 0.128476 0.748659 0.279171 0.9476
Zn Zn 0.375123 0.750399 0.286395 0.9476
Zn Zn 0.124348 0.748341 0.211731 0.9476
Zn Zn 0.374703 0.752062 0.217758 0.9476
H_ H_ 0.0303391 0.909947 0.173786 0.10932
H_ H_ 0.290993 0.922881 0.183723 0.10932
H_ H_ 0.0740992 0.860001 0.310614 0.10932
H_ H_ 0.306513 0.848296 0.319263 0.10932
H_ H_ 0.0592437 0.848645 0.17533 0.10932
H_ H_ 0.315416 0.852684 0.184237 0.10932
H_ H_ 0.0447019 0.923139 0.306818 0.10932
H_ H_ 0.275578 0.912883 0.317171 0.10932
H_ H_ 0.222338 0.916829 0.311182 0.10932
H_ H_ 0.473444 0.910907 0.322788 0.10932
H_ H_ 0.184091 0.855212 0.175505 0.10932
H_ H_ 0.433245 0.858979 0.189387 0.10932
H_ H_ 0.197332 0.846783 0.312417 0.10932
H_ H_ 0.43824 0.853274 0.32209 0.10932
H_ H_ 0.220502 0.916654 0.181686 0.10932
H_ H_ 0.462615 0.920775 0.187815 0.10932
H_ H_ 0.205766 0.568998 0.307973 0.10932
H_ H_ 0.450972 0.5706 0.316623 0.10932
H_ H_ 0.199551 0.659772 0.179676 0.10932
H_ H_ 0.446847 0.66105 0.194274 0.10932
H_ H_ 0.174554 0.631098 0.307174 0.10932
H_ H_ 0.41492 0.628104 0.313888 0.10932
H_ H_ 0.22414 0.591789 0.174474 0.10932
H_ H_ 0.470493 0.589775 0.185782 0.10932
H_ H_ 0.0311687 0.57859 0.188402 0.10932
H_ H_ 0.283588 0.588091 0.178985 0.10932
H_ H_ 0.0727738 0.645016 0.318996 0.10932
H_ H_ 0.327559 0.633032 0.312846 0.10932
H_ H_ 0.0601957 0.646954 0.184647 0.10932
H_ H_ 0.305804 0.655548 0.180681 0.10932
H_ H_ 0.0431427 0.580902 0.321417 0.10932
H_ H_ 0.290124 0.574656 0.310409 0.10932
H_ H_ 0.13492 0.815447 0.351742 0.10932
H_ H_ 0.38171 0.813839 0.354831 0.10932
H_ H_ 0.115251 0.690342 0.356634 0.10932
H_ H_ 0.366875 0.683351 0.369554 0.10932
H_ H_ 0.116647 0.690508 0.431144 0.10932
H_ H_ 0.374921 0.689906 0.442577 0.10932
H_ H_ 0.12791 0.821586 0.428093 0.10932
H_ H_ 0.381496 0.823134 0.434649 0.10932
H_ H_ 0.121824 0.682468 0.143671 0.10932
H_ H_ 0.375018 0.82744 0.138909 0.10932
H_ H_ 0.128949 0.813093 0.132391 0.10932
H_ H_ 0.375177 0.695851 0.143148 0.10932
H_ H_ 0.123334 0.809438 0.0540416 0.10932
H_ H_ 0.371434 0.694707 0.064884 0.10932
H_ H_ 0.125196 0.677944 0.0672302 0.10932
H_ H_ 0.365533 0.827561 0.0629706 0.10932
C_ C_ 0.0692061 0.845615 0.241699 -0.02249
C_ C_ 0.313717 0.847135 0.252769 -0.02249
C_ C_ 0.0174938 0.961595 0.240003 -0.02249
C_ C_ 0.264263 0.963217 0.245352 -0.02249
C_ C_ 0.0396716 0.899118 0.204497 -0.11473
C_ C_ 0.292297 0.905193 0.212851 -0.11473
C_ C_ 0.0643111 0.868569 0.279176 -0.11473
C_ C_ 0.304311 0.864987 0.289958 -0.11473
C_ C_ 0.0536386 0.860733 0.20497 -0.11473
C_ C_ 0.307114 0.866795 0.214296 -0.11473
C_ C_ 0.0339613 0.920562 0.240231 -0.02249
C_ C_ 0.282515 0.924275 0.250503 -0.02249
C_ C_ 0.0857888 0.80615 0.243214 0.6875
C_ C_ 0.331406 0.807456 0.254732 0.6875
C_ C_ 0.0490192 0.907233 0.276714 -0.11473
C_ C_ 0.287036 0.902105 0.28816 -0.11473
C_ C_ 0.186394 0.846063 0.242874 -0.02249
C_ C_ 0.436263 0.84691 0.255095 -0.02249
C_ C_ 0.233827 0.964247 0.248169 -0.02249
C_ C_ 0.486328 0.963599 0.255631 -0.02249
C_ C_ 0.212505 0.902667 0.283125 -0.11473
C_ C_ 0.464223 0.900522 0.291531 -0.11473
C_ C_ 0.193049 0.866662 0.205325 -0.11473
C_ C_ 0.444822 0.866722 0.21651 -0.11473
C_ C_ 0.199159 0.861738 0.281446 -0.11473
C_ C_ 0.445965 0.866386 0.292176 -0.11473
C_ C_ 0.21649 0.924032 0.245682 -0.02249
C_ C_ 0.469473 0.923371 0.254955 -0.02249
C_ C_ 0.16498 0.809152 0.24563 0.6875
C_ C_ 0.413083 0.813063 0.254353 0.6875
C_ C_ 0.209266 0.903965 0.207629 -0.11473
C_ C_ 0.46042 0.904086 0.21651 -0.11473
C_ C_ 0.182732 0.650079 0.243242 -0.02249
C_ C_ 0.428986 0.650357 0.252181 -0.02249
C_ C_ 0.235093 0.536659 0.239645 -0.02249
C_ C_ 0.481001 0.536884 0.247822 -0.02249
C_ C_ 0.202243 0.585936 0.277533 -0.11473
C_ C_ 0.448041 0.586582 0.286476 -0.11473
C_ C_ 0.197764 0.63866 0.205748 -0.11473
C_ C_ 0.442517 0.637654 0.214925 -0.11473
C_ C_ 0.185672 0.624429 0.278998 -0.11473
C_ C_ 0.430103 0.62311 0.287496 -0.11473
C_ C_ 0.217962 0.576216 0.240851 -0.02249
C_ C_ 0.463 0.575814 0.249318 -0.02249
C_ C_ 0.163893 0.688519 0.245724 0.6875
C_ C_ 0.412805 0.690592 0.252987 0.6875
C_ C_ 0.213863 0.600453 0.204255 -0.11473
C_ C_ 0.457156 0.598368 0.212865 -0.11473
C_ C_ 0.0655513 0.653733 0.250844 -0.02249
C_ C_ 0.314943 0.65392 0.248447 -0.02249
C_ C_ 0.0150272 0.539656 0.258159 -0.02249
C_ C_ 0.266273 0.536998 0.239178 -0.02249
C_ C_ 0.0389942 0.596445 0.216538 -0.11473
C_ C_ 0.286918 0.601302 0.208401 -0.11473
C_ C_ 0.062185 0.632377 0.290494 -0.11473
C_ C_ 0.313205 0.627707 0.284983 -0.11473
C_ C_ 0.0563509 0.632139 0.2131 -0.11473
C_ C_ 0.301527 0.639471 0.210428 -0.11473
C_ C_ 0.0313605 0.579725 0.256821 -0.02249
C_ C_ 0.283343 0.576654 0.243844 -0.02249
C_ C_ 0.0875868 0.689343 0.247548 0.6875
C_ C_ 0.33464 0.691922 0.249357 0.6875
C_ C_ 0.0454835 0.595256 0.292169 -0.11473
C_ C_ 0.29451 0.592564 0.282103 -0.11473
C_ C_ 0.134189 0.788056 0.369483 0.17695
C_ C_ 0.378126 0.787799 0.373983 0.17695
C_ C_ 0.122575 0.716802 0.371386 0.17695
C_ C_ 0.369423 0.714603 0.382584 0.17695
C_ C_ 0.124244 0.718078 0.415511 -0.11473
C_ C_ 0.371617 0.719 0.42674 -0.11473
C_ C_ 0.126941 0.756532 0.436086 0.23465
C_ C_ 0.377159 0.75863 0.44433 0.23465
C_ C_ 0.130772 0.79119 0.412558 -0.11473
C_ C_ 0.376783 0.792498 0.418274 -0.11473
C_ C_ 0.124356 0.710344 0.124945 0.17695
C_ C_ 0.371199 0.798192 0.123225 0.17695
C_ C_ 0.126508 0.782818 0.119122 0.17695
C_ C_ 0.374131 0.724099 0.125079 0.17695
C_ C_ 0.125689 0.781365 0.0742375 -0.11473
C_ C_ 0.373983 0.723297 0.0793163 -0.11473
C_ C_ 0.125927 0.743986 0.0542827 0.23465
C_ C_ 0.371814 0.761234 0.0550817 0.23465
C_ C_ 0.124576 0.70882 0.0799339 -0.11473
C_ C_ 0.370027 0.798515 0.0785618 -0.11473
C_ C_ 0.0347349 0.997323 0.242394 0.05793
C_ C_ 0.279973 1.000596521 0.239042 0.05793
C_ C_ 0.219913 0.498405 0.238544 0.05793
C_ C_ 0.467396 0.498933 0.25007 0.05793
Br Br 0.0782824 -0.0016570000000000196 0.234717 -0.17191
Br Br 0.323013 0.998489 0.225717 -0.17191
Br Br 0.177988 0.497681 0.221544 -0.17191
Br Br 0.425058 0.493996 0.238132 -0.17191
N_ N_ 0.128633 0.751654 0.348764 -0.272
N_ N_ 0.37481 0.749497 0.357638 -0.272
N_ N_ 0.135868 0.757768 0.47962 -0.12501
N_ N_ 0.38201 0.765921 0.488233 -0.12501
N_ N_ 0.124433 0.748166 0.144561 -0.272
N_ N_ 0.37149 0.762291 0.145318 -0.272
N_ N_ 0.122295 0.739522 0.009766 -0.12501
N_ N_ 0.365399 0.76335 0.0125404 -0.12501
O_ O_ 0.0888817 0.783622 0.210975 -0.60745
O_ O_ 0.340547 0.78935 0.221585 -0.60745
O_ O_ 0.0983624 0.794747 0.276579 -0.60745
O_ O_ 0.343545 0.795804 0.289142 -0.60745
O_ O_ 0.161447 0.792664 0.281142 -0.60745
O_ O_ 0.408169 0.793792 0.286944 -0.60745
O_ O_ 0.155174 0.791517 0.211744 -0.60745
O_ O_ 0.401089 0.800589 0.220507 -0.60745
O_ O_ 0.156936 0.703437 0.280797 -0.60745
O_ O_ 0.404574 0.705116 0.287959 -0.60745
O_ O_ 0.155546 0.706196 0.212877 -0.60745
O_ O_ 0.409288 0.712403 0.219876 -0.60745
O_ O_ 0.094181 0.705394 0.212866 -0.60745
O_ O_ 0.344989 0.707315 0.215267 -0.60745
O_ O_ 0.101237 0.701773 0.280232 -0.60745
O_ O_ 0.343787 0.708599 0.284108 -0.60745
Zn Zn 0.12388 0.753019 0.78198 0.9476
Zn Zn 0.372326 0.747413 0.786493 0.9476
Zn Zn 0.123677 0.746472 0.71296 0.9476
Zn Zn 0.372366 0.754693 0.717483 0.9476
H_ H_ 0.0358864 0.924423 0.685771 0.10932
H_ H_ 0.284752 0.920117 0.683238 0.10932
H_ H_ 0.0572026 0.844114 0.813388 0.10932
H_ H_ 0.313511 0.852698 0.816502 0.10932
H_ H_ 0.0551848 0.852759 0.680666 0.10932
H_ H_ 0.314456 0.856249 0.683601 0.10932
H_ H_ 0.0320007 0.916003 0.816863 0.10932
H_ H_ 0.279459 0.913248 0.816667 0.10932
H_ H_ 0.207666 0.927589 0.809061 0.10932
H_ H_ 0.458669 0.924866 0.816607 0.10932
H_ H_ 0.187516 0.846314 0.682248 0.10932
H_ H_ 0.445575 0.841401 0.687442 0.10932
H_ H_ 0.17735 0.86641 0.813022 0.10932
H_ H_ 0.429563 0.860455 0.818282 0.10932
H_ H_ 0.220763 0.908528 0.678184 0.10932
H_ H_ 0.465306 0.908536 0.682864 0.10932
H_ H_ 0.198929 0.564996 0.803296 0.10932
H_ H_ 0.466516 0.580902 0.817901 0.10932
H_ H_ 0.199009 0.66324 0.68074 0.10932
H_ H_ 0.435214 0.649547 0.682303 0.10932
H_ H_ 0.162983 0.628571 0.801211 0.10932
H_ H_ 0.431096 0.644762 0.818867 0.10932
H_ H_ 0.229129 0.598101 0.679396 0.10932
H_ H_ 0.45488 0.574121 0.681512 0.10932
H_ H_ 0.0382596 0.577799 0.688015 0.10932
H_ H_ 0.291507 0.580048 0.680362 0.10932
H_ H_ 0.0665443 0.644652 0.820172 0.10932
H_ H_ 0.29596 0.659484 0.812784 0.10932
H_ H_ 0.0677189 0.641948 0.684825 0.10932
H_ H_ 0.31338 0.650673 0.681504 0.10932
H_ H_ 0.0333707 0.592202 0.820911 0.10932
H_ H_ 0.266594 0.596892 0.805806 0.10932
H_ H_ 0.116438 0.820611 0.849798 0.10932
H_ H_ 0.375051 0.811783 0.858836 0.10932
H_ H_ 0.134894 0.693106 0.864677 0.10932
H_ H_ 0.359644 0.685262 0.857 0.10932
H_ H_ 0.127202 0.696356 0.939839 0.10932
H_ H_ 0.365488 0.679237 0.93308 0.10932
H_ H_ 0.122125 0.828857 0.928942 0.10932
H_ H_ 0.380694 0.813383 0.937275 0.10932
H_ H_ 0.127299 0.683127 0.640322 0.10932
H_ H_ 0.374889 0.812728 0.641177 0.10932
H_ H_ 0.111274 0.81106 0.637417 0.10932
H_ H_ 0.384283 0.682498 0.648032 0.10932
H_ H_ 0.109885 0.810798 0.557867 0.10932
H_ H_ 0.395786 0.679909 0.571485 0.10932
H_ H_ 0.126816 0.678596 0.559719 0.10932
H_ H_ 0.371653 0.807921 0.5621 0.10932
C_ C_ 0.0612578 0.844369 0.746156 -0.02249
C_ C_ 0.316588 0.849728 0.750448 -0.02249
C_ C_ 0.0141226 0.961463 0.753217 -0.02249
C_ C_ 0.264507 0.962793 0.751182 -0.02249
C_ C_ 0.0388853 0.904948 0.711667 -0.11473
C_ C_ 0.291289 0.905914 0.712085 -0.11473
C_ C_ 0.0541563 0.861373 0.785452 -0.11473
C_ C_ 0.30388 0.865016 0.788634 -0.11473
C_ C_ 0.0515037 0.866029 0.709848 -0.11473
C_ C_ 0.308165 0.870573 0.712547 -0.11473
C_ C_ 0.030923 0.920493 0.750809 -0.02249
C_ C_ 0.28123 0.92271 0.750922 -0.02249
C_ C_ 0.0811614 0.807924 0.746813 0.6875
C_ C_ 0.334966 0.811135 0.749185 0.6875
C_ C_ 0.0365948 0.898202 0.786903 -0.11473
C_ C_ 0.287033 0.901821 0.787337 -0.11473
C_ C_ 0.180042 0.849984 0.746936 -0.02249
C_ C_ 0.431002 0.848272 0.753211 -0.02249
C_ C_ 0.232544 0.964341 0.74125 -0.02249
C_ C_ 0.48041 0.962644 0.74874 -0.02249
C_ C_ 0.202742 0.909976 0.780274 -0.11473
C_ C_ 0.453052 0.908733 0.788126 -0.11473
C_ C_ 0.194413 0.862022 0.710151 -0.11473
C_ C_ 0.444909 0.861103 0.715316 -0.11473
C_ C_ 0.187446 0.871165 0.783157 -0.11473
C_ C_ 0.435254 0.872116 0.789835 -0.11473
C_ C_ 0.215151 0.923367 0.742859 -0.02249
C_ C_ 0.460662 0.925793 0.750133 -0.02249
C_ C_ 0.161645 0.811729 0.747849 0.6875
C_ C_ 0.411709 0.808673 0.755135 0.6875
C_ C_ 0.208514 0.901569 0.706011 -0.11473
C_ C_ 0.458494 0.898908 0.714454 -0.11473
C_ C_ 0.184747 0.654853 0.747615 -0.02249
C_ C_ 0.430529 0.652472 0.750897 -0.02249
C_ C_ 0.233508 0.538972 0.739752 -0.02249
C_ C_ 0.480774 0.536272 0.749815 -0.02249
C_ C_ 0.1978 0.586803 0.77779 -0.11473
C_ C_ 0.455516 0.594519 0.788394 -0.11473
C_ C_ 0.201791 0.645327 0.710611 -0.11473
C_ C_ 0.437099 0.632339 0.711855 -0.11473
C_ C_ 0.180261 0.623684 0.777728 -0.11473
C_ C_ 0.439149 0.631649 0.788181 -0.11473
C_ C_ 0.214859 0.577882 0.741167 -0.02249
C_ C_ 0.46264 0.574361 0.749177 -0.02249
C_ C_ 0.165328 0.692312 0.747106 0.6875
C_ C_ 0.409535 0.690751 0.7531 0.6875
C_ C_ 0.21537 0.606269 0.706037 -0.11473
C_ C_ 0.451404 0.591835 0.710461 -0.11473
C_ C_ 0.0691112 0.649648 0.75038 -0.02249
C_ C_ 0.310773 0.658043 0.748444 -0.02249
C_ C_ 0.0156648 0.538407 0.75679 -0.02249
C_ C_ 0.264555 0.538726 0.74559 -0.02249
C_ C_ 0.0411047 0.595525 0.714793 -0.11473
C_ C_ 0.292728 0.597958 0.709425 -0.11473
C_ C_ 0.0596049 0.632696 0.789367 -0.11473
C_ C_ 0.295532 0.643608 0.783837 -0.11473
C_ C_ 0.0605143 0.628797 0.714349 -0.11473
C_ C_ 0.307041 0.636581 0.710032 -0.11473
C_ C_ 0.0337332 0.576439 0.754199 -0.02249
C_ C_ 0.282794 0.578619 0.747374 -0.02249
C_ C_ 0.0865148 0.687653 0.74832 0.6875
C_ C_ 0.331707 0.694848 0.750359 0.6875
C_ C_ 0.0418683 0.598055 0.790426 -0.11473
C_ C_ 0.282956 0.604107 0.78357 -0.11473
C_ C_ 0.121445 0.794046 0.870374 0.17695
C_ C_ 0.377123 0.782892 0.876669 0.17695
C_ C_ 0.127926 0.721542 0.877106 0.17695
C_ C_ 0.367325 0.711436 0.875111 0.17695
C_ C_ 0.123586 0.72489 0.921232 -0.11473
C_ C_ 0.37052 0.708545 0.918877 -0.11473
C_ C_ 0.123375 0.763488 0.940381 0.23465
C_ C_ 0.37595 0.745957 0.942951 0.23465
C_ C_ 0.121991 0.798186 0.914899 -0.11473
C_ C_ 0.378881 0.783052 0.921265 -0.11473
C_ C_ 0.127749 0.710952 0.621023 0.17695
C_ C_ 0.375741 0.783543 0.625111 0.17695
C_ C_ 0.117964 0.783949 0.619561 0.17695
C_ C_ 0.38436 0.711469 0.628693 0.17695
C_ C_ 0.1179 0.784301 0.574413 -0.11473
C_ C_ 0.391817 0.710396 0.585304 -0.11473
C_ C_ 0.124591 0.746361 0.552418 0.23465
C_ C_ 0.385408 0.745536 0.560198 0.23465
C_ C_ 0.126166 0.708653 0.57641 -0.11473
C_ C_ 0.37811 0.781793 0.581547 -0.11473
C_ C_ 0.030058 -0.0012990000000000501 0.752863 0.05793
C_ C_ 0.280199 0.000662804 0.754188 0.05793
C_ C_ 0.217046 0.499677 0.739366 0.05793
C_ C_ 0.466513 0.497834 0.750129 0.05793
Br Br 0.071688 -0.0013699999999999823 0.757329 -0.17191
Br Br 0.32164 0.00258988 0.771707 -0.17191
Br Br 0.173262 0.498981 0.727813 -0.17191
Br Br 0.422968 0.500138 0.743273 -0.17191
N_ N_ 0.124587 0.756509 0.853116 -0.272
N_ N_ 0.371206 0.74745 0.856295 -0.272
N_ N_ 0.125142 0.769871 0.984589 -0.12501
N_ N_ 0.379821 0.743784 0.987335 -0.12501
N_ N_ 0.124225 0.748013 0.639708 -0.272
N_ N_ 0.376982 0.747954 0.648749 -0.272
N_ N_ 0.118184 0.745997 0.507833 -0.12501
N_ N_ 0.377685 0.739576 0.515411 -0.12501
O_ O_ 0.0886649 0.790122 0.71346 -0.60745
O_ O_ 0.346302 0.801255 0.714732 -0.60745
O_ O_ 0.093039 0.796468 0.781313 -0.60745
O_ O_ 0.341484 0.791404 0.783048 -0.60745
O_ O_ 0.154704 0.798741 0.782439 -0.60745
O_ O_ 0.401914 0.793693 0.789687 -0.60745
O_ O_ 0.146633 0.799804 0.715746 -0.60745
O_ O_ 0.405034 0.790865 0.721855 -0.60745
O_ O_ 0.153742 0.70777 0.779949 -0.60745
O_ O_ 0.403013 0.705683 0.787964 -0.60745
O_ O_ 0.159886 0.710299 0.711311 -0.60745
O_ O_ 0.399084 0.706577 0.719364 -0.60745
O_ O_ 0.0989939 0.698032 0.713958 -0.60745
O_ O_ 0.337833 0.715053 0.717623 -0.60745
O_ O_ 0.0932498 0.708098 0.781771 -0.60745
O_ O_ 0.342478 0.705865 0.784934 -0.60745
Zn Zn 0.629401 0.251941 0.286521 0.9476
Zn Zn 0.877311 0.248892 0.288838 0.9476
Zn Zn 0.625416 0.250205 0.219505 0.9476
Zn Zn 0.877364 0.251613 0.218573 0.9476
H_ H_ 0.539545 0.41742 0.183363 0.10932
H_ H_ 0.807144 0.431771 0.190767 0.10932
H_ H_ 0.56596 0.355572 0.319568 0.10932
H_ H_ 0.799709 0.340826 0.312242 0.10932
H_ H_ 0.561627 0.352815 0.186162 0.10932
H_ H_ 0.83819 0.365784 0.194119 0.10932
H_ H_ 0.534567 0.420023 0.319464 0.10932
H_ H_ 0.782176 0.409643 0.315633 0.10932
H_ H_ 0.715639 0.417618 0.325732 0.10932
H_ H_ 0.965411 0.419923 0.323858 0.10932
H_ H_ 0.691637 0.348419 0.19131 0.10932
H_ H_ 0.935253 0.355652 0.186314 0.10932
H_ H_ 0.69415 0.347211 0.324398 0.10932
H_ H_ 0.934611 0.356683 0.319237 0.10932
H_ H_ 0.72225 0.413331 0.191286 0.10932
H_ H_ 0.964841 0.420844 0.188463 0.10932
H_ H_ 0.717691 0.0788104 0.31593 0.10932
H_ H_ 0.974604 0.0833697 0.321167 0.10932
H_ H_ 0.688637 0.152436 0.187312 0.10932
H_ H_ 0.938976 0.145785 0.186422 0.10932
H_ H_ 0.683579 0.138646 0.31679 0.10932
H_ H_ 0.939584 0.14227 0.325532 0.10932
H_ H_ 0.713612 0.0832742 0.182272 0.10932
H_ H_ 0.966235 0.0813593 0.1859 0.10932
H_ H_ 0.530059 0.0846761 0.187815 0.10932
H_ H_ 0.795831 0.0727837 0.177559 0.10932
H_ H_ 0.573674 0.146995 0.317695 0.10932
H_ H_ 0.803754 0.146868 0.316896 0.10932
H_ H_ 0.560959 0.14901 0.184713 0.10932
H_ H_ 0.828286 0.13704 0.186633 0.10932
H_ H_ 0.543682 0.0811106 0.322252 0.10932
H_ H_ 0.775168 0.0869114 0.310656 0.10932
H_ H_ 0.581548 0.258423 0.359484 0.10932
H_ H_ 0.863641 0.187201 0.363756 0.10932
H_ H_ 0.67553 0.245248 0.363727 0.10932
H_ H_ 0.900177 0.306313 0.360575 0.10932
H_ H_ 0.678548 0.252338 0.441693 0.10932
H_ H_ 0.900662 0.307699 0.44113 0.10932
H_ H_ 0.581344 0.257864 0.439685 0.10932
H_ H_ 0.866146 0.184838 0.440158 0.10932
H_ H_ 0.634023 0.184838 0.142591 0.10932
H_ H_ 0.829004 0.242824 0.14627 0.10932
H_ H_ 0.624026 0.314719 0.14774 0.10932
H_ H_ 0.923247 0.25292 0.142918 0.10932
H_ H_ 0.63739 0.318953 0.0711317 0.10932
H_ H_ 0.923562 0.257733 0.0690205 0.10932
H_ H_ 0.631145 0.186443 0.063853 0.10932
H_ H_ 0.828221 0.228768 0.0716307 0.10932
C_ C_ 0.56816 0.348389 0.253706 -0.02249
C_ C_ 0.825948 0.352328 0.25508 -0.02249
C_ C_ 0.516627 0.463413 0.246442 -0.02249
C_ C_ 0.770965 0.461565 0.248879 -0.02249
C_ C_ 0.542331 0.402905 0.214936 -0.11473
C_ C_ 0.807093 0.411913 0.217224 -0.11473
C_ C_ 0.560207 0.368968 0.2908 -0.11473
C_ C_ 0.805518 0.362378 0.286862 -0.11473
C_ C_ 0.557132 0.365303 0.21589 -0.11473
C_ C_ 0.825752 0.377118 0.22063 -0.11473
C_ C_ 0.533135 0.42357 0.251338 -0.02249
C_ C_ 0.788712 0.422067 0.250254 -0.02249
C_ C_ 0.587176 0.311058 0.25292 0.6875
C_ C_ 0.839635 0.310594 0.255219 0.6875
C_ C_ 0.542904 0.405405 0.290119 -0.11473
C_ C_ 0.789892 0.398984 0.285389 -0.11473
C_ C_ 0.687575 0.346652 0.258655 -0.02249
C_ C_ 0.934892 0.349658 0.253715 -0.02249
C_ C_ 0.739443 0.46142 0.258597 -0.02249
C_ C_ 0.982366 0.465029 0.25521 -0.02249
C_ C_ 0.715144 0.401722 0.296615 -0.11473
C_ C_ 0.956478 0.408319 0.291803 -0.11473
C_ C_ 0.697505 0.364232 0.220719 -0.11473
C_ C_ 0.940691 0.369262 0.215587 -0.11473
C_ C_ 0.697172 0.364899 0.296618 -0.11473
C_ C_ 0.940295 0.371249 0.292104 -0.11473
C_ C_ 0.722588 0.421797 0.258067 -0.02249
C_ C_ 0.965485 0.425465 0.254494 -0.02249
C_ C_ 0.671674 0.305202 0.259116 0.6875
C_ C_ 0.914373 0.311919 0.252418 0.6875
C_ C_ 0.714756 0.401235 0.220731 -0.11473
C_ C_ 0.957902 0.406657 0.216595 -0.11473
C_ C_ 0.681989 0.147717 0.252468 -0.02249
C_ C_ 0.938064 0.153429 0.254571 -0.02249
C_ C_ 0.735138 0.036056 0.24643 -0.02249
C_ C_ 0.990217 0.0377239 0.253425 -0.02249
C_ C_ 0.706448 0.0882352 0.286635 -0.11473
C_ C_ 0.966393 0.0961623 0.290881 -0.11473
C_ C_ 0.693109 0.133166 0.215355 -0.11473
C_ C_ 0.948333 0.134997 0.216417 -0.11473
C_ C_ 0.688053 0.124023 0.288918 -0.11473
C_ C_ 0.947635 0.133348 0.293628 -0.11473
C_ C_ 0.718927 0.075575 0.249413 -0.02249
C_ C_ 0.974944 0.079792 0.253133 -0.02249
C_ C_ 0.664423 0.187577 0.254836 0.6875
C_ C_ 0.916795 0.18923 0.252584 0.6875
C_ C_ 0.709739 0.0954402 0.212333 -0.11473
C_ C_ 0.963565 0.0978221 0.215779 -0.11473
C_ C_ 0.566057 0.155712 0.25191 -0.02249
C_ C_ 0.820093 0.147895 0.253432 -0.02249
C_ C_ 0.518215 0.0385702 0.258188 -0.02249
C_ C_ 0.766775 0.0347759 0.242678 -0.02249
C_ C_ 0.539899 0.0987331 0.215801 -0.11473
C_ C_ 0.797669 0.0900294 0.208447 -0.11473
C_ C_ 0.561058 0.137442 0.291349 -0.11473
C_ C_ 0.803836 0.13145 0.286501 -0.11473
C_ C_ 0.555501 0.13514 0.214225 -0.11473
C_ C_ 0.814566 0.127304 0.213208 -0.11473
C_ C_ 0.535736 0.0793326 0.254636 -0.02249
C_ C_ 0.784595 0.0743833 0.24486 -0.02249
C_ C_ 0.585925 0.194149 0.247445 0.6875
C_ C_ 0.83943 0.18673 0.255296 0.6875
C_ C_ 0.54524 0.0983636 0.292278 -0.11473
C_ C_ 0.786439 0.0965286 0.283452 -0.11473
C_ C_ 0.603351 0.256195 0.380068 0.17695
C_ C_ 0.873076 0.212546 0.380188 0.17695
C_ C_ 0.655335 0.253835 0.379021 0.17695
C_ C_ 0.895725 0.278196 0.378181 0.17695
C_ C_ 0.657815 0.257774 0.42439 -0.11473
C_ C_ 0.89686 0.279036 0.424005 -0.11473
C_ C_ 0.630812 0.259344 0.446598 0.23465
C_ C_ 0.885931 0.247078 0.446023 0.23465
C_ C_ 0.602704 0.260635 0.424232 -0.11473
C_ C_ 0.876646 0.211145 0.42457 -0.11473
C_ C_ 0.630207 0.215299 0.126898 0.17695
C_ C_ 0.847958 0.247847 0.12795 0.17695
C_ C_ 0.627591 0.287842 0.130334 0.17695
C_ C_ 0.901734 0.252061 0.127272 0.17695
C_ C_ 0.632362 0.289182 0.0859559 -0.11473
C_ C_ 0.901415 0.253125 0.0834661 -0.11473
C_ C_ 0.632131 0.252456 0.0624845 0.23465
C_ C_ 0.873194 0.248617 0.0605728 0.23465
C_ C_ 0.631034 0.215401 0.0823367 -0.11473
C_ C_ 0.847359 0.243312 0.0838935 -0.11473
C_ C_ 0.531349 0.502451 0.249567 0.05793
C_ C_ 0.786411 0.501077 0.252467 0.05793
C_ C_ 0.718708 0.999249 0.244248 0.05793
C_ C_ 0.97316 1.0010677 0.256322 0.05793
Br Br 0.574259 0.503838 0.244308 -0.17191
Br Br 0.828956 0.502469 0.252096 -0.17191
Br Br 0.677183 -0.0011090000000000266 0.25006 -0.17191
Br Br 0.930697 0.00108494 0.259164 -0.17191
N_ N_ 0.62911 0.249874 0.359852 -0.272
N_ N_ 0.884132 0.245406 0.358576 -0.272
N_ N_ 0.630856 0.268279 0.489545 -0.12501
N_ N_ 0.890441 0.246127 0.490609 -0.12501
N_ N_ 0.629455 0.251141 0.150056 -0.272
N_ N_ 0.875526 0.248432 0.14984 -0.272
N_ N_ 0.636565 0.253501 0.0174149 -0.12501
N_ N_ 0.873226 0.2374 0.0175898 -0.12501
O_ O_ 0.596941 0.299486 0.219066 -0.60745
O_ O_ 0.846226 0.294252 0.218738 -0.60745
O_ O_ 0.599856 0.299698 0.2855 -0.60745
O_ O_ 0.84878 0.293353 0.288792 -0.60745
O_ O_ 0.663373 0.288995 0.293961 -0.60745
O_ O_ 0.906287 0.295774 0.286027 -0.60745
O_ O_ 0.66047 0.290441 0.225249 -0.60745
O_ O_ 0.910853 0.290883 0.218222 -0.60745
O_ O_ 0.655271 0.201926 0.2895 -0.60745
O_ O_ 0.908235 0.204518 0.28643 -0.60745
O_ O_ 0.654092 0.204829 0.22111 -0.60745
O_ O_ 0.90853 0.204678 0.217559 -0.60745
O_ O_ 0.593613 0.208111 0.211865 -0.60745
O_ O_ 0.846512 0.206684 0.2237 -0.60745
O_ O_ 0.594497 0.214577 0.279208 -0.60745
O_ O_ 0.847209 0.201632 0.290454 -0.60745
Zn Zn 0.622 0.246021 0.789272 0.9476
Zn Zn 0.876338 0.250066 0.785296 0.9476
Zn Zn 0.623186 0.248497 0.718852 0.9476
Zn Zn 0.87268 0.251213 0.716716 0.9476
H_ H_ 0.524098 0.410622 0.686464 0.10932
H_ H_ 0.794266 0.426557 0.683053 0.10932
H_ H_ 0.576862 0.363044 0.818314 0.10932
H_ H_ 0.80948 0.345812 0.815522 0.10932
H_ H_ 0.55026 0.340742 0.692742 0.10932
H_ H_ 0.821905 0.357371 0.681361 0.10932
H_ H_ 0.543287 0.425019 0.817424 0.10932
H_ H_ 0.77121 0.402844 0.810338 0.10932
H_ H_ 0.708732 0.426081 0.815652 0.10932
H_ H_ 0.954114 0.425821 0.81773 0.10932
H_ H_ 0.683475 0.345137 0.687155 0.10932
H_ H_ 0.935355 0.357871 0.680657 0.10932
H_ H_ 0.675792 0.35943 0.820126 0.10932
H_ H_ 0.922456 0.363369 0.816651 0.10932
H_ H_ 0.719463 0.404883 0.684342 0.10932
H_ H_ 0.963119 0.421753 0.684471 0.10932
H_ H_ 0.719574 0.0903706 0.822997 0.10932
H_ H_ 0.954562 0.0749854 0.81647 0.10932
H_ H_ 0.674921 0.135509 0.688292 0.10932
H_ H_ 0.940531 0.152765 0.684372 0.10932
H_ H_ 0.693363 0.159913 0.819692 0.10932
H_ H_ 0.932081 0.140945 0.820068 0.10932
H_ H_ 0.71046 0.0790334 0.68621 0.10932
H_ H_ 0.96693 0.0874033 0.682056 0.10932
H_ H_ 0.548592 0.0669789 0.687461 0.10932
H_ H_ 0.777694 0.082902 0.68483 0.10932
H_ H_ 0.558693 0.147476 0.820784 0.10932
H_ H_ 0.811802 0.152059 0.817082 0.10932
H_ H_ 0.56708 0.13765 0.688311 0.10932
H_ H_ 0.802495 0.154079 0.683486 0.10932
H_ H_ 0.525505 0.0832169 0.817551 0.10932
H_ H_ 0.78294 0.0842179 0.818242 0.10932
H_ H_ 0.61495 0.308346 0.860432 0.10932
H_ H_ 0.868545 0.183972 0.86808 0.10932
H_ H_ 0.625608 0.177886 0.863536 0.10932
H_ H_ 0.879803 0.314095 0.860172 0.10932
H_ H_ 0.622759 0.178058 0.940782 0.10932
H_ H_ 0.890495 0.318227 0.934652 0.10932
H_ H_ 0.624687 0.309583 0.9389 0.10932
H_ H_ 0.872662 0.185953 0.941992 0.10932
H_ H_ 0.603934 0.310415 0.637229 0.10932
H_ H_ 0.920053 0.271465 0.640325 0.10932
H_ H_ 0.627937 0.185795 0.645221 0.10932
H_ H_ 0.827169 0.240834 0.641457 0.10932
H_ H_ 0.631394 0.183381 0.565968 0.10932
H_ H_ 0.823293 0.249069 0.562787 0.10932
H_ H_ 0.613735 0.315415 0.562208 0.10932
H_ H_ 0.916024 0.278688 0.563331 0.10932
C_ C_ 0.564907 0.34482 0.756771 -0.02249
C_ C_ 0.819005 0.348982 0.749157 -0.02249
C_ C_ 0.514956 0.461569 0.749482 -0.02249
C_ C_ 0.765931 0.458178 0.750451 -0.02249
C_ C_ 0.535274 0.397829 0.715903 -0.11473
C_ C_ 0.79575 0.407142 0.710292 -0.11473
C_ C_ 0.563159 0.370485 0.79185 -0.11473
C_ C_ 0.806598 0.365167 0.78648 -0.11473
C_ C_ 0.551631 0.360892 0.718197 -0.11473
C_ C_ 0.812281 0.368117 0.710785 -0.11473
C_ C_ 0.532739 0.42177 0.751379 -0.02249
C_ C_ 0.782645 0.41969 0.747201 -0.02249
C_ C_ 0.583841 0.306418 0.756309 0.6875
C_ C_ 0.836698 0.309063 0.750638 0.6875
C_ C_ 0.545889 0.406526 0.789935 -0.11473
C_ C_ 0.782962 0.39322 0.782565 -0.11473
C_ C_ 0.680862 0.346281 0.754445 -0.02249
C_ C_ 0.929798 0.354201 0.75057 -0.02249
C_ C_ 0.734203 0.458882 0.748837 -0.02249
C_ C_ 0.982258 0.463676 0.750564 -0.02249
C_ C_ 0.705267 0.405333 0.788087 -0.11473
C_ C_ 0.953554 0.407761 0.789883 -0.11473
C_ C_ 0.692715 0.3602 0.715099 -0.11473
C_ C_ 0.938951 0.371611 0.712979 -0.11473
C_ C_ 0.687082 0.369523 0.791431 -0.11473
C_ C_ 0.935762 0.373202 0.789051 -0.11473
C_ C_ 0.715703 0.419389 0.749878 -0.02249
C_ C_ 0.96438 0.425376 0.752733 -0.02249
C_ C_ 0.660438 0.309434 0.755295 0.6875
C_ C_ 0.911535 0.314151 0.750612 0.6875
C_ C_ 0.709508 0.396357 0.713547 -0.11473
C_ C_ 0.95602 0.408741 0.713842 -0.11473
C_ C_ 0.683282 0.154513 0.751872 -0.02249
C_ C_ 0.930687 0.150702 0.752 -0.02249
C_ C_ 0.732367 0.0384612 0.758312 -0.02249
C_ C_ 0.98309 0.0373323 0.749086 -0.02249
C_ C_ 0.711583 0.102234 0.793521 -0.11473
C_ C_ 0.953147 0.0932964 0.78829 -0.11473
C_ C_ 0.685676 0.128198 0.716922 -0.11473
C_ C_ 0.942913 0.134502 0.714031 -0.11473
C_ C_ 0.696932 0.141888 0.792237 -0.11473
C_ C_ 0.938986 0.130353 0.78991 -0.11473
C_ C_ 0.716003 0.0786831 0.756818 -0.02249
C_ C_ 0.967003 0.0780967 0.750276 -0.02249
C_ C_ 0.663289 0.191971 0.750025 0.6875
C_ C_ 0.911695 0.189049 0.751343 0.6875
C_ C_ 0.704171 0.0932227 0.717195 -0.11473
C_ C_ 0.959952 0.0972846 0.711881 -0.11473
C_ C_ 0.564559 0.147606 0.75373 -0.02249
C_ C_ 0.814179 0.154819 0.747856 -0.02249
C_ C_ 0.51507 0.0333489 0.754518 -0.02249
C_ C_ 0.764071 0.036715 0.753539 -0.02249
C_ C_ 0.54607 0.0859527 0.715583 -0.11473
C_ C_ 0.787144 0.0975657 0.713418 -0.11473
C_ C_ 0.553105 0.132475 0.791706 -0.11473
C_ C_ 0.805638 0.137637 0.786717 -0.11473
C_ C_ 0.558888 0.125432 0.716892 -0.11473
C_ C_ 0.80127 0.13646 0.711029 -0.11473
C_ C_ 0.534726 0.069588 0.754832 -0.02249
C_ C_ 0.782452 0.0776057 0.752822 -0.02249
C_ C_ 0.582184 0.18794 0.754122 0.6875
C_ C_ 0.833523 0.194772 0.747099 0.6875
C_ C_ 0.539764 0.0920306 0.791973 -0.11473
C_ C_ 0.788444 0.0999842 0.789208 -0.11473
C_ C_ 0.616949 0.278961 0.880466 0.17695
C_ C_ 0.872277 0.213745 0.881947 0.17695
C_ C_ 0.623375 0.207424 0.881271 0.17695
C_ C_ 0.878074 0.286217 0.87826 0.17695
C_ C_ 0.621592 0.206738 0.924486 -0.11473
C_ C_ 0.88507 0.287527 0.921939 -0.11473
C_ C_ 0.620809 0.244013 0.94766 0.23465
C_ C_ 0.882142 0.251657 0.946636 0.23465
C_ C_ 0.62004 0.281213 0.924003 -0.11473
C_ C_ 0.874607 0.215383 0.926682 -0.11473
C_ C_ 0.61538 0.285509 0.624332 0.17695
C_ C_ 0.897953 0.268365 0.624061 0.17695
C_ C_ 0.628967 0.215037 0.626597 0.17695
C_ C_ 0.847674 0.245677 0.624356 0.17695
C_ C_ 0.628296 0.213027 0.581929 -0.11473
C_ C_ 0.844537 0.248844 0.581101 -0.11473
C_ C_ 0.624396 0.248325 0.559226 0.23465
C_ C_ 0.870997 0.25375 0.558384 0.23465
C_ C_ 0.620227 0.287367 0.58029 -0.11473
C_ C_ 0.897026 0.267778 0.580695 -0.11473
C_ C_ 0.529525 0.500665 0.744954 0.05793
C_ C_ 0.781832 0.496598 0.753909 0.05793
C_ C_ 0.71457 0.0017000000000000348 0.756296 0.05793
C_ C_ 0.966364 0.0016599999999999948 0.753455 0.05793
Br Br 0.570945 0.503715 0.738394 -0.17191
Br Br 0.8244 0.495845 0.75815 -0.17191
Br Br 0.673051 0.0045454 0.761605 -0.17191
Br Br 0.924972 0.0050667 0.764647 -0.17191
N_ N_ 0.622562 0.244287 0.860167 -0.272
N_ N_ 0.872305 0.250155 0.859203 -0.272
N_ N_ 0.615985 0.243334 0.991672 -0.12501
N_ N_ 0.885368 0.259396 0.990885 -0.12501
N_ N_ 0.622422 0.250439 0.647162 -0.272
N_ N_ 0.87371 0.253496 0.645673 -0.272
N_ N_ 0.619579 0.244135 0.515788 -0.12501
N_ N_ 0.869491 0.257799 0.513651 -0.12501
O_ O_ 0.592608 0.291783 0.721753 -0.60745
O_ O_ 0.842216 0.292875 0.716614 -0.60745
O_ O_ 0.590488 0.288149 0.790781 -0.60745
O_ O_ 0.8464 0.294708 0.786319 -0.60745
O_ O_ 0.652339 0.2929 0.790279 -0.60745
O_ O_ 0.905877 0.296304 0.784627 -0.60745
O_ O_ 0.653476 0.293601 0.72157 -0.60745
O_ O_ 0.903292 0.298069 0.716684 -0.60745
O_ O_ 0.657001 0.207582 0.784832 -0.60745
O_ O_ 0.906021 0.204911 0.786662 -0.60745
O_ O_ 0.648043 0.202168 0.717699 -0.60745
O_ O_ 0.904548 0.208869 0.718898 -0.60745
O_ O_ 0.590453 0.204601 0.720582 -0.60745
O_ O_ 0.841566 0.208251 0.710852 -0.60745
O_ O_ 0.592479 0.201827 0.788382 -0.60745
O_ O_ 0.845791 0.208493 0.780834 -0.60745
Zn Zn 0.624553 0.748233 0.283177 0.9476
Zn Zn 0.879445 0.752201 0.292806 0.9476
Zn Zn 0.624559 0.7466 0.213065 0.9476
Zn Zn 0.876353 0.752796 0.221958 0.9476
H_ H_ 0.537323 0.922725 0.185464 0.10932
H_ H_ 0.779874 0.902882 0.184214 0.10932
H_ H_ 0.557404 0.84224 0.315627 0.10932
H_ H_ 0.825463 0.867765 0.317253 0.10932
H_ H_ 0.564361 0.855556 0.183528 0.10932
H_ H_ 0.810263 0.844876 0.185982 0.10932
H_ H_ 0.530693 0.908678 0.319507 0.10932
H_ H_ 0.787065 0.924341 0.313577 0.10932
H_ H_ 0.726739 0.904396 0.310473 0.10932
H_ H_ 0.973613 0.918703 0.322209 0.10932
H_ H_ 0.671035 0.860457 0.182512 0.10932
H_ H_ 0.947653 0.847645 0.189151 0.10932
H_ H_ 0.698925 0.840847 0.312029 0.10932
H_ H_ 0.946624 0.847576 0.324177 0.10932
H_ H_ 0.699173 0.926133 0.182803 0.10932
H_ H_ 0.965238 0.918237 0.187364 0.10932
H_ H_ 0.724692 0.589426 0.322364 0.10932
H_ H_ 0.965809 0.5819 0.327747 0.10932
H_ H_ 0.677844 0.635144 0.18914 0.10932
H_ H_ 0.938793 0.655241 0.193968 0.10932
H_ H_ 0.699419 0.657612 0.31666 0.10932
H_ H_ 0.936494 0.646533 0.327216 0.10932
H_ H_ 0.7079 0.566611 0.191498 0.10932
H_ H_ 0.967091 0.590504 0.18853 0.10932
H_ H_ 0.519253 0.593309 0.186828 0.10932
H_ H_ 0.789229 0.583648 0.191995 0.10932
H_ H_ 0.574588 0.637403 0.316917 0.10932
H_ H_ 0.811316 0.652955 0.329065 0.10932
H_ H_ 0.551263 0.657341 0.184494 0.10932
H_ H_ 0.817903 0.64923 0.193148 0.10932
H_ H_ 0.544942 0.571993 0.31501 0.10932
H_ H_ 0.789187 0.582263 0.324848 0.10932
H_ H_ 0.614661 0.688155 0.366733 0.10932
H_ H_ 0.876737 0.817736 0.361037 0.10932
H_ H_ 0.631555 0.816376 0.353571 0.10932
H_ H_ 0.894822 0.691976 0.372755 0.10932
H_ H_ 0.635402 0.824668 0.429938 0.10932
H_ H_ 0.890048 0.691978 0.449232 0.10932
H_ H_ 0.618299 0.691732 0.442285 0.10932
H_ H_ 0.874385 0.825697 0.438218 0.10932
H_ H_ 0.614235 0.685018 0.14608 0.10932
H_ H_ 0.896643 0.691319 0.144354 0.10932
H_ H_ 0.623849 0.813122 0.132789 0.10932
H_ H_ 0.847478 0.799463 0.146836 0.10932
H_ H_ 0.624961 0.809865 0.0575751 0.10932
H_ H_ 0.852128 0.805125 0.0674287 0.10932
H_ H_ 0.615701 0.674983 0.0683147 0.10932
H_ H_ 0.907141 0.699245 0.0671231 0.10932
C_ C_ 0.564643 0.845052 0.248094 -0.02249
C_ C_ 0.818964 0.848288 0.253682 -0.02249
C_ C_ 0.517122 0.961164 0.254194 -0.02249
C_ C_ 0.765137 0.95825 0.243863 -0.02249
C_ C_ 0.542437 0.90477 0.213612 -0.11473
C_ C_ 0.787897 0.893784 0.213847 -0.11473
C_ C_ 0.55109 0.8572 0.285284 -0.11473
C_ C_ 0.812778 0.872092 0.289702 -0.11473
C_ C_ 0.557125 0.866809 0.211368 -0.11473
C_ C_ 0.804484 0.859197 0.215493 -0.11473
C_ C_ 0.531741 0.920003 0.251488 -0.02249
C_ C_ 0.779756 0.916811 0.249611 -0.02249
C_ C_ 0.586361 0.807952 0.247668 0.6875
C_ C_ 0.83754 0.81075 0.25718 0.6875
C_ C_ 0.53813 0.896826 0.288417 -0.11473
C_ C_ 0.791862 0.904477 0.288362 -0.11473
C_ C_ 0.682171 0.847199 0.246218 -0.02249
C_ C_ 0.940195 0.847184 0.256411 -0.02249
C_ C_ 0.733273 0.961004 0.244508 -0.02249
C_ C_ 0.986645 0.962719 0.250798 -0.02249
C_ C_ 0.71297 0.896371 0.283901 -0.11473
C_ C_ 0.966916 0.904202 0.293207 -0.11473
C_ C_ 0.685551 0.869512 0.208783 -0.11473
C_ C_ 0.951032 0.863657 0.218528 -0.11473
C_ C_ 0.696594 0.861218 0.284142 -0.11473
C_ C_ 0.952098 0.864199 0.294373 -0.11473
C_ C_ 0.715523 0.921099 0.246511 -0.02249
C_ C_ 0.971254 0.922556 0.254475 -0.02249
C_ C_ 0.663544 0.80762 0.245758 0.6875
C_ C_ 0.917882 0.811359 0.257762 0.6875
C_ C_ 0.703964 0.905751 0.208877 -0.11473
C_ C_ 0.964115 0.903144 0.217963 -0.11473
C_ C_ 0.687303 0.650395 0.253591 -0.02249
C_ C_ 0.935613 0.65487 0.260163 -0.02249
C_ C_ 0.738051 0.538714 0.261856 -0.02249
C_ C_ 0.984045 0.541567 0.255029 -0.02249
C_ C_ 0.721385 0.602571 0.291383 -0.11473
C_ C_ 0.958758 0.596078 0.296562 -0.11473
C_ C_ 0.688733 0.623277 0.217064 -0.11473
C_ C_ 0.946393 0.640445 0.222805 -0.11473
C_ C_ 0.705596 0.639953 0.289426 -0.11473
C_ C_ 0.942222 0.633322 0.298108 -0.11473
C_ C_ 0.719825 0.576804 0.257322 -0.02249
C_ C_ 0.969562 0.581453 0.256648 -0.02249
C_ C_ 0.664744 0.685937 0.253294 0.6875
C_ C_ 0.914558 0.6907 0.261437 0.6875
C_ C_ 0.707499 0.587205 0.218611 -0.11473
C_ C_ 0.96084 0.600977 0.218807 -0.11473
C_ C_ 0.563645 0.653835 0.251261 -0.02249
C_ C_ 0.817738 0.654703 0.260536 -0.02249
C_ C_ 0.514167 0.539815 0.25036 -0.02249
C_ C_ 0.769498 0.538335 0.259064 -0.02249
C_ C_ 0.534014 0.601176 0.213397 -0.11473
C_ C_ 0.795946 0.596609 0.22113 -0.11473
C_ C_ 0.563372 0.627598 0.287458 -0.11473
C_ C_ 0.808067 0.635582 0.298397 -0.11473
C_ C_ 0.549506 0.638403 0.214281 -0.11473
C_ C_ 0.811877 0.634524 0.221917 -0.11473
C_ C_ 0.530721 0.578947 0.25068 -0.02249
C_ C_ 0.785736 0.578877 0.258251 -0.02249
C_ C_ 0.582187 0.691302 0.25196 0.6875
C_ C_ 0.837639 0.694016 0.260627 0.6875
C_ C_ 0.544504 0.592447 0.287877 -0.11473
C_ C_ 0.79229 0.598449 0.29613 -0.11473
C_ C_ 0.621681 0.716845 0.380648 0.17695
C_ C_ 0.875978 0.79034 0.381136 0.17695
C_ C_ 0.627454 0.788458 0.374031 0.17695
C_ C_ 0.885687 0.718737 0.386794 0.17695
C_ C_ 0.631561 0.793274 0.417805 -0.11473
C_ C_ 0.885832 0.721508 0.432323 -0.11473
C_ C_ 0.624701 0.758362 0.444427 0.23465
C_ C_ 0.880263 0.759269 0.451265 0.23465
C_ C_ 0.621308 0.719342 0.424837 -0.11473
C_ C_ 0.876337 0.794409 0.42503 -0.11473
C_ C_ 0.615514 0.711832 0.125432 0.17695
C_ C_ 0.889482 0.717326 0.128624 0.17695
C_ C_ 0.622009 0.784245 0.118609 0.17695
C_ C_ 0.860631 0.776765 0.130313 0.17695
C_ C_ 0.620652 0.781348 0.0748988 -0.11473
C_ C_ 0.862553 0.781487 0.0850137 -0.11473
C_ C_ 0.617995 0.741882 0.0561216 0.23465
C_ C_ 0.879903 0.755268 0.0630284 0.23465
C_ C_ 0.614465 0.707051 0.0814593 -0.11473
C_ C_ 0.892416 0.722242 0.0838219 -0.11473
C_ C_ 0.533097 0.999366 0.25156 0.05793
C_ C_ 0.782501 0.995095 0.242758 0.05793
C_ C_ 0.724646 0.49941 0.267731 0.05793
C_ C_ 0.967413 0.503971 0.252842 0.05793
Br Br 0.575864 0.99873 0.245558 -0.17191
Br Br 0.823252 0.991213 0.231965 -0.17191
Br Br 0.682544 0.501586 0.280182 -0.17191
Br Br 0.926947 0.50483 0.231732 -0.17191
N_ N_ 0.622437 0.750473 0.356348 -0.272
N_ N_ 0.88026 0.752318 0.362372 -0.272
N_ N_ 0.618397 0.765173 0.487493 -0.12501
N_ N_ 0.879779 0.764805 0.49654 -0.12501
N_ N_ 0.619919 0.749345 0.143134 -0.272
N_ N_ 0.876487 0.748005 0.15168 -0.272
N_ N_ 0.623338 0.734438 0.0124149 -0.12501
N_ N_ 0.882691 0.759902 0.018468 -0.12501
O_ O_ 0.594224 0.793153 0.212868 -0.60745
O_ O_ 0.846965 0.795961 0.223459 -0.60745
O_ O_ 0.591955 0.787917 0.280858 -0.60745
O_ O_ 0.847316 0.798331 0.291896 -0.60745
O_ O_ 0.655371 0.79269 0.281756 -0.60745
O_ O_ 0.909175 0.797114 0.292334 -0.60745
O_ O_ 0.655886 0.789615 0.212482 -0.60745
O_ O_ 0.909466 0.79484 0.223271 -0.60745
O_ O_ 0.657447 0.703696 0.28677 -0.60745
O_ O_ 0.911512 0.709022 0.295976 -0.60745
O_ O_ 0.654053 0.697199 0.219064 -0.60745
O_ O_ 0.906444 0.708118 0.227263 -0.60745
O_ O_ 0.590592 0.705603 0.217265 -0.60745
O_ O_ 0.843972 0.710054 0.22568 -0.60745
O_ O_ 0.593503 0.703664 0.285926 -0.60745
O_ O_ 0.846094 0.709857 0.293702 -0.60745
Zn Zn 0.6208 0.748138 0.784402 0.9476
Zn Zn 0.86952 0.747944 0.791868 0.9476
Zn Zn 0.624077 0.748496 0.716619 0.9476
Zn Zn 0.873173 0.750617 0.723896 0.9476
H_ H_ 0.541706 0.927763 0.685987 0.10932
H_ H_ 0.775933 0.910276 0.689228 0.10932
H_ H_ 0.539199 0.827807 0.80484 0.10932
H_ H_ 0.800571 0.844364 0.823652 0.10932
H_ H_ 0.574786 0.864734 0.686203 0.10932
H_ H_ 0.811856 0.854352 0.690403 0.10932
H_ H_ 0.518844 0.895595 0.816264 0.10932
H_ H_ 0.777741 0.915469 0.82209 0.10932
H_ H_ 0.71604 0.916592 0.821349 0.10932
H_ H_ 0.965634 0.915751 0.825445 0.10932
H_ H_ 0.673389 0.861553 0.688651 0.10932
H_ H_ 0.925675 0.854958 0.69067 0.10932
H_ H_ 0.686254 0.854337 0.82498 0.10932
H_ H_ 0.932998 0.858741 0.824428 0.10932
H_ H_ 0.706912 0.91934 0.685113 0.10932
H_ H_ 0.959227 0.915459 0.6882 0.10932
H_ H_ 0.705364 0.574465 0.816107 0.10932
H_ H_ 0.952276 0.572402 0.816762 0.10932
H_ H_ 0.695276 0.654908 0.68355 0.10932
H_ H_ 0.949058 0.663875 0.690255 0.10932
H_ H_ 0.678004 0.638944 0.811829 0.10932
H_ H_ 0.922865 0.639298 0.821697 0.10932
H_ H_ 0.718966 0.584544 0.682879 0.10932
H_ H_ 0.971587 0.597564 0.688609 0.10932
H_ H_ 0.515258 0.60042 0.682838 0.10932
H_ H_ 0.792716 0.574017 0.684873 0.10932
H_ H_ 0.570941 0.635012 0.812472 0.10932
H_ H_ 0.810552 0.647403 0.819384 0.10932
H_ H_ 0.546066 0.662589 0.684538 0.10932
H_ H_ 0.825175 0.631671 0.685443 0.10932
H_ H_ 0.544598 0.570616 0.810035 0.10932
H_ H_ 0.776939 0.582477 0.819139 0.10932
H_ H_ 0.628646 0.688545 0.86286 0.10932
H_ H_ 0.882169 0.679778 0.85864 0.10932
H_ H_ 0.609385 0.81496 0.854757 0.10932
H_ H_ 0.856975 0.806411 0.87201 0.10932
H_ H_ 0.606347 0.817931 0.932567 0.10932
H_ H_ 0.865882 0.799227 0.948319 0.10932
H_ H_ 0.628623 0.690616 0.939984 0.10932
H_ H_ 0.887225 0.671303 0.93518 0.10932
H_ H_ 0.597715 0.689649 0.640377 0.10932
H_ H_ 0.876308 0.810141 0.641903 0.10932
H_ H_ 0.644752 0.803294 0.642 0.10932
H_ H_ 0.871529 0.680785 0.655944 0.10932
H_ H_ 0.644896 0.804172 0.564804 0.10932
H_ H_ 0.870176 0.673247 0.578919 0.10932
H_ H_ 0.593386 0.691626 0.56786 0.10932
H_ H_ 0.892967 0.803876 0.571891 0.10932
C_ C_ 0.560942 0.8419 0.747468 -0.02249
C_ C_ 0.810794 0.842498 0.755441 -0.02249
C_ C_ 0.512716 0.957868 0.751273 -0.02249
C_ C_ 0.762271 0.959858 0.756276 -0.02249
C_ C_ 0.541779 0.90603 0.712365 -0.11473
C_ C_ 0.7853 0.898878 0.718948 -0.11473
C_ C_ 0.542871 0.851548 0.782004 -0.11473
C_ C_ 0.801705 0.861029 0.794932 -0.11473
C_ C_ 0.560142 0.869499 0.712681 -0.11473
C_ C_ 0.805684 0.867396 0.719665 -0.11473
C_ C_ 0.527209 0.916425 0.749766 -0.02249
C_ C_ 0.778155 0.91862 0.756028 -0.02249
C_ C_ 0.580608 0.805243 0.748111 0.6875
C_ C_ 0.827344 0.80404 0.754905 0.6875
C_ C_ 0.527177 0.888588 0.785997 -0.11473
C_ C_ 0.783305 0.898663 0.794223 -0.11473
C_ C_ 0.679838 0.849639 0.755492 -0.02249
C_ C_ 0.928856 0.851385 0.756742 -0.02249
C_ C_ 0.730299 0.962334 0.75469 -0.02249
C_ C_ 0.981818 0.962986 0.755523 -0.02249
C_ C_ 0.710403 0.900399 0.791846 -0.11473
C_ C_ 0.957436 0.904424 0.795214 -0.11473
C_ C_ 0.685024 0.870345 0.71724 -0.11473
C_ C_ 0.934284 0.870326 0.720085 -0.11473
C_ C_ 0.692143 0.866271 0.794363 -0.11473
C_ C_ 0.939497 0.869401 0.794899 -0.11473
C_ C_ 0.714798 0.920493 0.753826 -0.02249
C_ C_ 0.964939 0.924207 0.757207 -0.02249
C_ C_ 0.66238 0.81049 0.754474 0.6875
C_ C_ 0.909488 0.81281 0.757056 0.6875
C_ C_ 0.704469 0.902857 0.716623 -0.11473
C_ C_ 0.951446 0.906453 0.718879 -0.11473
C_ C_ 0.682711 0.648628 0.748797 -0.02249
C_ C_ 0.933753 0.655845 0.75663 -0.02249
C_ C_ 0.733976 0.535799 0.752381 -0.02249
C_ C_ 0.983874 0.54067 0.752404 -0.02249
C_ C_ 0.704907 0.592133 0.786975 -0.11473
C_ C_ 0.951748 0.590886 0.791074 -0.11473
C_ C_ 0.697429 0.636022 0.713021 -0.11473
C_ C_ 0.950903 0.646472 0.720204 -0.11473
C_ C_ 0.68853 0.6287 0.786216 -0.11473
C_ C_ 0.936236 0.629741 0.792377 -0.11473
C_ C_ 0.71774 0.575881 0.750816 -0.02249
C_ C_ 0.969177 0.581362 0.754967 -0.02249
C_ C_ 0.66227 0.687149 0.746388 0.6875
C_ C_ 0.913334 0.692119 0.75679 0.6875
C_ C_ 0.710536 0.596982 0.71164 -0.11473
C_ C_ 0.967241 0.607937 0.719608 -0.11473
C_ C_ 0.561392 0.653472 0.748771 -0.02249
C_ C_ 0.816175 0.646693 0.753143 -0.02249
C_ C_ 0.512165 0.537822 0.742495 -0.02249
C_ C_ 0.765863 0.535243 0.753484 -0.02249
C_ C_ 0.52956 0.605561 0.709897 -0.11473
C_ C_ 0.796695 0.586644 0.715548 -0.11473
C_ C_ 0.558592 0.628464 0.784871 -0.11473
C_ C_ 0.805361 0.630708 0.790937 -0.11473
C_ C_ 0.545387 0.642901 0.712172 -0.11473
C_ C_ 0.815036 0.622081 0.716276 -0.11473
C_ C_ 0.528503 0.577997 0.744878 -0.02249
C_ C_ 0.783242 0.573199 0.752826 -0.02249
C_ C_ 0.580833 0.691271 0.751177 0.6875
C_ C_ 0.834606 0.686466 0.753687 0.6875
C_ C_ 0.5436 0.591628 0.781817 -0.11473
C_ C_ 0.78764 0.593807 0.791079 -0.11473
C_ C_ 0.623848 0.716489 0.878007 0.17695
C_ C_ 0.877715 0.705955 0.879578 0.17695
C_ C_ 0.618146 0.789213 0.873534 0.17695
C_ C_ 0.864485 0.775825 0.886042 0.17695
C_ C_ 0.615329 0.791134 0.918125 -0.11473
C_ C_ 0.869105 0.772586 0.93012 -0.11473
C_ C_ 0.620312 0.756668 0.941619 0.23465
C_ C_ 0.875792 0.734912 0.948145 0.23465
C_ C_ 0.623092 0.718048 0.921164 -0.11473
C_ C_ 0.883102 0.702338 0.921623 -0.11473
C_ C_ 0.610596 0.714142 0.625118 0.17695
C_ C_ 0.881842 0.779615 0.631105 0.17695
C_ C_ 0.636014 0.777598 0.624555 0.17695
C_ C_ 0.869467 0.708434 0.635044 0.17695
C_ C_ 0.63518 0.778872 0.580807 -0.11473
C_ C_ 0.872499 0.704942 0.591854 -0.11473
C_ C_ 0.621654 0.746233 0.558275 0.23465
C_ C_ 0.882434 0.737092 0.567175 0.23465
C_ C_ 0.605664 0.71629 0.582203 -0.11473
C_ C_ 0.888187 0.775304 0.587939 -0.11473
C_ C_ 0.530123 -0.006508999999999987 0.755184 0.05793
C_ C_ 0.778884 -0.00276299999999996 0.753966 0.05793
C_ C_ 0.718517 0.4979 0.749986 0.05793
C_ C_ 0.966851 0.502483 0.751369 0.05793
Br Br 0.573686 -0.010102000000000055 0.760861 -0.17191
Br Br 0.823144 0.995258 0.747381 -0.17191
Br Br 0.674928 0.495826 0.745854 -0.17191
Br Br 0.92375 0.509378 0.743373 -0.17191
N_ N_ 0.621371 0.751355 0.854241 -0.272
N_ N_ 0.869382 0.742888 0.861979 -0.272
N_ N_ 0.614034 0.759727 0.985319 -0.12501
N_ N_ 0.877741 0.730528 0.993252 -0.12501
N_ N_ 0.624326 0.745147 0.64478 -0.272
N_ N_ 0.871064 0.747492 0.654657 -0.272
N_ N_ 0.627144 0.738452 0.514201 -0.12501
N_ N_ 0.878588 0.734657 0.522031 -0.12501
O_ O_ 0.59395 0.795279 0.714415 -0.60745
O_ O_ 0.839483 0.792486 0.720256 -0.60745
O_ O_ 0.588034 0.788686 0.78219 -0.60745
O_ O_ 0.834481 0.787363 0.789678 -0.60745
O_ O_ 0.650727 0.796465 0.786791 -0.60745
O_ O_ 0.897127 0.798677 0.790074 -0.60745
O_ O_ 0.655147 0.794773 0.719052 -0.60745
O_ O_ 0.901711 0.796304 0.722285 -0.60745
O_ O_ 0.653262 0.702215 0.78057 -0.60745
O_ O_ 0.902757 0.70724 0.790455 -0.60745
O_ O_ 0.654176 0.704659 0.71254 -0.60745
O_ O_ 0.90701 0.71011 0.723266 -0.60745
O_ O_ 0.593171 0.703264 0.717969 -0.60745
O_ O_ 0.845903 0.700665 0.721627 -0.60745
O_ O_ 0.593004 0.702963 0.786056 -0.60745
O_ O_ 0.843387 0.699658 0.788691 -0.60745
_cell_length_a 44.444
_cell_length_b 32.3360000049186
_cell_length_c 31.843999878906452
_cell_angle_alpha 89.99799923859553
_cell_angle_beta 91.13600050494348
_cell_angle_gamma 89.9990006550086
_symmetry_space_group_name_H-M         'P 1'
_symmetry_Int_Tables_number            1
loop_
_symmetry_equiv_pos_as_xyz
   'x, y, z'
                         
loop_
_atom_site_label
_atom_site_type_symbol
_atom_site_fract_x 
_atom_site_fract_y
_atom_site_fract_z
_atom_site_charge
Zn Zn 0.127668 0.253525 0.281753 0.9476
Zn Zn 0.377007 0.250722 0.283038 0.9476
Zn Zn 0.123933 0.249351 0.210806 0.9476
Zn Zn 0.378891 0.245078 0.212695 0.9476
H_ H_ 0.0372727 0.428494 0.194167 0.10932
H_ H_ 0.277404 0.405497 0.171593 0.10932
H_ H_ 0.0648288 0.351987 0.319003 0.10932
H_ H_ 0.33785 0.370147 0.300801 0.10932
H_ H_ 0.067671 0.366021 0.185424 0.10932
H_ H_ 0.305178 0.340228 0.176808 0.10932
H_ H_ 0.0309186 0.408096 0.322879 0.10932
H_ H_ 0.304691 0.433824 0.297818 0.10932
H_ H_ 0.225841 0.412095 0.30667 0.10932
H_ H_ 0.467275 0.41507 0.317826 0.10932
H_ H_ 0.191285 0.347326 0.175261 0.10932
H_ H_ 0.45161 0.343327 0.182336 0.10932
H_ H_ 0.19133 0.350036 0.309758 0.10932
H_ H_ 0.44375 0.351781 0.31541 0.10932
H_ H_ 0.214505 0.415686 0.171239 0.10932
H_ H_ 0.474381 0.412916 0.182034 0.10932
H_ H_ 0.220887 0.0892213 0.312266 0.10932
H_ H_ 0.485675 0.0999973 0.317784 0.10932
H_ H_ 0.1755 0.139628 0.17868 0.10932
H_ H_ 0.419246 0.121535 0.19349 0.10932
H_ H_ 0.197377 0.1582 0.314016 0.10932
H_ H_ 0.458206 0.168162 0.311406 0.10932
H_ H_ 0.204263 0.0763101 0.177403 0.10932
H_ H_ 0.446978 0.0619284 0.200242 0.10932
H_ H_ 0.0368263 0.0855034 0.174707 0.10932
H_ H_ 0.287209 0.0829546 0.175876 0.10932
H_ H_ 0.0676656 0.1459 0.310886 0.10932
H_ H_ 0.312553 0.146056 0.310786 0.10932
H_ H_ 0.0672996 0.147496 0.175823 0.10932
H_ H_ 0.31554 0.146555 0.175226 0.10932
H_ H_ 0.0424914 0.0763156 0.3099 0.10932
H_ H_ 0.281361 0.0869384 0.309285 0.10932
H_ H_ 0.130365 0.194952 0.360802 0.10932
H_ H_ 0.344376 0.198446 0.353441 0.10932
H_ H_ 0.128012 0.3244 0.35294 0.10932
H_ H_ 0.406864 0.299364 0.365587 0.10932
H_ H_ 0.121221 0.328315 0.431078 0.10932
H_ H_ 0.408662 0.287079 0.439874 0.10932
H_ H_ 0.126747 0.195129 0.436889 0.10932
H_ H_ 0.34393 0.186243 0.429335 0.10932
H_ H_ 0.124369 0.320067 0.137357 0.10932
H_ H_ 0.373427 0.181371 0.134496 0.10932
H_ H_ 0.1076 0.192916 0.134635 0.10932
H_ H_ 0.384194 0.310893 0.145283 0.10932
H_ H_ 0.104392 0.193427 0.0557473 0.10932
H_ H_ 0.379503 0.32106 0.0684183 0.10932
H_ H_ 0.122148 0.320714 0.0589282 0.10932
H_ H_ 0.374315 0.186736 0.0560878 0.10932
C_ C_ 0.0674393 0.350294 0.25248 -0.02249
C_ C_ 0.322395 0.349937 0.239902 -0.02249
C_ C_ 0.0142147 0.463754 0.262826 -0.02249
C_ C_ 0.267835 0.461286 0.234854 -0.02249
C_ C_ 0.0403463 0.409109 0.219789 -0.11473
C_ C_ 0.287342 0.395355 0.200486 -0.11473
C_ C_ 0.0556115 0.36411 0.290342 -0.11473
C_ C_ 0.323028 0.377869 0.272559 -0.11473
C_ C_ 0.0590686 0.37369 0.215446 -0.11473
C_ C_ 0.303912 0.359088 0.204136 -0.11473
C_ C_ 0.030156 0.422674 0.258801 -0.02249
C_ C_ 0.28539 0.421286 0.236471 -0.02249
C_ C_ 0.0866872 0.312404 0.24777 0.6875
C_ C_ 0.340844 0.312163 0.242454 0.6875
C_ C_ 0.035476 0.396957 0.292343 -0.11473
C_ C_ 0.304194 0.412754 0.27159 -0.11473
C_ C_ 0.185353 0.346359 0.242289 -0.02249
C_ C_ 0.441145 0.342372 0.249107 -0.02249
C_ C_ 0.236707 0.460658 0.236126 -0.02249
C_ C_ 0.484919 0.462015 0.252248 -0.02249
C_ C_ 0.215798 0.399853 0.277539 -0.11473
C_ C_ 0.459186 0.403713 0.287092 -0.11473
C_ C_ 0.192574 0.365992 0.203795 -0.11473
C_ C_ 0.450755 0.360722 0.211052 -0.11473
C_ C_ 0.197321 0.365023 0.279312 -0.11473
C_ C_ 0.448106 0.363157 0.286895 -0.11473
C_ C_ 0.22007 0.420388 0.239622 -0.02249
C_ C_ 0.469094 0.421421 0.249761 -0.02249
C_ C_ 0.166351 0.308946 0.245583 0.6875
C_ C_ 0.419773 0.304381 0.249861 0.6875
C_ C_ 0.210026 0.401953 0.202031 -0.11473
C_ C_ 0.466188 0.399879 0.211931 -0.11473
C_ C_ 0.186462 0.156137 0.244436 -0.02249
C_ C_ 0.433744 0.151494 0.25276 -0.02249
C_ C_ 0.233688 0.0407011 0.248553 -0.02249
C_ C_ 0.486366 0.0391781 0.260304 -0.02249
C_ C_ 0.215045 0.104622 0.282695 -0.11473
C_ C_ 0.472007 0.107576 0.290009 -0.11473
C_ C_ 0.186959 0.130117 0.207015 -0.11473
C_ C_ 0.433147 0.121256 0.220437 -0.11473
C_ C_ 0.20039 0.143754 0.283179 -0.11473
C_ C_ 0.453701 0.144078 0.288288 -0.11473
C_ C_ 0.217279 0.0803983 0.245594 -0.02249
C_ C_ 0.469031 0.078329 0.257456 -0.02249
C_ C_ 0.167073 0.194435 0.243327 0.6875
C_ C_ 0.414784 0.189188 0.249347 0.6875
C_ C_ 0.201732 0.092761 0.208335 -0.11473
C_ C_ 0.449877 0.0855666 0.223054 -0.11473
C_ C_ 0.0715869 0.151052 0.245746 -0.02249
C_ C_ 0.316855 0.152776 0.243103 -0.02249
C_ C_ 0.0207543 0.0351529 0.247627 -0.02249
C_ C_ 0.264093 0.0395303 0.242791 -0.02249
C_ C_ 0.0436628 0.0981286 0.205885 -0.11473
C_ C_ 0.294489 0.0945847 0.205837 -0.11473
C_ C_ 0.0615815 0.132583 0.281967 -0.11473
C_ C_ 0.30401 0.136643 0.280291 -0.11473
C_ C_ 0.0618708 0.132859 0.206433 -0.11473
C_ C_ 0.309179 0.1327 0.205772 -0.11473
C_ C_ 0.0388848 0.0746957 0.244336 -0.02249
C_ C_ 0.281978 0.0789941 0.244476 -0.02249
C_ C_ 0.0874222 0.192504 0.245281 0.6875
C_ C_ 0.334379 0.194129 0.244713 0.6875
C_ C_ 0.0479394 0.0922011 0.281397 -0.11473
C_ C_ 0.288984 0.0992274 0.28089 -0.11473
C_ C_ 0.130889 0.223589 0.376393 0.17695
C_ C_ 0.360765 0.215481 0.371981 0.17695
C_ C_ 0.127081 0.295996 0.370573 0.17695
C_ C_ 0.394362 0.273044 0.378979 0.17695
C_ C_ 0.124962 0.298648 0.416503 -0.11473
C_ C_ 0.394422 0.267294 0.422561 -0.11473
C_ C_ 0.126325 0.263359 0.441861 0.23465
C_ C_ 0.375817 0.237506 0.442366 0.23465
C_ C_ 0.128047 0.22512 0.420869 -0.11473
C_ C_ 0.360838 0.209468 0.416113 -0.11473
C_ C_ 0.124411 0.291994 0.119402 0.17695
C_ C_ 0.378976 0.211472 0.11831 0.17695
C_ C_ 0.114148 0.220344 0.118071 0.17695
C_ C_ 0.37827 0.285378 0.12428 0.17695
C_ C_ 0.113429 0.221829 0.0737696 -0.11473
C_ C_ 0.37828 0.288954 0.0804379 -0.11473
C_ C_ 0.119619 0.256704 0.0529567 0.23465
C_ C_ 0.380267 0.254474 0.0540404 0.23465
C_ C_ 0.125237 0.292636 0.075094 -0.11473
C_ C_ 0.379261 0.214284 0.0739003 -0.11473
C_ C_ 0.0310312 0.500217 0.259517 0.05793
C_ C_ 0.282378 0.500559 0.232902 0.05793
C_ C_ 0.217982 0.00213423 0.250624 0.05793
C_ C_ 0.469864 1.00204 0.255489 0.05793
Br Br 0.0754774 0.498461 0.256975 -0.17191
Br Br 0.32536 0.501 0.236872 -0.17191
Br Br 0.176279 0.00243497 0.255219 -0.17191
Br Br 0.42561 0.997982 0.264682 -0.17191
N_ N_ 0.129654 0.25817 0.351501 -0.272
N_ N_ 0.377228 0.247949 0.355618 -0.272
N_ N_ 0.125558 0.267626 0.485815 -0.12501
N_ N_ 0.375105 0.233591 0.486989 -0.12501
N_ N_ 0.123392 0.255701 0.140222 -0.272
N_ N_ 0.376752 0.246016 0.141584 -0.272
N_ N_ 0.110459 0.259406 0.0101207 -0.12501
N_ N_ 0.376368 0.259847 0.0100524 -0.12501
O_ O_ 0.0946231 0.297652 0.212397 -0.60745
O_ O_ 0.348298 0.291825 0.210304 -0.60745
O_ O_ 0.0928532 0.290879 0.280264 -0.60745
O_ O_ 0.345968 0.297294 0.278875 -0.60745
O_ O_ 0.153167 0.302006 0.280507 -0.60745
O_ O_ 0.409482 0.291557 0.283683 -0.60745
O_ O_ 0.157442 0.291093 0.212156 -0.60745
O_ O_ 0.411427 0.286536 0.215398 -0.60745
O_ O_ 0.161484 0.214216 0.276751 -0.60745
O_ O_ 0.403557 0.204065 0.281987 -0.60745
O_ O_ 0.154614 0.20665 0.208845 -0.60745
O_ O_ 0.408563 0.203975 0.213598 -0.60745
O_ O_ 0.0919319 0.209539 0.210422 -0.60745
O_ O_ 0.347814 0.20371 0.212466 -0.60745
O_ O_ 0.101986 0.203614 0.277536 -0.60745
O_ O_ 0.342241 0.210126 0.279966 -0.60745
Zn Zn 0.125951 0.251139 0.780048 0.9476
Zn Zn 0.377632 0.250661 0.783231 0.9476
Zn Zn 0.122535 0.252343 0.711124 0.9476
Zn Zn 0.374247 0.246975 0.710735 0.9476
H_ H_ 0.0484514 0.439946 0.689518 0.10932
H_ H_ 0.294589 0.422021 0.682621 0.10932
H_ H_ 0.0536408 0.340235 0.806127 0.10932
H_ H_ 0.309991 0.352511 0.819704 0.10932
H_ H_ 0.0701851 0.362751 0.678676 0.10932
H_ H_ 0.315023 0.350044 0.685089 0.10932
H_ H_ 0.0258164 0.404794 0.814777 0.10932
H_ H_ 0.276097 0.412871 0.81598 0.10932
H_ H_ 0.197551 0.43429 0.804549 0.10932
H_ H_ 0.476323 0.404354 0.809126 0.10932
H_ H_ 0.201254 0.336422 0.685069 0.10932
H_ H_ 0.421907 0.365324 0.681646 0.10932
H_ H_ 0.164859 0.376495 0.806495 0.10932
H_ H_ 0.441026 0.349371 0.813908 0.10932
H_ H_ 0.234878 0.392045 0.689109 0.10932
H_ H_ 0.453591 0.428413 0.678268 0.10932
H_ H_ 0.217248 0.0847395 0.809367 0.10932
H_ H_ 0.457265 0.0745815 0.812224 0.10932
H_ H_ 0.180494 0.14771 0.678595 0.10932
H_ H_ 0.441894 0.146783 0.676474 0.10932
H_ H_ 0.190218 0.154665 0.812211 0.10932
H_ H_ 0.424293 0.139321 0.807065 0.10932
H_ H_ 0.212582 0.0866213 0.679608 0.10932
H_ H_ 0.47571 0.0884657 0.68 0.10932
H_ H_ 0.0328785 0.080214 0.676693 0.10932
H_ H_ 0.299428 0.070043 0.684235 0.10932
H_ H_ 0.0547905 0.155311 0.80759 0.10932
H_ H_ 0.310856 0.156572 0.812396 0.10932
H_ H_ 0.0594704 0.143097 0.673717 0.10932
H_ H_ 0.333314 0.131027 0.686615 0.10932
H_ H_ 0.0280158 0.0881234 0.813751 0.10932
H_ H_ 0.277462 0.0954043 0.816855 0.10932
H_ H_ 0.133089 0.316094 0.853173 0.10932
H_ H_ 0.370215 0.307377 0.856291 0.10932
H_ H_ 0.117465 0.187568 0.858502 0.10932
H_ H_ 0.40285 0.190568 0.850084 0.10932
H_ H_ 0.122061 0.186906 0.933387 0.10932
H_ H_ 0.409591 0.183071 0.926351 0.10932
H_ H_ 0.127315 0.321529 0.931132 0.10932
H_ H_ 0.368825 0.305768 0.936495 0.10932
H_ H_ 0.112994 0.188633 0.644948 0.10932
H_ H_ 0.369527 0.190843 0.633035 0.10932
H_ H_ 0.138458 0.314133 0.634818 0.10932
H_ H_ 0.379794 0.317396 0.646313 0.10932
H_ H_ 0.139122 0.306157 0.557785 0.10932
H_ H_ 0.379648 0.327598 0.569557 0.10932
H_ H_ 0.107936 0.17876 0.5693 0.10932
H_ H_ 0.373548 0.195698 0.557985 0.10932
C_ C_ 0.0649414 0.348791 0.742755 -0.02249
C_ C_ 0.314733 0.345981 0.751709 -0.02249
C_ C_ 0.0132211 0.461968 0.758829 -0.02249
C_ C_ 0.266039 0.462099 0.745019 -0.02249
C_ C_ 0.0449856 0.412831 0.711168 -0.11473
C_ C_ 0.295627 0.405244 0.712018 -0.11473
C_ C_ 0.0507741 0.360387 0.77964 -0.11473
C_ C_ 0.302116 0.364201 0.788127 -0.11473
C_ C_ 0.0628579 0.376284 0.708154 -0.11473
C_ C_ 0.309128 0.366014 0.71274 -0.11473
C_ C_ 0.0305632 0.422595 0.749097 -0.02249
C_ C_ 0.281984 0.42219 0.748121 -0.02249
C_ C_ 0.0841042 0.310202 0.73932 0.6875
C_ C_ 0.334885 0.309717 0.754682 0.6875
C_ C_ 0.0350676 0.396755 0.783654 -0.11473
C_ C_ 0.28551 0.401931 0.786973 -0.11473
C_ C_ 0.184642 0.346035 0.749187 -0.02249
C_ C_ 0.430195 0.350695 0.747389 -0.02249
C_ C_ 0.233225 0.462787 0.741478 -0.02249
C_ C_ 0.483921 0.460307 0.745303 -0.02249
C_ C_ 0.198468 0.412838 0.780213 -0.11473
C_ C_ 0.464409 0.3979 0.780216 -0.11473
C_ C_ 0.201203 0.356851 0.713191 -0.11473
C_ C_ 0.43279 0.374054 0.709386 -0.11473
C_ C_ 0.180865 0.377539 0.780446 -0.11473
C_ C_ 0.446068 0.363437 0.782078 -0.11473
C_ C_ 0.217589 0.421863 0.745918 -0.02249
C_ C_ 0.46849 0.420588 0.743875 -0.02249
C_ C_ 0.165675 0.307288 0.749348 0.6875
C_ C_ 0.413489 0.310819 0.749226 0.6875
C_ C_ 0.220227 0.391572 0.714924 -0.11473
C_ C_ 0.451197 0.408795 0.707691 -0.11473
C_ C_ 0.181713 0.153923 0.745418 -0.02249
C_ C_ 0.433582 0.149402 0.743317 -0.02249
C_ C_ 0.233044 0.041015 0.746163 -0.02249
C_ C_ 0.483637 0.0370481 0.747984 -0.02249
C_ C_ 0.210119 0.100153 0.783087 -0.11473
C_ C_ 0.456485 0.0944302 0.783996 -0.11473
C_ C_ 0.189009 0.134902 0.708945 -0.11473
C_ C_ 0.448234 0.134713 0.706184 -0.11473
C_ C_ 0.192088 0.136424 0.782295 -0.11473
C_ C_ 0.438154 0.12899 0.78161 -0.11473
C_ C_ 0.215033 0.0808316 0.745718 -0.02249
C_ C_ 0.469083 0.0787226 0.746559 -0.02249
C_ C_ 0.161734 0.190889 0.745612 0.6875
C_ C_ 0.414924 0.18796 0.740839 0.6875
C_ C_ 0.207164 0.100278 0.707879 -0.11473
C_ C_ 0.466264 0.099506 0.707448 -0.11473
C_ C_ 0.0628516 0.152261 0.741038 -0.02249
C_ C_ 0.318942 0.153622 0.746569 -0.02249
C_ C_ 0.015656 0.0372396 0.748473 -0.02249
C_ C_ 0.265875 0.040186 0.749564 -0.02249
C_ C_ 0.0406408 0.0933515 0.706497 -0.11473
C_ C_ 0.299993 0.090236 0.712783 -0.11473
C_ C_ 0.0554117 0.13468 0.781351 -0.11473
C_ C_ 0.305417 0.14029 0.782563 -0.11473
C_ C_ 0.0557138 0.130583 0.70332 -0.11473
C_ C_ 0.316099 0.126512 0.711445 -0.11473
C_ C_ 0.0321908 0.0769525 0.746021 -0.02249
C_ C_ 0.284981 0.0799951 0.750014 -0.02249
C_ C_ 0.084198 0.189022 0.740292 0.6875
C_ C_ 0.335103 0.193256 0.745109 0.6875
C_ C_ 0.0384215 0.0992139 0.783223 -0.11473
C_ C_ 0.287376 0.104546 0.786305 -0.11473
C_ C_ 0.124216 0.290451 0.869028 0.17695
C_ C_ 0.377497 0.280316 0.873888 0.17695
C_ C_ 0.119558 0.218161 0.87277 0.17695
C_ C_ 0.393175 0.212687 0.870092 0.17695
C_ C_ 0.120788 0.217517 0.916452 -0.11473
C_ C_ 0.397869 0.210864 0.913264 -0.11473
C_ C_ 0.122619 0.255629 0.937495 0.23465
C_ C_ 0.386291 0.242775 0.939448 0.23465
C_ C_ 0.124044 0.292385 0.914845 -0.11473
C_ C_ 0.376666 0.27834 0.918613 -0.11473
C_ C_ 0.116184 0.214928 0.62579 0.17695
C_ C_ 0.369467 0.221666 0.619176 0.17695
C_ C_ 0.134176 0.283989 0.619385 0.17695
C_ C_ 0.371173 0.293618 0.625656 0.17695
C_ C_ 0.129514 0.281287 0.575252 -0.11473
C_ C_ 0.374393 0.297939 0.582445 -0.11473
C_ C_ 0.121161 0.244206 0.555222 0.23465
C_ C_ 0.37333 0.261995 0.556022 0.23465
C_ C_ 0.114802 0.210333 0.581667 -0.11473
C_ C_ 0.373169 0.225196 0.576379 -0.11473
C_ C_ 0.0302772 0.500425 0.759496 0.05793
C_ C_ 0.281422 0.499697 0.750617 0.05793
C_ C_ 0.218309 0.0032028 0.734484 0.05793
C_ C_ 0.465501 1.000812475 0.744542 0.05793
Br Br 0.0728526 0.497035 0.767957 -0.17191
Br Br 0.3251 0.499509 0.762287 -0.17191
Br Br 0.174722 0.00688747 0.72346 -0.17191
Br Br 0.420726 1.00518877 0.733083 -0.17191
N_ N_ 0.123301 0.253344 0.849843 -0.272
N_ N_ 0.380843 0.245905 0.85167 -0.272
N_ N_ 0.129932 0.255243 0.98233 -0.12501
N_ N_ 0.39357 0.242126 0.984277 -0.12501
N_ N_ 0.124712 0.251648 0.643379 -0.272
N_ N_ 0.368833 0.25523 0.643415 -0.272
N_ N_ 0.120109 0.237623 0.509896 -0.12501
N_ N_ 0.373396 0.265164 0.510741 -0.12501
O_ O_ 0.0982482 0.30395 0.706806 -0.60745
O_ O_ 0.341754 0.290649 0.720051 -0.60745
O_ O_ 0.0893425 0.286536 0.771283 -0.60745
O_ O_ 0.347942 0.29729 0.788523 -0.60745
O_ O_ 0.153157 0.295592 0.783424 -0.60745
O_ O_ 0.407257 0.295063 0.784593 -0.60745
O_ O_ 0.159078 0.290944 0.714751 -0.60745
O_ O_ 0.405842 0.294329 0.715368 -0.60745
O_ O_ 0.158369 0.211423 0.780011 -0.60745
O_ O_ 0.409382 0.204444 0.774029 -0.60745
O_ O_ 0.146901 0.200056 0.712207 -0.60745
O_ O_ 0.402476 0.198291 0.70605 -0.60745
O_ O_ 0.0860093 0.213639 0.708619 -0.60745
O_ O_ 0.344224 0.206593 0.711242 -0.60745
O_ O_ 0.0982547 0.200491 0.772978 -0.60745
O_ O_ 0.344163 0.209926 0.780034 -0.60745
Zn Zn 0.128476 0.748659 0.279171 0.9476
Zn Zn 0.375123 0.750399 0.286395 0.9476
Zn Zn 0.124348 0.748341 0.211731 0.9476
Zn Zn 0.374703 0.752062 0.217758 0.9476
H_ H_ 0.0303391 0.909947 0.173786 0.10932
H_ H_ 0.290993 0.922881 0.183723 0.10932
H_ H_ 0.0740992 0.860001 0.310614 0.10932
H_ H_ 0.306513 0.848296 0.319263 0.10932
H_ H_ 0.0592437 0.848645 0.17533 0.10932
H_ H_ 0.315416 0.852684 0.184237 0.10932
H_ H_ 0.0447019 0.923139 0.306818 0.10932
H_ H_ 0.275578 0.912883 0.317171 0.10932
H_ H_ 0.222338 0.916829 0.311182 0.10932
H_ H_ 0.473444 0.910907 0.322788 0.10932
H_ H_ 0.184091 0.855212 0.175505 0.10932
H_ H_ 0.433245 0.858979 0.189387 0.10932
H_ H_ 0.197332 0.846783 0.312417 0.10932
H_ H_ 0.43824 0.853274 0.32209 0.10932
H_ H_ 0.220502 0.916654 0.181686 0.10932
H_ H_ 0.462615 0.920775 0.187815 0.10932
H_ H_ 0.205766 0.568998 0.307973 0.10932
H_ H_ 0.450972 0.5706 0.316623 0.10932
H_ H_ 0.199551 0.659772 0.179676 0.10932
H_ H_ 0.446847 0.66105 0.194274 0.10932
H_ H_ 0.174554 0.631098 0.307174 0.10932
H_ H_ 0.41492 0.628104 0.313888 0.10932
H_ H_ 0.22414 0.591789 0.174474 0.10932
H_ H_ 0.470493 0.589775 0.185782 0.10932
H_ H_ 0.0311687 0.57859 0.188402 0.10932
H_ H_ 0.283588 0.588091 0.178985 0.10932
H_ H_ 0.0727738 0.645016 0.318996 0.10932
H_ H_ 0.327559 0.633032 0.312846 0.10932
H_ H_ 0.0601957 0.646954 0.184647 0.10932
H_ H_ 0.305804 0.655548 0.180681 0.10932
H_ H_ 0.0431427 0.580902 0.321417 0.10932
H_ H_ 0.290124 0.574656 0.310409 0.10932
H_ H_ 0.13492 0.815447 0.351742 0.10932
H_ H_ 0.38171 0.813839 0.354831 0.10932
H_ H_ 0.115251 0.690342 0.356634 0.10932
H_ H_ 0.366875 0.683351 0.369554 0.10932
H_ H_ 0.116647 0.690508 0.431144 0.10932
H_ H_ 0.374921 0.689906 0.442577 0.10932
H_ H_ 0.12791 0.821586 0.428093 0.10932
H_ H_ 0.381496 0.823134 0.434649 0.10932
H_ H_ 0.121824 0.682468 0.143671 0.10932
H_ H_ 0.375018 0.82744 0.138909 0.10932
H_ H_ 0.128949 0.813093 0.132391 0.10932
H_ H_ 0.375177 0.695851 0.143148 0.10932
H_ H_ 0.123334 0.809438 0.0540416 0.10932
H_ H_ 0.371434 0.694707 0.064884 0.10932
H_ H_ 0.125196 0.677944 0.0672302 0.10932
H_ H_ 0.365533 0.827561 0.0629706 0.10932
C_ C_ 0.0692061 0.845615 0.241699 -0.02249
C_ C_ 0.313717 0.847135 0.252769 -0.02249
C_ C_ 0.0174938 0.961595 0.240003 -0.02249
C_ C_ 0.264263 0.963217 0.245352 -0.02249
C_ C_ 0.0396716 0.899118 0.204497 -0.11473
C_ C_ 0.292297 0.905193 0.212851 -0.11473
C_ C_ 0.0643111 0.868569 0.279176 -0.11473
C_ C_ 0.304311 0.864987 0.289958 -0.11473
C_ C_ 0.0536386 0.860733 0.20497 -0.11473
C_ C_ 0.307114 0.866795 0.214296 -0.11473
C_ C_ 0.0339613 0.920562 0.240231 -0.02249
C_ C_ 0.282515 0.924275 0.250503 -0.02249
C_ C_ 0.0857888 0.80615 0.243214 0.6875
C_ C_ 0.331406 0.807456 0.254732 0.6875
C_ C_ 0.0490192 0.907233 0.276714 -0.11473
C_ C_ 0.287036 0.902105 0.28816 -0.11473
C_ C_ 0.186394 0.846063 0.242874 -0.02249
C_ C_ 0.436263 0.84691 0.255095 -0.02249
C_ C_ 0.233827 0.964247 0.248169 -0.02249
C_ C_ 0.486328 0.963599 0.255631 -0.02249
C_ C_ 0.212505 0.902667 0.283125 -0.11473
C_ C_ 0.464223 0.900522 0.291531 -0.11473
C_ C_ 0.193049 0.866662 0.205325 -0.11473
C_ C_ 0.444822 0.866722 0.21651 -0.11473
C_ C_ 0.199159 0.861738 0.281446 -0.11473
C_ C_ 0.445965 0.866386 0.292176 -0.11473
C_ C_ 0.21649 0.924032 0.245682 -0.02249
C_ C_ 0.469473 0.923371 0.254955 -0.02249
C_ C_ 0.16498 0.809152 0.24563 0.6875
C_ C_ 0.413083 0.813063 0.254353 0.6875
C_ C_ 0.209266 0.903965 0.207629 -0.11473
C_ C_ 0.46042 0.904086 0.21651 -0.11473
C_ C_ 0.182732 0.650079 0.243242 -0.02249
C_ C_ 0.428986 0.650357 0.252181 -0.02249
C_ C_ 0.235093 0.536659 0.239645 -0.02249
C_ C_ 0.481001 0.536884 0.247822 -0.02249
C_ C_ 0.202243 0.585936 0.277533 -0.11473
C_ C_ 0.448041 0.586582 0.286476 -0.11473
C_ C_ 0.197764 0.63866 0.205748 -0.11473
C_ C_ 0.442517 0.637654 0.214925 -0.11473
C_ C_ 0.185672 0.624429 0.278998 -0.11473
C_ C_ 0.430103 0.62311 0.287496 -0.11473
C_ C_ 0.217962 0.576216 0.240851 -0.02249
C_ C_ 0.463 0.575814 0.249318 -0.02249
C_ C_ 0.163893 0.688519 0.245724 0.6875
C_ C_ 0.412805 0.690592 0.252987 0.6875
C_ C_ 0.213863 0.600453 0.204255 -0.11473
C_ C_ 0.457156 0.598368 0.212865 -0.11473
C_ C_ 0.0655513 0.653733 0.250844 -0.02249
C_ C_ 0.314943 0.65392 0.248447 -0.02249
C_ C_ 0.0150272 0.539656 0.258159 -0.02249
C_ C_ 0.266273 0.536998 0.239178 -0.02249
C_ C_ 0.0389942 0.596445 0.216538 -0.11473
C_ C_ 0.286918 0.601302 0.208401 -0.11473
C_ C_ 0.062185 0.632377 0.290494 -0.11473
C_ C_ 0.313205 0.627707 0.284983 -0.11473
C_ C_ 0.0563509 0.632139 0.2131 -0.11473
C_ C_ 0.301527 0.639471 0.210428 -0.11473
C_ C_ 0.0313605 0.579725 0.256821 -0.02249
C_ C_ 0.283343 0.576654 0.243844 -0.02249
C_ C_ 0.0875868 0.689343 0.247548 0.6875
C_ C_ 0.33464 0.691922 0.249357 0.6875
C_ C_ 0.0454835 0.595256 0.292169 -0.11473
C_ C_ 0.29451 0.592564 0.282103 -0.11473
C_ C_ 0.134189 0.788056 0.369483 0.17695
C_ C_ 0.378126 0.787799 0.373983 0.17695
C_ C_ 0.122575 0.716802 0.371386 0.17695
C_ C_ 0.369423 0.714603 0.382584 0.17695
C_ C_ 0.124244 0.718078 0.415511 -0.11473
C_ C_ 0.371617 0.719 0.42674 -0.11473
C_ C_ 0.126941 0.756532 0.436086 0.23465
C_ C_ 0.377159 0.75863 0.44433 0.23465
C_ C_ 0.130772 0.79119 0.412558 -0.11473
C_ C_ 0.376783 0.792498 0.418274 -0.11473
C_ C_ 0.124356 0.710344 0.124945 0.17695
C_ C_ 0.371199 0.798192 0.123225 0.17695
C_ C_ 0.126508 0.782818 0.119122 0.17695
C_ C_ 0.374131 0.724099 0.125079 0.17695
C_ C_ 0.125689 0.781365 0.0742375 -0.11473
C_ C_ 0.373983 0.723297 0.0793163 -0.11473
C_ C_ 0.125927 0.743986 0.0542827 0.23465
C_ C_ 0.371814 0.761234 0.0550817 0.23465
C_ C_ 0.124576 0.70882 0.0799339 -0.11473
C_ C_ 0.370027 0.798515 0.0785618 -0.11473
C_ C_ 0.0347349 0.997323 0.242394 0.05793
C_ C_ 0.279973 1.000596521 0.239042 0.05793
C_ C_ 0.219913 0.498405 0.238544 0.05793
C_ C_ 0.467396 0.498933 0.25007 0.05793
Br Br 0.0782824 -0.0016570000000000196 0.234717 -0.17191
Br Br 0.323013 0.998489 0.225717 -0.17191
Br Br 0.177988 0.497681 0.221544 -0.17191
Br Br 0.425058 0.493996 0.238132 -0.17191
N_ N_ 0.128633 0.751654 0.348764 -0.272
N_ N_ 0.37481 0.749497 0.357638 -0.272
N_ N_ 0.135868 0.757768 0.47962 -0.12501
N_ N_ 0.38201 0.765921 0.488233 -0.12501
N_ N_ 0.124433 0.748166 0.144561 -0.272
N_ N_ 0.37149 0.762291 0.145318 -0.272
N_ N_ 0.122295 0.739522 0.009766 -0.12501
N_ N_ 0.365399 0.76335 0.0125404 -0.12501
O_ O_ 0.0888817 0.783622 0.210975 -0.60745
O_ O_ 0.340547 0.78935 0.221585 -0.60745
O_ O_ 0.0983624 0.794747 0.276579 -0.60745
O_ O_ 0.343545 0.795804 0.289142 -0.60745
O_ O_ 0.161447 0.792664 0.281142 -0.60745
O_ O_ 0.408169 0.793792 0.286944 -0.60745
O_ O_ 0.155174 0.791517 0.211744 -0.60745
O_ O_ 0.401089 0.800589 0.220507 -0.60745
O_ O_ 0.156936 0.703437 0.280797 -0.60745
O_ O_ 0.404574 0.705116 0.287959 -0.60745
O_ O_ 0.155546 0.706196 0.212877 -0.60745
O_ O_ 0.409288 0.712403 0.219876 -0.60745
O_ O_ 0.094181 0.705394 0.212866 -0.60745
O_ O_ 0.344989 0.707315 0.215267 -0.60745
O_ O_ 0.101237 0.701773 0.280232 -0.60745
O_ O_ 0.343787 0.708599 0.284108 -0.60745
Zn Zn 0.12388 0.753019 0.78198 0.9476
Zn Zn 0.372326 0.747413 0.786493 0.9476
Zn Zn 0.123677 0.746472 0.71296 0.9476
Zn Zn 0.372366 0.754693 0.717483 0.9476
H_ H_ 0.0358864 0.924423 0.685771 0.10932
H_ H_ 0.284752 0.920117 0.683238 0.10932
H_ H_ 0.0572026 0.844114 0.813388 0.10932
H_ H_ 0.313511 0.852698 0.816502 0.10932
H_ H_ 0.0551848 0.852759 0.680666 0.10932
H_ H_ 0.314456 0.856249 0.683601 0.10932
H_ H_ 0.0320007 0.916003 0.816863 0.10932
H_ H_ 0.279459 0.913248 0.816667 0.10932
H_ H_ 0.207666 0.927589 0.809061 0.10932
H_ H_ 0.458669 0.924866 0.816607 0.10932
H_ H_ 0.187516 0.846314 0.682248 0.10932
H_ H_ 0.445575 0.841401 0.687442 0.10932
H_ H_ 0.17735 0.86641 0.813022 0.10932
H_ H_ 0.429563 0.860455 0.818282 0.10932
H_ H_ 0.220763 0.908528 0.678184 0.10932
H_ H_ 0.465306 0.908536 0.682864 0.10932
H_ H_ 0.198929 0.564996 0.803296 0.10932
H_ H_ 0.466516 0.580902 0.817901 0.10932
H_ H_ 0.199009 0.66324 0.68074 0.10932
H_ H_ 0.435214 0.649547 0.682303 0.10932
H_ H_ 0.162983 0.628571 0.801211 0.10932
H_ H_ 0.431096 0.644762 0.818867 0.10932
H_ H_ 0.229129 0.598101 0.679396 0.10932
H_ H_ 0.45488 0.574121 0.681512 0.10932
H_ H_ 0.0382596 0.577799 0.688015 0.10932
H_ H_ 0.291507 0.580048 0.680362 0.10932
H_ H_ 0.0665443 0.644652 0.820172 0.10932
H_ H_ 0.29596 0.659484 0.812784 0.10932
H_ H_ 0.0677189 0.641948 0.684825 0.10932
H_ H_ 0.31338 0.650673 0.681504 0.10932
H_ H_ 0.0333707 0.592202 0.820911 0.10932
H_ H_ 0.266594 0.596892 0.805806 0.10932
H_ H_ 0.116438 0.820611 0.849798 0.10932
H_ H_ 0.375051 0.811783 0.858836 0.10932
H_ H_ 0.134894 0.693106 0.864677 0.10932
H_ H_ 0.359644 0.685262 0.857 0.10932
H_ H_ 0.127202 0.696356 0.939839 0.10932
H_ H_ 0.365488 0.679237 0.93308 0.10932
H_ H_ 0.122125 0.828857 0.928942 0.10932
H_ H_ 0.380694 0.813383 0.937275 0.10932
H_ H_ 0.127299 0.683127 0.640322 0.10932
H_ H_ 0.374889 0.812728 0.641177 0.10932
H_ H_ 0.111274 0.81106 0.637417 0.10932
H_ H_ 0.384283 0.682498 0.648032 0.10932
H_ H_ 0.109885 0.810798 0.557867 0.10932
H_ H_ 0.395786 0.679909 0.571485 0.10932
H_ H_ 0.126816 0.678596 0.559719 0.10932
H_ H_ 0.371653 0.807921 0.5621 0.10932
C_ C_ 0.0612578 0.844369 0.746156 -0.02249
C_ C_ 0.316588 0.849728 0.750448 -0.02249
C_ C_ 0.0141226 0.961463 0.753217 -0.02249
C_ C_ 0.264507 0.962793 0.751182 -0.02249
C_ C_ 0.0388853 0.904948 0.711667 -0.11473
C_ C_ 0.291289 0.905914 0.712085 -0.11473
C_ C_ 0.0541563 0.861373 0.785452 -0.11473
C_ C_ 0.30388 0.865016 0.788634 -0.11473
C_ C_ 0.0515037 0.866029 0.709848 -0.11473
C_ C_ 0.308165 0.870573 0.712547 -0.11473
C_ C_ 0.030923 0.920493 0.750809 -0.02249
C_ C_ 0.28123 0.92271 0.750922 -0.02249
C_ C_ 0.0811614 0.807924 0.746813 0.6875
C_ C_ 0.334966 0.811135 0.749185 0.6875
C_ C_ 0.0365948 0.898202 0.786903 -0.11473
C_ C_ 0.287033 0.901821 0.787337 -0.11473
C_ C_ 0.180042 0.849984 0.746936 -0.02249
C_ C_ 0.431002 0.848272 0.753211 -0.02249
C_ C_ 0.232544 0.964341 0.74125 -0.02249
C_ C_ 0.48041 0.962644 0.74874 -0.02249
C_ C_ 0.202742 0.909976 0.780274 -0.11473
C_ C_ 0.453052 0.908733 0.788126 -0.11473
C_ C_ 0.194413 0.862022 0.710151 -0.11473
C_ C_ 0.444909 0.861103 0.715316 -0.11473
C_ C_ 0.187446 0.871165 0.783157 -0.11473
C_ C_ 0.435254 0.872116 0.789835 -0.11473
C_ C_ 0.215151 0.923367 0.742859 -0.02249
C_ C_ 0.460662 0.925793 0.750133 -0.02249
C_ C_ 0.161645 0.811729 0.747849 0.6875
C_ C_ 0.411709 0.808673 0.755135 0.6875
C_ C_ 0.208514 0.901569 0.706011 -0.11473
C_ C_ 0.458494 0.898908 0.714454 -0.11473
C_ C_ 0.184747 0.654853 0.747615 -0.02249
C_ C_ 0.430529 0.652472 0.750897 -0.02249
C_ C_ 0.233508 0.538972 0.739752 -0.02249
C_ C_ 0.480774 0.536272 0.749815 -0.02249
C_ C_ 0.1978 0.586803 0.77779 -0.11473
C_ C_ 0.455516 0.594519 0.788394 -0.11473
C_ C_ 0.201791 0.645327 0.710611 -0.11473
C_ C_ 0.437099 0.632339 0.711855 -0.11473
C_ C_ 0.180261 0.623684 0.777728 -0.11473
C_ C_ 0.439149 0.631649 0.788181 -0.11473
C_ C_ 0.214859 0.577882 0.741167 -0.02249
C_ C_ 0.46264 0.574361 0.749177 -0.02249
C_ C_ 0.165328 0.692312 0.747106 0.6875
C_ C_ 0.409535 0.690751 0.7531 0.6875
C_ C_ 0.21537 0.606269 0.706037 -0.11473
C_ C_ 0.451404 0.591835 0.710461 -0.11473
C_ C_ 0.0691112 0.649648 0.75038 -0.02249
C_ C_ 0.310773 0.658043 0.748444 -0.02249
C_ C_ 0.0156648 0.538407 0.75679 -0.02249
C_ C_ 0.264555 0.538726 0.74559 -0.02249
C_ C_ 0.0411047 0.595525 0.714793 -0.11473
C_ C_ 0.292728 0.597958 0.709425 -0.11473
C_ C_ 0.0596049 0.632696 0.789367 -0.11473
C_ C_ 0.295532 0.643608 0.783837 -0.11473
C_ C_ 0.0605143 0.628797 0.714349 -0.11473
C_ C_ 0.307041 0.636581 0.710032 -0.11473
C_ C_ 0.0337332 0.576439 0.754199 -0.02249
C_ C_ 0.282794 0.578619 0.747374 -0.02249
C_ C_ 0.0865148 0.687653 0.74832 0.6875
C_ C_ 0.331707 0.694848 0.750359 0.6875
C_ C_ 0.0418683 0.598055 0.790426 -0.11473
C_ C_ 0.282956 0.604107 0.78357 -0.11473
C_ C_ 0.121445 0.794046 0.870374 0.17695
C_ C_ 0.377123 0.782892 0.876669 0.17695
C_ C_ 0.127926 0.721542 0.877106 0.17695
C_ C_ 0.367325 0.711436 0.875111 0.17695
C_ C_ 0.123586 0.72489 0.921232 -0.11473
C_ C_ 0.37052 0.708545 0.918877 -0.11473
C_ C_ 0.123375 0.763488 0.940381 0.23465
C_ C_ 0.37595 0.745957 0.942951 0.23465
C_ C_ 0.121991 0.798186 0.914899 -0.11473
C_ C_ 0.378881 0.783052 0.921265 -0.11473
C_ C_ 0.127749 0.710952 0.621023 0.17695
C_ C_ 0.375741 0.783543 0.625111 0.17695
C_ C_ 0.117964 0.783949 0.619561 0.17695
C_ C_ 0.38436 0.711469 0.628693 0.17695
C_ C_ 0.1179 0.784301 0.574413 -0.11473
C_ C_ 0.391817 0.710396 0.585304 -0.11473
C_ C_ 0.124591 0.746361 0.552418 0.23465
C_ C_ 0.385408 0.745536 0.560198 0.23465
C_ C_ 0.126166 0.708653 0.57641 -0.11473
C_ C_ 0.37811 0.781793 0.581547 -0.11473
C_ C_ 0.030058 -0.0012990000000000501 0.752863 0.05793
C_ C_ 0.280199 0.000662804 0.754188 0.05793
C_ C_ 0.217046 0.499677 0.739366 0.05793
C_ C_ 0.466513 0.497834 0.750129 0.05793
Br Br 0.071688 -0.0013699999999999823 0.757329 -0.17191
Br Br 0.32164 0.00258988 0.771707 -0.17191
Br Br 0.173262 0.498981 0.727813 -0.17191
Br Br 0.422968 0.500138 0.743273 -0.17191
N_ N_ 0.124587 0.756509 0.853116 -0.272
N_ N_ 0.371206 0.74745 0.856295 -0.272
N_ N_ 0.125142 0.769871 0.984589 -0.12501
N_ N_ 0.379821 0.743784 0.987335 -0.12501
N_ N_ 0.124225 0.748013 0.639708 -0.272
N_ N_ 0.376982 0.747954 0.648749 -0.272
N_ N_ 0.118184 0.745997 0.507833 -0.12501
N_ N_ 0.377685 0.739576 0.515411 -0.12501
O_ O_ 0.0886649 0.790122 0.71346 -0.60745
O_ O_ 0.346302 0.801255 0.714732 -0.60745
O_ O_ 0.093039 0.796468 0.781313 -0.60745
O_ O_ 0.341484 0.791404 0.783048 -0.60745
O_ O_ 0.154704 0.798741 0.782439 -0.60745
O_ O_ 0.401914 0.793693 0.789687 -0.60745
O_ O_ 0.146633 0.799804 0.715746 -0.60745
O_ O_ 0.405034 0.790865 0.721855 -0.60745
O_ O_ 0.153742 0.70777 0.779949 -0.60745
O_ O_ 0.403013 0.705683 0.787964 -0.60745
O_ O_ 0.159886 0.710299 0.711311 -0.60745
O_ O_ 0.399084 0.706577 0.719364 -0.60745
O_ O_ 0.0989939 0.698032 0.713958 -0.60745
O_ O_ 0.337833 0.715053 0.717623 -0.60745
O_ O_ 0.0932498 0.708098 0.781771 -0.60745
O_ O_ 0.342478 0.705865 0.784934 -0.60745
Zn Zn 0.629401 0.251941 0.286521 0.9476
Zn Zn 0.877311 0.248892 0.288838 0.9476
Zn Zn 0.625416 0.250205 0.219505 0.9476
Zn Zn 0.877364 0.251613 0.218573 0.9476
H_ H_ 0.539545 0.41742 0.183363 0.10932
H_ H_ 0.807144 0.431771 0.190767 0.10932
H_ H_ 0.56596 0.355572 0.319568 0.10932
H_ H_ 0.799709 0.340826 0.312242 0.10932
H_ H_ 0.561627 0.352815 0.186162 0.10932
H_ H_ 0.83819 0.365784 0.194119 0.10932
H_ H_ 0.534567 0.420023 0.319464 0.10932
H_ H_ 0.782176 0.409643 0.315633 0.10932
H_ H_ 0.715639 0.417618 0.325732 0.10932
H_ H_ 0.965411 0.419923 0.323858 0.10932
H_ H_ 0.691637 0.348419 0.19131 0.10932
H_ H_ 0.935253 0.355652 0.186314 0.10932
H_ H_ 0.69415 0.347211 0.324398 0.10932
H_ H_ 0.934611 0.356683 0.319237 0.10932
H_ H_ 0.72225 0.413331 0.191286 0.10932
H_ H_ 0.964841 0.420844 0.188463 0.10932
H_ H_ 0.717691 0.0788104 0.31593 0.10932
H_ H_ 0.974604 0.0833697 0.321167 0.10932
H_ H_ 0.688637 0.152436 0.187312 0.10932
H_ H_ 0.938976 0.145785 0.186422 0.10932
H_ H_ 0.683579 0.138646 0.31679 0.10932
H_ H_ 0.939584 0.14227 0.325532 0.10932
H_ H_ 0.713612 0.0832742 0.182272 0.10932
H_ H_ 0.966235 0.0813593 0.1859 0.10932
H_ H_ 0.530059 0.0846761 0.187815 0.10932
H_ H_ 0.795831 0.0727837 0.177559 0.10932
H_ H_ 0.573674 0.146995 0.317695 0.10932
H_ H_ 0.803754 0.146868 0.316896 0.10932
H_ H_ 0.560959 0.14901 0.184713 0.10932
H_ H_ 0.828286 0.13704 0.186633 0.10932
H_ H_ 0.543682 0.0811106 0.322252 0.10932
H_ H_ 0.775168 0.0869114 0.310656 0.10932
H_ H_ 0.581548 0.258423 0.359484 0.10932
H_ H_ 0.863641 0.187201 0.363756 0.10932
H_ H_ 0.67553 0.245248 0.363727 0.10932
H_ H_ 0.900177 0.306313 0.360575 0.10932
H_ H_ 0.678548 0.252338 0.441693 0.10932
H_ H_ 0.900662 0.307699 0.44113 0.10932
H_ H_ 0.581344 0.257864 0.439685 0.10932
H_ H_ 0.866146 0.184838 0.440158 0.10932
H_ H_ 0.634023 0.184838 0.142591 0.10932
H_ H_ 0.829004 0.242824 0.14627 0.10932
H_ H_ 0.624026 0.314719 0.14774 0.10932
H_ H_ 0.923247 0.25292 0.142918 0.10932
H_ H_ 0.63739 0.318953 0.0711317 0.10932
H_ H_ 0.923562 0.257733 0.0690205 0.10932
H_ H_ 0.631145 0.186443 0.063853 0.10932
H_ H_ 0.828221 0.228768 0.0716307 0.10932
C_ C_ 0.56816 0.348389 0.253706 -0.02249
C_ C_ 0.825948 0.352328 0.25508 -0.02249
C_ C_ 0.516627 0.463413 0.246442 -0.02249
C_ C_ 0.770965 0.461565 0.248879 -0.02249
C_ C_ 0.542331 0.402905 0.214936 -0.11473
C_ C_ 0.807093 0.411913 0.217224 -0.11473
C_ C_ 0.560207 0.368968 0.2908 -0.11473
C_ C_ 0.805518 0.362378 0.286862 -0.11473
C_ C_ 0.557132 0.365303 0.21589 -0.11473
C_ C_ 0.825752 0.377118 0.22063 -0.11473
C_ C_ 0.533135 0.42357 0.251338 -0.02249
C_ C_ 0.788712 0.422067 0.250254 -0.02249
C_ C_ 0.587176 0.311058 0.25292 0.6875
C_ C_ 0.839635 0.310594 0.255219 0.6875
C_ C_ 0.542904 0.405405 0.290119 -0.11473
C_ C_ 0.789892 0.398984 0.285389 -0.11473
C_ C_ 0.687575 0.346652 0.258655 -0.02249
C_ C_ 0.934892 0.349658 0.253715 -0.02249
C_ C_ 0.739443 0.46142 0.258597 -0.02249
C_ C_ 0.982366 0.465029 0.25521 -0.02249
C_ C_ 0.715144 0.401722 0.296615 -0.11473
C_ C_ 0.956478 0.408319 0.291803 -0.11473
C_ C_ 0.697505 0.364232 0.220719 -0.11473
C_ C_ 0.940691 0.369262 0.215587 -0.11473
C_ C_ 0.697172 0.364899 0.296618 -0.11473
C_ C_ 0.940295 0.371249 0.292104 -0.11473
C_ C_ 0.722588 0.421797 0.258067 -0.02249
C_ C_ 0.965485 0.425465 0.254494 -0.02249
C_ C_ 0.671674 0.305202 0.259116 0.6875
C_ C_ 0.914373 0.311919 0.252418 0.6875
C_ C_ 0.714756 0.401235 0.220731 -0.11473
C_ C_ 0.957902 0.406657 0.216595 -0.11473
C_ C_ 0.681989 0.147717 0.252468 -0.02249
C_ C_ 0.938064 0.153429 0.254571 -0.02249
C_ C_ 0.735138 0.036056 0.24643 -0.02249
C_ C_ 0.990217 0.0377239 0.253425 -0.02249
C_ C_ 0.706448 0.0882352 0.286635 -0.11473
C_ C_ 0.966393 0.0961623 0.290881 -0.11473
C_ C_ 0.693109 0.133166 0.215355 -0.11473
C_ C_ 0.948333 0.134997 0.216417 -0.11473
C_ C_ 0.688053 0.124023 0.288918 -0.11473
C_ C_ 0.947635 0.133348 0.293628 -0.11473
C_ C_ 0.718927 0.075575 0.249413 -0.02249
C_ C_ 0.974944 0.079792 0.253133 -0.02249
C_ C_ 0.664423 0.187577 0.254836 0.6875
C_ C_ 0.916795 0.18923 0.252584 0.6875
C_ C_ 0.709739 0.0954402 0.212333 -0.11473
C_ C_ 0.963565 0.0978221 0.215779 -0.11473
C_ C_ 0.566057 0.155712 0.25191 -0.02249
C_ C_ 0.820093 0.147895 0.253432 -0.02249
C_ C_ 0.518215 0.0385702 0.258188 -0.02249
C_ C_ 0.766775 0.0347759 0.242678 -0.02249
C_ C_ 0.539899 0.0987331 0.215801 -0.11473
C_ C_ 0.797669 0.0900294 0.208447 -0.11473
C_ C_ 0.561058 0.137442 0.291349 -0.11473
C_ C_ 0.803836 0.13145 0.286501 -0.11473
C_ C_ 0.555501 0.13514 0.214225 -0.11473
C_ C_ 0.814566 0.127304 0.213208 -0.11473
C_ C_ 0.535736 0.0793326 0.254636 -0.02249
C_ C_ 0.784595 0.0743833 0.24486 -0.02249
C_ C_ 0.585925 0.194149 0.247445 0.6875
C_ C_ 0.83943 0.18673 0.255296 0.6875
C_ C_ 0.54524 0.0983636 0.292278 -0.11473
C_ C_ 0.786439 0.0965286 0.283452 -0.11473
C_ C_ 0.603351 0.256195 0.380068 0.17695
C_ C_ 0.873076 0.212546 0.380188 0.17695
C_ C_ 0.655335 0.253835 0.379021 0.17695
C_ C_ 0.895725 0.278196 0.378181 0.17695
C_ C_ 0.657815 0.257774 0.42439 -0.11473
C_ C_ 0.89686 0.279036 0.424005 -0.11473
C_ C_ 0.630812 0.259344 0.446598 0.23465
C_ C_ 0.885931 0.247078 0.446023 0.23465
C_ C_ 0.602704 0.260635 0.424232 -0.11473
C_ C_ 0.876646 0.211145 0.42457 -0.11473
C_ C_ 0.630207 0.215299 0.126898 0.17695
C_ C_ 0.847958 0.247847 0.12795 0.17695
C_ C_ 0.627591 0.287842 0.130334 0.17695
C_ C_ 0.901734 0.252061 0.127272 0.17695
C_ C_ 0.632362 0.289182 0.0859559 -0.11473
C_ C_ 0.901415 0.253125 0.0834661 -0.11473
C_ C_ 0.632131 0.252456 0.0624845 0.23465
C_ C_ 0.873194 0.248617 0.0605728 0.23465
C_ C_ 0.631034 0.215401 0.0823367 -0.11473
C_ C_ 0.847359 0.243312 0.0838935 -0.11473
C_ C_ 0.531349 0.502451 0.249567 0.05793
C_ C_ 0.786411 0.501077 0.252467 0.05793
C_ C_ 0.718708 0.999249 0.244248 0.05793
C_ C_ 0.97316 1.0010677 0.256322 0.05793
Br Br 0.574259 0.503838 0.244308 -0.17191
Br Br 0.828956 0.502469 0.252096 -0.17191
Br Br 0.677183 -0.0011090000000000266 0.25006 -0.17191
Br Br 0.930697 0.00108494 0.259164 -0.17191
N_ N_ 0.62911 0.249874 0.359852 -0.272
N_ N_ 0.884132 0.245406 0.358576 -0.272
N_ N_ 0.630856 0.268279 0.489545 -0.12501
N_ N_ 0.890441 0.246127 0.490609 -0.12501
N_ N_ 0.629455 0.251141 0.150056 -0.272
N_ N_ 0.875526 0.248432 0.14984 -0.272
N_ N_ 0.636565 0.253501 0.0174149 -0.12501
N_ N_ 0.873226 0.2374 0.0175898 -0.12501
O_ O_ 0.596941 0.299486 0.219066 -0.60745
O_ O_ 0.846226 0.294252 0.218738 -0.60745
O_ O_ 0.599856 0.299698 0.2855 -0.60745
O_ O_ 0.84878 0.293353 0.288792 -0.60745
O_ O_ 0.663373 0.288995 0.293961 -0.60745
O_ O_ 0.906287 0.295774 0.286027 -0.60745
O_ O_ 0.66047 0.290441 0.225249 -0.60745
O_ O_ 0.910853 0.290883 0.218222 -0.60745
O_ O_ 0.655271 0.201926 0.2895 -0.60745
O_ O_ 0.908235 0.204518 0.28643 -0.60745
O_ O_ 0.654092 0.204829 0.22111 -0.60745
O_ O_ 0.90853 0.204678 0.217559 -0.60745
O_ O_ 0.593613 0.208111 0.211865 -0.60745
O_ O_ 0.846512 0.206684 0.2237 -0.60745
O_ O_ 0.594497 0.214577 0.279208 -0.60745
O_ O_ 0.847209 0.201632 0.290454 -0.60745
Zn Zn 0.622 0.246021 0.789272 0.9476
Zn Zn 0.876338 0.250066 0.785296 0.9476
Zn Zn 0.623186 0.248497 0.718852 0.9476
Zn Zn 0.87268 0.251213 0.716716 0.9476
H_ H_ 0.524098 0.410622 0.686464 0.10932
H_ H_ 0.794266 0.426557 0.683053 0.10932
H_ H_ 0.576862 0.363044 0.818314 0.10932
H_ H_ 0.80948 0.345812 0.815522 0.10932
H_ H_ 0.55026 0.340742 0.692742 0.10932
H_ H_ 0.821905 0.357371 0.681361 0.10932
H_ H_ 0.543287 0.425019 0.817424 0.10932
H_ H_ 0.77121 0.402844 0.810338 0.10932
H_ H_ 0.708732 0.426081 0.815652 0.10932
H_ H_ 0.954114 0.425821 0.81773 0.10932
H_ H_ 0.683475 0.345137 0.687155 0.10932
H_ H_ 0.935355 0.357871 0.680657 0.10932
H_ H_ 0.675792 0.35943 0.820126 0.10932
H_ H_ 0.922456 0.363369 0.816651 0.10932
H_ H_ 0.719463 0.404883 0.684342 0.10932
H_ H_ 0.963119 0.421753 0.684471 0.10932
H_ H_ 0.719574 0.0903706 0.822997 0.10932
H_ H_ 0.954562 0.0749854 0.81647 0.10932
H_ H_ 0.674921 0.135509 0.688292 0.10932
H_ H_ 0.940531 0.152765 0.684372 0.10932
H_ H_ 0.693363 0.159913 0.819692 0.10932
H_ H_ 0.932081 0.140945 0.820068 0.10932
H_ H_ 0.71046 0.0790334 0.68621 0.10932
H_ H_ 0.96693 0.0874033 0.682056 0.10932
H_ H_ 0.548592 0.0669789 0.687461 0.10932
H_ H_ 0.777694 0.082902 0.68483 0.10932
H_ H_ 0.558693 0.147476 0.820784 0.10932
H_ H_ 0.811802 0.152059 0.817082 0.10932
H_ H_ 0.56708 0.13765 0.688311 0.10932
H_ H_ 0.802495 0.154079 0.683486 0.10932
H_ H_ 0.525505 0.0832169 0.817551 0.10932
H_ H_ 0.78294 0.0842179 0.818242 0.10932
H_ H_ 0.61495 0.308346 0.860432 0.10932
H_ H_ 0.868545 0.183972 0.86808 0.10932
H_ H_ 0.625608 0.177886 0.863536 0.10932
H_ H_ 0.879803 0.314095 0.860172 0.10932
H_ H_ 0.622759 0.178058 0.940782 0.10932
H_ H_ 0.890495 0.318227 0.934652 0.10932
H_ H_ 0.624687 0.309583 0.9389 0.10932
H_ H_ 0.872662 0.185953 0.941992 0.10932
H_ H_ 0.603934 0.310415 0.637229 0.10932
H_ H_ 0.920053 0.271465 0.640325 0.10932
H_ H_ 0.627937 0.185795 0.645221 0.10932
H_ H_ 0.827169 0.240834 0.641457 0.10932
H_ H_ 0.631394 0.183381 0.565968 0.10932
H_ H_ 0.823293 0.249069 0.562787 0.10932
H_ H_ 0.613735 0.315415 0.562208 0.10932
H_ H_ 0.916024 0.278688 0.563331 0.10932
C_ C_ 0.564907 0.34482 0.756771 -0.02249
C_ C_ 0.819005 0.348982 0.749157 -0.02249
C_ C_ 0.514956 0.461569 0.749482 -0.02249
C_ C_ 0.765931 0.458178 0.750451 -0.02249
C_ C_ 0.535274 0.397829 0.715903 -0.11473
C_ C_ 0.79575 0.407142 0.710292 -0.11473
C_ C_ 0.563159 0.370485 0.79185 -0.11473
C_ C_ 0.806598 0.365167 0.78648 -0.11473
C_ C_ 0.551631 0.360892 0.718197 -0.11473
C_ C_ 0.812281 0.368117 0.710785 -0.11473
C_ C_ 0.532739 0.42177 0.751379 -0.02249
C_ C_ 0.782645 0.41969 0.747201 -0.02249
C_ C_ 0.583841 0.306418 0.756309 0.6875
C_ C_ 0.836698 0.309063 0.750638 0.6875
C_ C_ 0.545889 0.406526 0.789935 -0.11473
C_ C_ 0.782962 0.39322 0.782565 -0.11473
C_ C_ 0.680862 0.346281 0.754445 -0.02249
C_ C_ 0.929798 0.354201 0.75057 -0.02249
C_ C_ 0.734203 0.458882 0.748837 -0.02249
C_ C_ 0.982258 0.463676 0.750564 -0.02249
C_ C_ 0.705267 0.405333 0.788087 -0.11473
C_ C_ 0.953554 0.407761 0.789883 -0.11473
C_ C_ 0.692715 0.3602 0.715099 -0.11473
C_ C_ 0.938951 0.371611 0.712979 -0.11473
C_ C_ 0.687082 0.369523 0.791431 -0.11473
C_ C_ 0.935762 0.373202 0.789051 -0.11473
C_ C_ 0.715703 0.419389 0.749878 -0.02249
C_ C_ 0.96438 0.425376 0.752733 -0.02249
C_ C_ 0.660438 0.309434 0.755295 0.6875
C_ C_ 0.911535 0.314151 0.750612 0.6875
C_ C_ 0.709508 0.396357 0.713547 -0.11473
C_ C_ 0.95602 0.408741 0.713842 -0.11473
C_ C_ 0.683282 0.154513 0.751872 -0.02249
C_ C_ 0.930687 0.150702 0.752 -0.02249
C_ C_ 0.732367 0.0384612 0.758312 -0.02249
C_ C_ 0.98309 0.0373323 0.749086 -0.02249
C_ C_ 0.711583 0.102234 0.793521 -0.11473
C_ C_ 0.953147 0.0932964 0.78829 -0.11473
C_ C_ 0.685676 0.128198 0.716922 -0.11473
C_ C_ 0.942913 0.134502 0.714031 -0.11473
C_ C_ 0.696932 0.141888 0.792237 -0.11473
C_ C_ 0.938986 0.130353 0.78991 -0.11473
C_ C_ 0.716003 0.0786831 0.756818 -0.02249
C_ C_ 0.967003 0.0780967 0.750276 -0.02249
C_ C_ 0.663289 0.191971 0.750025 0.6875
C_ C_ 0.911695 0.189049 0.751343 0.6875
C_ C_ 0.704171 0.0932227 0.717195 -0.11473
C_ C_ 0.959952 0.0972846 0.711881 -0.11473
C_ C_ 0.564559 0.147606 0.75373 -0.02249
C_ C_ 0.814179 0.154819 0.747856 -0.02249
C_ C_ 0.51507 0.0333489 0.754518 -0.02249
C_ C_ 0.764071 0.036715 0.753539 -0.02249
C_ C_ 0.54607 0.0859527 0.715583 -0.11473
C_ C_ 0.787144 0.0975657 0.713418 -0.11473
C_ C_ 0.553105 0.132475 0.791706 -0.11473
C_ C_ 0.805638 0.137637 0.786717 -0.11473
C_ C_ 0.558888 0.125432 0.716892 -0.11473
C_ C_ 0.80127 0.13646 0.711029 -0.11473
C_ C_ 0.534726 0.069588 0.754832 -0.02249
C_ C_ 0.782452 0.0776057 0.752822 -0.02249
C_ C_ 0.582184 0.18794 0.754122 0.6875
C_ C_ 0.833523 0.194772 0.747099 0.6875
C_ C_ 0.539764 0.0920306 0.791973 -0.11473
C_ C_ 0.788444 0.0999842 0.789208 -0.11473
C_ C_ 0.616949 0.278961 0.880466 0.17695
C_ C_ 0.872277 0.213745 0.881947 0.17695
C_ C_ 0.623375 0.207424 0.881271 0.17695
C_ C_ 0.878074 0.286217 0.87826 0.17695
C_ C_ 0.621592 0.206738 0.924486 -0.11473
C_ C_ 0.88507 0.287527 0.921939 -0.11473
C_ C_ 0.620809 0.244013 0.94766 0.23465
C_ C_ 0.882142 0.251657 0.946636 0.23465
C_ C_ 0.62004 0.281213 0.924003 -0.11473
C_ C_ 0.874607 0.215383 0.926682 -0.11473
C_ C_ 0.61538 0.285509 0.624332 0.17695
C_ C_ 0.897953 0.268365 0.624061 0.17695
C_ C_ 0.628967 0.215037 0.626597 0.17695
C_ C_ 0.847674 0.245677 0.624356 0.17695
C_ C_ 0.628296 0.213027 0.581929 -0.11473
C_ C_ 0.844537 0.248844 0.581101 -0.11473
C_ C_ 0.624396 0.248325 0.559226 0.23465
C_ C_ 0.870997 0.25375 0.558384 0.23465
C_ C_ 0.620227 0.287367 0.58029 -0.11473
C_ C_ 0.897026 0.267778 0.580695 -0.11473
C_ C_ 0.529525 0.500665 0.744954 0.05793
C_ C_ 0.781832 0.496598 0.753909 0.05793
C_ C_ 0.71457 0.0017000000000000348 0.756296 0.05793
C_ C_ 0.966364 0.0016599999999999948 0.753455 0.05793
Br Br 0.570945 0.503715 0.738394 -0.17191
Br Br 0.8244 0.495845 0.75815 -0.17191
Br Br 0.673051 0.0045454 0.761605 -0.17191
Br Br 0.924972 0.0050667 0.764647 -0.17191
N_ N_ 0.622562 0.244287 0.860167 -0.272
N_ N_ 0.872305 0.250155 0.859203 -0.272
N_ N_ 0.615985 0.243334 0.991672 -0.12501
N_ N_ 0.885368 0.259396 0.990885 -0.12501
N_ N_ 0.622422 0.250439 0.647162 -0.272
N_ N_ 0.87371 0.253496 0.645673 -0.272
N_ N_ 0.619579 0.244135 0.515788 -0.12501
N_ N_ 0.869491 0.257799 0.513651 -0.12501
O_ O_ 0.592608 0.291783 0.721753 -0.60745
O_ O_ 0.842216 0.292875 0.716614 -0.60745
O_ O_ 0.590488 0.288149 0.790781 -0.60745
O_ O_ 0.8464 0.294708 0.786319 -0.60745
O_ O_ 0.652339 0.2929 0.790279 -0.60745
O_ O_ 0.905877 0.296304 0.784627 -0.60745
O_ O_ 0.653476 0.293601 0.72157 -0.60745
O_ O_ 0.903292 0.298069 0.716684 -0.60745
O_ O_ 0.657001 0.207582 0.784832 -0.60745
O_ O_ 0.906021 0.204911 0.786662 -0.60745
O_ O_ 0.648043 0.202168 0.717699 -0.60745
O_ O_ 0.904548 0.208869 0.718898 -0.60745
O_ O_ 0.590453 0.204601 0.720582 -0.60745
O_ O_ 0.841566 0.208251 0.710852 -0.60745
O_ O_ 0.592479 0.201827 0.788382 -0.60745
O_ O_ 0.845791 0.208493 0.780834 -0.60745
Zn Zn 0.624553 0.748233 0.283177 0.9476
Zn Zn 0.879445 0.752201 0.292806 0.9476
Zn Zn 0.624559 0.7466 0.213065 0.9476
Zn Zn 0.876353 0.752796 0.221958 0.9476
H_ H_ 0.537323 0.922725 0.185464 0.10932
H_ H_ 0.779874 0.902882 0.184214 0.10932
H_ H_ 0.557404 0.84224 0.315627 0.10932
H_ H_ 0.825463 0.867765 0.317253 0.10932
H_ H_ 0.564361 0.855556 0.183528 0.10932
H_ H_ 0.810263 0.844876 0.185982 0.10932
H_ H_ 0.530693 0.908678 0.319507 0.10932
H_ H_ 0.787065 0.924341 0.313577 0.10932
H_ H_ 0.726739 0.904396 0.310473 0.10932
H_ H_ 0.973613 0.918703 0.322209 0.10932
H_ H_ 0.671035 0.860457 0.182512 0.10932
H_ H_ 0.947653 0.847645 0.189151 0.10932
H_ H_ 0.698925 0.840847 0.312029 0.10932
H_ H_ 0.946624 0.847576 0.324177 0.10932
H_ H_ 0.699173 0.926133 0.182803 0.10932
H_ H_ 0.965238 0.918237 0.187364 0.10932
H_ H_ 0.724692 0.589426 0.322364 0.10932
H_ H_ 0.965809 0.5819 0.327747 0.10932
H_ H_ 0.677844 0.635144 0.18914 0.10932
H_ H_ 0.938793 0.655241 0.193968 0.10932
H_ H_ 0.699419 0.657612 0.31666 0.10932
H_ H_ 0.936494 0.646533 0.327216 0.10932
H_ H_ 0.7079 0.566611 0.191498 0.10932
H_ H_ 0.967091 0.590504 0.18853 0.10932
H_ H_ 0.519253 0.593309 0.186828 0.10932
H_ H_ 0.789229 0.583648 0.191995 0.10932
H_ H_ 0.574588 0.637403 0.316917 0.10932
H_ H_ 0.811316 0.652955 0.329065 0.10932
H_ H_ 0.551263 0.657341 0.184494 0.10932
H_ H_ 0.817903 0.64923 0.193148 0.10932
H_ H_ 0.544942 0.571993 0.31501 0.10932
H_ H_ 0.789187 0.582263 0.324848 0.10932
H_ H_ 0.614661 0.688155 0.366733 0.10932
H_ H_ 0.876737 0.817736 0.361037 0.10932
H_ H_ 0.631555 0.816376 0.353571 0.10932
H_ H_ 0.894822 0.691976 0.372755 0.10932
H_ H_ 0.635402 0.824668 0.429938 0.10932
H_ H_ 0.890048 0.691978 0.449232 0.10932
H_ H_ 0.618299 0.691732 0.442285 0.10932
H_ H_ 0.874385 0.825697 0.438218 0.10932
H_ H_ 0.614235 0.685018 0.14608 0.10932
H_ H_ 0.896643 0.691319 0.144354 0.10932
H_ H_ 0.623849 0.813122 0.132789 0.10932
H_ H_ 0.847478 0.799463 0.146836 0.10932
H_ H_ 0.624961 0.809865 0.0575751 0.10932
H_ H_ 0.852128 0.805125 0.0674287 0.10932
H_ H_ 0.615701 0.674983 0.0683147 0.10932
H_ H_ 0.907141 0.699245 0.0671231 0.10932
C_ C_ 0.564643 0.845052 0.248094 -0.02249
C_ C_ 0.818964 0.848288 0.253682 -0.02249
C_ C_ 0.517122 0.961164 0.254194 -0.02249
C_ C_ 0.765137 0.95825 0.243863 -0.02249
C_ C_ 0.542437 0.90477 0.213612 -0.11473
C_ C_ 0.787897 0.893784 0.213847 -0.11473
C_ C_ 0.55109 0.8572 0.285284 -0.11473
C_ C_ 0.812778 0.872092 0.289702 -0.11473
C_ C_ 0.557125 0.866809 0.211368 -0.11473
C_ C_ 0.804484 0.859197 0.215493 -0.11473
C_ C_ 0.531741 0.920003 0.251488 -0.02249
C_ C_ 0.779756 0.916811 0.249611 -0.02249
C_ C_ 0.586361 0.807952 0.247668 0.6875
C_ C_ 0.83754 0.81075 0.25718 0.6875
C_ C_ 0.53813 0.896826 0.288417 -0.11473
C_ C_ 0.791862 0.904477 0.288362 -0.11473
C_ C_ 0.682171 0.847199 0.246218 -0.02249
C_ C_ 0.940195 0.847184 0.256411 -0.02249
C_ C_ 0.733273 0.961004 0.244508 -0.02249
C_ C_ 0.986645 0.962719 0.250798 -0.02249
C_ C_ 0.71297 0.896371 0.283901 -0.11473
C_ C_ 0.966916 0.904202 0.293207 -0.11473
C_ C_ 0.685551 0.869512 0.208783 -0.11473
C_ C_ 0.951032 0.863657 0.218528 -0.11473
C_ C_ 0.696594 0.861218 0.284142 -0.11473
C_ C_ 0.952098 0.864199 0.294373 -0.11473
C_ C_ 0.715523 0.921099 0.246511 -0.02249
C_ C_ 0.971254 0.922556 0.254475 -0.02249
C_ C_ 0.663544 0.80762 0.245758 0.6875
C_ C_ 0.917882 0.811359 0.257762 0.6875
C_ C_ 0.703964 0.905751 0.208877 -0.11473
C_ C_ 0.964115 0.903144 0.217963 -0.11473
C_ C_ 0.687303 0.650395 0.253591 -0.02249
C_ C_ 0.935613 0.65487 0.260163 -0.02249
C_ C_ 0.738051 0.538714 0.261856 -0.02249
C_ C_ 0.984045 0.541567 0.255029 -0.02249
C_ C_ 0.721385 0.602571 0.291383 -0.11473
C_ C_ 0.958758 0.596078 0.296562 -0.11473
C_ C_ 0.688733 0.623277 0.217064 -0.11473
C_ C_ 0.946393 0.640445 0.222805 -0.11473
C_ C_ 0.705596 0.639953 0.289426 -0.11473
C_ C_ 0.942222 0.633322 0.298108 -0.11473
C_ C_ 0.719825 0.576804 0.257322 -0.02249
C_ C_ 0.969562 0.581453 0.256648 -0.02249
C_ C_ 0.664744 0.685937 0.253294 0.6875
C_ C_ 0.914558 0.6907 0.261437 0.6875
C_ C_ 0.707499 0.587205 0.218611 -0.11473
C_ C_ 0.96084 0.600977 0.218807 -0.11473
C_ C_ 0.563645 0.653835 0.251261 -0.02249
C_ C_ 0.817738 0.654703 0.260536 -0.02249
C_ C_ 0.514167 0.539815 0.25036 -0.02249
C_ C_ 0.769498 0.538335 0.259064 -0.02249
C_ C_ 0.534014 0.601176 0.213397 -0.11473
C_ C_ 0.795946 0.596609 0.22113 -0.11473
C_ C_ 0.563372 0.627598 0.287458 -0.11473
C_ C_ 0.808067 0.635582 0.298397 -0.11473
C_ C_ 0.549506 0.638403 0.214281 -0.11473
C_ C_ 0.811877 0.634524 0.221917 -0.11473
C_ C_ 0.530721 0.578947 0.25068 -0.02249
C_ C_ 0.785736 0.578877 0.258251 -0.02249
C_ C_ 0.582187 0.691302 0.25196 0.6875
C_ C_ 0.837639 0.694016 0.260627 0.6875
C_ C_ 0.544504 0.592447 0.287877 -0.11473
C_ C_ 0.79229 0.598449 0.29613 -0.11473
C_ C_ 0.621681 0.716845 0.380648 0.17695
C_ C_ 0.875978 0.79034 0.381136 0.17695
C_ C_ 0.627454 0.788458 0.374031 0.17695
C_ C_ 0.885687 0.718737 0.386794 0.17695
C_ C_ 0.631561 0.793274 0.417805 -0.11473
C_ C_ 0.885832 0.721508 0.432323 -0.11473
C_ C_ 0.624701 0.758362 0.444427 0.23465
C_ C_ 0.880263 0.759269 0.451265 0.23465
C_ C_ 0.621308 0.719342 0.424837 -0.11473
C_ C_ 0.876337 0.794409 0.42503 -0.11473
C_ C_ 0.615514 0.711832 0.125432 0.17695
C_ C_ 0.889482 0.717326 0.128624 0.17695
C_ C_ 0.622009 0.784245 0.118609 0.17695
C_ C_ 0.860631 0.776765 0.130313 0.17695
C_ C_ 0.620652 0.781348 0.0748988 -0.11473
C_ C_ 0.862553 0.781487 0.0850137 -0.11473
C_ C_ 0.617995 0.741882 0.0561216 0.23465
C_ C_ 0.879903 0.755268 0.0630284 0.23465
C_ C_ 0.614465 0.707051 0.0814593 -0.11473
C_ C_ 0.892416 0.722242 0.0838219 -0.11473
C_ C_ 0.533097 0.999366 0.25156 0.05793
C_ C_ 0.782501 0.995095 0.242758 0.05793
C_ C_ 0.724646 0.49941 0.267731 0.05793
C_ C_ 0.967413 0.503971 0.252842 0.05793
Br Br 0.575864 0.99873 0.245558 -0.17191
Br Br 0.823252 0.991213 0.231965 -0.17191
Br Br 0.682544 0.501586 0.280182 -0.17191
Br Br 0.926947 0.50483 0.231732 -0.17191
N_ N_ 0.622437 0.750473 0.356348 -0.272
N_ N_ 0.88026 0.752318 0.362372 -0.272
N_ N_ 0.618397 0.765173 0.487493 -0.12501
N_ N_ 0.879779 0.764805 0.49654 -0.12501
N_ N_ 0.619919 0.749345 0.143134 -0.272
N_ N_ 0.876487 0.748005 0.15168 -0.272
N_ N_ 0.623338 0.734438 0.0124149 -0.12501
N_ N_ 0.882691 0.759902 0.018468 -0.12501
O_ O_ 0.594224 0.793153 0.212868 -0.60745
O_ O_ 0.846965 0.795961 0.223459 -0.60745
O_ O_ 0.591955 0.787917 0.280858 -0.60745
O_ O_ 0.847316 0.798331 0.291896 -0.60745
O_ O_ 0.655371 0.79269 0.281756 -0.60745
O_ O_ 0.909175 0.797114 0.292334 -0.60745
O_ O_ 0.655886 0.789615 0.212482 -0.60745
O_ O_ 0.909466 0.79484 0.223271 -0.60745
O_ O_ 0.657447 0.703696 0.28677 -0.60745
O_ O_ 0.911512 0.709022 0.295976 -0.60745
O_ O_ 0.654053 0.697199 0.219064 -0.60745
O_ O_ 0.906444 0.708118 0.227263 -0.60745
O_ O_ 0.590592 0.705603 0.217265 -0.60745
O_ O_ 0.843972 0.710054 0.22568 -0.60745
O_ O_ 0.593503 0.703664 0.285926 -0.60745
O_ O_ 0.846094 0.709857 0.293702 -0.60745
Zn Zn 0.6208 0.748138 0.784402 0.9476
Zn Zn 0.86952 0.747944 0.791868 0.9476
Zn Zn 0.624077 0.748496 0.716619 0.9476
Zn Zn 0.873173 0.750617 0.723896 0.9476
H_ H_ 0.541706 0.927763 0.685987 0.10932
H_ H_ 0.775933 0.910276 0.689228 0.10932
H_ H_ 0.539199 0.827807 0.80484 0.10932
H_ H_ 0.800571 0.844364 0.823652 0.10932
H_ H_ 0.574786 0.864734 0.686203 0.10932
H_ H_ 0.811856 0.854352 0.690403 0.10932
H_ H_ 0.518844 0.895595 0.816264 0.10932
H_ H_ 0.777741 0.915469 0.82209 0.10932
H_ H_ 0.71604 0.916592 0.821349 0.10932
H_ H_ 0.965634 0.915751 0.825445 0.10932
H_ H_ 0.673389 0.861553 0.688651 0.10932
H_ H_ 0.925675 0.854958 0.69067 0.10932
H_ H_ 0.686254 0.854337 0.82498 0.10932
H_ H_ 0.932998 0.858741 0.824428 0.10932
H_ H_ 0.706912 0.91934 0.685113 0.10932
H_ H_ 0.959227 0.915459 0.6882 0.10932
H_ H_ 0.705364 0.574465 0.816107 0.10932
H_ H_ 0.952276 0.572402 0.816762 0.10932
H_ H_ 0.695276 0.654908 0.68355 0.10932
H_ H_ 0.949058 0.663875 0.690255 0.10932
H_ H_ 0.678004 0.638944 0.811829 0.10932
H_ H_ 0.922865 0.639298 0.821697 0.10932
H_ H_ 0.718966 0.584544 0.682879 0.10932
H_ H_ 0.971587 0.597564 0.688609 0.10932
H_ H_ 0.515258 0.60042 0.682838 0.10932
H_ H_ 0.792716 0.574017 0.684873 0.10932
H_ H_ 0.570941 0.635012 0.812472 0.10932
H_ H_ 0.810552 0.647403 0.819384 0.10932
H_ H_ 0.546066 0.662589 0.684538 0.10932
H_ H_ 0.825175 0.631671 0.685443 0.10932
H_ H_ 0.544598 0.570616 0.810035 0.10932
H_ H_ 0.776939 0.582477 0.819139 0.10932
H_ H_ 0.628646 0.688545 0.86286 0.10932
H_ H_ 0.882169 0.679778 0.85864 0.10932
H_ H_ 0.609385 0.81496 0.854757 0.10932
H_ H_ 0.856975 0.806411 0.87201 0.10932
H_ H_ 0.606347 0.817931 0.932567 0.10932
H_ H_ 0.865882 0.799227 0.948319 0.10932
H_ H_ 0.628623 0.690616 0.939984 0.10932
H_ H_ 0.887225 0.671303 0.93518 0.10932
H_ H_ 0.597715 0.689649 0.640377 0.10932
H_ H_ 0.876308 0.810141 0.641903 0.10932
H_ H_ 0.644752 0.803294 0.642 0.10932
H_ H_ 0.871529 0.680785 0.655944 0.10932
H_ H_ 0.644896 0.804172 0.564804 0.10932
H_ H_ 0.870176 0.673247 0.578919 0.10932
H_ H_ 0.593386 0.691626 0.56786 0.10932
H_ H_ 0.892967 0.803876 0.571891 0.10932
C_ C_ 0.560942 0.8419 0.747468 -0.02249
C_ C_ 0.810794 0.842498 0.755441 -0.02249
C_ C_ 0.512716 0.957868 0.751273 -0.02249
C_ C_ 0.762271 0.959858 0.756276 -0.02249
C_ C_ 0.541779 0.90603 0.712365 -0.11473
C_ C_ 0.7853 0.898878 0.718948 -0.11473
C_ C_ 0.542871 0.851548 0.782004 -0.11473
C_ C_ 0.801705 0.861029 0.794932 -0.11473
C_ C_ 0.560142 0.869499 0.712681 -0.11473
C_ C_ 0.805684 0.867396 0.719665 -0.11473
C_ C_ 0.527209 0.916425 0.749766 -0.02249
C_ C_ 0.778155 0.91862 0.756028 -0.02249
C_ C_ 0.580608 0.805243 0.748111 0.6875
C_ C_ 0.827344 0.80404 0.754905 0.6875
C_ C_ 0.527177 0.888588 0.785997 -0.11473
C_ C_ 0.783305 0.898663 0.794223 -0.11473
C_ C_ 0.679838 0.849639 0.755492 -0.02249
C_ C_ 0.928856 0.851385 0.756742 -0.02249
C_ C_ 0.730299 0.962334 0.75469 -0.02249
C_ C_ 0.981818 0.962986 0.755523 -0.02249
C_ C_ 0.710403 0.900399 0.791846 -0.11473
C_ C_ 0.957436 0.904424 0.795214 -0.11473
C_ C_ 0.685024 0.870345 0.71724 -0.11473
C_ C_ 0.934284 0.870326 0.720085 -0.11473
C_ C_ 0.692143 0.866271 0.794363 -0.11473
C_ C_ 0.939497 0.869401 0.794899 -0.11473
C_ C_ 0.714798 0.920493 0.753826 -0.02249
C_ C_ 0.964939 0.924207 0.757207 -0.02249
C_ C_ 0.66238 0.81049 0.754474 0.6875
C_ C_ 0.909488 0.81281 0.757056 0.6875
C_ C_ 0.704469 0.902857 0.716623 -0.11473
C_ C_ 0.951446 0.906453 0.718879 -0.11473
C_ C_ 0.682711 0.648628 0.748797 -0.02249
C_ C_ 0.933753 0.655845 0.75663 -0.02249
C_ C_ 0.733976 0.535799 0.752381 -0.02249
C_ C_ 0.983874 0.54067 0.752404 -0.02249
C_ C_ 0.704907 0.592133 0.786975 -0.11473
C_ C_ 0.951748 0.590886 0.791074 -0.11473
C_ C_ 0.697429 0.636022 0.713021 -0.11473
C_ C_ 0.950903 0.646472 0.720204 -0.11473
C_ C_ 0.68853 0.6287 0.786216 -0.11473
C_ C_ 0.936236 0.629741 0.792377 -0.11473
C_ C_ 0.71774 0.575881 0.750816 -0.02249
C_ C_ 0.969177 0.581362 0.754967 -0.02249
C_ C_ 0.66227 0.687149 0.746388 0.6875
C_ C_ 0.913334 0.692119 0.75679 0.6875
C_ C_ 0.710536 0.596982 0.71164 -0.11473
C_ C_ 0.967241 0.607937 0.719608 -0.11473
C_ C_ 0.561392 0.653472 0.748771 -0.02249
C_ C_ 0.816175 0.646693 0.753143 -0.02249
C_ C_ 0.512165 0.537822 0.742495 -0.02249
C_ C_ 0.765863 0.535243 0.753484 -0.02249
C_ C_ 0.52956 0.605561 0.709897 -0.11473
C_ C_ 0.796695 0.586644 0.715548 -0.11473
C_ C_ 0.558592 0.628464 0.784871 -0.11473
C_ C_ 0.805361 0.630708 0.790937 -0.11473
C_ C_ 0.545387 0.642901 0.712172 -0.11473
C_ C_ 0.815036 0.622081 0.716276 -0.11473
C_ C_ 0.528503 0.577997 0.744878 -0.02249
C_ C_ 0.783242 0.573199 0.752826 -0.02249
C_ C_ 0.580833 0.691271 0.751177 0.6875
C_ C_ 0.834606 0.686466 0.753687 0.6875
C_ C_ 0.5436 0.591628 0.781817 -0.11473
C_ C_ 0.78764 0.593807 0.791079 -0.11473
C_ C_ 0.623848 0.716489 0.878007 0.17695
C_ C_ 0.877715 0.705955 0.879578 0.17695
C_ C_ 0.618146 0.789213 0.873534 0.17695
C_ C_ 0.864485 0.775825 0.886042 0.17695
C_ C_ 0.615329 0.791134 0.918125 -0.11473
C_ C_ 0.869105 0.772586 0.93012 -0.11473
C_ C_ 0.620312 0.756668 0.941619 0.23465
C_ C_ 0.875792 0.734912 0.948145 0.23465
C_ C_ 0.623092 0.718048 0.921164 -0.11473
C_ C_ 0.883102 0.702338 0.921623 -0.11473
C_ C_ 0.610596 0.714142 0.625118 0.17695
C_ C_ 0.881842 0.779615 0.631105 0.17695
C_ C_ 0.636014 0.777598 0.624555 0.17695
C_ C_ 0.869467 0.708434 0.635044 0.17695
C_ C_ 0.63518 0.778872 0.580807 -0.11473
C_ C_ 0.872499 0.704942 0.591854 -0.11473
C_ C_ 0.621654 0.746233 0.558275 0.23465
C_ C_ 0.882434 0.737092 0.567175 0.23465
C_ C_ 0.605664 0.71629 0.582203 -0.11473
C_ C_ 0.888187 0.775304 0.587939 -0.11473
C_ C_ 0.530123 -0.006508999999999987 0.755184 0.05793
C_ C_ 0.778884 -0.00276299999999996 0.753966 0.05793
C_ C_ 0.718517 0.4979 0.749986 0.05793
C_ C_ 0.966851 0.502483 0.751369 0.05793
Br Br 0.573686 -0.010102000000000055 0.760861 -0.17191
Br Br 0.823144 0.995258 0.747381 -0.17191
Br Br 0.674928 0.495826 0.745854 -0.17191
Br Br 0.92375 0.509378 0.743373 -0.17191
N_ N_ 0.621371 0.751355 0.854241 -0.272
N_ N_ 0.869382 0.742888 0.861979 -0.272
N_ N_ 0.614034 0.759727 0.985319 -0.12501
N_ N_ 0.877741 0.730528 0.993252 -0.12501
N_ N_ 0.624326 0.745147 0.64478 -0.272
N_ N_ 0.871064 0.747492 0.654657 -0.272
N_ N_ 0.627144 0.738452 0.514201 -0.12501
N_ N_ 0.878588 0.734657 0.522031 -0.12501
O_ O_ 0.59395 0.795279 0.714415 -0.60745
O_ O_ 0.839483 0.792486 0.720256 -0.60745
O_ O_ 0.588034 0.788686 0.78219 -0.60745
O_ O_ 0.834481 0.787363 0.789678 -0.60745
O_ O_ 0.650727 0.796465 0.786791 -0.60745
O_ O_ 0.897127 0.798677 0.790074 -0.60745
O_ O_ 0.655147 0.794773 0.719052 -0.60745
O_ O_ 0.901711 0.796304 0.722285 -0.60745
O_ O_ 0.653262 0.702215 0.78057 -0.60745
O_ O_ 0.902757 0.70724 0.790455 -0.60745
O_ O_ 0.654176 0.704659 0.71254 -0.60745
O_ O_ 0.90701 0.71011 0.723266 -0.60745
O_ O_ 0.593171 0.703264 0.717969 -0.60745
O_ O_ 0.845903 0.700665 0.721627 -0.60745
O_ O_ 0.593004 0.702963 0.786056 -0.60745
O_ O_ 0.843387 0.699658 0.788691 -0.60745
