_cell_length_a 44.444
_cell_length_b 32.3360000049186
_cell_length_c 31.843999878906452
_cell_angle_alpha 89.99799923859553
_cell_angle_beta 91.13600050494348
_cell_angle_gamma 89.9990006550086
_symmetry_space_group_name_H-M         'P 1'
_symmetry_Int_Tables_number            1
loop_
_symmetry_equiv_pos_as_xyz
   'x, y, z'
                         
loop_
_atom_site_label
_atom_site_type_symbol
_atom_site_fract_x 
_atom_site_fract_y
_atom_site_fract_z
_atom_site_charge
Zn Zn 0.124099 0.251278 0.284787 0.9476
Zn Zn 0.377194 0.250009 0.285643 0.9476
Zn Zn 0.122855 0.25207 0.213586 0.9476
Zn Zn 0.374718 0.253359 0.216906 0.9476
H_ H_ 0.0249879 0.408341 0.174292 0.10932
H_ H_ 0.274372 0.416222 0.189706 0.10932
H_ H_ 0.0745199 0.366468 0.310316 0.10932
H_ H_ 0.320084 0.365214 0.323332 0.10932
H_ H_ 0.059011 0.345618 0.178971 0.10932
H_ H_ 0.302558 0.351092 0.188765 0.10932
H_ H_ 0.0345241 0.424415 0.307953 0.10932
H_ H_ 0.287964 0.426948 0.323748 0.10932
H_ H_ 0.213286 0.416988 0.325301 0.10932
H_ H_ 0.475805 0.411248 0.3223 0.10932
H_ H_ 0.176445 0.360068 0.188782 0.10932
H_ H_ 0.433669 0.364324 0.183646 0.10932
H_ H_ 0.182898 0.350704 0.321765 0.10932
H_ H_ 0.445873 0.344584 0.321906 0.10932
H_ H_ 0.207348 0.427293 0.1923 0.10932
H_ H_ 0.464434 0.424267 0.188744 0.10932
H_ H_ 0.223982 0.0919534 0.301518 0.10932
H_ H_ 0.468122 0.0880133 0.313813 0.10932
H_ H_ 0.175246 0.15116 0.172524 0.10932
H_ H_ 0.428887 0.147435 0.177777 0.10932
H_ H_ 0.197633 0.161109 0.303917 0.10932
H_ H_ 0.444759 0.155148 0.311795 0.10932
H_ H_ 0.21347 0.089947 0.169503 0.10932
H_ H_ 0.458605 0.0808507 0.176767 0.10932
H_ H_ 0.0174961 0.0940805 0.185142 0.10932
H_ H_ 0.282099 0.0841031 0.186561 0.10932
H_ H_ 0.0670354 0.145765 0.314837 0.10932
H_ H_ 0.316085 0.155733 0.316615 0.10932
H_ H_ 0.0474313 0.159218 0.183018 0.10932
H_ H_ 0.312711 0.146164 0.181663 0.10932
H_ H_ 0.0518741 0.0759788 0.311407 0.10932
H_ H_ 0.288102 0.0870768 0.318924 0.10932
H_ H_ 0.123286 0.183248 0.357534 0.10932
H_ H_ 0.357768 0.187329 0.354197 0.10932
H_ H_ 0.137801 0.310802 0.35639 0.10932
H_ H_ 0.388812 0.311537 0.371758 0.10932
H_ H_ 0.141379 0.314549 0.435266 0.10932
H_ H_ 0.382678 0.304818 0.449035 0.10932
H_ H_ 0.129465 0.181627 0.432084 0.10932
H_ H_ 0.362272 0.17582 0.428168 0.10932
H_ H_ 0.118155 0.316154 0.125022 0.10932
H_ H_ 0.392291 0.192863 0.138568 0.10932
H_ H_ 0.129017 0.189105 0.146207 0.10932
H_ H_ 0.364197 0.316418 0.149044 0.10932
H_ H_ 0.122593 0.176702 0.069086 0.10932
H_ H_ 0.354871 0.319175 0.073697 0.10932
H_ H_ 0.116015 0.306401 0.0511698 0.10932
H_ H_ 0.39525 0.199014 0.0602493 0.10932
C_ C_ 0.0652593 0.349749 0.245557 -0.02249
C_ C_ 0.31595 0.352309 0.255449 -0.02249
C_ C_ 0.0165127 0.464701 0.238012 -0.02249
C_ C_ 0.261725 0.464216 0.253196 -0.02249
C_ C_ 0.0380681 0.40024 0.203908 -0.11473
C_ C_ 0.282549 0.4026 0.21888 -0.11473
C_ C_ 0.0629613 0.37577 0.281135 -0.11473
C_ C_ 0.310362 0.374669 0.293977 -0.11473
C_ C_ 0.0541662 0.363021 0.207605 -0.11473
C_ C_ 0.301735 0.367645 0.218387 -0.11473
C_ C_ 0.0335598 0.425197 0.239351 -0.02249
C_ C_ 0.277246 0.424526 0.256679 -0.02249
C_ C_ 0.0848518 0.312218 0.249859 0.6875
C_ C_ 0.339452 0.317586 0.252547 0.6875
C_ C_ 0.0435148 0.410812 0.278788 -0.11473
C_ C_ 0.29021 0.408398 0.294531 -0.11473
C_ C_ 0.177597 0.352454 0.255953 -0.02249
C_ C_ 0.435252 0.349981 0.253899 -0.02249
C_ C_ 0.23036 0.465052 0.257706 -0.02249
C_ C_ 0.485158 0.465323 0.257844 -0.02249
C_ C_ 0.205119 0.405733 0.294743 -0.11473
C_ C_ 0.465608 0.401709 0.293011 -0.11473
C_ C_ 0.184827 0.371682 0.218778 -0.11473
C_ C_ 0.442783 0.370527 0.215858 -0.11473
C_ C_ 0.186837 0.370311 0.294417 -0.11473
C_ C_ 0.447977 0.364364 0.292135 -0.11473
C_ C_ 0.210463 0.426575 0.257911 -0.02249
C_ C_ 0.468857 0.425438 0.25655 -0.02249
C_ C_ 0.160323 0.313307 0.253457 0.6875
C_ C_ 0.416653 0.312208 0.253284 0.6875
C_ C_ 0.198995 0.411413 0.22029 -0.11473
C_ C_ 0.458033 0.40865 0.218117 -0.11473
C_ C_ 0.184063 0.15778 0.238323 -0.02249
C_ C_ 0.43473 0.155411 0.24655 -0.02249
C_ C_ 0.233609 0.0444887 0.240022 -0.02249
C_ C_ 0.48205 0.0381141 0.241913 -0.02249
C_ C_ 0.215306 0.106403 0.273081 -0.11473
C_ C_ 0.461151 0.100244 0.284015 -0.11473
C_ C_ 0.187345 0.137186 0.200195 -0.11473
C_ C_ 0.439122 0.135598 0.207946 -0.11473
C_ C_ 0.200261 0.144869 0.273568 -0.11473
C_ C_ 0.448061 0.139218 0.282393 -0.11473
C_ C_ 0.216895 0.0838584 0.237419 -0.02249
C_ C_ 0.465993 0.0792745 0.24478 -0.02249
C_ C_ 0.163751 0.193105 0.242491 0.6875
C_ C_ 0.414846 0.192189 0.251388 0.6875
C_ C_ 0.204977 0.0984699 0.199405 -0.11473
C_ C_ 0.45454 0.097078 0.2066 -0.11473
C_ C_ 0.063239 0.156392 0.24777 -0.02249
C_ C_ 0.312167 0.160994 0.248204 -0.02249
C_ C_ 0.0156852 0.0402817 0.251116 -0.02249
C_ C_ 0.264156 0.0434252 0.2534 -0.02249
C_ C_ 0.0304513 0.104541 0.21231 -0.11473
C_ C_ 0.291208 0.0980248 0.21473 -0.11473
C_ C_ 0.0615596 0.13251 0.284246 -0.11473
C_ C_ 0.305722 0.143645 0.288612 -0.11473
C_ C_ 0.0488712 0.140871 0.210866 -0.11473
C_ C_ 0.306785 0.136915 0.21097 -0.11473
C_ C_ 0.0324302 0.0797403 0.24742 -0.02249
C_ C_ 0.282194 0.0827496 0.253085 -0.02249
C_ C_ 0.080593 0.195431 0.248057 0.6875
C_ C_ 0.331768 0.196858 0.247815 0.6875
C_ C_ 0.0477205 0.0946954 0.283479 -0.11473
C_ C_ 0.292523 0.10196 0.288469 -0.11473
C_ C_ 0.126272 0.212573 0.375434 0.17695
C_ C_ 0.364404 0.21301 0.37384 0.17695
C_ C_ 0.134752 0.283676 0.374422 0.17695
C_ C_ 0.381989 0.28137 0.383918 0.17695
C_ C_ 0.139003 0.284946 0.418392 -0.11473
C_ C_ 0.378066 0.277837 0.42784 -0.11473
C_ C_ 0.132653 0.248363 0.441645 0.23465
C_ C_ 0.369145 0.240616 0.445527 0.23465
C_ C_ 0.12763 0.212006 0.418632 -0.11473
C_ C_ 0.364543 0.205872 0.417049 -0.11473
C_ C_ 0.118678 0.285098 0.113045 0.17695
C_ C_ 0.383522 0.219691 0.122195 0.17695
C_ C_ 0.123119 0.213178 0.12534 0.17695
C_ C_ 0.368243 0.288005 0.130026 0.17695
C_ C_ 0.121442 0.206414 0.0812419 -0.11473
C_ C_ 0.364037 0.290974 0.0862325 -0.11473
C_ C_ 0.118193 0.240414 0.0532097 0.23465
C_ C_ 0.373858 0.260197 0.0576531 0.23465
C_ C_ 0.115146 0.27985 0.0707715 -0.11473
C_ C_ 0.382784 0.222625 0.0773075 -0.11473
C_ C_ 0.0314073 0.50275 0.229401 0.05793
C_ C_ 0.277663 0.502037 0.24872 0.05793
C_ C_ 0.218995 0.0057928 0.235751 0.05793
C_ C_ 0.466485 0.99888568 0.236332 0.05793
Br Br 0.0718194 0.504487 0.206944 -0.17191
Br Br 0.320626 0.502141 0.246058 -0.17191
Br Br 0.1778 0.0064167 0.215883 -0.17191
Br Br 0.42285 1.000319395 0.230644 -0.17191
N_ N_ 0.12814 0.249092 0.35417 -0.272
N_ N_ 0.373239 0.250304 0.357485 -0.272
N_ N_ 0.13891 0.248915 0.485874 -0.12501
N_ N_ 0.370184 0.233177 0.487699 -0.12501
N_ N_ 0.122331 0.252385 0.140057 -0.272
N_ N_ 0.375977 0.252167 0.146286 -0.272
N_ N_ 0.115117 0.232805 0.00944393 -0.12501
N_ N_ 0.371429 0.267685 0.0128882 -0.12501
O_ O_ 0.0868321 0.288486 0.217727 -0.60745
O_ O_ 0.342079 0.298175 0.218111 -0.60745
O_ O_ 0.0954473 0.299657 0.284747 -0.60745
O_ O_ 0.351759 0.302407 0.285028 -0.60745
O_ O_ 0.15666 0.290821 0.285677 -0.60745
O_ O_ 0.409966 0.292723 0.28674 -0.60745
O_ O_ 0.147954 0.302879 0.21879 -0.60745
O_ O_ 0.404934 0.300295 0.21974 -0.60745
O_ O_ 0.155575 0.203914 0.280047 -0.60745
O_ O_ 0.403463 0.19967 0.287111 -0.60745
O_ O_ 0.156087 0.214499 0.210027 -0.60745
O_ O_ 0.408482 0.214715 0.218954 -0.60745
O_ O_ 0.09539 0.202893 0.215719 -0.60745
O_ O_ 0.342826 0.210112 0.214082 -0.60745
O_ O_ 0.0889176 0.212484 0.282054 -0.60745
O_ O_ 0.340679 0.213896 0.281727 -0.60745
Zn Zn 0.12658 0.244597 0.781776 0.9476
Zn Zn 0.377146 0.246169 0.788073 0.9476
Zn Zn 0.127586 0.245059 0.711478 0.9476
Zn Zn 0.375889 0.246159 0.716743 0.9476
H_ H_ 0.0464679 0.418013 0.674462 0.10932
H_ H_ 0.280369 0.405535 0.681519 0.10932
H_ H_ 0.059325 0.345213 0.807863 0.10932
H_ H_ 0.330411 0.357547 0.810167 0.10932
H_ H_ 0.0768559 0.359301 0.673997 0.10932
H_ H_ 0.30142 0.332222 0.684514 0.10932
H_ H_ 0.0292697 0.412033 0.802779 0.10932
H_ H_ 0.302415 0.429114 0.809241 0.10932
H_ H_ 0.211864 0.417423 0.820226 0.10932
H_ H_ 0.472756 0.416099 0.81945 0.10932
H_ H_ 0.18656 0.348183 0.684505 0.10932
H_ H_ 0.430771 0.351581 0.687381 0.10932
H_ H_ 0.180439 0.356233 0.817533 0.10932
H_ H_ 0.449087 0.345031 0.82216 0.10932
H_ H_ 0.220141 0.411599 0.683722 0.10932
H_ H_ 0.461626 0.414458 0.688456 0.10932
H_ H_ 0.238576 0.0954208 0.809083 0.10932
H_ H_ 0.479192 0.0951288 0.818748 0.10932
H_ H_ 0.167134 0.119855 0.692195 0.10932
H_ H_ 0.429292 0.138212 0.684013 0.10932
H_ H_ 0.206615 0.155586 0.80933 0.10932
H_ H_ 0.442178 0.150616 0.819051 0.10932
H_ H_ 0.207583 0.0657575 0.682535 0.10932
H_ H_ 0.454677 0.0686639 0.689557 0.10932
H_ H_ 0.0133665 0.0952994 0.686162 0.10932
H_ H_ 0.287084 0.0799893 0.67909 0.10932
H_ H_ 0.0830322 0.127614 0.810766 0.10932
H_ H_ 0.330765 0.131004 0.81188 0.10932
H_ H_ 0.0442844 0.160127 0.684697 0.10932
H_ H_ 0.310694 0.151033 0.684872 0.10932
H_ H_ 0.0494243 0.0644679 0.806343 0.10932
H_ H_ 0.304218 0.0646951 0.811264 0.10932
H_ H_ 0.120459 0.313827 0.851252 0.10932
H_ H_ 0.364223 0.307814 0.862027 0.10932
H_ H_ 0.126844 0.18806 0.858274 0.10932
H_ H_ 0.385796 0.182731 0.8542 0.10932
H_ H_ 0.123758 0.190139 0.937052 0.10932
H_ H_ 0.385607 0.174674 0.931133 0.10932
H_ H_ 0.13056 0.321345 0.929659 0.10932
H_ H_ 0.371185 0.305642 0.940459 0.10932
H_ H_ 0.125976 0.179309 0.640386 0.10932
H_ H_ 0.371694 0.183199 0.636685 0.10932
H_ H_ 0.127613 0.311631 0.640897 0.10932
H_ H_ 0.376852 0.311465 0.651772 0.10932
H_ H_ 0.131656 0.312773 0.564033 0.10932
H_ H_ 0.374819 0.324156 0.573268 0.10932
H_ H_ 0.120241 0.180688 0.562108 0.10932
H_ H_ 0.369381 0.191063 0.560201 0.10932
C_ C_ 0.0701491 0.34495 0.74177 -0.02249
C_ C_ 0.314666 0.339678 0.749654 -0.02249
C_ C_ 0.0164771 0.457502 0.733667 -0.02249
C_ C_ 0.265205 0.457372 0.746038 -0.02249
C_ C_ 0.045032 0.400757 0.701509 -0.11473
C_ C_ 0.286196 0.391448 0.711844 -0.11473
C_ C_ 0.0558334 0.360389 0.778242 -0.11473
C_ C_ 0.315334 0.367048 0.784938 -0.11473
C_ C_ 0.0637964 0.366381 0.702517 -0.11473
C_ C_ 0.303008 0.354962 0.711977 -0.11473
C_ C_ 0.0345231 0.419092 0.737945 -0.02249
C_ C_ 0.282452 0.415763 0.74848 -0.02249
C_ C_ 0.0883735 0.306266 0.743307 0.6875
C_ C_ 0.337376 0.305258 0.748582 0.6875
C_ C_ 0.0390629 0.398648 0.775962 -0.11473
C_ C_ 0.29969 0.404469 0.784021 -0.11473
C_ C_ 0.18753 0.342198 0.75233 -0.02249
C_ C_ 0.434047 0.346722 0.756914 -0.02249
C_ C_ 0.233644 0.458551 0.752937 -0.02249
C_ C_ 0.485198 0.457857 0.753278 -0.02249
C_ C_ 0.208825 0.400141 0.789572 -0.11473
C_ C_ 0.462723 0.399546 0.792452 -0.11473
C_ C_ 0.196016 0.361309 0.712927 -0.11473
C_ C_ 0.441682 0.362608 0.717064 -0.11473
C_ C_ 0.190871 0.364413 0.789774 -0.11473
C_ C_ 0.450493 0.36038 0.794877 -0.11473
C_ C_ 0.216449 0.419708 0.751885 -0.02249
C_ C_ 0.468269 0.41816 0.752211 -0.02249
C_ C_ 0.168229 0.301957 0.751749 0.6875
C_ C_ 0.415021 0.308471 0.756272 0.6875
C_ C_ 0.211515 0.397813 0.713539 -0.11473
C_ C_ 0.457247 0.399536 0.716318 -0.11473
C_ C_ 0.185616 0.145653 0.748972 -0.02249
C_ C_ 0.434642 0.150314 0.750839 -0.02249
C_ C_ 0.238577 0.0335099 0.749457 -0.02249
C_ C_ 0.484489 0.0356662 0.754502 -0.02249
C_ C_ 0.223531 0.102888 0.781138 -0.11473
C_ C_ 0.463835 0.0986019 0.792698 -0.11473
C_ C_ 0.184677 0.11843 0.71493 -0.11473
C_ C_ 0.437551 0.126526 0.714479 -0.11473
C_ C_ 0.206343 0.138278 0.781905 -0.11473
C_ C_ 0.44567 0.13279 0.790653 -0.11473
C_ C_ 0.221231 0.0741704 0.748986 -0.02249
C_ C_ 0.467015 0.0747086 0.754975 -0.02249
C_ C_ 0.164288 0.182001 0.7498 0.6875
C_ C_ 0.413631 0.185166 0.751263 0.6875
C_ C_ 0.204708 0.0851058 0.712672 -0.11473
C_ C_ 0.454404 0.0906277 0.716781 -0.11473
C_ C_ 0.064994 0.150269 0.748323 -0.02249
C_ C_ 0.31839 0.147312 0.7488 -0.02249
C_ C_ 0.0147816 0.0348549 0.740522 -0.02249
C_ C_ 0.270046 0.0319997 0.748202 -0.02249
C_ C_ 0.0306008 0.10151 0.710885 -0.11473
C_ C_ 0.292657 0.0923541 0.70996 -0.11473
C_ C_ 0.0678638 0.12143 0.782891 -0.11473
C_ C_ 0.316803 0.122724 0.78572 -0.11473
C_ C_ 0.0465081 0.138856 0.713208 -0.11473
C_ C_ 0.307644 0.132153 0.711633 -0.11473
C_ C_ 0.0330408 0.0737945 0.744521 -0.02249
C_ C_ 0.286541 0.0707795 0.748751 -0.02249
C_ C_ 0.0850349 0.186544 0.747127 0.6875
C_ C_ 0.336905 0.186471 0.74943 0.6875
C_ C_ 0.0521824 0.0832197 0.779769 -0.11473
C_ C_ 0.301418 0.0841793 0.784471 -0.11473
C_ C_ 0.126885 0.288464 0.869344 0.17695
C_ C_ 0.369248 0.278599 0.879257 0.17695
C_ C_ 0.125152 0.215679 0.874822 0.17695
C_ C_ 0.383744 0.209718 0.87352 0.17695
C_ C_ 0.123873 0.217033 0.918708 -0.11473
C_ C_ 0.384522 0.204953 0.917712 -0.11473
C_ C_ 0.122167 0.255874 0.938838 0.23465
C_ C_ 0.379768 0.240187 0.94416 0.23465
C_ C_ 0.12674 0.291982 0.914252 -0.11473
C_ C_ 0.372799 0.277786 0.923763 -0.11473
C_ C_ 0.124297 0.208666 0.623394 0.17695
C_ C_ 0.369592 0.213363 0.621144 0.17695
C_ C_ 0.127259 0.282618 0.622015 0.17695
C_ C_ 0.372337 0.285564 0.629609 0.17695
C_ C_ 0.126412 0.283573 0.578373 -0.11473
C_ C_ 0.36985 0.29316 0.585491 -0.11473
C_ C_ 0.122757 0.24685 0.556983 0.23465
C_ C_ 0.371043 0.258157 0.55835 0.23465
C_ C_ 0.122139 0.209536 0.578925 -0.11473
C_ C_ 0.371447 0.217575 0.577037 -0.11473
C_ C_ 0.0335746 0.495733 0.72916 0.05793
C_ C_ 0.280424 0.495502 0.738873 0.05793
C_ C_ 0.222243 -0.0034049999999999914 0.74585 0.05793
C_ C_ 0.468629 0.998456 0.761893 0.05793
Br Br 0.0752903 0.496507 0.713333 -0.17191
Br Br 0.322201 0.490852 0.728681 -0.17191
Br Br 0.178909 -0.00031199999999997896 0.755039 -0.17191
Br Br 0.425369 0.997225 0.764304 -0.17191
N_ N_ 0.126344 0.249926 0.85087 -0.272
N_ N_ 0.376662 0.245931 0.855599 -0.272
N_ N_ 0.122214 0.26034 0.984259 -0.12501
N_ N_ 0.378277 0.237947 0.988695 -0.12501
N_ N_ 0.127183 0.245859 0.642956 -0.272
N_ N_ 0.370761 0.24699 0.646653 -0.272
N_ N_ 0.117609 0.247003 0.511833 -0.12501
N_ N_ 0.369662 0.262974 0.513045 -0.12501
O_ O_ 0.0957674 0.286526 0.712198 -0.60745
O_ O_ 0.345699 0.290428 0.713509 -0.60745
O_ O_ 0.0977486 0.292674 0.778891 -0.60745
O_ O_ 0.345143 0.289679 0.783082 -0.60745
O_ O_ 0.155327 0.290776 0.784501 -0.60745
O_ O_ 0.404314 0.293779 0.789784 -0.60745
O_ O_ 0.158516 0.289319 0.715295 -0.60745
O_ O_ 0.407199 0.291724 0.720936 -0.60745
O_ O_ 0.155857 0.194435 0.785137 -0.60745
O_ O_ 0.409484 0.205918 0.784698 -0.60745
O_ O_ 0.158538 0.200978 0.714901 -0.60745
O_ O_ 0.404253 0.200558 0.716647 -0.60745
O_ O_ 0.0960862 0.19889 0.713745 -0.60745
O_ O_ 0.341432 0.203328 0.714995 -0.60745
O_ O_ 0.0948388 0.202232 0.780133 -0.60745
O_ O_ 0.350215 0.199584 0.78277 -0.60745
Zn Zn 0.122998 0.754649 0.282684 0.9476
Zn Zn 0.371328 0.752377 0.279935 0.9476
Zn Zn 0.125795 0.752835 0.21659 0.9476
Zn Zn 0.369681 0.753497 0.209032 0.9476
H_ H_ 0.0413787 0.929757 0.181803 0.10932
H_ H_ 0.295163 0.931668 0.183873 0.10932
H_ H_ 0.0584707 0.851 0.313543 0.10932
H_ H_ 0.299936 0.845798 0.312964 0.10932
H_ H_ 0.0744499 0.864164 0.183547 0.10932
H_ H_ 0.320104 0.863617 0.182252 0.10932
H_ H_ 0.031127 0.91601 0.311788 0.10932
H_ H_ 0.272598 0.91105 0.313592 0.10932
H_ H_ 0.21655 0.92744 0.305649 0.10932
H_ H_ 0.461565 0.925199 0.30245 0.10932
H_ H_ 0.17596 0.860676 0.176933 0.10932
H_ H_ 0.451272 0.837848 0.176091 0.10932
H_ H_ 0.20539 0.852313 0.306558 0.10932
H_ H_ 0.421433 0.86608 0.30289 0.10932
H_ H_ 0.21196 0.918504 0.171667 0.10932
H_ H_ 0.479358 0.904129 0.176392 0.10932
H_ H_ 0.220551 0.596023 0.318234 0.10932
H_ H_ 0.465881 0.595633 0.315392 0.10932
H_ H_ 0.161717 0.624985 0.186415 0.10932
H_ H_ 0.444951 0.652409 0.178335 0.10932
H_ H_ 0.187434 0.655494 0.317443 0.10932
H_ H_ 0.430173 0.652533 0.3125 0.10932
H_ H_ 0.200624 0.570017 0.188703 0.10932
H_ H_ 0.461186 0.581998 0.181591 0.10932
H_ H_ 0.0353249 0.589387 0.170564 0.10932
H_ H_ 0.276519 0.589958 0.178338 0.10932
H_ H_ 0.0711827 0.638482 0.309102 0.10932
H_ H_ 0.314137 0.646905 0.313757 0.10932
H_ H_ 0.0591306 0.66065 0.173978 0.10932
H_ H_ 0.311851 0.647571 0.181677 0.10932
H_ H_ 0.0355016 0.576567 0.303456 0.10932
H_ H_ 0.281628 0.58652 0.315737 0.10932
H_ H_ 0.125088 0.818901 0.354698 0.10932
H_ H_ 0.367988 0.825039 0.350473 0.10932
H_ H_ 0.120421 0.686514 0.359341 0.10932
H_ H_ 0.372286 0.690517 0.361722 0.10932
H_ H_ 0.119215 0.688425 0.435605 0.10932
H_ H_ 0.377877 0.698844 0.440183 0.10932
H_ H_ 0.123469 0.819593 0.435353 0.10932
H_ H_ 0.370971 0.830434 0.428282 0.10932
H_ H_ 0.128502 0.682723 0.147685 0.10932
H_ H_ 0.357976 0.820201 0.136515 0.10932
H_ H_ 0.121528 0.81041 0.136893 0.10932
H_ H_ 0.379888 0.693511 0.133043 0.10932
H_ H_ 0.127451 0.805664 0.0619578 0.10932
H_ H_ 0.380939 0.6947 0.0559835 0.10932
H_ H_ 0.131192 0.674862 0.0702477 0.10932
H_ H_ 0.345719 0.820534 0.060928 0.10932
C_ C_ 0.0633112 0.848469 0.245167 -0.02249
C_ C_ 0.31134 0.848449 0.245283 -0.02249
C_ C_ 0.0140452 0.964684 0.248602 -0.02249
C_ C_ 0.265604 0.967358 0.248142 -0.02249
C_ C_ 0.043259 0.91061 0.208841 -0.11473
C_ C_ 0.293258 0.910879 0.21045 -0.11473
C_ C_ 0.054639 0.866828 0.283749 -0.11473
C_ C_ 0.299108 0.863218 0.283791 -0.11473
C_ C_ 0.057819 0.870282 0.20769 -0.11473
C_ C_ 0.308304 0.873128 0.209342 -0.11473
C_ C_ 0.0314345 0.924238 0.245946 -0.02249
C_ C_ 0.281836 0.926001 0.248466 -0.02249
C_ C_ 0.0866802 0.81481 0.247877 0.6875
C_ C_ 0.327812 0.807265 0.246206 0.6875
C_ C_ 0.0385251 0.903523 0.282987 -0.11473
C_ C_ 0.287964 0.903894 0.287979 -0.11473
C_ C_ 0.183914 0.85122 0.243375 -0.02249
C_ C_ 0.431533 0.84883 0.237921 -0.02249
C_ C_ 0.234705 0.966602 0.23715 -0.02249
C_ C_ 0.483149 0.961196 0.238544 -0.02249
C_ C_ 0.210695 0.908608 0.277342 -0.11473
C_ C_ 0.455934 0.906247 0.27593 -0.11473
C_ C_ 0.187387 0.87156 0.204497 -0.11473
C_ C_ 0.451141 0.858333 0.2045 -0.11473
C_ C_ 0.1982 0.869145 0.279289 -0.11473
C_ C_ 0.435285 0.872431 0.276216 -0.11473
C_ C_ 0.217205 0.92794 0.238669 -0.02249
C_ C_ 0.465878 0.921746 0.237969 -0.02249
C_ C_ 0.165304 0.811766 0.247303 0.6875
C_ C_ 0.411701 0.810265 0.237025 0.6875
C_ C_ 0.206016 0.906971 0.203197 -0.11473
C_ C_ 0.466291 0.895717 0.203566 -0.11473
C_ C_ 0.172612 0.648314 0.250958 -0.02249
C_ C_ 0.431625 0.655291 0.245592 -0.02249
C_ C_ 0.229929 0.540133 0.256994 -0.02249
C_ C_ 0.482839 0.540912 0.253924 -0.02249
C_ C_ 0.210343 0.604399 0.289307 -0.11473
C_ C_ 0.454922 0.602568 0.285561 -0.11473
C_ C_ 0.175491 0.620911 0.215641 -0.11473
C_ C_ 0.441119 0.634185 0.208831 -0.11473
C_ C_ 0.187805 0.635457 0.289378 -0.11473
C_ C_ 0.437383 0.637284 0.284201 -0.11473
C_ C_ 0.211636 0.579481 0.254648 -0.02249
C_ C_ 0.465383 0.580504 0.249842 -0.02249
C_ C_ 0.153506 0.6867 0.248555 0.6875
C_ C_ 0.413829 0.694494 0.242464 0.6875
C_ C_ 0.196387 0.587644 0.217179 -0.11473
C_ C_ 0.459184 0.599317 0.211073 -0.11473
C_ C_ 0.0680701 0.654709 0.243531 -0.02249
C_ C_ 0.31462 0.652126 0.247593 -0.02249
C_ C_ 0.0162238 0.540105 0.236301 -0.02249
C_ C_ 0.262207 0.540381 0.250585 -0.02249
C_ C_ 0.0402617 0.602336 0.201023 -0.11473
C_ C_ 0.286715 0.598907 0.209027 -0.11473
C_ C_ 0.0634665 0.628997 0.279023 -0.11473
C_ C_ 0.306693 0.63356 0.285292 -0.11473
C_ C_ 0.0536037 0.643501 0.204013 -0.11473
C_ C_ 0.302775 0.63504 0.210301 -0.11473
C_ C_ 0.0331048 0.580619 0.237298 -0.02249
C_ C_ 0.278095 0.580741 0.24781 -0.02249
C_ C_ 0.0838017 0.693941 0.248591 0.6875
C_ C_ 0.333114 0.690118 0.247968 0.6875
C_ C_ 0.044044 0.593412 0.274748 -0.11473
C_ C_ 0.288971 0.598132 0.286134 -0.11473
C_ C_ 0.125293 0.788987 0.372998 0.17695
C_ C_ 0.36856 0.795825 0.370117 0.17695
C_ C_ 0.120877 0.717121 0.375084 0.17695
C_ C_ 0.373428 0.72235 0.376246 0.17695
C_ C_ 0.117248 0.717968 0.419082 -0.11473
C_ C_ 0.375793 0.725292 0.420037 -0.11473
C_ C_ 0.12021 0.755181 0.440011 0.23465
C_ C_ 0.372178 0.764673 0.439949 0.23465
C_ C_ 0.123876 0.791732 0.417611 -0.11473
C_ C_ 0.370029 0.800309 0.415078 -0.11473
C_ C_ 0.125755 0.708764 0.127787 0.17695
C_ C_ 0.357492 0.790928 0.119668 0.17695
C_ C_ 0.12277 0.781523 0.121664 0.17695
C_ C_ 0.373636 0.721864 0.117341 0.17695
C_ C_ 0.123783 0.777212 0.0783764 -0.11473
C_ C_ 0.373973 0.723089 0.074481 -0.11473
C_ C_ 0.129338 0.740063 0.0588591 0.23465
C_ C_ 0.363034 0.758103 0.0516517 0.23465
C_ C_ 0.12896 0.704619 0.083449 -0.11473
C_ C_ 0.354366 0.792717 0.0756946 -0.11473
C_ C_ 0.0308352 1.00241371 0.248785 0.05793
C_ C_ 0.279991 1.00586845 0.258566 0.05793
C_ C_ 0.215832 0.503009 0.266247 0.05793
C_ C_ 0.467978 0.501822 0.259585 0.05793
Br Br 0.073951 0.00339114 0.258928 -0.17191
Br Br 0.321272 1.00587883 0.273721 -0.17191
Br Br 0.175854 0.503525 0.28608 -0.17191
Br Br 0.426777 0.500668 0.273444 -0.17191
N_ N_ 0.122967 0.752531 0.353338 -0.272
N_ N_ 0.371773 0.757435 0.352423 -0.272
N_ N_ 0.11551 0.757327 0.483666 -0.12501
N_ N_ 0.378165 0.77068 0.482758 -0.12501
N_ N_ 0.122899 0.745857 0.146524 -0.272
N_ N_ 0.365413 0.755952 0.138667 -0.272
N_ N_ 0.127187 0.735226 0.0139818 -0.12501
N_ N_ 0.358708 0.75559 0.00739703 -0.12501
O_ O_ 0.097493 0.800727 0.214037 -0.60745
O_ O_ 0.336469 0.793862 0.211531 -0.60745
O_ O_ 0.0892911 0.795357 0.283296 -0.60745
O_ O_ 0.340364 0.795561 0.280531 -0.60745
O_ O_ 0.153538 0.801597 0.282203 -0.60745
O_ O_ 0.400288 0.797279 0.271017 -0.60745
O_ O_ 0.157371 0.793059 0.214486 -0.60745
O_ O_ 0.399161 0.797052 0.203062 -0.60745
O_ O_ 0.147759 0.703754 0.283637 -0.60745
O_ O_ 0.406248 0.710695 0.276017 -0.60745
O_ O_ 0.151642 0.706519 0.214389 -0.60745
O_ O_ 0.404482 0.708295 0.20764 -0.60745
O_ O_ 0.0924283 0.71378 0.216176 -0.60745
O_ O_ 0.340166 0.70882 0.214225 -0.60745
O_ O_ 0.0891624 0.71072 0.284425 -0.60745
O_ O_ 0.340636 0.70533 0.282321 -0.60745
Zn Zn 0.128559 0.750899 0.782228 0.9476
Zn Zn 0.373573 0.745059 0.77914 0.9476
Zn Zn 0.125123 0.749041 0.71411 0.9476
Zn Zn 0.378666 0.74749 0.708824 0.9476
H_ H_ 0.029097 0.90484 0.673974 0.10932
H_ H_ 0.268327 0.902275 0.680534 0.10932
H_ H_ 0.0692119 0.860815 0.815099 0.10932
H_ H_ 0.324226 0.853255 0.803282 0.10932
H_ H_ 0.0580827 0.840608 0.678813 0.10932
H_ H_ 0.306204 0.843987 0.672191 0.10932
H_ H_ 0.0410381 0.925913 0.805589 0.10932
H_ H_ 0.300229 0.922091 0.802674 0.10932
H_ H_ 0.24135 0.895713 0.799455 0.10932
H_ H_ 0.469954 0.905634 0.82024 0.10932
H_ H_ 0.169517 0.866111 0.68656 0.10932
H_ H_ 0.413179 0.867499 0.687481 0.10932
H_ H_ 0.205349 0.841079 0.811478 0.10932
H_ H_ 0.442376 0.840628 0.816931 0.10932
H_ H_ 0.195967 0.929312 0.68718 0.10932
H_ H_ 0.451845 0.927178 0.687967 0.10932
H_ H_ 0.227973 0.591221 0.815545 0.10932
H_ H_ 0.467622 0.585374 0.818359 0.10932
H_ H_ 0.176511 0.636126 0.686778 0.10932
H_ H_ 0.437347 0.640658 0.683807 0.10932
H_ H_ 0.202303 0.656276 0.814338 0.10932
H_ H_ 0.436583 0.645066 0.817229 0.10932
H_ H_ 0.212112 0.577215 0.683611 0.10932
H_ H_ 0.466116 0.579488 0.685123 0.10932
H_ H_ 0.0205787 0.600715 0.679195 0.10932
H_ H_ 0.268424 0.590936 0.682533 0.10932
H_ H_ 0.0823584 0.632473 0.807724 0.10932
H_ H_ 0.331946 0.627594 0.804389 0.10932
H_ H_ 0.0506533 0.660067 0.682726 0.10932
H_ H_ 0.296671 0.655655 0.67735 0.10932
H_ H_ 0.0529436 0.563314 0.801212 0.10932
H_ H_ 0.308398 0.559261 0.800904 0.10932
H_ H_ 0.120714 0.816804 0.855442 0.10932
H_ H_ 0.379196 0.808597 0.860268 0.10932
H_ H_ 0.121609 0.689249 0.860627 0.10932
H_ H_ 0.371968 0.680064 0.85012 0.10932
H_ H_ 0.130385 0.690502 0.941609 0.10932
H_ H_ 0.377076 0.671175 0.927642 0.10932
H_ H_ 0.118579 0.821944 0.93292 0.10932
H_ H_ 0.377817 0.80468 0.936121 0.10932
H_ H_ 0.129642 0.684252 0.635883 0.10932
H_ H_ 0.377745 0.813297 0.632608 0.10932
H_ H_ 0.123103 0.813381 0.638847 0.10932
H_ H_ 0.385868 0.684773 0.64184 0.10932
H_ H_ 0.123483 0.819398 0.560358 0.10932
H_ H_ 0.385888 0.679448 0.563153 0.10932
H_ H_ 0.141579 0.688902 0.560172 0.10932
H_ H_ 0.380841 0.812261 0.556386 0.10932
C_ C_ 0.0640678 0.8436 0.747629 -0.02249
C_ C_ 0.315357 0.841773 0.737551 -0.02249
C_ C_ 0.0125473 0.959958 0.739245 -0.02249
C_ C_ 0.267949 0.956994 0.740195 -0.02249
C_ C_ 0.0366782 0.894535 0.705015 -0.11473
C_ C_ 0.286323 0.895964 0.701111 -0.11473
C_ C_ 0.0609674 0.870412 0.783773 -0.11473
C_ C_ 0.313982 0.866341 0.774434 -0.11473
C_ C_ 0.0514405 0.856561 0.708932 -0.11473
C_ C_ 0.300459 0.856848 0.701139 -0.11473
C_ C_ 0.0281983 0.916836 0.742512 -0.02249
C_ C_ 0.285597 0.919323 0.738602 -0.02249
C_ C_ 0.0859709 0.809645 0.749388 0.6875
C_ C_ 0.334641 0.801765 0.738396 0.6875
C_ C_ 0.0416899 0.90373 0.781643 -0.11473
C_ C_ 0.301858 0.905501 0.773862 -0.11473
C_ C_ 0.183616 0.848722 0.750196 -0.02249
C_ C_ 0.428967 0.848155 0.748814 -0.02249
C_ C_ 0.23591 0.958664 0.741188 -0.02249
C_ C_ 0.483747 0.960695 0.75574 -0.02249
C_ C_ 0.222089 0.892781 0.780692 -0.11473
C_ C_ 0.462612 0.895026 0.788924 -0.11473
C_ C_ 0.183466 0.872556 0.713678 -0.11473
C_ C_ 0.427116 0.875769 0.71452 -0.11473
C_ C_ 0.201592 0.860018 0.784186 -0.11473
C_ C_ 0.444624 0.860568 0.787341 -0.11473
C_ C_ 0.217614 0.919566 0.745306 -0.02249
C_ C_ 0.465434 0.920589 0.752556 -0.02249
C_ C_ 0.165426 0.811215 0.750587 0.6875
C_ C_ 0.415939 0.80596 0.745655 0.6875
C_ C_ 0.199077 0.908715 0.7119 -0.11473
C_ C_ 0.447367 0.911687 0.715884 -0.11473
C_ C_ 0.185001 0.651779 0.748389 -0.02249
C_ C_ 0.433908 0.651132 0.750279 -0.02249
C_ C_ 0.234944 0.535019 0.753411 -0.02249
C_ C_ 0.485855 0.53546 0.751676 -0.02249
C_ C_ 0.218587 0.603116 0.785773 -0.11473
C_ C_ 0.461847 0.596796 0.789033 -0.11473
C_ C_ 0.18947 0.628602 0.712582 -0.11473
C_ C_ 0.443707 0.630791 0.714557 -0.11473
C_ C_ 0.20084 0.638211 0.785915 -0.11473
C_ C_ 0.443849 0.63398 0.788175 -0.11473
C_ C_ 0.218667 0.575168 0.751853 -0.02249
C_ C_ 0.468097 0.574655 0.752253 -0.02249
C_ C_ 0.168613 0.692092 0.747018 0.6875
C_ C_ 0.414022 0.686983 0.748774 0.6875
C_ C_ 0.206689 0.591675 0.713735 -0.11473
C_ C_ 0.460349 0.594108 0.715031 -0.11473
C_ C_ 0.0688977 0.650077 0.746268 -0.02249
C_ C_ 0.317066 0.648807 0.74189 -0.02249
C_ C_ 0.018961 0.534655 0.735009 -0.02249
C_ C_ 0.265312 0.534974 0.741804 -0.02249
C_ C_ 0.0368496 0.602876 0.705914 -0.11473
C_ C_ 0.284018 0.599495 0.706646 -0.11473
C_ C_ 0.0699878 0.621891 0.779427 -0.11473
C_ C_ 0.318702 0.620146 0.776058 -0.11473
C_ C_ 0.054289 0.638222 0.70755 -0.11473
C_ C_ 0.301436 0.63494 0.703923 -0.11473
C_ C_ 0.0378284 0.573253 0.737514 -0.02249
C_ C_ 0.284 0.573852 0.741295 -0.02249
C_ C_ 0.0887078 0.68703 0.745546 0.6875
C_ C_ 0.336562 0.688383 0.744592 0.6875
C_ C_ 0.0538931 0.584498 0.774151 -0.11473
C_ C_ 0.304268 0.582075 0.775274 -0.11473
C_ C_ 0.127241 0.7916 0.874562 0.17695
C_ C_ 0.375631 0.777874 0.874734 0.17695
C_ C_ 0.127035 0.717484 0.87871 0.17695
C_ C_ 0.373541 0.706104 0.870068 0.17695
C_ C_ 0.130011 0.718216 0.922627 -0.11473
C_ C_ 0.376742 0.702279 0.914369 -0.11473
C_ C_ 0.128816 0.757461 0.941705 0.23465
C_ C_ 0.377184 0.738158 0.938919 0.23465
C_ C_ 0.123954 0.793371 0.918191 -0.11473
C_ C_ 0.377369 0.776747 0.91883 -0.11473
C_ C_ 0.13047 0.713927 0.619698 0.17695
C_ C_ 0.379969 0.783934 0.61688 0.17695
C_ C_ 0.125495 0.785524 0.621137 0.17695
C_ C_ 0.382813 0.711365 0.621838 0.17695
C_ C_ 0.125929 0.7887 0.575943 -0.11473
C_ C_ 0.382455 0.708393 0.577681 -0.11473
C_ C_ 0.129923 0.752398 0.553399 0.23465
C_ C_ 0.380649 0.744538 0.552858 0.23465
C_ C_ 0.134574 0.714745 0.576787 -0.11473
C_ C_ 0.380497 0.782538 0.573197 -0.11473
C_ C_ 0.0293431 -0.003159000000000023 0.736778 0.05793
C_ C_ 0.283743 -0.005632999999999999 0.742128 0.05793
C_ C_ 0.218842 0.497808 0.759171 0.05793
C_ C_ 0.470071 0.497063 0.750857 0.05793
Br Br 0.0702163 -0.008218999999999976 0.720932 -0.17191
Br Br 0.327159 -0.007062000000000013 0.728842 -0.17191
Br Br 0.179073 0.49974 0.78375 -0.17191
Br Br 0.427105 0.497809 0.754032 -0.17191
N_ N_ 0.130044 0.75371 0.855835 -0.272
N_ N_ 0.372262 0.743471 0.851457 -0.272
N_ N_ 0.131521 0.764518 0.987352 -0.12501
N_ N_ 0.376955 0.736455 0.984532 -0.12501
N_ N_ 0.127652 0.749402 0.642343 -0.272
N_ N_ 0.381668 0.749329 0.640801 -0.272
N_ N_ 0.135763 0.750149 0.509341 -0.12501
N_ N_ 0.375734 0.740953 0.50807 -0.12501
O_ O_ 0.0946846 0.793361 0.715896 -0.60745
O_ O_ 0.345906 0.789643 0.704616 -0.60745
O_ O_ 0.0963815 0.797292 0.784155 -0.60745
O_ O_ 0.343217 0.785686 0.772563 -0.60745
O_ O_ 0.158759 0.795747 0.785865 -0.60745
O_ O_ 0.404702 0.790701 0.778265 -0.60745
O_ O_ 0.154136 0.798588 0.717765 -0.60745
O_ O_ 0.410535 0.790135 0.709623 -0.60745
O_ O_ 0.160452 0.708288 0.782139 -0.60745
O_ O_ 0.40452 0.701796 0.782779 -0.60745
O_ O_ 0.160364 0.708593 0.712014 -0.60745
O_ O_ 0.407077 0.704299 0.714686 -0.60745
O_ O_ 0.0961694 0.703363 0.711048 -0.60745
O_ O_ 0.346384 0.704621 0.712047 -0.60745
O_ O_ 0.0963349 0.705238 0.780076 -0.60745
O_ O_ 0.340284 0.704451 0.780269 -0.60745
Zn Zn 0.623976 0.251486 0.289573 0.9476
Zn Zn 0.877557 0.254782 0.288303 0.9476
Zn Zn 0.621831 0.249948 0.2192 0.9476
Zn Zn 0.875599 0.253592 0.217654 0.9476
H_ H_ 0.52382 0.414485 0.191656 0.10932
H_ H_ 0.791593 0.421376 0.184435 0.10932
H_ H_ 0.574741 0.367816 0.324332 0.10932
H_ H_ 0.804864 0.343891 0.317089 0.10932
H_ H_ 0.54949 0.342708 0.193762 0.10932
H_ H_ 0.822462 0.364652 0.188981 0.10932
H_ H_ 0.547035 0.432615 0.318581 0.10932
H_ H_ 0.78167 0.418915 0.320689 0.10932
H_ H_ 0.71959 0.419863 0.319243 0.10932
H_ H_ 0.977319 0.412046 0.312728 0.10932
H_ H_ 0.685443 0.350667 0.187193 0.10932
H_ H_ 0.925398 0.364976 0.183667 0.10932
H_ H_ 0.682508 0.362715 0.319707 0.10932
H_ H_ 0.951833 0.34344 0.313836 0.10932
H_ H_ 0.720328 0.411177 0.184758 0.10932
H_ H_ 0.951033 0.432222 0.183181 0.10932
H_ H_ 0.721631 0.0888907 0.321525 0.10932
H_ H_ 0.973521 0.093371 0.316544 0.10932
H_ H_ 0.69246 0.156259 0.189875 0.10932
H_ H_ 0.925929 0.142427 0.184949 0.10932
H_ H_ 0.680459 0.140308 0.322912 0.10932
H_ H_ 0.945316 0.158428 0.317171 0.10932
H_ H_ 0.716441 0.0853944 0.188674 0.10932
H_ H_ 0.953154 0.0771402 0.185246 0.10932
H_ H_ 0.553594 0.0684166 0.187389 0.10932
H_ H_ 0.79644 0.0795113 0.189689 0.10932
H_ H_ 0.548927 0.151879 0.317271 0.10932
H_ H_ 0.814287 0.152587 0.324285 0.10932
H_ H_ 0.582415 0.133222 0.189319 0.10932
H_ H_ 0.818963 0.145933 0.190351 0.10932
H_ H_ 0.519823 0.090134 0.308721 0.10932
H_ H_ 0.786188 0.0838234 0.323828 0.10932
H_ H_ 0.582917 0.237599 0.360788 0.10932
H_ H_ 0.894556 0.192334 0.365792 0.10932
H_ H_ 0.674232 0.266296 0.360355 0.10932
H_ H_ 0.868476 0.317942 0.352081 0.10932
H_ H_ 0.677658 0.26327 0.44268 0.10932
H_ H_ 0.863482 0.327201 0.428288 0.10932
H_ H_ 0.580603 0.240977 0.438314 0.10932
H_ H_ 0.894412 0.200132 0.441575 0.10932
H_ H_ 0.614987 0.18168 0.143442 0.10932
H_ H_ 0.825606 0.242255 0.146816 0.10932
H_ H_ 0.633393 0.310222 0.144222 0.10932
H_ H_ 0.92092 0.255888 0.137393 0.10932
H_ H_ 0.631813 0.310028 0.0649452 0.10932
H_ H_ 0.916804 0.249256 0.0630299 0.10932
H_ H_ 0.612874 0.180278 0.0652829 0.10932
H_ H_ 0.820164 0.240288 0.0677541 0.10932
C_ C_ 0.566704 0.353056 0.256166 -0.02249
C_ C_ 0.815476 0.348656 0.253152 -0.02249
C_ C_ 0.516063 0.466481 0.253948 -0.02249
C_ C_ 0.766805 0.463695 0.255745 -0.02249
C_ C_ 0.537318 0.403863 0.216732 -0.11473
C_ C_ 0.795316 0.40878 0.215927 -0.11473
C_ C_ 0.563493 0.37655 0.29312 -0.11473
C_ C_ 0.803776 0.364667 0.290512 -0.11473
C_ C_ 0.551271 0.365514 0.21895 -0.11473
C_ C_ 0.81338 0.374433 0.217132 -0.11473
C_ C_ 0.534103 0.427257 0.254633 -0.02249
C_ C_ 0.785075 0.424533 0.254778 -0.02249
C_ C_ 0.583966 0.311492 0.255034 0.6875
C_ C_ 0.835625 0.311857 0.253529 0.6875
C_ C_ 0.54902 0.41414 0.290732 -0.11473
C_ C_ 0.788612 0.402946 0.291591 -0.11473
C_ C_ 0.683455 0.349824 0.253476 -0.02249
C_ C_ 0.937577 0.349066 0.247287 -0.02249
C_ C_ 0.735927 0.462826 0.250936 -0.02249
C_ C_ 0.986267 0.464694 0.24567 -0.02249
C_ C_ 0.712615 0.4047 0.289131 -0.11473
C_ C_ 0.967707 0.401722 0.285157 -0.11473
C_ C_ 0.694073 0.365372 0.216177 -0.11473
C_ C_ 0.939615 0.373622 0.211112 -0.11473
C_ C_ 0.693628 0.369526 0.290032 -0.11473
C_ C_ 0.952212 0.363438 0.283913 -0.11473
C_ C_ 0.720601 0.421841 0.251766 -0.02249
C_ C_ 0.971219 0.424743 0.246132 -0.02249
C_ C_ 0.661678 0.312846 0.251955 0.6875
C_ C_ 0.915549 0.31401 0.249621 0.6875
C_ C_ 0.712388 0.40049 0.215373 -0.11473
C_ C_ 0.953879 0.412498 0.210788 -0.11473
C_ C_ 0.685922 0.157015 0.255111 -0.02249
C_ C_ 0.933467 0.157378 0.250844 -0.02249
C_ C_ 0.736652 0.0411753 0.257522 -0.02249
C_ C_ 0.982668 0.0407192 0.250093 -0.02249
C_ C_ 0.711401 0.0983735 0.292695 -0.11473
C_ C_ 0.963589 0.105107 0.287903 -0.11473
C_ C_ 0.697657 0.140534 0.218117 -0.11473
C_ C_ 0.936705 0.133951 0.214086 -0.11473
C_ C_ 0.692354 0.133166 0.293764 -0.11473
C_ C_ 0.947999 0.141798 0.287682 -0.11473
C_ C_ 0.721564 0.0813253 0.25532 -0.02249
C_ C_ 0.964361 0.0800813 0.251623 -0.02249
C_ C_ 0.664359 0.193752 0.256489 0.6875
C_ C_ 0.917459 0.196658 0.250765 0.6875
C_ C_ 0.715191 0.103341 0.217572 -0.11473
C_ C_ 0.952578 0.0948959 0.213076 -0.11473
C_ C_ 0.568748 0.15014 0.252636 -0.02249
C_ C_ 0.819494 0.15444 0.257586 -0.02249
C_ C_ 0.513391 0.0374145 0.244929 -0.02249
C_ C_ 0.767902 0.0393136 0.257699 -0.02249
C_ C_ 0.549871 0.0896159 0.211902 -0.11473
C_ C_ 0.799168 0.0949263 0.218774 -0.11473
C_ C_ 0.549106 0.136637 0.284921 -0.11473
C_ C_ 0.807675 0.137452 0.294909 -0.11473
C_ C_ 0.569036 0.124924 0.215711 -0.11473
C_ C_ 0.811526 0.134251 0.219241 -0.11473
C_ C_ 0.530123 0.0782654 0.244685 -0.02249
C_ C_ 0.785951 0.0792696 0.255415 -0.02249
C_ C_ 0.584937 0.190966 0.253298 0.6875
C_ C_ 0.839376 0.192806 0.258031 0.6875
C_ C_ 0.53141 0.102162 0.282127 -0.11473
C_ C_ 0.790159 0.100494 0.293518 -0.11473
C_ C_ 0.60259 0.244896 0.379128 0.17695
C_ C_ 0.889953 0.223833 0.380343 0.17695
C_ C_ 0.655226 0.259833 0.380789 0.17695
C_ C_ 0.872604 0.292989 0.372615 0.17695
C_ C_ 0.655517 0.262388 0.424811 -0.11473
C_ C_ 0.872735 0.297773 0.416636 -0.11473
C_ C_ 0.628054 0.256456 0.446539 0.23465
C_ C_ 0.879842 0.262862 0.44338 0.23465
C_ C_ 0.60189 0.24688 0.42342 -0.11473
C_ C_ 0.88762 0.226334 0.424663 -0.11473
C_ C_ 0.619143 0.20863 0.126493 0.17695
C_ C_ 0.846003 0.247701 0.128198 0.17695
C_ C_ 0.628759 0.280469 0.126615 0.17695
C_ C_ 0.898007 0.255569 0.122743 0.17695
C_ C_ 0.626604 0.282936 0.0828678 -0.11473
C_ C_ 0.896502 0.251519 0.079002 -0.11473
C_ C_ 0.622403 0.246328 0.0596915 0.23465
C_ C_ 0.868837 0.244503 0.0589348 0.23465
C_ C_ 0.619382 0.207591 0.0821366 -0.11473
C_ C_ 0.842962 0.243534 0.0836923 -0.11473
C_ C_ 0.531186 0.504945 0.251328 0.05793
C_ C_ 0.782214 0.501816 0.253951 0.05793
C_ C_ 0.720029 1.00504356 0.260722 0.05793
C_ C_ 0.966562 1.00214866 0.24703 0.05793
Br Br 0.57432 0.50754 0.262314 -0.17191
Br Br 0.82566 0.503523 0.254061 -0.17191
Br Br 0.676815 0.00829732 0.267804 -0.17191
Br Br 0.921746 -0.00117536 0.240901 -0.17191
N_ N_ 0.628039 0.253433 0.359659 -0.272
N_ N_ 0.880554 0.255808 0.35668 -0.272
N_ N_ 0.62804 0.261404 0.489641 -0.12501
N_ N_ 0.876134 0.266526 0.488305 -0.12501
N_ N_ 0.622117 0.245186 0.146247 -0.272
N_ N_ 0.872695 0.253947 0.146391 -0.272
N_ N_ 0.617879 0.249941 0.0145477 -0.12501
N_ N_ 0.864952 0.242607 0.012962 -0.12501
O_ O_ 0.589749 0.292652 0.219917 -0.60745
O_ O_ 0.844336 0.296261 0.219767 -0.60745
O_ O_ 0.595499 0.297894 0.289014 -0.60745
O_ O_ 0.842526 0.294853 0.287908 -0.60745
O_ O_ 0.656809 0.293924 0.28578 -0.60745
O_ O_ 0.906978 0.298792 0.284514 -0.60745
O_ O_ 0.655537 0.294485 0.217291 -0.60745
O_ O_ 0.908387 0.295793 0.215363 -0.60745
O_ O_ 0.658714 0.210324 0.291385 -0.60745
O_ O_ 0.909648 0.212888 0.286916 -0.60745
O_ O_ 0.654286 0.207675 0.221333 -0.60745
O_ O_ 0.905831 0.210325 0.217556 -0.60745
O_ O_ 0.593797 0.206823 0.219152 -0.60745
O_ O_ 0.844955 0.209704 0.222058 -0.60745
O_ O_ 0.592855 0.206029 0.289179 -0.60745
O_ O_ 0.850957 0.207106 0.291373 -0.60745
Zn Zn 0.625485 0.244426 0.78698 0.9476
Zn Zn 0.877097 0.248688 0.783848 0.9476
Zn Zn 0.626606 0.248083 0.718254 0.9476
Zn Zn 0.873408 0.247168 0.7167 0.9476
H_ H_ 0.542993 0.418544 0.694581 0.10932
H_ H_ 0.784183 0.420459 0.681484 0.10932
H_ H_ 0.554223 0.331751 0.823319 0.10932
H_ H_ 0.820783 0.355953 0.812997 0.10932
H_ H_ 0.570557 0.354197 0.691526 0.10932
H_ H_ 0.802514 0.349674 0.679809 0.10932
H_ H_ 0.528873 0.402346 0.825823 0.10932
H_ H_ 0.791723 0.4215 0.816268 0.10932
H_ H_ 0.72315 0.407941 0.827032 0.10932
H_ H_ 0.978898 0.404974 0.80953 0.10932
H_ H_ 0.685032 0.35581 0.690806 0.10932
H_ H_ 0.923872 0.360225 0.682068 0.10932
H_ H_ 0.694692 0.344691 0.823686 0.10932
H_ H_ 0.938649 0.349361 0.814132 0.10932
H_ H_ 0.711132 0.423985 0.695733 0.10932
H_ H_ 0.960197 0.412014 0.67537 0.10932
H_ H_ 0.731852 0.0919568 0.812319 0.10932
H_ H_ 0.962989 0.0808562 0.818704 0.10932
H_ H_ 0.675492 0.135451 0.686134 0.10932
H_ H_ 0.921325 0.137727 0.687637 0.10932
H_ H_ 0.704912 0.158491 0.812029 0.10932
H_ H_ 0.934635 0.145342 0.820949 0.10932
H_ H_ 0.715808 0.0798738 0.680865 0.10932
H_ H_ 0.954972 0.0765838 0.684566 0.10932
H_ H_ 0.540118 0.0711049 0.684536 0.10932
H_ H_ 0.77911 0.0841348 0.688107 0.10932
H_ H_ 0.557465 0.152298 0.81678 0.10932
H_ H_ 0.827969 0.134653 0.817542 0.10932
H_ H_ 0.579319 0.129246 0.688998 0.10932
H_ H_ 0.802725 0.150367 0.685805 0.10932
H_ H_ 0.533059 0.0861403 0.816592 0.10932
H_ H_ 0.792906 0.0766051 0.81899 0.10932
H_ H_ 0.631013 0.303503 0.866527 0.10932
H_ H_ 0.864763 0.192252 0.864251 0.10932
H_ H_ 0.624655 0.174128 0.852639 0.10932
H_ H_ 0.891212 0.320437 0.855922 0.10932
H_ H_ 0.633868 0.166282 0.931532 0.10932
H_ H_ 0.890389 0.32434 0.93375 0.10932
H_ H_ 0.626857 0.298764 0.942367 0.10932
H_ H_ 0.864369 0.195378 0.940605 0.10932
H_ H_ 0.627394 0.310204 0.638595 0.10932
H_ H_ 0.925905 0.241714 0.647397 0.10932
H_ H_ 0.608765 0.180927 0.647213 0.10932
H_ H_ 0.830841 0.257595 0.634914 0.10932
H_ H_ 0.607994 0.177842 0.569697 0.10932
H_ H_ 0.832638 0.250049 0.557748 0.10932
H_ H_ 0.623572 0.308396 0.565101 0.10932
H_ H_ 0.928796 0.234558 0.570172 0.10932
C_ C_ 0.565276 0.340808 0.75804 -0.02249
C_ C_ 0.814357 0.346561 0.746311 -0.02249
C_ C_ 0.516958 0.456801 0.759915 -0.02249
C_ C_ 0.766012 0.4632 0.753044 -0.02249
C_ C_ 0.546166 0.401372 0.722521 -0.11473
C_ C_ 0.790641 0.40485 0.710601 -0.11473
C_ C_ 0.553768 0.354477 0.797167 -0.11473
C_ C_ 0.811457 0.368215 0.785232 -0.11473
C_ C_ 0.563268 0.366304 0.721818 -0.11473
C_ C_ 0.801886 0.364909 0.708919 -0.11473
C_ C_ 0.534899 0.417119 0.760016 -0.02249
C_ C_ 0.782711 0.423455 0.7502 -0.02249
C_ C_ 0.584868 0.302197 0.755983 0.6875
C_ C_ 0.83606 0.308444 0.744715 0.6875
C_ C_ 0.539468 0.393089 0.797488 -0.11473
C_ C_ 0.794485 0.406029 0.78594 -0.11473
C_ C_ 0.68845 0.344106 0.756445 -0.02249
C_ C_ 0.932656 0.345708 0.746708 -0.02249
C_ C_ 0.734877 0.463128 0.7612 -0.02249
C_ C_ 0.985627 0.457696 0.739317 -0.02249
C_ C_ 0.713855 0.399825 0.797712 -0.11473
C_ C_ 0.966079 0.396893 0.781188 -0.11473
C_ C_ 0.693224 0.368092 0.720001 -0.11473
C_ C_ 0.936885 0.365752 0.708873 -0.11473
C_ C_ 0.700565 0.360491 0.795598 -0.11473
C_ C_ 0.945353 0.363581 0.783666 -0.11473
C_ C_ 0.71831 0.422273 0.761896 -0.02249
C_ C_ 0.970052 0.415579 0.74212 -0.02249
C_ C_ 0.666749 0.306617 0.752655 0.6875
C_ C_ 0.915721 0.306156 0.747744 0.6875
C_ C_ 0.709763 0.404868 0.723266 -0.11473
C_ C_ 0.955669 0.400232 0.707596 -0.11473
C_ C_ 0.686835 0.150341 0.749038 -0.02249
C_ C_ 0.929722 0.14964 0.751812 -0.02249
C_ C_ 0.740461 0.0351795 0.747262 -0.02249
C_ C_ 0.98273 0.0394035 0.745752 -0.02249
C_ C_ 0.720977 0.102055 0.783309 -0.11473
C_ C_ 0.958399 0.0961878 0.787972 -0.11473
C_ C_ 0.69131 0.128135 0.712443 -0.11473
C_ C_ 0.935976 0.131603 0.713275 -0.11473
C_ C_ 0.70339 0.137987 0.784393 -0.11473
C_ C_ 0.94158 0.133346 0.790168 -0.11473
C_ C_ 0.724044 0.0772208 0.747147 -0.02249
C_ C_ 0.966235 0.0795448 0.748805 -0.02249
C_ C_ 0.66762 0.188049 0.751707 0.6875
C_ C_ 0.91086 0.186296 0.75377 0.6875
C_ C_ 0.712738 0.0948786 0.7101 -0.11473
C_ C_ 0.95222 0.0948797 0.713142 -0.11473
C_ C_ 0.56671 0.150701 0.750053 -0.02249
C_ C_ 0.816548 0.14983 0.751625 -0.02249
C_ C_ 0.51644 0.0366813 0.750734 -0.02249
C_ C_ 0.771926 0.031915 0.75654 -0.02249
C_ C_ 0.543437 0.090723 0.711831 -0.11473
C_ C_ 0.790022 0.0947042 0.716028 -0.11473
C_ C_ 0.550948 0.138936 0.785351 -0.11473
C_ C_ 0.816222 0.126091 0.789399 -0.11473
C_ C_ 0.562768 0.125751 0.713104 -0.11473
C_ C_ 0.802813 0.133501 0.716042 -0.11473
C_ C_ 0.530864 0.0770606 0.749562 -0.02249
C_ C_ 0.789965 0.0713206 0.753644 -0.02249
C_ C_ 0.587304 0.185559 0.753033 0.6875
C_ C_ 0.83581 0.187358 0.749466 0.6875
C_ C_ 0.536501 0.101205 0.786254 -0.11473
C_ C_ 0.799562 0.0905643 0.789839 -0.11473
C_ C_ 0.62802 0.274549 0.879547 0.17695
C_ C_ 0.870718 0.221671 0.879045 0.17695
C_ C_ 0.625429 0.200179 0.873227 0.17695
C_ C_ 0.882977 0.293406 0.874808 0.17695
C_ C_ 0.627123 0.196197 0.91737 -0.11473
C_ C_ 0.884793 0.296516 0.918981 -0.11473
C_ C_ 0.625194 0.23206 0.943928 0.23465
C_ C_ 0.879582 0.261418 0.943544 0.23465
C_ C_ 0.624076 0.270782 0.923809 -0.11473
C_ C_ 0.872874 0.223252 0.923773 -0.11473
C_ C_ 0.625705 0.28008 0.62445 0.17695
C_ C_ 0.905215 0.24134 0.627591 0.17695
C_ C_ 0.614748 0.208121 0.627915 0.17695
C_ C_ 0.852332 0.251361 0.620349 0.17695
C_ C_ 0.614195 0.204904 0.584298 -0.11473
C_ C_ 0.852557 0.250077 0.577113 -0.11473
C_ C_ 0.618647 0.240525 0.560396 0.23465
C_ C_ 0.880648 0.242705 0.557653 0.23465
C_ C_ 0.622454 0.278721 0.581258 -0.11473
C_ C_ 0.907013 0.239365 0.582965 -0.11473
C_ C_ 0.532552 0.496129 0.762864 0.05793
C_ C_ 0.781074 0.502272 0.748118 0.05793
C_ C_ 0.722772 -0.000770214 0.746692 0.05793
C_ C_ 0.966729 0.00244273 0.750519 0.05793
Br Br 0.572482 0.498562 0.7879 -0.17191
Br Br 0.820829 0.50329 0.724675 -0.17191
Br Br 0.679211 0.00736181 0.744404 -0.17191
Br Br 0.92396 0.00573555 0.759959 -0.17191
N_ N_ 0.628597 0.238508 0.855345 -0.272
N_ N_ 0.878076 0.255676 0.856263 -0.272
N_ N_ 0.630028 0.226569 0.988184 -0.12501
N_ N_ 0.881461 0.264456 0.988721 -0.12501
N_ N_ 0.620245 0.244077 0.646699 -0.272
N_ N_ 0.877506 0.242261 0.644375 -0.272
N_ N_ 0.614531 0.238451 0.514959 -0.12501
N_ N_ 0.88405 0.23918 0.513485 -0.12501
O_ O_ 0.591307 0.284948 0.720467 -0.60745
O_ O_ 0.842794 0.290273 0.709946 -0.60745
O_ O_ 0.597924 0.291795 0.789683 -0.60745
O_ O_ 0.849217 0.297645 0.777897 -0.60745
O_ O_ 0.659929 0.286887 0.786774 -0.60745
O_ O_ 0.908303 0.292181 0.782283 -0.60745
O_ O_ 0.651682 0.298847 0.717472 -0.60745
O_ O_ 0.907614 0.288263 0.714758 -0.60745
O_ O_ 0.655258 0.198158 0.785734 -0.60745
O_ O_ 0.904443 0.202511 0.78795 -0.60745
O_ O_ 0.663366 0.210376 0.71861 -0.60745
O_ O_ 0.904205 0.205694 0.721387 -0.60745
O_ O_ 0.59791 0.200159 0.719565 -0.60745
O_ O_ 0.841556 0.201209 0.714696 -0.60745
O_ O_ 0.592926 0.202444 0.787679 -0.60745
O_ O_ 0.84496 0.206025 0.782922 -0.60745
Zn Zn 0.625364 0.751716 0.291503 0.9476
Zn Zn 0.874937 0.75072 0.280798 0.9476
Zn Zn 0.624618 0.753962 0.222808 0.9476
Zn Zn 0.875062 0.753574 0.211489 0.9476
H_ H_ 0.53384 0.914775 0.183524 0.10932
H_ H_ 0.785304 0.927606 0.184592 0.10932
H_ H_ 0.558373 0.852503 0.319904 0.10932
H_ H_ 0.803592 0.842922 0.312771 0.10932
H_ H_ 0.56371 0.85241 0.18411 0.10932
H_ H_ 0.810306 0.852929 0.181055 0.10932
H_ H_ 0.5253 0.915252 0.316497 0.10932
H_ H_ 0.775346 0.908646 0.318518 0.10932
H_ H_ 0.716637 0.920531 0.328987 0.10932
H_ H_ 0.960408 0.92202 0.318585 0.10932
H_ H_ 0.686512 0.855632 0.194805 0.10932
H_ H_ 0.934672 0.852183 0.182728 0.10932
H_ H_ 0.679044 0.864786 0.328706 0.10932
H_ H_ 0.937588 0.854568 0.31907 0.10932
H_ H_ 0.718808 0.916837 0.194726 0.10932
H_ H_ 0.961097 0.918028 0.180466 0.10932
H_ H_ 0.717976 0.583177 0.31464 0.10932
H_ H_ 0.979586 0.595682 0.305995 0.10932
H_ H_ 0.690354 0.652468 0.184006 0.10932
H_ H_ 0.918727 0.632853 0.181853 0.10932
H_ H_ 0.691467 0.648938 0.318288 0.10932
H_ H_ 0.950276 0.657822 0.309626 0.10932
H_ H_ 0.713459 0.58754 0.180064 0.10932
H_ H_ 0.953533 0.575854 0.177325 0.10932
H_ H_ 0.52169 0.59469 0.187573 0.10932
H_ H_ 0.791233 0.574846 0.181018 0.10932
H_ H_ 0.572917 0.642224 0.319493 0.10932
H_ H_ 0.813611 0.649533 0.314285 0.10932
H_ H_ 0.548873 0.661424 0.190254 0.10932
H_ H_ 0.824623 0.63616 0.181115 0.10932
H_ H_ 0.53714 0.58252 0.320656 0.10932
H_ H_ 0.775148 0.593093 0.310906 0.10932
H_ H_ 0.61417 0.683636 0.367689 0.10932
H_ H_ 0.860923 0.812153 0.346627 0.10932
H_ H_ 0.635865 0.807736 0.370381 0.10932
H_ H_ 0.890263 0.689525 0.365519 0.10932
H_ H_ 0.639803 0.807769 0.444417 0.10932
H_ H_ 0.888499 0.696141 0.438203 0.10932
H_ H_ 0.618415 0.678664 0.441902 0.10932
H_ H_ 0.866629 0.825068 0.424948 0.10932
H_ H_ 0.62734 0.68914 0.156092 0.10932
H_ H_ 0.879591 0.689479 0.131749 0.10932
H_ H_ 0.613094 0.814834 0.142723 0.10932
H_ H_ 0.868621 0.819276 0.140577 0.10932
H_ H_ 0.611264 0.809612 0.0644811 0.10932
H_ H_ 0.873434 0.825411 0.0670195 0.10932
H_ H_ 0.625332 0.677961 0.0798766 0.10932
H_ H_ 0.873323 0.693652 0.0514279 0.10932
C_ C_ 0.564324 0.846227 0.252518 -0.02249
C_ C_ 0.811491 0.846645 0.245804 -0.02249
C_ C_ 0.514156 0.961564 0.247814 -0.02249
C_ C_ 0.767221 0.963825 0.253361 -0.02249
C_ C_ 0.54005 0.90145 0.212995 -0.11473
C_ C_ 0.790482 0.90831 0.21278 -0.11473
C_ C_ 0.551566 0.863517 0.289951 -0.11473
C_ C_ 0.802921 0.862985 0.284899 -0.11473
C_ C_ 0.555398 0.863288 0.215044 -0.11473
C_ C_ 0.804746 0.868264 0.210158 -0.11473
C_ C_ 0.531573 0.92195 0.250082 -0.02249
C_ C_ 0.781255 0.923583 0.252456 -0.02249
C_ C_ 0.585703 0.811257 0.252183 0.6875
C_ C_ 0.832788 0.808604 0.243571 0.6875
C_ C_ 0.534305 0.901032 0.288522 -0.11473
C_ C_ 0.784295 0.898822 0.287089 -0.11473
C_ C_ 0.680286 0.853854 0.261371 -0.02249
C_ C_ 0.934482 0.846829 0.250737 -0.02249
C_ C_ 0.735468 0.965636 0.262701 -0.02249
C_ C_ 0.982098 0.965052 0.248472 -0.02249
C_ C_ 0.707401 0.909383 0.298984 -0.11473
C_ C_ 0.956911 0.907516 0.287428 -0.11473
C_ C_ 0.691325 0.872179 0.223393 -0.11473
C_ C_ 0.942253 0.866111 0.212759 -0.11473
C_ C_ 0.68738 0.874809 0.299195 -0.11473
C_ C_ 0.942516 0.868946 0.288925 -0.11473
C_ C_ 0.715942 0.926648 0.262194 -0.02249
C_ C_ 0.96531 0.925602 0.249664 -0.02249
C_ C_ 0.665142 0.813633 0.259516 0.6875
C_ C_ 0.916055 0.809621 0.249812 0.6875
C_ C_ 0.707694 0.907371 0.223204 -0.11473
C_ C_ 0.956361 0.905453 0.210958 -0.11473
C_ C_ 0.684867 0.654301 0.251913 -0.02249
C_ C_ 0.934307 0.652708 0.245089 -0.02249
C_ C_ 0.734055 0.53866 0.244708 -0.02249
C_ C_ 0.986031 0.541067 0.241899 -0.02249
C_ C_ 0.709568 0.595207 0.285942 -0.11473
C_ C_ 0.966494 0.60319 0.279252 -0.11473
C_ C_ 0.696417 0.638039 0.213628 -0.11473
C_ C_ 0.935392 0.629191 0.207409 -0.11473
C_ C_ 0.693848 0.632439 0.288519 -0.11473
C_ C_ 0.950899 0.640061 0.280194 -0.11473
C_ C_ 0.717193 0.578044 0.247527 -0.02249
C_ C_ 0.969951 0.582268 0.241104 -0.02249
C_ C_ 0.663566 0.690648 0.253844 0.6875
C_ C_ 0.914361 0.691414 0.247157 0.6875
C_ C_ 0.710535 0.600415 0.210891 -0.11473
C_ C_ 0.954405 0.594724 0.205155 -0.11473
C_ C_ 0.562954 0.658622 0.254992 -0.02249
C_ C_ 0.817416 0.652501 0.246904 -0.02249
C_ C_ 0.513728 0.54224 0.253291 -0.02249
C_ C_ 0.766914 0.539049 0.24441 -0.02249
C_ C_ 0.531524 0.606268 0.217667 -0.11473
C_ C_ 0.792809 0.595712 0.208669 -0.11473
C_ C_ 0.559161 0.634128 0.292685 -0.11473
C_ C_ 0.807077 0.637532 0.286204 -0.11473
C_ C_ 0.546809 0.645099 0.218941 -0.11473
C_ C_ 0.811543 0.631094 0.207882 -0.11473
C_ C_ 0.529423 0.582498 0.254807 -0.02249
C_ C_ 0.782503 0.579813 0.245358 -0.02249
C_ C_ 0.582612 0.696869 0.255986 0.6875
C_ C_ 0.837699 0.691178 0.245486 0.6875
C_ C_ 0.54063 0.599631 0.291794 -0.11473
C_ C_ 0.787026 0.602625 0.283287 -0.11473
C_ C_ 0.61608 0.712609 0.383839 0.17695
C_ C_ 0.868797 0.789341 0.368403 0.17695
C_ C_ 0.630409 0.780455 0.386112 0.17695
C_ C_ 0.880152 0.717728 0.378078 0.17695
C_ C_ 0.632331 0.779877 0.430129 -0.11473
C_ C_ 0.880934 0.723667 0.421663 -0.11473
C_ C_ 0.624397 0.744414 0.452711 0.23465
C_ C_ 0.873115 0.761459 0.440352 0.23465
C_ C_ 0.619567 0.709009 0.427262 -0.11473
C_ C_ 0.867135 0.794591 0.412068 -0.11473
C_ C_ 0.625186 0.714625 0.134917 0.17695
C_ C_ 0.873469 0.717603 0.115704 0.17695
C_ C_ 0.614306 0.784767 0.126887 0.17695
C_ C_ 0.873262 0.791603 0.122229 0.17695
C_ C_ 0.614333 0.782105 0.0829988 -0.11473
C_ C_ 0.872989 0.795165 0.0796938 -0.11473
C_ C_ 0.619409 0.74204 0.0635278 0.23465
C_ C_ 0.869636 0.760878 0.0527575 0.23465
C_ C_ 0.622791 0.707952 0.0910797 -0.11473
C_ C_ 0.871229 0.720318 0.0711781 -0.11473
C_ C_ 0.529235 1.000112101 0.253588 0.05793
C_ C_ 0.783858 1.00168211 0.253502 0.05793
C_ C_ 0.719493 0.499626 0.242978 0.05793
C_ C_ 0.971008 0.503005 0.250083 0.05793
Br Br 0.573086 0.999334661 0.256574 -0.17191
Br Br 0.826856 1.00172594 0.257614 -0.17191
Br Br 0.677763 0.497848 0.224703 -0.17191
Br Br 0.930124 0.50438 0.265615 -0.17191
N_ N_ 0.623874 0.746431 0.364254 -0.272
N_ N_ 0.87364 0.750325 0.352437 -0.272
N_ N_ 0.630576 0.743531 0.496373 -0.12501
N_ N_ 0.873778 0.767521 0.48575 -0.12501
N_ N_ 0.624108 0.752585 0.151707 -0.272
N_ N_ 0.87566 0.753256 0.138998 -0.272
N_ N_ 0.624401 0.737663 0.0184668 -0.12501
N_ N_ 0.865043 0.76665 0.0086575 -0.12501
O_ O_ 0.596146 0.79864 0.217293 -0.60745
O_ O_ 0.843982 0.799348 0.209025 -0.60745
O_ O_ 0.594154 0.796036 0.286529 -0.60745
O_ O_ 0.841971 0.79032 0.277013 -0.60745
O_ O_ 0.657382 0.793765 0.291217 -0.60745
O_ O_ 0.903205 0.798323 0.283012 -0.60745
O_ O_ 0.654777 0.803276 0.224668 -0.60745
O_ O_ 0.907714 0.794015 0.215351 -0.60745
O_ O_ 0.656894 0.706082 0.290394 -0.60745
O_ O_ 0.907194 0.704716 0.282483 -0.60745
O_ O_ 0.657737 0.714617 0.222359 -0.60745
O_ O_ 0.907826 0.711889 0.214107 -0.60745
O_ O_ 0.594022 0.707384 0.221377 -0.60745
O_ O_ 0.845603 0.70671 0.211242 -0.60745
O_ O_ 0.591916 0.711978 0.289209 -0.60745
O_ O_ 0.847818 0.706871 0.279977 -0.60745
Zn Zn 0.624022 0.751904 0.791997 0.9476
Zn Zn 0.876432 0.746381 0.782131 0.9476
Zn Zn 0.626675 0.750833 0.723703 0.9476
Zn Zn 0.875915 0.747364 0.714077 0.9476
H_ H_ 0.52883 0.9084 0.681898 0.10932
H_ H_ 0.787475 0.914334 0.679603 0.10932
H_ H_ 0.572083 0.85781 0.817124 0.10932
H_ H_ 0.808159 0.842074 0.814052 0.10932
H_ H_ 0.556979 0.845964 0.684558 0.10932
H_ H_ 0.815865 0.84823 0.68145 0.10932
H_ H_ 0.543113 0.924864 0.817727 0.10932
H_ H_ 0.77485 0.902764 0.812707 0.10932
H_ H_ 0.711057 0.924784 0.818037 0.10932
H_ H_ 0.969584 0.918669 0.815286 0.10932
H_ H_ 0.688635 0.847979 0.687185 0.10932
H_ H_ 0.928206 0.85743 0.683994 0.10932
H_ H_ 0.681561 0.855482 0.821862 0.10932
H_ H_ 0.942647 0.849439 0.817526 0.10932
H_ H_ 0.716403 0.910989 0.685194 0.10932
H_ H_ 0.953891 0.922008 0.683643 0.10932
H_ H_ 0.722626 0.587622 0.83433 0.10932
H_ H_ 0.976851 0.585982 0.816916 0.10932
H_ H_ 0.678427 0.640771 0.700453 0.10932
H_ H_ 0.934109 0.642786 0.680358 0.10932
H_ H_ 0.687519 0.653794 0.83552 0.10932
H_ H_ 0.945117 0.648786 0.813689 0.10932
H_ H_ 0.711427 0.579693 0.700313 0.10932
H_ H_ 0.965082 0.577803 0.678892 0.10932
H_ H_ 0.534854 0.581044 0.691127 0.10932
H_ H_ 0.779921 0.583608 0.685656 0.10932
H_ H_ 0.566281 0.644773 0.828577 0.10932
H_ H_ 0.826128 0.637241 0.818703 0.10932
H_ H_ 0.567949 0.641175 0.69166 0.10932
H_ H_ 0.808393 0.652569 0.687382 0.10932
H_ H_ 0.539196 0.579623 0.824988 0.10932
H_ H_ 0.796781 0.574465 0.819217 0.10932
H_ H_ 0.623628 0.696829 0.866639 0.10932
H_ H_ 0.869518 0.682942 0.854044 0.10932
H_ H_ 0.6278 0.827457 0.862299 0.10932
H_ H_ 0.887208 0.813188 0.854814 0.10932
H_ H_ 0.628975 0.829794 0.940807 0.10932
H_ H_ 0.891428 0.813692 0.930941 0.10932
H_ H_ 0.618371 0.698105 0.942181 0.10932
H_ H_ 0.86976 0.685432 0.933775 0.10932
H_ H_ 0.626559 0.678956 0.655871 0.10932
H_ H_ 0.882697 0.810459 0.635153 0.10932
H_ H_ 0.634167 0.805713 0.64373 0.10932
H_ H_ 0.862718 0.680905 0.640433 0.10932
H_ H_ 0.62268 0.805595 0.568443 0.10932
H_ H_ 0.863459 0.677713 0.565402 0.10932
H_ H_ 0.620046 0.671869 0.576123 0.10932
H_ H_ 0.88645 0.809314 0.557531 0.10932
C_ C_ 0.563006 0.843399 0.750673 -0.02249
C_ C_ 0.811506 0.838049 0.747158 -0.02249
C_ C_ 0.515508 0.959211 0.749751 -0.02249
C_ C_ 0.766646 0.956848 0.747942 -0.02249
C_ C_ 0.537576 0.898075 0.711955 -0.11473
C_ C_ 0.789598 0.896526 0.708103 -0.11473
C_ C_ 0.560405 0.866971 0.788048 -0.11473
C_ C_ 0.801508 0.855397 0.783868 -0.11473
C_ C_ 0.553217 0.861538 0.713275 -0.11473
C_ C_ 0.805478 0.858923 0.709013 -0.11473
C_ C_ 0.53278 0.920274 0.750402 -0.02249
C_ C_ 0.780985 0.914409 0.747642 -0.02249
C_ C_ 0.58425 0.809691 0.750389 0.6875
C_ C_ 0.832346 0.800966 0.747753 0.6875
C_ C_ 0.544572 0.905021 0.789448 -0.11473
C_ C_ 0.788204 0.893599 0.785383 -0.11473
C_ C_ 0.681886 0.850516 0.754267 -0.02249
C_ C_ 0.927633 0.851518 0.751067 -0.02249
C_ C_ 0.736053 0.961059 0.747693 -0.02249
C_ C_ 0.981733 0.963442 0.749237 -0.02249
C_ C_ 0.704624 0.909495 0.789155 -0.11473
C_ C_ 0.957602 0.905822 0.788119 -0.11473
C_ C_ 0.691216 0.865966 0.715707 -0.11473
C_ C_ 0.934869 0.870123 0.712639 -0.11473
C_ C_ 0.687255 0.872482 0.792442 -0.11473
C_ C_ 0.940701 0.868515 0.788774 -0.11473
C_ C_ 0.715106 0.924348 0.749774 -0.02249
C_ C_ 0.963139 0.925485 0.750705 -0.02249
C_ C_ 0.66351 0.812136 0.753436 0.6875
C_ C_ 0.912377 0.808905 0.749955 0.6875
C_ C_ 0.709466 0.900475 0.713857 -0.11473
C_ C_ 0.951915 0.906387 0.713812 -0.11473
C_ C_ 0.683994 0.653932 0.766482 -0.02249
C_ C_ 0.937878 0.652762 0.747672 -0.02249
C_ C_ 0.733975 0.538944 0.765588 -0.02249
C_ C_ 0.98747 0.534932 0.744972 -0.02249
C_ C_ 0.713379 0.600994 0.80567 -0.11473
C_ C_ 0.968646 0.599408 0.784474 -0.11473
C_ C_ 0.688178 0.630685 0.728838 -0.11473
C_ C_ 0.942257 0.630017 0.709675 -0.11473
C_ C_ 0.695133 0.63746 0.805158 -0.11473
C_ C_ 0.949131 0.635254 0.785356 -0.11473
C_ C_ 0.716896 0.578943 0.766791 -0.02249
C_ C_ 0.971326 0.576148 0.747803 -0.02249
C_ C_ 0.663528 0.690356 0.763605 0.6875
C_ C_ 0.917305 0.690011 0.74755 0.6875
C_ C_ 0.705635 0.594065 0.729849 -0.11473
C_ C_ 0.959225 0.591934 0.709424 -0.11473
C_ C_ 0.56463 0.65264 0.760044 -0.02249
C_ C_ 0.817813 0.650837 0.751127 -0.02249
C_ C_ 0.517376 0.533834 0.759337 -0.02249
C_ C_ 0.76433 0.539251 0.751161 -0.02249
C_ C_ 0.540805 0.595827 0.721344 -0.11473
C_ C_ 0.785761 0.599401 0.716075 -0.11473
C_ C_ 0.5593 0.632421 0.797174 -0.11473
C_ C_ 0.815541 0.627892 0.788271 -0.11473
C_ C_ 0.557173 0.633279 0.72133 -0.11473
C_ C_ 0.80137 0.637776 0.715049 -0.11473
C_ C_ 0.535862 0.573199 0.759488 -0.02249
C_ C_ 0.781387 0.578673 0.752449 -0.02249
C_ C_ 0.586642 0.689818 0.7589 0.6875
C_ C_ 0.840377 0.685016 0.750843 0.6875
C_ C_ 0.54281 0.594141 0.797051 -0.11473
C_ C_ 0.797557 0.590725 0.7883 -0.11473
C_ C_ 0.62619 0.726512 0.883673 0.17695
C_ C_ 0.871423 0.712155 0.871854 0.17695
C_ C_ 0.6263 0.799055 0.879558 0.17695
C_ C_ 0.886051 0.783888 0.871113 0.17695
C_ C_ 0.626679 0.800432 0.924492 -0.11473
C_ C_ 0.884626 0.785946 0.913983 -0.11473
C_ C_ 0.623124 0.764756 0.949593 0.23465
C_ C_ 0.874426 0.749931 0.93779 0.23465
C_ C_ 0.624643 0.726436 0.927329 -0.11473
C_ C_ 0.872199 0.713418 0.915469 -0.11473
C_ C_ 0.620653 0.705094 0.634768 0.17695
C_ C_ 0.8781 0.781693 0.618804 0.17695
C_ C_ 0.62691 0.777685 0.629246 0.17695
C_ C_ 0.863992 0.710494 0.621476 0.17695
C_ C_ 0.619945 0.776183 0.585931 -0.11473
C_ C_ 0.866821 0.708598 0.579063 -0.11473
C_ C_ 0.61654 0.737903 0.56475 0.23465
C_ C_ 0.875561 0.743858 0.555127 0.23465
C_ C_ 0.617978 0.702077 0.589416 -0.11473
C_ C_ 0.882574 0.780167 0.575496 -0.11473
C_ C_ 0.531466 -0.0016220000000000123 0.749782 0.05793
C_ C_ 0.784887 -0.006993000000000027 0.752159 0.05793
C_ C_ 0.719215 0.500797 0.766676 0.05793
C_ C_ 0.970651 0.49692 0.743352 0.05793
Br Br 0.574108 -0.0041879999999999695 0.740264 -0.17191
Br Br 0.827673 0.985434 0.749072 -0.17191
Br Br 0.677503 0.499697 0.784149 -0.17191
Br Br 0.927876 0.498475 0.757769 -0.17191
N_ N_ 0.62531 0.762399 0.860256 -0.272
N_ N_ 0.877947 0.747912 0.85098 -0.272
N_ N_ 0.622145 0.76809 0.994655 -0.12501
N_ N_ 0.880209 0.745949 0.982179 -0.12501
N_ N_ 0.623082 0.742667 0.652877 -0.272
N_ N_ 0.869672 0.747156 0.642213 -0.272
N_ N_ 0.60989 0.73677 0.520856 -0.12501
N_ N_ 0.874337 0.737736 0.510187 -0.12501
O_ O_ 0.597803 0.798252 0.717808 -0.60745
O_ O_ 0.841413 0.784513 0.715078 -0.60745
O_ O_ 0.588996 0.792087 0.785621 -0.60745
O_ O_ 0.848495 0.795151 0.780495 -0.60745
O_ O_ 0.653054 0.799867 0.78782 -0.60745
O_ O_ 0.906957 0.789092 0.78352 -0.60745
O_ O_ 0.655868 0.793425 0.718727 -0.60745
O_ O_ 0.90154 0.794445 0.715044 -0.60745
O_ O_ 0.65457 0.708848 0.795707 -0.60745
O_ O_ 0.902044 0.697509 0.780011 -0.60745
O_ O_ 0.656008 0.705833 0.728174 -0.60745
O_ O_ 0.911637 0.711067 0.71482 -0.60745
O_ O_ 0.595082 0.706504 0.724777 -0.60745
O_ O_ 0.850044 0.698553 0.715307 -0.60745
O_ O_ 0.595567 0.704813 0.793461 -0.60745
O_ O_ 0.844247 0.706662 0.783624 -0.60745
_cell_length_a 44.444
_cell_length_b 32.3360000049186
_cell_length_c 31.843999878906452
_cell_angle_alpha 89.99799923859553
_cell_angle_beta 91.13600050494348
_cell_angle_gamma 89.9990006550086
_symmetry_space_group_name_H-M         'P 1'
_symmetry_Int_Tables_number            1
loop_
_symmetry_equiv_pos_as_xyz
   'x, y, z'
                         
loop_
_atom_site_label
_atom_site_type_symbol
_atom_site_fract_x 
_atom_site_fract_y
_atom_site_fract_z
_atom_site_charge
Zn Zn 0.124099 0.251278 0.284787 0.9476
Zn Zn 0.377194 0.250009 0.285643 0.9476
Zn Zn 0.122855 0.25207 0.213586 0.9476
Zn Zn 0.374718 0.253359 0.216906 0.9476
H_ H_ 0.0249879 0.408341 0.174292 0.10932
H_ H_ 0.274372 0.416222 0.189706 0.10932
H_ H_ 0.0745199 0.366468 0.310316 0.10932
H_ H_ 0.320084 0.365214 0.323332 0.10932
H_ H_ 0.059011 0.345618 0.178971 0.10932
H_ H_ 0.302558 0.351092 0.188765 0.10932
H_ H_ 0.0345241 0.424415 0.307953 0.10932
H_ H_ 0.287964 0.426948 0.323748 0.10932
H_ H_ 0.213286 0.416988 0.325301 0.10932
H_ H_ 0.475805 0.411248 0.3223 0.10932
H_ H_ 0.176445 0.360068 0.188782 0.10932
H_ H_ 0.433669 0.364324 0.183646 0.10932
H_ H_ 0.182898 0.350704 0.321765 0.10932
H_ H_ 0.445873 0.344584 0.321906 0.10932
H_ H_ 0.207348 0.427293 0.1923 0.10932
H_ H_ 0.464434 0.424267 0.188744 0.10932
H_ H_ 0.223982 0.0919534 0.301518 0.10932
H_ H_ 0.468122 0.0880133 0.313813 0.10932
H_ H_ 0.175246 0.15116 0.172524 0.10932
H_ H_ 0.428887 0.147435 0.177777 0.10932
H_ H_ 0.197633 0.161109 0.303917 0.10932
H_ H_ 0.444759 0.155148 0.311795 0.10932
H_ H_ 0.21347 0.089947 0.169503 0.10932
H_ H_ 0.458605 0.0808507 0.176767 0.10932
H_ H_ 0.0174961 0.0940805 0.185142 0.10932
H_ H_ 0.282099 0.0841031 0.186561 0.10932
H_ H_ 0.0670354 0.145765 0.314837 0.10932
H_ H_ 0.316085 0.155733 0.316615 0.10932
H_ H_ 0.0474313 0.159218 0.183018 0.10932
H_ H_ 0.312711 0.146164 0.181663 0.10932
H_ H_ 0.0518741 0.0759788 0.311407 0.10932
H_ H_ 0.288102 0.0870768 0.318924 0.10932
H_ H_ 0.123286 0.183248 0.357534 0.10932
H_ H_ 0.357768 0.187329 0.354197 0.10932
H_ H_ 0.137801 0.310802 0.35639 0.10932
H_ H_ 0.388812 0.311537 0.371758 0.10932
H_ H_ 0.141379 0.314549 0.435266 0.10932
H_ H_ 0.382678 0.304818 0.449035 0.10932
H_ H_ 0.129465 0.181627 0.432084 0.10932
H_ H_ 0.362272 0.17582 0.428168 0.10932
H_ H_ 0.118155 0.316154 0.125022 0.10932
H_ H_ 0.392291 0.192863 0.138568 0.10932
H_ H_ 0.129017 0.189105 0.146207 0.10932
H_ H_ 0.364197 0.316418 0.149044 0.10932
H_ H_ 0.122593 0.176702 0.069086 0.10932
H_ H_ 0.354871 0.319175 0.073697 0.10932
H_ H_ 0.116015 0.306401 0.0511698 0.10932
H_ H_ 0.39525 0.199014 0.0602493 0.10932
C_ C_ 0.0652593 0.349749 0.245557 -0.02249
C_ C_ 0.31595 0.352309 0.255449 -0.02249
C_ C_ 0.0165127 0.464701 0.238012 -0.02249
C_ C_ 0.261725 0.464216 0.253196 -0.02249
C_ C_ 0.0380681 0.40024 0.203908 -0.11473
C_ C_ 0.282549 0.4026 0.21888 -0.11473
C_ C_ 0.0629613 0.37577 0.281135 -0.11473
C_ C_ 0.310362 0.374669 0.293977 -0.11473
C_ C_ 0.0541662 0.363021 0.207605 -0.11473
C_ C_ 0.301735 0.367645 0.218387 -0.11473
C_ C_ 0.0335598 0.425197 0.239351 -0.02249
C_ C_ 0.277246 0.424526 0.256679 -0.02249
C_ C_ 0.0848518 0.312218 0.249859 0.6875
C_ C_ 0.339452 0.317586 0.252547 0.6875
C_ C_ 0.0435148 0.410812 0.278788 -0.11473
C_ C_ 0.29021 0.408398 0.294531 -0.11473
C_ C_ 0.177597 0.352454 0.255953 -0.02249
C_ C_ 0.435252 0.349981 0.253899 -0.02249
C_ C_ 0.23036 0.465052 0.257706 -0.02249
C_ C_ 0.485158 0.465323 0.257844 -0.02249
C_ C_ 0.205119 0.405733 0.294743 -0.11473
C_ C_ 0.465608 0.401709 0.293011 -0.11473
C_ C_ 0.184827 0.371682 0.218778 -0.11473
C_ C_ 0.442783 0.370527 0.215858 -0.11473
C_ C_ 0.186837 0.370311 0.294417 -0.11473
C_ C_ 0.447977 0.364364 0.292135 -0.11473
C_ C_ 0.210463 0.426575 0.257911 -0.02249
C_ C_ 0.468857 0.425438 0.25655 -0.02249
C_ C_ 0.160323 0.313307 0.253457 0.6875
C_ C_ 0.416653 0.312208 0.253284 0.6875
C_ C_ 0.198995 0.411413 0.22029 -0.11473
C_ C_ 0.458033 0.40865 0.218117 -0.11473
C_ C_ 0.184063 0.15778 0.238323 -0.02249
C_ C_ 0.43473 0.155411 0.24655 -0.02249
C_ C_ 0.233609 0.0444887 0.240022 -0.02249
C_ C_ 0.48205 0.0381141 0.241913 -0.02249
C_ C_ 0.215306 0.106403 0.273081 -0.11473
C_ C_ 0.461151 0.100244 0.284015 -0.11473
C_ C_ 0.187345 0.137186 0.200195 -0.11473
C_ C_ 0.439122 0.135598 0.207946 -0.11473
C_ C_ 0.200261 0.144869 0.273568 -0.11473
C_ C_ 0.448061 0.139218 0.282393 -0.11473
C_ C_ 0.216895 0.0838584 0.237419 -0.02249
C_ C_ 0.465993 0.0792745 0.24478 -0.02249
C_ C_ 0.163751 0.193105 0.242491 0.6875
C_ C_ 0.414846 0.192189 0.251388 0.6875
C_ C_ 0.204977 0.0984699 0.199405 -0.11473
C_ C_ 0.45454 0.097078 0.2066 -0.11473
C_ C_ 0.063239 0.156392 0.24777 -0.02249
C_ C_ 0.312167 0.160994 0.248204 -0.02249
C_ C_ 0.0156852 0.0402817 0.251116 -0.02249
C_ C_ 0.264156 0.0434252 0.2534 -0.02249
C_ C_ 0.0304513 0.104541 0.21231 -0.11473
C_ C_ 0.291208 0.0980248 0.21473 -0.11473
C_ C_ 0.0615596 0.13251 0.284246 -0.11473
C_ C_ 0.305722 0.143645 0.288612 -0.11473
C_ C_ 0.0488712 0.140871 0.210866 -0.11473
C_ C_ 0.306785 0.136915 0.21097 -0.11473
C_ C_ 0.0324302 0.0797403 0.24742 -0.02249
C_ C_ 0.282194 0.0827496 0.253085 -0.02249
C_ C_ 0.080593 0.195431 0.248057 0.6875
C_ C_ 0.331768 0.196858 0.247815 0.6875
C_ C_ 0.0477205 0.0946954 0.283479 -0.11473
C_ C_ 0.292523 0.10196 0.288469 -0.11473
C_ C_ 0.126272 0.212573 0.375434 0.17695
C_ C_ 0.364404 0.21301 0.37384 0.17695
C_ C_ 0.134752 0.283676 0.374422 0.17695
C_ C_ 0.381989 0.28137 0.383918 0.17695
C_ C_ 0.139003 0.284946 0.418392 -0.11473
C_ C_ 0.378066 0.277837 0.42784 -0.11473
C_ C_ 0.132653 0.248363 0.441645 0.23465
C_ C_ 0.369145 0.240616 0.445527 0.23465
C_ C_ 0.12763 0.212006 0.418632 -0.11473
C_ C_ 0.364543 0.205872 0.417049 -0.11473
C_ C_ 0.118678 0.285098 0.113045 0.17695
C_ C_ 0.383522 0.219691 0.122195 0.17695
C_ C_ 0.123119 0.213178 0.12534 0.17695
C_ C_ 0.368243 0.288005 0.130026 0.17695
C_ C_ 0.121442 0.206414 0.0812419 -0.11473
C_ C_ 0.364037 0.290974 0.0862325 -0.11473
C_ C_ 0.118193 0.240414 0.0532097 0.23465
C_ C_ 0.373858 0.260197 0.0576531 0.23465
C_ C_ 0.115146 0.27985 0.0707715 -0.11473
C_ C_ 0.382784 0.222625 0.0773075 -0.11473
C_ C_ 0.0314073 0.50275 0.229401 0.05793
C_ C_ 0.277663 0.502037 0.24872 0.05793
C_ C_ 0.218995 0.0057928 0.235751 0.05793
C_ C_ 0.466485 0.99888568 0.236332 0.05793
Br Br 0.0718194 0.504487 0.206944 -0.17191
Br Br 0.320626 0.502141 0.246058 -0.17191
Br Br 0.1778 0.0064167 0.215883 -0.17191
Br Br 0.42285 1.000319395 0.230644 -0.17191
N_ N_ 0.12814 0.249092 0.35417 -0.272
N_ N_ 0.373239 0.250304 0.357485 -0.272
N_ N_ 0.13891 0.248915 0.485874 -0.12501
N_ N_ 0.370184 0.233177 0.487699 -0.12501
N_ N_ 0.122331 0.252385 0.140057 -0.272
N_ N_ 0.375977 0.252167 0.146286 -0.272
N_ N_ 0.115117 0.232805 0.00944393 -0.12501
N_ N_ 0.371429 0.267685 0.0128882 -0.12501
O_ O_ 0.0868321 0.288486 0.217727 -0.60745
O_ O_ 0.342079 0.298175 0.218111 -0.60745
O_ O_ 0.0954473 0.299657 0.284747 -0.60745
O_ O_ 0.351759 0.302407 0.285028 -0.60745
O_ O_ 0.15666 0.290821 0.285677 -0.60745
O_ O_ 0.409966 0.292723 0.28674 -0.60745
O_ O_ 0.147954 0.302879 0.21879 -0.60745
O_ O_ 0.404934 0.300295 0.21974 -0.60745
O_ O_ 0.155575 0.203914 0.280047 -0.60745
O_ O_ 0.403463 0.19967 0.287111 -0.60745
O_ O_ 0.156087 0.214499 0.210027 -0.60745
O_ O_ 0.408482 0.214715 0.218954 -0.60745
O_ O_ 0.09539 0.202893 0.215719 -0.60745
O_ O_ 0.342826 0.210112 0.214082 -0.60745
O_ O_ 0.0889176 0.212484 0.282054 -0.60745
O_ O_ 0.340679 0.213896 0.281727 -0.60745
Zn Zn 0.12658 0.244597 0.781776 0.9476
Zn Zn 0.377146 0.246169 0.788073 0.9476
Zn Zn 0.127586 0.245059 0.711478 0.9476
Zn Zn 0.375889 0.246159 0.716743 0.9476
H_ H_ 0.0464679 0.418013 0.674462 0.10932
H_ H_ 0.280369 0.405535 0.681519 0.10932
H_ H_ 0.059325 0.345213 0.807863 0.10932
H_ H_ 0.330411 0.357547 0.810167 0.10932
H_ H_ 0.0768559 0.359301 0.673997 0.10932
H_ H_ 0.30142 0.332222 0.684514 0.10932
H_ H_ 0.0292697 0.412033 0.802779 0.10932
H_ H_ 0.302415 0.429114 0.809241 0.10932
H_ H_ 0.211864 0.417423 0.820226 0.10932
H_ H_ 0.472756 0.416099 0.81945 0.10932
H_ H_ 0.18656 0.348183 0.684505 0.10932
H_ H_ 0.430771 0.351581 0.687381 0.10932
H_ H_ 0.180439 0.356233 0.817533 0.10932
H_ H_ 0.449087 0.345031 0.82216 0.10932
H_ H_ 0.220141 0.411599 0.683722 0.10932
H_ H_ 0.461626 0.414458 0.688456 0.10932
H_ H_ 0.238576 0.0954208 0.809083 0.10932
H_ H_ 0.479192 0.0951288 0.818748 0.10932
H_ H_ 0.167134 0.119855 0.692195 0.10932
H_ H_ 0.429292 0.138212 0.684013 0.10932
H_ H_ 0.206615 0.155586 0.80933 0.10932
H_ H_ 0.442178 0.150616 0.819051 0.10932
H_ H_ 0.207583 0.0657575 0.682535 0.10932
H_ H_ 0.454677 0.0686639 0.689557 0.10932
H_ H_ 0.0133665 0.0952994 0.686162 0.10932
H_ H_ 0.287084 0.0799893 0.67909 0.10932
H_ H_ 0.0830322 0.127614 0.810766 0.10932
H_ H_ 0.330765 0.131004 0.81188 0.10932
H_ H_ 0.0442844 0.160127 0.684697 0.10932
H_ H_ 0.310694 0.151033 0.684872 0.10932
H_ H_ 0.0494243 0.0644679 0.806343 0.10932
H_ H_ 0.304218 0.0646951 0.811264 0.10932
H_ H_ 0.120459 0.313827 0.851252 0.10932
H_ H_ 0.364223 0.307814 0.862027 0.10932
H_ H_ 0.126844 0.18806 0.858274 0.10932
H_ H_ 0.385796 0.182731 0.8542 0.10932
H_ H_ 0.123758 0.190139 0.937052 0.10932
H_ H_ 0.385607 0.174674 0.931133 0.10932
H_ H_ 0.13056 0.321345 0.929659 0.10932
H_ H_ 0.371185 0.305642 0.940459 0.10932
H_ H_ 0.125976 0.179309 0.640386 0.10932
H_ H_ 0.371694 0.183199 0.636685 0.10932
H_ H_ 0.127613 0.311631 0.640897 0.10932
H_ H_ 0.376852 0.311465 0.651772 0.10932
H_ H_ 0.131656 0.312773 0.564033 0.10932
H_ H_ 0.374819 0.324156 0.573268 0.10932
H_ H_ 0.120241 0.180688 0.562108 0.10932
H_ H_ 0.369381 0.191063 0.560201 0.10932
C_ C_ 0.0701491 0.34495 0.74177 -0.02249
C_ C_ 0.314666 0.339678 0.749654 -0.02249
C_ C_ 0.0164771 0.457502 0.733667 -0.02249
C_ C_ 0.265205 0.457372 0.746038 -0.02249
C_ C_ 0.045032 0.400757 0.701509 -0.11473
C_ C_ 0.286196 0.391448 0.711844 -0.11473
C_ C_ 0.0558334 0.360389 0.778242 -0.11473
C_ C_ 0.315334 0.367048 0.784938 -0.11473
C_ C_ 0.0637964 0.366381 0.702517 -0.11473
C_ C_ 0.303008 0.354962 0.711977 -0.11473
C_ C_ 0.0345231 0.419092 0.737945 -0.02249
C_ C_ 0.282452 0.415763 0.74848 -0.02249
C_ C_ 0.0883735 0.306266 0.743307 0.6875
C_ C_ 0.337376 0.305258 0.748582 0.6875
C_ C_ 0.0390629 0.398648 0.775962 -0.11473
C_ C_ 0.29969 0.404469 0.784021 -0.11473
C_ C_ 0.18753 0.342198 0.75233 -0.02249
C_ C_ 0.434047 0.346722 0.756914 -0.02249
C_ C_ 0.233644 0.458551 0.752937 -0.02249
C_ C_ 0.485198 0.457857 0.753278 -0.02249
C_ C_ 0.208825 0.400141 0.789572 -0.11473
C_ C_ 0.462723 0.399546 0.792452 -0.11473
C_ C_ 0.196016 0.361309 0.712927 -0.11473
C_ C_ 0.441682 0.362608 0.717064 -0.11473
C_ C_ 0.190871 0.364413 0.789774 -0.11473
C_ C_ 0.450493 0.36038 0.794877 -0.11473
C_ C_ 0.216449 0.419708 0.751885 -0.02249
C_ C_ 0.468269 0.41816 0.752211 -0.02249
C_ C_ 0.168229 0.301957 0.751749 0.6875
C_ C_ 0.415021 0.308471 0.756272 0.6875
C_ C_ 0.211515 0.397813 0.713539 -0.11473
C_ C_ 0.457247 0.399536 0.716318 -0.11473
C_ C_ 0.185616 0.145653 0.748972 -0.02249
C_ C_ 0.434642 0.150314 0.750839 -0.02249
C_ C_ 0.238577 0.0335099 0.749457 -0.02249
C_ C_ 0.484489 0.0356662 0.754502 -0.02249
C_ C_ 0.223531 0.102888 0.781138 -0.11473
C_ C_ 0.463835 0.0986019 0.792698 -0.11473
C_ C_ 0.184677 0.11843 0.71493 -0.11473
C_ C_ 0.437551 0.126526 0.714479 -0.11473
C_ C_ 0.206343 0.138278 0.781905 -0.11473
C_ C_ 0.44567 0.13279 0.790653 -0.11473
C_ C_ 0.221231 0.0741704 0.748986 -0.02249
C_ C_ 0.467015 0.0747086 0.754975 -0.02249
C_ C_ 0.164288 0.182001 0.7498 0.6875
C_ C_ 0.413631 0.185166 0.751263 0.6875
C_ C_ 0.204708 0.0851058 0.712672 -0.11473
C_ C_ 0.454404 0.0906277 0.716781 -0.11473
C_ C_ 0.064994 0.150269 0.748323 -0.02249
C_ C_ 0.31839 0.147312 0.7488 -0.02249
C_ C_ 0.0147816 0.0348549 0.740522 -0.02249
C_ C_ 0.270046 0.0319997 0.748202 -0.02249
C_ C_ 0.0306008 0.10151 0.710885 -0.11473
C_ C_ 0.292657 0.0923541 0.70996 -0.11473
C_ C_ 0.0678638 0.12143 0.782891 -0.11473
C_ C_ 0.316803 0.122724 0.78572 -0.11473
C_ C_ 0.0465081 0.138856 0.713208 -0.11473
C_ C_ 0.307644 0.132153 0.711633 -0.11473
C_ C_ 0.0330408 0.0737945 0.744521 -0.02249
C_ C_ 0.286541 0.0707795 0.748751 -0.02249
C_ C_ 0.0850349 0.186544 0.747127 0.6875
C_ C_ 0.336905 0.186471 0.74943 0.6875
C_ C_ 0.0521824 0.0832197 0.779769 -0.11473
C_ C_ 0.301418 0.0841793 0.784471 -0.11473
C_ C_ 0.126885 0.288464 0.869344 0.17695
C_ C_ 0.369248 0.278599 0.879257 0.17695
C_ C_ 0.125152 0.215679 0.874822 0.17695
C_ C_ 0.383744 0.209718 0.87352 0.17695
C_ C_ 0.123873 0.217033 0.918708 -0.11473
C_ C_ 0.384522 0.204953 0.917712 -0.11473
C_ C_ 0.122167 0.255874 0.938838 0.23465
C_ C_ 0.379768 0.240187 0.94416 0.23465
C_ C_ 0.12674 0.291982 0.914252 -0.11473
C_ C_ 0.372799 0.277786 0.923763 -0.11473
C_ C_ 0.124297 0.208666 0.623394 0.17695
C_ C_ 0.369592 0.213363 0.621144 0.17695
C_ C_ 0.127259 0.282618 0.622015 0.17695
C_ C_ 0.372337 0.285564 0.629609 0.17695
C_ C_ 0.126412 0.283573 0.578373 -0.11473
C_ C_ 0.36985 0.29316 0.585491 -0.11473
C_ C_ 0.122757 0.24685 0.556983 0.23465
C_ C_ 0.371043 0.258157 0.55835 0.23465
C_ C_ 0.122139 0.209536 0.578925 -0.11473
C_ C_ 0.371447 0.217575 0.577037 -0.11473
C_ C_ 0.0335746 0.495733 0.72916 0.05793
C_ C_ 0.280424 0.495502 0.738873 0.05793
C_ C_ 0.222243 -0.0034049999999999914 0.74585 0.05793
C_ C_ 0.468629 0.998456 0.761893 0.05793
Br Br 0.0752903 0.496507 0.713333 -0.17191
Br Br 0.322201 0.490852 0.728681 -0.17191
Br Br 0.178909 -0.00031199999999997896 0.755039 -0.17191
Br Br 0.425369 0.997225 0.764304 -0.17191
N_ N_ 0.126344 0.249926 0.85087 -0.272
N_ N_ 0.376662 0.245931 0.855599 -0.272
N_ N_ 0.122214 0.26034 0.984259 -0.12501
N_ N_ 0.378277 0.237947 0.988695 -0.12501
N_ N_ 0.127183 0.245859 0.642956 -0.272
N_ N_ 0.370761 0.24699 0.646653 -0.272
N_ N_ 0.117609 0.247003 0.511833 -0.12501
N_ N_ 0.369662 0.262974 0.513045 -0.12501
O_ O_ 0.0957674 0.286526 0.712198 -0.60745
O_ O_ 0.345699 0.290428 0.713509 -0.60745
O_ O_ 0.0977486 0.292674 0.778891 -0.60745
O_ O_ 0.345143 0.289679 0.783082 -0.60745
O_ O_ 0.155327 0.290776 0.784501 -0.60745
O_ O_ 0.404314 0.293779 0.789784 -0.60745
O_ O_ 0.158516 0.289319 0.715295 -0.60745
O_ O_ 0.407199 0.291724 0.720936 -0.60745
O_ O_ 0.155857 0.194435 0.785137 -0.60745
O_ O_ 0.409484 0.205918 0.784698 -0.60745
O_ O_ 0.158538 0.200978 0.714901 -0.60745
O_ O_ 0.404253 0.200558 0.716647 -0.60745
O_ O_ 0.0960862 0.19889 0.713745 -0.60745
O_ O_ 0.341432 0.203328 0.714995 -0.60745
O_ O_ 0.0948388 0.202232 0.780133 -0.60745
O_ O_ 0.350215 0.199584 0.78277 -0.60745
Zn Zn 0.122998 0.754649 0.282684 0.9476
Zn Zn 0.371328 0.752377 0.279935 0.9476
Zn Zn 0.125795 0.752835 0.21659 0.9476
Zn Zn 0.369681 0.753497 0.209032 0.9476
H_ H_ 0.0413787 0.929757 0.181803 0.10932
H_ H_ 0.295163 0.931668 0.183873 0.10932
H_ H_ 0.0584707 0.851 0.313543 0.10932
H_ H_ 0.299936 0.845798 0.312964 0.10932
H_ H_ 0.0744499 0.864164 0.183547 0.10932
H_ H_ 0.320104 0.863617 0.182252 0.10932
H_ H_ 0.031127 0.91601 0.311788 0.10932
H_ H_ 0.272598 0.91105 0.313592 0.10932
H_ H_ 0.21655 0.92744 0.305649 0.10932
H_ H_ 0.461565 0.925199 0.30245 0.10932
H_ H_ 0.17596 0.860676 0.176933 0.10932
H_ H_ 0.451272 0.837848 0.176091 0.10932
H_ H_ 0.20539 0.852313 0.306558 0.10932
H_ H_ 0.421433 0.86608 0.30289 0.10932
H_ H_ 0.21196 0.918504 0.171667 0.10932
H_ H_ 0.479358 0.904129 0.176392 0.10932
H_ H_ 0.220551 0.596023 0.318234 0.10932
H_ H_ 0.465881 0.595633 0.315392 0.10932
H_ H_ 0.161717 0.624985 0.186415 0.10932
H_ H_ 0.444951 0.652409 0.178335 0.10932
H_ H_ 0.187434 0.655494 0.317443 0.10932
H_ H_ 0.430173 0.652533 0.3125 0.10932
H_ H_ 0.200624 0.570017 0.188703 0.10932
H_ H_ 0.461186 0.581998 0.181591 0.10932
H_ H_ 0.0353249 0.589387 0.170564 0.10932
H_ H_ 0.276519 0.589958 0.178338 0.10932
H_ H_ 0.0711827 0.638482 0.309102 0.10932
H_ H_ 0.314137 0.646905 0.313757 0.10932
H_ H_ 0.0591306 0.66065 0.173978 0.10932
H_ H_ 0.311851 0.647571 0.181677 0.10932
H_ H_ 0.0355016 0.576567 0.303456 0.10932
H_ H_ 0.281628 0.58652 0.315737 0.10932
H_ H_ 0.125088 0.818901 0.354698 0.10932
H_ H_ 0.367988 0.825039 0.350473 0.10932
H_ H_ 0.120421 0.686514 0.359341 0.10932
H_ H_ 0.372286 0.690517 0.361722 0.10932
H_ H_ 0.119215 0.688425 0.435605 0.10932
H_ H_ 0.377877 0.698844 0.440183 0.10932
H_ H_ 0.123469 0.819593 0.435353 0.10932
H_ H_ 0.370971 0.830434 0.428282 0.10932
H_ H_ 0.128502 0.682723 0.147685 0.10932
H_ H_ 0.357976 0.820201 0.136515 0.10932
H_ H_ 0.121528 0.81041 0.136893 0.10932
H_ H_ 0.379888 0.693511 0.133043 0.10932
H_ H_ 0.127451 0.805664 0.0619578 0.10932
H_ H_ 0.380939 0.6947 0.0559835 0.10932
H_ H_ 0.131192 0.674862 0.0702477 0.10932
H_ H_ 0.345719 0.820534 0.060928 0.10932
C_ C_ 0.0633112 0.848469 0.245167 -0.02249
C_ C_ 0.31134 0.848449 0.245283 -0.02249
C_ C_ 0.0140452 0.964684 0.248602 -0.02249
C_ C_ 0.265604 0.967358 0.248142 -0.02249
C_ C_ 0.043259 0.91061 0.208841 -0.11473
C_ C_ 0.293258 0.910879 0.21045 -0.11473
C_ C_ 0.054639 0.866828 0.283749 -0.11473
C_ C_ 0.299108 0.863218 0.283791 -0.11473
C_ C_ 0.057819 0.870282 0.20769 -0.11473
C_ C_ 0.308304 0.873128 0.209342 -0.11473
C_ C_ 0.0314345 0.924238 0.245946 -0.02249
C_ C_ 0.281836 0.926001 0.248466 -0.02249
C_ C_ 0.0866802 0.81481 0.247877 0.6875
C_ C_ 0.327812 0.807265 0.246206 0.6875
C_ C_ 0.0385251 0.903523 0.282987 -0.11473
C_ C_ 0.287964 0.903894 0.287979 -0.11473
C_ C_ 0.183914 0.85122 0.243375 -0.02249
C_ C_ 0.431533 0.84883 0.237921 -0.02249
C_ C_ 0.234705 0.966602 0.23715 -0.02249
C_ C_ 0.483149 0.961196 0.238544 -0.02249
C_ C_ 0.210695 0.908608 0.277342 -0.11473
C_ C_ 0.455934 0.906247 0.27593 -0.11473
C_ C_ 0.187387 0.87156 0.204497 -0.11473
C_ C_ 0.451141 0.858333 0.2045 -0.11473
C_ C_ 0.1982 0.869145 0.279289 -0.11473
C_ C_ 0.435285 0.872431 0.276216 -0.11473
C_ C_ 0.217205 0.92794 0.238669 -0.02249
C_ C_ 0.465878 0.921746 0.237969 -0.02249
C_ C_ 0.165304 0.811766 0.247303 0.6875
C_ C_ 0.411701 0.810265 0.237025 0.6875
C_ C_ 0.206016 0.906971 0.203197 -0.11473
C_ C_ 0.466291 0.895717 0.203566 -0.11473
C_ C_ 0.172612 0.648314 0.250958 -0.02249
C_ C_ 0.431625 0.655291 0.245592 -0.02249
C_ C_ 0.229929 0.540133 0.256994 -0.02249
C_ C_ 0.482839 0.540912 0.253924 -0.02249
C_ C_ 0.210343 0.604399 0.289307 -0.11473
C_ C_ 0.454922 0.602568 0.285561 -0.11473
C_ C_ 0.175491 0.620911 0.215641 -0.11473
C_ C_ 0.441119 0.634185 0.208831 -0.11473
C_ C_ 0.187805 0.635457 0.289378 -0.11473
C_ C_ 0.437383 0.637284 0.284201 -0.11473
C_ C_ 0.211636 0.579481 0.254648 -0.02249
C_ C_ 0.465383 0.580504 0.249842 -0.02249
C_ C_ 0.153506 0.6867 0.248555 0.6875
C_ C_ 0.413829 0.694494 0.242464 0.6875
C_ C_ 0.196387 0.587644 0.217179 -0.11473
C_ C_ 0.459184 0.599317 0.211073 -0.11473
C_ C_ 0.0680701 0.654709 0.243531 -0.02249
C_ C_ 0.31462 0.652126 0.247593 -0.02249
C_ C_ 0.0162238 0.540105 0.236301 -0.02249
C_ C_ 0.262207 0.540381 0.250585 -0.02249
C_ C_ 0.0402617 0.602336 0.201023 -0.11473
C_ C_ 0.286715 0.598907 0.209027 -0.11473
C_ C_ 0.0634665 0.628997 0.279023 -0.11473
C_ C_ 0.306693 0.63356 0.285292 -0.11473
C_ C_ 0.0536037 0.643501 0.204013 -0.11473
C_ C_ 0.302775 0.63504 0.210301 -0.11473
C_ C_ 0.0331048 0.580619 0.237298 -0.02249
C_ C_ 0.278095 0.580741 0.24781 -0.02249
C_ C_ 0.0838017 0.693941 0.248591 0.6875
C_ C_ 0.333114 0.690118 0.247968 0.6875
C_ C_ 0.044044 0.593412 0.274748 -0.11473
C_ C_ 0.288971 0.598132 0.286134 -0.11473
C_ C_ 0.125293 0.788987 0.372998 0.17695
C_ C_ 0.36856 0.795825 0.370117 0.17695
C_ C_ 0.120877 0.717121 0.375084 0.17695
C_ C_ 0.373428 0.72235 0.376246 0.17695
C_ C_ 0.117248 0.717968 0.419082 -0.11473
C_ C_ 0.375793 0.725292 0.420037 -0.11473
C_ C_ 0.12021 0.755181 0.440011 0.23465
C_ C_ 0.372178 0.764673 0.439949 0.23465
C_ C_ 0.123876 0.791732 0.417611 -0.11473
C_ C_ 0.370029 0.800309 0.415078 -0.11473
C_ C_ 0.125755 0.708764 0.127787 0.17695
C_ C_ 0.357492 0.790928 0.119668 0.17695
C_ C_ 0.12277 0.781523 0.121664 0.17695
C_ C_ 0.373636 0.721864 0.117341 0.17695
C_ C_ 0.123783 0.777212 0.0783764 -0.11473
C_ C_ 0.373973 0.723089 0.074481 -0.11473
C_ C_ 0.129338 0.740063 0.0588591 0.23465
C_ C_ 0.363034 0.758103 0.0516517 0.23465
C_ C_ 0.12896 0.704619 0.083449 -0.11473
C_ C_ 0.354366 0.792717 0.0756946 -0.11473
C_ C_ 0.0308352 1.00241371 0.248785 0.05793
C_ C_ 0.279991 1.00586845 0.258566 0.05793
C_ C_ 0.215832 0.503009 0.266247 0.05793
C_ C_ 0.467978 0.501822 0.259585 0.05793
Br Br 0.073951 0.00339114 0.258928 -0.17191
Br Br 0.321272 1.00587883 0.273721 -0.17191
Br Br 0.175854 0.503525 0.28608 -0.17191
Br Br 0.426777 0.500668 0.273444 -0.17191
N_ N_ 0.122967 0.752531 0.353338 -0.272
N_ N_ 0.371773 0.757435 0.352423 -0.272
N_ N_ 0.11551 0.757327 0.483666 -0.12501
N_ N_ 0.378165 0.77068 0.482758 -0.12501
N_ N_ 0.122899 0.745857 0.146524 -0.272
N_ N_ 0.365413 0.755952 0.138667 -0.272
N_ N_ 0.127187 0.735226 0.0139818 -0.12501
N_ N_ 0.358708 0.75559 0.00739703 -0.12501
O_ O_ 0.097493 0.800727 0.214037 -0.60745
O_ O_ 0.336469 0.793862 0.211531 -0.60745
O_ O_ 0.0892911 0.795357 0.283296 -0.60745
O_ O_ 0.340364 0.795561 0.280531 -0.60745
O_ O_ 0.153538 0.801597 0.282203 -0.60745
O_ O_ 0.400288 0.797279 0.271017 -0.60745
O_ O_ 0.157371 0.793059 0.214486 -0.60745
O_ O_ 0.399161 0.797052 0.203062 -0.60745
O_ O_ 0.147759 0.703754 0.283637 -0.60745
O_ O_ 0.406248 0.710695 0.276017 -0.60745
O_ O_ 0.151642 0.706519 0.214389 -0.60745
O_ O_ 0.404482 0.708295 0.20764 -0.60745
O_ O_ 0.0924283 0.71378 0.216176 -0.60745
O_ O_ 0.340166 0.70882 0.214225 -0.60745
O_ O_ 0.0891624 0.71072 0.284425 -0.60745
O_ O_ 0.340636 0.70533 0.282321 -0.60745
Zn Zn 0.128559 0.750899 0.782228 0.9476
Zn Zn 0.373573 0.745059 0.77914 0.9476
Zn Zn 0.125123 0.749041 0.71411 0.9476
Zn Zn 0.378666 0.74749 0.708824 0.9476
H_ H_ 0.029097 0.90484 0.673974 0.10932
H_ H_ 0.268327 0.902275 0.680534 0.10932
H_ H_ 0.0692119 0.860815 0.815099 0.10932
H_ H_ 0.324226 0.853255 0.803282 0.10932
H_ H_ 0.0580827 0.840608 0.678813 0.10932
H_ H_ 0.306204 0.843987 0.672191 0.10932
H_ H_ 0.0410381 0.925913 0.805589 0.10932
H_ H_ 0.300229 0.922091 0.802674 0.10932
H_ H_ 0.24135 0.895713 0.799455 0.10932
H_ H_ 0.469954 0.905634 0.82024 0.10932
H_ H_ 0.169517 0.866111 0.68656 0.10932
H_ H_ 0.413179 0.867499 0.687481 0.10932
H_ H_ 0.205349 0.841079 0.811478 0.10932
H_ H_ 0.442376 0.840628 0.816931 0.10932
H_ H_ 0.195967 0.929312 0.68718 0.10932
H_ H_ 0.451845 0.927178 0.687967 0.10932
H_ H_ 0.227973 0.591221 0.815545 0.10932
H_ H_ 0.467622 0.585374 0.818359 0.10932
H_ H_ 0.176511 0.636126 0.686778 0.10932
H_ H_ 0.437347 0.640658 0.683807 0.10932
H_ H_ 0.202303 0.656276 0.814338 0.10932
H_ H_ 0.436583 0.645066 0.817229 0.10932
H_ H_ 0.212112 0.577215 0.683611 0.10932
H_ H_ 0.466116 0.579488 0.685123 0.10932
H_ H_ 0.0205787 0.600715 0.679195 0.10932
H_ H_ 0.268424 0.590936 0.682533 0.10932
H_ H_ 0.0823584 0.632473 0.807724 0.10932
H_ H_ 0.331946 0.627594 0.804389 0.10932
H_ H_ 0.0506533 0.660067 0.682726 0.10932
H_ H_ 0.296671 0.655655 0.67735 0.10932
H_ H_ 0.0529436 0.563314 0.801212 0.10932
H_ H_ 0.308398 0.559261 0.800904 0.10932
H_ H_ 0.120714 0.816804 0.855442 0.10932
H_ H_ 0.379196 0.808597 0.860268 0.10932
H_ H_ 0.121609 0.689249 0.860627 0.10932
H_ H_ 0.371968 0.680064 0.85012 0.10932
H_ H_ 0.130385 0.690502 0.941609 0.10932
H_ H_ 0.377076 0.671175 0.927642 0.10932
H_ H_ 0.118579 0.821944 0.93292 0.10932
H_ H_ 0.377817 0.80468 0.936121 0.10932
H_ H_ 0.129642 0.684252 0.635883 0.10932
H_ H_ 0.377745 0.813297 0.632608 0.10932
H_ H_ 0.123103 0.813381 0.638847 0.10932
H_ H_ 0.385868 0.684773 0.64184 0.10932
H_ H_ 0.123483 0.819398 0.560358 0.10932
H_ H_ 0.385888 0.679448 0.563153 0.10932
H_ H_ 0.141579 0.688902 0.560172 0.10932
H_ H_ 0.380841 0.812261 0.556386 0.10932
C_ C_ 0.0640678 0.8436 0.747629 -0.02249
C_ C_ 0.315357 0.841773 0.737551 -0.02249
C_ C_ 0.0125473 0.959958 0.739245 -0.02249
C_ C_ 0.267949 0.956994 0.740195 -0.02249
C_ C_ 0.0366782 0.894535 0.705015 -0.11473
C_ C_ 0.286323 0.895964 0.701111 -0.11473
C_ C_ 0.0609674 0.870412 0.783773 -0.11473
C_ C_ 0.313982 0.866341 0.774434 -0.11473
C_ C_ 0.0514405 0.856561 0.708932 -0.11473
C_ C_ 0.300459 0.856848 0.701139 -0.11473
C_ C_ 0.0281983 0.916836 0.742512 -0.02249
C_ C_ 0.285597 0.919323 0.738602 -0.02249
C_ C_ 0.0859709 0.809645 0.749388 0.6875
C_ C_ 0.334641 0.801765 0.738396 0.6875
C_ C_ 0.0416899 0.90373 0.781643 -0.11473
C_ C_ 0.301858 0.905501 0.773862 -0.11473
C_ C_ 0.183616 0.848722 0.750196 -0.02249
C_ C_ 0.428967 0.848155 0.748814 -0.02249
C_ C_ 0.23591 0.958664 0.741188 -0.02249
C_ C_ 0.483747 0.960695 0.75574 -0.02249
C_ C_ 0.222089 0.892781 0.780692 -0.11473
C_ C_ 0.462612 0.895026 0.788924 -0.11473
C_ C_ 0.183466 0.872556 0.713678 -0.11473
C_ C_ 0.427116 0.875769 0.71452 -0.11473
C_ C_ 0.201592 0.860018 0.784186 -0.11473
C_ C_ 0.444624 0.860568 0.787341 -0.11473
C_ C_ 0.217614 0.919566 0.745306 -0.02249
C_ C_ 0.465434 0.920589 0.752556 -0.02249
C_ C_ 0.165426 0.811215 0.750587 0.6875
C_ C_ 0.415939 0.80596 0.745655 0.6875
C_ C_ 0.199077 0.908715 0.7119 -0.11473
C_ C_ 0.447367 0.911687 0.715884 -0.11473
C_ C_ 0.185001 0.651779 0.748389 -0.02249
C_ C_ 0.433908 0.651132 0.750279 -0.02249
C_ C_ 0.234944 0.535019 0.753411 -0.02249
C_ C_ 0.485855 0.53546 0.751676 -0.02249
C_ C_ 0.218587 0.603116 0.785773 -0.11473
C_ C_ 0.461847 0.596796 0.789033 -0.11473
C_ C_ 0.18947 0.628602 0.712582 -0.11473
C_ C_ 0.443707 0.630791 0.714557 -0.11473
C_ C_ 0.20084 0.638211 0.785915 -0.11473
C_ C_ 0.443849 0.63398 0.788175 -0.11473
C_ C_ 0.218667 0.575168 0.751853 -0.02249
C_ C_ 0.468097 0.574655 0.752253 -0.02249
C_ C_ 0.168613 0.692092 0.747018 0.6875
C_ C_ 0.414022 0.686983 0.748774 0.6875
C_ C_ 0.206689 0.591675 0.713735 -0.11473
C_ C_ 0.460349 0.594108 0.715031 -0.11473
C_ C_ 0.0688977 0.650077 0.746268 -0.02249
C_ C_ 0.317066 0.648807 0.74189 -0.02249
C_ C_ 0.018961 0.534655 0.735009 -0.02249
C_ C_ 0.265312 0.534974 0.741804 -0.02249
C_ C_ 0.0368496 0.602876 0.705914 -0.11473
C_ C_ 0.284018 0.599495 0.706646 -0.11473
C_ C_ 0.0699878 0.621891 0.779427 -0.11473
C_ C_ 0.318702 0.620146 0.776058 -0.11473
C_ C_ 0.054289 0.638222 0.70755 -0.11473
C_ C_ 0.301436 0.63494 0.703923 -0.11473
C_ C_ 0.0378284 0.573253 0.737514 -0.02249
C_ C_ 0.284 0.573852 0.741295 -0.02249
C_ C_ 0.0887078 0.68703 0.745546 0.6875
C_ C_ 0.336562 0.688383 0.744592 0.6875
C_ C_ 0.0538931 0.584498 0.774151 -0.11473
C_ C_ 0.304268 0.582075 0.775274 -0.11473
C_ C_ 0.127241 0.7916 0.874562 0.17695
C_ C_ 0.375631 0.777874 0.874734 0.17695
C_ C_ 0.127035 0.717484 0.87871 0.17695
C_ C_ 0.373541 0.706104 0.870068 0.17695
C_ C_ 0.130011 0.718216 0.922627 -0.11473
C_ C_ 0.376742 0.702279 0.914369 -0.11473
C_ C_ 0.128816 0.757461 0.941705 0.23465
C_ C_ 0.377184 0.738158 0.938919 0.23465
C_ C_ 0.123954 0.793371 0.918191 -0.11473
C_ C_ 0.377369 0.776747 0.91883 -0.11473
C_ C_ 0.13047 0.713927 0.619698 0.17695
C_ C_ 0.379969 0.783934 0.61688 0.17695
C_ C_ 0.125495 0.785524 0.621137 0.17695
C_ C_ 0.382813 0.711365 0.621838 0.17695
C_ C_ 0.125929 0.7887 0.575943 -0.11473
C_ C_ 0.382455 0.708393 0.577681 -0.11473
C_ C_ 0.129923 0.752398 0.553399 0.23465
C_ C_ 0.380649 0.744538 0.552858 0.23465
C_ C_ 0.134574 0.714745 0.576787 -0.11473
C_ C_ 0.380497 0.782538 0.573197 -0.11473
C_ C_ 0.0293431 -0.003159000000000023 0.736778 0.05793
C_ C_ 0.283743 -0.005632999999999999 0.742128 0.05793
C_ C_ 0.218842 0.497808 0.759171 0.05793
C_ C_ 0.470071 0.497063 0.750857 0.05793
Br Br 0.0702163 -0.008218999999999976 0.720932 -0.17191
Br Br 0.327159 -0.007062000000000013 0.728842 -0.17191
Br Br 0.179073 0.49974 0.78375 -0.17191
Br Br 0.427105 0.497809 0.754032 -0.17191
N_ N_ 0.130044 0.75371 0.855835 -0.272
N_ N_ 0.372262 0.743471 0.851457 -0.272
N_ N_ 0.131521 0.764518 0.987352 -0.12501
N_ N_ 0.376955 0.736455 0.984532 -0.12501
N_ N_ 0.127652 0.749402 0.642343 -0.272
N_ N_ 0.381668 0.749329 0.640801 -0.272
N_ N_ 0.135763 0.750149 0.509341 -0.12501
N_ N_ 0.375734 0.740953 0.50807 -0.12501
O_ O_ 0.0946846 0.793361 0.715896 -0.60745
O_ O_ 0.345906 0.789643 0.704616 -0.60745
O_ O_ 0.0963815 0.797292 0.784155 -0.60745
O_ O_ 0.343217 0.785686 0.772563 -0.60745
O_ O_ 0.158759 0.795747 0.785865 -0.60745
O_ O_ 0.404702 0.790701 0.778265 -0.60745
O_ O_ 0.154136 0.798588 0.717765 -0.60745
O_ O_ 0.410535 0.790135 0.709623 -0.60745
O_ O_ 0.160452 0.708288 0.782139 -0.60745
O_ O_ 0.40452 0.701796 0.782779 -0.60745
O_ O_ 0.160364 0.708593 0.712014 -0.60745
O_ O_ 0.407077 0.704299 0.714686 -0.60745
O_ O_ 0.0961694 0.703363 0.711048 -0.60745
O_ O_ 0.346384 0.704621 0.712047 -0.60745
O_ O_ 0.0963349 0.705238 0.780076 -0.60745
O_ O_ 0.340284 0.704451 0.780269 -0.60745
Zn Zn 0.623976 0.251486 0.289573 0.9476
Zn Zn 0.877557 0.254782 0.288303 0.9476
Zn Zn 0.621831 0.249948 0.2192 0.9476
Zn Zn 0.875599 0.253592 0.217654 0.9476
H_ H_ 0.52382 0.414485 0.191656 0.10932
H_ H_ 0.791593 0.421376 0.184435 0.10932
H_ H_ 0.574741 0.367816 0.324332 0.10932
H_ H_ 0.804864 0.343891 0.317089 0.10932
H_ H_ 0.54949 0.342708 0.193762 0.10932
H_ H_ 0.822462 0.364652 0.188981 0.10932
H_ H_ 0.547035 0.432615 0.318581 0.10932
H_ H_ 0.78167 0.418915 0.320689 0.10932
H_ H_ 0.71959 0.419863 0.319243 0.10932
H_ H_ 0.977319 0.412046 0.312728 0.10932
H_ H_ 0.685443 0.350667 0.187193 0.10932
H_ H_ 0.925398 0.364976 0.183667 0.10932
H_ H_ 0.682508 0.362715 0.319707 0.10932
H_ H_ 0.951833 0.34344 0.313836 0.10932
H_ H_ 0.720328 0.411177 0.184758 0.10932
H_ H_ 0.951033 0.432222 0.183181 0.10932
H_ H_ 0.721631 0.0888907 0.321525 0.10932
H_ H_ 0.973521 0.093371 0.316544 0.10932
H_ H_ 0.69246 0.156259 0.189875 0.10932
H_ H_ 0.925929 0.142427 0.184949 0.10932
H_ H_ 0.680459 0.140308 0.322912 0.10932
H_ H_ 0.945316 0.158428 0.317171 0.10932
H_ H_ 0.716441 0.0853944 0.188674 0.10932
H_ H_ 0.953154 0.0771402 0.185246 0.10932
H_ H_ 0.553594 0.0684166 0.187389 0.10932
H_ H_ 0.79644 0.0795113 0.189689 0.10932
H_ H_ 0.548927 0.151879 0.317271 0.10932
H_ H_ 0.814287 0.152587 0.324285 0.10932
H_ H_ 0.582415 0.133222 0.189319 0.10932
H_ H_ 0.818963 0.145933 0.190351 0.10932
H_ H_ 0.519823 0.090134 0.308721 0.10932
H_ H_ 0.786188 0.0838234 0.323828 0.10932
H_ H_ 0.582917 0.237599 0.360788 0.10932
H_ H_ 0.894556 0.192334 0.365792 0.10932
H_ H_ 0.674232 0.266296 0.360355 0.10932
H_ H_ 0.868476 0.317942 0.352081 0.10932
H_ H_ 0.677658 0.26327 0.44268 0.10932
H_ H_ 0.863482 0.327201 0.428288 0.10932
H_ H_ 0.580603 0.240977 0.438314 0.10932
H_ H_ 0.894412 0.200132 0.441575 0.10932
H_ H_ 0.614987 0.18168 0.143442 0.10932
H_ H_ 0.825606 0.242255 0.146816 0.10932
H_ H_ 0.633393 0.310222 0.144222 0.10932
H_ H_ 0.92092 0.255888 0.137393 0.10932
H_ H_ 0.631813 0.310028 0.0649452 0.10932
H_ H_ 0.916804 0.249256 0.0630299 0.10932
H_ H_ 0.612874 0.180278 0.0652829 0.10932
H_ H_ 0.820164 0.240288 0.0677541 0.10932
C_ C_ 0.566704 0.353056 0.256166 -0.02249
C_ C_ 0.815476 0.348656 0.253152 -0.02249
C_ C_ 0.516063 0.466481 0.253948 -0.02249
C_ C_ 0.766805 0.463695 0.255745 -0.02249
C_ C_ 0.537318 0.403863 0.216732 -0.11473
C_ C_ 0.795316 0.40878 0.215927 -0.11473
C_ C_ 0.563493 0.37655 0.29312 -0.11473
C_ C_ 0.803776 0.364667 0.290512 -0.11473
C_ C_ 0.551271 0.365514 0.21895 -0.11473
C_ C_ 0.81338 0.374433 0.217132 -0.11473
C_ C_ 0.534103 0.427257 0.254633 -0.02249
C_ C_ 0.785075 0.424533 0.254778 -0.02249
C_ C_ 0.583966 0.311492 0.255034 0.6875
C_ C_ 0.835625 0.311857 0.253529 0.6875
C_ C_ 0.54902 0.41414 0.290732 -0.11473
C_ C_ 0.788612 0.402946 0.291591 -0.11473
C_ C_ 0.683455 0.349824 0.253476 -0.02249
C_ C_ 0.937577 0.349066 0.247287 -0.02249
C_ C_ 0.735927 0.462826 0.250936 -0.02249
C_ C_ 0.986267 0.464694 0.24567 -0.02249
C_ C_ 0.712615 0.4047 0.289131 -0.11473
C_ C_ 0.967707 0.401722 0.285157 -0.11473
C_ C_ 0.694073 0.365372 0.216177 -0.11473
C_ C_ 0.939615 0.373622 0.211112 -0.11473
C_ C_ 0.693628 0.369526 0.290032 -0.11473
C_ C_ 0.952212 0.363438 0.283913 -0.11473
C_ C_ 0.720601 0.421841 0.251766 -0.02249
C_ C_ 0.971219 0.424743 0.246132 -0.02249
C_ C_ 0.661678 0.312846 0.251955 0.6875
C_ C_ 0.915549 0.31401 0.249621 0.6875
C_ C_ 0.712388 0.40049 0.215373 -0.11473
C_ C_ 0.953879 0.412498 0.210788 -0.11473
C_ C_ 0.685922 0.157015 0.255111 -0.02249
C_ C_ 0.933467 0.157378 0.250844 -0.02249
C_ C_ 0.736652 0.0411753 0.257522 -0.02249
C_ C_ 0.982668 0.0407192 0.250093 -0.02249
C_ C_ 0.711401 0.0983735 0.292695 -0.11473
C_ C_ 0.963589 0.105107 0.287903 -0.11473
C_ C_ 0.697657 0.140534 0.218117 -0.11473
C_ C_ 0.936705 0.133951 0.214086 -0.11473
C_ C_ 0.692354 0.133166 0.293764 -0.11473
C_ C_ 0.947999 0.141798 0.287682 -0.11473
C_ C_ 0.721564 0.0813253 0.25532 -0.02249
C_ C_ 0.964361 0.0800813 0.251623 -0.02249
C_ C_ 0.664359 0.193752 0.256489 0.6875
C_ C_ 0.917459 0.196658 0.250765 0.6875
C_ C_ 0.715191 0.103341 0.217572 -0.11473
C_ C_ 0.952578 0.0948959 0.213076 -0.11473
C_ C_ 0.568748 0.15014 0.252636 -0.02249
C_ C_ 0.819494 0.15444 0.257586 -0.02249
C_ C_ 0.513391 0.0374145 0.244929 -0.02249
C_ C_ 0.767902 0.0393136 0.257699 -0.02249
C_ C_ 0.549871 0.0896159 0.211902 -0.11473
C_ C_ 0.799168 0.0949263 0.218774 -0.11473
C_ C_ 0.549106 0.136637 0.284921 -0.11473
C_ C_ 0.807675 0.137452 0.294909 -0.11473
C_ C_ 0.569036 0.124924 0.215711 -0.11473
C_ C_ 0.811526 0.134251 0.219241 -0.11473
C_ C_ 0.530123 0.0782654 0.244685 -0.02249
C_ C_ 0.785951 0.0792696 0.255415 -0.02249
C_ C_ 0.584937 0.190966 0.253298 0.6875
C_ C_ 0.839376 0.192806 0.258031 0.6875
C_ C_ 0.53141 0.102162 0.282127 -0.11473
C_ C_ 0.790159 0.100494 0.293518 -0.11473
C_ C_ 0.60259 0.244896 0.379128 0.17695
C_ C_ 0.889953 0.223833 0.380343 0.17695
C_ C_ 0.655226 0.259833 0.380789 0.17695
C_ C_ 0.872604 0.292989 0.372615 0.17695
C_ C_ 0.655517 0.262388 0.424811 -0.11473
C_ C_ 0.872735 0.297773 0.416636 -0.11473
C_ C_ 0.628054 0.256456 0.446539 0.23465
C_ C_ 0.879842 0.262862 0.44338 0.23465
C_ C_ 0.60189 0.24688 0.42342 -0.11473
C_ C_ 0.88762 0.226334 0.424663 -0.11473
C_ C_ 0.619143 0.20863 0.126493 0.17695
C_ C_ 0.846003 0.247701 0.128198 0.17695
C_ C_ 0.628759 0.280469 0.126615 0.17695
C_ C_ 0.898007 0.255569 0.122743 0.17695
C_ C_ 0.626604 0.282936 0.0828678 -0.11473
C_ C_ 0.896502 0.251519 0.079002 -0.11473
C_ C_ 0.622403 0.246328 0.0596915 0.23465
C_ C_ 0.868837 0.244503 0.0589348 0.23465
C_ C_ 0.619382 0.207591 0.0821366 -0.11473
C_ C_ 0.842962 0.243534 0.0836923 -0.11473
C_ C_ 0.531186 0.504945 0.251328 0.05793
C_ C_ 0.782214 0.501816 0.253951 0.05793
C_ C_ 0.720029 1.00504356 0.260722 0.05793
C_ C_ 0.966562 1.00214866 0.24703 0.05793
Br Br 0.57432 0.50754 0.262314 -0.17191
Br Br 0.82566 0.503523 0.254061 -0.17191
Br Br 0.676815 0.00829732 0.267804 -0.17191
Br Br 0.921746 -0.00117536 0.240901 -0.17191
N_ N_ 0.628039 0.253433 0.359659 -0.272
N_ N_ 0.880554 0.255808 0.35668 -0.272
N_ N_ 0.62804 0.261404 0.489641 -0.12501
N_ N_ 0.876134 0.266526 0.488305 -0.12501
N_ N_ 0.622117 0.245186 0.146247 -0.272
N_ N_ 0.872695 0.253947 0.146391 -0.272
N_ N_ 0.617879 0.249941 0.0145477 -0.12501
N_ N_ 0.864952 0.242607 0.012962 -0.12501
O_ O_ 0.589749 0.292652 0.219917 -0.60745
O_ O_ 0.844336 0.296261 0.219767 -0.60745
O_ O_ 0.595499 0.297894 0.289014 -0.60745
O_ O_ 0.842526 0.294853 0.287908 -0.60745
O_ O_ 0.656809 0.293924 0.28578 -0.60745
O_ O_ 0.906978 0.298792 0.284514 -0.60745
O_ O_ 0.655537 0.294485 0.217291 -0.60745
O_ O_ 0.908387 0.295793 0.215363 -0.60745
O_ O_ 0.658714 0.210324 0.291385 -0.60745
O_ O_ 0.909648 0.212888 0.286916 -0.60745
O_ O_ 0.654286 0.207675 0.221333 -0.60745
O_ O_ 0.905831 0.210325 0.217556 -0.60745
O_ O_ 0.593797 0.206823 0.219152 -0.60745
O_ O_ 0.844955 0.209704 0.222058 -0.60745
O_ O_ 0.592855 0.206029 0.289179 -0.60745
O_ O_ 0.850957 0.207106 0.291373 -0.60745
Zn Zn 0.625485 0.244426 0.78698 0.9476
Zn Zn 0.877097 0.248688 0.783848 0.9476
Zn Zn 0.626606 0.248083 0.718254 0.9476
Zn Zn 0.873408 0.247168 0.7167 0.9476
H_ H_ 0.542993 0.418544 0.694581 0.10932
H_ H_ 0.784183 0.420459 0.681484 0.10932
H_ H_ 0.554223 0.331751 0.823319 0.10932
H_ H_ 0.820783 0.355953 0.812997 0.10932
H_ H_ 0.570557 0.354197 0.691526 0.10932
H_ H_ 0.802514 0.349674 0.679809 0.10932
H_ H_ 0.528873 0.402346 0.825823 0.10932
H_ H_ 0.791723 0.4215 0.816268 0.10932
H_ H_ 0.72315 0.407941 0.827032 0.10932
H_ H_ 0.978898 0.404974 0.80953 0.10932
H_ H_ 0.685032 0.35581 0.690806 0.10932
H_ H_ 0.923872 0.360225 0.682068 0.10932
H_ H_ 0.694692 0.344691 0.823686 0.10932
H_ H_ 0.938649 0.349361 0.814132 0.10932
H_ H_ 0.711132 0.423985 0.695733 0.10932
H_ H_ 0.960197 0.412014 0.67537 0.10932
H_ H_ 0.731852 0.0919568 0.812319 0.10932
H_ H_ 0.962989 0.0808562 0.818704 0.10932
H_ H_ 0.675492 0.135451 0.686134 0.10932
H_ H_ 0.921325 0.137727 0.687637 0.10932
H_ H_ 0.704912 0.158491 0.812029 0.10932
H_ H_ 0.934635 0.145342 0.820949 0.10932
H_ H_ 0.715808 0.0798738 0.680865 0.10932
H_ H_ 0.954972 0.0765838 0.684566 0.10932
H_ H_ 0.540118 0.0711049 0.684536 0.10932
H_ H_ 0.77911 0.0841348 0.688107 0.10932
H_ H_ 0.557465 0.152298 0.81678 0.10932
H_ H_ 0.827969 0.134653 0.817542 0.10932
H_ H_ 0.579319 0.129246 0.688998 0.10932
H_ H_ 0.802725 0.150367 0.685805 0.10932
H_ H_ 0.533059 0.0861403 0.816592 0.10932
H_ H_ 0.792906 0.0766051 0.81899 0.10932
H_ H_ 0.631013 0.303503 0.866527 0.10932
H_ H_ 0.864763 0.192252 0.864251 0.10932
H_ H_ 0.624655 0.174128 0.852639 0.10932
H_ H_ 0.891212 0.320437 0.855922 0.10932
H_ H_ 0.633868 0.166282 0.931532 0.10932
H_ H_ 0.890389 0.32434 0.93375 0.10932
H_ H_ 0.626857 0.298764 0.942367 0.10932
H_ H_ 0.864369 0.195378 0.940605 0.10932
H_ H_ 0.627394 0.310204 0.638595 0.10932
H_ H_ 0.925905 0.241714 0.647397 0.10932
H_ H_ 0.608765 0.180927 0.647213 0.10932
H_ H_ 0.830841 0.257595 0.634914 0.10932
H_ H_ 0.607994 0.177842 0.569697 0.10932
H_ H_ 0.832638 0.250049 0.557748 0.10932
H_ H_ 0.623572 0.308396 0.565101 0.10932
H_ H_ 0.928796 0.234558 0.570172 0.10932
C_ C_ 0.565276 0.340808 0.75804 -0.02249
C_ C_ 0.814357 0.346561 0.746311 -0.02249
C_ C_ 0.516958 0.456801 0.759915 -0.02249
C_ C_ 0.766012 0.4632 0.753044 -0.02249
C_ C_ 0.546166 0.401372 0.722521 -0.11473
C_ C_ 0.790641 0.40485 0.710601 -0.11473
C_ C_ 0.553768 0.354477 0.797167 -0.11473
C_ C_ 0.811457 0.368215 0.785232 -0.11473
C_ C_ 0.563268 0.366304 0.721818 -0.11473
C_ C_ 0.801886 0.364909 0.708919 -0.11473
C_ C_ 0.534899 0.417119 0.760016 -0.02249
C_ C_ 0.782711 0.423455 0.7502 -0.02249
C_ C_ 0.584868 0.302197 0.755983 0.6875
C_ C_ 0.83606 0.308444 0.744715 0.6875
C_ C_ 0.539468 0.393089 0.797488 -0.11473
C_ C_ 0.794485 0.406029 0.78594 -0.11473
C_ C_ 0.68845 0.344106 0.756445 -0.02249
C_ C_ 0.932656 0.345708 0.746708 -0.02249
C_ C_ 0.734877 0.463128 0.7612 -0.02249
C_ C_ 0.985627 0.457696 0.739317 -0.02249
C_ C_ 0.713855 0.399825 0.797712 -0.11473
C_ C_ 0.966079 0.396893 0.781188 -0.11473
C_ C_ 0.693224 0.368092 0.720001 -0.11473
C_ C_ 0.936885 0.365752 0.708873 -0.11473
C_ C_ 0.700565 0.360491 0.795598 -0.11473
C_ C_ 0.945353 0.363581 0.783666 -0.11473
C_ C_ 0.71831 0.422273 0.761896 -0.02249
C_ C_ 0.970052 0.415579 0.74212 -0.02249
C_ C_ 0.666749 0.306617 0.752655 0.6875
C_ C_ 0.915721 0.306156 0.747744 0.6875
C_ C_ 0.709763 0.404868 0.723266 -0.11473
C_ C_ 0.955669 0.400232 0.707596 -0.11473
C_ C_ 0.686835 0.150341 0.749038 -0.02249
C_ C_ 0.929722 0.14964 0.751812 -0.02249
C_ C_ 0.740461 0.0351795 0.747262 -0.02249
C_ C_ 0.98273 0.0394035 0.745752 -0.02249
C_ C_ 0.720977 0.102055 0.783309 -0.11473
C_ C_ 0.958399 0.0961878 0.787972 -0.11473
C_ C_ 0.69131 0.128135 0.712443 -0.11473
C_ C_ 0.935976 0.131603 0.713275 -0.11473
C_ C_ 0.70339 0.137987 0.784393 -0.11473
C_ C_ 0.94158 0.133346 0.790168 -0.11473
C_ C_ 0.724044 0.0772208 0.747147 -0.02249
C_ C_ 0.966235 0.0795448 0.748805 -0.02249
C_ C_ 0.66762 0.188049 0.751707 0.6875
C_ C_ 0.91086 0.186296 0.75377 0.6875
C_ C_ 0.712738 0.0948786 0.7101 -0.11473
C_ C_ 0.95222 0.0948797 0.713142 -0.11473
C_ C_ 0.56671 0.150701 0.750053 -0.02249
C_ C_ 0.816548 0.14983 0.751625 -0.02249
C_ C_ 0.51644 0.0366813 0.750734 -0.02249
C_ C_ 0.771926 0.031915 0.75654 -0.02249
C_ C_ 0.543437 0.090723 0.711831 -0.11473
C_ C_ 0.790022 0.0947042 0.716028 -0.11473
C_ C_ 0.550948 0.138936 0.785351 -0.11473
C_ C_ 0.816222 0.126091 0.789399 -0.11473
C_ C_ 0.562768 0.125751 0.713104 -0.11473
C_ C_ 0.802813 0.133501 0.716042 -0.11473
C_ C_ 0.530864 0.0770606 0.749562 -0.02249
C_ C_ 0.789965 0.0713206 0.753644 -0.02249
C_ C_ 0.587304 0.185559 0.753033 0.6875
C_ C_ 0.83581 0.187358 0.749466 0.6875
C_ C_ 0.536501 0.101205 0.786254 -0.11473
C_ C_ 0.799562 0.0905643 0.789839 -0.11473
C_ C_ 0.62802 0.274549 0.879547 0.17695
C_ C_ 0.870718 0.221671 0.879045 0.17695
C_ C_ 0.625429 0.200179 0.873227 0.17695
C_ C_ 0.882977 0.293406 0.874808 0.17695
C_ C_ 0.627123 0.196197 0.91737 -0.11473
C_ C_ 0.884793 0.296516 0.918981 -0.11473
C_ C_ 0.625194 0.23206 0.943928 0.23465
C_ C_ 0.879582 0.261418 0.943544 0.23465
C_ C_ 0.624076 0.270782 0.923809 -0.11473
C_ C_ 0.872874 0.223252 0.923773 -0.11473
C_ C_ 0.625705 0.28008 0.62445 0.17695
C_ C_ 0.905215 0.24134 0.627591 0.17695
C_ C_ 0.614748 0.208121 0.627915 0.17695
C_ C_ 0.852332 0.251361 0.620349 0.17695
C_ C_ 0.614195 0.204904 0.584298 -0.11473
C_ C_ 0.852557 0.250077 0.577113 -0.11473
C_ C_ 0.618647 0.240525 0.560396 0.23465
C_ C_ 0.880648 0.242705 0.557653 0.23465
C_ C_ 0.622454 0.278721 0.581258 -0.11473
C_ C_ 0.907013 0.239365 0.582965 -0.11473
C_ C_ 0.532552 0.496129 0.762864 0.05793
C_ C_ 0.781074 0.502272 0.748118 0.05793
C_ C_ 0.722772 -0.000770214 0.746692 0.05793
C_ C_ 0.966729 0.00244273 0.750519 0.05793
Br Br 0.572482 0.498562 0.7879 -0.17191
Br Br 0.820829 0.50329 0.724675 -0.17191
Br Br 0.679211 0.00736181 0.744404 -0.17191
Br Br 0.92396 0.00573555 0.759959 -0.17191
N_ N_ 0.628597 0.238508 0.855345 -0.272
N_ N_ 0.878076 0.255676 0.856263 -0.272
N_ N_ 0.630028 0.226569 0.988184 -0.12501
N_ N_ 0.881461 0.264456 0.988721 -0.12501
N_ N_ 0.620245 0.244077 0.646699 -0.272
N_ N_ 0.877506 0.242261 0.644375 -0.272
N_ N_ 0.614531 0.238451 0.514959 -0.12501
N_ N_ 0.88405 0.23918 0.513485 -0.12501
O_ O_ 0.591307 0.284948 0.720467 -0.60745
O_ O_ 0.842794 0.290273 0.709946 -0.60745
O_ O_ 0.597924 0.291795 0.789683 -0.60745
O_ O_ 0.849217 0.297645 0.777897 -0.60745
O_ O_ 0.659929 0.286887 0.786774 -0.60745
O_ O_ 0.908303 0.292181 0.782283 -0.60745
O_ O_ 0.651682 0.298847 0.717472 -0.60745
O_ O_ 0.907614 0.288263 0.714758 -0.60745
O_ O_ 0.655258 0.198158 0.785734 -0.60745
O_ O_ 0.904443 0.202511 0.78795 -0.60745
O_ O_ 0.663366 0.210376 0.71861 -0.60745
O_ O_ 0.904205 0.205694 0.721387 -0.60745
O_ O_ 0.59791 0.200159 0.719565 -0.60745
O_ O_ 0.841556 0.201209 0.714696 -0.60745
O_ O_ 0.592926 0.202444 0.787679 -0.60745
O_ O_ 0.84496 0.206025 0.782922 -0.60745
Zn Zn 0.625364 0.751716 0.291503 0.9476
Zn Zn 0.874937 0.75072 0.280798 0.9476
Zn Zn 0.624618 0.753962 0.222808 0.9476
Zn Zn 0.875062 0.753574 0.211489 0.9476
H_ H_ 0.53384 0.914775 0.183524 0.10932
H_ H_ 0.785304 0.927606 0.184592 0.10932
H_ H_ 0.558373 0.852503 0.319904 0.10932
H_ H_ 0.803592 0.842922 0.312771 0.10932
H_ H_ 0.56371 0.85241 0.18411 0.10932
H_ H_ 0.810306 0.852929 0.181055 0.10932
H_ H_ 0.5253 0.915252 0.316497 0.10932
H_ H_ 0.775346 0.908646 0.318518 0.10932
H_ H_ 0.716637 0.920531 0.328987 0.10932
H_ H_ 0.960408 0.92202 0.318585 0.10932
H_ H_ 0.686512 0.855632 0.194805 0.10932
H_ H_ 0.934672 0.852183 0.182728 0.10932
H_ H_ 0.679044 0.864786 0.328706 0.10932
H_ H_ 0.937588 0.854568 0.31907 0.10932
H_ H_ 0.718808 0.916837 0.194726 0.10932
H_ H_ 0.961097 0.918028 0.180466 0.10932
H_ H_ 0.717976 0.583177 0.31464 0.10932
H_ H_ 0.979586 0.595682 0.305995 0.10932
H_ H_ 0.690354 0.652468 0.184006 0.10932
H_ H_ 0.918727 0.632853 0.181853 0.10932
H_ H_ 0.691467 0.648938 0.318288 0.10932
H_ H_ 0.950276 0.657822 0.309626 0.10932
H_ H_ 0.713459 0.58754 0.180064 0.10932
H_ H_ 0.953533 0.575854 0.177325 0.10932
H_ H_ 0.52169 0.59469 0.187573 0.10932
H_ H_ 0.791233 0.574846 0.181018 0.10932
H_ H_ 0.572917 0.642224 0.319493 0.10932
H_ H_ 0.813611 0.649533 0.314285 0.10932
H_ H_ 0.548873 0.661424 0.190254 0.10932
H_ H_ 0.824623 0.63616 0.181115 0.10932
H_ H_ 0.53714 0.58252 0.320656 0.10932
H_ H_ 0.775148 0.593093 0.310906 0.10932
H_ H_ 0.61417 0.683636 0.367689 0.10932
H_ H_ 0.860923 0.812153 0.346627 0.10932
H_ H_ 0.635865 0.807736 0.370381 0.10932
H_ H_ 0.890263 0.689525 0.365519 0.10932
H_ H_ 0.639803 0.807769 0.444417 0.10932
H_ H_ 0.888499 0.696141 0.438203 0.10932
H_ H_ 0.618415 0.678664 0.441902 0.10932
H_ H_ 0.866629 0.825068 0.424948 0.10932
H_ H_ 0.62734 0.68914 0.156092 0.10932
H_ H_ 0.879591 0.689479 0.131749 0.10932
H_ H_ 0.613094 0.814834 0.142723 0.10932
H_ H_ 0.868621 0.819276 0.140577 0.10932
H_ H_ 0.611264 0.809612 0.0644811 0.10932
H_ H_ 0.873434 0.825411 0.0670195 0.10932
H_ H_ 0.625332 0.677961 0.0798766 0.10932
H_ H_ 0.873323 0.693652 0.0514279 0.10932
C_ C_ 0.564324 0.846227 0.252518 -0.02249
C_ C_ 0.811491 0.846645 0.245804 -0.02249
C_ C_ 0.514156 0.961564 0.247814 -0.02249
C_ C_ 0.767221 0.963825 0.253361 -0.02249
C_ C_ 0.54005 0.90145 0.212995 -0.11473
C_ C_ 0.790482 0.90831 0.21278 -0.11473
C_ C_ 0.551566 0.863517 0.289951 -0.11473
C_ C_ 0.802921 0.862985 0.284899 -0.11473
C_ C_ 0.555398 0.863288 0.215044 -0.11473
C_ C_ 0.804746 0.868264 0.210158 -0.11473
C_ C_ 0.531573 0.92195 0.250082 -0.02249
C_ C_ 0.781255 0.923583 0.252456 -0.02249
C_ C_ 0.585703 0.811257 0.252183 0.6875
C_ C_ 0.832788 0.808604 0.243571 0.6875
C_ C_ 0.534305 0.901032 0.288522 -0.11473
C_ C_ 0.784295 0.898822 0.287089 -0.11473
C_ C_ 0.680286 0.853854 0.261371 -0.02249
C_ C_ 0.934482 0.846829 0.250737 -0.02249
C_ C_ 0.735468 0.965636 0.262701 -0.02249
C_ C_ 0.982098 0.965052 0.248472 -0.02249
C_ C_ 0.707401 0.909383 0.298984 -0.11473
C_ C_ 0.956911 0.907516 0.287428 -0.11473
C_ C_ 0.691325 0.872179 0.223393 -0.11473
C_ C_ 0.942253 0.866111 0.212759 -0.11473
C_ C_ 0.68738 0.874809 0.299195 -0.11473
C_ C_ 0.942516 0.868946 0.288925 -0.11473
C_ C_ 0.715942 0.926648 0.262194 -0.02249
C_ C_ 0.96531 0.925602 0.249664 -0.02249
C_ C_ 0.665142 0.813633 0.259516 0.6875
C_ C_ 0.916055 0.809621 0.249812 0.6875
C_ C_ 0.707694 0.907371 0.223204 -0.11473
C_ C_ 0.956361 0.905453 0.210958 -0.11473
C_ C_ 0.684867 0.654301 0.251913 -0.02249
C_ C_ 0.934307 0.652708 0.245089 -0.02249
C_ C_ 0.734055 0.53866 0.244708 -0.02249
C_ C_ 0.986031 0.541067 0.241899 -0.02249
C_ C_ 0.709568 0.595207 0.285942 -0.11473
C_ C_ 0.966494 0.60319 0.279252 -0.11473
C_ C_ 0.696417 0.638039 0.213628 -0.11473
C_ C_ 0.935392 0.629191 0.207409 -0.11473
C_ C_ 0.693848 0.632439 0.288519 -0.11473
C_ C_ 0.950899 0.640061 0.280194 -0.11473
C_ C_ 0.717193 0.578044 0.247527 -0.02249
C_ C_ 0.969951 0.582268 0.241104 -0.02249
C_ C_ 0.663566 0.690648 0.253844 0.6875
C_ C_ 0.914361 0.691414 0.247157 0.6875
C_ C_ 0.710535 0.600415 0.210891 -0.11473
C_ C_ 0.954405 0.594724 0.205155 -0.11473
C_ C_ 0.562954 0.658622 0.254992 -0.02249
C_ C_ 0.817416 0.652501 0.246904 -0.02249
C_ C_ 0.513728 0.54224 0.253291 -0.02249
C_ C_ 0.766914 0.539049 0.24441 -0.02249
C_ C_ 0.531524 0.606268 0.217667 -0.11473
C_ C_ 0.792809 0.595712 0.208669 -0.11473
C_ C_ 0.559161 0.634128 0.292685 -0.11473
C_ C_ 0.807077 0.637532 0.286204 -0.11473
C_ C_ 0.546809 0.645099 0.218941 -0.11473
C_ C_ 0.811543 0.631094 0.207882 -0.11473
C_ C_ 0.529423 0.582498 0.254807 -0.02249
C_ C_ 0.782503 0.579813 0.245358 -0.02249
C_ C_ 0.582612 0.696869 0.255986 0.6875
C_ C_ 0.837699 0.691178 0.245486 0.6875
C_ C_ 0.54063 0.599631 0.291794 -0.11473
C_ C_ 0.787026 0.602625 0.283287 -0.11473
C_ C_ 0.61608 0.712609 0.383839 0.17695
C_ C_ 0.868797 0.789341 0.368403 0.17695
C_ C_ 0.630409 0.780455 0.386112 0.17695
C_ C_ 0.880152 0.717728 0.378078 0.17695
C_ C_ 0.632331 0.779877 0.430129 -0.11473
C_ C_ 0.880934 0.723667 0.421663 -0.11473
C_ C_ 0.624397 0.744414 0.452711 0.23465
C_ C_ 0.873115 0.761459 0.440352 0.23465
C_ C_ 0.619567 0.709009 0.427262 -0.11473
C_ C_ 0.867135 0.794591 0.412068 -0.11473
C_ C_ 0.625186 0.714625 0.134917 0.17695
C_ C_ 0.873469 0.717603 0.115704 0.17695
C_ C_ 0.614306 0.784767 0.126887 0.17695
C_ C_ 0.873262 0.791603 0.122229 0.17695
C_ C_ 0.614333 0.782105 0.0829988 -0.11473
C_ C_ 0.872989 0.795165 0.0796938 -0.11473
C_ C_ 0.619409 0.74204 0.0635278 0.23465
C_ C_ 0.869636 0.760878 0.0527575 0.23465
C_ C_ 0.622791 0.707952 0.0910797 -0.11473
C_ C_ 0.871229 0.720318 0.0711781 -0.11473
C_ C_ 0.529235 1.000112101 0.253588 0.05793
C_ C_ 0.783858 1.00168211 0.253502 0.05793
C_ C_ 0.719493 0.499626 0.242978 0.05793
C_ C_ 0.971008 0.503005 0.250083 0.05793
Br Br 0.573086 0.999334661 0.256574 -0.17191
Br Br 0.826856 1.00172594 0.257614 -0.17191
Br Br 0.677763 0.497848 0.224703 -0.17191
Br Br 0.930124 0.50438 0.265615 -0.17191
N_ N_ 0.623874 0.746431 0.364254 -0.272
N_ N_ 0.87364 0.750325 0.352437 -0.272
N_ N_ 0.630576 0.743531 0.496373 -0.12501
N_ N_ 0.873778 0.767521 0.48575 -0.12501
N_ N_ 0.624108 0.752585 0.151707 -0.272
N_ N_ 0.87566 0.753256 0.138998 -0.272
N_ N_ 0.624401 0.737663 0.0184668 -0.12501
N_ N_ 0.865043 0.76665 0.0086575 -0.12501
O_ O_ 0.596146 0.79864 0.217293 -0.60745
O_ O_ 0.843982 0.799348 0.209025 -0.60745
O_ O_ 0.594154 0.796036 0.286529 -0.60745
O_ O_ 0.841971 0.79032 0.277013 -0.60745
O_ O_ 0.657382 0.793765 0.291217 -0.60745
O_ O_ 0.903205 0.798323 0.283012 -0.60745
O_ O_ 0.654777 0.803276 0.224668 -0.60745
O_ O_ 0.907714 0.794015 0.215351 -0.60745
O_ O_ 0.656894 0.706082 0.290394 -0.60745
O_ O_ 0.907194 0.704716 0.282483 -0.60745
O_ O_ 0.657737 0.714617 0.222359 -0.60745
O_ O_ 0.907826 0.711889 0.214107 -0.60745
O_ O_ 0.594022 0.707384 0.221377 -0.60745
O_ O_ 0.845603 0.70671 0.211242 -0.60745
O_ O_ 0.591916 0.711978 0.289209 -0.60745
O_ O_ 0.847818 0.706871 0.279977 -0.60745
Zn Zn 0.624022 0.751904 0.791997 0.9476
Zn Zn 0.876432 0.746381 0.782131 0.9476
Zn Zn 0.626675 0.750833 0.723703 0.9476
Zn Zn 0.875915 0.747364 0.714077 0.9476
H_ H_ 0.52883 0.9084 0.681898 0.10932
H_ H_ 0.787475 0.914334 0.679603 0.10932
H_ H_ 0.572083 0.85781 0.817124 0.10932
H_ H_ 0.808159 0.842074 0.814052 0.10932
H_ H_ 0.556979 0.845964 0.684558 0.10932
H_ H_ 0.815865 0.84823 0.68145 0.10932
H_ H_ 0.543113 0.924864 0.817727 0.10932
H_ H_ 0.77485 0.902764 0.812707 0.10932
H_ H_ 0.711057 0.924784 0.818037 0.10932
H_ H_ 0.969584 0.918669 0.815286 0.10932
H_ H_ 0.688635 0.847979 0.687185 0.10932
H_ H_ 0.928206 0.85743 0.683994 0.10932
H_ H_ 0.681561 0.855482 0.821862 0.10932
H_ H_ 0.942647 0.849439 0.817526 0.10932
H_ H_ 0.716403 0.910989 0.685194 0.10932
H_ H_ 0.953891 0.922008 0.683643 0.10932
H_ H_ 0.722626 0.587622 0.83433 0.10932
H_ H_ 0.976851 0.585982 0.816916 0.10932
H_ H_ 0.678427 0.640771 0.700453 0.10932
H_ H_ 0.934109 0.642786 0.680358 0.10932
H_ H_ 0.687519 0.653794 0.83552 0.10932
H_ H_ 0.945117 0.648786 0.813689 0.10932
H_ H_ 0.711427 0.579693 0.700313 0.10932
H_ H_ 0.965082 0.577803 0.678892 0.10932
H_ H_ 0.534854 0.581044 0.691127 0.10932
H_ H_ 0.779921 0.583608 0.685656 0.10932
H_ H_ 0.566281 0.644773 0.828577 0.10932
H_ H_ 0.826128 0.637241 0.818703 0.10932
H_ H_ 0.567949 0.641175 0.69166 0.10932
H_ H_ 0.808393 0.652569 0.687382 0.10932
H_ H_ 0.539196 0.579623 0.824988 0.10932
H_ H_ 0.796781 0.574465 0.819217 0.10932
H_ H_ 0.623628 0.696829 0.866639 0.10932
H_ H_ 0.869518 0.682942 0.854044 0.10932
H_ H_ 0.6278 0.827457 0.862299 0.10932
H_ H_ 0.887208 0.813188 0.854814 0.10932
H_ H_ 0.628975 0.829794 0.940807 0.10932
H_ H_ 0.891428 0.813692 0.930941 0.10932
H_ H_ 0.618371 0.698105 0.942181 0.10932
H_ H_ 0.86976 0.685432 0.933775 0.10932
H_ H_ 0.626559 0.678956 0.655871 0.10932
H_ H_ 0.882697 0.810459 0.635153 0.10932
H_ H_ 0.634167 0.805713 0.64373 0.10932
H_ H_ 0.862718 0.680905 0.640433 0.10932
H_ H_ 0.62268 0.805595 0.568443 0.10932
H_ H_ 0.863459 0.677713 0.565402 0.10932
H_ H_ 0.620046 0.671869 0.576123 0.10932
H_ H_ 0.88645 0.809314 0.557531 0.10932
C_ C_ 0.563006 0.843399 0.750673 -0.02249
C_ C_ 0.811506 0.838049 0.747158 -0.02249
C_ C_ 0.515508 0.959211 0.749751 -0.02249
C_ C_ 0.766646 0.956848 0.747942 -0.02249
C_ C_ 0.537576 0.898075 0.711955 -0.11473
C_ C_ 0.789598 0.896526 0.708103 -0.11473
C_ C_ 0.560405 0.866971 0.788048 -0.11473
C_ C_ 0.801508 0.855397 0.783868 -0.11473
C_ C_ 0.553217 0.861538 0.713275 -0.11473
C_ C_ 0.805478 0.858923 0.709013 -0.11473
C_ C_ 0.53278 0.920274 0.750402 -0.02249
C_ C_ 0.780985 0.914409 0.747642 -0.02249
C_ C_ 0.58425 0.809691 0.750389 0.6875
C_ C_ 0.832346 0.800966 0.747753 0.6875
C_ C_ 0.544572 0.905021 0.789448 -0.11473
C_ C_ 0.788204 0.893599 0.785383 -0.11473
C_ C_ 0.681886 0.850516 0.754267 -0.02249
C_ C_ 0.927633 0.851518 0.751067 -0.02249
C_ C_ 0.736053 0.961059 0.747693 -0.02249
C_ C_ 0.981733 0.963442 0.749237 -0.02249
C_ C_ 0.704624 0.909495 0.789155 -0.11473
C_ C_ 0.957602 0.905822 0.788119 -0.11473
C_ C_ 0.691216 0.865966 0.715707 -0.11473
C_ C_ 0.934869 0.870123 0.712639 -0.11473
C_ C_ 0.687255 0.872482 0.792442 -0.11473
C_ C_ 0.940701 0.868515 0.788774 -0.11473
C_ C_ 0.715106 0.924348 0.749774 -0.02249
C_ C_ 0.963139 0.925485 0.750705 -0.02249
C_ C_ 0.66351 0.812136 0.753436 0.6875
C_ C_ 0.912377 0.808905 0.749955 0.6875
C_ C_ 0.709466 0.900475 0.713857 -0.11473
C_ C_ 0.951915 0.906387 0.713812 -0.11473
C_ C_ 0.683994 0.653932 0.766482 -0.02249
C_ C_ 0.937878 0.652762 0.747672 -0.02249
C_ C_ 0.733975 0.538944 0.765588 -0.02249
C_ C_ 0.98747 0.534932 0.744972 -0.02249
C_ C_ 0.713379 0.600994 0.80567 -0.11473
C_ C_ 0.968646 0.599408 0.784474 -0.11473
C_ C_ 0.688178 0.630685 0.728838 -0.11473
C_ C_ 0.942257 0.630017 0.709675 -0.11473
C_ C_ 0.695133 0.63746 0.805158 -0.11473
C_ C_ 0.949131 0.635254 0.785356 -0.11473
C_ C_ 0.716896 0.578943 0.766791 -0.02249
C_ C_ 0.971326 0.576148 0.747803 -0.02249
C_ C_ 0.663528 0.690356 0.763605 0.6875
C_ C_ 0.917305 0.690011 0.74755 0.6875
C_ C_ 0.705635 0.594065 0.729849 -0.11473
C_ C_ 0.959225 0.591934 0.709424 -0.11473
C_ C_ 0.56463 0.65264 0.760044 -0.02249
C_ C_ 0.817813 0.650837 0.751127 -0.02249
C_ C_ 0.517376 0.533834 0.759337 -0.02249
C_ C_ 0.76433 0.539251 0.751161 -0.02249
C_ C_ 0.540805 0.595827 0.721344 -0.11473
C_ C_ 0.785761 0.599401 0.716075 -0.11473
C_ C_ 0.5593 0.632421 0.797174 -0.11473
C_ C_ 0.815541 0.627892 0.788271 -0.11473
C_ C_ 0.557173 0.633279 0.72133 -0.11473
C_ C_ 0.80137 0.637776 0.715049 -0.11473
C_ C_ 0.535862 0.573199 0.759488 -0.02249
C_ C_ 0.781387 0.578673 0.752449 -0.02249
C_ C_ 0.586642 0.689818 0.7589 0.6875
C_ C_ 0.840377 0.685016 0.750843 0.6875
C_ C_ 0.54281 0.594141 0.797051 -0.11473
C_ C_ 0.797557 0.590725 0.7883 -0.11473
C_ C_ 0.62619 0.726512 0.883673 0.17695
C_ C_ 0.871423 0.712155 0.871854 0.17695
C_ C_ 0.6263 0.799055 0.879558 0.17695
C_ C_ 0.886051 0.783888 0.871113 0.17695
C_ C_ 0.626679 0.800432 0.924492 -0.11473
C_ C_ 0.884626 0.785946 0.913983 -0.11473
C_ C_ 0.623124 0.764756 0.949593 0.23465
C_ C_ 0.874426 0.749931 0.93779 0.23465
C_ C_ 0.624643 0.726436 0.927329 -0.11473
C_ C_ 0.872199 0.713418 0.915469 -0.11473
C_ C_ 0.620653 0.705094 0.634768 0.17695
C_ C_ 0.8781 0.781693 0.618804 0.17695
C_ C_ 0.62691 0.777685 0.629246 0.17695
C_ C_ 0.863992 0.710494 0.621476 0.17695
C_ C_ 0.619945 0.776183 0.585931 -0.11473
C_ C_ 0.866821 0.708598 0.579063 -0.11473
C_ C_ 0.61654 0.737903 0.56475 0.23465
C_ C_ 0.875561 0.743858 0.555127 0.23465
C_ C_ 0.617978 0.702077 0.589416 -0.11473
C_ C_ 0.882574 0.780167 0.575496 -0.11473
C_ C_ 0.531466 -0.0016220000000000123 0.749782 0.05793
C_ C_ 0.784887 -0.006993000000000027 0.752159 0.05793
C_ C_ 0.719215 0.500797 0.766676 0.05793
C_ C_ 0.970651 0.49692 0.743352 0.05793
Br Br 0.574108 -0.0041879999999999695 0.740264 -0.17191
Br Br 0.827673 0.985434 0.749072 -0.17191
Br Br 0.677503 0.499697 0.784149 -0.17191
Br Br 0.927876 0.498475 0.757769 -0.17191
N_ N_ 0.62531 0.762399 0.860256 -0.272
N_ N_ 0.877947 0.747912 0.85098 -0.272
N_ N_ 0.622145 0.76809 0.994655 -0.12501
N_ N_ 0.880209 0.745949 0.982179 -0.12501
N_ N_ 0.623082 0.742667 0.652877 -0.272
N_ N_ 0.869672 0.747156 0.642213 -0.272
N_ N_ 0.60989 0.73677 0.520856 -0.12501
N_ N_ 0.874337 0.737736 0.510187 -0.12501
O_ O_ 0.597803 0.798252 0.717808 -0.60745
O_ O_ 0.841413 0.784513 0.715078 -0.60745
O_ O_ 0.588996 0.792087 0.785621 -0.60745
O_ O_ 0.848495 0.795151 0.780495 -0.60745
O_ O_ 0.653054 0.799867 0.78782 -0.60745
O_ O_ 0.906957 0.789092 0.78352 -0.60745
O_ O_ 0.655868 0.793425 0.718727 -0.60745
O_ O_ 0.90154 0.794445 0.715044 -0.60745
O_ O_ 0.65457 0.708848 0.795707 -0.60745
O_ O_ 0.902044 0.697509 0.780011 -0.60745
O_ O_ 0.656008 0.705833 0.728174 -0.60745
O_ O_ 0.911637 0.711067 0.71482 -0.60745
O_ O_ 0.595082 0.706504 0.724777 -0.60745
O_ O_ 0.850044 0.698553 0.715307 -0.60745
O_ O_ 0.595567 0.704813 0.793461 -0.60745
O_ O_ 0.844247 0.706662 0.783624 -0.60745
