_cell_length_a 44.444
_cell_length_b 32.3360000049186
_cell_length_c 31.843999878906452
_cell_angle_alpha 89.99799923859553
_cell_angle_beta 91.13600050494348
_cell_angle_gamma 89.9990006550086
_symmetry_space_group_name_H-M         'P 1'
_symmetry_Int_Tables_number            1
loop_
_symmetry_equiv_pos_as_xyz
   'x, y, z'
                         
loop_
_atom_site_label
_atom_site_type_symbol
_atom_site_fract_x 
_atom_site_fract_y
_atom_site_fract_z
_atom_site_charge
Zn Zn 0.12326 0.25327 0.285391 0.9476
Zn Zn 0.37468 0.250195 0.287427 0.9476
Zn Zn 0.120548 0.252871 0.214999 0.9476
Zn Zn 0.373005 0.249294 0.215137 0.9476
H_ H_ 0.0454492 0.430811 0.192501 0.10932
H_ H_ 0.296536 0.427408 0.18491 0.10932
H_ H_ 0.0545807 0.34434 0.31911 0.10932
H_ H_ 0.29745 0.339799 0.31308 0.10932
H_ H_ 0.0778034 0.368609 0.189806 0.10932
H_ H_ 0.332845 0.368897 0.191983 0.10932
H_ H_ 0.0245284 0.407429 0.318798 0.10932
H_ H_ 0.273528 0.408562 0.314725 0.10932
H_ H_ 0.212777 0.418938 0.311074 0.10932
H_ H_ 0.464857 0.419428 0.314744 0.10932
H_ H_ 0.179856 0.356541 0.177004 0.10932
H_ H_ 0.436686 0.34179 0.187785 0.10932
H_ H_ 0.176886 0.362396 0.312267 0.10932
H_ H_ 0.433842 0.36035 0.318553 0.10932
H_ H_ 0.218211 0.408053 0.176121 0.10932
H_ H_ 0.458421 0.412541 0.18046 0.10932
H_ H_ 0.211062 0.0900816 0.320822 0.10932
H_ H_ 0.470929 0.0871209 0.324205 0.10932
H_ H_ 0.189628 0.149377 0.180503 0.10932
H_ H_ 0.4331 0.145441 0.189293 0.10932
H_ H_ 0.18947 0.156641 0.314664 0.10932
H_ H_ 0.443891 0.157756 0.318966 0.10932
H_ H_ 0.210802 0.0809604 0.184733 0.10932
H_ H_ 0.451743 0.0743612 0.193 0.10932
H_ H_ 0.0268118 0.0916161 0.183926 0.10932
H_ H_ 0.290062 0.0739887 0.188338 0.10932
H_ H_ 0.0727515 0.142464 0.317401 0.10932
H_ H_ 0.295441 0.161115 0.318488 0.10932
H_ H_ 0.0626416 0.148869 0.183933 0.10932
H_ H_ 0.321461 0.141202 0.189093 0.10932
H_ H_ 0.0486196 0.0720685 0.315212 0.10932
H_ H_ 0.269842 0.0927326 0.317668 0.10932
H_ H_ 0.118205 0.196072 0.365883 0.10932
H_ H_ 0.377184 0.182652 0.355793 0.10932
H_ H_ 0.140682 0.32145 0.353942 0.10932
H_ H_ 0.368265 0.312142 0.364278 0.10932
H_ H_ 0.135751 0.33216 0.430688 0.10932
H_ H_ 0.359035 0.308588 0.435779 0.10932
H_ H_ 0.119833 0.20111 0.444583 0.10932
H_ H_ 0.366495 0.176148 0.433207 0.10932
H_ H_ 0.141701 0.308834 0.13956 0.10932
H_ H_ 0.394635 0.195583 0.135723 0.10932
H_ H_ 0.113569 0.183762 0.1449 0.10932
H_ H_ 0.356763 0.316797 0.141892 0.10932
H_ H_ 0.117941 0.177628 0.0674606 0.10932
H_ H_ 0.355831 0.321036 0.0625427 0.10932
H_ H_ 0.144934 0.307149 0.060593 0.10932
H_ H_ 0.3888 0.197613 0.0549499 0.10932
C_ C_ 0.0681666 0.350667 0.254 -0.02249
C_ C_ 0.314598 0.346324 0.249895 -0.02249
C_ C_ 0.0158466 0.463548 0.259385 -0.02249
C_ C_ 0.264113 0.461238 0.25379 -0.02249
C_ C_ 0.047549 0.411421 0.219128 -0.11473
C_ C_ 0.297337 0.409318 0.214108 -0.11473
C_ C_ 0.0539905 0.363993 0.292224 -0.11473
C_ C_ 0.299737 0.359026 0.285765 -0.11473
C_ C_ 0.0665967 0.376588 0.218199 -0.11473
C_ C_ 0.315443 0.373652 0.215557 -0.11473
C_ C_ 0.0334068 0.422192 0.257397 -0.02249
C_ C_ 0.281527 0.421198 0.251713 -0.02249
C_ C_ 0.082206 0.309538 0.252267 0.6875
C_ C_ 0.333761 0.309606 0.250868 0.6875
C_ C_ 0.0369203 0.398858 0.292977 -0.11473
C_ C_ 0.285382 0.39833 0.288784 -0.11473
C_ C_ 0.178531 0.349876 0.245882 -0.02249
C_ C_ 0.43294 0.345455 0.253351 -0.02249
C_ C_ 0.232735 0.46284 0.247618 -0.02249
C_ C_ 0.483319 0.461086 0.245544 -0.02249
C_ C_ 0.206874 0.405236 0.282045 -0.11473
C_ C_ 0.460086 0.401675 0.286411 -0.11473
C_ C_ 0.189529 0.366566 0.206812 -0.11473
C_ C_ 0.442335 0.35918 0.214602 -0.11473
C_ C_ 0.187054 0.3715 0.283399 -0.11473
C_ C_ 0.442276 0.367373 0.28946 -0.11473
C_ C_ 0.217809 0.420936 0.244944 -0.02249
C_ C_ 0.467464 0.419847 0.247202 -0.02249
C_ C_ 0.159725 0.313371 0.248154 0.6875
C_ C_ 0.414056 0.308622 0.256048 0.6875
C_ C_ 0.208727 0.400999 0.205747 -0.11473
C_ C_ 0.455523 0.399067 0.21009 -0.11473
C_ C_ 0.182255 0.157128 0.246415 -0.02249
C_ C_ 0.431896 0.152797 0.255125 -0.02249
C_ C_ 0.229842 0.0392687 0.25573 -0.02249
C_ C_ 0.483576 0.0379865 0.25428 -0.02249
C_ C_ 0.204964 0.100774 0.289266 -0.11473
C_ C_ 0.462905 0.100999 0.294445 -0.11473
C_ C_ 0.1907 0.134391 0.210623 -0.11473
C_ C_ 0.437716 0.13095 0.217988 -0.11473
C_ C_ 0.193053 0.141368 0.286169 -0.11473
C_ C_ 0.445341 0.137778 0.292554 -0.11473
C_ C_ 0.210921 0.0779328 0.252628 -0.02249
C_ C_ 0.46619 0.0781052 0.256421 -0.02249
C_ C_ 0.160018 0.19257 0.247707 0.6875
C_ C_ 0.411739 0.189797 0.256563 0.6875
C_ C_ 0.201072 0.0935414 0.21255 -0.11473
C_ C_ 0.453002 0.0940257 0.220202 -0.11473
C_ C_ 0.0639912 0.155149 0.252128 -0.02249
C_ C_ 0.31219 0.152409 0.254373 -0.02249
C_ C_ 0.0159133 0.0390029 0.249075 -0.02249
C_ C_ 0.26251 0.0386448 0.255476 -0.02249
C_ C_ 0.0383286 0.101198 0.21282 -0.11473
C_ C_ 0.291585 0.0924326 0.217238 -0.11473
C_ C_ 0.0620204 0.131129 0.288326 -0.11473
C_ C_ 0.297191 0.139673 0.292112 -0.11473
C_ C_ 0.054776 0.13785 0.213855 -0.11473
C_ C_ 0.308468 0.130057 0.217994 -0.11473
C_ C_ 0.0342402 0.0784059 0.249286 -0.02249
C_ C_ 0.279807 0.0781293 0.254844 -0.02249
C_ C_ 0.0825943 0.192841 0.252462 0.6875
C_ C_ 0.33283 0.190788 0.252208 0.6875
C_ C_ 0.0481652 0.0924004 0.287389 -0.11473
C_ C_ 0.282471 0.101731 0.29114 -0.11473
C_ C_ 0.12086 0.226422 0.381086 0.17695
C_ C_ 0.374402 0.210312 0.376577 0.17695
C_ C_ 0.134381 0.295222 0.374112 0.17695
C_ C_ 0.365595 0.282885 0.37789 0.17695
C_ C_ 0.13174 0.302087 0.417825 -0.11473
C_ C_ 0.361892 0.280096 0.420843 -0.11473
C_ C_ 0.126821 0.268283 0.446077 0.23465
C_ C_ 0.363432 0.241714 0.44215 0.23465
C_ C_ 0.123097 0.228428 0.425987 -0.11473
C_ C_ 0.370615 0.207397 0.419538 -0.11473
C_ C_ 0.134353 0.281911 0.121926 0.17695
C_ C_ 0.386782 0.221381 0.120075 0.17695
C_ C_ 0.115934 0.213005 0.124708 0.17695
C_ C_ 0.364486 0.289832 0.12421 0.17695
C_ C_ 0.118665 0.208907 0.0811293 -0.11473
C_ C_ 0.362296 0.292522 0.0782707 -0.11473
C_ C_ 0.12624 0.243791 0.0568018 0.23465
C_ C_ 0.373633 0.259167 0.0543524 0.23465
C_ C_ 0.135216 0.280097 0.0775013 -0.11473
C_ C_ 0.384328 0.22367 0.075786 -0.11473
C_ C_ 0.0314151 0.501529 0.26737 0.05793
C_ C_ 0.278968 0.499657 0.25614 0.05793
C_ C_ 0.214221 0.00116992 0.259986 0.05793
C_ C_ 0.467438 1.00059 0.250931 0.05793
Br Br 0.0731268 0.500896 0.280139 -0.17191
Br Br 0.322833 0.498046 0.255201 -0.17191
Br Br 0.174568 0.00331414 0.288525 -0.17191
Br Br 0.42654 0.997098 0.269715 -0.17191
N_ N_ 0.127061 0.259035 0.356069 -0.272
N_ N_ 0.371674 0.248634 0.356957 -0.272
N_ N_ 0.133055 0.272443 0.490534 -0.12501
N_ N_ 0.356608 0.240657 0.485259 -0.12501
N_ N_ 0.120566 0.251244 0.143522 -0.272
N_ N_ 0.376749 0.255439 0.142812 -0.272
N_ N_ 0.129176 0.236937 0.0128524 -0.12501
N_ N_ 0.371027 0.26098 0.00922171 -0.12501
O_ O_ 0.0926637 0.298666 0.21761 -0.60745
O_ O_ 0.343179 0.293647 0.216133 -0.60745
O_ O_ 0.0914062 0.293506 0.285315 -0.60745
O_ O_ 0.34321 0.29591 0.285537 -0.60745
O_ O_ 0.152019 0.297876 0.282589 -0.60745
O_ O_ 0.408198 0.291563 0.291354 -0.60745
O_ O_ 0.151187 0.29664 0.21469 -0.60745
O_ O_ 0.402739 0.292576 0.221757 -0.60745
O_ O_ 0.152382 0.209219 0.284002 -0.60745
O_ O_ 0.404131 0.206663 0.290728 -0.60745
O_ O_ 0.151144 0.208328 0.213544 -0.60745
O_ O_ 0.403907 0.205938 0.221868 -0.60745
O_ O_ 0.0884073 0.210879 0.217331 -0.60745
O_ O_ 0.342059 0.202213 0.215919 -0.60745
O_ O_ 0.0935514 0.207838 0.28666 -0.60745
O_ O_ 0.344485 0.205985 0.285465 -0.60745
Zn Zn 0.12885 0.249232 0.785057 0.9476
Zn Zn 0.373499 0.250561 0.785375 0.9476
Zn Zn 0.131845 0.248234 0.717471 0.9476
Zn Zn 0.370999 0.252778 0.712672 0.9476
H_ H_ 0.0367884 0.418977 0.685949 0.10932
H_ H_ 0.2906 0.423559 0.69106 0.10932
H_ H_ 0.0614462 0.341434 0.817683 0.10932
H_ H_ 0.305878 0.343092 0.821135 0.10932
H_ H_ 0.074787 0.356853 0.684579 0.10932
H_ H_ 0.324935 0.364499 0.693785 0.10932
H_ H_ 0.0348383 0.405336 0.822728 0.10932
H_ H_ 0.283978 0.414082 0.822535 0.10932
H_ H_ 0.204961 0.430716 0.817332 0.10932
H_ H_ 0.481021 0.402583 0.809564 0.10932
H_ H_ 0.212295 0.338139 0.698538 0.10932
H_ H_ 0.419268 0.362205 0.6859 0.10932
H_ H_ 0.173729 0.365789 0.816298 0.10932
H_ H_ 0.455283 0.333069 0.808577 0.10932
H_ H_ 0.232905 0.409115 0.693921 0.10932
H_ H_ 0.449271 0.428023 0.68393 0.10932
H_ H_ 0.231443 0.0872097 0.821725 0.10932
H_ H_ 0.461528 0.0832387 0.8145 0.10932
H_ H_ 0.184993 0.13772 0.685278 0.10932
H_ H_ 0.438542 0.153332 0.68068 0.10932
H_ H_ 0.201423 0.153825 0.826199 0.10932
H_ H_ 0.429249 0.143671 0.814728 0.10932
H_ H_ 0.216482 0.0769301 0.69328 0.10932
H_ H_ 0.459197 0.0831095 0.682714 0.10932
H_ H_ 0.0442722 0.0743208 0.684051 0.10932
H_ H_ 0.287297 0.0817929 0.690829 0.10932
H_ H_ 0.0591901 0.155873 0.813812 0.10932
H_ H_ 0.318782 0.149222 0.819707 0.10932
H_ H_ 0.0838517 0.129928 0.690624 0.10932
H_ H_ 0.304914 0.146856 0.684756 0.10932
H_ H_ 0.0262159 0.0910916 0.813134 0.10932
H_ H_ 0.298429 0.0781241 0.823971 0.10932
H_ H_ 0.129121 0.315867 0.850644 0.10932
H_ H_ 0.366536 0.310277 0.862965 0.10932
H_ H_ 0.128073 0.18761 0.866126 0.10932
H_ H_ 0.378083 0.180124 0.84983 0.10932
H_ H_ 0.133459 0.193321 0.941491 0.10932
H_ H_ 0.384911 0.171802 0.9272 0.10932
H_ H_ 0.134775 0.325029 0.930649 0.10932
H_ H_ 0.362949 0.304199 0.937311 0.10932
H_ H_ 0.130243 0.18276 0.645271 0.10932
H_ H_ 0.365741 0.187883 0.642507 0.10932
H_ H_ 0.138425 0.31214 0.642716 0.10932
H_ H_ 0.378844 0.31459 0.639836 0.10932
H_ H_ 0.139731 0.312689 0.568895 0.10932
H_ H_ 0.373129 0.316288 0.562719 0.10932
H_ H_ 0.132781 0.179355 0.566915 0.10932
H_ H_ 0.365008 0.183216 0.561333 0.10932
C_ C_ 0.0718089 0.346021 0.751859 -0.02249
C_ C_ 0.314685 0.346977 0.755091 -0.02249
C_ C_ 0.0174765 0.456778 0.756601 -0.02249
C_ C_ 0.267297 0.462426 0.758371 -0.02249
C_ C_ 0.046032 0.403841 0.714597 -0.11473
C_ C_ 0.295132 0.407398 0.719134 -0.11473
C_ C_ 0.0564743 0.357014 0.788423 -0.11473
C_ C_ 0.303784 0.362584 0.793727 -0.11473
C_ C_ 0.0656215 0.368034 0.712454 -0.11473
C_ C_ 0.31082 0.371136 0.718888 -0.11473
C_ C_ 0.035317 0.418426 0.753737 -0.02249
C_ C_ 0.28204 0.421733 0.757182 -0.02249
C_ C_ 0.0876658 0.305027 0.751317 0.6875
C_ C_ 0.333331 0.308619 0.754675 0.6875
C_ C_ 0.0401865 0.394336 0.790766 -0.11473
C_ C_ 0.288851 0.399642 0.795013 -0.11473
C_ C_ 0.187615 0.348417 0.754303 -0.02249
C_ C_ 0.437283 0.342195 0.746401 -0.02249
C_ C_ 0.236454 0.464249 0.756457 -0.02249
C_ C_ 0.482018 0.459091 0.747577 -0.02249
C_ C_ 0.202825 0.413717 0.78958 -0.11473
C_ C_ 0.46758 0.394183 0.782942 -0.11473
C_ C_ 0.205986 0.360357 0.720754 -0.11473
C_ C_ 0.432455 0.371297 0.713162 -0.11473
C_ C_ 0.188482 0.374736 0.789147 -0.11473
C_ C_ 0.452984 0.355188 0.780887 -0.11473
C_ C_ 0.219272 0.426115 0.754096 -0.02249
C_ C_ 0.463731 0.421995 0.748847 -0.02249
C_ C_ 0.16963 0.310299 0.751216 0.6875
C_ C_ 0.414678 0.307843 0.747083 0.6875
C_ C_ 0.221054 0.399059 0.719471 -0.11473
C_ C_ 0.447568 0.408095 0.712866 -0.11473
C_ C_ 0.189659 0.153666 0.755385 -0.02249
C_ C_ 0.43206 0.154526 0.748195 -0.02249
C_ C_ 0.237332 0.0345194 0.760704 -0.02249
C_ C_ 0.482746 0.0404788 0.748127 -0.02249
C_ C_ 0.220321 0.100211 0.793932 -0.11473
C_ C_ 0.457878 0.0999079 0.786259 -0.11473
C_ C_ 0.194862 0.130181 0.717917 -0.11473
C_ C_ 0.444303 0.138543 0.710784 -0.11473
C_ C_ 0.204206 0.138126 0.794375 -0.11473
C_ C_ 0.440696 0.135844 0.786737 -0.11473
C_ C_ 0.221961 0.0765579 0.757988 -0.02249
C_ C_ 0.467346 0.081088 0.749098 -0.02249
C_ C_ 0.173453 0.19445 0.75473 0.6875
C_ C_ 0.40963 0.187647 0.747323 0.6875
C_ C_ 0.2112 0.0928091 0.720161 -0.11473
C_ C_ 0.457687 0.100329 0.710752 -0.11473
C_ C_ 0.0707783 0.149712 0.750673 -0.02249
C_ C_ 0.316616 0.152652 0.753219 -0.02249
C_ C_ 0.0154385 0.0387844 0.749857 -0.02249
C_ C_ 0.270294 0.0341235 0.7581 -0.02249
C_ C_ 0.0501215 0.0895899 0.713152 -0.11473
C_ C_ 0.294154 0.0951391 0.720786 -0.11473
C_ C_ 0.0561813 0.137443 0.787553 -0.11473
C_ C_ 0.314927 0.130632 0.791973 -0.11473
C_ C_ 0.0707008 0.123118 0.716157 -0.11473
C_ C_ 0.305815 0.132875 0.716122 -0.11473
C_ C_ 0.0335167 0.0786291 0.749097 -0.02249
C_ C_ 0.288804 0.0740816 0.759328 -0.02249
C_ C_ 0.0904844 0.188374 0.750502 0.6875
C_ C_ 0.331996 0.194124 0.750254 0.6875
C_ C_ 0.0386526 0.100805 0.785772 -0.11473
C_ C_ 0.299347 0.0927245 0.793993 -0.11473
C_ C_ 0.129105 0.292036 0.872344 0.17695
C_ C_ 0.372513 0.280991 0.876267 0.17695
C_ C_ 0.128206 0.218954 0.880525 0.17695
C_ C_ 0.377915 0.207617 0.869681 0.17695
C_ C_ 0.128473 0.22142 0.923236 -0.11473
C_ C_ 0.378166 0.202657 0.914636 -0.11473
C_ C_ 0.127619 0.261422 0.942184 0.23465
C_ C_ 0.376202 0.238071 0.941289 0.23465
C_ C_ 0.125356 0.297217 0.91696 -0.11473
C_ C_ 0.371045 0.27689 0.919768 -0.11473
C_ C_ 0.129193 0.211591 0.626809 0.17695
C_ C_ 0.367711 0.214794 0.622694 0.17695
C_ C_ 0.132123 0.284181 0.627659 0.17695
C_ C_ 0.374436 0.287238 0.622243 0.17695
C_ C_ 0.136526 0.282689 0.584154 -0.11473
C_ C_ 0.370452 0.287763 0.578973 -0.11473
C_ C_ 0.133416 0.245753 0.55996 0.23465
C_ C_ 0.368765 0.25083 0.556476 0.23465
C_ C_ 0.132148 0.208742 0.582541 -0.11473
C_ C_ 0.365417 0.214553 0.578764 -0.11473
C_ C_ 0.0328201 0.495552 0.7511 0.05793
C_ C_ 0.284429 0.499458 0.759856 0.05793
C_ C_ 0.221666 -0.003893999999999953 0.755867 0.05793
C_ C_ 0.467696 1.00275475 0.749642 0.05793
Br Br 0.0765461 0.497605 0.745409 -0.17191
Br Br 0.328369 0.498648 0.759835 -0.17191
Br Br 0.180104 -0.003202000000000038 0.740347 -0.17191
Br Br 0.425011 1.00325422 0.753112 -0.17191
N_ N_ 0.129198 0.253828 0.855909 -0.272
N_ N_ 0.376466 0.24585 0.85285 -0.272
N_ N_ 0.126743 0.265935 0.987228 -0.12501
N_ N_ 0.378592 0.232823 0.985705 -0.12501
N_ N_ 0.130571 0.247116 0.647856 -0.272
N_ N_ 0.368198 0.251795 0.642944 -0.272
N_ N_ 0.12993 0.242597 0.514726 -0.12501
N_ N_ 0.374076 0.253515 0.512347 -0.12501
O_ O_ 0.0984123 0.291308 0.71705 -0.60745
O_ O_ 0.338955 0.293738 0.719142 -0.60745
O_ O_ 0.0953673 0.290099 0.785656 -0.60745
O_ O_ 0.347157 0.297527 0.787803 -0.60745
O_ O_ 0.160547 0.29486 0.786656 -0.60745
O_ O_ 0.410857 0.287864 0.780523 -0.60745
O_ O_ 0.15904 0.296165 0.716391 -0.60745
O_ O_ 0.400728 0.297863 0.712753 -0.60745
O_ O_ 0.159505 0.206052 0.787585 -0.60745
O_ O_ 0.399901 0.202279 0.781792 -0.60745
O_ O_ 0.164444 0.208283 0.719246 -0.60745
O_ O_ 0.404464 0.20633 0.712572 -0.60745
O_ O_ 0.104157 0.198567 0.718792 -0.60745
O_ O_ 0.341042 0.207452 0.714673 -0.60745
O_ O_ 0.0963341 0.207104 0.784918 -0.60745
O_ O_ 0.339714 0.212323 0.784349 -0.60745
Zn Zn 0.11947 0.747083 0.286761 0.9476
Zn Zn 0.373784 0.751233 0.286649 0.9476
Zn Zn 0.122308 0.747219 0.218237 0.9476
Zn Zn 0.370883 0.747056 0.216466 0.9476
H_ H_ 0.0337115 0.913631 0.172748 0.10932
H_ H_ 0.275038 0.914621 0.186599 0.10932
H_ H_ 0.063893 0.861983 0.31564 0.10932
H_ H_ 0.319901 0.862667 0.321292 0.10932
H_ H_ 0.0657551 0.852256 0.180302 0.10932
H_ H_ 0.297672 0.840801 0.190445 0.10932
H_ H_ 0.0321169 0.921039 0.31177 0.10932
H_ H_ 0.28646 0.927314 0.316375 0.10932
H_ H_ 0.230158 0.902006 0.315961 0.10932
H_ H_ 0.478967 0.906406 0.314202 0.10932
H_ H_ 0.164666 0.862464 0.191953 0.10932
H_ H_ 0.412709 0.873519 0.196832 0.10932
H_ H_ 0.205727 0.829193 0.309485 0.10932
H_ H_ 0.444213 0.849481 0.31877 0.10932
H_ H_ 0.183555 0.936541 0.201138 0.10932
H_ H_ 0.446595 0.934914 0.189789 0.10932
H_ H_ 0.197704 0.563958 0.315337 0.10932
H_ H_ 0.4551 0.574211 0.316019 0.10932
H_ H_ 0.195096 0.655931 0.192092 0.10932
H_ H_ 0.4423 0.653179 0.184736 0.10932
H_ H_ 0.162375 0.620438 0.313185 0.10932
H_ H_ 0.426002 0.640426 0.317596 0.10932
H_ H_ 0.225286 0.598147 0.188864 0.10932
H_ H_ 0.467804 0.587161 0.184354 0.10932
H_ H_ 0.0422746 0.571746 0.188938 0.10932
H_ H_ 0.283082 0.577294 0.187338 0.10932
H_ H_ 0.0456887 0.666038 0.316534 0.10932
H_ H_ 0.308711 0.65512 0.321181 0.10932
H_ H_ 0.0678964 0.637848 0.185983 0.10932
H_ H_ 0.315589 0.642724 0.18437 0.10932
H_ H_ 0.0275428 0.595619 0.320961 0.10932
H_ H_ 0.277011 0.589813 0.320144 0.10932
H_ H_ 0.110466 0.807439 0.366233 0.10932
H_ H_ 0.368463 0.820283 0.360367 0.10932
H_ H_ 0.118453 0.676183 0.357812 0.10932
H_ H_ 0.370042 0.690991 0.361451 0.10932
H_ H_ 0.119574 0.67018 0.437476 0.10932
H_ H_ 0.365478 0.687741 0.438947 0.10932
H_ H_ 0.109177 0.801495 0.442446 0.10932
H_ H_ 0.369269 0.82211 0.437059 0.10932
H_ H_ 0.134229 0.676893 0.150903 0.10932
H_ H_ 0.369804 0.816522 0.151897 0.10932
H_ H_ 0.119974 0.807723 0.139356 0.10932
H_ H_ 0.371877 0.683626 0.139584 0.10932
H_ H_ 0.131575 0.803045 0.0643654 0.10932
H_ H_ 0.372668 0.689498 0.0634929 0.10932
H_ H_ 0.134568 0.668374 0.0729799 0.10932
H_ H_ 0.367416 0.821461 0.0735698 0.10932
C_ C_ 0.0638144 0.847927 0.250381 -0.02249
C_ C_ 0.312795 0.8473 0.255567 -0.02249
C_ C_ 0.0135389 0.961711 0.242897 -0.02249
C_ C_ 0.262055 0.962043 0.250011 -0.02249
C_ C_ 0.0397118 0.901434 0.204409 -0.11473
C_ C_ 0.282834 0.900645 0.21651 -0.11473
C_ C_ 0.053585 0.868685 0.285443 -0.11473
C_ C_ 0.309022 0.87133 0.291251 -0.11473
C_ C_ 0.0561412 0.865525 0.208993 -0.11473
C_ C_ 0.296262 0.859769 0.218763 -0.11473
C_ C_ 0.029455 0.921124 0.243166 -0.02249
C_ C_ 0.276986 0.92157 0.253077 -0.02249
C_ C_ 0.08445 0.810608 0.252407 0.6875
C_ C_ 0.3333 0.811502 0.25441 0.6875
C_ C_ 0.0372438 0.904968 0.282176 -0.11473
C_ C_ 0.290117 0.907682 0.290448 -0.11473
C_ C_ 0.180954 0.84588 0.254935 -0.02249
C_ C_ 0.430081 0.851215 0.253823 -0.02249
C_ C_ 0.229973 0.962262 0.256994 -0.02249
C_ C_ 0.48331 0.962807 0.250328 -0.02249
C_ C_ 0.216267 0.894285 0.28971 -0.11473
C_ C_ 0.465717 0.898246 0.286544 -0.11473
C_ C_ 0.177777 0.873277 0.220494 -0.11473
C_ C_ 0.432094 0.874692 0.216476 -0.11473
C_ C_ 0.199979 0.854623 0.287773 -0.11473
C_ C_ 0.446107 0.865362 0.289397 -0.11473
C_ C_ 0.214088 0.922526 0.255803 -0.02249
C_ C_ 0.467106 0.923885 0.25093 -0.02249
C_ C_ 0.161599 0.806703 0.252527 0.6875
C_ C_ 0.41073 0.812661 0.254164 0.6875
C_ C_ 0.191306 0.912705 0.223 -0.11473
C_ C_ 0.450068 0.910716 0.213933 -0.11473
C_ C_ 0.175306 0.643837 0.251899 -0.02249
C_ C_ 0.432308 0.652442 0.251198 -0.02249
C_ C_ 0.232067 0.536624 0.247787 -0.02249
C_ C_ 0.481773 0.538551 0.251842 -0.02249
C_ C_ 0.200523 0.586819 0.288681 -0.11473
C_ C_ 0.449533 0.591704 0.286965 -0.11473
C_ C_ 0.195998 0.637918 0.22031 -0.11473
C_ C_ 0.443222 0.636361 0.213153 -0.11473
C_ C_ 0.178057 0.617663 0.28737 -0.11473
C_ C_ 0.432593 0.626519 0.288182 -0.11473
C_ C_ 0.216001 0.576557 0.251702 -0.02249
C_ C_ 0.463572 0.5783 0.250646 -0.02249
C_ C_ 0.156909 0.682759 0.253943 0.6875
C_ C_ 0.414052 0.691903 0.249643 0.6875
C_ C_ 0.213597 0.603105 0.217938 -0.11473
C_ C_ 0.458243 0.599264 0.212679 -0.11473
C_ C_ 0.0595593 0.657895 0.248925 -0.02249
C_ C_ 0.31293 0.652866 0.25235 -0.02249
C_ C_ 0.0164963 0.538876 0.257849 -0.02249
C_ C_ 0.263799 0.537778 0.255054 -0.02249
C_ C_ 0.0468272 0.589713 0.217836 -0.11473
C_ C_ 0.288965 0.593315 0.215888 -0.11473
C_ C_ 0.0474242 0.644487 0.288439 -0.11473
C_ C_ 0.301897 0.638252 0.290609 -0.11473
C_ C_ 0.0598783 0.628463 0.215565 -0.11473
C_ C_ 0.306266 0.6314 0.214032 -0.11473
C_ C_ 0.0336174 0.578986 0.255447 -0.02249
C_ C_ 0.278865 0.577776 0.253823 -0.02249
C_ C_ 0.0818693 0.692194 0.250238 0.6875
C_ C_ 0.332467 0.691571 0.250336 0.6875
C_ C_ 0.034299 0.605017 0.291019 -0.11473
C_ C_ 0.285251 0.600558 0.290689 -0.11473
C_ C_ 0.111562 0.776458 0.380421 0.17695
C_ C_ 0.371319 0.790501 0.377053 0.17695
C_ C_ 0.120323 0.704166 0.377633 0.17695
C_ C_ 0.369919 0.718259 0.377626 0.17695
C_ C_ 0.119279 0.701067 0.423093 -0.11473
C_ C_ 0.365726 0.717623 0.420767 -0.11473
C_ C_ 0.117522 0.736843 0.446488 0.23465
C_ C_ 0.370485 0.754459 0.444666 0.23465
C_ C_ 0.113461 0.77369 0.424426 -0.11473
C_ C_ 0.369562 0.792179 0.42113 -0.11473
C_ C_ 0.127963 0.703173 0.130598 0.17695
C_ C_ 0.368109 0.787431 0.132603 0.17695
C_ C_ 0.123552 0.776681 0.123039 0.17695
C_ C_ 0.371838 0.71515 0.125773 0.17695
C_ C_ 0.130382 0.773981 0.0799569 -0.11473
C_ C_ 0.369648 0.717383 0.0810441 -0.11473
C_ C_ 0.132749 0.735388 0.0600504 0.23465
C_ C_ 0.370071 0.757097 0.0625262 0.23465
C_ C_ 0.133012 0.70027 0.0872951 -0.11473
C_ C_ 0.368802 0.790904 0.0873544 -0.11473
C_ C_ 0.0305485 0.99871318 0.246508 0.05793
C_ C_ 0.277721 0.999602631 0.249823 0.05793
C_ C_ 0.217049 0.498859 0.239823 0.05793
C_ C_ 0.465728 0.498758 0.252756 0.05793
Br Br 0.0729208 0.00207992 0.23905 -0.17191
Br Br 0.319001 0.998436 0.232372 -0.17191
Br Br 0.174325 0.494931 0.23216 -0.17191
Br Br 0.422674 0.499331 0.257668 -0.17191
N_ N_ 0.117921 0.741399 0.359597 -0.272
N_ N_ 0.371555 0.753345 0.356648 -0.272
N_ N_ 0.114041 0.735223 0.491208 -0.12501
N_ N_ 0.369444 0.75718 0.488928 -0.12501
N_ N_ 0.124028 0.741783 0.147781 -0.272
N_ N_ 0.371755 0.748647 0.149721 -0.272
N_ N_ 0.133263 0.729884 0.0156827 -0.12501
N_ N_ 0.369073 0.763381 0.0171226 -0.12501
O_ O_ 0.0899482 0.789446 0.218946 -0.60745
O_ O_ 0.341044 0.795513 0.219577 -0.60745
O_ O_ 0.0924699 0.795245 0.287943 -0.60745
O_ O_ 0.339958 0.794601 0.290166 -0.60745
O_ O_ 0.15497 0.786023 0.285937 -0.60745
O_ O_ 0.40395 0.797609 0.290125 -0.60745
O_ O_ 0.151063 0.794135 0.217192 -0.60745
O_ O_ 0.402057 0.795478 0.219509 -0.60745
O_ O_ 0.144455 0.695119 0.286417 -0.60745
O_ O_ 0.408775 0.711462 0.283221 -0.60745
O_ O_ 0.15269 0.704481 0.220935 -0.60745
O_ O_ 0.401598 0.704476 0.214818 -0.60745
O_ O_ 0.0969434 0.701804 0.217779 -0.60745
O_ O_ 0.338165 0.705452 0.215197 -0.60745
O_ O_ 0.0850902 0.711752 0.283575 -0.60745
O_ O_ 0.343639 0.707665 0.283573 -0.60745
Zn Zn 0.127036 0.749113 0.788456 0.9476
Zn Zn 0.379117 0.747994 0.790326 0.9476
Zn Zn 0.125906 0.748789 0.719459 0.9476
Zn Zn 0.378114 0.749358 0.719795 0.9476
H_ H_ 0.0309592 0.914058 0.685298 0.10932
H_ H_ 0.284341 0.911165 0.692053 0.10932
H_ H_ 0.0708149 0.860223 0.820533 0.10932
H_ H_ 0.327951 0.857346 0.82161 0.10932
H_ H_ 0.0634657 0.853048 0.688347 0.10932
H_ H_ 0.313278 0.85042 0.688078 0.10932
H_ H_ 0.0324323 0.917011 0.819392 0.10932
H_ H_ 0.298673 0.922167 0.823643 0.10932
H_ H_ 0.228115 0.904509 0.820118 0.10932
H_ H_ 0.468328 0.920625 0.817277 0.10932
H_ H_ 0.187805 0.85174 0.68125 0.10932
H_ H_ 0.423747 0.865777 0.684001 0.10932
H_ H_ 0.187933 0.84745 0.817005 0.10932
H_ H_ 0.437717 0.854919 0.813286 0.10932
H_ H_ 0.216055 0.920502 0.68618 0.10932
H_ H_ 0.454386 0.926334 0.680928 0.10932
H_ H_ 0.215463 0.578103 0.81442 0.10932
H_ H_ 0.461827 0.573608 0.810393 0.10932
H_ H_ 0.195222 0.658018 0.682732 0.10932
H_ H_ 0.444415 0.65758 0.678682 0.10932
H_ H_ 0.189301 0.645611 0.81902 0.10932
H_ H_ 0.444337 0.645233 0.812746 0.10932
H_ H_ 0.225685 0.593492 0.682203 0.10932
H_ H_ 0.466408 0.587872 0.673675 0.10932
H_ H_ 0.0349446 0.574568 0.685854 0.10932
H_ H_ 0.279682 0.594906 0.683878 0.10932
H_ H_ 0.0716573 0.639319 0.818787 0.10932
H_ H_ 0.325159 0.638665 0.818805 0.10932
H_ H_ 0.0698641 0.63875 0.68518 0.10932
H_ H_ 0.314998 0.65349 0.685049 0.10932
H_ H_ 0.0374964 0.577644 0.818985 0.10932
H_ H_ 0.303321 0.568492 0.814773 0.10932
H_ H_ 0.121 0.812649 0.855409 0.10932
H_ H_ 0.37044 0.811965 0.869566 0.10932
H_ H_ 0.122253 0.685156 0.865414 0.10932
H_ H_ 0.386047 0.682465 0.857453 0.10932
H_ H_ 0.120106 0.689041 0.942566 0.10932
H_ H_ 0.382741 0.675094 0.935303 0.10932
H_ H_ 0.129126 0.818415 0.937451 0.10932
H_ H_ 0.365064 0.80553 0.945149 0.10932
H_ H_ 0.128677 0.688491 0.643969 0.10932
H_ H_ 0.374303 0.809205 0.633348 0.10932
H_ H_ 0.119358 0.818908 0.647101 0.10932
H_ H_ 0.373782 0.680796 0.65068 0.10932
H_ H_ 0.120521 0.823091 0.571532 0.10932
H_ H_ 0.38104 0.667734 0.574553 0.10932
H_ H_ 0.126166 0.689162 0.566027 0.10932
H_ H_ 0.381178 0.802018 0.557396 0.10932
C_ C_ 0.0715891 0.852282 0.753241 -0.02249
C_ C_ 0.318619 0.84373 0.757415 -0.02249
C_ C_ 0.0134935 0.9643 0.752276 -0.02249
C_ C_ 0.269289 0.958383 0.756048 -0.02249
C_ C_ 0.0409358 0.902627 0.71508 -0.11473
C_ C_ 0.290556 0.895996 0.722133 -0.11473
C_ C_ 0.0599419 0.868716 0.790914 -0.11473
C_ C_ 0.314612 0.866331 0.795633 -0.11473
C_ C_ 0.0621202 0.87009 0.715588 -0.11473
C_ C_ 0.307692 0.861196 0.71998 -0.11473
C_ C_ 0.0308249 0.923044 0.752367 -0.02249
C_ C_ 0.285864 0.918782 0.758416 -0.02249
C_ C_ 0.0882956 0.810363 0.753912 0.6875
C_ C_ 0.335941 0.803278 0.755065 0.6875
C_ C_ 0.0398541 0.903249 0.790508 -0.11473
C_ C_ 0.299358 0.903436 0.795472 -0.11473
C_ C_ 0.186216 0.84413 0.749291 -0.02249
C_ C_ 0.433409 0.851373 0.749204 -0.02249
C_ C_ 0.237925 0.956826 0.755433 -0.02249
C_ C_ 0.483512 0.965231 0.749134 -0.02249
C_ C_ 0.217979 0.893418 0.790063 -0.11473
C_ C_ 0.459869 0.908959 0.787026 -0.11473
C_ C_ 0.195271 0.863127 0.71203 -0.11473
C_ C_ 0.437874 0.873717 0.711356 -0.11473
C_ C_ 0.195646 0.860678 0.787631 -0.11473
C_ C_ 0.444204 0.870017 0.786195 -0.11473
C_ C_ 0.222785 0.916525 0.754297 -0.02249
C_ C_ 0.465519 0.9273 0.748445 -0.02249
C_ C_ 0.167801 0.806515 0.747518 0.6875
C_ C_ 0.415149 0.812071 0.750346 0.6875
C_ C_ 0.209282 0.902786 0.715851 -0.11473
C_ C_ 0.45442 0.90946 0.711133 -0.11473
C_ C_ 0.188949 0.653828 0.75107 -0.02249
C_ C_ 0.437612 0.652854 0.746187 -0.02249
C_ C_ 0.238781 0.540064 0.748285 -0.02249
C_ C_ 0.483493 0.535523 0.740377 -0.02249
C_ C_ 0.213121 0.596068 0.787024 -0.11473
C_ C_ 0.456257 0.590847 0.779938 -0.11473
C_ C_ 0.199322 0.638606 0.711863 -0.11473
C_ C_ 0.445959 0.637595 0.706589 -0.11473
C_ C_ 0.196728 0.634355 0.789071 -0.11473
C_ C_ 0.444253 0.630778 0.78198 -0.11473
C_ C_ 0.224222 0.581202 0.74885 -0.02249
C_ C_ 0.46623 0.575353 0.741284 -0.02249
C_ C_ 0.168123 0.6906 0.751396 0.6875
C_ C_ 0.418938 0.692859 0.749284 0.6875
C_ C_ 0.217483 0.604464 0.711189 -0.11473
C_ C_ 0.45825 0.596364 0.703876 -0.11473
C_ C_ 0.0681401 0.647673 0.753303 -0.02249
C_ C_ 0.32449 0.648351 0.751895 -0.02249
C_ C_ 0.0152382 0.533918 0.752666 -0.02249
C_ C_ 0.271065 0.53684 0.749185 -0.02249
C_ C_ 0.0416869 0.590683 0.713396 -0.11473
C_ C_ 0.293004 0.601041 0.712714 -0.11473
C_ C_ 0.062806 0.626011 0.79023 -0.11473
C_ C_ 0.317115 0.627486 0.788752 -0.11473
C_ C_ 0.0581912 0.629542 0.71404 -0.11473
C_ C_ 0.311604 0.636094 0.713989 -0.11473
C_ C_ 0.0324963 0.573836 0.751018 -0.02249
C_ C_ 0.287907 0.578094 0.75044 -0.02249
C_ C_ 0.0857028 0.688102 0.753191 0.6875
C_ C_ 0.343723 0.684644 0.754328 0.6875
C_ C_ 0.0437332 0.591061 0.789641 -0.11473
C_ C_ 0.302888 0.589592 0.788409 -0.11473
C_ C_ 0.123388 0.786476 0.876275 0.17695
C_ C_ 0.375118 0.782869 0.883749 0.17695
C_ C_ 0.126995 0.715004 0.881176 0.17695
C_ C_ 0.385651 0.71069 0.877181 0.17695
C_ C_ 0.124839 0.715445 0.924309 -0.11473
C_ C_ 0.382169 0.705779 0.921529 -0.11473
C_ C_ 0.126744 0.753923 0.94364 0.23465
C_ C_ 0.377629 0.740345 0.947137 0.23465
C_ C_ 0.128268 0.788497 0.920896 -0.11473
C_ C_ 0.373065 0.779445 0.926922 -0.11473
C_ C_ 0.124718 0.717241 0.6274 0.17695
C_ C_ 0.379353 0.779112 0.620675 0.17695
C_ C_ 0.122487 0.790983 0.630305 0.17695
C_ C_ 0.375364 0.707074 0.630444 0.17695
C_ C_ 0.122786 0.793471 0.586871 -0.11473
C_ C_ 0.380467 0.699954 0.586361 -0.11473
C_ C_ 0.123747 0.757669 0.561433 0.23465
C_ C_ 0.379467 0.733918 0.55867 0.23465
C_ C_ 0.125349 0.719366 0.582339 -0.11473
C_ C_ 0.379793 0.774705 0.576419 -0.11473
C_ C_ 0.0297816 0.0010499999999999954 0.757765 0.05793
C_ C_ 0.285408 -0.003924999999999956 0.759996 0.05793
C_ C_ 0.222964 0.503547 0.749167 0.05793
C_ C_ 0.46702 0.497331 0.743123 0.05793
Br Br 0.0713247 -0.004693999999999976 0.776223 -0.17191
Br Br 0.328702 -0.002022999999999997 0.758566 -0.17191
Br Br 0.17995 0.50817 0.74248 -0.17191
Br Br 0.422461 0.499242 0.750366 -0.17191
N_ N_ 0.129617 0.749905 0.857731 -0.272
N_ N_ 0.381908 0.749469 0.859731 -0.272
N_ N_ 0.127502 0.75909 0.989258 -0.12501
N_ N_ 0.378525 0.736106 0.992125 -0.12501
N_ N_ 0.123405 0.753034 0.649894 -0.272
N_ N_ 0.377544 0.745149 0.647661 -0.272
N_ N_ 0.125412 0.761721 0.51579 -0.12501
N_ N_ 0.37818 0.72838 0.513392 -0.12501
O_ O_ 0.0930338 0.787644 0.721732 -0.60745
O_ O_ 0.347398 0.791849 0.71932 -0.60745
O_ O_ 0.100326 0.798985 0.787951 -0.60745
O_ O_ 0.344083 0.785849 0.790236 -0.60745
O_ O_ 0.160647 0.791994 0.784458 -0.60745
O_ O_ 0.405947 0.796513 0.785542 -0.60745
O_ O_ 0.154187 0.794924 0.714805 -0.60745
O_ O_ 0.40821 0.794264 0.715489 -0.60745
O_ O_ 0.156569 0.701852 0.785125 -0.60745
O_ O_ 0.413945 0.710156 0.78469 -0.60745
O_ O_ 0.160348 0.707608 0.717394 -0.60745
O_ O_ 0.405579 0.70498 0.716397 -0.60745
O_ O_ 0.095602 0.70301 0.719261 -0.60745
O_ O_ 0.346075 0.706412 0.721305 -0.60745
O_ O_ 0.0952991 0.703407 0.787959 -0.60745
O_ O_ 0.351525 0.699749 0.789978 -0.60745
Zn Zn 0.62614 0.252901 0.28223 0.9476
Zn Zn 0.871978 0.249233 0.283735 0.9476
Zn Zn 0.62397 0.252747 0.210729 0.9476
Zn Zn 0.876095 0.252865 0.211417 0.9476
H_ H_ 0.518936 0.402377 0.17805 0.10932
H_ H_ 0.771934 0.412821 0.187299 0.10932
H_ H_ 0.571254 0.359462 0.308248 0.10932
H_ H_ 0.818213 0.357226 0.317818 0.10932
H_ H_ 0.544889 0.337567 0.17903 0.10932
H_ H_ 0.815212 0.358365 0.182024 0.10932
H_ H_ 0.546926 0.428537 0.306334 0.10932
H_ H_ 0.790309 0.417975 0.320173 0.10932
H_ H_ 0.733016 0.404012 0.316013 0.10932
H_ H_ 0.953959 0.430465 0.316875 0.10932
H_ H_ 0.674526 0.364001 0.187566 0.10932
H_ H_ 0.951377 0.339751 0.19074 0.10932
H_ H_ 0.701693 0.338401 0.312553 0.10932
H_ H_ 0.918103 0.370301 0.308497 0.10932
H_ H_ 0.700062 0.431146 0.190312 0.10932
H_ H_ 0.979141 0.410089 0.190023 0.10932
H_ H_ 0.697598 0.059051 0.295295 0.10932
H_ H_ 0.975751 0.0896026 0.314688 0.10932
H_ H_ 0.703499 0.170413 0.19097 0.10932
H_ H_ 0.931897 0.149607 0.182713 0.10932
H_ H_ 0.668272 0.127108 0.30917 0.10932
H_ H_ 0.941748 0.151931 0.314107 0.10932
H_ H_ 0.729719 0.103371 0.179174 0.10932
H_ H_ 0.964094 0.0852033 0.180242 0.10932
H_ H_ 0.546191 0.064871 0.193137 0.10932
H_ H_ 0.789894 0.0845191 0.173867 0.10932
H_ H_ 0.558098 0.156304 0.317857 0.10932
H_ H_ 0.808029 0.146758 0.313531 0.10932
H_ H_ 0.582494 0.126027 0.194009 0.10932
H_ H_ 0.815436 0.154501 0.177502 0.10932
H_ H_ 0.523306 0.0929126 0.319186 0.10932
H_ H_ 0.784329 0.080008 0.308453 0.10932
H_ H_ 0.579622 0.257107 0.348812 0.10932
H_ H_ 0.880446 0.185742 0.355716 0.10932
H_ H_ 0.67245 0.263952 0.363075 0.10932
H_ H_ 0.864577 0.313844 0.358297 0.10932
H_ H_ 0.668202 0.248062 0.438443 0.10932
H_ H_ 0.856758 0.311325 0.434737 0.10932
H_ H_ 0.572096 0.257299 0.424307 0.10932
H_ H_ 0.885948 0.1854 0.434839 0.10932
H_ H_ 0.648863 0.194701 0.125676 0.10932
H_ H_ 0.826027 0.263935 0.142524 0.10932
H_ H_ 0.609475 0.313645 0.145267 0.10932
H_ H_ 0.920001 0.254529 0.140928 0.10932
H_ H_ 0.622675 0.329719 0.0687317 0.10932
H_ H_ 0.920378 0.258389 0.0614064 0.10932
H_ H_ 0.65101 0.203191 0.0491823 0.10932
H_ H_ 0.823909 0.271576 0.0616266 0.10932
C_ C_ 0.560242 0.343157 0.24417 -0.02249
C_ C_ 0.814892 0.348842 0.249216 -0.02249
C_ C_ 0.514882 0.463091 0.245328 -0.02249
C_ C_ 0.765903 0.46364 0.252665 -0.02249
C_ C_ 0.531471 0.394782 0.207159 -0.11473
C_ C_ 0.784948 0.40243 0.215142 -0.11473
C_ C_ 0.561161 0.369587 0.28063 -0.11473
C_ C_ 0.808792 0.368918 0.288515 -0.11473
C_ C_ 0.544746 0.356128 0.207948 -0.11473
C_ C_ 0.804471 0.368324 0.212344 -0.11473
C_ C_ 0.533603 0.423471 0.241561 -0.02249
C_ C_ 0.782505 0.423019 0.253479 -0.02249
C_ C_ 0.582702 0.308213 0.244653 0.6875
C_ C_ 0.835119 0.312044 0.249402 0.6875
C_ C_ 0.5478 0.407921 0.27978 -0.11473
C_ C_ 0.79443 0.406427 0.290433 -0.11473
C_ C_ 0.687783 0.347583 0.249441 -0.02249
C_ C_ 0.932592 0.349716 0.250596 -0.02249
C_ C_ 0.734975 0.463878 0.253677 -0.02249
C_ C_ 0.984689 0.463472 0.25342 -0.02249
C_ C_ 0.721251 0.39589 0.287283 -0.11473
C_ C_ 0.952157 0.411102 0.287929 -0.11473
C_ C_ 0.686575 0.373887 0.21494 -0.11473
C_ C_ 0.951079 0.361527 0.216871 -0.11473
C_ C_ 0.703465 0.360003 0.286143 -0.11473
C_ C_ 0.932395 0.376488 0.284996 -0.11473
C_ C_ 0.718854 0.42413 0.252848 -0.02249
C_ C_ 0.968122 0.423914 0.254147 -0.02249
C_ C_ 0.666849 0.30869 0.248889 0.6875
C_ C_ 0.914017 0.310832 0.247807 0.6875
C_ C_ 0.701782 0.411533 0.216223 -0.11473
C_ C_ 0.96854 0.3986 0.218427 -0.11473
C_ C_ 0.683687 0.151898 0.251294 -0.02249
C_ C_ 0.936991 0.156206 0.248003 -0.02249
C_ C_ 0.734883 0.0395699 0.239047 -0.02249
C_ C_ 0.984687 0.0424014 0.246902 -0.02249
C_ C_ 0.701925 0.0878531 0.278444 -0.11473
C_ C_ 0.964059 0.0993027 0.286085 -0.11473
C_ C_ 0.701524 0.146501 0.215921 -0.11473
C_ C_ 0.942713 0.135548 0.21034 -0.11473
C_ C_ 0.683998 0.122746 0.281912 -0.11473
C_ C_ 0.946736 0.137005 0.285748 -0.11473
C_ C_ 0.718885 0.0809754 0.242019 -0.02249
C_ C_ 0.96981 0.0813025 0.248655 -0.02249
C_ C_ 0.665158 0.190443 0.25331 0.6875
C_ C_ 0.913973 0.192354 0.247673 0.6875
C_ C_ 0.716887 0.110031 0.208319 -0.11473
C_ C_ 0.957191 0.0986418 0.211068 -0.11473
C_ C_ 0.570016 0.14787 0.253989 -0.02249
C_ C_ 0.816726 0.153786 0.247522 -0.02249
C_ C_ 0.516186 0.0381155 0.255326 -0.02249
C_ C_ 0.767223 0.0369877 0.238385 -0.02249
C_ C_ 0.548606 0.0869947 0.220585 -0.11473
C_ C_ 0.793475 0.0988811 0.204711 -0.11473
C_ C_ 0.554589 0.138087 0.291498 -0.11473
C_ C_ 0.80378 0.13344 0.282679 -0.11473
C_ C_ 0.566626 0.122052 0.219485 -0.11473
C_ C_ 0.809048 0.138011 0.20715 -0.11473
C_ C_ 0.53411 0.0766396 0.256259 -0.02249
C_ C_ 0.785488 0.0761944 0.241352 -0.02249
C_ C_ 0.588155 0.190014 0.250339 0.6875
C_ C_ 0.832893 0.193842 0.249627 0.6875
C_ C_ 0.535189 0.102693 0.291246 -0.11473
C_ C_ 0.790023 0.0952223 0.280752 -0.11473
C_ C_ 0.597762 0.251799 0.369466 0.17695
C_ C_ 0.880988 0.216229 0.372678 0.17695
C_ C_ 0.650804 0.260609 0.37753 0.17695
C_ C_ 0.867516 0.285917 0.375035 0.17695
C_ C_ 0.649902 0.257885 0.421956 -0.11473
C_ C_ 0.865942 0.283668 0.419674 -0.11473
C_ C_ 0.620691 0.257242 0.440955 0.23465
C_ C_ 0.874491 0.249615 0.442269 0.23465
C_ C_ 0.594956 0.253535 0.413545 -0.11473
C_ C_ 0.883111 0.214893 0.418241 -0.11473
C_ C_ 0.636443 0.220565 0.114366 0.17695
C_ C_ 0.845406 0.263927 0.122225 0.17695
C_ C_ 0.619168 0.289903 0.124792 0.17695
C_ C_ 0.898947 0.255296 0.122253 0.17695
C_ C_ 0.624855 0.298595 0.0811062 -0.11473
C_ C_ 0.898711 0.260833 0.0777983 -0.11473
C_ C_ 0.62963 0.264085 0.0528048 0.23465
C_ C_ 0.871414 0.268783 0.0551398 0.23465
C_ C_ 0.637754 0.225852 0.0692842 -0.11473
C_ C_ 0.844793 0.270253 0.0779654 -0.11473
C_ C_ 0.529869 0.502248 0.253588 0.05793
C_ C_ 0.78204 0.501286 0.249659 0.05793
C_ C_ 0.718716 1.00167743 0.232698 0.05793
C_ C_ 0.967478 1.00500244 0.245038 0.05793
Br Br 0.571954 0.501496 0.2579 -0.17191
Br Br 0.825725 0.499043 0.25294 -0.17191
Br Br 0.675175 0.00264454 0.222722 -0.17191
Br Br 0.923233 0.0108528 0.240853 -0.17191
N_ N_ 0.62599 0.254207 0.353502 -0.272
N_ N_ 0.874622 0.252339 0.352728 -0.272
N_ N_ 0.618969 0.248673 0.484271 -0.12501
N_ N_ 0.870519 0.246334 0.486623 -0.12501
N_ N_ 0.627413 0.253086 0.140258 -0.272
N_ N_ 0.872097 0.257534 0.142761 -0.272
N_ N_ 0.629056 0.270397 0.00847632 -0.12501
N_ N_ 0.872472 0.276427 0.0106127 -0.12501
O_ O_ 0.587223 0.287356 0.213449 -0.60745
O_ O_ 0.844304 0.298012 0.213859 -0.60745
O_ O_ 0.599526 0.301093 0.276461 -0.60745
O_ O_ 0.841328 0.29381 0.285357 -0.60745
O_ O_ 0.662405 0.289062 0.2828 -0.60745
O_ O_ 0.904118 0.294285 0.281399 -0.60745
O_ O_ 0.6496 0.301796 0.216515 -0.60745
O_ O_ 0.907622 0.296182 0.212761 -0.60745
O_ O_ 0.654258 0.204008 0.286417 -0.60745
O_ O_ 0.903043 0.206776 0.281128 -0.60745
O_ O_ 0.658974 0.209631 0.218023 -0.60745
O_ O_ 0.90933 0.211653 0.212689 -0.60745
O_ O_ 0.596935 0.201793 0.214049 -0.60745
O_ O_ 0.844463 0.20757 0.215519 -0.60745
O_ O_ 0.592952 0.211729 0.282632 -0.60745
O_ O_ 0.839907 0.208523 0.28504 -0.60745
Zn Zn 0.629925 0.247745 0.778916 0.9476
Zn Zn 0.872768 0.25118 0.783874 0.9476
Zn Zn 0.628222 0.247249 0.710525 0.9476
Zn Zn 0.872688 0.247843 0.715 0.9476
H_ H_ 0.530065 0.407911 0.675551 0.10932
H_ H_ 0.797085 0.425889 0.670864 0.10932
H_ H_ 0.568847 0.352547 0.810054 0.10932
H_ H_ 0.81577 0.358568 0.806005 0.10932
H_ H_ 0.561282 0.343098 0.676202 0.10932
H_ H_ 0.826163 0.357594 0.674092 0.10932
H_ H_ 0.543844 0.4197 0.808869 0.10932
H_ H_ 0.77918 0.416455 0.801941 0.10932
H_ H_ 0.710526 0.4315 0.805013 0.10932
H_ H_ 0.9656 0.404531 0.828118 0.10932
H_ H_ 0.692859 0.345154 0.676667 0.10932
H_ H_ 0.936904 0.346705 0.687665 0.10932
H_ H_ 0.677211 0.365053 0.808417 0.10932
H_ H_ 0.931933 0.349894 0.82341 0.10932
H_ H_ 0.718648 0.414366 0.671121 0.10932
H_ H_ 0.967376 0.41302 0.693812 0.10932
H_ H_ 0.725323 0.0851435 0.811151 0.10932
H_ H_ 0.960236 0.0779638 0.814638 0.10932
H_ H_ 0.687518 0.146056 0.677097 0.10932
H_ H_ 0.94658 0.163923 0.685416 0.10932
H_ H_ 0.699124 0.151912 0.812079 0.10932
H_ H_ 0.925085 0.138253 0.813472 0.10932
H_ H_ 0.713695 0.0799085 0.677832 0.10932
H_ H_ 0.972063 0.0981273 0.679848 0.10932
H_ H_ 0.545465 0.0656765 0.680496 0.10932
H_ H_ 0.78971 0.0767035 0.684586 0.10932
H_ H_ 0.553706 0.161494 0.80183 0.10932
H_ H_ 0.812789 0.145857 0.820305 0.10932
H_ H_ 0.581294 0.124722 0.679841 0.10932
H_ H_ 0.813489 0.144937 0.686195 0.10932
H_ H_ 0.525786 0.0943535 0.809903 0.10932
H_ H_ 0.795498 0.0718421 0.817027 0.10932
H_ H_ 0.628767 0.311053 0.857267 0.10932
H_ H_ 0.881015 0.187871 0.858326 0.10932
H_ H_ 0.633307 0.180806 0.849416 0.10932
H_ H_ 0.865362 0.321603 0.862543 0.10932
H_ H_ 0.629965 0.177988 0.926958 0.10932
H_ H_ 0.860807 0.314856 0.940234 0.10932
H_ H_ 0.632903 0.3097 0.932783 0.10932
H_ H_ 0.886327 0.185703 0.932959 0.10932
H_ H_ 0.637762 0.319723 0.644057 0.10932
H_ H_ 0.924369 0.24824 0.652781 0.10932
H_ H_ 0.62554 0.187568 0.631968 0.10932
H_ H_ 0.831298 0.245292 0.631892 0.10932
H_ H_ 0.622724 0.192074 0.553212 0.10932
H_ H_ 0.83675 0.239578 0.555364 0.10932
H_ H_ 0.641724 0.321992 0.563764 0.10932
H_ H_ 0.932953 0.247894 0.573968 0.10932
C_ C_ 0.567825 0.342441 0.74347 -0.02249
C_ C_ 0.814277 0.348663 0.738935 -0.02249
C_ C_ 0.51375 0.457296 0.74425 -0.02249
C_ C_ 0.765878 0.46559 0.737943 -0.02249
C_ C_ 0.536487 0.394075 0.70558 -0.11473
C_ C_ 0.797997 0.409574 0.700807 -0.11473
C_ C_ 0.56131 0.364663 0.780608 -0.11473
C_ C_ 0.805646 0.368908 0.77545 -0.11473
C_ C_ 0.554803 0.356977 0.706079 -0.11473
C_ C_ 0.812184 0.369934 0.701392 -0.11473
C_ C_ 0.52998 0.415476 0.743978 -0.02249
C_ C_ 0.78416 0.425809 0.736841 -0.02249
C_ C_ 0.587605 0.306321 0.744851 0.6875
C_ C_ 0.83571 0.312776 0.742735 0.6875
C_ C_ 0.545455 0.401986 0.779399 -0.11473
C_ C_ 0.787492 0.402901 0.774407 -0.11473
C_ C_ 0.682769 0.350638 0.743172 -0.02249
C_ C_ 0.935761 0.338943 0.755695 -0.02249
C_ C_ 0.733615 0.465751 0.735465 -0.02249
C_ C_ 0.98503 0.455513 0.760773 -0.02249
C_ C_ 0.706145 0.412697 0.776369 -0.11473
C_ C_ 0.960276 0.395042 0.796794 -0.11473
C_ C_ 0.696568 0.363986 0.705636 -0.11473
C_ C_ 0.944388 0.358718 0.71912 -0.11473
C_ C_ 0.686936 0.37684 0.778442 -0.11473
C_ C_ 0.940989 0.360395 0.794786 -0.11473
C_ C_ 0.717619 0.425515 0.737359 -0.02249
C_ C_ 0.966268 0.416674 0.76023 -0.02249
C_ C_ 0.667555 0.309603 0.747536 0.6875
C_ C_ 0.916549 0.302056 0.754398 0.6875
C_ C_ 0.710569 0.404385 0.701638 -0.11473
C_ C_ 0.962019 0.396893 0.721166 -0.11473
C_ C_ 0.689014 0.153214 0.744101 -0.02249
C_ C_ 0.933822 0.154634 0.750128 -0.02249
C_ C_ 0.736129 0.0371794 0.743758 -0.02249
C_ C_ 0.98356 0.0409653 0.743502 -0.02249
C_ C_ 0.716423 0.0980921 0.78236 -0.11473
C_ C_ 0.955709 0.0948434 0.787371 -0.11473
C_ C_ 0.692681 0.130348 0.705685 -0.11473
C_ C_ 0.946229 0.142577 0.712071 -0.11473
C_ C_ 0.701715 0.135755 0.782288 -0.11473
C_ C_ 0.938131 0.129904 0.787021 -0.11473
C_ C_ 0.72196 0.0796027 0.744508 -0.02249
C_ C_ 0.967536 0.0814512 0.74847 -0.02249
C_ C_ 0.669083 0.190998 0.743326 0.6875
C_ C_ 0.910765 0.189177 0.750016 0.6875
C_ C_ 0.710714 0.0970967 0.706991 -0.11473
C_ C_ 0.963042 0.105913 0.712014 -0.11473
C_ C_ 0.571652 0.148399 0.742571 -0.02249
C_ C_ 0.814611 0.150046 0.752759 -0.02249
C_ C_ 0.516105 0.0398592 0.749312 -0.02249
C_ C_ 0.768146 0.0339489 0.748659 -0.02249
C_ C_ 0.548388 0.0869054 0.707552 -0.11473
C_ C_ 0.794272 0.0924329 0.71518 -0.11473
C_ C_ 0.552814 0.140136 0.777616 -0.11473
C_ C_ 0.809118 0.129681 0.790225 -0.11473
C_ C_ 0.566377 0.121955 0.706819 -0.11473
C_ C_ 0.807906 0.131081 0.7157 -0.11473
C_ C_ 0.532827 0.0772642 0.744488 -0.02249
C_ C_ 0.787513 0.0714764 0.751483 -0.02249
C_ C_ 0.589804 0.188092 0.739194 0.6875
C_ C_ 0.832429 0.189806 0.749772 0.6875
C_ C_ 0.537152 0.102592 0.781521 -0.11473
C_ C_ 0.796211 0.0892522 0.788499 -0.11473
C_ C_ 0.627258 0.281797 0.872221 0.17695
C_ C_ 0.877935 0.217492 0.873665 0.17695
C_ C_ 0.62953 0.208251 0.868761 0.17695
C_ C_ 0.867668 0.289355 0.877667 0.17695
C_ C_ 0.628591 0.207106 0.912834 -0.11473
C_ C_ 0.867114 0.287038 0.922186 -0.11473
C_ C_ 0.62963 0.242766 0.937544 0.23465
C_ C_ 0.874798 0.250556 0.942286 0.23465
C_ C_ 0.629334 0.280404 0.916702 -0.11473
C_ C_ 0.878294 0.214178 0.917679 -0.11473
C_ C_ 0.637329 0.290378 0.624195 0.17695
C_ C_ 0.905813 0.248241 0.63118 0.17695
C_ C_ 0.627768 0.217205 0.617823 0.17695
C_ C_ 0.853382 0.244776 0.618902 0.17695
C_ C_ 0.62733 0.220051 0.573237 -0.11473
C_ C_ 0.856804 0.244214 0.575494 -0.11473
C_ C_ 0.634842 0.259439 0.555139 0.23465
C_ C_ 0.885559 0.247995 0.559643 0.23465
C_ C_ 0.637832 0.292823 0.57985 -0.11473
C_ C_ 0.910222 0.249223 0.587074 -0.11473
C_ C_ 0.530326 0.495617 0.743503 0.05793
C_ C_ 0.780659 0.50325 0.743762 0.05793
C_ C_ 0.718553 0.00202335 0.748127 0.05793
C_ C_ 0.967096 0.00268536 0.739426 0.05793
Br Br 0.572292 0.493689 0.728262 -0.17191
Br Br 0.823742 0.505189 0.758455 -0.17191
Br Br 0.675283 0.0079579 0.754762 -0.17191
Br Br 0.924474 0.00411171 0.731784 -0.17191
N_ N_ 0.628359 0.245702 0.849486 -0.272
N_ N_ 0.873499 0.253786 0.854295 -0.272
N_ N_ 0.630042 0.240662 0.982588 -0.12501
N_ N_ 0.880677 0.249015 0.98533 -0.12501
N_ N_ 0.632527 0.251913 0.641254 -0.272
N_ N_ 0.877561 0.250477 0.64393 -0.272
N_ N_ 0.636786 0.264892 0.510452 -0.12501
N_ N_ 0.891415 0.248842 0.514244 -0.12501
O_ O_ 0.595564 0.290301 0.710811 -0.60745
O_ O_ 0.841256 0.291036 0.710783 -0.60745
O_ O_ 0.598361 0.292051 0.778471 -0.60745
O_ O_ 0.846473 0.300789 0.777563 -0.60745
O_ O_ 0.659317 0.295492 0.782529 -0.60745
O_ O_ 0.909771 0.282811 0.786885 -0.60745
O_ O_ 0.659046 0.290499 0.714583 -0.60745
O_ O_ 0.90351 0.293744 0.717654 -0.60745
O_ O_ 0.658901 0.203854 0.776957 -0.60745
O_ O_ 0.900082 0.202057 0.784444 -0.60745
O_ O_ 0.661442 0.20863 0.710236 -0.60745
O_ O_ 0.904157 0.20644 0.71558 -0.60745
O_ O_ 0.598081 0.202014 0.704776 -0.60745
O_ O_ 0.843979 0.202027 0.715412 -0.60745
O_ O_ 0.60123 0.202964 0.772818 -0.60745
O_ O_ 0.836854 0.211108 0.782551 -0.60745
Zn Zn 0.625189 0.75134 0.281448 0.9476
Zn Zn 0.873556 0.751531 0.284528 0.9476
Zn Zn 0.62396 0.749269 0.212754 0.9476
Zn Zn 0.873972 0.753059 0.21455 0.9476
H_ H_ 0.523858 0.913779 0.18374 0.10932
H_ H_ 0.78418 0.912767 0.175136 0.10932
H_ H_ 0.572941 0.857909 0.31494 0.10932
H_ H_ 0.811879 0.857754 0.315824 0.10932
H_ H_ 0.556237 0.851545 0.180549 0.10932
H_ H_ 0.806948 0.847531 0.178998 0.10932
H_ H_ 0.550948 0.928461 0.312042 0.10932
H_ H_ 0.779019 0.917381 0.308824 0.10932
H_ H_ 0.703948 0.927451 0.308716 0.10932
H_ H_ 0.962495 0.928039 0.313407 0.10932
H_ H_ 0.698354 0.842937 0.180408 0.10932
H_ H_ 0.93295 0.851728 0.18669 0.10932
H_ H_ 0.671195 0.86684 0.308124 0.10932
H_ H_ 0.925928 0.866529 0.314164 0.10932
H_ H_ 0.717092 0.912018 0.178042 0.10932
H_ H_ 0.96417 0.913057 0.179314 0.10932
H_ H_ 0.727221 0.592596 0.308972 0.10932
H_ H_ 0.953587 0.577467 0.312432 0.10932
H_ H_ 0.676544 0.643029 0.181832 0.10932
H_ H_ 0.947473 0.65949 0.181643 0.10932
H_ H_ 0.693296 0.647355 0.314574 0.10932
H_ H_ 0.927697 0.645656 0.310776 0.10932
H_ H_ 0.7064 0.576903 0.1789 0.10932
H_ H_ 0.974097 0.589294 0.182242 0.10932
H_ H_ 0.532547 0.584278 0.182507 0.10932
H_ H_ 0.767718 0.59746 0.18949 0.10932
H_ H_ 0.563944 0.651093 0.315992 0.10932
H_ H_ 0.831642 0.629627 0.310541 0.10932
H_ H_ 0.560711 0.646261 0.181509 0.10932
H_ H_ 0.794636 0.664684 0.186787 0.10932
H_ H_ 0.532144 0.586569 0.316635 0.10932
H_ H_ 0.795836 0.573164 0.310441 0.10932
H_ H_ 0.616652 0.69209 0.362175 0.10932
H_ H_ 0.873109 0.817467 0.357942 0.10932
H_ H_ 0.638918 0.817029 0.351003 0.10932
H_ H_ 0.872469 0.687634 0.361656 0.10932
H_ H_ 0.637363 0.829095 0.4277 0.10932
H_ H_ 0.869396 0.69019 0.438502 0.10932
H_ H_ 0.608084 0.699447 0.437011 0.10932
H_ H_ 0.876751 0.822307 0.432508 0.10932
H_ H_ 0.6301 0.685808 0.145524 0.10932
H_ H_ 0.859571 0.688315 0.133442 0.10932
H_ H_ 0.615829 0.812286 0.136716 0.10932
H_ H_ 0.878202 0.819261 0.144671 0.10932
H_ H_ 0.623295 0.810552 0.0573537 0.10932
H_ H_ 0.881775 0.827593 0.0709639 0.10932
H_ H_ 0.63838 0.676947 0.066187 0.10932
H_ H_ 0.875512 0.691923 0.0581439 0.10932
C_ C_ 0.567469 0.848487 0.24707 -0.02249
C_ C_ 0.812643 0.846633 0.24722 -0.02249
C_ C_ 0.514826 0.963295 0.247937 -0.02249
C_ C_ 0.764605 0.962356 0.244112 -0.02249
C_ C_ 0.535367 0.901506 0.212588 -0.11473
C_ C_ 0.787391 0.900156 0.205863 -0.11473
C_ C_ 0.563344 0.869887 0.286073 -0.11473
C_ C_ 0.804163 0.867072 0.284595 -0.11473
C_ C_ 0.553831 0.866624 0.210177 -0.11473
C_ C_ 0.804769 0.864927 0.208373 -0.11473
C_ C_ 0.532067 0.922911 0.250256 -0.02249
C_ C_ 0.778944 0.921139 0.242455 -0.02249
C_ C_ 0.587061 0.81047 0.243975 0.6875
C_ C_ 0.835781 0.812094 0.250225 0.6875
C_ C_ 0.547599 0.908198 0.286489 -0.11473
C_ C_ 0.785846 0.901883 0.281722 -0.11473
C_ C_ 0.685083 0.845947 0.246708 -0.02249
C_ C_ 0.931484 0.851418 0.251414 -0.02249
C_ C_ 0.732925 0.963206 0.240466 -0.02249
C_ C_ 0.982199 0.965303 0.247255 -0.02249
C_ C_ 0.70288 0.90835 0.281377 -0.11473
C_ C_ 0.95527 0.91154 0.286391 -0.11473
C_ C_ 0.697966 0.859662 0.210114 -0.11473
C_ C_ 0.94176 0.866909 0.213752 -0.11473
C_ C_ 0.687695 0.870989 0.282893 -0.11473
C_ C_ 0.937713 0.875437 0.287033 -0.11473
C_ C_ 0.714453 0.923835 0.244549 -0.02249
C_ C_ 0.96364 0.926837 0.247532 -0.02249
C_ C_ 0.66542 0.808771 0.247067 0.6875
C_ C_ 0.912289 0.812712 0.250797 0.6875
C_ C_ 0.711475 0.900097 0.208609 -0.11473
C_ C_ 0.95688 0.903752 0.210844 -0.11473
C_ C_ 0.684807 0.654421 0.246427 -0.02249
C_ C_ 0.935424 0.655901 0.247307 -0.02249
C_ C_ 0.733421 0.538295 0.243501 -0.02249
C_ C_ 0.984843 0.539956 0.254266 -0.02249
C_ C_ 0.7188 0.605254 0.279039 -0.11473
C_ C_ 0.953608 0.596236 0.284324 -0.11473
C_ C_ 0.688419 0.631076 0.209474 -0.11473
C_ C_ 0.948953 0.640811 0.209749 -0.11473
C_ C_ 0.701227 0.640374 0.282767 -0.11473
C_ C_ 0.937863 0.633512 0.283457 -0.11473
C_ C_ 0.717523 0.579206 0.244838 -0.02249
C_ C_ 0.968377 0.581367 0.249218 -0.02249
C_ C_ 0.664732 0.691587 0.248224 0.6875
C_ C_ 0.915488 0.692813 0.247385 0.6875
C_ C_ 0.704151 0.594885 0.208131 -0.11473
C_ C_ 0.965352 0.603224 0.211317 -0.11473
C_ C_ 0.562616 0.656706 0.248962 -0.02249
C_ C_ 0.817187 0.653275 0.246758 -0.02249
C_ C_ 0.513162 0.539285 0.250603 -0.02249
C_ C_ 0.766137 0.539214 0.244306 -0.02249
C_ C_ 0.53928 0.597811 0.211635 -0.11473
C_ C_ 0.782367 0.605149 0.213055 -0.11473
C_ C_ 0.554431 0.637417 0.28754 -0.11473
C_ C_ 0.815809 0.62768 0.282693 -0.11473
C_ C_ 0.554162 0.634686 0.212054 -0.11473
C_ C_ 0.799442 0.641923 0.212218 -0.11473
C_ C_ 0.528936 0.580711 0.250313 -0.02249
C_ C_ 0.782201 0.578712 0.247341 -0.02249
C_ C_ 0.582827 0.692845 0.250433 0.6875
C_ C_ 0.833961 0.693127 0.247839 0.6875
C_ C_ 0.536628 0.601247 0.287992 -0.11473
C_ C_ 0.796301 0.593625 0.284043 -0.11473
C_ C_ 0.618093 0.722818 0.375441 0.17695
C_ C_ 0.871811 0.788698 0.375007 0.17695
C_ C_ 0.632737 0.792087 0.369771 0.17695
C_ C_ 0.872643 0.717043 0.377914 0.17695
C_ C_ 0.631855 0.797858 0.413664 -0.11473
C_ C_ 0.873463 0.71779 0.421677 -0.11473
C_ C_ 0.623326 0.764053 0.440221 0.23465
C_ C_ 0.872738 0.754481 0.444478 0.23465
C_ C_ 0.61705 0.725362 0.420603 -0.11473
C_ C_ 0.874568 0.790254 0.418567 -0.11473
C_ C_ 0.628622 0.712444 0.123989 0.17695
C_ C_ 0.868082 0.718726 0.119252 0.17695
C_ C_ 0.622297 0.78388 0.120186 0.17695
C_ C_ 0.875983 0.790954 0.12551 0.17695
C_ C_ 0.626515 0.783093 0.0769148 -0.11473
C_ C_ 0.877354 0.794802 0.0814008 -0.11473
C_ C_ 0.629578 0.743053 0.0560921 0.23465
C_ C_ 0.874913 0.7609 0.0549176 0.23465
C_ C_ 0.634587 0.707791 0.0818478 -0.11473
C_ C_ 0.871493 0.720652 0.075453 -0.11473
C_ C_ 0.531122 0.999522756 0.255209 0.05793
C_ C_ 0.7822 0.99782515 0.242386 0.05793
C_ C_ 0.718603 0.502023 0.252315 0.05793
C_ C_ 0.968343 0.50134 0.250309 0.05793
Br Br 0.574868 0.999007889 0.258581 -0.17191
Br Br 0.826457 0.996574 0.245153 -0.17191
Br Br 0.67507 0.505887 0.25876 -0.17191
Br Br 0.92516 0.501146 0.242362 -0.17191
N_ N_ 0.625853 0.755838 0.352004 -0.272
N_ N_ 0.870191 0.752479 0.354839 -0.272
N_ N_ 0.625945 0.767508 0.484362 -0.12501
N_ N_ 0.869112 0.756573 0.488526 -0.12501
N_ N_ 0.623339 0.74835 0.142988 -0.272
N_ N_ 0.875097 0.752669 0.144045 -0.272
N_ N_ 0.633302 0.738355 0.0110512 -0.12501
N_ N_ 0.878743 0.766366 0.0104068 -0.12501
O_ O_ 0.591302 0.791976 0.20962 -0.60745
O_ O_ 0.843384 0.79379 0.217045 -0.60745
O_ O_ 0.594958 0.793211 0.278314 -0.60745
O_ O_ 0.840583 0.794206 0.285842 -0.60745
O_ O_ 0.656486 0.793769 0.280862 -0.60745
O_ O_ 0.901785 0.798199 0.28499 -0.60745
O_ O_ 0.657032 0.790707 0.213493 -0.60745
O_ O_ 0.903917 0.798158 0.215013 -0.60745
O_ O_ 0.653872 0.705017 0.281715 -0.60745
O_ O_ 0.906937 0.710718 0.281101 -0.60745
O_ O_ 0.655157 0.706074 0.214366 -0.60745
O_ O_ 0.906088 0.706887 0.21262 -0.60745
O_ O_ 0.589756 0.711648 0.216021 -0.60745
O_ O_ 0.842953 0.710393 0.215612 -0.60745
O_ O_ 0.592365 0.707975 0.285114 -0.60745
O_ O_ 0.843883 0.702898 0.283231 -0.60745
Zn Zn 0.62632 0.749763 0.781872 0.9476
Zn Zn 0.878216 0.749269 0.784584 0.9476
Zn Zn 0.622186 0.745397 0.712501 0.9476
Zn Zn 0.876518 0.747721 0.716516 0.9476
H_ H_ 0.542385 0.929304 0.680073 0.10932
H_ H_ 0.782196 0.914217 0.679598 0.10932
H_ H_ 0.550829 0.842191 0.807471 0.10932
H_ H_ 0.822257 0.854685 0.813527 0.10932
H_ H_ 0.579466 0.866388 0.680591 0.10932
H_ H_ 0.814727 0.853171 0.679395 0.10932
H_ H_ 0.521044 0.904178 0.805442 0.10932
H_ H_ 0.781023 0.907992 0.815679 0.10932
H_ H_ 0.714039 0.914246 0.813745 0.10932
H_ H_ 0.957313 0.926249 0.816568 0.10932
H_ H_ 0.673495 0.859801 0.679982 0.10932
H_ H_ 0.94646 0.841563 0.68425 0.10932
H_ H_ 0.687314 0.848371 0.81197 0.10932
H_ H_ 0.930238 0.862311 0.816987 0.10932
H_ H_ 0.703364 0.928656 0.677525 0.10932
H_ H_ 0.974832 0.91032 0.684461 0.10932
H_ H_ 0.707343 0.569708 0.805413 0.10932
H_ H_ 0.980362 0.594918 0.817922 0.10932
H_ H_ 0.688006 0.660013 0.677742 0.10932
H_ H_ 0.925496 0.636334 0.693485 0.10932
H_ H_ 0.678484 0.632496 0.811904 0.10932
H_ H_ 0.951472 0.655732 0.820696 0.10932
H_ H_ 0.718396 0.593413 0.67533 0.10932
H_ H_ 0.951253 0.572894 0.692408 0.10932
H_ H_ 0.519215 0.590567 0.6807 0.10932
H_ H_ 0.803451 0.57293 0.676741 0.10932
H_ H_ 0.581462 0.625796 0.805043 0.10932
H_ H_ 0.811697 0.645855 0.810338 0.10932
H_ H_ 0.542408 0.661495 0.685644 0.10932
H_ H_ 0.831335 0.637954 0.677664 0.10932
H_ H_ 0.551977 0.561092 0.805392 0.10932
H_ H_ 0.775942 0.589909 0.803145 0.10932
H_ H_ 0.623905 0.688749 0.857567 0.10932
H_ H_ 0.875203 0.678213 0.859909 0.10932
H_ H_ 0.62533 0.819197 0.853568 0.10932
H_ H_ 0.880238 0.807386 0.852908 0.10932
H_ H_ 0.621995 0.826059 0.926864 0.10932
H_ H_ 0.88084 0.809776 0.935301 0.10932
H_ H_ 0.620711 0.692191 0.935412 0.10932
H_ H_ 0.86202 0.680785 0.932365 0.10932
H_ H_ 0.62514 0.67844 0.644641 0.10932
H_ H_ 0.876187 0.800745 0.640379 0.10932
H_ H_ 0.62546 0.810801 0.63374 0.10932
H_ H_ 0.880391 0.67431 0.647779 0.10932
H_ H_ 0.630442 0.807545 0.558367 0.10932
H_ H_ 0.889816 0.671933 0.570594 0.10932
H_ H_ 0.625274 0.673303 0.566271 0.10932
H_ H_ 0.872422 0.798627 0.562029 0.10932
C_ C_ 0.56527 0.845347 0.741809 -0.02249
C_ C_ 0.816619 0.844973 0.748434 -0.02249
C_ C_ 0.514599 0.963436 0.746391 -0.02249
C_ C_ 0.763357 0.958484 0.747163 -0.02249
C_ C_ 0.548111 0.912643 0.70825 -0.11473
C_ C_ 0.78951 0.899792 0.70964 -0.11473
C_ C_ 0.550653 0.859057 0.778375 -0.11473
C_ C_ 0.80882 0.862374 0.785748 -0.11473
C_ C_ 0.564553 0.873387 0.706565 -0.11473
C_ C_ 0.808831 0.866151 0.710683 -0.11473
C_ C_ 0.531206 0.923071 0.745066 -0.02249
C_ C_ 0.780429 0.917879 0.747365 -0.02249
C_ C_ 0.585668 0.80831 0.742053 0.6875
C_ C_ 0.838386 0.809099 0.747205 0.6875
C_ C_ 0.534331 0.896918 0.779171 -0.11473
C_ C_ 0.788178 0.896229 0.786087 -0.11473
C_ C_ 0.679036 0.848491 0.744545 -0.02249
C_ C_ 0.936134 0.846325 0.751301 -0.02249
C_ C_ 0.73063 0.961573 0.74809 -0.02249
C_ C_ 0.982255 0.96435 0.744976 -0.02249
C_ C_ 0.70582 0.901978 0.783557 -0.11473
C_ C_ 0.954047 0.909448 0.786698 -0.11473
C_ C_ 0.681959 0.873994 0.708549 -0.11473
C_ C_ 0.946434 0.861869 0.712301 -0.11473
C_ C_ 0.689779 0.865015 0.782818 -0.11473
C_ C_ 0.941059 0.870843 0.788517 -0.11473
C_ C_ 0.710636 0.924854 0.745795 -0.02249
C_ C_ 0.963781 0.925422 0.74718 -0.02249
C_ C_ 0.663431 0.808043 0.743391 0.6875
C_ C_ 0.91506 0.810571 0.751427 0.6875
C_ C_ 0.699411 0.910514 0.7075 -0.11473
C_ C_ 0.961708 0.899805 0.710264 -0.11473
C_ C_ 0.683079 0.653116 0.747494 -0.02249
C_ C_ 0.934743 0.651796 0.755397 -0.02249
C_ C_ 0.732929 0.540052 0.736123 -0.02249
C_ C_ 0.984295 0.532836 0.761689 -0.02249
C_ C_ 0.703618 0.588976 0.777905 -0.11473
C_ C_ 0.967892 0.601188 0.79244 -0.11473
C_ C_ 0.694822 0.641714 0.706735 -0.11473
C_ C_ 0.938357 0.627298 0.721261 -0.11473
C_ C_ 0.686669 0.624639 0.78211 -0.11473
C_ C_ 0.950266 0.636752 0.791516 -0.11473
C_ C_ 0.71558 0.578934 0.739692 -0.02249
C_ C_ 0.966002 0.57316 0.758351 -0.02249
C_ C_ 0.664296 0.690686 0.752131 0.6875
C_ C_ 0.92005 0.692862 0.754001 0.6875
C_ C_ 0.711137 0.604492 0.704782 -0.11473
C_ C_ 0.95219 0.588693 0.721314 -0.11473
C_ C_ 0.563692 0.650214 0.745786 -0.02249
C_ C_ 0.822021 0.648284 0.745584 -0.02249
C_ C_ 0.515732 0.535651 0.743547 -0.02249
C_ C_ 0.764801 0.541204 0.737312 -0.02249
C_ C_ 0.532082 0.600388 0.708052 -0.11473
C_ C_ 0.802265 0.589233 0.705716 -0.11473
C_ C_ 0.565024 0.623142 0.780676 -0.11473
C_ C_ 0.806837 0.63311 0.78109 -0.11473
C_ C_ 0.546079 0.640573 0.711217 -0.11473
C_ C_ 0.819118 0.626369 0.706797 -0.11473
C_ C_ 0.531288 0.575564 0.743465 -0.02249
C_ C_ 0.781851 0.58029 0.737275 -0.02249
C_ C_ 0.584085 0.688313 0.746516 0.6875
C_ C_ 0.842659 0.685029 0.747649 0.6875
C_ C_ 0.549738 0.585174 0.778374 -0.11473
C_ C_ 0.785288 0.602415 0.776008 -0.11473
C_ C_ 0.625147 0.718447 0.875525 0.17695
C_ C_ 0.873146 0.707188 0.874686 0.17695
C_ C_ 0.625397 0.790728 0.871315 0.17695
C_ C_ 0.87559 0.780473 0.870953 0.17695
C_ C_ 0.626608 0.794943 0.914327 -0.11473
C_ C_ 0.876144 0.781108 0.91665 -0.11473
C_ C_ 0.626854 0.758795 0.939114 0.23465
C_ C_ 0.872145 0.74506 0.939685 0.23465
C_ C_ 0.625266 0.720071 0.919032 -0.11473
C_ C_ 0.87033 0.707939 0.917633 -0.11473
C_ C_ 0.624937 0.706871 0.623349 0.17695
C_ C_ 0.873558 0.772411 0.624384 0.17695
C_ C_ 0.62449 0.780152 0.618752 0.17695
C_ C_ 0.874261 0.700456 0.627083 0.17695
C_ C_ 0.626531 0.779159 0.574556 -0.11473
C_ C_ 0.877692 0.696728 0.583247 -0.11473
C_ C_ 0.62742 0.739652 0.553577 0.23465
C_ C_ 0.875335 0.732769 0.558464 0.23465
C_ C_ 0.623823 0.703387 0.579522 -0.11473
C_ C_ 0.873426 0.771054 0.579884 -0.11473
C_ C_ 0.531214 0.00196208 0.747381 0.05793
C_ C_ 0.781432 -0.005163000000000029 0.750175 0.05793
C_ C_ 0.717727 0.501794 0.736344 0.05793
C_ C_ 0.970524 0.49464 0.767019 0.05793
Br Br 0.573814 -0.0033290000000000264 0.75376 -0.17191
Br Br 0.824104 0.992244 0.753666 -0.17191
Br Br 0.675178 0.50129 0.727958 -0.17191
Br Br 0.927092 0.494632 0.77593 -0.17191
N_ N_ 0.626509 0.753494 0.852689 -0.272
N_ N_ 0.875213 0.743491 0.851224 -0.272
N_ N_ 0.623528 0.763903 0.984008 -0.12501
N_ N_ 0.864664 0.746365 0.983193 -0.12501
N_ N_ 0.624964 0.745047 0.641895 -0.272
N_ N_ 0.87378 0.738938 0.647091 -0.272
N_ N_ 0.624858 0.737251 0.508466 -0.12501
N_ N_ 0.880138 0.730853 0.514283 -0.12501
O_ O_ 0.591173 0.787127 0.709586 -0.60745
O_ O_ 0.843775 0.791305 0.713767 -0.60745
O_ O_ 0.596264 0.796626 0.777756 -0.60745
O_ O_ 0.845682 0.790705 0.78188 -0.60745
O_ O_ 0.658944 0.789809 0.778265 -0.60745
O_ O_ 0.908528 0.794477 0.78582 -0.60745
O_ O_ 0.650974 0.794633 0.70942 -0.60745
O_ O_ 0.902308 0.79787 0.718788 -0.60745
O_ O_ 0.65507 0.704127 0.786952 -0.60745
O_ O_ 0.909234 0.705879 0.789147 -0.60745
O_ O_ 0.654212 0.706401 0.718428 -0.60745
O_ O_ 0.909425 0.70478 0.719038 -0.60745
O_ O_ 0.594634 0.701122 0.711785 -0.60745
O_ O_ 0.853931 0.700443 0.715031 -0.60745
O_ O_ 0.593267 0.704197 0.781269 -0.60745
O_ O_ 0.851403 0.700799 0.783488 -0.60745
_cell_length_a 44.444
_cell_length_b 32.3360000049186
_cell_length_c 31.843999878906452
_cell_angle_alpha 89.99799923859553
_cell_angle_beta 91.13600050494348
_cell_angle_gamma 89.9990006550086
_symmetry_space_group_name_H-M         'P 1'
_symmetry_Int_Tables_number            1
loop_
_symmetry_equiv_pos_as_xyz
   'x, y, z'
                         
loop_
_atom_site_label
_atom_site_type_symbol
_atom_site_fract_x 
_atom_site_fract_y
_atom_site_fract_z
_atom_site_charge
Zn Zn 0.12326 0.25327 0.285391 0.9476
Zn Zn 0.37468 0.250195 0.287427 0.9476
Zn Zn 0.120548 0.252871 0.214999 0.9476
Zn Zn 0.373005 0.249294 0.215137 0.9476
H_ H_ 0.0454492 0.430811 0.192501 0.10932
H_ H_ 0.296536 0.427408 0.18491 0.10932
H_ H_ 0.0545807 0.34434 0.31911 0.10932
H_ H_ 0.29745 0.339799 0.31308 0.10932
H_ H_ 0.0778034 0.368609 0.189806 0.10932
H_ H_ 0.332845 0.368897 0.191983 0.10932
H_ H_ 0.0245284 0.407429 0.318798 0.10932
H_ H_ 0.273528 0.408562 0.314725 0.10932
H_ H_ 0.212777 0.418938 0.311074 0.10932
H_ H_ 0.464857 0.419428 0.314744 0.10932
H_ H_ 0.179856 0.356541 0.177004 0.10932
H_ H_ 0.436686 0.34179 0.187785 0.10932
H_ H_ 0.176886 0.362396 0.312267 0.10932
H_ H_ 0.433842 0.36035 0.318553 0.10932
H_ H_ 0.218211 0.408053 0.176121 0.10932
H_ H_ 0.458421 0.412541 0.18046 0.10932
H_ H_ 0.211062 0.0900816 0.320822 0.10932
H_ H_ 0.470929 0.0871209 0.324205 0.10932
H_ H_ 0.189628 0.149377 0.180503 0.10932
H_ H_ 0.4331 0.145441 0.189293 0.10932
H_ H_ 0.18947 0.156641 0.314664 0.10932
H_ H_ 0.443891 0.157756 0.318966 0.10932
H_ H_ 0.210802 0.0809604 0.184733 0.10932
H_ H_ 0.451743 0.0743612 0.193 0.10932
H_ H_ 0.0268118 0.0916161 0.183926 0.10932
H_ H_ 0.290062 0.0739887 0.188338 0.10932
H_ H_ 0.0727515 0.142464 0.317401 0.10932
H_ H_ 0.295441 0.161115 0.318488 0.10932
H_ H_ 0.0626416 0.148869 0.183933 0.10932
H_ H_ 0.321461 0.141202 0.189093 0.10932
H_ H_ 0.0486196 0.0720685 0.315212 0.10932
H_ H_ 0.269842 0.0927326 0.317668 0.10932
H_ H_ 0.118205 0.196072 0.365883 0.10932
H_ H_ 0.377184 0.182652 0.355793 0.10932
H_ H_ 0.140682 0.32145 0.353942 0.10932
H_ H_ 0.368265 0.312142 0.364278 0.10932
H_ H_ 0.135751 0.33216 0.430688 0.10932
H_ H_ 0.359035 0.308588 0.435779 0.10932
H_ H_ 0.119833 0.20111 0.444583 0.10932
H_ H_ 0.366495 0.176148 0.433207 0.10932
H_ H_ 0.141701 0.308834 0.13956 0.10932
H_ H_ 0.394635 0.195583 0.135723 0.10932
H_ H_ 0.113569 0.183762 0.1449 0.10932
H_ H_ 0.356763 0.316797 0.141892 0.10932
H_ H_ 0.117941 0.177628 0.0674606 0.10932
H_ H_ 0.355831 0.321036 0.0625427 0.10932
H_ H_ 0.144934 0.307149 0.060593 0.10932
H_ H_ 0.3888 0.197613 0.0549499 0.10932
C_ C_ 0.0681666 0.350667 0.254 -0.02249
C_ C_ 0.314598 0.346324 0.249895 -0.02249
C_ C_ 0.0158466 0.463548 0.259385 -0.02249
C_ C_ 0.264113 0.461238 0.25379 -0.02249
C_ C_ 0.047549 0.411421 0.219128 -0.11473
C_ C_ 0.297337 0.409318 0.214108 -0.11473
C_ C_ 0.0539905 0.363993 0.292224 -0.11473
C_ C_ 0.299737 0.359026 0.285765 -0.11473
C_ C_ 0.0665967 0.376588 0.218199 -0.11473
C_ C_ 0.315443 0.373652 0.215557 -0.11473
C_ C_ 0.0334068 0.422192 0.257397 -0.02249
C_ C_ 0.281527 0.421198 0.251713 -0.02249
C_ C_ 0.082206 0.309538 0.252267 0.6875
C_ C_ 0.333761 0.309606 0.250868 0.6875
C_ C_ 0.0369203 0.398858 0.292977 -0.11473
C_ C_ 0.285382 0.39833 0.288784 -0.11473
C_ C_ 0.178531 0.349876 0.245882 -0.02249
C_ C_ 0.43294 0.345455 0.253351 -0.02249
C_ C_ 0.232735 0.46284 0.247618 -0.02249
C_ C_ 0.483319 0.461086 0.245544 -0.02249
C_ C_ 0.206874 0.405236 0.282045 -0.11473
C_ C_ 0.460086 0.401675 0.286411 -0.11473
C_ C_ 0.189529 0.366566 0.206812 -0.11473
C_ C_ 0.442335 0.35918 0.214602 -0.11473
C_ C_ 0.187054 0.3715 0.283399 -0.11473
C_ C_ 0.442276 0.367373 0.28946 -0.11473
C_ C_ 0.217809 0.420936 0.244944 -0.02249
C_ C_ 0.467464 0.419847 0.247202 -0.02249
C_ C_ 0.159725 0.313371 0.248154 0.6875
C_ C_ 0.414056 0.308622 0.256048 0.6875
C_ C_ 0.208727 0.400999 0.205747 -0.11473
C_ C_ 0.455523 0.399067 0.21009 -0.11473
C_ C_ 0.182255 0.157128 0.246415 -0.02249
C_ C_ 0.431896 0.152797 0.255125 -0.02249
C_ C_ 0.229842 0.0392687 0.25573 -0.02249
C_ C_ 0.483576 0.0379865 0.25428 -0.02249
C_ C_ 0.204964 0.100774 0.289266 -0.11473
C_ C_ 0.462905 0.100999 0.294445 -0.11473
C_ C_ 0.1907 0.134391 0.210623 -0.11473
C_ C_ 0.437716 0.13095 0.217988 -0.11473
C_ C_ 0.193053 0.141368 0.286169 -0.11473
C_ C_ 0.445341 0.137778 0.292554 -0.11473
C_ C_ 0.210921 0.0779328 0.252628 -0.02249
C_ C_ 0.46619 0.0781052 0.256421 -0.02249
C_ C_ 0.160018 0.19257 0.247707 0.6875
C_ C_ 0.411739 0.189797 0.256563 0.6875
C_ C_ 0.201072 0.0935414 0.21255 -0.11473
C_ C_ 0.453002 0.0940257 0.220202 -0.11473
C_ C_ 0.0639912 0.155149 0.252128 -0.02249
C_ C_ 0.31219 0.152409 0.254373 -0.02249
C_ C_ 0.0159133 0.0390029 0.249075 -0.02249
C_ C_ 0.26251 0.0386448 0.255476 -0.02249
C_ C_ 0.0383286 0.101198 0.21282 -0.11473
C_ C_ 0.291585 0.0924326 0.217238 -0.11473
C_ C_ 0.0620204 0.131129 0.288326 -0.11473
C_ C_ 0.297191 0.139673 0.292112 -0.11473
C_ C_ 0.054776 0.13785 0.213855 -0.11473
C_ C_ 0.308468 0.130057 0.217994 -0.11473
C_ C_ 0.0342402 0.0784059 0.249286 -0.02249
C_ C_ 0.279807 0.0781293 0.254844 -0.02249
C_ C_ 0.0825943 0.192841 0.252462 0.6875
C_ C_ 0.33283 0.190788 0.252208 0.6875
C_ C_ 0.0481652 0.0924004 0.287389 -0.11473
C_ C_ 0.282471 0.101731 0.29114 -0.11473
C_ C_ 0.12086 0.226422 0.381086 0.17695
C_ C_ 0.374402 0.210312 0.376577 0.17695
C_ C_ 0.134381 0.295222 0.374112 0.17695
C_ C_ 0.365595 0.282885 0.37789 0.17695
C_ C_ 0.13174 0.302087 0.417825 -0.11473
C_ C_ 0.361892 0.280096 0.420843 -0.11473
C_ C_ 0.126821 0.268283 0.446077 0.23465
C_ C_ 0.363432 0.241714 0.44215 0.23465
C_ C_ 0.123097 0.228428 0.425987 -0.11473
C_ C_ 0.370615 0.207397 0.419538 -0.11473
C_ C_ 0.134353 0.281911 0.121926 0.17695
C_ C_ 0.386782 0.221381 0.120075 0.17695
C_ C_ 0.115934 0.213005 0.124708 0.17695
C_ C_ 0.364486 0.289832 0.12421 0.17695
C_ C_ 0.118665 0.208907 0.0811293 -0.11473
C_ C_ 0.362296 0.292522 0.0782707 -0.11473
C_ C_ 0.12624 0.243791 0.0568018 0.23465
C_ C_ 0.373633 0.259167 0.0543524 0.23465
C_ C_ 0.135216 0.280097 0.0775013 -0.11473
C_ C_ 0.384328 0.22367 0.075786 -0.11473
C_ C_ 0.0314151 0.501529 0.26737 0.05793
C_ C_ 0.278968 0.499657 0.25614 0.05793
C_ C_ 0.214221 0.00116992 0.259986 0.05793
C_ C_ 0.467438 1.00059 0.250931 0.05793
Br Br 0.0731268 0.500896 0.280139 -0.17191
Br Br 0.322833 0.498046 0.255201 -0.17191
Br Br 0.174568 0.00331414 0.288525 -0.17191
Br Br 0.42654 0.997098 0.269715 -0.17191
N_ N_ 0.127061 0.259035 0.356069 -0.272
N_ N_ 0.371674 0.248634 0.356957 -0.272
N_ N_ 0.133055 0.272443 0.490534 -0.12501
N_ N_ 0.356608 0.240657 0.485259 -0.12501
N_ N_ 0.120566 0.251244 0.143522 -0.272
N_ N_ 0.376749 0.255439 0.142812 -0.272
N_ N_ 0.129176 0.236937 0.0128524 -0.12501
N_ N_ 0.371027 0.26098 0.00922171 -0.12501
O_ O_ 0.0926637 0.298666 0.21761 -0.60745
O_ O_ 0.343179 0.293647 0.216133 -0.60745
O_ O_ 0.0914062 0.293506 0.285315 -0.60745
O_ O_ 0.34321 0.29591 0.285537 -0.60745
O_ O_ 0.152019 0.297876 0.282589 -0.60745
O_ O_ 0.408198 0.291563 0.291354 -0.60745
O_ O_ 0.151187 0.29664 0.21469 -0.60745
O_ O_ 0.402739 0.292576 0.221757 -0.60745
O_ O_ 0.152382 0.209219 0.284002 -0.60745
O_ O_ 0.404131 0.206663 0.290728 -0.60745
O_ O_ 0.151144 0.208328 0.213544 -0.60745
O_ O_ 0.403907 0.205938 0.221868 -0.60745
O_ O_ 0.0884073 0.210879 0.217331 -0.60745
O_ O_ 0.342059 0.202213 0.215919 -0.60745
O_ O_ 0.0935514 0.207838 0.28666 -0.60745
O_ O_ 0.344485 0.205985 0.285465 -0.60745
Zn Zn 0.12885 0.249232 0.785057 0.9476
Zn Zn 0.373499 0.250561 0.785375 0.9476
Zn Zn 0.131845 0.248234 0.717471 0.9476
Zn Zn 0.370999 0.252778 0.712672 0.9476
H_ H_ 0.0367884 0.418977 0.685949 0.10932
H_ H_ 0.2906 0.423559 0.69106 0.10932
H_ H_ 0.0614462 0.341434 0.817683 0.10932
H_ H_ 0.305878 0.343092 0.821135 0.10932
H_ H_ 0.074787 0.356853 0.684579 0.10932
H_ H_ 0.324935 0.364499 0.693785 0.10932
H_ H_ 0.0348383 0.405336 0.822728 0.10932
H_ H_ 0.283978 0.414082 0.822535 0.10932
H_ H_ 0.204961 0.430716 0.817332 0.10932
H_ H_ 0.481021 0.402583 0.809564 0.10932
H_ H_ 0.212295 0.338139 0.698538 0.10932
H_ H_ 0.419268 0.362205 0.6859 0.10932
H_ H_ 0.173729 0.365789 0.816298 0.10932
H_ H_ 0.455283 0.333069 0.808577 0.10932
H_ H_ 0.232905 0.409115 0.693921 0.10932
H_ H_ 0.449271 0.428023 0.68393 0.10932
H_ H_ 0.231443 0.0872097 0.821725 0.10932
H_ H_ 0.461528 0.0832387 0.8145 0.10932
H_ H_ 0.184993 0.13772 0.685278 0.10932
H_ H_ 0.438542 0.153332 0.68068 0.10932
H_ H_ 0.201423 0.153825 0.826199 0.10932
H_ H_ 0.429249 0.143671 0.814728 0.10932
H_ H_ 0.216482 0.0769301 0.69328 0.10932
H_ H_ 0.459197 0.0831095 0.682714 0.10932
H_ H_ 0.0442722 0.0743208 0.684051 0.10932
H_ H_ 0.287297 0.0817929 0.690829 0.10932
H_ H_ 0.0591901 0.155873 0.813812 0.10932
H_ H_ 0.318782 0.149222 0.819707 0.10932
H_ H_ 0.0838517 0.129928 0.690624 0.10932
H_ H_ 0.304914 0.146856 0.684756 0.10932
H_ H_ 0.0262159 0.0910916 0.813134 0.10932
H_ H_ 0.298429 0.0781241 0.823971 0.10932
H_ H_ 0.129121 0.315867 0.850644 0.10932
H_ H_ 0.366536 0.310277 0.862965 0.10932
H_ H_ 0.128073 0.18761 0.866126 0.10932
H_ H_ 0.378083 0.180124 0.84983 0.10932
H_ H_ 0.133459 0.193321 0.941491 0.10932
H_ H_ 0.384911 0.171802 0.9272 0.10932
H_ H_ 0.134775 0.325029 0.930649 0.10932
H_ H_ 0.362949 0.304199 0.937311 0.10932
H_ H_ 0.130243 0.18276 0.645271 0.10932
H_ H_ 0.365741 0.187883 0.642507 0.10932
H_ H_ 0.138425 0.31214 0.642716 0.10932
H_ H_ 0.378844 0.31459 0.639836 0.10932
H_ H_ 0.139731 0.312689 0.568895 0.10932
H_ H_ 0.373129 0.316288 0.562719 0.10932
H_ H_ 0.132781 0.179355 0.566915 0.10932
H_ H_ 0.365008 0.183216 0.561333 0.10932
C_ C_ 0.0718089 0.346021 0.751859 -0.02249
C_ C_ 0.314685 0.346977 0.755091 -0.02249
C_ C_ 0.0174765 0.456778 0.756601 -0.02249
C_ C_ 0.267297 0.462426 0.758371 -0.02249
C_ C_ 0.046032 0.403841 0.714597 -0.11473
C_ C_ 0.295132 0.407398 0.719134 -0.11473
C_ C_ 0.0564743 0.357014 0.788423 -0.11473
C_ C_ 0.303784 0.362584 0.793727 -0.11473
C_ C_ 0.0656215 0.368034 0.712454 -0.11473
C_ C_ 0.31082 0.371136 0.718888 -0.11473
C_ C_ 0.035317 0.418426 0.753737 -0.02249
C_ C_ 0.28204 0.421733 0.757182 -0.02249
C_ C_ 0.0876658 0.305027 0.751317 0.6875
C_ C_ 0.333331 0.308619 0.754675 0.6875
C_ C_ 0.0401865 0.394336 0.790766 -0.11473
C_ C_ 0.288851 0.399642 0.795013 -0.11473
C_ C_ 0.187615 0.348417 0.754303 -0.02249
C_ C_ 0.437283 0.342195 0.746401 -0.02249
C_ C_ 0.236454 0.464249 0.756457 -0.02249
C_ C_ 0.482018 0.459091 0.747577 -0.02249
C_ C_ 0.202825 0.413717 0.78958 -0.11473
C_ C_ 0.46758 0.394183 0.782942 -0.11473
C_ C_ 0.205986 0.360357 0.720754 -0.11473
C_ C_ 0.432455 0.371297 0.713162 -0.11473
C_ C_ 0.188482 0.374736 0.789147 -0.11473
C_ C_ 0.452984 0.355188 0.780887 -0.11473
C_ C_ 0.219272 0.426115 0.754096 -0.02249
C_ C_ 0.463731 0.421995 0.748847 -0.02249
C_ C_ 0.16963 0.310299 0.751216 0.6875
C_ C_ 0.414678 0.307843 0.747083 0.6875
C_ C_ 0.221054 0.399059 0.719471 -0.11473
C_ C_ 0.447568 0.408095 0.712866 -0.11473
C_ C_ 0.189659 0.153666 0.755385 -0.02249
C_ C_ 0.43206 0.154526 0.748195 -0.02249
C_ C_ 0.237332 0.0345194 0.760704 -0.02249
C_ C_ 0.482746 0.0404788 0.748127 -0.02249
C_ C_ 0.220321 0.100211 0.793932 -0.11473
C_ C_ 0.457878 0.0999079 0.786259 -0.11473
C_ C_ 0.194862 0.130181 0.717917 -0.11473
C_ C_ 0.444303 0.138543 0.710784 -0.11473
C_ C_ 0.204206 0.138126 0.794375 -0.11473
C_ C_ 0.440696 0.135844 0.786737 -0.11473
C_ C_ 0.221961 0.0765579 0.757988 -0.02249
C_ C_ 0.467346 0.081088 0.749098 -0.02249
C_ C_ 0.173453 0.19445 0.75473 0.6875
C_ C_ 0.40963 0.187647 0.747323 0.6875
C_ C_ 0.2112 0.0928091 0.720161 -0.11473
C_ C_ 0.457687 0.100329 0.710752 -0.11473
C_ C_ 0.0707783 0.149712 0.750673 -0.02249
C_ C_ 0.316616 0.152652 0.753219 -0.02249
C_ C_ 0.0154385 0.0387844 0.749857 -0.02249
C_ C_ 0.270294 0.0341235 0.7581 -0.02249
C_ C_ 0.0501215 0.0895899 0.713152 -0.11473
C_ C_ 0.294154 0.0951391 0.720786 -0.11473
C_ C_ 0.0561813 0.137443 0.787553 -0.11473
C_ C_ 0.314927 0.130632 0.791973 -0.11473
C_ C_ 0.0707008 0.123118 0.716157 -0.11473
C_ C_ 0.305815 0.132875 0.716122 -0.11473
C_ C_ 0.0335167 0.0786291 0.749097 -0.02249
C_ C_ 0.288804 0.0740816 0.759328 -0.02249
C_ C_ 0.0904844 0.188374 0.750502 0.6875
C_ C_ 0.331996 0.194124 0.750254 0.6875
C_ C_ 0.0386526 0.100805 0.785772 -0.11473
C_ C_ 0.299347 0.0927245 0.793993 -0.11473
C_ C_ 0.129105 0.292036 0.872344 0.17695
C_ C_ 0.372513 0.280991 0.876267 0.17695
C_ C_ 0.128206 0.218954 0.880525 0.17695
C_ C_ 0.377915 0.207617 0.869681 0.17695
C_ C_ 0.128473 0.22142 0.923236 -0.11473
C_ C_ 0.378166 0.202657 0.914636 -0.11473
C_ C_ 0.127619 0.261422 0.942184 0.23465
C_ C_ 0.376202 0.238071 0.941289 0.23465
C_ C_ 0.125356 0.297217 0.91696 -0.11473
C_ C_ 0.371045 0.27689 0.919768 -0.11473
C_ C_ 0.129193 0.211591 0.626809 0.17695
C_ C_ 0.367711 0.214794 0.622694 0.17695
C_ C_ 0.132123 0.284181 0.627659 0.17695
C_ C_ 0.374436 0.287238 0.622243 0.17695
C_ C_ 0.136526 0.282689 0.584154 -0.11473
C_ C_ 0.370452 0.287763 0.578973 -0.11473
C_ C_ 0.133416 0.245753 0.55996 0.23465
C_ C_ 0.368765 0.25083 0.556476 0.23465
C_ C_ 0.132148 0.208742 0.582541 -0.11473
C_ C_ 0.365417 0.214553 0.578764 -0.11473
C_ C_ 0.0328201 0.495552 0.7511 0.05793
C_ C_ 0.284429 0.499458 0.759856 0.05793
C_ C_ 0.221666 -0.003893999999999953 0.755867 0.05793
C_ C_ 0.467696 1.00275475 0.749642 0.05793
Br Br 0.0765461 0.497605 0.745409 -0.17191
Br Br 0.328369 0.498648 0.759835 -0.17191
Br Br 0.180104 -0.003202000000000038 0.740347 -0.17191
Br Br 0.425011 1.00325422 0.753112 -0.17191
N_ N_ 0.129198 0.253828 0.855909 -0.272
N_ N_ 0.376466 0.24585 0.85285 -0.272
N_ N_ 0.126743 0.265935 0.987228 -0.12501
N_ N_ 0.378592 0.232823 0.985705 -0.12501
N_ N_ 0.130571 0.247116 0.647856 -0.272
N_ N_ 0.368198 0.251795 0.642944 -0.272
N_ N_ 0.12993 0.242597 0.514726 -0.12501
N_ N_ 0.374076 0.253515 0.512347 -0.12501
O_ O_ 0.0984123 0.291308 0.71705 -0.60745
O_ O_ 0.338955 0.293738 0.719142 -0.60745
O_ O_ 0.0953673 0.290099 0.785656 -0.60745
O_ O_ 0.347157 0.297527 0.787803 -0.60745
O_ O_ 0.160547 0.29486 0.786656 -0.60745
O_ O_ 0.410857 0.287864 0.780523 -0.60745
O_ O_ 0.15904 0.296165 0.716391 -0.60745
O_ O_ 0.400728 0.297863 0.712753 -0.60745
O_ O_ 0.159505 0.206052 0.787585 -0.60745
O_ O_ 0.399901 0.202279 0.781792 -0.60745
O_ O_ 0.164444 0.208283 0.719246 -0.60745
O_ O_ 0.404464 0.20633 0.712572 -0.60745
O_ O_ 0.104157 0.198567 0.718792 -0.60745
O_ O_ 0.341042 0.207452 0.714673 -0.60745
O_ O_ 0.0963341 0.207104 0.784918 -0.60745
O_ O_ 0.339714 0.212323 0.784349 -0.60745
Zn Zn 0.11947 0.747083 0.286761 0.9476
Zn Zn 0.373784 0.751233 0.286649 0.9476
Zn Zn 0.122308 0.747219 0.218237 0.9476
Zn Zn 0.370883 0.747056 0.216466 0.9476
H_ H_ 0.0337115 0.913631 0.172748 0.10932
H_ H_ 0.275038 0.914621 0.186599 0.10932
H_ H_ 0.063893 0.861983 0.31564 0.10932
H_ H_ 0.319901 0.862667 0.321292 0.10932
H_ H_ 0.0657551 0.852256 0.180302 0.10932
H_ H_ 0.297672 0.840801 0.190445 0.10932
H_ H_ 0.0321169 0.921039 0.31177 0.10932
H_ H_ 0.28646 0.927314 0.316375 0.10932
H_ H_ 0.230158 0.902006 0.315961 0.10932
H_ H_ 0.478967 0.906406 0.314202 0.10932
H_ H_ 0.164666 0.862464 0.191953 0.10932
H_ H_ 0.412709 0.873519 0.196832 0.10932
H_ H_ 0.205727 0.829193 0.309485 0.10932
H_ H_ 0.444213 0.849481 0.31877 0.10932
H_ H_ 0.183555 0.936541 0.201138 0.10932
H_ H_ 0.446595 0.934914 0.189789 0.10932
H_ H_ 0.197704 0.563958 0.315337 0.10932
H_ H_ 0.4551 0.574211 0.316019 0.10932
H_ H_ 0.195096 0.655931 0.192092 0.10932
H_ H_ 0.4423 0.653179 0.184736 0.10932
H_ H_ 0.162375 0.620438 0.313185 0.10932
H_ H_ 0.426002 0.640426 0.317596 0.10932
H_ H_ 0.225286 0.598147 0.188864 0.10932
H_ H_ 0.467804 0.587161 0.184354 0.10932
H_ H_ 0.0422746 0.571746 0.188938 0.10932
H_ H_ 0.283082 0.577294 0.187338 0.10932
H_ H_ 0.0456887 0.666038 0.316534 0.10932
H_ H_ 0.308711 0.65512 0.321181 0.10932
H_ H_ 0.0678964 0.637848 0.185983 0.10932
H_ H_ 0.315589 0.642724 0.18437 0.10932
H_ H_ 0.0275428 0.595619 0.320961 0.10932
H_ H_ 0.277011 0.589813 0.320144 0.10932
H_ H_ 0.110466 0.807439 0.366233 0.10932
H_ H_ 0.368463 0.820283 0.360367 0.10932
H_ H_ 0.118453 0.676183 0.357812 0.10932
H_ H_ 0.370042 0.690991 0.361451 0.10932
H_ H_ 0.119574 0.67018 0.437476 0.10932
H_ H_ 0.365478 0.687741 0.438947 0.10932
H_ H_ 0.109177 0.801495 0.442446 0.10932
H_ H_ 0.369269 0.82211 0.437059 0.10932
H_ H_ 0.134229 0.676893 0.150903 0.10932
H_ H_ 0.369804 0.816522 0.151897 0.10932
H_ H_ 0.119974 0.807723 0.139356 0.10932
H_ H_ 0.371877 0.683626 0.139584 0.10932
H_ H_ 0.131575 0.803045 0.0643654 0.10932
H_ H_ 0.372668 0.689498 0.0634929 0.10932
H_ H_ 0.134568 0.668374 0.0729799 0.10932
H_ H_ 0.367416 0.821461 0.0735698 0.10932
C_ C_ 0.0638144 0.847927 0.250381 -0.02249
C_ C_ 0.312795 0.8473 0.255567 -0.02249
C_ C_ 0.0135389 0.961711 0.242897 -0.02249
C_ C_ 0.262055 0.962043 0.250011 -0.02249
C_ C_ 0.0397118 0.901434 0.204409 -0.11473
C_ C_ 0.282834 0.900645 0.21651 -0.11473
C_ C_ 0.053585 0.868685 0.285443 -0.11473
C_ C_ 0.309022 0.87133 0.291251 -0.11473
C_ C_ 0.0561412 0.865525 0.208993 -0.11473
C_ C_ 0.296262 0.859769 0.218763 -0.11473
C_ C_ 0.029455 0.921124 0.243166 -0.02249
C_ C_ 0.276986 0.92157 0.253077 -0.02249
C_ C_ 0.08445 0.810608 0.252407 0.6875
C_ C_ 0.3333 0.811502 0.25441 0.6875
C_ C_ 0.0372438 0.904968 0.282176 -0.11473
C_ C_ 0.290117 0.907682 0.290448 -0.11473
C_ C_ 0.180954 0.84588 0.254935 -0.02249
C_ C_ 0.430081 0.851215 0.253823 -0.02249
C_ C_ 0.229973 0.962262 0.256994 -0.02249
C_ C_ 0.48331 0.962807 0.250328 -0.02249
C_ C_ 0.216267 0.894285 0.28971 -0.11473
C_ C_ 0.465717 0.898246 0.286544 -0.11473
C_ C_ 0.177777 0.873277 0.220494 -0.11473
C_ C_ 0.432094 0.874692 0.216476 -0.11473
C_ C_ 0.199979 0.854623 0.287773 -0.11473
C_ C_ 0.446107 0.865362 0.289397 -0.11473
C_ C_ 0.214088 0.922526 0.255803 -0.02249
C_ C_ 0.467106 0.923885 0.25093 -0.02249
C_ C_ 0.161599 0.806703 0.252527 0.6875
C_ C_ 0.41073 0.812661 0.254164 0.6875
C_ C_ 0.191306 0.912705 0.223 -0.11473
C_ C_ 0.450068 0.910716 0.213933 -0.11473
C_ C_ 0.175306 0.643837 0.251899 -0.02249
C_ C_ 0.432308 0.652442 0.251198 -0.02249
C_ C_ 0.232067 0.536624 0.247787 -0.02249
C_ C_ 0.481773 0.538551 0.251842 -0.02249
C_ C_ 0.200523 0.586819 0.288681 -0.11473
C_ C_ 0.449533 0.591704 0.286965 -0.11473
C_ C_ 0.195998 0.637918 0.22031 -0.11473
C_ C_ 0.443222 0.636361 0.213153 -0.11473
C_ C_ 0.178057 0.617663 0.28737 -0.11473
C_ C_ 0.432593 0.626519 0.288182 -0.11473
C_ C_ 0.216001 0.576557 0.251702 -0.02249
C_ C_ 0.463572 0.5783 0.250646 -0.02249
C_ C_ 0.156909 0.682759 0.253943 0.6875
C_ C_ 0.414052 0.691903 0.249643 0.6875
C_ C_ 0.213597 0.603105 0.217938 -0.11473
C_ C_ 0.458243 0.599264 0.212679 -0.11473
C_ C_ 0.0595593 0.657895 0.248925 -0.02249
C_ C_ 0.31293 0.652866 0.25235 -0.02249
C_ C_ 0.0164963 0.538876 0.257849 -0.02249
C_ C_ 0.263799 0.537778 0.255054 -0.02249
C_ C_ 0.0468272 0.589713 0.217836 -0.11473
C_ C_ 0.288965 0.593315 0.215888 -0.11473
C_ C_ 0.0474242 0.644487 0.288439 -0.11473
C_ C_ 0.301897 0.638252 0.290609 -0.11473
C_ C_ 0.0598783 0.628463 0.215565 -0.11473
C_ C_ 0.306266 0.6314 0.214032 -0.11473
C_ C_ 0.0336174 0.578986 0.255447 -0.02249
C_ C_ 0.278865 0.577776 0.253823 -0.02249
C_ C_ 0.0818693 0.692194 0.250238 0.6875
C_ C_ 0.332467 0.691571 0.250336 0.6875
C_ C_ 0.034299 0.605017 0.291019 -0.11473
C_ C_ 0.285251 0.600558 0.290689 -0.11473
C_ C_ 0.111562 0.776458 0.380421 0.17695
C_ C_ 0.371319 0.790501 0.377053 0.17695
C_ C_ 0.120323 0.704166 0.377633 0.17695
C_ C_ 0.369919 0.718259 0.377626 0.17695
C_ C_ 0.119279 0.701067 0.423093 -0.11473
C_ C_ 0.365726 0.717623 0.420767 -0.11473
C_ C_ 0.117522 0.736843 0.446488 0.23465
C_ C_ 0.370485 0.754459 0.444666 0.23465
C_ C_ 0.113461 0.77369 0.424426 -0.11473
C_ C_ 0.369562 0.792179 0.42113 -0.11473
C_ C_ 0.127963 0.703173 0.130598 0.17695
C_ C_ 0.368109 0.787431 0.132603 0.17695
C_ C_ 0.123552 0.776681 0.123039 0.17695
C_ C_ 0.371838 0.71515 0.125773 0.17695
C_ C_ 0.130382 0.773981 0.0799569 -0.11473
C_ C_ 0.369648 0.717383 0.0810441 -0.11473
C_ C_ 0.132749 0.735388 0.0600504 0.23465
C_ C_ 0.370071 0.757097 0.0625262 0.23465
C_ C_ 0.133012 0.70027 0.0872951 -0.11473
C_ C_ 0.368802 0.790904 0.0873544 -0.11473
C_ C_ 0.0305485 0.99871318 0.246508 0.05793
C_ C_ 0.277721 0.999602631 0.249823 0.05793
C_ C_ 0.217049 0.498859 0.239823 0.05793
C_ C_ 0.465728 0.498758 0.252756 0.05793
Br Br 0.0729208 0.00207992 0.23905 -0.17191
Br Br 0.319001 0.998436 0.232372 -0.17191
Br Br 0.174325 0.494931 0.23216 -0.17191
Br Br 0.422674 0.499331 0.257668 -0.17191
N_ N_ 0.117921 0.741399 0.359597 -0.272
N_ N_ 0.371555 0.753345 0.356648 -0.272
N_ N_ 0.114041 0.735223 0.491208 -0.12501
N_ N_ 0.369444 0.75718 0.488928 -0.12501
N_ N_ 0.124028 0.741783 0.147781 -0.272
N_ N_ 0.371755 0.748647 0.149721 -0.272
N_ N_ 0.133263 0.729884 0.0156827 -0.12501
N_ N_ 0.369073 0.763381 0.0171226 -0.12501
O_ O_ 0.0899482 0.789446 0.218946 -0.60745
O_ O_ 0.341044 0.795513 0.219577 -0.60745
O_ O_ 0.0924699 0.795245 0.287943 -0.60745
O_ O_ 0.339958 0.794601 0.290166 -0.60745
O_ O_ 0.15497 0.786023 0.285937 -0.60745
O_ O_ 0.40395 0.797609 0.290125 -0.60745
O_ O_ 0.151063 0.794135 0.217192 -0.60745
O_ O_ 0.402057 0.795478 0.219509 -0.60745
O_ O_ 0.144455 0.695119 0.286417 -0.60745
O_ O_ 0.408775 0.711462 0.283221 -0.60745
O_ O_ 0.15269 0.704481 0.220935 -0.60745
O_ O_ 0.401598 0.704476 0.214818 -0.60745
O_ O_ 0.0969434 0.701804 0.217779 -0.60745
O_ O_ 0.338165 0.705452 0.215197 -0.60745
O_ O_ 0.0850902 0.711752 0.283575 -0.60745
O_ O_ 0.343639 0.707665 0.283573 -0.60745
Zn Zn 0.127036 0.749113 0.788456 0.9476
Zn Zn 0.379117 0.747994 0.790326 0.9476
Zn Zn 0.125906 0.748789 0.719459 0.9476
Zn Zn 0.378114 0.749358 0.719795 0.9476
H_ H_ 0.0309592 0.914058 0.685298 0.10932
H_ H_ 0.284341 0.911165 0.692053 0.10932
H_ H_ 0.0708149 0.860223 0.820533 0.10932
H_ H_ 0.327951 0.857346 0.82161 0.10932
H_ H_ 0.0634657 0.853048 0.688347 0.10932
H_ H_ 0.313278 0.85042 0.688078 0.10932
H_ H_ 0.0324323 0.917011 0.819392 0.10932
H_ H_ 0.298673 0.922167 0.823643 0.10932
H_ H_ 0.228115 0.904509 0.820118 0.10932
H_ H_ 0.468328 0.920625 0.817277 0.10932
H_ H_ 0.187805 0.85174 0.68125 0.10932
H_ H_ 0.423747 0.865777 0.684001 0.10932
H_ H_ 0.187933 0.84745 0.817005 0.10932
H_ H_ 0.437717 0.854919 0.813286 0.10932
H_ H_ 0.216055 0.920502 0.68618 0.10932
H_ H_ 0.454386 0.926334 0.680928 0.10932
H_ H_ 0.215463 0.578103 0.81442 0.10932
H_ H_ 0.461827 0.573608 0.810393 0.10932
H_ H_ 0.195222 0.658018 0.682732 0.10932
H_ H_ 0.444415 0.65758 0.678682 0.10932
H_ H_ 0.189301 0.645611 0.81902 0.10932
H_ H_ 0.444337 0.645233 0.812746 0.10932
H_ H_ 0.225685 0.593492 0.682203 0.10932
H_ H_ 0.466408 0.587872 0.673675 0.10932
H_ H_ 0.0349446 0.574568 0.685854 0.10932
H_ H_ 0.279682 0.594906 0.683878 0.10932
H_ H_ 0.0716573 0.639319 0.818787 0.10932
H_ H_ 0.325159 0.638665 0.818805 0.10932
H_ H_ 0.0698641 0.63875 0.68518 0.10932
H_ H_ 0.314998 0.65349 0.685049 0.10932
H_ H_ 0.0374964 0.577644 0.818985 0.10932
H_ H_ 0.303321 0.568492 0.814773 0.10932
H_ H_ 0.121 0.812649 0.855409 0.10932
H_ H_ 0.37044 0.811965 0.869566 0.10932
H_ H_ 0.122253 0.685156 0.865414 0.10932
H_ H_ 0.386047 0.682465 0.857453 0.10932
H_ H_ 0.120106 0.689041 0.942566 0.10932
H_ H_ 0.382741 0.675094 0.935303 0.10932
H_ H_ 0.129126 0.818415 0.937451 0.10932
H_ H_ 0.365064 0.80553 0.945149 0.10932
H_ H_ 0.128677 0.688491 0.643969 0.10932
H_ H_ 0.374303 0.809205 0.633348 0.10932
H_ H_ 0.119358 0.818908 0.647101 0.10932
H_ H_ 0.373782 0.680796 0.65068 0.10932
H_ H_ 0.120521 0.823091 0.571532 0.10932
H_ H_ 0.38104 0.667734 0.574553 0.10932
H_ H_ 0.126166 0.689162 0.566027 0.10932
H_ H_ 0.381178 0.802018 0.557396 0.10932
C_ C_ 0.0715891 0.852282 0.753241 -0.02249
C_ C_ 0.318619 0.84373 0.757415 -0.02249
C_ C_ 0.0134935 0.9643 0.752276 -0.02249
C_ C_ 0.269289 0.958383 0.756048 -0.02249
C_ C_ 0.0409358 0.902627 0.71508 -0.11473
C_ C_ 0.290556 0.895996 0.722133 -0.11473
C_ C_ 0.0599419 0.868716 0.790914 -0.11473
C_ C_ 0.314612 0.866331 0.795633 -0.11473
C_ C_ 0.0621202 0.87009 0.715588 -0.11473
C_ C_ 0.307692 0.861196 0.71998 -0.11473
C_ C_ 0.0308249 0.923044 0.752367 -0.02249
C_ C_ 0.285864 0.918782 0.758416 -0.02249
C_ C_ 0.0882956 0.810363 0.753912 0.6875
C_ C_ 0.335941 0.803278 0.755065 0.6875
C_ C_ 0.0398541 0.903249 0.790508 -0.11473
C_ C_ 0.299358 0.903436 0.795472 -0.11473
C_ C_ 0.186216 0.84413 0.749291 -0.02249
C_ C_ 0.433409 0.851373 0.749204 -0.02249
C_ C_ 0.237925 0.956826 0.755433 -0.02249
C_ C_ 0.483512 0.965231 0.749134 -0.02249
C_ C_ 0.217979 0.893418 0.790063 -0.11473
C_ C_ 0.459869 0.908959 0.787026 -0.11473
C_ C_ 0.195271 0.863127 0.71203 -0.11473
C_ C_ 0.437874 0.873717 0.711356 -0.11473
C_ C_ 0.195646 0.860678 0.787631 -0.11473
C_ C_ 0.444204 0.870017 0.786195 -0.11473
C_ C_ 0.222785 0.916525 0.754297 -0.02249
C_ C_ 0.465519 0.9273 0.748445 -0.02249
C_ C_ 0.167801 0.806515 0.747518 0.6875
C_ C_ 0.415149 0.812071 0.750346 0.6875
C_ C_ 0.209282 0.902786 0.715851 -0.11473
C_ C_ 0.45442 0.90946 0.711133 -0.11473
C_ C_ 0.188949 0.653828 0.75107 -0.02249
C_ C_ 0.437612 0.652854 0.746187 -0.02249
C_ C_ 0.238781 0.540064 0.748285 -0.02249
C_ C_ 0.483493 0.535523 0.740377 -0.02249
C_ C_ 0.213121 0.596068 0.787024 -0.11473
C_ C_ 0.456257 0.590847 0.779938 -0.11473
C_ C_ 0.199322 0.638606 0.711863 -0.11473
C_ C_ 0.445959 0.637595 0.706589 -0.11473
C_ C_ 0.196728 0.634355 0.789071 -0.11473
C_ C_ 0.444253 0.630778 0.78198 -0.11473
C_ C_ 0.224222 0.581202 0.74885 -0.02249
C_ C_ 0.46623 0.575353 0.741284 -0.02249
C_ C_ 0.168123 0.6906 0.751396 0.6875
C_ C_ 0.418938 0.692859 0.749284 0.6875
C_ C_ 0.217483 0.604464 0.711189 -0.11473
C_ C_ 0.45825 0.596364 0.703876 -0.11473
C_ C_ 0.0681401 0.647673 0.753303 -0.02249
C_ C_ 0.32449 0.648351 0.751895 -0.02249
C_ C_ 0.0152382 0.533918 0.752666 -0.02249
C_ C_ 0.271065 0.53684 0.749185 -0.02249
C_ C_ 0.0416869 0.590683 0.713396 -0.11473
C_ C_ 0.293004 0.601041 0.712714 -0.11473
C_ C_ 0.062806 0.626011 0.79023 -0.11473
C_ C_ 0.317115 0.627486 0.788752 -0.11473
C_ C_ 0.0581912 0.629542 0.71404 -0.11473
C_ C_ 0.311604 0.636094 0.713989 -0.11473
C_ C_ 0.0324963 0.573836 0.751018 -0.02249
C_ C_ 0.287907 0.578094 0.75044 -0.02249
C_ C_ 0.0857028 0.688102 0.753191 0.6875
C_ C_ 0.343723 0.684644 0.754328 0.6875
C_ C_ 0.0437332 0.591061 0.789641 -0.11473
C_ C_ 0.302888 0.589592 0.788409 -0.11473
C_ C_ 0.123388 0.786476 0.876275 0.17695
C_ C_ 0.375118 0.782869 0.883749 0.17695
C_ C_ 0.126995 0.715004 0.881176 0.17695
C_ C_ 0.385651 0.71069 0.877181 0.17695
C_ C_ 0.124839 0.715445 0.924309 -0.11473
C_ C_ 0.382169 0.705779 0.921529 -0.11473
C_ C_ 0.126744 0.753923 0.94364 0.23465
C_ C_ 0.377629 0.740345 0.947137 0.23465
C_ C_ 0.128268 0.788497 0.920896 -0.11473
C_ C_ 0.373065 0.779445 0.926922 -0.11473
C_ C_ 0.124718 0.717241 0.6274 0.17695
C_ C_ 0.379353 0.779112 0.620675 0.17695
C_ C_ 0.122487 0.790983 0.630305 0.17695
C_ C_ 0.375364 0.707074 0.630444 0.17695
C_ C_ 0.122786 0.793471 0.586871 -0.11473
C_ C_ 0.380467 0.699954 0.586361 -0.11473
C_ C_ 0.123747 0.757669 0.561433 0.23465
C_ C_ 0.379467 0.733918 0.55867 0.23465
C_ C_ 0.125349 0.719366 0.582339 -0.11473
C_ C_ 0.379793 0.774705 0.576419 -0.11473
C_ C_ 0.0297816 0.0010499999999999954 0.757765 0.05793
C_ C_ 0.285408 -0.003924999999999956 0.759996 0.05793
C_ C_ 0.222964 0.503547 0.749167 0.05793
C_ C_ 0.46702 0.497331 0.743123 0.05793
Br Br 0.0713247 -0.004693999999999976 0.776223 -0.17191
Br Br 0.328702 -0.002022999999999997 0.758566 -0.17191
Br Br 0.17995 0.50817 0.74248 -0.17191
Br Br 0.422461 0.499242 0.750366 -0.17191
N_ N_ 0.129617 0.749905 0.857731 -0.272
N_ N_ 0.381908 0.749469 0.859731 -0.272
N_ N_ 0.127502 0.75909 0.989258 -0.12501
N_ N_ 0.378525 0.736106 0.992125 -0.12501
N_ N_ 0.123405 0.753034 0.649894 -0.272
N_ N_ 0.377544 0.745149 0.647661 -0.272
N_ N_ 0.125412 0.761721 0.51579 -0.12501
N_ N_ 0.37818 0.72838 0.513392 -0.12501
O_ O_ 0.0930338 0.787644 0.721732 -0.60745
O_ O_ 0.347398 0.791849 0.71932 -0.60745
O_ O_ 0.100326 0.798985 0.787951 -0.60745
O_ O_ 0.344083 0.785849 0.790236 -0.60745
O_ O_ 0.160647 0.791994 0.784458 -0.60745
O_ O_ 0.405947 0.796513 0.785542 -0.60745
O_ O_ 0.154187 0.794924 0.714805 -0.60745
O_ O_ 0.40821 0.794264 0.715489 -0.60745
O_ O_ 0.156569 0.701852 0.785125 -0.60745
O_ O_ 0.413945 0.710156 0.78469 -0.60745
O_ O_ 0.160348 0.707608 0.717394 -0.60745
O_ O_ 0.405579 0.70498 0.716397 -0.60745
O_ O_ 0.095602 0.70301 0.719261 -0.60745
O_ O_ 0.346075 0.706412 0.721305 -0.60745
O_ O_ 0.0952991 0.703407 0.787959 -0.60745
O_ O_ 0.351525 0.699749 0.789978 -0.60745
Zn Zn 0.62614 0.252901 0.28223 0.9476
Zn Zn 0.871978 0.249233 0.283735 0.9476
Zn Zn 0.62397 0.252747 0.210729 0.9476
Zn Zn 0.876095 0.252865 0.211417 0.9476
H_ H_ 0.518936 0.402377 0.17805 0.10932
H_ H_ 0.771934 0.412821 0.187299 0.10932
H_ H_ 0.571254 0.359462 0.308248 0.10932
H_ H_ 0.818213 0.357226 0.317818 0.10932
H_ H_ 0.544889 0.337567 0.17903 0.10932
H_ H_ 0.815212 0.358365 0.182024 0.10932
H_ H_ 0.546926 0.428537 0.306334 0.10932
H_ H_ 0.790309 0.417975 0.320173 0.10932
H_ H_ 0.733016 0.404012 0.316013 0.10932
H_ H_ 0.953959 0.430465 0.316875 0.10932
H_ H_ 0.674526 0.364001 0.187566 0.10932
H_ H_ 0.951377 0.339751 0.19074 0.10932
H_ H_ 0.701693 0.338401 0.312553 0.10932
H_ H_ 0.918103 0.370301 0.308497 0.10932
H_ H_ 0.700062 0.431146 0.190312 0.10932
H_ H_ 0.979141 0.410089 0.190023 0.10932
H_ H_ 0.697598 0.059051 0.295295 0.10932
H_ H_ 0.975751 0.0896026 0.314688 0.10932
H_ H_ 0.703499 0.170413 0.19097 0.10932
H_ H_ 0.931897 0.149607 0.182713 0.10932
H_ H_ 0.668272 0.127108 0.30917 0.10932
H_ H_ 0.941748 0.151931 0.314107 0.10932
H_ H_ 0.729719 0.103371 0.179174 0.10932
H_ H_ 0.964094 0.0852033 0.180242 0.10932
H_ H_ 0.546191 0.064871 0.193137 0.10932
H_ H_ 0.789894 0.0845191 0.173867 0.10932
H_ H_ 0.558098 0.156304 0.317857 0.10932
H_ H_ 0.808029 0.146758 0.313531 0.10932
H_ H_ 0.582494 0.126027 0.194009 0.10932
H_ H_ 0.815436 0.154501 0.177502 0.10932
H_ H_ 0.523306 0.0929126 0.319186 0.10932
H_ H_ 0.784329 0.080008 0.308453 0.10932
H_ H_ 0.579622 0.257107 0.348812 0.10932
H_ H_ 0.880446 0.185742 0.355716 0.10932
H_ H_ 0.67245 0.263952 0.363075 0.10932
H_ H_ 0.864577 0.313844 0.358297 0.10932
H_ H_ 0.668202 0.248062 0.438443 0.10932
H_ H_ 0.856758 0.311325 0.434737 0.10932
H_ H_ 0.572096 0.257299 0.424307 0.10932
H_ H_ 0.885948 0.1854 0.434839 0.10932
H_ H_ 0.648863 0.194701 0.125676 0.10932
H_ H_ 0.826027 0.263935 0.142524 0.10932
H_ H_ 0.609475 0.313645 0.145267 0.10932
H_ H_ 0.920001 0.254529 0.140928 0.10932
H_ H_ 0.622675 0.329719 0.0687317 0.10932
H_ H_ 0.920378 0.258389 0.0614064 0.10932
H_ H_ 0.65101 0.203191 0.0491823 0.10932
H_ H_ 0.823909 0.271576 0.0616266 0.10932
C_ C_ 0.560242 0.343157 0.24417 -0.02249
C_ C_ 0.814892 0.348842 0.249216 -0.02249
C_ C_ 0.514882 0.463091 0.245328 -0.02249
C_ C_ 0.765903 0.46364 0.252665 -0.02249
C_ C_ 0.531471 0.394782 0.207159 -0.11473
C_ C_ 0.784948 0.40243 0.215142 -0.11473
C_ C_ 0.561161 0.369587 0.28063 -0.11473
C_ C_ 0.808792 0.368918 0.288515 -0.11473
C_ C_ 0.544746 0.356128 0.207948 -0.11473
C_ C_ 0.804471 0.368324 0.212344 -0.11473
C_ C_ 0.533603 0.423471 0.241561 -0.02249
C_ C_ 0.782505 0.423019 0.253479 -0.02249
C_ C_ 0.582702 0.308213 0.244653 0.6875
C_ C_ 0.835119 0.312044 0.249402 0.6875
C_ C_ 0.5478 0.407921 0.27978 -0.11473
C_ C_ 0.79443 0.406427 0.290433 -0.11473
C_ C_ 0.687783 0.347583 0.249441 -0.02249
C_ C_ 0.932592 0.349716 0.250596 -0.02249
C_ C_ 0.734975 0.463878 0.253677 -0.02249
C_ C_ 0.984689 0.463472 0.25342 -0.02249
C_ C_ 0.721251 0.39589 0.287283 -0.11473
C_ C_ 0.952157 0.411102 0.287929 -0.11473
C_ C_ 0.686575 0.373887 0.21494 -0.11473
C_ C_ 0.951079 0.361527 0.216871 -0.11473
C_ C_ 0.703465 0.360003 0.286143 -0.11473
C_ C_ 0.932395 0.376488 0.284996 -0.11473
C_ C_ 0.718854 0.42413 0.252848 -0.02249
C_ C_ 0.968122 0.423914 0.254147 -0.02249
C_ C_ 0.666849 0.30869 0.248889 0.6875
C_ C_ 0.914017 0.310832 0.247807 0.6875
C_ C_ 0.701782 0.411533 0.216223 -0.11473
C_ C_ 0.96854 0.3986 0.218427 -0.11473
C_ C_ 0.683687 0.151898 0.251294 -0.02249
C_ C_ 0.936991 0.156206 0.248003 -0.02249
C_ C_ 0.734883 0.0395699 0.239047 -0.02249
C_ C_ 0.984687 0.0424014 0.246902 -0.02249
C_ C_ 0.701925 0.0878531 0.278444 -0.11473
C_ C_ 0.964059 0.0993027 0.286085 -0.11473
C_ C_ 0.701524 0.146501 0.215921 -0.11473
C_ C_ 0.942713 0.135548 0.21034 -0.11473
C_ C_ 0.683998 0.122746 0.281912 -0.11473
C_ C_ 0.946736 0.137005 0.285748 -0.11473
C_ C_ 0.718885 0.0809754 0.242019 -0.02249
C_ C_ 0.96981 0.0813025 0.248655 -0.02249
C_ C_ 0.665158 0.190443 0.25331 0.6875
C_ C_ 0.913973 0.192354 0.247673 0.6875
C_ C_ 0.716887 0.110031 0.208319 -0.11473
C_ C_ 0.957191 0.0986418 0.211068 -0.11473
C_ C_ 0.570016 0.14787 0.253989 -0.02249
C_ C_ 0.816726 0.153786 0.247522 -0.02249
C_ C_ 0.516186 0.0381155 0.255326 -0.02249
C_ C_ 0.767223 0.0369877 0.238385 -0.02249
C_ C_ 0.548606 0.0869947 0.220585 -0.11473
C_ C_ 0.793475 0.0988811 0.204711 -0.11473
C_ C_ 0.554589 0.138087 0.291498 -0.11473
C_ C_ 0.80378 0.13344 0.282679 -0.11473
C_ C_ 0.566626 0.122052 0.219485 -0.11473
C_ C_ 0.809048 0.138011 0.20715 -0.11473
C_ C_ 0.53411 0.0766396 0.256259 -0.02249
C_ C_ 0.785488 0.0761944 0.241352 -0.02249
C_ C_ 0.588155 0.190014 0.250339 0.6875
C_ C_ 0.832893 0.193842 0.249627 0.6875
C_ C_ 0.535189 0.102693 0.291246 -0.11473
C_ C_ 0.790023 0.0952223 0.280752 -0.11473
C_ C_ 0.597762 0.251799 0.369466 0.17695
C_ C_ 0.880988 0.216229 0.372678 0.17695
C_ C_ 0.650804 0.260609 0.37753 0.17695
C_ C_ 0.867516 0.285917 0.375035 0.17695
C_ C_ 0.649902 0.257885 0.421956 -0.11473
C_ C_ 0.865942 0.283668 0.419674 -0.11473
C_ C_ 0.620691 0.257242 0.440955 0.23465
C_ C_ 0.874491 0.249615 0.442269 0.23465
C_ C_ 0.594956 0.253535 0.413545 -0.11473
C_ C_ 0.883111 0.214893 0.418241 -0.11473
C_ C_ 0.636443 0.220565 0.114366 0.17695
C_ C_ 0.845406 0.263927 0.122225 0.17695
C_ C_ 0.619168 0.289903 0.124792 0.17695
C_ C_ 0.898947 0.255296 0.122253 0.17695
C_ C_ 0.624855 0.298595 0.0811062 -0.11473
C_ C_ 0.898711 0.260833 0.0777983 -0.11473
C_ C_ 0.62963 0.264085 0.0528048 0.23465
C_ C_ 0.871414 0.268783 0.0551398 0.23465
C_ C_ 0.637754 0.225852 0.0692842 -0.11473
C_ C_ 0.844793 0.270253 0.0779654 -0.11473
C_ C_ 0.529869 0.502248 0.253588 0.05793
C_ C_ 0.78204 0.501286 0.249659 0.05793
C_ C_ 0.718716 1.00167743 0.232698 0.05793
C_ C_ 0.967478 1.00500244 0.245038 0.05793
Br Br 0.571954 0.501496 0.2579 -0.17191
Br Br 0.825725 0.499043 0.25294 -0.17191
Br Br 0.675175 0.00264454 0.222722 -0.17191
Br Br 0.923233 0.0108528 0.240853 -0.17191
N_ N_ 0.62599 0.254207 0.353502 -0.272
N_ N_ 0.874622 0.252339 0.352728 -0.272
N_ N_ 0.618969 0.248673 0.484271 -0.12501
N_ N_ 0.870519 0.246334 0.486623 -0.12501
N_ N_ 0.627413 0.253086 0.140258 -0.272
N_ N_ 0.872097 0.257534 0.142761 -0.272
N_ N_ 0.629056 0.270397 0.00847632 -0.12501
N_ N_ 0.872472 0.276427 0.0106127 -0.12501
O_ O_ 0.587223 0.287356 0.213449 -0.60745
O_ O_ 0.844304 0.298012 0.213859 -0.60745
O_ O_ 0.599526 0.301093 0.276461 -0.60745
O_ O_ 0.841328 0.29381 0.285357 -0.60745
O_ O_ 0.662405 0.289062 0.2828 -0.60745
O_ O_ 0.904118 0.294285 0.281399 -0.60745
O_ O_ 0.6496 0.301796 0.216515 -0.60745
O_ O_ 0.907622 0.296182 0.212761 -0.60745
O_ O_ 0.654258 0.204008 0.286417 -0.60745
O_ O_ 0.903043 0.206776 0.281128 -0.60745
O_ O_ 0.658974 0.209631 0.218023 -0.60745
O_ O_ 0.90933 0.211653 0.212689 -0.60745
O_ O_ 0.596935 0.201793 0.214049 -0.60745
O_ O_ 0.844463 0.20757 0.215519 -0.60745
O_ O_ 0.592952 0.211729 0.282632 -0.60745
O_ O_ 0.839907 0.208523 0.28504 -0.60745
Zn Zn 0.629925 0.247745 0.778916 0.9476
Zn Zn 0.872768 0.25118 0.783874 0.9476
Zn Zn 0.628222 0.247249 0.710525 0.9476
Zn Zn 0.872688 0.247843 0.715 0.9476
H_ H_ 0.530065 0.407911 0.675551 0.10932
H_ H_ 0.797085 0.425889 0.670864 0.10932
H_ H_ 0.568847 0.352547 0.810054 0.10932
H_ H_ 0.81577 0.358568 0.806005 0.10932
H_ H_ 0.561282 0.343098 0.676202 0.10932
H_ H_ 0.826163 0.357594 0.674092 0.10932
H_ H_ 0.543844 0.4197 0.808869 0.10932
H_ H_ 0.77918 0.416455 0.801941 0.10932
H_ H_ 0.710526 0.4315 0.805013 0.10932
H_ H_ 0.9656 0.404531 0.828118 0.10932
H_ H_ 0.692859 0.345154 0.676667 0.10932
H_ H_ 0.936904 0.346705 0.687665 0.10932
H_ H_ 0.677211 0.365053 0.808417 0.10932
H_ H_ 0.931933 0.349894 0.82341 0.10932
H_ H_ 0.718648 0.414366 0.671121 0.10932
H_ H_ 0.967376 0.41302 0.693812 0.10932
H_ H_ 0.725323 0.0851435 0.811151 0.10932
H_ H_ 0.960236 0.0779638 0.814638 0.10932
H_ H_ 0.687518 0.146056 0.677097 0.10932
H_ H_ 0.94658 0.163923 0.685416 0.10932
H_ H_ 0.699124 0.151912 0.812079 0.10932
H_ H_ 0.925085 0.138253 0.813472 0.10932
H_ H_ 0.713695 0.0799085 0.677832 0.10932
H_ H_ 0.972063 0.0981273 0.679848 0.10932
H_ H_ 0.545465 0.0656765 0.680496 0.10932
H_ H_ 0.78971 0.0767035 0.684586 0.10932
H_ H_ 0.553706 0.161494 0.80183 0.10932
H_ H_ 0.812789 0.145857 0.820305 0.10932
H_ H_ 0.581294 0.124722 0.679841 0.10932
H_ H_ 0.813489 0.144937 0.686195 0.10932
H_ H_ 0.525786 0.0943535 0.809903 0.10932
H_ H_ 0.795498 0.0718421 0.817027 0.10932
H_ H_ 0.628767 0.311053 0.857267 0.10932
H_ H_ 0.881015 0.187871 0.858326 0.10932
H_ H_ 0.633307 0.180806 0.849416 0.10932
H_ H_ 0.865362 0.321603 0.862543 0.10932
H_ H_ 0.629965 0.177988 0.926958 0.10932
H_ H_ 0.860807 0.314856 0.940234 0.10932
H_ H_ 0.632903 0.3097 0.932783 0.10932
H_ H_ 0.886327 0.185703 0.932959 0.10932
H_ H_ 0.637762 0.319723 0.644057 0.10932
H_ H_ 0.924369 0.24824 0.652781 0.10932
H_ H_ 0.62554 0.187568 0.631968 0.10932
H_ H_ 0.831298 0.245292 0.631892 0.10932
H_ H_ 0.622724 0.192074 0.553212 0.10932
H_ H_ 0.83675 0.239578 0.555364 0.10932
H_ H_ 0.641724 0.321992 0.563764 0.10932
H_ H_ 0.932953 0.247894 0.573968 0.10932
C_ C_ 0.567825 0.342441 0.74347 -0.02249
C_ C_ 0.814277 0.348663 0.738935 -0.02249
C_ C_ 0.51375 0.457296 0.74425 -0.02249
C_ C_ 0.765878 0.46559 0.737943 -0.02249
C_ C_ 0.536487 0.394075 0.70558 -0.11473
C_ C_ 0.797997 0.409574 0.700807 -0.11473
C_ C_ 0.56131 0.364663 0.780608 -0.11473
C_ C_ 0.805646 0.368908 0.77545 -0.11473
C_ C_ 0.554803 0.356977 0.706079 -0.11473
C_ C_ 0.812184 0.369934 0.701392 -0.11473
C_ C_ 0.52998 0.415476 0.743978 -0.02249
C_ C_ 0.78416 0.425809 0.736841 -0.02249
C_ C_ 0.587605 0.306321 0.744851 0.6875
C_ C_ 0.83571 0.312776 0.742735 0.6875
C_ C_ 0.545455 0.401986 0.779399 -0.11473
C_ C_ 0.787492 0.402901 0.774407 -0.11473
C_ C_ 0.682769 0.350638 0.743172 -0.02249
C_ C_ 0.935761 0.338943 0.755695 -0.02249
C_ C_ 0.733615 0.465751 0.735465 -0.02249
C_ C_ 0.98503 0.455513 0.760773 -0.02249
C_ C_ 0.706145 0.412697 0.776369 -0.11473
C_ C_ 0.960276 0.395042 0.796794 -0.11473
C_ C_ 0.696568 0.363986 0.705636 -0.11473
C_ C_ 0.944388 0.358718 0.71912 -0.11473
C_ C_ 0.686936 0.37684 0.778442 -0.11473
C_ C_ 0.940989 0.360395 0.794786 -0.11473
C_ C_ 0.717619 0.425515 0.737359 -0.02249
C_ C_ 0.966268 0.416674 0.76023 -0.02249
C_ C_ 0.667555 0.309603 0.747536 0.6875
C_ C_ 0.916549 0.302056 0.754398 0.6875
C_ C_ 0.710569 0.404385 0.701638 -0.11473
C_ C_ 0.962019 0.396893 0.721166 -0.11473
C_ C_ 0.689014 0.153214 0.744101 -0.02249
C_ C_ 0.933822 0.154634 0.750128 -0.02249
C_ C_ 0.736129 0.0371794 0.743758 -0.02249
C_ C_ 0.98356 0.0409653 0.743502 -0.02249
C_ C_ 0.716423 0.0980921 0.78236 -0.11473
C_ C_ 0.955709 0.0948434 0.787371 -0.11473
C_ C_ 0.692681 0.130348 0.705685 -0.11473
C_ C_ 0.946229 0.142577 0.712071 -0.11473
C_ C_ 0.701715 0.135755 0.782288 -0.11473
C_ C_ 0.938131 0.129904 0.787021 -0.11473
C_ C_ 0.72196 0.0796027 0.744508 -0.02249
C_ C_ 0.967536 0.0814512 0.74847 -0.02249
C_ C_ 0.669083 0.190998 0.743326 0.6875
C_ C_ 0.910765 0.189177 0.750016 0.6875
C_ C_ 0.710714 0.0970967 0.706991 -0.11473
C_ C_ 0.963042 0.105913 0.712014 -0.11473
C_ C_ 0.571652 0.148399 0.742571 -0.02249
C_ C_ 0.814611 0.150046 0.752759 -0.02249
C_ C_ 0.516105 0.0398592 0.749312 -0.02249
C_ C_ 0.768146 0.0339489 0.748659 -0.02249
C_ C_ 0.548388 0.0869054 0.707552 -0.11473
C_ C_ 0.794272 0.0924329 0.71518 -0.11473
C_ C_ 0.552814 0.140136 0.777616 -0.11473
C_ C_ 0.809118 0.129681 0.790225 -0.11473
C_ C_ 0.566377 0.121955 0.706819 -0.11473
C_ C_ 0.807906 0.131081 0.7157 -0.11473
C_ C_ 0.532827 0.0772642 0.744488 -0.02249
C_ C_ 0.787513 0.0714764 0.751483 -0.02249
C_ C_ 0.589804 0.188092 0.739194 0.6875
C_ C_ 0.832429 0.189806 0.749772 0.6875
C_ C_ 0.537152 0.102592 0.781521 -0.11473
C_ C_ 0.796211 0.0892522 0.788499 -0.11473
C_ C_ 0.627258 0.281797 0.872221 0.17695
C_ C_ 0.877935 0.217492 0.873665 0.17695
C_ C_ 0.62953 0.208251 0.868761 0.17695
C_ C_ 0.867668 0.289355 0.877667 0.17695
C_ C_ 0.628591 0.207106 0.912834 -0.11473
C_ C_ 0.867114 0.287038 0.922186 -0.11473
C_ C_ 0.62963 0.242766 0.937544 0.23465
C_ C_ 0.874798 0.250556 0.942286 0.23465
C_ C_ 0.629334 0.280404 0.916702 -0.11473
C_ C_ 0.878294 0.214178 0.917679 -0.11473
C_ C_ 0.637329 0.290378 0.624195 0.17695
C_ C_ 0.905813 0.248241 0.63118 0.17695
C_ C_ 0.627768 0.217205 0.617823 0.17695
C_ C_ 0.853382 0.244776 0.618902 0.17695
C_ C_ 0.62733 0.220051 0.573237 -0.11473
C_ C_ 0.856804 0.244214 0.575494 -0.11473
C_ C_ 0.634842 0.259439 0.555139 0.23465
C_ C_ 0.885559 0.247995 0.559643 0.23465
C_ C_ 0.637832 0.292823 0.57985 -0.11473
C_ C_ 0.910222 0.249223 0.587074 -0.11473
C_ C_ 0.530326 0.495617 0.743503 0.05793
C_ C_ 0.780659 0.50325 0.743762 0.05793
C_ C_ 0.718553 0.00202335 0.748127 0.05793
C_ C_ 0.967096 0.00268536 0.739426 0.05793
Br Br 0.572292 0.493689 0.728262 -0.17191
Br Br 0.823742 0.505189 0.758455 -0.17191
Br Br 0.675283 0.0079579 0.754762 -0.17191
Br Br 0.924474 0.00411171 0.731784 -0.17191
N_ N_ 0.628359 0.245702 0.849486 -0.272
N_ N_ 0.873499 0.253786 0.854295 -0.272
N_ N_ 0.630042 0.240662 0.982588 -0.12501
N_ N_ 0.880677 0.249015 0.98533 -0.12501
N_ N_ 0.632527 0.251913 0.641254 -0.272
N_ N_ 0.877561 0.250477 0.64393 -0.272
N_ N_ 0.636786 0.264892 0.510452 -0.12501
N_ N_ 0.891415 0.248842 0.514244 -0.12501
O_ O_ 0.595564 0.290301 0.710811 -0.60745
O_ O_ 0.841256 0.291036 0.710783 -0.60745
O_ O_ 0.598361 0.292051 0.778471 -0.60745
O_ O_ 0.846473 0.300789 0.777563 -0.60745
O_ O_ 0.659317 0.295492 0.782529 -0.60745
O_ O_ 0.909771 0.282811 0.786885 -0.60745
O_ O_ 0.659046 0.290499 0.714583 -0.60745
O_ O_ 0.90351 0.293744 0.717654 -0.60745
O_ O_ 0.658901 0.203854 0.776957 -0.60745
O_ O_ 0.900082 0.202057 0.784444 -0.60745
O_ O_ 0.661442 0.20863 0.710236 -0.60745
O_ O_ 0.904157 0.20644 0.71558 -0.60745
O_ O_ 0.598081 0.202014 0.704776 -0.60745
O_ O_ 0.843979 0.202027 0.715412 -0.60745
O_ O_ 0.60123 0.202964 0.772818 -0.60745
O_ O_ 0.836854 0.211108 0.782551 -0.60745
Zn Zn 0.625189 0.75134 0.281448 0.9476
Zn Zn 0.873556 0.751531 0.284528 0.9476
Zn Zn 0.62396 0.749269 0.212754 0.9476
Zn Zn 0.873972 0.753059 0.21455 0.9476
H_ H_ 0.523858 0.913779 0.18374 0.10932
H_ H_ 0.78418 0.912767 0.175136 0.10932
H_ H_ 0.572941 0.857909 0.31494 0.10932
H_ H_ 0.811879 0.857754 0.315824 0.10932
H_ H_ 0.556237 0.851545 0.180549 0.10932
H_ H_ 0.806948 0.847531 0.178998 0.10932
H_ H_ 0.550948 0.928461 0.312042 0.10932
H_ H_ 0.779019 0.917381 0.308824 0.10932
H_ H_ 0.703948 0.927451 0.308716 0.10932
H_ H_ 0.962495 0.928039 0.313407 0.10932
H_ H_ 0.698354 0.842937 0.180408 0.10932
H_ H_ 0.93295 0.851728 0.18669 0.10932
H_ H_ 0.671195 0.86684 0.308124 0.10932
H_ H_ 0.925928 0.866529 0.314164 0.10932
H_ H_ 0.717092 0.912018 0.178042 0.10932
H_ H_ 0.96417 0.913057 0.179314 0.10932
H_ H_ 0.727221 0.592596 0.308972 0.10932
H_ H_ 0.953587 0.577467 0.312432 0.10932
H_ H_ 0.676544 0.643029 0.181832 0.10932
H_ H_ 0.947473 0.65949 0.181643 0.10932
H_ H_ 0.693296 0.647355 0.314574 0.10932
H_ H_ 0.927697 0.645656 0.310776 0.10932
H_ H_ 0.7064 0.576903 0.1789 0.10932
H_ H_ 0.974097 0.589294 0.182242 0.10932
H_ H_ 0.532547 0.584278 0.182507 0.10932
H_ H_ 0.767718 0.59746 0.18949 0.10932
H_ H_ 0.563944 0.651093 0.315992 0.10932
H_ H_ 0.831642 0.629627 0.310541 0.10932
H_ H_ 0.560711 0.646261 0.181509 0.10932
H_ H_ 0.794636 0.664684 0.186787 0.10932
H_ H_ 0.532144 0.586569 0.316635 0.10932
H_ H_ 0.795836 0.573164 0.310441 0.10932
H_ H_ 0.616652 0.69209 0.362175 0.10932
H_ H_ 0.873109 0.817467 0.357942 0.10932
H_ H_ 0.638918 0.817029 0.351003 0.10932
H_ H_ 0.872469 0.687634 0.361656 0.10932
H_ H_ 0.637363 0.829095 0.4277 0.10932
H_ H_ 0.869396 0.69019 0.438502 0.10932
H_ H_ 0.608084 0.699447 0.437011 0.10932
H_ H_ 0.876751 0.822307 0.432508 0.10932
H_ H_ 0.6301 0.685808 0.145524 0.10932
H_ H_ 0.859571 0.688315 0.133442 0.10932
H_ H_ 0.615829 0.812286 0.136716 0.10932
H_ H_ 0.878202 0.819261 0.144671 0.10932
H_ H_ 0.623295 0.810552 0.0573537 0.10932
H_ H_ 0.881775 0.827593 0.0709639 0.10932
H_ H_ 0.63838 0.676947 0.066187 0.10932
H_ H_ 0.875512 0.691923 0.0581439 0.10932
C_ C_ 0.567469 0.848487 0.24707 -0.02249
C_ C_ 0.812643 0.846633 0.24722 -0.02249
C_ C_ 0.514826 0.963295 0.247937 -0.02249
C_ C_ 0.764605 0.962356 0.244112 -0.02249
C_ C_ 0.535367 0.901506 0.212588 -0.11473
C_ C_ 0.787391 0.900156 0.205863 -0.11473
C_ C_ 0.563344 0.869887 0.286073 -0.11473
C_ C_ 0.804163 0.867072 0.284595 -0.11473
C_ C_ 0.553831 0.866624 0.210177 -0.11473
C_ C_ 0.804769 0.864927 0.208373 -0.11473
C_ C_ 0.532067 0.922911 0.250256 -0.02249
C_ C_ 0.778944 0.921139 0.242455 -0.02249
C_ C_ 0.587061 0.81047 0.243975 0.6875
C_ C_ 0.835781 0.812094 0.250225 0.6875
C_ C_ 0.547599 0.908198 0.286489 -0.11473
C_ C_ 0.785846 0.901883 0.281722 -0.11473
C_ C_ 0.685083 0.845947 0.246708 -0.02249
C_ C_ 0.931484 0.851418 0.251414 -0.02249
C_ C_ 0.732925 0.963206 0.240466 -0.02249
C_ C_ 0.982199 0.965303 0.247255 -0.02249
C_ C_ 0.70288 0.90835 0.281377 -0.11473
C_ C_ 0.95527 0.91154 0.286391 -0.11473
C_ C_ 0.697966 0.859662 0.210114 -0.11473
C_ C_ 0.94176 0.866909 0.213752 -0.11473
C_ C_ 0.687695 0.870989 0.282893 -0.11473
C_ C_ 0.937713 0.875437 0.287033 -0.11473
C_ C_ 0.714453 0.923835 0.244549 -0.02249
C_ C_ 0.96364 0.926837 0.247532 -0.02249
C_ C_ 0.66542 0.808771 0.247067 0.6875
C_ C_ 0.912289 0.812712 0.250797 0.6875
C_ C_ 0.711475 0.900097 0.208609 -0.11473
C_ C_ 0.95688 0.903752 0.210844 -0.11473
C_ C_ 0.684807 0.654421 0.246427 -0.02249
C_ C_ 0.935424 0.655901 0.247307 -0.02249
C_ C_ 0.733421 0.538295 0.243501 -0.02249
C_ C_ 0.984843 0.539956 0.254266 -0.02249
C_ C_ 0.7188 0.605254 0.279039 -0.11473
C_ C_ 0.953608 0.596236 0.284324 -0.11473
C_ C_ 0.688419 0.631076 0.209474 -0.11473
C_ C_ 0.948953 0.640811 0.209749 -0.11473
C_ C_ 0.701227 0.640374 0.282767 -0.11473
C_ C_ 0.937863 0.633512 0.283457 -0.11473
C_ C_ 0.717523 0.579206 0.244838 -0.02249
C_ C_ 0.968377 0.581367 0.249218 -0.02249
C_ C_ 0.664732 0.691587 0.248224 0.6875
C_ C_ 0.915488 0.692813 0.247385 0.6875
C_ C_ 0.704151 0.594885 0.208131 -0.11473
C_ C_ 0.965352 0.603224 0.211317 -0.11473
C_ C_ 0.562616 0.656706 0.248962 -0.02249
C_ C_ 0.817187 0.653275 0.246758 -0.02249
C_ C_ 0.513162 0.539285 0.250603 -0.02249
C_ C_ 0.766137 0.539214 0.244306 -0.02249
C_ C_ 0.53928 0.597811 0.211635 -0.11473
C_ C_ 0.782367 0.605149 0.213055 -0.11473
C_ C_ 0.554431 0.637417 0.28754 -0.11473
C_ C_ 0.815809 0.62768 0.282693 -0.11473
C_ C_ 0.554162 0.634686 0.212054 -0.11473
C_ C_ 0.799442 0.641923 0.212218 -0.11473
C_ C_ 0.528936 0.580711 0.250313 -0.02249
C_ C_ 0.782201 0.578712 0.247341 -0.02249
C_ C_ 0.582827 0.692845 0.250433 0.6875
C_ C_ 0.833961 0.693127 0.247839 0.6875
C_ C_ 0.536628 0.601247 0.287992 -0.11473
C_ C_ 0.796301 0.593625 0.284043 -0.11473
C_ C_ 0.618093 0.722818 0.375441 0.17695
C_ C_ 0.871811 0.788698 0.375007 0.17695
C_ C_ 0.632737 0.792087 0.369771 0.17695
C_ C_ 0.872643 0.717043 0.377914 0.17695
C_ C_ 0.631855 0.797858 0.413664 -0.11473
C_ C_ 0.873463 0.71779 0.421677 -0.11473
C_ C_ 0.623326 0.764053 0.440221 0.23465
C_ C_ 0.872738 0.754481 0.444478 0.23465
C_ C_ 0.61705 0.725362 0.420603 -0.11473
C_ C_ 0.874568 0.790254 0.418567 -0.11473
C_ C_ 0.628622 0.712444 0.123989 0.17695
C_ C_ 0.868082 0.718726 0.119252 0.17695
C_ C_ 0.622297 0.78388 0.120186 0.17695
C_ C_ 0.875983 0.790954 0.12551 0.17695
C_ C_ 0.626515 0.783093 0.0769148 -0.11473
C_ C_ 0.877354 0.794802 0.0814008 -0.11473
C_ C_ 0.629578 0.743053 0.0560921 0.23465
C_ C_ 0.874913 0.7609 0.0549176 0.23465
C_ C_ 0.634587 0.707791 0.0818478 -0.11473
C_ C_ 0.871493 0.720652 0.075453 -0.11473
C_ C_ 0.531122 0.999522756 0.255209 0.05793
C_ C_ 0.7822 0.99782515 0.242386 0.05793
C_ C_ 0.718603 0.502023 0.252315 0.05793
C_ C_ 0.968343 0.50134 0.250309 0.05793
Br Br 0.574868 0.999007889 0.258581 -0.17191
Br Br 0.826457 0.996574 0.245153 -0.17191
Br Br 0.67507 0.505887 0.25876 -0.17191
Br Br 0.92516 0.501146 0.242362 -0.17191
N_ N_ 0.625853 0.755838 0.352004 -0.272
N_ N_ 0.870191 0.752479 0.354839 -0.272
N_ N_ 0.625945 0.767508 0.484362 -0.12501
N_ N_ 0.869112 0.756573 0.488526 -0.12501
N_ N_ 0.623339 0.74835 0.142988 -0.272
N_ N_ 0.875097 0.752669 0.144045 -0.272
N_ N_ 0.633302 0.738355 0.0110512 -0.12501
N_ N_ 0.878743 0.766366 0.0104068 -0.12501
O_ O_ 0.591302 0.791976 0.20962 -0.60745
O_ O_ 0.843384 0.79379 0.217045 -0.60745
O_ O_ 0.594958 0.793211 0.278314 -0.60745
O_ O_ 0.840583 0.794206 0.285842 -0.60745
O_ O_ 0.656486 0.793769 0.280862 -0.60745
O_ O_ 0.901785 0.798199 0.28499 -0.60745
O_ O_ 0.657032 0.790707 0.213493 -0.60745
O_ O_ 0.903917 0.798158 0.215013 -0.60745
O_ O_ 0.653872 0.705017 0.281715 -0.60745
O_ O_ 0.906937 0.710718 0.281101 -0.60745
O_ O_ 0.655157 0.706074 0.214366 -0.60745
O_ O_ 0.906088 0.706887 0.21262 -0.60745
O_ O_ 0.589756 0.711648 0.216021 -0.60745
O_ O_ 0.842953 0.710393 0.215612 -0.60745
O_ O_ 0.592365 0.707975 0.285114 -0.60745
O_ O_ 0.843883 0.702898 0.283231 -0.60745
Zn Zn 0.62632 0.749763 0.781872 0.9476
Zn Zn 0.878216 0.749269 0.784584 0.9476
Zn Zn 0.622186 0.745397 0.712501 0.9476
Zn Zn 0.876518 0.747721 0.716516 0.9476
H_ H_ 0.542385 0.929304 0.680073 0.10932
H_ H_ 0.782196 0.914217 0.679598 0.10932
H_ H_ 0.550829 0.842191 0.807471 0.10932
H_ H_ 0.822257 0.854685 0.813527 0.10932
H_ H_ 0.579466 0.866388 0.680591 0.10932
H_ H_ 0.814727 0.853171 0.679395 0.10932
H_ H_ 0.521044 0.904178 0.805442 0.10932
H_ H_ 0.781023 0.907992 0.815679 0.10932
H_ H_ 0.714039 0.914246 0.813745 0.10932
H_ H_ 0.957313 0.926249 0.816568 0.10932
H_ H_ 0.673495 0.859801 0.679982 0.10932
H_ H_ 0.94646 0.841563 0.68425 0.10932
H_ H_ 0.687314 0.848371 0.81197 0.10932
H_ H_ 0.930238 0.862311 0.816987 0.10932
H_ H_ 0.703364 0.928656 0.677525 0.10932
H_ H_ 0.974832 0.91032 0.684461 0.10932
H_ H_ 0.707343 0.569708 0.805413 0.10932
H_ H_ 0.980362 0.594918 0.817922 0.10932
H_ H_ 0.688006 0.660013 0.677742 0.10932
H_ H_ 0.925496 0.636334 0.693485 0.10932
H_ H_ 0.678484 0.632496 0.811904 0.10932
H_ H_ 0.951472 0.655732 0.820696 0.10932
H_ H_ 0.718396 0.593413 0.67533 0.10932
H_ H_ 0.951253 0.572894 0.692408 0.10932
H_ H_ 0.519215 0.590567 0.6807 0.10932
H_ H_ 0.803451 0.57293 0.676741 0.10932
H_ H_ 0.581462 0.625796 0.805043 0.10932
H_ H_ 0.811697 0.645855 0.810338 0.10932
H_ H_ 0.542408 0.661495 0.685644 0.10932
H_ H_ 0.831335 0.637954 0.677664 0.10932
H_ H_ 0.551977 0.561092 0.805392 0.10932
H_ H_ 0.775942 0.589909 0.803145 0.10932
H_ H_ 0.623905 0.688749 0.857567 0.10932
H_ H_ 0.875203 0.678213 0.859909 0.10932
H_ H_ 0.62533 0.819197 0.853568 0.10932
H_ H_ 0.880238 0.807386 0.852908 0.10932
H_ H_ 0.621995 0.826059 0.926864 0.10932
H_ H_ 0.88084 0.809776 0.935301 0.10932
H_ H_ 0.620711 0.692191 0.935412 0.10932
H_ H_ 0.86202 0.680785 0.932365 0.10932
H_ H_ 0.62514 0.67844 0.644641 0.10932
H_ H_ 0.876187 0.800745 0.640379 0.10932
H_ H_ 0.62546 0.810801 0.63374 0.10932
H_ H_ 0.880391 0.67431 0.647779 0.10932
H_ H_ 0.630442 0.807545 0.558367 0.10932
H_ H_ 0.889816 0.671933 0.570594 0.10932
H_ H_ 0.625274 0.673303 0.566271 0.10932
H_ H_ 0.872422 0.798627 0.562029 0.10932
C_ C_ 0.56527 0.845347 0.741809 -0.02249
C_ C_ 0.816619 0.844973 0.748434 -0.02249
C_ C_ 0.514599 0.963436 0.746391 -0.02249
C_ C_ 0.763357 0.958484 0.747163 -0.02249
C_ C_ 0.548111 0.912643 0.70825 -0.11473
C_ C_ 0.78951 0.899792 0.70964 -0.11473
C_ C_ 0.550653 0.859057 0.778375 -0.11473
C_ C_ 0.80882 0.862374 0.785748 -0.11473
C_ C_ 0.564553 0.873387 0.706565 -0.11473
C_ C_ 0.808831 0.866151 0.710683 -0.11473
C_ C_ 0.531206 0.923071 0.745066 -0.02249
C_ C_ 0.780429 0.917879 0.747365 -0.02249
C_ C_ 0.585668 0.80831 0.742053 0.6875
C_ C_ 0.838386 0.809099 0.747205 0.6875
C_ C_ 0.534331 0.896918 0.779171 -0.11473
C_ C_ 0.788178 0.896229 0.786087 -0.11473
C_ C_ 0.679036 0.848491 0.744545 -0.02249
C_ C_ 0.936134 0.846325 0.751301 -0.02249
C_ C_ 0.73063 0.961573 0.74809 -0.02249
C_ C_ 0.982255 0.96435 0.744976 -0.02249
C_ C_ 0.70582 0.901978 0.783557 -0.11473
C_ C_ 0.954047 0.909448 0.786698 -0.11473
C_ C_ 0.681959 0.873994 0.708549 -0.11473
C_ C_ 0.946434 0.861869 0.712301 -0.11473
C_ C_ 0.689779 0.865015 0.782818 -0.11473
C_ C_ 0.941059 0.870843 0.788517 -0.11473
C_ C_ 0.710636 0.924854 0.745795 -0.02249
C_ C_ 0.963781 0.925422 0.74718 -0.02249
C_ C_ 0.663431 0.808043 0.743391 0.6875
C_ C_ 0.91506 0.810571 0.751427 0.6875
C_ C_ 0.699411 0.910514 0.7075 -0.11473
C_ C_ 0.961708 0.899805 0.710264 -0.11473
C_ C_ 0.683079 0.653116 0.747494 -0.02249
C_ C_ 0.934743 0.651796 0.755397 -0.02249
C_ C_ 0.732929 0.540052 0.736123 -0.02249
C_ C_ 0.984295 0.532836 0.761689 -0.02249
C_ C_ 0.703618 0.588976 0.777905 -0.11473
C_ C_ 0.967892 0.601188 0.79244 -0.11473
C_ C_ 0.694822 0.641714 0.706735 -0.11473
C_ C_ 0.938357 0.627298 0.721261 -0.11473
C_ C_ 0.686669 0.624639 0.78211 -0.11473
C_ C_ 0.950266 0.636752 0.791516 -0.11473
C_ C_ 0.71558 0.578934 0.739692 -0.02249
C_ C_ 0.966002 0.57316 0.758351 -0.02249
C_ C_ 0.664296 0.690686 0.752131 0.6875
C_ C_ 0.92005 0.692862 0.754001 0.6875
C_ C_ 0.711137 0.604492 0.704782 -0.11473
C_ C_ 0.95219 0.588693 0.721314 -0.11473
C_ C_ 0.563692 0.650214 0.745786 -0.02249
C_ C_ 0.822021 0.648284 0.745584 -0.02249
C_ C_ 0.515732 0.535651 0.743547 -0.02249
C_ C_ 0.764801 0.541204 0.737312 -0.02249
C_ C_ 0.532082 0.600388 0.708052 -0.11473
C_ C_ 0.802265 0.589233 0.705716 -0.11473
C_ C_ 0.565024 0.623142 0.780676 -0.11473
C_ C_ 0.806837 0.63311 0.78109 -0.11473
C_ C_ 0.546079 0.640573 0.711217 -0.11473
C_ C_ 0.819118 0.626369 0.706797 -0.11473
C_ C_ 0.531288 0.575564 0.743465 -0.02249
C_ C_ 0.781851 0.58029 0.737275 -0.02249
C_ C_ 0.584085 0.688313 0.746516 0.6875
C_ C_ 0.842659 0.685029 0.747649 0.6875
C_ C_ 0.549738 0.585174 0.778374 -0.11473
C_ C_ 0.785288 0.602415 0.776008 -0.11473
C_ C_ 0.625147 0.718447 0.875525 0.17695
C_ C_ 0.873146 0.707188 0.874686 0.17695
C_ C_ 0.625397 0.790728 0.871315 0.17695
C_ C_ 0.87559 0.780473 0.870953 0.17695
C_ C_ 0.626608 0.794943 0.914327 -0.11473
C_ C_ 0.876144 0.781108 0.91665 -0.11473
C_ C_ 0.626854 0.758795 0.939114 0.23465
C_ C_ 0.872145 0.74506 0.939685 0.23465
C_ C_ 0.625266 0.720071 0.919032 -0.11473
C_ C_ 0.87033 0.707939 0.917633 -0.11473
C_ C_ 0.624937 0.706871 0.623349 0.17695
C_ C_ 0.873558 0.772411 0.624384 0.17695
C_ C_ 0.62449 0.780152 0.618752 0.17695
C_ C_ 0.874261 0.700456 0.627083 0.17695
C_ C_ 0.626531 0.779159 0.574556 -0.11473
C_ C_ 0.877692 0.696728 0.583247 -0.11473
C_ C_ 0.62742 0.739652 0.553577 0.23465
C_ C_ 0.875335 0.732769 0.558464 0.23465
C_ C_ 0.623823 0.703387 0.579522 -0.11473
C_ C_ 0.873426 0.771054 0.579884 -0.11473
C_ C_ 0.531214 0.00196208 0.747381 0.05793
C_ C_ 0.781432 -0.005163000000000029 0.750175 0.05793
C_ C_ 0.717727 0.501794 0.736344 0.05793
C_ C_ 0.970524 0.49464 0.767019 0.05793
Br Br 0.573814 -0.0033290000000000264 0.75376 -0.17191
Br Br 0.824104 0.992244 0.753666 -0.17191
Br Br 0.675178 0.50129 0.727958 -0.17191
Br Br 0.927092 0.494632 0.77593 -0.17191
N_ N_ 0.626509 0.753494 0.852689 -0.272
N_ N_ 0.875213 0.743491 0.851224 -0.272
N_ N_ 0.623528 0.763903 0.984008 -0.12501
N_ N_ 0.864664 0.746365 0.983193 -0.12501
N_ N_ 0.624964 0.745047 0.641895 -0.272
N_ N_ 0.87378 0.738938 0.647091 -0.272
N_ N_ 0.624858 0.737251 0.508466 -0.12501
N_ N_ 0.880138 0.730853 0.514283 -0.12501
O_ O_ 0.591173 0.787127 0.709586 -0.60745
O_ O_ 0.843775 0.791305 0.713767 -0.60745
O_ O_ 0.596264 0.796626 0.777756 -0.60745
O_ O_ 0.845682 0.790705 0.78188 -0.60745
O_ O_ 0.658944 0.789809 0.778265 -0.60745
O_ O_ 0.908528 0.794477 0.78582 -0.60745
O_ O_ 0.650974 0.794633 0.70942 -0.60745
O_ O_ 0.902308 0.79787 0.718788 -0.60745
O_ O_ 0.65507 0.704127 0.786952 -0.60745
O_ O_ 0.909234 0.705879 0.789147 -0.60745
O_ O_ 0.654212 0.706401 0.718428 -0.60745
O_ O_ 0.909425 0.70478 0.719038 -0.60745
O_ O_ 0.594634 0.701122 0.711785 -0.60745
O_ O_ 0.853931 0.700443 0.715031 -0.60745
O_ O_ 0.593267 0.704197 0.781269 -0.60745
O_ O_ 0.851403 0.700799 0.783488 -0.60745
