_cell_length_a 44.444
_cell_length_b 32.3360000049186
_cell_length_c 31.843999878906452
_cell_angle_alpha 89.99799923859553
_cell_angle_beta 91.13600050494348
_cell_angle_gamma 89.9990006550086
_symmetry_space_group_name_H-M         'P 1'
_symmetry_Int_Tables_number            1
loop_
_symmetry_equiv_pos_as_xyz
   'x, y, z'
                         
loop_
_atom_site_label
_atom_site_type_symbol
_atom_site_fract_x 
_atom_site_fract_y
_atom_site_fract_z
_atom_site_charge
Zn Zn 0.124852 0.249768 0.291229 0.9476
Zn Zn 0.378184 0.249069 0.286632 0.9476
Zn Zn 0.123724 0.24937 0.220908 0.9476
Zn Zn 0.374909 0.245911 0.217613 0.9476
H_ H_ 0.0329603 0.418034 0.181155 0.10932
H_ H_ 0.28751 0.418517 0.186096 0.10932
H_ H_ 0.0688945 0.358968 0.316532 0.10932
H_ H_ 0.307093 0.345356 0.319104 0.10932
H_ H_ 0.0613809 0.350296 0.182516 0.10932
H_ H_ 0.319881 0.360685 0.184352 0.10932
H_ H_ 0.0367443 0.422146 0.316145 0.10932
H_ H_ 0.283315 0.410454 0.321781 0.10932
H_ H_ 0.232475 0.398508 0.317617 0.10932
H_ H_ 0.454937 0.427909 0.306153 0.10932
H_ H_ 0.166525 0.368954 0.194427 0.10932
H_ H_ 0.451362 0.332604 0.187031 0.10932
H_ H_ 0.20304 0.336113 0.316813 0.10932
H_ H_ 0.421326 0.370172 0.307027 0.10932
H_ H_ 0.199642 0.432797 0.193919 0.10932
H_ H_ 0.47991 0.397536 0.179622 0.10932
H_ H_ 0.21025 0.0777782 0.32144 0.10932
H_ H_ 0.469499 0.0752687 0.308403 0.10932
H_ H_ 0.189138 0.155902 0.192849 0.10932
H_ H_ 0.44815 0.164206 0.181738 0.10932
H_ H_ 0.182229 0.143831 0.327861 0.10932
H_ H_ 0.433952 0.133525 0.3142 0.10932
H_ H_ 0.20885 0.0858188 0.188286 0.10932
H_ H_ 0.474166 0.0933667 0.177394 0.10932
H_ H_ 0.0457972 0.0683455 0.1984 0.10932
H_ H_ 0.296419 0.0740682 0.179847 0.10932
H_ H_ 0.0503264 0.159345 0.320497 0.10932
H_ H_ 0.303915 0.156509 0.313646 0.10932
H_ H_ 0.0719183 0.136706 0.190221 0.10932
H_ H_ 0.311415 0.146719 0.183076 0.10932
H_ H_ 0.0250996 0.090194 0.323209 0.10932
H_ H_ 0.274272 0.0879098 0.312619 0.10932
H_ H_ 0.131304 0.184304 0.370058 0.10932
H_ H_ 0.385503 0.182223 0.353773 0.10932
H_ H_ 0.122305 0.312832 0.361302 0.10932
H_ H_ 0.369921 0.311254 0.369063 0.10932
H_ H_ 0.133788 0.322742 0.437484 0.10932
H_ H_ 0.376776 0.304423 0.447556 0.10932
H_ H_ 0.125881 0.188201 0.446407 0.10932
H_ H_ 0.385501 0.172703 0.430306 0.10932
H_ H_ 0.122728 0.317404 0.149698 0.10932
H_ H_ 0.41011 0.206703 0.137001 0.10932
H_ H_ 0.118551 0.185699 0.140887 0.10932
H_ H_ 0.33867 0.289529 0.145473 0.10932
H_ H_ 0.116952 0.193278 0.0609789 0.10932
H_ H_ 0.332023 0.292349 0.0675173 0.10932
H_ H_ 0.119748 0.323163 0.0732694 0.10932
H_ H_ 0.407693 0.210504 0.058398 0.10932
C_ C_ 0.0663836 0.348984 0.24935 -0.02249
C_ C_ 0.314305 0.343126 0.250152 -0.02249
C_ C_ 0.0154899 0.463951 0.248576 -0.02249
C_ C_ 0.267264 0.461116 0.254284 -0.02249
C_ C_ 0.0390449 0.402196 0.2108 -0.11473
C_ C_ 0.293396 0.404132 0.214512 -0.11473
C_ C_ 0.0591517 0.368957 0.286244 -0.11473
C_ C_ 0.306433 0.36246 0.288857 -0.11473
C_ C_ 0.0585216 0.369086 0.210861 -0.11473
C_ C_ 0.308757 0.366901 0.213203 -0.11473
C_ C_ 0.0337639 0.424517 0.248792 -0.02249
C_ C_ 0.284374 0.421681 0.252275 -0.02249
C_ C_ 0.0821059 0.308516 0.250809 0.6875
C_ C_ 0.338479 0.30995 0.25029 0.6875
C_ C_ 0.0407119 0.40467 0.285773 -0.11473
C_ C_ 0.29153 0.400478 0.289515 -0.11473
C_ C_ 0.180558 0.351643 0.256212 -0.02249
C_ C_ 0.435521 0.345263 0.247898 -0.02249
C_ C_ 0.235413 0.459663 0.258949 -0.02249
C_ C_ 0.485389 0.459656 0.240244 -0.02249
C_ C_ 0.21577 0.394324 0.292066 -0.11473
C_ C_ 0.452086 0.409847 0.278955 -0.11473
C_ C_ 0.180808 0.377894 0.221431 -0.11473
C_ C_ 0.453057 0.354866 0.212912 -0.11473
C_ C_ 0.197165 0.359914 0.292983 -0.11473
C_ C_ 0.433053 0.376698 0.278029 -0.11473
C_ C_ 0.218209 0.419794 0.25628 -0.02249
C_ C_ 0.469435 0.419128 0.243783 -0.02249
C_ C_ 0.160957 0.314024 0.255003 0.6875
C_ C_ 0.417163 0.305846 0.250813 0.6875
C_ C_ 0.201239 0.410475 0.220591 -0.11473
C_ C_ 0.467308 0.391459 0.208522 -0.11473
C_ C_ 0.185524 0.156591 0.260668 -0.02249
C_ C_ 0.436782 0.152854 0.248126 -0.02249
C_ C_ 0.232617 0.0373735 0.251533 -0.02249
C_ C_ 0.486895 0.0381228 0.238545 -0.02249
C_ C_ 0.206348 0.0952097 0.293918 -0.11473
C_ C_ 0.463608 0.0924262 0.281093 -0.11473
C_ C_ 0.195525 0.141865 0.221669 -0.11473
C_ C_ 0.449337 0.141518 0.207263 -0.11473
C_ C_ 0.190381 0.131966 0.296851 -0.11473
C_ C_ 0.443757 0.126324 0.283653 -0.11473
C_ C_ 0.215558 0.0781021 0.256754 -0.02249
C_ C_ 0.47129 0.078464 0.241349 -0.02249
C_ C_ 0.165776 0.193672 0.258959 0.6875
C_ C_ 0.413792 0.185914 0.249207 0.6875
C_ C_ 0.208349 0.10096 0.218681 -0.11473
C_ C_ 0.463601 0.1021 0.205349 -0.11473
C_ C_ 0.0635065 0.153684 0.25498 -0.02249
C_ C_ 0.31508 0.150474 0.249622 -0.02249
C_ C_ 0.0184864 0.0351825 0.264169 -0.02249
C_ C_ 0.26335 0.0361515 0.244642 -0.02249
C_ C_ 0.0485921 0.0885267 0.224651 -0.11473
C_ C_ 0.297611 0.090018 0.209647 -0.11473
C_ C_ 0.0479039 0.141702 0.292126 -0.11473
C_ C_ 0.301972 0.135306 0.286821 -0.11473
C_ C_ 0.061506 0.127312 0.219813 -0.11473
C_ C_ 0.31001 0.129882 0.211015 -0.11473
C_ C_ 0.0387534 0.0730292 0.262977 -0.02249
C_ C_ 0.280752 0.0765111 0.245545 -0.02249
C_ C_ 0.08473 0.190976 0.255475 0.6875
C_ C_ 0.336083 0.186836 0.25002 0.6875
C_ C_ 0.0374275 0.100185 0.296435 -0.11473
C_ C_ 0.283729 0.0996613 0.284112 -0.11473
C_ C_ 0.130547 0.213455 0.384267 0.17695
C_ C_ 0.38064 0.207918 0.374026 0.17695
C_ C_ 0.128804 0.2864 0.381276 0.17695
C_ C_ 0.377166 0.280949 0.382821 0.17695
C_ C_ 0.132852 0.291058 0.425165 -0.11473
C_ C_ 0.379393 0.276119 0.42785 -0.11473
C_ C_ 0.133437 0.253892 0.448897 0.23465
C_ C_ 0.378686 0.236262 0.445422 0.23465
C_ C_ 0.129753 0.216527 0.428055 -0.11473
C_ C_ 0.380362 0.201509 0.417966 -0.11473
C_ C_ 0.124501 0.289918 0.1304 0.17695
C_ C_ 0.392705 0.223511 0.120803 0.17695
C_ C_ 0.121843 0.216759 0.125567 0.17695
C_ C_ 0.352233 0.269001 0.127488 0.17695
C_ C_ 0.119411 0.219879 0.0804464 -0.11473
C_ C_ 0.348837 0.272259 0.0823601 -0.11473
C_ C_ 0.119641 0.257965 0.0603433 0.23465
C_ C_ 0.369217 0.250782 0.0579324 0.23465
C_ C_ 0.121627 0.293664 0.0871427 -0.11473
C_ C_ 0.390812 0.22508 0.0770567 -0.11473
C_ C_ 0.0305037 0.500873 0.242813 0.05793
C_ C_ 0.282668 0.499838 0.259169 0.05793
C_ C_ 0.215648 -0.0007160000000000499 0.253508 0.05793
C_ C_ 0.471115 1.000495174 0.236407 0.05793
Br Br 0.0754508 0.501405 0.23995 -0.17191
Br Br 0.325454 0.499305 0.260865 -0.17191
Br Br 0.173745 0.0011600000000000499 0.242169 -0.17191
Br Br 0.42817 1.00364771 0.232416 -0.17191
N_ N_ 0.128563 0.249149 0.36212 -0.272
N_ N_ 0.381106 0.247834 0.357454 -0.272
N_ N_ 0.137127 0.256943 0.494149 -0.12501
N_ N_ 0.381063 0.232245 0.48999 -0.12501
N_ N_ 0.123003 0.252634 0.149699 -0.272
N_ N_ 0.374087 0.246779 0.145407 -0.272
N_ N_ 0.117628 0.264656 0.0152508 -0.12501
N_ N_ 0.366891 0.255188 0.0131516 -0.12501
O_ O_ 0.0898244 0.291547 0.21719 -0.60745
O_ O_ 0.347853 0.296979 0.2173 -0.60745
O_ O_ 0.0931772 0.293069 0.285819 -0.60745
O_ O_ 0.345502 0.291389 0.284676 -0.60745
O_ O_ 0.152686 0.29867 0.289472 -0.60745
O_ O_ 0.408774 0.292318 0.285676 -0.60745
O_ O_ 0.152276 0.295588 0.221396 -0.60745
O_ O_ 0.407197 0.287803 0.219035 -0.60745
O_ O_ 0.155251 0.206959 0.294191 -0.60745
O_ O_ 0.4097 0.204849 0.283064 -0.60745
O_ O_ 0.155872 0.207926 0.223577 -0.60745
O_ O_ 0.404578 0.202002 0.216061 -0.60745
O_ O_ 0.0963767 0.201982 0.221577 -0.60745
O_ O_ 0.34529 0.202268 0.216119 -0.60745
O_ O_ 0.0944459 0.207115 0.289782 -0.60745
O_ O_ 0.346582 0.20242 0.284992 -0.60745
Zn Zn 0.122204 0.253106 0.787485 0.9476
Zn Zn 0.374705 0.249136 0.784452 0.9476
Zn Zn 0.127004 0.250869 0.722464 0.9476
Zn Zn 0.377973 0.248942 0.71505 0.9476
H_ H_ 0.0574775 0.43441 0.697247 0.10932
H_ H_ 0.286575 0.426129 0.691188 0.10932
H_ H_ 0.0453958 0.34633 0.821352 0.10932
H_ H_ 0.315421 0.35289 0.820994 0.10932
H_ H_ 0.0786249 0.368477 0.693179 0.10932
H_ H_ 0.320132 0.359343 0.686299 0.10932
H_ H_ 0.0136394 0.410727 0.812041 0.10932
H_ H_ 0.278465 0.409823 0.822996 0.10932
H_ H_ 0.205902 0.427011 0.821842 0.10932
H_ H_ 0.453306 0.422591 0.81623 0.10932
H_ H_ 0.188533 0.353406 0.687452 0.10932
H_ H_ 0.430511 0.356308 0.680557 0.10932
H_ H_ 0.177505 0.360444 0.82117 0.10932
H_ H_ 0.436099 0.346211 0.81416 0.10932
H_ H_ 0.230657 0.407707 0.693121 0.10932
H_ H_ 0.457174 0.421893 0.683054 0.10932
H_ H_ 0.217963 0.0829106 0.817797 0.10932
H_ H_ 0.453041 0.0714164 0.810199 0.10932
H_ H_ 0.18595 0.152702 0.688994 0.10932
H_ H_ 0.449717 0.160389 0.683328 0.10932
H_ H_ 0.190898 0.147667 0.824677 0.10932
H_ H_ 0.42558 0.142539 0.812378 0.10932
H_ H_ 0.216689 0.0891298 0.68352 0.10932
H_ H_ 0.476757 0.0889383 0.684273 0.10932
H_ H_ 0.0453085 0.0720556 0.690002 0.10932
H_ H_ 0.296691 0.0735064 0.685383 0.10932
H_ H_ 0.0559982 0.156639 0.820588 0.10932
H_ H_ 0.310662 0.149388 0.821461 0.10932
H_ H_ 0.072562 0.137808 0.686865 0.10932
H_ H_ 0.332699 0.133174 0.691095 0.10932
H_ H_ 0.0340167 0.0885909 0.825877 0.10932
H_ H_ 0.27722 0.0905912 0.816921 0.10932
H_ H_ 0.106098 0.309974 0.870507 0.10932
H_ H_ 0.366528 0.309377 0.864815 0.10932
H_ H_ 0.133273 0.183001 0.855644 0.10932
H_ H_ 0.393079 0.184571 0.855281 0.10932
H_ H_ 0.132025 0.17661 0.933823 0.10932
H_ H_ 0.387523 0.176493 0.926817 0.10932
H_ H_ 0.113225 0.304263 0.947795 0.10932
H_ H_ 0.363858 0.30271 0.940835 0.10932
H_ H_ 0.129399 0.180495 0.652721 0.10932
H_ H_ 0.384599 0.187925 0.638199 0.10932
H_ H_ 0.132795 0.31252 0.642697 0.10932
H_ H_ 0.367404 0.316093 0.645338 0.10932
H_ H_ 0.132901 0.307538 0.566049 0.10932
H_ H_ 0.358288 0.316678 0.565667 0.10932
H_ H_ 0.131435 0.176383 0.577008 0.10932
H_ H_ 0.373519 0.186435 0.561497 0.10932
C_ C_ 0.0625666 0.348404 0.756307 -0.02249
C_ C_ 0.319714 0.348705 0.754624 -0.02249
C_ C_ 0.0142579 0.466879 0.752815 -0.02249
C_ C_ 0.267104 0.46221 0.758032 -0.02249
C_ C_ 0.0497182 0.414109 0.72094 -0.11473
C_ C_ 0.293833 0.405381 0.717777 -0.11473
C_ C_ 0.0469324 0.363758 0.791929 -0.11473
C_ C_ 0.307416 0.363352 0.792211 -0.11473
C_ C_ 0.0637359 0.375458 0.720992 -0.11473
C_ C_ 0.311494 0.369334 0.715638 -0.11473
C_ C_ 0.0321175 0.426319 0.753303 -0.02249
C_ C_ 0.283179 0.421637 0.756007 -0.02249
C_ C_ 0.0812779 0.309821 0.756834 0.6875
C_ C_ 0.336613 0.308789 0.753124 0.6875
C_ C_ 0.029537 0.40101 0.788732 -0.11473
C_ C_ 0.288634 0.398052 0.793126 -0.11473
C_ C_ 0.181663 0.3488 0.754783 -0.02249
C_ C_ 0.435585 0.344372 0.747181 -0.02249
C_ C_ 0.234207 0.461996 0.757448 -0.02249
C_ C_ 0.481678 0.463192 0.74924 -0.02249
C_ C_ 0.203926 0.407348 0.793151 -0.11473
C_ C_ 0.456068 0.402789 0.787342 -0.11473
C_ C_ 0.196731 0.364459 0.718874 -0.11473
C_ C_ 0.438525 0.368423 0.711372 -0.11473
C_ C_ 0.187302 0.371667 0.794008 -0.11473
C_ C_ 0.443218 0.361904 0.785862 -0.11473
C_ C_ 0.217712 0.42214 0.757857 -0.02249
C_ C_ 0.464451 0.424509 0.74986 -0.02249
C_ C_ 0.165167 0.309344 0.755784 0.6875
C_ C_ 0.415711 0.306161 0.743766 0.6875
C_ C_ 0.214248 0.400416 0.718961 -0.11473
C_ C_ 0.45473 0.40596 0.71141 -0.11473
C_ C_ 0.181542 0.153599 0.757483 -0.02249
C_ C_ 0.436744 0.15618 0.747021 -0.02249
C_ C_ 0.233599 0.0421281 0.746867 -0.02249
C_ C_ 0.483461 0.0383585 0.745318 -0.02249
C_ C_ 0.208307 0.0964506 0.790297 -0.11473
C_ C_ 0.451447 0.0926666 0.782246 -0.11473
C_ C_ 0.192108 0.138406 0.718442 -0.11473
C_ C_ 0.453059 0.143543 0.710238 -0.11473
C_ C_ 0.19419 0.135358 0.793743 -0.11473
C_ C_ 0.437271 0.132033 0.784 -0.11473
C_ C_ 0.218725 0.0810268 0.75234 -0.02249
C_ C_ 0.46844 0.0791934 0.746616 -0.02249
C_ C_ 0.163311 0.1924 0.758627 0.6875
C_ C_ 0.416549 0.193717 0.745573 0.6875
C_ C_ 0.209181 0.101654 0.715576 -0.11473
C_ C_ 0.467732 0.103763 0.712207 -0.11473
C_ C_ 0.0651131 0.153574 0.752544 -0.02249
C_ C_ 0.318595 0.151108 0.753381 -0.02249
C_ C_ 0.0161039 0.0379181 0.761164 -0.02249
C_ C_ 0.264157 0.0388926 0.748434 -0.02249
C_ C_ 0.0451387 0.091553 0.717815 -0.11473
C_ C_ 0.298262 0.0917787 0.713599 -0.11473
C_ C_ 0.0530938 0.138566 0.790473 -0.11473
C_ C_ 0.305158 0.135566 0.789754 -0.11473
C_ C_ 0.0630425 0.127328 0.717025 -0.11473
C_ C_ 0.315025 0.129632 0.71517 -0.11473
C_ C_ 0.0343733 0.0765059 0.75768 -0.02249
C_ C_ 0.282473 0.0791318 0.747484 -0.02249
C_ C_ 0.0871124 0.189617 0.753718 0.6875
C_ C_ 0.337212 0.188187 0.754236 0.6875
C_ C_ 0.0392726 0.100592 0.794188 -0.11473
C_ C_ 0.286403 0.101372 0.786888 -0.11473
C_ C_ 0.114234 0.280781 0.88211 0.17695
C_ C_ 0.374972 0.280913 0.87815 0.17695
C_ C_ 0.12556 0.209887 0.874334 0.17695
C_ C_ 0.390679 0.213242 0.873906 0.17695
C_ C_ 0.128184 0.20561 0.918969 -0.11473
C_ C_ 0.386569 0.207357 0.917551 -0.11473
C_ C_ 0.120586 0.239142 0.945018 0.23465
C_ C_ 0.376927 0.239211 0.94292 0.23465
C_ C_ 0.113016 0.276252 0.92662 -0.11473
C_ C_ 0.372731 0.277328 0.923402 -0.11473
C_ C_ 0.128843 0.209154 0.633524 0.17695
C_ C_ 0.376606 0.215299 0.623386 0.17695
C_ C_ 0.132127 0.282143 0.628141 0.17695
C_ C_ 0.365852 0.287859 0.626422 0.17695
C_ C_ 0.133315 0.279194 0.584614 -0.11473
C_ C_ 0.363621 0.288793 0.582199 -0.11473
C_ C_ 0.128497 0.241088 0.564691 0.23465
C_ C_ 0.365387 0.252799 0.55764 0.23465
C_ C_ 0.127303 0.206021 0.589857 -0.11473
C_ C_ 0.371906 0.213684 0.57902 -0.11473
C_ C_ 0.0304772 0.505506 0.758616 0.05793
C_ C_ 0.284099 0.499468 0.756036 0.05793
C_ C_ 0.21743 0.00318344 0.742586 0.05793
C_ C_ 0.466283 1.00276894 0.742327 0.05793
Br Br 0.0689078 0.504355 0.787553 -0.17191
Br Br 0.328112 0.501296 0.757636 -0.17191
Br Br 0.174329 0.00514605 0.748253 -0.17191
Br Br 0.421808 1.0035096 0.735986 -0.17191
N_ N_ 0.122824 0.249115 0.857035 -0.272
N_ N_ 0.383267 0.248597 0.85453 -0.272
N_ N_ 0.121426 0.235733 0.99031 -0.12501
N_ N_ 0.378391 0.232785 0.986215 -0.12501
N_ N_ 0.127699 0.247215 0.651013 -0.272
N_ N_ 0.373261 0.251684 0.645306 -0.272
N_ N_ 0.120114 0.239771 0.520993 -0.12501
N_ N_ 0.366964 0.256412 0.513101 -0.12501
O_ O_ 0.0929192 0.29841 0.721397 -0.60745
O_ O_ 0.345184 0.291483 0.717981 -0.60745
O_ O_ 0.0903857 0.295089 0.790928 -0.60745
O_ O_ 0.345731 0.291674 0.786834 -0.60745
O_ O_ 0.154719 0.296699 0.790705 -0.60745
O_ O_ 0.406385 0.290039 0.777407 -0.60745
O_ O_ 0.156838 0.293824 0.719973 -0.60745
O_ O_ 0.405298 0.295232 0.709543 -0.60745
O_ O_ 0.155955 0.210203 0.792288 -0.60745
O_ O_ 0.405153 0.20611 0.778886 -0.60745
O_ O_ 0.154022 0.208418 0.72435 -0.60745
O_ O_ 0.406715 0.206141 0.710261 -0.60745
O_ O_ 0.0966767 0.202609 0.718077 -0.60745
O_ O_ 0.347751 0.203287 0.719065 -0.60745
O_ O_ 0.0928339 0.207527 0.787313 -0.60745
O_ O_ 0.344514 0.205829 0.789272 -0.60745
Zn Zn 0.125909 0.745296 0.290483 0.9476
Zn Zn 0.376009 0.75086 0.290001 0.9476
Zn Zn 0.126538 0.744736 0.219706 0.9476
Zn Zn 0.374173 0.748208 0.217872 0.9476
H_ H_ 0.0393928 0.921367 0.186099 0.10932
H_ H_ 0.277332 0.91193 0.190379 0.10932
H_ H_ 0.0589054 0.843793 0.31696 0.10932
H_ H_ 0.309405 0.85217 0.325343 0.10932
H_ H_ 0.063784 0.848177 0.18474 0.10932
H_ H_ 0.302258 0.844299 0.190885 0.10932
H_ H_ 0.0248488 0.90494 0.31472 0.10932
H_ H_ 0.280107 0.914138 0.322837 0.10932
H_ H_ 0.213833 0.914487 0.324822 0.10932
H_ H_ 0.484752 0.909686 0.303315 0.10932
H_ H_ 0.192037 0.845485 0.189905 0.10932
H_ H_ 0.419324 0.865211 0.184704 0.10932
H_ H_ 0.184824 0.849961 0.322153 0.10932
H_ H_ 0.456599 0.838738 0.308364 0.10932
H_ H_ 0.21481 0.916801 0.191196 0.10932
H_ H_ 0.451113 0.927375 0.18201 0.10932
H_ H_ 0.224003 0.587979 0.319481 0.10932
H_ H_ 0.444591 0.562887 0.301085 0.10932
H_ H_ 0.177994 0.64061 0.18709 0.10932
H_ H_ 0.452088 0.661548 0.18558 0.10932
H_ H_ 0.185651 0.644308 0.321877 0.10932
H_ H_ 0.419489 0.628757 0.307346 0.10932
H_ H_ 0.205978 0.575206 0.186429 0.10932
H_ H_ 0.478018 0.593414 0.18069 0.10932
H_ H_ 0.0286348 0.591963 0.179271 0.10932
H_ H_ 0.293166 0.574732 0.189693 0.10932
H_ H_ 0.0640676 0.644783 0.314406 0.10932
H_ H_ 0.306056 0.651963 0.320547 0.10932
H_ H_ 0.0555358 0.654813 0.183917 0.10932
H_ H_ 0.321123 0.634267 0.187601 0.10932
H_ H_ 0.0370896 0.577739 0.314224 0.10932
H_ H_ 0.280112 0.58673 0.322809 0.10932
H_ H_ 0.139345 0.801684 0.370662 0.10932
H_ H_ 0.400023 0.812086 0.361769 0.10932
H_ H_ 0.115597 0.677838 0.362853 0.10932
H_ H_ 0.357212 0.696613 0.364408 0.10932
H_ H_ 0.11535 0.674808 0.441543 0.10932
H_ H_ 0.3469 0.705924 0.43855 0.10932
H_ H_ 0.127674 0.803089 0.44841 0.10932
H_ H_ 0.395507 0.817022 0.439936 0.10932
H_ H_ 0.113135 0.681435 0.146282 0.10932
H_ H_ 0.378472 0.814513 0.150484 0.10932
H_ H_ 0.138693 0.808634 0.146782 0.10932
H_ H_ 0.37031 0.686089 0.13973 0.10932
H_ H_ 0.132155 0.812119 0.0701398 0.10932
H_ H_ 0.372328 0.690647 0.0618114 0.10932
H_ H_ 0.108611 0.684121 0.0648476 0.10932
H_ H_ 0.389051 0.821918 0.0731313 0.10932
C_ C_ 0.0673352 0.845142 0.250302 -0.02249
C_ C_ 0.314635 0.846999 0.257248 -0.02249
C_ C_ 0.0159021 0.958422 0.253939 -0.02249
C_ C_ 0.263128 0.960051 0.255568 -0.02249
C_ C_ 0.0416768 0.901578 0.213386 -0.11473
C_ C_ 0.285445 0.897825 0.21901 -0.11473
C_ C_ 0.056043 0.861417 0.287637 -0.11473
C_ C_ 0.306766 0.865894 0.295208 -0.11473
C_ C_ 0.0603068 0.864692 0.212755 -0.11473
C_ C_ 0.302156 0.862775 0.219627 -0.11473
C_ C_ 0.0325153 0.919088 0.251526 -0.02249
C_ C_ 0.280944 0.920091 0.255797 -0.02249
C_ C_ 0.0861901 0.806124 0.252663 0.6875
C_ C_ 0.336383 0.810413 0.257917 0.6875
C_ C_ 0.0369814 0.89656 0.287169 -0.11473
C_ C_ 0.290256 0.902427 0.29363 -0.11473
C_ C_ 0.18307 0.846239 0.255881 -0.02249
C_ C_ 0.438585 0.844106 0.243613 -0.02249
C_ C_ 0.230173 0.961148 0.256691 -0.02249
C_ C_ 0.48556 0.961165 0.237679 -0.02249
C_ C_ 0.20689 0.901363 0.293483 -0.11473
C_ C_ 0.474004 0.89408 0.275471 -0.11473
C_ C_ 0.193058 0.862736 0.218094 -0.11473
C_ C_ 0.435393 0.871606 0.209846 -0.11473
C_ C_ 0.192532 0.863679 0.293878 -0.11473
C_ C_ 0.457349 0.856403 0.278326 -0.11473
C_ C_ 0.212778 0.922776 0.255184 -0.02249
C_ C_ 0.470322 0.921176 0.240888 -0.02249
C_ C_ 0.167067 0.805173 0.254478 0.6875
C_ C_ 0.417874 0.807975 0.248923 0.6875
C_ C_ 0.204433 0.903983 0.218333 -0.11473
C_ C_ 0.45168 0.908192 0.208986 -0.11473
C_ C_ 0.184216 0.648605 0.255562 -0.02249
C_ C_ 0.433363 0.651496 0.247211 -0.02249
C_ C_ 0.233509 0.535106 0.254776 -0.02249
C_ C_ 0.485303 0.534649 0.240061 -0.02249
C_ C_ 0.21245 0.59793 0.291811 -0.11473
C_ C_ 0.451786 0.586127 0.280913 -0.11473
C_ C_ 0.188675 0.629074 0.217006 -0.11473
C_ C_ 0.451247 0.640476 0.213173 -0.11473
C_ C_ 0.193233 0.631084 0.293157 -0.11473
C_ C_ 0.433418 0.622932 0.281183 -0.11473
C_ C_ 0.21719 0.575834 0.253747 -0.02249
C_ C_ 0.468396 0.57469 0.243708 -0.02249
C_ C_ 0.16561 0.686877 0.256548 0.6875
C_ C_ 0.41356 0.688256 0.250707 0.6875
C_ C_ 0.205577 0.592241 0.216042 -0.11473
C_ C_ 0.469009 0.604747 0.210792 -0.11473
C_ C_ 0.0655649 0.650855 0.249156 -0.02249
C_ C_ 0.314701 0.653311 0.254414 -0.02249
C_ C_ 0.0143076 0.538061 0.241518 -0.02249
C_ C_ 0.266476 0.53612 0.255541 -0.02249
C_ C_ 0.0343959 0.6027 0.209951 -0.11473
C_ C_ 0.295482 0.591615 0.218106 -0.11473
C_ C_ 0.0560985 0.632598 0.28557 -0.11473
C_ C_ 0.303045 0.637336 0.291356 -0.11473
C_ C_ 0.0531725 0.636987 0.212558 -0.11473
C_ C_ 0.309333 0.62925 0.217234 -0.11473
C_ C_ 0.0317871 0.57868 0.244979 -0.02249
C_ C_ 0.283589 0.575698 0.2553 -0.02249
C_ C_ 0.0853824 0.686664 0.251465 0.6875
C_ C_ 0.334436 0.690319 0.254333 0.6875
C_ C_ 0.0403626 0.595198 0.284984 -0.11473
C_ C_ 0.286346 0.5999 0.292001 -0.11473
C_ C_ 0.130413 0.775111 0.38463 0.17695
C_ C_ 0.387107 0.789519 0.3783 0.17695
C_ C_ 0.115983 0.705612 0.379943 0.17695
C_ C_ 0.365025 0.723526 0.381178 0.17695
C_ C_ 0.113078 0.702345 0.423828 -0.11473
C_ C_ 0.362587 0.726054 0.424746 -0.11473
C_ C_ 0.118242 0.738021 0.448588 0.23465
C_ C_ 0.374583 0.760501 0.446494 0.23465
C_ C_ 0.124431 0.774728 0.429423 -0.11473
C_ C_ 0.38588 0.792781 0.422461 -0.11473
C_ C_ 0.120231 0.708445 0.128027 0.17695
C_ C_ 0.375931 0.788354 0.131415 0.17695
C_ C_ 0.132784 0.778715 0.12891 0.17695
C_ C_ 0.371118 0.715309 0.125735 0.17695
C_ C_ 0.131842 0.781217 0.083493 -0.11473
C_ C_ 0.373795 0.717651 0.0811383 -0.11473
C_ C_ 0.124654 0.745565 0.0595502 0.23465
C_ C_ 0.377146 0.757356 0.0637718 0.23465
C_ C_ 0.11709 0.710413 0.0820893 -0.11473
C_ C_ 0.379852 0.793277 0.0880577 -0.11473
C_ C_ 0.0328826 0.995207 0.262771 0.05793
C_ C_ 0.277862 0.99775 0.244681 0.05793
C_ C_ 0.218075 0.497543 0.256418 0.05793
C_ C_ 0.469349 0.497017 0.237847 0.05793
Br Br 0.0766808 -0.007089000000000012 0.260043 -0.17191
Br Br 0.320467 0.994316 0.231292 -0.17191
Br Br 0.174602 0.499018 0.266703 -0.17191
Br Br 0.426861 0.498347 0.230623 -0.17191
N_ N_ 0.122081 0.74235 0.361345 -0.272
N_ N_ 0.377648 0.755093 0.359505 -0.272
N_ N_ 0.125511 0.734685 0.491884 -0.12501
N_ N_ 0.378087 0.761439 0.490555 -0.12501
N_ N_ 0.129109 0.743205 0.149818 -0.272
N_ N_ 0.370117 0.750763 0.148181 -0.272
N_ N_ 0.125221 0.741192 0.0156473 -0.12501
N_ N_ 0.380552 0.763172 0.0177437 -0.12501
O_ O_ 0.0940716 0.786899 0.21857 -0.60745
O_ O_ 0.345047 0.792604 0.225302 -0.60745
O_ O_ 0.0980016 0.795934 0.289557 -0.60745
O_ O_ 0.345108 0.797279 0.293106 -0.60745
O_ O_ 0.158489 0.78783 0.288712 -0.60745
O_ O_ 0.40781 0.799197 0.285706 -0.60745
O_ O_ 0.159369 0.788728 0.220165 -0.60745
O_ O_ 0.408636 0.789384 0.216803 -0.60745
O_ O_ 0.152993 0.697037 0.289223 -0.60745
O_ O_ 0.407825 0.705501 0.28506 -0.60745
O_ O_ 0.155935 0.701096 0.221521 -0.60745
O_ O_ 0.40211 0.701904 0.216563 -0.60745
O_ O_ 0.0956485 0.702746 0.21863 -0.60745
O_ O_ 0.340729 0.707223 0.219965 -0.60745
O_ O_ 0.0913531 0.704093 0.286653 -0.60745
O_ O_ 0.343358 0.705958 0.288618 -0.60745
Zn Zn 0.126134 0.752487 0.790298 0.9476
Zn Zn 0.374973 0.750551 0.789041 0.9476
Zn Zn 0.126472 0.752643 0.72039 0.9476
Zn Zn 0.372803 0.749293 0.718996 0.9476
H_ H_ 0.0388145 0.925112 0.699284 0.10932
H_ H_ 0.289577 0.919412 0.680511 0.10932
H_ H_ 0.0557119 0.841285 0.825737 0.10932
H_ H_ 0.30095 0.84495 0.816872 0.10932
H_ H_ 0.076937 0.870462 0.695141 0.10932
H_ H_ 0.319632 0.853443 0.684125 0.10932
H_ H_ 0.0223329 0.906223 0.825642 0.10932
H_ H_ 0.275478 0.915195 0.813261 0.10932
H_ H_ 0.222835 0.912557 0.811128 0.10932
H_ H_ 0.453545 0.926062 0.807521 0.10932
H_ H_ 0.188383 0.850261 0.68173 0.10932
H_ H_ 0.436061 0.847612 0.675175 0.10932
H_ H_ 0.181875 0.861334 0.813886 0.10932
H_ H_ 0.419205 0.869373 0.805851 0.10932
H_ H_ 0.216398 0.914764 0.682238 0.10932
H_ H_ 0.470043 0.910858 0.676379 0.10932
H_ H_ 0.223358 0.592412 0.819072 0.10932
H_ H_ 0.464814 0.585398 0.820935 0.10932
H_ H_ 0.172916 0.633346 0.690004 0.10932
H_ H_ 0.438486 0.653396 0.685824 0.10932
H_ H_ 0.203002 0.662709 0.816213 0.10932
H_ H_ 0.426735 0.642391 0.818866 0.10932
H_ H_ 0.201238 0.571066 0.690917 0.10932
H_ H_ 0.468233 0.590518 0.686997 0.10932
H_ H_ 0.0437143 0.581714 0.68367 0.10932
H_ H_ 0.273677 0.59079 0.688568 0.10932
H_ H_ 0.0481375 0.662607 0.816481 0.10932
H_ H_ 0.324047 0.636027 0.819715 0.10932
H_ H_ 0.0667863 0.648248 0.685922 0.10932
H_ H_ 0.298906 0.658065 0.690519 0.10932
H_ H_ 0.0273431 0.597266 0.816728 0.10932
H_ H_ 0.295134 0.572898 0.820659 0.10932
H_ H_ 0.128503 0.823341 0.856774 0.10932
H_ H_ 0.374316 0.812954 0.870292 0.10932
H_ H_ 0.12431 0.695617 0.865314 0.10932
H_ H_ 0.392316 0.683984 0.8601 0.10932
H_ H_ 0.132348 0.696502 0.945283 0.10932
H_ H_ 0.388062 0.678298 0.937645 0.10932
H_ H_ 0.124896 0.833176 0.932689 0.10932
H_ H_ 0.378618 0.809555 0.948886 0.10932
H_ H_ 0.114842 0.690505 0.647347 0.10932
H_ H_ 0.385545 0.809266 0.639904 0.10932
H_ H_ 0.115477 0.82023 0.645525 0.10932
H_ H_ 0.363608 0.682312 0.644478 0.10932
H_ H_ 0.117389 0.820054 0.567798 0.10932
H_ H_ 0.355058 0.680395 0.567807 0.10932
H_ H_ 0.110085 0.688971 0.570405 0.10932
H_ H_ 0.380229 0.809529 0.563616 0.10932
C_ C_ 0.0656151 0.846288 0.759574 -0.02249
C_ C_ 0.312006 0.844619 0.749298 -0.02249
C_ C_ 0.0139003 0.962555 0.761327 -0.02249
C_ C_ 0.264818 0.961681 0.745669 -0.02249
C_ C_ 0.0411577 0.904712 0.724358 -0.11473
C_ C_ 0.295758 0.905379 0.710198 -0.11473
C_ C_ 0.05291 0.859305 0.797253 -0.11473
C_ C_ 0.301523 0.864169 0.786936 -0.11473
C_ C_ 0.0604431 0.869756 0.722147 -0.11473
C_ C_ 0.308981 0.866514 0.711051 -0.11473
C_ C_ 0.0312243 0.921065 0.762262 -0.02249
C_ C_ 0.281388 0.921295 0.746253 -0.02249
C_ C_ 0.0917161 0.816056 0.759912 0.6875
C_ C_ 0.33256 0.809697 0.752928 0.6875
C_ C_ 0.035926 0.897154 0.798608 -0.11473
C_ C_ 0.284578 0.900254 0.78494 -0.11473
C_ C_ 0.186984 0.845801 0.747882 -0.02249
C_ C_ 0.428316 0.848675 0.742094 -0.02249
C_ C_ 0.232245 0.964815 0.745121 -0.02249
C_ C_ 0.481294 0.964008 0.742408 -0.02249
C_ C_ 0.208785 0.906194 0.783454 -0.11473
C_ C_ 0.450391 0.909881 0.778565 -0.11473
C_ C_ 0.19604 0.865584 0.710139 -0.11473
C_ C_ 0.440542 0.86512 0.703905 -0.11473
C_ C_ 0.191373 0.869213 0.783715 -0.11473
C_ C_ 0.431853 0.875534 0.777543 -0.11473
C_ C_ 0.214959 0.925351 0.746256 -0.02249
C_ C_ 0.463924 0.923633 0.742186 -0.02249
C_ C_ 0.169825 0.805061 0.748559 0.6875
C_ C_ 0.410076 0.811391 0.743913 0.6875
C_ C_ 0.207413 0.905436 0.709045 -0.11473
C_ C_ 0.458662 0.902165 0.704416 -0.11473
C_ C_ 0.183708 0.653892 0.753049 -0.02249
C_ C_ 0.432731 0.654484 0.752763 -0.02249
C_ C_ 0.236929 0.539791 0.754303 -0.02249
C_ C_ 0.482949 0.540109 0.752746 -0.02249
C_ C_ 0.216466 0.605262 0.788692 -0.11473
C_ C_ 0.45825 0.598355 0.791914 -0.11473
C_ C_ 0.186619 0.629395 0.717033 -0.11473
C_ C_ 0.444414 0.639675 0.715551 -0.11473
C_ C_ 0.200458 0.642017 0.788833 -0.11473
C_ C_ 0.439721 0.635272 0.790565 -0.11473
C_ C_ 0.220794 0.581018 0.753183 -0.02249
C_ C_ 0.468935 0.582425 0.753994 -0.02249
C_ C_ 0.162459 0.689965 0.754025 0.6875
C_ C_ 0.414048 0.693032 0.752529 0.6875
C_ C_ 0.205505 0.593068 0.71718 -0.11473
C_ C_ 0.461918 0.603528 0.717044 -0.11473
C_ C_ 0.064032 0.659704 0.751641 -0.02249
C_ C_ 0.314416 0.652385 0.755895 -0.02249
C_ C_ 0.013858 0.5437 0.750016 -0.02249
C_ C_ 0.268957 0.536749 0.752821 -0.02249
C_ C_ 0.046653 0.599116 0.713127 -0.11473
C_ C_ 0.285243 0.600643 0.717199 -0.11473
C_ C_ 0.0480287 0.646823 0.786313 -0.11473
C_ C_ 0.313581 0.625902 0.791062 -0.11473
C_ C_ 0.0606255 0.636521 0.714894 -0.11473
C_ C_ 0.300818 0.638423 0.717971 -0.11473
C_ C_ 0.0314555 0.584449 0.750338 -0.02249
C_ C_ 0.285682 0.575314 0.752345 -0.02249
C_ C_ 0.084092 0.69575 0.755408 0.6875
C_ C_ 0.334426 0.689836 0.757044 0.6875
C_ C_ 0.0317721 0.609171 0.785731 -0.11473
C_ C_ 0.299468 0.587115 0.790472 -0.11473
C_ C_ 0.125714 0.7967 0.875523 0.17695
C_ C_ 0.380062 0.784216 0.884404 0.17695
C_ C_ 0.127067 0.723831 0.881665 0.17695
C_ C_ 0.388369 0.71206 0.878091 0.17695
C_ C_ 0.128595 0.725936 0.926057 -0.11473
C_ C_ 0.385332 0.707179 0.921288 -0.11473
C_ C_ 0.124175 0.766558 0.944162 0.23465
C_ C_ 0.382421 0.741625 0.947856 0.23465
C_ C_ 0.124426 0.802791 0.919466 -0.11473
C_ C_ 0.379542 0.781254 0.928869 -0.11473
C_ C_ 0.119824 0.718688 0.630608 0.17695
C_ C_ 0.375658 0.782043 0.624042 0.17695
C_ C_ 0.119077 0.791141 0.628114 0.17695
C_ C_ 0.366278 0.710419 0.625753 0.17695
C_ C_ 0.119983 0.791418 0.584577 -0.11473
C_ C_ 0.364677 0.708157 0.580899 -0.11473
C_ C_ 0.120184 0.753463 0.563558 0.23465
C_ C_ 0.364941 0.744586 0.558501 0.23465
C_ C_ 0.117295 0.716724 0.586855 -0.11473
C_ C_ 0.3747 0.780961 0.580124 -0.11473
C_ C_ 0.0306515 -0.0010270000000000001 0.756133 0.05793
C_ C_ 0.280123 0.000489026 0.744482 0.05793
C_ C_ 0.220043 0.500154 0.754489 0.05793
C_ C_ 0.466714 0.502919 0.75047 0.05793
Br Br 0.0739282 -0.005159000000000025 0.749272 -0.17191
Br Br 0.320945 0.0020199999999999108 0.764077 -0.17191
Br Br 0.176911 0.502519 0.758977 -0.17191
Br Br 0.423796 0.50373 0.747882 -0.17191
N_ N_ 0.126868 0.75857 0.858298 -0.272
N_ N_ 0.383522 0.750632 0.859395 -0.272
N_ N_ 0.128635 0.772108 0.990859 -0.12501
N_ N_ 0.37782 0.734169 0.991888 -0.12501
N_ N_ 0.122291 0.755773 0.650494 -0.272
N_ N_ 0.370877 0.747422 0.645749 -0.272
N_ N_ 0.111576 0.753996 0.519393 -0.12501
N_ N_ 0.359301 0.744441 0.513344 -0.12501
O_ O_ 0.0992762 0.802146 0.722966 -0.60745
O_ O_ 0.343145 0.794885 0.718399 -0.60745
O_ O_ 0.0959014 0.793519 0.792082 -0.60745
O_ O_ 0.339068 0.792733 0.788397 -0.60745
O_ O_ 0.15675 0.797017 0.782726 -0.60745
O_ O_ 0.399234 0.799864 0.778865 -0.60745
O_ O_ 0.160328 0.788302 0.715922 -0.60745
O_ O_ 0.404082 0.79002 0.712845 -0.60745
O_ O_ 0.156297 0.707228 0.788875 -0.60745
O_ O_ 0.409573 0.71405 0.785143 -0.60745
O_ O_ 0.152049 0.703382 0.719286 -0.60745
O_ O_ 0.401897 0.704398 0.719844 -0.60745
O_ O_ 0.0920477 0.712726 0.721336 -0.60745
O_ O_ 0.337936 0.711988 0.724261 -0.60745
O_ O_ 0.096771 0.704516 0.790171 -0.60745
O_ O_ 0.349144 0.700658 0.790186 -0.60745
Zn Zn 0.625724 0.249357 0.283043 0.9476
Zn Zn 0.878581 0.246524 0.281685 0.9476
Zn Zn 0.627393 0.24987 0.211171 0.9476
Zn Zn 0.880627 0.247475 0.214249 0.9476
H_ H_ 0.52865 0.408428 0.17326 0.10932
H_ H_ 0.788216 0.417865 0.183214 0.10932
H_ H_ 0.564572 0.354613 0.311865 0.10932
H_ H_ 0.815374 0.344326 0.312163 0.10932
H_ H_ 0.558327 0.341971 0.175439 0.10932
H_ H_ 0.829484 0.366142 0.184876 0.10932
H_ H_ 0.540587 0.41875 0.305512 0.10932
H_ H_ 0.782568 0.405213 0.316994 0.10932
H_ H_ 0.718382 0.413733 0.318244 0.10932
H_ H_ 0.96747 0.417955 0.316368 0.10932
H_ H_ 0.684203 0.357899 0.179251 0.10932
H_ H_ 0.94552 0.34587 0.182102 0.10932
H_ H_ 0.695185 0.348671 0.314503 0.10932
H_ H_ 0.938885 0.34865 0.319512 0.10932
H_ H_ 0.713876 0.423205 0.179723 0.10932
H_ H_ 0.963711 0.418198 0.183768 0.10932
H_ H_ 0.710871 0.0789883 0.313418 0.10932
H_ H_ 0.958694 0.0745348 0.32496 0.10932
H_ H_ 0.695395 0.154924 0.180685 0.10932
H_ H_ 0.949709 0.155452 0.193794 0.10932
H_ H_ 0.68498 0.144537 0.312304 0.10932
H_ H_ 0.923489 0.133066 0.31963 0.10932
H_ H_ 0.726777 0.0909635 0.182821 0.10932
H_ H_ 0.977668 0.0905509 0.198751 0.10932
H_ H_ 0.545445 0.0764023 0.173569 0.10932
H_ H_ 0.792753 0.0763908 0.180013 0.10932
H_ H_ 0.568472 0.143353 0.311517 0.10932
H_ H_ 0.815299 0.148948 0.311365 0.10932
H_ H_ 0.580521 0.134297 0.176529 0.10932
H_ H_ 0.811888 0.148711 0.175692 0.10932
H_ H_ 0.533972 0.0824291 0.30665 0.10932
H_ H_ 0.779546 0.0866958 0.311374 0.10932
H_ H_ 0.577425 0.24644 0.360226 0.10932
H_ H_ 0.862685 0.191553 0.3601 0.10932
H_ H_ 0.672351 0.251208 0.353021 0.10932
H_ H_ 0.884833 0.317089 0.348633 0.10932
H_ H_ 0.678286 0.251237 0.429197 0.10932
H_ H_ 0.884909 0.322894 0.426508 0.10932
H_ H_ 0.579183 0.23828 0.435969 0.10932
H_ H_ 0.871694 0.192742 0.439485 0.10932
H_ H_ 0.625953 0.187873 0.139511 0.10932
H_ H_ 0.838991 0.267565 0.136715 0.10932
H_ H_ 0.627219 0.317414 0.133302 0.10932
H_ H_ 0.929091 0.234789 0.147569 0.10932
H_ H_ 0.614186 0.317536 0.0588574 0.10932
H_ H_ 0.933019 0.231059 0.0662838 0.10932
H_ H_ 0.6147 0.187886 0.0616458 0.10932
H_ H_ 0.841631 0.264389 0.0549715 0.10932
C_ C_ 0.565642 0.343931 0.244638 -0.02249
C_ C_ 0.820373 0.345757 0.245679 -0.02249
C_ C_ 0.517598 0.461266 0.234522 -0.02249
C_ C_ 0.768465 0.460028 0.251205 -0.02249
C_ C_ 0.539551 0.397093 0.201991 -0.11473
C_ C_ 0.796638 0.404378 0.211695 -0.11473
C_ C_ 0.559105 0.366835 0.279892 -0.11473
C_ C_ 0.810671 0.36188 0.283699 -0.11473
C_ C_ 0.555251 0.359158 0.203806 -0.11473
C_ C_ 0.817022 0.372301 0.211293 -0.11473
C_ C_ 0.534268 0.42109 0.238956 -0.02249
C_ C_ 0.785114 0.42053 0.249154 -0.02249
C_ C_ 0.585956 0.307627 0.246681 0.6875
C_ C_ 0.842752 0.310086 0.245452 0.6875
C_ C_ 0.546507 0.406121 0.276394 -0.11473
C_ C_ 0.790895 0.396342 0.2845 -0.11473
C_ C_ 0.686398 0.34769 0.246935 -0.02249
C_ C_ 0.945189 0.33834 0.250425 -0.02249
C_ C_ 0.737012 0.46178 0.248533 -0.02249
C_ C_ 0.983713 0.462247 0.248282 -0.02249
C_ C_ 0.714439 0.400016 0.287566 -0.11473
C_ C_ 0.962084 0.401237 0.288533 -0.11473
C_ C_ 0.693109 0.369527 0.209823 -0.11473
C_ C_ 0.950172 0.360674 0.21183 -0.11473
C_ C_ 0.700666 0.362087 0.285128 -0.11473
C_ C_ 0.950284 0.360713 0.290091 -0.11473
C_ C_ 0.718589 0.423054 0.24913 -0.02249
C_ C_ 0.968379 0.420683 0.25031 -0.02249
C_ C_ 0.66459 0.312047 0.24668 0.6875
C_ C_ 0.923338 0.301818 0.248846 0.6875
C_ C_ 0.707518 0.407369 0.210799 -0.11473
C_ C_ 0.960102 0.401389 0.212045 -0.11473
C_ C_ 0.685965 0.155816 0.245799 -0.02249
C_ C_ 0.935173 0.149246 0.257363 -0.02249
C_ C_ 0.73737 0.0394247 0.245901 -0.02249
C_ C_ 0.986735 0.0363478 0.261982 -0.02249
C_ C_ 0.708159 0.096457 0.284013 -0.11473
C_ C_ 0.95837 0.0936355 0.297424 -0.11473
C_ C_ 0.7 0.140939 0.210082 -0.11473
C_ C_ 0.950501 0.135047 0.221927 -0.11473
C_ C_ 0.690669 0.132262 0.283544 -0.11473
C_ C_ 0.939856 0.127626 0.294642 -0.11473
C_ C_ 0.721549 0.0807199 0.246735 -0.02249
C_ C_ 0.971077 0.0762563 0.261532 -0.02249
C_ C_ 0.665283 0.19266 0.24634 0.6875
C_ C_ 0.915665 0.186365 0.254913 0.6875
C_ C_ 0.716286 0.102879 0.209744 -0.11473
C_ C_ 0.964572 0.0953271 0.223622 -0.11473
C_ C_ 0.573633 0.14844 0.243433 -0.02249
C_ C_ 0.816739 0.153921 0.244519 -0.02249
C_ C_ 0.518292 0.0359359 0.232411 -0.02249
C_ C_ 0.768167 0.0399395 0.24284 -0.02249
C_ C_ 0.548448 0.0930149 0.201448 -0.11473
C_ C_ 0.79363 0.0961263 0.207408 -0.11473
C_ C_ 0.561423 0.130859 0.280424 -0.11473
C_ C_ 0.807709 0.136211 0.282983 -0.11473
C_ C_ 0.568518 0.127034 0.204627 -0.11473
C_ C_ 0.805881 0.135119 0.205472 -0.11473
C_ C_ 0.536412 0.0752055 0.238999 -0.02249
C_ C_ 0.784846 0.0782699 0.244895 -0.02249
C_ C_ 0.588917 0.188723 0.246069 0.6875
C_ C_ 0.839898 0.188443 0.24683 0.6875
C_ C_ 0.542336 0.0958108 0.278179 -0.11473
C_ C_ 0.788901 0.0997125 0.281965 -0.11473
C_ C_ 0.599257 0.245364 0.374378 0.17695
C_ C_ 0.872725 0.217279 0.374514 0.17695
C_ C_ 0.651516 0.251156 0.371809 0.17695
C_ C_ 0.883889 0.28872 0.369521 0.17695
C_ C_ 0.654805 0.25205 0.416233 -0.11473
C_ C_ 0.884451 0.292693 0.412945 -0.11473
C_ C_ 0.628712 0.250476 0.440783 0.23465
C_ C_ 0.879918 0.257282 0.439672 0.23465
C_ C_ 0.601015 0.24473 0.419153 -0.11473
C_ C_ 0.875027 0.21929 0.419493 -0.11473
C_ C_ 0.623144 0.215844 0.12051 0.17695
C_ C_ 0.858572 0.25762 0.120434 0.17695
C_ C_ 0.62218 0.288888 0.118359 0.17695
C_ C_ 0.910209 0.241285 0.12689 0.17695
C_ C_ 0.618226 0.288304 0.0738487 -0.11473
C_ C_ 0.912445 0.240793 0.0804847 -0.11473
C_ C_ 0.621162 0.251624 0.0528393 0.23465
C_ C_ 0.88731 0.2466 0.0552618 0.23465
C_ C_ 0.621383 0.214959 0.0761619 -0.11473
C_ C_ 0.860991 0.260388 0.0756029 -0.11473
C_ C_ 0.533783 0.499342 0.234842 0.05793
C_ C_ 0.784864 0.498409 0.248598 0.05793
C_ C_ 0.720522 1.000739079 0.251706 0.05793
C_ C_ 0.970705 1.0001 0.265796 0.05793
Br Br 0.576471 0.498397 0.242819 -0.17191
Br Br 0.827841 0.494614 0.254907 -0.17191
Br Br 0.678444 0.00476994 0.268623 -0.17191
Br Br 0.930314 0.00212902 0.290121 -0.17191
N_ N_ 0.625203 0.247939 0.35206 -0.272
N_ N_ 0.8796 0.251126 0.350681 -0.272
N_ N_ 0.631261 0.244495 0.484691 -0.12501
N_ N_ 0.884638 0.262063 0.483496 -0.12501
N_ N_ 0.625543 0.252744 0.13981 -0.272
N_ N_ 0.882949 0.248867 0.144506 -0.272
N_ N_ 0.615178 0.249587 0.00772789 -0.12501
N_ N_ 0.889192 0.24105 0.00983565 -0.12501
O_ O_ 0.597161 0.294565 0.212581 -0.60745
O_ O_ 0.85186 0.295239 0.211045 -0.60745
O_ O_ 0.591999 0.290195 0.280074 -0.60745
O_ O_ 0.851482 0.295546 0.280867 -0.60745
O_ O_ 0.655159 0.296758 0.281906 -0.60745
O_ O_ 0.91133 0.290181 0.282875 -0.60745
O_ O_ 0.656663 0.295265 0.212024 -0.60745
O_ O_ 0.914984 0.286028 0.214206 -0.60745
O_ O_ 0.658265 0.206685 0.281108 -0.60745
O_ O_ 0.904614 0.202659 0.287113 -0.60745
O_ O_ 0.656422 0.208109 0.211835 -0.60745
O_ O_ 0.909573 0.200825 0.219561 -0.60745
O_ O_ 0.598831 0.203922 0.212975 -0.60745
O_ O_ 0.848169 0.203773 0.213624 -0.60745
O_ O_ 0.59817 0.203489 0.280351 -0.60745
O_ O_ 0.845892 0.207415 0.281699 -0.60745
Zn Zn 0.623747 0.25028 0.781068 0.9476
Zn Zn 0.877078 0.251012 0.782526 0.9476
Zn Zn 0.621152 0.250856 0.711994 0.9476
Zn Zn 0.875505 0.250713 0.714229 0.9476
H_ H_ 0.524552 0.414551 0.685314 0.10932
H_ H_ 0.792387 0.42962 0.692006 0.10932
H_ H_ 0.565164 0.355567 0.819837 0.10932
H_ H_ 0.801348 0.336321 0.811147 0.10932
H_ H_ 0.556469 0.35128 0.684338 0.10932
H_ H_ 0.826142 0.370967 0.689454 0.10932
H_ H_ 0.533994 0.42162 0.819271 0.10932
H_ H_ 0.767588 0.397995 0.819052 0.10932
H_ H_ 0.697427 0.428311 0.820895 0.10932
H_ H_ 0.941359 0.449143 0.800994 0.10932
H_ H_ 0.691908 0.344322 0.689571 0.10932
H_ H_ 0.944628 0.340678 0.691126 0.10932
H_ H_ 0.672484 0.363486 0.817473 0.10932
H_ H_ 0.910693 0.376412 0.806249 0.10932
H_ H_ 0.718011 0.412982 0.687713 0.10932
H_ H_ 0.973111 0.400752 0.680646 0.10932
H_ H_ 0.711661 0.0769864 0.808155 0.10932
H_ H_ 0.968836 0.0873347 0.827579 0.10932
H_ H_ 0.688417 0.158088 0.677642 0.10932
H_ H_ 0.933088 0.142565 0.688548 0.10932
H_ H_ 0.691186 0.147117 0.810127 0.10932
H_ H_ 0.938764 0.152378 0.82512 0.10932
H_ H_ 0.718871 0.0907378 0.675381 0.10932
H_ H_ 0.956838 0.0723443 0.69606 0.10932
H_ H_ 0.548343 0.0650001 0.681477 0.10932
H_ H_ 0.783985 0.0851081 0.676514 0.10932
H_ H_ 0.560947 0.149184 0.81171 0.10932
H_ H_ 0.819473 0.140725 0.814124 0.10932
H_ H_ 0.576061 0.130426 0.680704 0.10932
H_ H_ 0.817252 0.144658 0.679183 0.10932
H_ H_ 0.524068 0.0863553 0.80677 0.10932
H_ H_ 0.784281 0.0800486 0.813079 0.10932
H_ H_ 0.639755 0.307768 0.856585 0.10932
H_ H_ 0.894529 0.1971 0.859416 0.10932
H_ H_ 0.61629 0.17827 0.849708 0.10932
H_ H_ 0.852747 0.314785 0.858705 0.10932
H_ H_ 0.621041 0.173671 0.929426 0.10932
H_ H_ 0.852865 0.316249 0.932567 0.10932
H_ H_ 0.642634 0.301224 0.934332 0.10932
H_ H_ 0.894317 0.197999 0.937923 0.10932
H_ H_ 0.616941 0.31544 0.644475 0.10932
H_ H_ 0.922269 0.261582 0.639231 0.10932
H_ H_ 0.628632 0.188516 0.631056 0.10932
H_ H_ 0.825778 0.249188 0.639215 0.10932
H_ H_ 0.618929 0.193129 0.55367 0.10932
H_ H_ 0.82507 0.243368 0.562482 0.10932
H_ H_ 0.611397 0.321554 0.565245 0.10932
H_ H_ 0.920641 0.253239 0.558048 0.10932
C_ C_ 0.562395 0.347673 0.750974 -0.02249
C_ C_ 0.815429 0.347219 0.748784 -0.02249
C_ C_ 0.512753 0.461311 0.752748 -0.02249
C_ C_ 0.763642 0.462597 0.757544 -0.02249
C_ C_ 0.535937 0.40256 0.714044 -0.11473
C_ C_ 0.795 0.41081 0.71903 -0.11473
C_ C_ 0.556137 0.367471 0.789721 -0.11473
C_ C_ 0.800471 0.35767 0.786494 -0.11473
C_ C_ 0.551344 0.364856 0.713835 -0.11473
C_ C_ 0.812481 0.374374 0.714931 -0.11473
C_ C_ 0.530287 0.421954 0.752375 -0.02249
C_ C_ 0.779774 0.422668 0.756899 -0.02249
C_ C_ 0.582615 0.310374 0.749697 0.6875
C_ C_ 0.833372 0.308589 0.746675 0.6875
C_ C_ 0.539082 0.40519 0.791417 -0.11473
C_ C_ 0.781661 0.394321 0.790325 -0.11473
C_ C_ 0.680967 0.348748 0.754062 -0.02249
C_ C_ 0.929234 0.353861 0.752318 -0.02249
C_ C_ 0.731972 0.462855 0.757578 -0.02249
C_ C_ 0.982505 0.467848 0.743607 -0.02249
C_ C_ 0.699869 0.410928 0.792209 -0.11473
C_ C_ 0.945044 0.421547 0.781248 -0.11473
C_ C_ 0.695478 0.36183 0.717291 -0.11473
C_ C_ 0.94819 0.359525 0.718327 -0.11473
C_ C_ 0.683178 0.373752 0.790488 -0.11473
C_ C_ 0.927707 0.384439 0.78247 -0.11473
C_ C_ 0.713378 0.424855 0.754072 -0.02249
C_ C_ 0.96431 0.426623 0.74669 -0.02249
C_ C_ 0.659778 0.313926 0.75176 0.6875
C_ C_ 0.912122 0.313521 0.755299 0.6875
C_ C_ 0.70976 0.400968 0.716861 -0.11473
C_ C_ 0.963095 0.395976 0.713387 -0.11473
C_ C_ 0.685029 0.156471 0.744856 -0.02249
C_ C_ 0.936178 0.15548 0.755633 -0.02249
C_ C_ 0.730238 0.039307 0.739488 -0.02249
C_ C_ 0.98355 0.0393562 0.761952 -0.02249
C_ C_ 0.704108 0.0921498 0.779226 -0.11473
C_ C_ 0.961454 0.100227 0.796198 -0.11473
C_ C_ 0.693844 0.139575 0.705775 -0.11473
C_ C_ 0.941337 0.130353 0.718959 -0.11473
C_ C_ 0.69094 0.131606 0.780486 -0.11473
C_ C_ 0.94333 0.137354 0.79571 -0.11473
C_ C_ 0.71207 0.0776247 0.740539 -0.02249
C_ C_ 0.96654 0.0781208 0.760189 -0.02249
C_ C_ 0.665837 0.194328 0.746338 0.6875
C_ C_ 0.916747 0.193206 0.753786 0.6875
C_ C_ 0.708228 0.100667 0.703761 -0.11473
C_ C_ 0.95291 0.0911825 0.721231 -0.11473
C_ C_ 0.568296 0.14718 0.744399 -0.02249
C_ C_ 0.817101 0.15064 0.746985 -0.02249
C_ C_ 0.515421 0.0349319 0.745989 -0.02249
C_ C_ 0.763059 0.0394478 0.741754 -0.02249
C_ C_ 0.545446 0.087622 0.706287 -0.11473
C_ C_ 0.787166 0.0990969 0.706252 -0.11473
C_ C_ 0.554715 0.133413 0.780577 -0.11473
C_ C_ 0.807478 0.132455 0.785012 -0.11473
C_ C_ 0.561491 0.125196 0.706108 -0.11473
C_ C_ 0.806536 0.134151 0.70757 -0.11473
C_ C_ 0.533055 0.0732365 0.745342 -0.02249
C_ C_ 0.779334 0.0795058 0.742923 -0.02249
C_ C_ 0.586805 0.184787 0.745682 0.6875
C_ C_ 0.837797 0.186704 0.747186 0.6875
C_ C_ 0.535318 0.0996252 0.779147 -0.11473
C_ C_ 0.789092 0.09598 0.783701 -0.11473
C_ C_ 0.63096 0.279167 0.873258 0.17695
C_ C_ 0.883977 0.221946 0.875918 0.17695
C_ C_ 0.619579 0.206731 0.869242 0.17695
C_ C_ 0.860363 0.286567 0.872845 0.17695
C_ C_ 0.621904 0.203779 0.91368 -0.11473
C_ C_ 0.858707 0.288066 0.917041 -0.11473
C_ C_ 0.627908 0.239361 0.936028 0.23465
C_ C_ 0.871583 0.254852 0.940731 0.23465
C_ C_ 0.634354 0.275428 0.916013 -0.11473
C_ C_ 0.885318 0.222882 0.919683 -0.11473
C_ C_ 0.617912 0.289346 0.623682 0.17695
C_ C_ 0.900995 0.255298 0.62221 0.17695
C_ C_ 0.620909 0.216625 0.616489 0.17695
C_ C_ 0.847043 0.248777 0.621626 0.17695
C_ C_ 0.619543 0.220865 0.572885 -0.11473
C_ C_ 0.846442 0.247131 0.577035 -0.11473
C_ C_ 0.618312 0.259505 0.555372 0.23465
C_ C_ 0.872467 0.251357 0.555606 0.23465
C_ C_ 0.615008 0.293839 0.580194 -0.11473
C_ C_ 0.900536 0.25282 0.576669 -0.11473
C_ C_ 0.528819 0.498567 0.760334 0.05793
C_ C_ 0.778882 0.500174 0.758813 0.05793
C_ C_ 0.715858 0.000632179 0.736651 0.05793
C_ C_ 0.967152 0.00266999999999995 0.768822 0.05793
Br Br 0.572638 0.494413 0.766189 -0.17191
Br Br 0.821617 0.498886 0.760435 -0.17191
Br Br 0.672472 -0.000315743 0.730851 -0.17191
Br Br 0.923728 0.0013399999999998968 0.77264 -0.17191
N_ N_ 0.623373 0.245013 0.850659 -0.272
N_ N_ 0.873727 0.254145 0.853401 -0.272
N_ N_ 0.633918 0.236413 0.981177 -0.12501
N_ N_ 0.872704 0.260944 0.984669 -0.12501
N_ N_ 0.619494 0.250498 0.64011 -0.272
N_ N_ 0.87454 0.2525 0.641484 -0.272
N_ N_ 0.616539 0.265134 0.51073 -0.12501
N_ N_ 0.868994 0.244729 0.510987 -0.12501
O_ O_ 0.589125 0.294094 0.714194 -0.60745
O_ O_ 0.843163 0.295152 0.713364 -0.60745
O_ O_ 0.59337 0.293327 0.784022 -0.60745
O_ O_ 0.841619 0.290235 0.780853 -0.60745
O_ O_ 0.654392 0.294713 0.784151 -0.60745
O_ O_ 0.904373 0.300486 0.789838 -0.60745
O_ O_ 0.648748 0.301151 0.716894 -0.60745
O_ O_ 0.909394 0.291225 0.722516 -0.60745
O_ O_ 0.657168 0.208884 0.781075 -0.60745
O_ O_ 0.910349 0.214989 0.786533 -0.60745
O_ O_ 0.655322 0.209783 0.713258 -0.60745
O_ O_ 0.904084 0.20121 0.716917 -0.60745
O_ O_ 0.592502 0.202008 0.71221 -0.60745
O_ O_ 0.841163 0.207557 0.713009 -0.60745
O_ O_ 0.593201 0.204085 0.778673 -0.60745
O_ O_ 0.849731 0.199936 0.78094 -0.60745
Zn Zn 0.628902 0.748327 0.275677 0.9476
Zn Zn 0.879049 0.750396 0.288012 0.9476
Zn Zn 0.62927 0.74975 0.205062 0.9476
Zn Zn 0.874388 0.74989 0.218151 0.9476
H_ H_ 0.525449 0.900702 0.173198 0.10932
H_ H_ 0.784524 0.921763 0.180575 0.10932
H_ H_ 0.582628 0.863193 0.300023 0.10932
H_ H_ 0.823201 0.859508 0.315877 0.10932
H_ H_ 0.557064 0.838626 0.17041 0.10932
H_ H_ 0.804951 0.846331 0.181426 0.10932
H_ H_ 0.56137 0.938023 0.288225 0.10932
H_ H_ 0.794955 0.922155 0.3162 0.10932
H_ H_ 0.726273 0.906433 0.322179 0.10932
H_ H_ 0.959185 0.917902 0.323886 0.10932
H_ H_ 0.671088 0.870055 0.19263 0.10932
H_ H_ 0.942237 0.848531 0.18767 0.10932
H_ H_ 0.70424 0.840684 0.31449 0.10932
H_ H_ 0.9215 0.862718 0.318623 0.10932
H_ H_ 0.698343 0.93301 0.19076 0.10932
H_ H_ 0.970163 0.914773 0.19151 0.10932
H_ H_ 0.7239 0.579494 0.303985 0.10932
H_ H_ 0.961323 0.575855 0.313086 0.10932
H_ H_ 0.698309 0.653954 0.173162 0.10932
H_ H_ 0.939499 0.651913 0.180568 0.10932
H_ H_ 0.692552 0.645509 0.307492 0.10932
H_ H_ 0.932296 0.637291 0.31446 0.10932
H_ H_ 0.72319 0.588179 0.171474 0.10932
H_ H_ 0.960196 0.582687 0.180297 0.10932
H_ H_ 0.536958 0.57775 0.168907 0.10932
H_ H_ 0.791742 0.578658 0.17987 0.10932
H_ H_ 0.568883 0.647283 0.303268 0.10932
H_ H_ 0.818648 0.641671 0.31998 0.10932
H_ H_ 0.567308 0.647428 0.16721 0.10932
H_ H_ 0.816145 0.643778 0.18607 0.10932
H_ H_ 0.53301 0.587493 0.301996 0.10932
H_ H_ 0.791743 0.574517 0.316864 0.10932
H_ H_ 0.630629 0.688561 0.361243 0.10932
H_ H_ 0.881555 0.820396 0.356399 0.10932
H_ H_ 0.619249 0.819216 0.343724 0.10932
H_ H_ 0.867163 0.689104 0.367078 0.10932
H_ H_ 0.617046 0.828136 0.424177 0.10932
H_ H_ 0.866472 0.6981 0.446298 0.10932
H_ H_ 0.634835 0.69827 0.437642 0.10932
H_ H_ 0.879585 0.828154 0.43206 0.10932
H_ H_ 0.631386 0.683805 0.134973 0.10932
H_ H_ 0.868656 0.68564 0.138794 0.10932
H_ H_ 0.630092 0.812054 0.130536 0.10932
H_ H_ 0.877238 0.817736 0.139164 0.10932
H_ H_ 0.638236 0.81165 0.0525107 0.10932
H_ H_ 0.872285 0.821108 0.0679977 0.10932
H_ H_ 0.636687 0.682602 0.0561835 0.10932
H_ H_ 0.861183 0.688205 0.0632279 0.10932
C_ C_ 0.572228 0.847056 0.235495 -0.02249
C_ C_ 0.814249 0.846033 0.250807 -0.02249
C_ C_ 0.517843 0.959524 0.2332 -0.02249
C_ C_ 0.766919 0.964012 0.249385 -0.02249
C_ C_ 0.534883 0.889593 0.201067 -0.11473
C_ C_ 0.791009 0.905049 0.209699 -0.11473
C_ C_ 0.573233 0.87365 0.269627 -0.11473
C_ C_ 0.811001 0.868331 0.287957 -0.11473
C_ C_ 0.555844 0.857732 0.198417 -0.11473
C_ C_ 0.802727 0.862339 0.211079 -0.11473
C_ C_ 0.536492 0.918503 0.23394 -0.02249
C_ C_ 0.784244 0.923273 0.249157 -0.02249
C_ C_ 0.590535 0.809665 0.235163 0.6875
C_ C_ 0.83577 0.810201 0.250509 0.6875
C_ C_ 0.558757 0.912395 0.264462 -0.11473
C_ C_ 0.793996 0.904718 0.286816 -0.11473
C_ C_ 0.684203 0.851074 0.253291 -0.02249
C_ C_ 0.932768 0.847733 0.253668 -0.02249
C_ C_ 0.735367 0.963645 0.254577 -0.02249
C_ C_ 0.984685 0.960494 0.256007 -0.02249
C_ C_ 0.720459 0.897376 0.289977 -0.11473
C_ C_ 0.953069 0.905329 0.29266 -0.11473
C_ C_ 0.685922 0.875293 0.218264 -0.11473
C_ C_ 0.945976 0.863975 0.217502 -0.11473
C_ C_ 0.705833 0.858487 0.286233 -0.11473
C_ C_ 0.935155 0.870214 0.291809 -0.11473
C_ C_ 0.718397 0.924259 0.253968 -0.02249
C_ C_ 0.965554 0.923294 0.256936 -0.02249
C_ C_ 0.66785 0.809322 0.249146 0.6875
C_ C_ 0.916704 0.807118 0.253218 0.6875
C_ C_ 0.701533 0.911928 0.217675 -0.11473
C_ C_ 0.961656 0.901044 0.219498 -0.11473
C_ C_ 0.692063 0.654804 0.239929 -0.02249
C_ C_ 0.935342 0.653428 0.248596 -0.02249
C_ C_ 0.738998 0.537411 0.2401 -0.02249
C_ C_ 0.982496 0.536435 0.245397 -0.02249
C_ C_ 0.716584 0.596959 0.277106 -0.11473
C_ C_ 0.960263 0.594747 0.284604 -0.11473
C_ C_ 0.703177 0.638075 0.201762 -0.11473
C_ C_ 0.946444 0.63743 0.210126 -0.11473
C_ C_ 0.699071 0.633332 0.278246 -0.11473
C_ C_ 0.941095 0.62732 0.28474 -0.11473
C_ C_ 0.724247 0.578785 0.239584 -0.02249
C_ C_ 0.966702 0.577147 0.245454 -0.02249
C_ C_ 0.670043 0.691579 0.239062 0.6875
C_ C_ 0.914895 0.688844 0.249606 0.6875
C_ C_ 0.717456 0.599252 0.20136 -0.11473
C_ C_ 0.960409 0.598899 0.208488 -0.11473
C_ C_ 0.57068 0.648998 0.234445 -0.02249
C_ C_ 0.817702 0.65055 0.253376 -0.02249
C_ C_ 0.5176 0.53701 0.236612 -0.02249
C_ C_ 0.770129 0.536834 0.247283 -0.02249
C_ C_ 0.541888 0.59489 0.197386 -0.11473
C_ C_ 0.794908 0.594795 0.211809 -0.11473
C_ C_ 0.563029 0.630956 0.273541 -0.11473
C_ C_ 0.81461 0.627517 0.288586 -0.11473
C_ C_ 0.559836 0.633232 0.196208 -0.11473
C_ C_ 0.809784 0.631039 0.215303 -0.11473
C_ C_ 0.533427 0.577061 0.235235 -0.02249
C_ C_ 0.788051 0.57381 0.248813 -0.02249
C_ C_ 0.58762 0.687145 0.232154 0.6875
C_ C_ 0.837574 0.688472 0.253576 0.6875
C_ C_ 0.541321 0.599093 0.27189 -0.11473
C_ C_ 0.799666 0.589445 0.288182 -0.11473
C_ C_ 0.630111 0.721006 0.374001 0.17695
C_ C_ 0.880686 0.792808 0.375417 0.17695
C_ C_ 0.619604 0.792079 0.364046 0.17695
C_ C_ 0.872535 0.71866 0.3824 0.17695
C_ C_ 0.61821 0.7978 0.409962 -0.11473
C_ C_ 0.86969 0.723424 0.425263 -0.11473
C_ C_ 0.621827 0.763563 0.435802 0.23465
C_ C_ 0.874557 0.762323 0.446027 0.23465
C_ C_ 0.630908 0.725633 0.418506 -0.11473
C_ C_ 0.881063 0.797666 0.42003 -0.11473
C_ C_ 0.631679 0.711542 0.11637 0.17695
C_ C_ 0.872368 0.715265 0.123036 0.17695
C_ C_ 0.629579 0.784858 0.11304 0.17695
C_ C_ 0.873598 0.789295 0.122792 0.17695
C_ C_ 0.632037 0.784422 0.0692255 -0.11473
C_ C_ 0.866746 0.791235 0.0814888 -0.11473
C_ C_ 0.631033 0.745515 0.0473064 0.23465
C_ C_ 0.864684 0.755088 0.0581058 0.23465
C_ C_ 0.633087 0.709622 0.0722868 -0.11473
C_ C_ 0.867208 0.716719 0.0784791 -0.11473
C_ C_ 0.532583 0.997031 0.225497 0.05793
C_ C_ 0.782567 1.00182264 0.242141 0.05793
C_ C_ 0.722251 0.498949 0.238981 0.05793
C_ C_ 0.966667 0.499335 0.247707 0.05793
Br Br 0.573413 0.993456 0.201739 -0.17191
Br Br 0.825263 0.999597458 0.250091 -0.17191
Br Br 0.679904 0.502006 0.227299 -0.17191
Br Br 0.923006 0.498013 0.247401 -0.17191
N_ N_ 0.626416 0.752795 0.347997 -0.272
N_ N_ 0.879012 0.752346 0.358725 -0.272
N_ N_ 0.621802 0.768357 0.479571 -0.12501
N_ N_ 0.869854 0.768641 0.488204 -0.12501
N_ N_ 0.630958 0.749623 0.135871 -0.272
N_ N_ 0.876576 0.751512 0.144543 -0.272
N_ N_ 0.632595 0.742249 0.00287467 -0.12501
N_ N_ 0.854973 0.756109 0.014602 -0.12501
O_ O_ 0.594637 0.788357 0.20198 -0.60745
O_ O_ 0.844372 0.794215 0.215689 -0.60745
O_ O_ 0.598721 0.793549 0.270467 -0.60745
O_ O_ 0.845558 0.795072 0.284867 -0.60745
O_ O_ 0.659982 0.790484 0.280917 -0.60745
O_ O_ 0.908665 0.791929 0.289216 -0.60745
O_ O_ 0.658584 0.796735 0.21291 -0.60745
O_ O_ 0.904911 0.793267 0.219231 -0.60745
O_ O_ 0.660167 0.706473 0.272518 -0.60745
O_ O_ 0.911643 0.706801 0.284314 -0.60745
O_ O_ 0.659344 0.705344 0.204898 -0.60745
O_ O_ 0.903599 0.704477 0.217842 -0.60745
O_ O_ 0.599229 0.69995 0.198462 -0.60745
O_ O_ 0.845798 0.704315 0.218926 -0.60745
O_ O_ 0.596371 0.703349 0.267154 -0.60745
O_ O_ 0.846105 0.705522 0.287492 -0.60745
Zn Zn 0.625812 0.752714 0.776395 0.9476
Zn Zn 0.8702 0.747903 0.78564 0.9476
Zn Zn 0.62504 0.752178 0.709147 0.9476
Zn Zn 0.86868 0.751574 0.717371 0.9476
H_ H_ 0.538377 0.924628 0.672097 0.10932
H_ H_ 0.7867 0.919151 0.680462 0.10932
H_ H_ 0.560436 0.853419 0.809319 0.10932
H_ H_ 0.801465 0.847347 0.817425 0.10932
H_ H_ 0.568108 0.860833 0.67281 0.10932
H_ H_ 0.820475 0.859832 0.687672 0.10932
H_ H_ 0.520406 0.909305 0.801742 0.10932
H_ H_ 0.7672 0.908411 0.813915 0.10932
H_ H_ 0.707025 0.929301 0.801979 0.10932
H_ H_ 0.950545 0.927778 0.830042 0.10932
H_ H_ 0.68964 0.850931 0.670687 0.10932
H_ H_ 0.947955 0.84323 0.701963 0.10932
H_ H_ 0.680786 0.858622 0.80287 0.10932
H_ H_ 0.913503 0.867659 0.822475 0.10932
H_ H_ 0.720421 0.914598 0.6716 0.10932
H_ H_ 0.973007 0.910207 0.701198 0.10932
H_ H_ 0.706836 0.579801 0.81543 0.10932
H_ H_ 0.952428 0.571595 0.807864 0.10932
H_ H_ 0.686305 0.648645 0.679786 0.10932
H_ H_ 0.945061 0.665654 0.682017 0.10932
H_ H_ 0.683809 0.649365 0.812568 0.10932
H_ H_ 0.924442 0.63928 0.810921 0.10932
H_ H_ 0.711514 0.582065 0.678047 0.10932
H_ H_ 0.975003 0.598672 0.679774 0.10932
H_ H_ 0.529708 0.583279 0.687227 0.10932
H_ H_ 0.793085 0.566617 0.687358 0.10932
H_ H_ 0.5682 0.646961 0.820928 0.10932
H_ H_ 0.810169 0.653798 0.81615 0.10932
H_ H_ 0.555965 0.649636 0.684988 0.10932
H_ H_ 0.828229 0.628846 0.688466 0.10932
H_ H_ 0.547384 0.577601 0.818775 0.10932
H_ H_ 0.770153 0.59615 0.815236 0.10932
H_ H_ 0.637217 0.694888 0.861567 0.10932
H_ H_ 0.857683 0.684939 0.854533 0.10932
H_ H_ 0.61828 0.823243 0.844467 0.10932
H_ H_ 0.865906 0.813265 0.860734 0.10932
H_ H_ 0.608812 0.825451 0.921207 0.10932
H_ H_ 0.860138 0.8114 0.938247 0.10932
H_ H_ 0.64193 0.703362 0.934973 0.10932
H_ H_ 0.863316 0.680931 0.933041 0.10932
H_ H_ 0.62698 0.684304 0.633995 0.10932
H_ H_ 0.874463 0.814877 0.640933 0.10932
H_ H_ 0.617316 0.814487 0.627275 0.10932
H_ H_ 0.861612 0.686747 0.649143 0.10932
H_ H_ 0.607357 0.807287 0.550798 0.10932
H_ H_ 0.858387 0.68078 0.569263 0.10932
H_ H_ 0.634064 0.679188 0.5606 0.10932
H_ H_ 0.875304 0.813468 0.561211 0.10932
C_ C_ 0.564807 0.849977 0.740218 -0.02249
C_ C_ 0.808618 0.845418 0.749662 -0.02249
C_ C_ 0.513297 0.962869 0.738313 -0.02249
C_ C_ 0.761301 0.962287 0.744671 -0.02249
C_ C_ 0.540742 0.906108 0.701505 -0.11473
C_ C_ 0.789495 0.904573 0.710309 -0.11473
C_ C_ 0.552735 0.86504 0.778096 -0.11473
C_ C_ 0.796643 0.861142 0.787602 -0.11473
C_ C_ 0.558318 0.870919 0.702006 -0.11473
C_ C_ 0.807474 0.868679 0.713374 -0.11473
C_ C_ 0.528141 0.92116 0.737425 -0.02249
C_ C_ 0.775458 0.920277 0.74717 -0.02249
C_ C_ 0.587699 0.81489 0.743679 0.6875
C_ C_ 0.828842 0.808239 0.750648 0.6875
C_ C_ 0.533174 0.898327 0.775066 -0.11473
C_ C_ 0.780285 0.898688 0.786162 -0.11473
C_ C_ 0.680188 0.851797 0.736736 -0.02249
C_ C_ 0.927303 0.850462 0.761819 -0.02249
C_ C_ 0.73028 0.96354 0.738281 -0.02249
C_ C_ 0.981921 0.962481 0.766099 -0.02249
C_ C_ 0.702863 0.910197 0.775104 -0.11473
C_ C_ 0.949445 0.908933 0.803382 -0.11473
C_ C_ 0.692117 0.868789 0.699027 -0.11473
C_ C_ 0.946259 0.862223 0.729424 -0.11473
C_ C_ 0.685178 0.873109 0.774135 -0.11473
C_ C_ 0.929256 0.87427 0.798696 -0.11473
C_ C_ 0.713252 0.925711 0.736661 -0.02249
C_ C_ 0.965384 0.922676 0.76745 -0.02249
C_ C_ 0.662839 0.813888 0.736628 0.6875
C_ C_ 0.907892 0.812739 0.758468 0.6875
C_ C_ 0.709375 0.904972 0.699049 -0.11473
C_ C_ 0.964399 0.898488 0.730939 -0.11473
C_ C_ 0.684898 0.654509 0.746293 -0.02249
C_ C_ 0.933298 0.656452 0.748488 -0.02249
C_ C_ 0.732118 0.538188 0.75231 -0.02249
C_ C_ 0.982335 0.5436 0.742947 -0.02249
C_ C_ 0.708313 0.598558 0.787294 -0.11473
C_ C_ 0.95148 0.594247 0.779639 -0.11473
C_ C_ 0.694653 0.636207 0.709 -0.11473
C_ C_ 0.945981 0.64387 0.708677 -0.11473
C_ C_ 0.693703 0.636947 0.784981 -0.11473
C_ C_ 0.936118 0.630544 0.783079 -0.11473
C_ C_ 0.714986 0.579747 0.74948 -0.02249
C_ C_ 0.964574 0.581934 0.742562 -0.02249
C_ C_ 0.666129 0.6926 0.743453 0.6875
C_ C_ 0.913882 0.69515 0.751037 0.6875
C_ C_ 0.707803 0.597602 0.709394 -0.11473
C_ C_ 0.962137 0.60691 0.707525 -0.11473
C_ C_ 0.566095 0.654148 0.753095 -0.02249
C_ C_ 0.817202 0.649255 0.749383 -0.02249
C_ C_ 0.515038 0.538239 0.756874 -0.02249
C_ C_ 0.764147 0.537498 0.753502 -0.02249
C_ C_ 0.538683 0.596804 0.715931 -0.11473
C_ C_ 0.795127 0.58865 0.713299 -0.11473
C_ C_ 0.560996 0.633761 0.790645 -0.11473
C_ C_ 0.802664 0.637756 0.785934 -0.11473
C_ C_ 0.552663 0.635912 0.716602 -0.11473
C_ C_ 0.813691 0.623214 0.712679 -0.11473
C_ C_ 0.534443 0.576596 0.754483 -0.02249
C_ C_ 0.782283 0.575823 0.751755 -0.02249
C_ C_ 0.585815 0.69121 0.750841 0.6875
C_ C_ 0.836363 0.686357 0.749246 0.6875
C_ C_ 0.546115 0.595011 0.791045 -0.11473
C_ C_ 0.783444 0.602456 0.786066 -0.11473
C_ C_ 0.636843 0.72594 0.872434 0.17695
C_ C_ 0.860962 0.712936 0.874298 0.17695
C_ C_ 0.62248 0.796173 0.863948 0.17695
C_ C_ 0.865881 0.784425 0.878394 0.17695
C_ C_ 0.619278 0.798457 0.9081 -0.11473
C_ C_ 0.861824 0.784761 0.921083 -0.11473
C_ C_ 0.629669 0.768096 0.93459 0.23465
C_ C_ 0.862464 0.746679 0.941577 0.23465
C_ C_ 0.636724 0.730558 0.915859 -0.11473
C_ C_ 0.860887 0.710686 0.918506 -0.11473
C_ C_ 0.623291 0.712994 0.61851 0.17695
C_ C_ 0.870082 0.785843 0.624642 0.17695
C_ C_ 0.615112 0.78419 0.612807 0.17695
C_ C_ 0.866448 0.713702 0.627785 0.17695
C_ C_ 0.614342 0.781169 0.569509 -0.11473
C_ C_ 0.861215 0.711561 0.583728 -0.11473
C_ C_ 0.620268 0.743284 0.549419 0.23465
C_ C_ 0.866935 0.746637 0.558315 0.23465
C_ C_ 0.626474 0.709299 0.576095 -0.11473
C_ C_ 0.870447 0.784921 0.580686 -0.11473
C_ C_ 0.530174 -0.0024969999999999715 0.736122 0.05793
C_ C_ 0.778307 0.000617121 0.749366 0.05793
C_ C_ 0.715846 0.501504 0.756392 0.05793
C_ C_ 0.968165 0.50371 0.737913 0.05793
Br Br 0.573145 -0.005272000000000054 0.737175 -0.17191
Br Br 0.822584 1.00160421 0.757787 -0.17191
Br Br 0.673075 0.500682 0.763331 -0.17191
Br Br 0.927046 0.501019 0.718788 -0.17191
N_ N_ 0.631106 0.759474 0.846476 -0.272
N_ N_ 0.866678 0.74835 0.855601 -0.272
N_ N_ 0.626556 0.772124 0.978628 -0.12501
N_ N_ 0.870622 0.743209 0.985747 -0.12501
N_ N_ 0.618569 0.749833 0.636362 -0.272
N_ N_ 0.870086 0.749721 0.647502 -0.272
N_ N_ 0.621028 0.737904 0.504483 -0.12501
N_ N_ 0.873902 0.740579 0.514225 -0.12501
O_ O_ 0.596032 0.796963 0.711303 -0.60745
O_ O_ 0.837741 0.791889 0.716277 -0.60745
O_ O_ 0.594923 0.799453 0.779071 -0.60745
O_ O_ 0.838196 0.793419 0.783949 -0.60745
O_ O_ 0.654115 0.799416 0.771893 -0.60745
O_ O_ 0.895826 0.798737 0.791077 -0.60745
O_ O_ 0.654908 0.796476 0.702357 -0.60745
O_ O_ 0.899743 0.798152 0.722196 -0.60745
O_ O_ 0.654594 0.707775 0.776788 -0.60745
O_ O_ 0.902904 0.706193 0.784811 -0.60745
O_ O_ 0.657322 0.705108 0.708212 -0.60745
O_ O_ 0.903239 0.711509 0.716353 -0.60745
O_ O_ 0.595262 0.701686 0.714699 -0.60745
O_ O_ 0.840271 0.705529 0.716451 -0.60745
O_ O_ 0.595895 0.709389 0.78402 -0.60745
O_ O_ 0.83889 0.705061 0.783187 -0.60745
_cell_length_a 44.444
_cell_length_b 32.3360000049186
_cell_length_c 31.843999878906452
_cell_angle_alpha 89.99799923859553
_cell_angle_beta 91.13600050494348
_cell_angle_gamma 89.9990006550086
_symmetry_space_group_name_H-M         'P 1'
_symmetry_Int_Tables_number            1
loop_
_symmetry_equiv_pos_as_xyz
   'x, y, z'
                         
loop_
_atom_site_label
_atom_site_type_symbol
_atom_site_fract_x 
_atom_site_fract_y
_atom_site_fract_z
_atom_site_charge
Zn Zn 0.124852 0.249768 0.291229 0.9476
Zn Zn 0.378184 0.249069 0.286632 0.9476
Zn Zn 0.123724 0.24937 0.220908 0.9476
Zn Zn 0.374909 0.245911 0.217613 0.9476
H_ H_ 0.0329603 0.418034 0.181155 0.10932
H_ H_ 0.28751 0.418517 0.186096 0.10932
H_ H_ 0.0688945 0.358968 0.316532 0.10932
H_ H_ 0.307093 0.345356 0.319104 0.10932
H_ H_ 0.0613809 0.350296 0.182516 0.10932
H_ H_ 0.319881 0.360685 0.184352 0.10932
H_ H_ 0.0367443 0.422146 0.316145 0.10932
H_ H_ 0.283315 0.410454 0.321781 0.10932
H_ H_ 0.232475 0.398508 0.317617 0.10932
H_ H_ 0.454937 0.427909 0.306153 0.10932
H_ H_ 0.166525 0.368954 0.194427 0.10932
H_ H_ 0.451362 0.332604 0.187031 0.10932
H_ H_ 0.20304 0.336113 0.316813 0.10932
H_ H_ 0.421326 0.370172 0.307027 0.10932
H_ H_ 0.199642 0.432797 0.193919 0.10932
H_ H_ 0.47991 0.397536 0.179622 0.10932
H_ H_ 0.21025 0.0777782 0.32144 0.10932
H_ H_ 0.469499 0.0752687 0.308403 0.10932
H_ H_ 0.189138 0.155902 0.192849 0.10932
H_ H_ 0.44815 0.164206 0.181738 0.10932
H_ H_ 0.182229 0.143831 0.327861 0.10932
H_ H_ 0.433952 0.133525 0.3142 0.10932
H_ H_ 0.20885 0.0858188 0.188286 0.10932
H_ H_ 0.474166 0.0933667 0.177394 0.10932
H_ H_ 0.0457972 0.0683455 0.1984 0.10932
H_ H_ 0.296419 0.0740682 0.179847 0.10932
H_ H_ 0.0503264 0.159345 0.320497 0.10932
H_ H_ 0.303915 0.156509 0.313646 0.10932
H_ H_ 0.0719183 0.136706 0.190221 0.10932
H_ H_ 0.311415 0.146719 0.183076 0.10932
H_ H_ 0.0250996 0.090194 0.323209 0.10932
H_ H_ 0.274272 0.0879098 0.312619 0.10932
H_ H_ 0.131304 0.184304 0.370058 0.10932
H_ H_ 0.385503 0.182223 0.353773 0.10932
H_ H_ 0.122305 0.312832 0.361302 0.10932
H_ H_ 0.369921 0.311254 0.369063 0.10932
H_ H_ 0.133788 0.322742 0.437484 0.10932
H_ H_ 0.376776 0.304423 0.447556 0.10932
H_ H_ 0.125881 0.188201 0.446407 0.10932
H_ H_ 0.385501 0.172703 0.430306 0.10932
H_ H_ 0.122728 0.317404 0.149698 0.10932
H_ H_ 0.41011 0.206703 0.137001 0.10932
H_ H_ 0.118551 0.185699 0.140887 0.10932
H_ H_ 0.33867 0.289529 0.145473 0.10932
H_ H_ 0.116952 0.193278 0.0609789 0.10932
H_ H_ 0.332023 0.292349 0.0675173 0.10932
H_ H_ 0.119748 0.323163 0.0732694 0.10932
H_ H_ 0.407693 0.210504 0.058398 0.10932
C_ C_ 0.0663836 0.348984 0.24935 -0.02249
C_ C_ 0.314305 0.343126 0.250152 -0.02249
C_ C_ 0.0154899 0.463951 0.248576 -0.02249
C_ C_ 0.267264 0.461116 0.254284 -0.02249
C_ C_ 0.0390449 0.402196 0.2108 -0.11473
C_ C_ 0.293396 0.404132 0.214512 -0.11473
C_ C_ 0.0591517 0.368957 0.286244 -0.11473
C_ C_ 0.306433 0.36246 0.288857 -0.11473
C_ C_ 0.0585216 0.369086 0.210861 -0.11473
C_ C_ 0.308757 0.366901 0.213203 -0.11473
C_ C_ 0.0337639 0.424517 0.248792 -0.02249
C_ C_ 0.284374 0.421681 0.252275 -0.02249
C_ C_ 0.0821059 0.308516 0.250809 0.6875
C_ C_ 0.338479 0.30995 0.25029 0.6875
C_ C_ 0.0407119 0.40467 0.285773 -0.11473
C_ C_ 0.29153 0.400478 0.289515 -0.11473
C_ C_ 0.180558 0.351643 0.256212 -0.02249
C_ C_ 0.435521 0.345263 0.247898 -0.02249
C_ C_ 0.235413 0.459663 0.258949 -0.02249
C_ C_ 0.485389 0.459656 0.240244 -0.02249
C_ C_ 0.21577 0.394324 0.292066 -0.11473
C_ C_ 0.452086 0.409847 0.278955 -0.11473
C_ C_ 0.180808 0.377894 0.221431 -0.11473
C_ C_ 0.453057 0.354866 0.212912 -0.11473
C_ C_ 0.197165 0.359914 0.292983 -0.11473
C_ C_ 0.433053 0.376698 0.278029 -0.11473
C_ C_ 0.218209 0.419794 0.25628 -0.02249
C_ C_ 0.469435 0.419128 0.243783 -0.02249
C_ C_ 0.160957 0.314024 0.255003 0.6875
C_ C_ 0.417163 0.305846 0.250813 0.6875
C_ C_ 0.201239 0.410475 0.220591 -0.11473
C_ C_ 0.467308 0.391459 0.208522 -0.11473
C_ C_ 0.185524 0.156591 0.260668 -0.02249
C_ C_ 0.436782 0.152854 0.248126 -0.02249
C_ C_ 0.232617 0.0373735 0.251533 -0.02249
C_ C_ 0.486895 0.0381228 0.238545 -0.02249
C_ C_ 0.206348 0.0952097 0.293918 -0.11473
C_ C_ 0.463608 0.0924262 0.281093 -0.11473
C_ C_ 0.195525 0.141865 0.221669 -0.11473
C_ C_ 0.449337 0.141518 0.207263 -0.11473
C_ C_ 0.190381 0.131966 0.296851 -0.11473
C_ C_ 0.443757 0.126324 0.283653 -0.11473
C_ C_ 0.215558 0.0781021 0.256754 -0.02249
C_ C_ 0.47129 0.078464 0.241349 -0.02249
C_ C_ 0.165776 0.193672 0.258959 0.6875
C_ C_ 0.413792 0.185914 0.249207 0.6875
C_ C_ 0.208349 0.10096 0.218681 -0.11473
C_ C_ 0.463601 0.1021 0.205349 -0.11473
C_ C_ 0.0635065 0.153684 0.25498 -0.02249
C_ C_ 0.31508 0.150474 0.249622 -0.02249
C_ C_ 0.0184864 0.0351825 0.264169 -0.02249
C_ C_ 0.26335 0.0361515 0.244642 -0.02249
C_ C_ 0.0485921 0.0885267 0.224651 -0.11473
C_ C_ 0.297611 0.090018 0.209647 -0.11473
C_ C_ 0.0479039 0.141702 0.292126 -0.11473
C_ C_ 0.301972 0.135306 0.286821 -0.11473
C_ C_ 0.061506 0.127312 0.219813 -0.11473
C_ C_ 0.31001 0.129882 0.211015 -0.11473
C_ C_ 0.0387534 0.0730292 0.262977 -0.02249
C_ C_ 0.280752 0.0765111 0.245545 -0.02249
C_ C_ 0.08473 0.190976 0.255475 0.6875
C_ C_ 0.336083 0.186836 0.25002 0.6875
C_ C_ 0.0374275 0.100185 0.296435 -0.11473
C_ C_ 0.283729 0.0996613 0.284112 -0.11473
C_ C_ 0.130547 0.213455 0.384267 0.17695
C_ C_ 0.38064 0.207918 0.374026 0.17695
C_ C_ 0.128804 0.2864 0.381276 0.17695
C_ C_ 0.377166 0.280949 0.382821 0.17695
C_ C_ 0.132852 0.291058 0.425165 -0.11473
C_ C_ 0.379393 0.276119 0.42785 -0.11473
C_ C_ 0.133437 0.253892 0.448897 0.23465
C_ C_ 0.378686 0.236262 0.445422 0.23465
C_ C_ 0.129753 0.216527 0.428055 -0.11473
C_ C_ 0.380362 0.201509 0.417966 -0.11473
C_ C_ 0.124501 0.289918 0.1304 0.17695
C_ C_ 0.392705 0.223511 0.120803 0.17695
C_ C_ 0.121843 0.216759 0.125567 0.17695
C_ C_ 0.352233 0.269001 0.127488 0.17695
C_ C_ 0.119411 0.219879 0.0804464 -0.11473
C_ C_ 0.348837 0.272259 0.0823601 -0.11473
C_ C_ 0.119641 0.257965 0.0603433 0.23465
C_ C_ 0.369217 0.250782 0.0579324 0.23465
C_ C_ 0.121627 0.293664 0.0871427 -0.11473
C_ C_ 0.390812 0.22508 0.0770567 -0.11473
C_ C_ 0.0305037 0.500873 0.242813 0.05793
C_ C_ 0.282668 0.499838 0.259169 0.05793
C_ C_ 0.215648 -0.0007160000000000499 0.253508 0.05793
C_ C_ 0.471115 1.000495174 0.236407 0.05793
Br Br 0.0754508 0.501405 0.23995 -0.17191
Br Br 0.325454 0.499305 0.260865 -0.17191
Br Br 0.173745 0.0011600000000000499 0.242169 -0.17191
Br Br 0.42817 1.00364771 0.232416 -0.17191
N_ N_ 0.128563 0.249149 0.36212 -0.272
N_ N_ 0.381106 0.247834 0.357454 -0.272
N_ N_ 0.137127 0.256943 0.494149 -0.12501
N_ N_ 0.381063 0.232245 0.48999 -0.12501
N_ N_ 0.123003 0.252634 0.149699 -0.272
N_ N_ 0.374087 0.246779 0.145407 -0.272
N_ N_ 0.117628 0.264656 0.0152508 -0.12501
N_ N_ 0.366891 0.255188 0.0131516 -0.12501
O_ O_ 0.0898244 0.291547 0.21719 -0.60745
O_ O_ 0.347853 0.296979 0.2173 -0.60745
O_ O_ 0.0931772 0.293069 0.285819 -0.60745
O_ O_ 0.345502 0.291389 0.284676 -0.60745
O_ O_ 0.152686 0.29867 0.289472 -0.60745
O_ O_ 0.408774 0.292318 0.285676 -0.60745
O_ O_ 0.152276 0.295588 0.221396 -0.60745
O_ O_ 0.407197 0.287803 0.219035 -0.60745
O_ O_ 0.155251 0.206959 0.294191 -0.60745
O_ O_ 0.4097 0.204849 0.283064 -0.60745
O_ O_ 0.155872 0.207926 0.223577 -0.60745
O_ O_ 0.404578 0.202002 0.216061 -0.60745
O_ O_ 0.0963767 0.201982 0.221577 -0.60745
O_ O_ 0.34529 0.202268 0.216119 -0.60745
O_ O_ 0.0944459 0.207115 0.289782 -0.60745
O_ O_ 0.346582 0.20242 0.284992 -0.60745
Zn Zn 0.122204 0.253106 0.787485 0.9476
Zn Zn 0.374705 0.249136 0.784452 0.9476
Zn Zn 0.127004 0.250869 0.722464 0.9476
Zn Zn 0.377973 0.248942 0.71505 0.9476
H_ H_ 0.0574775 0.43441 0.697247 0.10932
H_ H_ 0.286575 0.426129 0.691188 0.10932
H_ H_ 0.0453958 0.34633 0.821352 0.10932
H_ H_ 0.315421 0.35289 0.820994 0.10932
H_ H_ 0.0786249 0.368477 0.693179 0.10932
H_ H_ 0.320132 0.359343 0.686299 0.10932
H_ H_ 0.0136394 0.410727 0.812041 0.10932
H_ H_ 0.278465 0.409823 0.822996 0.10932
H_ H_ 0.205902 0.427011 0.821842 0.10932
H_ H_ 0.453306 0.422591 0.81623 0.10932
H_ H_ 0.188533 0.353406 0.687452 0.10932
H_ H_ 0.430511 0.356308 0.680557 0.10932
H_ H_ 0.177505 0.360444 0.82117 0.10932
H_ H_ 0.436099 0.346211 0.81416 0.10932
H_ H_ 0.230657 0.407707 0.693121 0.10932
H_ H_ 0.457174 0.421893 0.683054 0.10932
H_ H_ 0.217963 0.0829106 0.817797 0.10932
H_ H_ 0.453041 0.0714164 0.810199 0.10932
H_ H_ 0.18595 0.152702 0.688994 0.10932
H_ H_ 0.449717 0.160389 0.683328 0.10932
H_ H_ 0.190898 0.147667 0.824677 0.10932
H_ H_ 0.42558 0.142539 0.812378 0.10932
H_ H_ 0.216689 0.0891298 0.68352 0.10932
H_ H_ 0.476757 0.0889383 0.684273 0.10932
H_ H_ 0.0453085 0.0720556 0.690002 0.10932
H_ H_ 0.296691 0.0735064 0.685383 0.10932
H_ H_ 0.0559982 0.156639 0.820588 0.10932
H_ H_ 0.310662 0.149388 0.821461 0.10932
H_ H_ 0.072562 0.137808 0.686865 0.10932
H_ H_ 0.332699 0.133174 0.691095 0.10932
H_ H_ 0.0340167 0.0885909 0.825877 0.10932
H_ H_ 0.27722 0.0905912 0.816921 0.10932
H_ H_ 0.106098 0.309974 0.870507 0.10932
H_ H_ 0.366528 0.309377 0.864815 0.10932
H_ H_ 0.133273 0.183001 0.855644 0.10932
H_ H_ 0.393079 0.184571 0.855281 0.10932
H_ H_ 0.132025 0.17661 0.933823 0.10932
H_ H_ 0.387523 0.176493 0.926817 0.10932
H_ H_ 0.113225 0.304263 0.947795 0.10932
H_ H_ 0.363858 0.30271 0.940835 0.10932
H_ H_ 0.129399 0.180495 0.652721 0.10932
H_ H_ 0.384599 0.187925 0.638199 0.10932
H_ H_ 0.132795 0.31252 0.642697 0.10932
H_ H_ 0.367404 0.316093 0.645338 0.10932
H_ H_ 0.132901 0.307538 0.566049 0.10932
H_ H_ 0.358288 0.316678 0.565667 0.10932
H_ H_ 0.131435 0.176383 0.577008 0.10932
H_ H_ 0.373519 0.186435 0.561497 0.10932
C_ C_ 0.0625666 0.348404 0.756307 -0.02249
C_ C_ 0.319714 0.348705 0.754624 -0.02249
C_ C_ 0.0142579 0.466879 0.752815 -0.02249
C_ C_ 0.267104 0.46221 0.758032 -0.02249
C_ C_ 0.0497182 0.414109 0.72094 -0.11473
C_ C_ 0.293833 0.405381 0.717777 -0.11473
C_ C_ 0.0469324 0.363758 0.791929 -0.11473
C_ C_ 0.307416 0.363352 0.792211 -0.11473
C_ C_ 0.0637359 0.375458 0.720992 -0.11473
C_ C_ 0.311494 0.369334 0.715638 -0.11473
C_ C_ 0.0321175 0.426319 0.753303 -0.02249
C_ C_ 0.283179 0.421637 0.756007 -0.02249
C_ C_ 0.0812779 0.309821 0.756834 0.6875
C_ C_ 0.336613 0.308789 0.753124 0.6875
C_ C_ 0.029537 0.40101 0.788732 -0.11473
C_ C_ 0.288634 0.398052 0.793126 -0.11473
C_ C_ 0.181663 0.3488 0.754783 -0.02249
C_ C_ 0.435585 0.344372 0.747181 -0.02249
C_ C_ 0.234207 0.461996 0.757448 -0.02249
C_ C_ 0.481678 0.463192 0.74924 -0.02249
C_ C_ 0.203926 0.407348 0.793151 -0.11473
C_ C_ 0.456068 0.402789 0.787342 -0.11473
C_ C_ 0.196731 0.364459 0.718874 -0.11473
C_ C_ 0.438525 0.368423 0.711372 -0.11473
C_ C_ 0.187302 0.371667 0.794008 -0.11473
C_ C_ 0.443218 0.361904 0.785862 -0.11473
C_ C_ 0.217712 0.42214 0.757857 -0.02249
C_ C_ 0.464451 0.424509 0.74986 -0.02249
C_ C_ 0.165167 0.309344 0.755784 0.6875
C_ C_ 0.415711 0.306161 0.743766 0.6875
C_ C_ 0.214248 0.400416 0.718961 -0.11473
C_ C_ 0.45473 0.40596 0.71141 -0.11473
C_ C_ 0.181542 0.153599 0.757483 -0.02249
C_ C_ 0.436744 0.15618 0.747021 -0.02249
C_ C_ 0.233599 0.0421281 0.746867 -0.02249
C_ C_ 0.483461 0.0383585 0.745318 -0.02249
C_ C_ 0.208307 0.0964506 0.790297 -0.11473
C_ C_ 0.451447 0.0926666 0.782246 -0.11473
C_ C_ 0.192108 0.138406 0.718442 -0.11473
C_ C_ 0.453059 0.143543 0.710238 -0.11473
C_ C_ 0.19419 0.135358 0.793743 -0.11473
C_ C_ 0.437271 0.132033 0.784 -0.11473
C_ C_ 0.218725 0.0810268 0.75234 -0.02249
C_ C_ 0.46844 0.0791934 0.746616 -0.02249
C_ C_ 0.163311 0.1924 0.758627 0.6875
C_ C_ 0.416549 0.193717 0.745573 0.6875
C_ C_ 0.209181 0.101654 0.715576 -0.11473
C_ C_ 0.467732 0.103763 0.712207 -0.11473
C_ C_ 0.0651131 0.153574 0.752544 -0.02249
C_ C_ 0.318595 0.151108 0.753381 -0.02249
C_ C_ 0.0161039 0.0379181 0.761164 -0.02249
C_ C_ 0.264157 0.0388926 0.748434 -0.02249
C_ C_ 0.0451387 0.091553 0.717815 -0.11473
C_ C_ 0.298262 0.0917787 0.713599 -0.11473
C_ C_ 0.0530938 0.138566 0.790473 -0.11473
C_ C_ 0.305158 0.135566 0.789754 -0.11473
C_ C_ 0.0630425 0.127328 0.717025 -0.11473
C_ C_ 0.315025 0.129632 0.71517 -0.11473
C_ C_ 0.0343733 0.0765059 0.75768 -0.02249
C_ C_ 0.282473 0.0791318 0.747484 -0.02249
C_ C_ 0.0871124 0.189617 0.753718 0.6875
C_ C_ 0.337212 0.188187 0.754236 0.6875
C_ C_ 0.0392726 0.100592 0.794188 -0.11473
C_ C_ 0.286403 0.101372 0.786888 -0.11473
C_ C_ 0.114234 0.280781 0.88211 0.17695
C_ C_ 0.374972 0.280913 0.87815 0.17695
C_ C_ 0.12556 0.209887 0.874334 0.17695
C_ C_ 0.390679 0.213242 0.873906 0.17695
C_ C_ 0.128184 0.20561 0.918969 -0.11473
C_ C_ 0.386569 0.207357 0.917551 -0.11473
C_ C_ 0.120586 0.239142 0.945018 0.23465
C_ C_ 0.376927 0.239211 0.94292 0.23465
C_ C_ 0.113016 0.276252 0.92662 -0.11473
C_ C_ 0.372731 0.277328 0.923402 -0.11473
C_ C_ 0.128843 0.209154 0.633524 0.17695
C_ C_ 0.376606 0.215299 0.623386 0.17695
C_ C_ 0.132127 0.282143 0.628141 0.17695
C_ C_ 0.365852 0.287859 0.626422 0.17695
C_ C_ 0.133315 0.279194 0.584614 -0.11473
C_ C_ 0.363621 0.288793 0.582199 -0.11473
C_ C_ 0.128497 0.241088 0.564691 0.23465
C_ C_ 0.365387 0.252799 0.55764 0.23465
C_ C_ 0.127303 0.206021 0.589857 -0.11473
C_ C_ 0.371906 0.213684 0.57902 -0.11473
C_ C_ 0.0304772 0.505506 0.758616 0.05793
C_ C_ 0.284099 0.499468 0.756036 0.05793
C_ C_ 0.21743 0.00318344 0.742586 0.05793
C_ C_ 0.466283 1.00276894 0.742327 0.05793
Br Br 0.0689078 0.504355 0.787553 -0.17191
Br Br 0.328112 0.501296 0.757636 -0.17191
Br Br 0.174329 0.00514605 0.748253 -0.17191
Br Br 0.421808 1.0035096 0.735986 -0.17191
N_ N_ 0.122824 0.249115 0.857035 -0.272
N_ N_ 0.383267 0.248597 0.85453 -0.272
N_ N_ 0.121426 0.235733 0.99031 -0.12501
N_ N_ 0.378391 0.232785 0.986215 -0.12501
N_ N_ 0.127699 0.247215 0.651013 -0.272
N_ N_ 0.373261 0.251684 0.645306 -0.272
N_ N_ 0.120114 0.239771 0.520993 -0.12501
N_ N_ 0.366964 0.256412 0.513101 -0.12501
O_ O_ 0.0929192 0.29841 0.721397 -0.60745
O_ O_ 0.345184 0.291483 0.717981 -0.60745
O_ O_ 0.0903857 0.295089 0.790928 -0.60745
O_ O_ 0.345731 0.291674 0.786834 -0.60745
O_ O_ 0.154719 0.296699 0.790705 -0.60745
O_ O_ 0.406385 0.290039 0.777407 -0.60745
O_ O_ 0.156838 0.293824 0.719973 -0.60745
O_ O_ 0.405298 0.295232 0.709543 -0.60745
O_ O_ 0.155955 0.210203 0.792288 -0.60745
O_ O_ 0.405153 0.20611 0.778886 -0.60745
O_ O_ 0.154022 0.208418 0.72435 -0.60745
O_ O_ 0.406715 0.206141 0.710261 -0.60745
O_ O_ 0.0966767 0.202609 0.718077 -0.60745
O_ O_ 0.347751 0.203287 0.719065 -0.60745
O_ O_ 0.0928339 0.207527 0.787313 -0.60745
O_ O_ 0.344514 0.205829 0.789272 -0.60745
Zn Zn 0.125909 0.745296 0.290483 0.9476
Zn Zn 0.376009 0.75086 0.290001 0.9476
Zn Zn 0.126538 0.744736 0.219706 0.9476
Zn Zn 0.374173 0.748208 0.217872 0.9476
H_ H_ 0.0393928 0.921367 0.186099 0.10932
H_ H_ 0.277332 0.91193 0.190379 0.10932
H_ H_ 0.0589054 0.843793 0.31696 0.10932
H_ H_ 0.309405 0.85217 0.325343 0.10932
H_ H_ 0.063784 0.848177 0.18474 0.10932
H_ H_ 0.302258 0.844299 0.190885 0.10932
H_ H_ 0.0248488 0.90494 0.31472 0.10932
H_ H_ 0.280107 0.914138 0.322837 0.10932
H_ H_ 0.213833 0.914487 0.324822 0.10932
H_ H_ 0.484752 0.909686 0.303315 0.10932
H_ H_ 0.192037 0.845485 0.189905 0.10932
H_ H_ 0.419324 0.865211 0.184704 0.10932
H_ H_ 0.184824 0.849961 0.322153 0.10932
H_ H_ 0.456599 0.838738 0.308364 0.10932
H_ H_ 0.21481 0.916801 0.191196 0.10932
H_ H_ 0.451113 0.927375 0.18201 0.10932
H_ H_ 0.224003 0.587979 0.319481 0.10932
H_ H_ 0.444591 0.562887 0.301085 0.10932
H_ H_ 0.177994 0.64061 0.18709 0.10932
H_ H_ 0.452088 0.661548 0.18558 0.10932
H_ H_ 0.185651 0.644308 0.321877 0.10932
H_ H_ 0.419489 0.628757 0.307346 0.10932
H_ H_ 0.205978 0.575206 0.186429 0.10932
H_ H_ 0.478018 0.593414 0.18069 0.10932
H_ H_ 0.0286348 0.591963 0.179271 0.10932
H_ H_ 0.293166 0.574732 0.189693 0.10932
H_ H_ 0.0640676 0.644783 0.314406 0.10932
H_ H_ 0.306056 0.651963 0.320547 0.10932
H_ H_ 0.0555358 0.654813 0.183917 0.10932
H_ H_ 0.321123 0.634267 0.187601 0.10932
H_ H_ 0.0370896 0.577739 0.314224 0.10932
H_ H_ 0.280112 0.58673 0.322809 0.10932
H_ H_ 0.139345 0.801684 0.370662 0.10932
H_ H_ 0.400023 0.812086 0.361769 0.10932
H_ H_ 0.115597 0.677838 0.362853 0.10932
H_ H_ 0.357212 0.696613 0.364408 0.10932
H_ H_ 0.11535 0.674808 0.441543 0.10932
H_ H_ 0.3469 0.705924 0.43855 0.10932
H_ H_ 0.127674 0.803089 0.44841 0.10932
H_ H_ 0.395507 0.817022 0.439936 0.10932
H_ H_ 0.113135 0.681435 0.146282 0.10932
H_ H_ 0.378472 0.814513 0.150484 0.10932
H_ H_ 0.138693 0.808634 0.146782 0.10932
H_ H_ 0.37031 0.686089 0.13973 0.10932
H_ H_ 0.132155 0.812119 0.0701398 0.10932
H_ H_ 0.372328 0.690647 0.0618114 0.10932
H_ H_ 0.108611 0.684121 0.0648476 0.10932
H_ H_ 0.389051 0.821918 0.0731313 0.10932
C_ C_ 0.0673352 0.845142 0.250302 -0.02249
C_ C_ 0.314635 0.846999 0.257248 -0.02249
C_ C_ 0.0159021 0.958422 0.253939 -0.02249
C_ C_ 0.263128 0.960051 0.255568 -0.02249
C_ C_ 0.0416768 0.901578 0.213386 -0.11473
C_ C_ 0.285445 0.897825 0.21901 -0.11473
C_ C_ 0.056043 0.861417 0.287637 -0.11473
C_ C_ 0.306766 0.865894 0.295208 -0.11473
C_ C_ 0.0603068 0.864692 0.212755 -0.11473
C_ C_ 0.302156 0.862775 0.219627 -0.11473
C_ C_ 0.0325153 0.919088 0.251526 -0.02249
C_ C_ 0.280944 0.920091 0.255797 -0.02249
C_ C_ 0.0861901 0.806124 0.252663 0.6875
C_ C_ 0.336383 0.810413 0.257917 0.6875
C_ C_ 0.0369814 0.89656 0.287169 -0.11473
C_ C_ 0.290256 0.902427 0.29363 -0.11473
C_ C_ 0.18307 0.846239 0.255881 -0.02249
C_ C_ 0.438585 0.844106 0.243613 -0.02249
C_ C_ 0.230173 0.961148 0.256691 -0.02249
C_ C_ 0.48556 0.961165 0.237679 -0.02249
C_ C_ 0.20689 0.901363 0.293483 -0.11473
C_ C_ 0.474004 0.89408 0.275471 -0.11473
C_ C_ 0.193058 0.862736 0.218094 -0.11473
C_ C_ 0.435393 0.871606 0.209846 -0.11473
C_ C_ 0.192532 0.863679 0.293878 -0.11473
C_ C_ 0.457349 0.856403 0.278326 -0.11473
C_ C_ 0.212778 0.922776 0.255184 -0.02249
C_ C_ 0.470322 0.921176 0.240888 -0.02249
C_ C_ 0.167067 0.805173 0.254478 0.6875
C_ C_ 0.417874 0.807975 0.248923 0.6875
C_ C_ 0.204433 0.903983 0.218333 -0.11473
C_ C_ 0.45168 0.908192 0.208986 -0.11473
C_ C_ 0.184216 0.648605 0.255562 -0.02249
C_ C_ 0.433363 0.651496 0.247211 -0.02249
C_ C_ 0.233509 0.535106 0.254776 -0.02249
C_ C_ 0.485303 0.534649 0.240061 -0.02249
C_ C_ 0.21245 0.59793 0.291811 -0.11473
C_ C_ 0.451786 0.586127 0.280913 -0.11473
C_ C_ 0.188675 0.629074 0.217006 -0.11473
C_ C_ 0.451247 0.640476 0.213173 -0.11473
C_ C_ 0.193233 0.631084 0.293157 -0.11473
C_ C_ 0.433418 0.622932 0.281183 -0.11473
C_ C_ 0.21719 0.575834 0.253747 -0.02249
C_ C_ 0.468396 0.57469 0.243708 -0.02249
C_ C_ 0.16561 0.686877 0.256548 0.6875
C_ C_ 0.41356 0.688256 0.250707 0.6875
C_ C_ 0.205577 0.592241 0.216042 -0.11473
C_ C_ 0.469009 0.604747 0.210792 -0.11473
C_ C_ 0.0655649 0.650855 0.249156 -0.02249
C_ C_ 0.314701 0.653311 0.254414 -0.02249
C_ C_ 0.0143076 0.538061 0.241518 -0.02249
C_ C_ 0.266476 0.53612 0.255541 -0.02249
C_ C_ 0.0343959 0.6027 0.209951 -0.11473
C_ C_ 0.295482 0.591615 0.218106 -0.11473
C_ C_ 0.0560985 0.632598 0.28557 -0.11473
C_ C_ 0.303045 0.637336 0.291356 -0.11473
C_ C_ 0.0531725 0.636987 0.212558 -0.11473
C_ C_ 0.309333 0.62925 0.217234 -0.11473
C_ C_ 0.0317871 0.57868 0.244979 -0.02249
C_ C_ 0.283589 0.575698 0.2553 -0.02249
C_ C_ 0.0853824 0.686664 0.251465 0.6875
C_ C_ 0.334436 0.690319 0.254333 0.6875
C_ C_ 0.0403626 0.595198 0.284984 -0.11473
C_ C_ 0.286346 0.5999 0.292001 -0.11473
C_ C_ 0.130413 0.775111 0.38463 0.17695
C_ C_ 0.387107 0.789519 0.3783 0.17695
C_ C_ 0.115983 0.705612 0.379943 0.17695
C_ C_ 0.365025 0.723526 0.381178 0.17695
C_ C_ 0.113078 0.702345 0.423828 -0.11473
C_ C_ 0.362587 0.726054 0.424746 -0.11473
C_ C_ 0.118242 0.738021 0.448588 0.23465
C_ C_ 0.374583 0.760501 0.446494 0.23465
C_ C_ 0.124431 0.774728 0.429423 -0.11473
C_ C_ 0.38588 0.792781 0.422461 -0.11473
C_ C_ 0.120231 0.708445 0.128027 0.17695
C_ C_ 0.375931 0.788354 0.131415 0.17695
C_ C_ 0.132784 0.778715 0.12891 0.17695
C_ C_ 0.371118 0.715309 0.125735 0.17695
C_ C_ 0.131842 0.781217 0.083493 -0.11473
C_ C_ 0.373795 0.717651 0.0811383 -0.11473
C_ C_ 0.124654 0.745565 0.0595502 0.23465
C_ C_ 0.377146 0.757356 0.0637718 0.23465
C_ C_ 0.11709 0.710413 0.0820893 -0.11473
C_ C_ 0.379852 0.793277 0.0880577 -0.11473
C_ C_ 0.0328826 0.995207 0.262771 0.05793
C_ C_ 0.277862 0.99775 0.244681 0.05793
C_ C_ 0.218075 0.497543 0.256418 0.05793
C_ C_ 0.469349 0.497017 0.237847 0.05793
Br Br 0.0766808 -0.007089000000000012 0.260043 -0.17191
Br Br 0.320467 0.994316 0.231292 -0.17191
Br Br 0.174602 0.499018 0.266703 -0.17191
Br Br 0.426861 0.498347 0.230623 -0.17191
N_ N_ 0.122081 0.74235 0.361345 -0.272
N_ N_ 0.377648 0.755093 0.359505 -0.272
N_ N_ 0.125511 0.734685 0.491884 -0.12501
N_ N_ 0.378087 0.761439 0.490555 -0.12501
N_ N_ 0.129109 0.743205 0.149818 -0.272
N_ N_ 0.370117 0.750763 0.148181 -0.272
N_ N_ 0.125221 0.741192 0.0156473 -0.12501
N_ N_ 0.380552 0.763172 0.0177437 -0.12501
O_ O_ 0.0940716 0.786899 0.21857 -0.60745
O_ O_ 0.345047 0.792604 0.225302 -0.60745
O_ O_ 0.0980016 0.795934 0.289557 -0.60745
O_ O_ 0.345108 0.797279 0.293106 -0.60745
O_ O_ 0.158489 0.78783 0.288712 -0.60745
O_ O_ 0.40781 0.799197 0.285706 -0.60745
O_ O_ 0.159369 0.788728 0.220165 -0.60745
O_ O_ 0.408636 0.789384 0.216803 -0.60745
O_ O_ 0.152993 0.697037 0.289223 -0.60745
O_ O_ 0.407825 0.705501 0.28506 -0.60745
O_ O_ 0.155935 0.701096 0.221521 -0.60745
O_ O_ 0.40211 0.701904 0.216563 -0.60745
O_ O_ 0.0956485 0.702746 0.21863 -0.60745
O_ O_ 0.340729 0.707223 0.219965 -0.60745
O_ O_ 0.0913531 0.704093 0.286653 -0.60745
O_ O_ 0.343358 0.705958 0.288618 -0.60745
Zn Zn 0.126134 0.752487 0.790298 0.9476
Zn Zn 0.374973 0.750551 0.789041 0.9476
Zn Zn 0.126472 0.752643 0.72039 0.9476
Zn Zn 0.372803 0.749293 0.718996 0.9476
H_ H_ 0.0388145 0.925112 0.699284 0.10932
H_ H_ 0.289577 0.919412 0.680511 0.10932
H_ H_ 0.0557119 0.841285 0.825737 0.10932
H_ H_ 0.30095 0.84495 0.816872 0.10932
H_ H_ 0.076937 0.870462 0.695141 0.10932
H_ H_ 0.319632 0.853443 0.684125 0.10932
H_ H_ 0.0223329 0.906223 0.825642 0.10932
H_ H_ 0.275478 0.915195 0.813261 0.10932
H_ H_ 0.222835 0.912557 0.811128 0.10932
H_ H_ 0.453545 0.926062 0.807521 0.10932
H_ H_ 0.188383 0.850261 0.68173 0.10932
H_ H_ 0.436061 0.847612 0.675175 0.10932
H_ H_ 0.181875 0.861334 0.813886 0.10932
H_ H_ 0.419205 0.869373 0.805851 0.10932
H_ H_ 0.216398 0.914764 0.682238 0.10932
H_ H_ 0.470043 0.910858 0.676379 0.10932
H_ H_ 0.223358 0.592412 0.819072 0.10932
H_ H_ 0.464814 0.585398 0.820935 0.10932
H_ H_ 0.172916 0.633346 0.690004 0.10932
H_ H_ 0.438486 0.653396 0.685824 0.10932
H_ H_ 0.203002 0.662709 0.816213 0.10932
H_ H_ 0.426735 0.642391 0.818866 0.10932
H_ H_ 0.201238 0.571066 0.690917 0.10932
H_ H_ 0.468233 0.590518 0.686997 0.10932
H_ H_ 0.0437143 0.581714 0.68367 0.10932
H_ H_ 0.273677 0.59079 0.688568 0.10932
H_ H_ 0.0481375 0.662607 0.816481 0.10932
H_ H_ 0.324047 0.636027 0.819715 0.10932
H_ H_ 0.0667863 0.648248 0.685922 0.10932
H_ H_ 0.298906 0.658065 0.690519 0.10932
H_ H_ 0.0273431 0.597266 0.816728 0.10932
H_ H_ 0.295134 0.572898 0.820659 0.10932
H_ H_ 0.128503 0.823341 0.856774 0.10932
H_ H_ 0.374316 0.812954 0.870292 0.10932
H_ H_ 0.12431 0.695617 0.865314 0.10932
H_ H_ 0.392316 0.683984 0.8601 0.10932
H_ H_ 0.132348 0.696502 0.945283 0.10932
H_ H_ 0.388062 0.678298 0.937645 0.10932
H_ H_ 0.124896 0.833176 0.932689 0.10932
H_ H_ 0.378618 0.809555 0.948886 0.10932
H_ H_ 0.114842 0.690505 0.647347 0.10932
H_ H_ 0.385545 0.809266 0.639904 0.10932
H_ H_ 0.115477 0.82023 0.645525 0.10932
H_ H_ 0.363608 0.682312 0.644478 0.10932
H_ H_ 0.117389 0.820054 0.567798 0.10932
H_ H_ 0.355058 0.680395 0.567807 0.10932
H_ H_ 0.110085 0.688971 0.570405 0.10932
H_ H_ 0.380229 0.809529 0.563616 0.10932
C_ C_ 0.0656151 0.846288 0.759574 -0.02249
C_ C_ 0.312006 0.844619 0.749298 -0.02249
C_ C_ 0.0139003 0.962555 0.761327 -0.02249
C_ C_ 0.264818 0.961681 0.745669 -0.02249
C_ C_ 0.0411577 0.904712 0.724358 -0.11473
C_ C_ 0.295758 0.905379 0.710198 -0.11473
C_ C_ 0.05291 0.859305 0.797253 -0.11473
C_ C_ 0.301523 0.864169 0.786936 -0.11473
C_ C_ 0.0604431 0.869756 0.722147 -0.11473
C_ C_ 0.308981 0.866514 0.711051 -0.11473
C_ C_ 0.0312243 0.921065 0.762262 -0.02249
C_ C_ 0.281388 0.921295 0.746253 -0.02249
C_ C_ 0.0917161 0.816056 0.759912 0.6875
C_ C_ 0.33256 0.809697 0.752928 0.6875
C_ C_ 0.035926 0.897154 0.798608 -0.11473
C_ C_ 0.284578 0.900254 0.78494 -0.11473
C_ C_ 0.186984 0.845801 0.747882 -0.02249
C_ C_ 0.428316 0.848675 0.742094 -0.02249
C_ C_ 0.232245 0.964815 0.745121 -0.02249
C_ C_ 0.481294 0.964008 0.742408 -0.02249
C_ C_ 0.208785 0.906194 0.783454 -0.11473
C_ C_ 0.450391 0.909881 0.778565 -0.11473
C_ C_ 0.19604 0.865584 0.710139 -0.11473
C_ C_ 0.440542 0.86512 0.703905 -0.11473
C_ C_ 0.191373 0.869213 0.783715 -0.11473
C_ C_ 0.431853 0.875534 0.777543 -0.11473
C_ C_ 0.214959 0.925351 0.746256 -0.02249
C_ C_ 0.463924 0.923633 0.742186 -0.02249
C_ C_ 0.169825 0.805061 0.748559 0.6875
C_ C_ 0.410076 0.811391 0.743913 0.6875
C_ C_ 0.207413 0.905436 0.709045 -0.11473
C_ C_ 0.458662 0.902165 0.704416 -0.11473
C_ C_ 0.183708 0.653892 0.753049 -0.02249
C_ C_ 0.432731 0.654484 0.752763 -0.02249
C_ C_ 0.236929 0.539791 0.754303 -0.02249
C_ C_ 0.482949 0.540109 0.752746 -0.02249
C_ C_ 0.216466 0.605262 0.788692 -0.11473
C_ C_ 0.45825 0.598355 0.791914 -0.11473
C_ C_ 0.186619 0.629395 0.717033 -0.11473
C_ C_ 0.444414 0.639675 0.715551 -0.11473
C_ C_ 0.200458 0.642017 0.788833 -0.11473
C_ C_ 0.439721 0.635272 0.790565 -0.11473
C_ C_ 0.220794 0.581018 0.753183 -0.02249
C_ C_ 0.468935 0.582425 0.753994 -0.02249
C_ C_ 0.162459 0.689965 0.754025 0.6875
C_ C_ 0.414048 0.693032 0.752529 0.6875
C_ C_ 0.205505 0.593068 0.71718 -0.11473
C_ C_ 0.461918 0.603528 0.717044 -0.11473
C_ C_ 0.064032 0.659704 0.751641 -0.02249
C_ C_ 0.314416 0.652385 0.755895 -0.02249
C_ C_ 0.013858 0.5437 0.750016 -0.02249
C_ C_ 0.268957 0.536749 0.752821 -0.02249
C_ C_ 0.046653 0.599116 0.713127 -0.11473
C_ C_ 0.285243 0.600643 0.717199 -0.11473
C_ C_ 0.0480287 0.646823 0.786313 -0.11473
C_ C_ 0.313581 0.625902 0.791062 -0.11473
C_ C_ 0.0606255 0.636521 0.714894 -0.11473
C_ C_ 0.300818 0.638423 0.717971 -0.11473
C_ C_ 0.0314555 0.584449 0.750338 -0.02249
C_ C_ 0.285682 0.575314 0.752345 -0.02249
C_ C_ 0.084092 0.69575 0.755408 0.6875
C_ C_ 0.334426 0.689836 0.757044 0.6875
C_ C_ 0.0317721 0.609171 0.785731 -0.11473
C_ C_ 0.299468 0.587115 0.790472 -0.11473
C_ C_ 0.125714 0.7967 0.875523 0.17695
C_ C_ 0.380062 0.784216 0.884404 0.17695
C_ C_ 0.127067 0.723831 0.881665 0.17695
C_ C_ 0.388369 0.71206 0.878091 0.17695
C_ C_ 0.128595 0.725936 0.926057 -0.11473
C_ C_ 0.385332 0.707179 0.921288 -0.11473
C_ C_ 0.124175 0.766558 0.944162 0.23465
C_ C_ 0.382421 0.741625 0.947856 0.23465
C_ C_ 0.124426 0.802791 0.919466 -0.11473
C_ C_ 0.379542 0.781254 0.928869 -0.11473
C_ C_ 0.119824 0.718688 0.630608 0.17695
C_ C_ 0.375658 0.782043 0.624042 0.17695
C_ C_ 0.119077 0.791141 0.628114 0.17695
C_ C_ 0.366278 0.710419 0.625753 0.17695
C_ C_ 0.119983 0.791418 0.584577 -0.11473
C_ C_ 0.364677 0.708157 0.580899 -0.11473
C_ C_ 0.120184 0.753463 0.563558 0.23465
C_ C_ 0.364941 0.744586 0.558501 0.23465
C_ C_ 0.117295 0.716724 0.586855 -0.11473
C_ C_ 0.3747 0.780961 0.580124 -0.11473
C_ C_ 0.0306515 -0.0010270000000000001 0.756133 0.05793
C_ C_ 0.280123 0.000489026 0.744482 0.05793
C_ C_ 0.220043 0.500154 0.754489 0.05793
C_ C_ 0.466714 0.502919 0.75047 0.05793
Br Br 0.0739282 -0.005159000000000025 0.749272 -0.17191
Br Br 0.320945 0.0020199999999999108 0.764077 -0.17191
Br Br 0.176911 0.502519 0.758977 -0.17191
Br Br 0.423796 0.50373 0.747882 -0.17191
N_ N_ 0.126868 0.75857 0.858298 -0.272
N_ N_ 0.383522 0.750632 0.859395 -0.272
N_ N_ 0.128635 0.772108 0.990859 -0.12501
N_ N_ 0.37782 0.734169 0.991888 -0.12501
N_ N_ 0.122291 0.755773 0.650494 -0.272
N_ N_ 0.370877 0.747422 0.645749 -0.272
N_ N_ 0.111576 0.753996 0.519393 -0.12501
N_ N_ 0.359301 0.744441 0.513344 -0.12501
O_ O_ 0.0992762 0.802146 0.722966 -0.60745
O_ O_ 0.343145 0.794885 0.718399 -0.60745
O_ O_ 0.0959014 0.793519 0.792082 -0.60745
O_ O_ 0.339068 0.792733 0.788397 -0.60745
O_ O_ 0.15675 0.797017 0.782726 -0.60745
O_ O_ 0.399234 0.799864 0.778865 -0.60745
O_ O_ 0.160328 0.788302 0.715922 -0.60745
O_ O_ 0.404082 0.79002 0.712845 -0.60745
O_ O_ 0.156297 0.707228 0.788875 -0.60745
O_ O_ 0.409573 0.71405 0.785143 -0.60745
O_ O_ 0.152049 0.703382 0.719286 -0.60745
O_ O_ 0.401897 0.704398 0.719844 -0.60745
O_ O_ 0.0920477 0.712726 0.721336 -0.60745
O_ O_ 0.337936 0.711988 0.724261 -0.60745
O_ O_ 0.096771 0.704516 0.790171 -0.60745
O_ O_ 0.349144 0.700658 0.790186 -0.60745
Zn Zn 0.625724 0.249357 0.283043 0.9476
Zn Zn 0.878581 0.246524 0.281685 0.9476
Zn Zn 0.627393 0.24987 0.211171 0.9476
Zn Zn 0.880627 0.247475 0.214249 0.9476
H_ H_ 0.52865 0.408428 0.17326 0.10932
H_ H_ 0.788216 0.417865 0.183214 0.10932
H_ H_ 0.564572 0.354613 0.311865 0.10932
H_ H_ 0.815374 0.344326 0.312163 0.10932
H_ H_ 0.558327 0.341971 0.175439 0.10932
H_ H_ 0.829484 0.366142 0.184876 0.10932
H_ H_ 0.540587 0.41875 0.305512 0.10932
H_ H_ 0.782568 0.405213 0.316994 0.10932
H_ H_ 0.718382 0.413733 0.318244 0.10932
H_ H_ 0.96747 0.417955 0.316368 0.10932
H_ H_ 0.684203 0.357899 0.179251 0.10932
H_ H_ 0.94552 0.34587 0.182102 0.10932
H_ H_ 0.695185 0.348671 0.314503 0.10932
H_ H_ 0.938885 0.34865 0.319512 0.10932
H_ H_ 0.713876 0.423205 0.179723 0.10932
H_ H_ 0.963711 0.418198 0.183768 0.10932
H_ H_ 0.710871 0.0789883 0.313418 0.10932
H_ H_ 0.958694 0.0745348 0.32496 0.10932
H_ H_ 0.695395 0.154924 0.180685 0.10932
H_ H_ 0.949709 0.155452 0.193794 0.10932
H_ H_ 0.68498 0.144537 0.312304 0.10932
H_ H_ 0.923489 0.133066 0.31963 0.10932
H_ H_ 0.726777 0.0909635 0.182821 0.10932
H_ H_ 0.977668 0.0905509 0.198751 0.10932
H_ H_ 0.545445 0.0764023 0.173569 0.10932
H_ H_ 0.792753 0.0763908 0.180013 0.10932
H_ H_ 0.568472 0.143353 0.311517 0.10932
H_ H_ 0.815299 0.148948 0.311365 0.10932
H_ H_ 0.580521 0.134297 0.176529 0.10932
H_ H_ 0.811888 0.148711 0.175692 0.10932
H_ H_ 0.533972 0.0824291 0.30665 0.10932
H_ H_ 0.779546 0.0866958 0.311374 0.10932
H_ H_ 0.577425 0.24644 0.360226 0.10932
H_ H_ 0.862685 0.191553 0.3601 0.10932
H_ H_ 0.672351 0.251208 0.353021 0.10932
H_ H_ 0.884833 0.317089 0.348633 0.10932
H_ H_ 0.678286 0.251237 0.429197 0.10932
H_ H_ 0.884909 0.322894 0.426508 0.10932
H_ H_ 0.579183 0.23828 0.435969 0.10932
H_ H_ 0.871694 0.192742 0.439485 0.10932
H_ H_ 0.625953 0.187873 0.139511 0.10932
H_ H_ 0.838991 0.267565 0.136715 0.10932
H_ H_ 0.627219 0.317414 0.133302 0.10932
H_ H_ 0.929091 0.234789 0.147569 0.10932
H_ H_ 0.614186 0.317536 0.0588574 0.10932
H_ H_ 0.933019 0.231059 0.0662838 0.10932
H_ H_ 0.6147 0.187886 0.0616458 0.10932
H_ H_ 0.841631 0.264389 0.0549715 0.10932
C_ C_ 0.565642 0.343931 0.244638 -0.02249
C_ C_ 0.820373 0.345757 0.245679 -0.02249
C_ C_ 0.517598 0.461266 0.234522 -0.02249
C_ C_ 0.768465 0.460028 0.251205 -0.02249
C_ C_ 0.539551 0.397093 0.201991 -0.11473
C_ C_ 0.796638 0.404378 0.211695 -0.11473
C_ C_ 0.559105 0.366835 0.279892 -0.11473
C_ C_ 0.810671 0.36188 0.283699 -0.11473
C_ C_ 0.555251 0.359158 0.203806 -0.11473
C_ C_ 0.817022 0.372301 0.211293 -0.11473
C_ C_ 0.534268 0.42109 0.238956 -0.02249
C_ C_ 0.785114 0.42053 0.249154 -0.02249
C_ C_ 0.585956 0.307627 0.246681 0.6875
C_ C_ 0.842752 0.310086 0.245452 0.6875
C_ C_ 0.546507 0.406121 0.276394 -0.11473
C_ C_ 0.790895 0.396342 0.2845 -0.11473
C_ C_ 0.686398 0.34769 0.246935 -0.02249
C_ C_ 0.945189 0.33834 0.250425 -0.02249
C_ C_ 0.737012 0.46178 0.248533 -0.02249
C_ C_ 0.983713 0.462247 0.248282 -0.02249
C_ C_ 0.714439 0.400016 0.287566 -0.11473
C_ C_ 0.962084 0.401237 0.288533 -0.11473
C_ C_ 0.693109 0.369527 0.209823 -0.11473
C_ C_ 0.950172 0.360674 0.21183 -0.11473
C_ C_ 0.700666 0.362087 0.285128 -0.11473
C_ C_ 0.950284 0.360713 0.290091 -0.11473
C_ C_ 0.718589 0.423054 0.24913 -0.02249
C_ C_ 0.968379 0.420683 0.25031 -0.02249
C_ C_ 0.66459 0.312047 0.24668 0.6875
C_ C_ 0.923338 0.301818 0.248846 0.6875
C_ C_ 0.707518 0.407369 0.210799 -0.11473
C_ C_ 0.960102 0.401389 0.212045 -0.11473
C_ C_ 0.685965 0.155816 0.245799 -0.02249
C_ C_ 0.935173 0.149246 0.257363 -0.02249
C_ C_ 0.73737 0.0394247 0.245901 -0.02249
C_ C_ 0.986735 0.0363478 0.261982 -0.02249
C_ C_ 0.708159 0.096457 0.284013 -0.11473
C_ C_ 0.95837 0.0936355 0.297424 -0.11473
C_ C_ 0.7 0.140939 0.210082 -0.11473
C_ C_ 0.950501 0.135047 0.221927 -0.11473
C_ C_ 0.690669 0.132262 0.283544 -0.11473
C_ C_ 0.939856 0.127626 0.294642 -0.11473
C_ C_ 0.721549 0.0807199 0.246735 -0.02249
C_ C_ 0.971077 0.0762563 0.261532 -0.02249
C_ C_ 0.665283 0.19266 0.24634 0.6875
C_ C_ 0.915665 0.186365 0.254913 0.6875
C_ C_ 0.716286 0.102879 0.209744 -0.11473
C_ C_ 0.964572 0.0953271 0.223622 -0.11473
C_ C_ 0.573633 0.14844 0.243433 -0.02249
C_ C_ 0.816739 0.153921 0.244519 -0.02249
C_ C_ 0.518292 0.0359359 0.232411 -0.02249
C_ C_ 0.768167 0.0399395 0.24284 -0.02249
C_ C_ 0.548448 0.0930149 0.201448 -0.11473
C_ C_ 0.79363 0.0961263 0.207408 -0.11473
C_ C_ 0.561423 0.130859 0.280424 -0.11473
C_ C_ 0.807709 0.136211 0.282983 -0.11473
C_ C_ 0.568518 0.127034 0.204627 -0.11473
C_ C_ 0.805881 0.135119 0.205472 -0.11473
C_ C_ 0.536412 0.0752055 0.238999 -0.02249
C_ C_ 0.784846 0.0782699 0.244895 -0.02249
C_ C_ 0.588917 0.188723 0.246069 0.6875
C_ C_ 0.839898 0.188443 0.24683 0.6875
C_ C_ 0.542336 0.0958108 0.278179 -0.11473
C_ C_ 0.788901 0.0997125 0.281965 -0.11473
C_ C_ 0.599257 0.245364 0.374378 0.17695
C_ C_ 0.872725 0.217279 0.374514 0.17695
C_ C_ 0.651516 0.251156 0.371809 0.17695
C_ C_ 0.883889 0.28872 0.369521 0.17695
C_ C_ 0.654805 0.25205 0.416233 -0.11473
C_ C_ 0.884451 0.292693 0.412945 -0.11473
C_ C_ 0.628712 0.250476 0.440783 0.23465
C_ C_ 0.879918 0.257282 0.439672 0.23465
C_ C_ 0.601015 0.24473 0.419153 -0.11473
C_ C_ 0.875027 0.21929 0.419493 -0.11473
C_ C_ 0.623144 0.215844 0.12051 0.17695
C_ C_ 0.858572 0.25762 0.120434 0.17695
C_ C_ 0.62218 0.288888 0.118359 0.17695
C_ C_ 0.910209 0.241285 0.12689 0.17695
C_ C_ 0.618226 0.288304 0.0738487 -0.11473
C_ C_ 0.912445 0.240793 0.0804847 -0.11473
C_ C_ 0.621162 0.251624 0.0528393 0.23465
C_ C_ 0.88731 0.2466 0.0552618 0.23465
C_ C_ 0.621383 0.214959 0.0761619 -0.11473
C_ C_ 0.860991 0.260388 0.0756029 -0.11473
C_ C_ 0.533783 0.499342 0.234842 0.05793
C_ C_ 0.784864 0.498409 0.248598 0.05793
C_ C_ 0.720522 1.000739079 0.251706 0.05793
C_ C_ 0.970705 1.0001 0.265796 0.05793
Br Br 0.576471 0.498397 0.242819 -0.17191
Br Br 0.827841 0.494614 0.254907 -0.17191
Br Br 0.678444 0.00476994 0.268623 -0.17191
Br Br 0.930314 0.00212902 0.290121 -0.17191
N_ N_ 0.625203 0.247939 0.35206 -0.272
N_ N_ 0.8796 0.251126 0.350681 -0.272
N_ N_ 0.631261 0.244495 0.484691 -0.12501
N_ N_ 0.884638 0.262063 0.483496 -0.12501
N_ N_ 0.625543 0.252744 0.13981 -0.272
N_ N_ 0.882949 0.248867 0.144506 -0.272
N_ N_ 0.615178 0.249587 0.00772789 -0.12501
N_ N_ 0.889192 0.24105 0.00983565 -0.12501
O_ O_ 0.597161 0.294565 0.212581 -0.60745
O_ O_ 0.85186 0.295239 0.211045 -0.60745
O_ O_ 0.591999 0.290195 0.280074 -0.60745
O_ O_ 0.851482 0.295546 0.280867 -0.60745
O_ O_ 0.655159 0.296758 0.281906 -0.60745
O_ O_ 0.91133 0.290181 0.282875 -0.60745
O_ O_ 0.656663 0.295265 0.212024 -0.60745
O_ O_ 0.914984 0.286028 0.214206 -0.60745
O_ O_ 0.658265 0.206685 0.281108 -0.60745
O_ O_ 0.904614 0.202659 0.287113 -0.60745
O_ O_ 0.656422 0.208109 0.211835 -0.60745
O_ O_ 0.909573 0.200825 0.219561 -0.60745
O_ O_ 0.598831 0.203922 0.212975 -0.60745
O_ O_ 0.848169 0.203773 0.213624 -0.60745
O_ O_ 0.59817 0.203489 0.280351 -0.60745
O_ O_ 0.845892 0.207415 0.281699 -0.60745
Zn Zn 0.623747 0.25028 0.781068 0.9476
Zn Zn 0.877078 0.251012 0.782526 0.9476
Zn Zn 0.621152 0.250856 0.711994 0.9476
Zn Zn 0.875505 0.250713 0.714229 0.9476
H_ H_ 0.524552 0.414551 0.685314 0.10932
H_ H_ 0.792387 0.42962 0.692006 0.10932
H_ H_ 0.565164 0.355567 0.819837 0.10932
H_ H_ 0.801348 0.336321 0.811147 0.10932
H_ H_ 0.556469 0.35128 0.684338 0.10932
H_ H_ 0.826142 0.370967 0.689454 0.10932
H_ H_ 0.533994 0.42162 0.819271 0.10932
H_ H_ 0.767588 0.397995 0.819052 0.10932
H_ H_ 0.697427 0.428311 0.820895 0.10932
H_ H_ 0.941359 0.449143 0.800994 0.10932
H_ H_ 0.691908 0.344322 0.689571 0.10932
H_ H_ 0.944628 0.340678 0.691126 0.10932
H_ H_ 0.672484 0.363486 0.817473 0.10932
H_ H_ 0.910693 0.376412 0.806249 0.10932
H_ H_ 0.718011 0.412982 0.687713 0.10932
H_ H_ 0.973111 0.400752 0.680646 0.10932
H_ H_ 0.711661 0.0769864 0.808155 0.10932
H_ H_ 0.968836 0.0873347 0.827579 0.10932
H_ H_ 0.688417 0.158088 0.677642 0.10932
H_ H_ 0.933088 0.142565 0.688548 0.10932
H_ H_ 0.691186 0.147117 0.810127 0.10932
H_ H_ 0.938764 0.152378 0.82512 0.10932
H_ H_ 0.718871 0.0907378 0.675381 0.10932
H_ H_ 0.956838 0.0723443 0.69606 0.10932
H_ H_ 0.548343 0.0650001 0.681477 0.10932
H_ H_ 0.783985 0.0851081 0.676514 0.10932
H_ H_ 0.560947 0.149184 0.81171 0.10932
H_ H_ 0.819473 0.140725 0.814124 0.10932
H_ H_ 0.576061 0.130426 0.680704 0.10932
H_ H_ 0.817252 0.144658 0.679183 0.10932
H_ H_ 0.524068 0.0863553 0.80677 0.10932
H_ H_ 0.784281 0.0800486 0.813079 0.10932
H_ H_ 0.639755 0.307768 0.856585 0.10932
H_ H_ 0.894529 0.1971 0.859416 0.10932
H_ H_ 0.61629 0.17827 0.849708 0.10932
H_ H_ 0.852747 0.314785 0.858705 0.10932
H_ H_ 0.621041 0.173671 0.929426 0.10932
H_ H_ 0.852865 0.316249 0.932567 0.10932
H_ H_ 0.642634 0.301224 0.934332 0.10932
H_ H_ 0.894317 0.197999 0.937923 0.10932
H_ H_ 0.616941 0.31544 0.644475 0.10932
H_ H_ 0.922269 0.261582 0.639231 0.10932
H_ H_ 0.628632 0.188516 0.631056 0.10932
H_ H_ 0.825778 0.249188 0.639215 0.10932
H_ H_ 0.618929 0.193129 0.55367 0.10932
H_ H_ 0.82507 0.243368 0.562482 0.10932
H_ H_ 0.611397 0.321554 0.565245 0.10932
H_ H_ 0.920641 0.253239 0.558048 0.10932
C_ C_ 0.562395 0.347673 0.750974 -0.02249
C_ C_ 0.815429 0.347219 0.748784 -0.02249
C_ C_ 0.512753 0.461311 0.752748 -0.02249
C_ C_ 0.763642 0.462597 0.757544 -0.02249
C_ C_ 0.535937 0.40256 0.714044 -0.11473
C_ C_ 0.795 0.41081 0.71903 -0.11473
C_ C_ 0.556137 0.367471 0.789721 -0.11473
C_ C_ 0.800471 0.35767 0.786494 -0.11473
C_ C_ 0.551344 0.364856 0.713835 -0.11473
C_ C_ 0.812481 0.374374 0.714931 -0.11473
C_ C_ 0.530287 0.421954 0.752375 -0.02249
C_ C_ 0.779774 0.422668 0.756899 -0.02249
C_ C_ 0.582615 0.310374 0.749697 0.6875
C_ C_ 0.833372 0.308589 0.746675 0.6875
C_ C_ 0.539082 0.40519 0.791417 -0.11473
C_ C_ 0.781661 0.394321 0.790325 -0.11473
C_ C_ 0.680967 0.348748 0.754062 -0.02249
C_ C_ 0.929234 0.353861 0.752318 -0.02249
C_ C_ 0.731972 0.462855 0.757578 -0.02249
C_ C_ 0.982505 0.467848 0.743607 -0.02249
C_ C_ 0.699869 0.410928 0.792209 -0.11473
C_ C_ 0.945044 0.421547 0.781248 -0.11473
C_ C_ 0.695478 0.36183 0.717291 -0.11473
C_ C_ 0.94819 0.359525 0.718327 -0.11473
C_ C_ 0.683178 0.373752 0.790488 -0.11473
C_ C_ 0.927707 0.384439 0.78247 -0.11473
C_ C_ 0.713378 0.424855 0.754072 -0.02249
C_ C_ 0.96431 0.426623 0.74669 -0.02249
C_ C_ 0.659778 0.313926 0.75176 0.6875
C_ C_ 0.912122 0.313521 0.755299 0.6875
C_ C_ 0.70976 0.400968 0.716861 -0.11473
C_ C_ 0.963095 0.395976 0.713387 -0.11473
C_ C_ 0.685029 0.156471 0.744856 -0.02249
C_ C_ 0.936178 0.15548 0.755633 -0.02249
C_ C_ 0.730238 0.039307 0.739488 -0.02249
C_ C_ 0.98355 0.0393562 0.761952 -0.02249
C_ C_ 0.704108 0.0921498 0.779226 -0.11473
C_ C_ 0.961454 0.100227 0.796198 -0.11473
C_ C_ 0.693844 0.139575 0.705775 -0.11473
C_ C_ 0.941337 0.130353 0.718959 -0.11473
C_ C_ 0.69094 0.131606 0.780486 -0.11473
C_ C_ 0.94333 0.137354 0.79571 -0.11473
C_ C_ 0.71207 0.0776247 0.740539 -0.02249
C_ C_ 0.96654 0.0781208 0.760189 -0.02249
C_ C_ 0.665837 0.194328 0.746338 0.6875
C_ C_ 0.916747 0.193206 0.753786 0.6875
C_ C_ 0.708228 0.100667 0.703761 -0.11473
C_ C_ 0.95291 0.0911825 0.721231 -0.11473
C_ C_ 0.568296 0.14718 0.744399 -0.02249
C_ C_ 0.817101 0.15064 0.746985 -0.02249
C_ C_ 0.515421 0.0349319 0.745989 -0.02249
C_ C_ 0.763059 0.0394478 0.741754 -0.02249
C_ C_ 0.545446 0.087622 0.706287 -0.11473
C_ C_ 0.787166 0.0990969 0.706252 -0.11473
C_ C_ 0.554715 0.133413 0.780577 -0.11473
C_ C_ 0.807478 0.132455 0.785012 -0.11473
C_ C_ 0.561491 0.125196 0.706108 -0.11473
C_ C_ 0.806536 0.134151 0.70757 -0.11473
C_ C_ 0.533055 0.0732365 0.745342 -0.02249
C_ C_ 0.779334 0.0795058 0.742923 -0.02249
C_ C_ 0.586805 0.184787 0.745682 0.6875
C_ C_ 0.837797 0.186704 0.747186 0.6875
C_ C_ 0.535318 0.0996252 0.779147 -0.11473
C_ C_ 0.789092 0.09598 0.783701 -0.11473
C_ C_ 0.63096 0.279167 0.873258 0.17695
C_ C_ 0.883977 0.221946 0.875918 0.17695
C_ C_ 0.619579 0.206731 0.869242 0.17695
C_ C_ 0.860363 0.286567 0.872845 0.17695
C_ C_ 0.621904 0.203779 0.91368 -0.11473
C_ C_ 0.858707 0.288066 0.917041 -0.11473
C_ C_ 0.627908 0.239361 0.936028 0.23465
C_ C_ 0.871583 0.254852 0.940731 0.23465
C_ C_ 0.634354 0.275428 0.916013 -0.11473
C_ C_ 0.885318 0.222882 0.919683 -0.11473
C_ C_ 0.617912 0.289346 0.623682 0.17695
C_ C_ 0.900995 0.255298 0.62221 0.17695
C_ C_ 0.620909 0.216625 0.616489 0.17695
C_ C_ 0.847043 0.248777 0.621626 0.17695
C_ C_ 0.619543 0.220865 0.572885 -0.11473
C_ C_ 0.846442 0.247131 0.577035 -0.11473
C_ C_ 0.618312 0.259505 0.555372 0.23465
C_ C_ 0.872467 0.251357 0.555606 0.23465
C_ C_ 0.615008 0.293839 0.580194 -0.11473
C_ C_ 0.900536 0.25282 0.576669 -0.11473
C_ C_ 0.528819 0.498567 0.760334 0.05793
C_ C_ 0.778882 0.500174 0.758813 0.05793
C_ C_ 0.715858 0.000632179 0.736651 0.05793
C_ C_ 0.967152 0.00266999999999995 0.768822 0.05793
Br Br 0.572638 0.494413 0.766189 -0.17191
Br Br 0.821617 0.498886 0.760435 -0.17191
Br Br 0.672472 -0.000315743 0.730851 -0.17191
Br Br 0.923728 0.0013399999999998968 0.77264 -0.17191
N_ N_ 0.623373 0.245013 0.850659 -0.272
N_ N_ 0.873727 0.254145 0.853401 -0.272
N_ N_ 0.633918 0.236413 0.981177 -0.12501
N_ N_ 0.872704 0.260944 0.984669 -0.12501
N_ N_ 0.619494 0.250498 0.64011 -0.272
N_ N_ 0.87454 0.2525 0.641484 -0.272
N_ N_ 0.616539 0.265134 0.51073 -0.12501
N_ N_ 0.868994 0.244729 0.510987 -0.12501
O_ O_ 0.589125 0.294094 0.714194 -0.60745
O_ O_ 0.843163 0.295152 0.713364 -0.60745
O_ O_ 0.59337 0.293327 0.784022 -0.60745
O_ O_ 0.841619 0.290235 0.780853 -0.60745
O_ O_ 0.654392 0.294713 0.784151 -0.60745
O_ O_ 0.904373 0.300486 0.789838 -0.60745
O_ O_ 0.648748 0.301151 0.716894 -0.60745
O_ O_ 0.909394 0.291225 0.722516 -0.60745
O_ O_ 0.657168 0.208884 0.781075 -0.60745
O_ O_ 0.910349 0.214989 0.786533 -0.60745
O_ O_ 0.655322 0.209783 0.713258 -0.60745
O_ O_ 0.904084 0.20121 0.716917 -0.60745
O_ O_ 0.592502 0.202008 0.71221 -0.60745
O_ O_ 0.841163 0.207557 0.713009 -0.60745
O_ O_ 0.593201 0.204085 0.778673 -0.60745
O_ O_ 0.849731 0.199936 0.78094 -0.60745
Zn Zn 0.628902 0.748327 0.275677 0.9476
Zn Zn 0.879049 0.750396 0.288012 0.9476
Zn Zn 0.62927 0.74975 0.205062 0.9476
Zn Zn 0.874388 0.74989 0.218151 0.9476
H_ H_ 0.525449 0.900702 0.173198 0.10932
H_ H_ 0.784524 0.921763 0.180575 0.10932
H_ H_ 0.582628 0.863193 0.300023 0.10932
H_ H_ 0.823201 0.859508 0.315877 0.10932
H_ H_ 0.557064 0.838626 0.17041 0.10932
H_ H_ 0.804951 0.846331 0.181426 0.10932
H_ H_ 0.56137 0.938023 0.288225 0.10932
H_ H_ 0.794955 0.922155 0.3162 0.10932
H_ H_ 0.726273 0.906433 0.322179 0.10932
H_ H_ 0.959185 0.917902 0.323886 0.10932
H_ H_ 0.671088 0.870055 0.19263 0.10932
H_ H_ 0.942237 0.848531 0.18767 0.10932
H_ H_ 0.70424 0.840684 0.31449 0.10932
H_ H_ 0.9215 0.862718 0.318623 0.10932
H_ H_ 0.698343 0.93301 0.19076 0.10932
H_ H_ 0.970163 0.914773 0.19151 0.10932
H_ H_ 0.7239 0.579494 0.303985 0.10932
H_ H_ 0.961323 0.575855 0.313086 0.10932
H_ H_ 0.698309 0.653954 0.173162 0.10932
H_ H_ 0.939499 0.651913 0.180568 0.10932
H_ H_ 0.692552 0.645509 0.307492 0.10932
H_ H_ 0.932296 0.637291 0.31446 0.10932
H_ H_ 0.72319 0.588179 0.171474 0.10932
H_ H_ 0.960196 0.582687 0.180297 0.10932
H_ H_ 0.536958 0.57775 0.168907 0.10932
H_ H_ 0.791742 0.578658 0.17987 0.10932
H_ H_ 0.568883 0.647283 0.303268 0.10932
H_ H_ 0.818648 0.641671 0.31998 0.10932
H_ H_ 0.567308 0.647428 0.16721 0.10932
H_ H_ 0.816145 0.643778 0.18607 0.10932
H_ H_ 0.53301 0.587493 0.301996 0.10932
H_ H_ 0.791743 0.574517 0.316864 0.10932
H_ H_ 0.630629 0.688561 0.361243 0.10932
H_ H_ 0.881555 0.820396 0.356399 0.10932
H_ H_ 0.619249 0.819216 0.343724 0.10932
H_ H_ 0.867163 0.689104 0.367078 0.10932
H_ H_ 0.617046 0.828136 0.424177 0.10932
H_ H_ 0.866472 0.6981 0.446298 0.10932
H_ H_ 0.634835 0.69827 0.437642 0.10932
H_ H_ 0.879585 0.828154 0.43206 0.10932
H_ H_ 0.631386 0.683805 0.134973 0.10932
H_ H_ 0.868656 0.68564 0.138794 0.10932
H_ H_ 0.630092 0.812054 0.130536 0.10932
H_ H_ 0.877238 0.817736 0.139164 0.10932
H_ H_ 0.638236 0.81165 0.0525107 0.10932
H_ H_ 0.872285 0.821108 0.0679977 0.10932
H_ H_ 0.636687 0.682602 0.0561835 0.10932
H_ H_ 0.861183 0.688205 0.0632279 0.10932
C_ C_ 0.572228 0.847056 0.235495 -0.02249
C_ C_ 0.814249 0.846033 0.250807 -0.02249
C_ C_ 0.517843 0.959524 0.2332 -0.02249
C_ C_ 0.766919 0.964012 0.249385 -0.02249
C_ C_ 0.534883 0.889593 0.201067 -0.11473
C_ C_ 0.791009 0.905049 0.209699 -0.11473
C_ C_ 0.573233 0.87365 0.269627 -0.11473
C_ C_ 0.811001 0.868331 0.287957 -0.11473
C_ C_ 0.555844 0.857732 0.198417 -0.11473
C_ C_ 0.802727 0.862339 0.211079 -0.11473
C_ C_ 0.536492 0.918503 0.23394 -0.02249
C_ C_ 0.784244 0.923273 0.249157 -0.02249
C_ C_ 0.590535 0.809665 0.235163 0.6875
C_ C_ 0.83577 0.810201 0.250509 0.6875
C_ C_ 0.558757 0.912395 0.264462 -0.11473
C_ C_ 0.793996 0.904718 0.286816 -0.11473
C_ C_ 0.684203 0.851074 0.253291 -0.02249
C_ C_ 0.932768 0.847733 0.253668 -0.02249
C_ C_ 0.735367 0.963645 0.254577 -0.02249
C_ C_ 0.984685 0.960494 0.256007 -0.02249
C_ C_ 0.720459 0.897376 0.289977 -0.11473
C_ C_ 0.953069 0.905329 0.29266 -0.11473
C_ C_ 0.685922 0.875293 0.218264 -0.11473
C_ C_ 0.945976 0.863975 0.217502 -0.11473
C_ C_ 0.705833 0.858487 0.286233 -0.11473
C_ C_ 0.935155 0.870214 0.291809 -0.11473
C_ C_ 0.718397 0.924259 0.253968 -0.02249
C_ C_ 0.965554 0.923294 0.256936 -0.02249
C_ C_ 0.66785 0.809322 0.249146 0.6875
C_ C_ 0.916704 0.807118 0.253218 0.6875
C_ C_ 0.701533 0.911928 0.217675 -0.11473
C_ C_ 0.961656 0.901044 0.219498 -0.11473
C_ C_ 0.692063 0.654804 0.239929 -0.02249
C_ C_ 0.935342 0.653428 0.248596 -0.02249
C_ C_ 0.738998 0.537411 0.2401 -0.02249
C_ C_ 0.982496 0.536435 0.245397 -0.02249
C_ C_ 0.716584 0.596959 0.277106 -0.11473
C_ C_ 0.960263 0.594747 0.284604 -0.11473
C_ C_ 0.703177 0.638075 0.201762 -0.11473
C_ C_ 0.946444 0.63743 0.210126 -0.11473
C_ C_ 0.699071 0.633332 0.278246 -0.11473
C_ C_ 0.941095 0.62732 0.28474 -0.11473
C_ C_ 0.724247 0.578785 0.239584 -0.02249
C_ C_ 0.966702 0.577147 0.245454 -0.02249
C_ C_ 0.670043 0.691579 0.239062 0.6875
C_ C_ 0.914895 0.688844 0.249606 0.6875
C_ C_ 0.717456 0.599252 0.20136 -0.11473
C_ C_ 0.960409 0.598899 0.208488 -0.11473
C_ C_ 0.57068 0.648998 0.234445 -0.02249
C_ C_ 0.817702 0.65055 0.253376 -0.02249
C_ C_ 0.5176 0.53701 0.236612 -0.02249
C_ C_ 0.770129 0.536834 0.247283 -0.02249
C_ C_ 0.541888 0.59489 0.197386 -0.11473
C_ C_ 0.794908 0.594795 0.211809 -0.11473
C_ C_ 0.563029 0.630956 0.273541 -0.11473
C_ C_ 0.81461 0.627517 0.288586 -0.11473
C_ C_ 0.559836 0.633232 0.196208 -0.11473
C_ C_ 0.809784 0.631039 0.215303 -0.11473
C_ C_ 0.533427 0.577061 0.235235 -0.02249
C_ C_ 0.788051 0.57381 0.248813 -0.02249
C_ C_ 0.58762 0.687145 0.232154 0.6875
C_ C_ 0.837574 0.688472 0.253576 0.6875
C_ C_ 0.541321 0.599093 0.27189 -0.11473
C_ C_ 0.799666 0.589445 0.288182 -0.11473
C_ C_ 0.630111 0.721006 0.374001 0.17695
C_ C_ 0.880686 0.792808 0.375417 0.17695
C_ C_ 0.619604 0.792079 0.364046 0.17695
C_ C_ 0.872535 0.71866 0.3824 0.17695
C_ C_ 0.61821 0.7978 0.409962 -0.11473
C_ C_ 0.86969 0.723424 0.425263 -0.11473
C_ C_ 0.621827 0.763563 0.435802 0.23465
C_ C_ 0.874557 0.762323 0.446027 0.23465
C_ C_ 0.630908 0.725633 0.418506 -0.11473
C_ C_ 0.881063 0.797666 0.42003 -0.11473
C_ C_ 0.631679 0.711542 0.11637 0.17695
C_ C_ 0.872368 0.715265 0.123036 0.17695
C_ C_ 0.629579 0.784858 0.11304 0.17695
C_ C_ 0.873598 0.789295 0.122792 0.17695
C_ C_ 0.632037 0.784422 0.0692255 -0.11473
C_ C_ 0.866746 0.791235 0.0814888 -0.11473
C_ C_ 0.631033 0.745515 0.0473064 0.23465
C_ C_ 0.864684 0.755088 0.0581058 0.23465
C_ C_ 0.633087 0.709622 0.0722868 -0.11473
C_ C_ 0.867208 0.716719 0.0784791 -0.11473
C_ C_ 0.532583 0.997031 0.225497 0.05793
C_ C_ 0.782567 1.00182264 0.242141 0.05793
C_ C_ 0.722251 0.498949 0.238981 0.05793
C_ C_ 0.966667 0.499335 0.247707 0.05793
Br Br 0.573413 0.993456 0.201739 -0.17191
Br Br 0.825263 0.999597458 0.250091 -0.17191
Br Br 0.679904 0.502006 0.227299 -0.17191
Br Br 0.923006 0.498013 0.247401 -0.17191
N_ N_ 0.626416 0.752795 0.347997 -0.272
N_ N_ 0.879012 0.752346 0.358725 -0.272
N_ N_ 0.621802 0.768357 0.479571 -0.12501
N_ N_ 0.869854 0.768641 0.488204 -0.12501
N_ N_ 0.630958 0.749623 0.135871 -0.272
N_ N_ 0.876576 0.751512 0.144543 -0.272
N_ N_ 0.632595 0.742249 0.00287467 -0.12501
N_ N_ 0.854973 0.756109 0.014602 -0.12501
O_ O_ 0.594637 0.788357 0.20198 -0.60745
O_ O_ 0.844372 0.794215 0.215689 -0.60745
O_ O_ 0.598721 0.793549 0.270467 -0.60745
O_ O_ 0.845558 0.795072 0.284867 -0.60745
O_ O_ 0.659982 0.790484 0.280917 -0.60745
O_ O_ 0.908665 0.791929 0.289216 -0.60745
O_ O_ 0.658584 0.796735 0.21291 -0.60745
O_ O_ 0.904911 0.793267 0.219231 -0.60745
O_ O_ 0.660167 0.706473 0.272518 -0.60745
O_ O_ 0.911643 0.706801 0.284314 -0.60745
O_ O_ 0.659344 0.705344 0.204898 -0.60745
O_ O_ 0.903599 0.704477 0.217842 -0.60745
O_ O_ 0.599229 0.69995 0.198462 -0.60745
O_ O_ 0.845798 0.704315 0.218926 -0.60745
O_ O_ 0.596371 0.703349 0.267154 -0.60745
O_ O_ 0.846105 0.705522 0.287492 -0.60745
Zn Zn 0.625812 0.752714 0.776395 0.9476
Zn Zn 0.8702 0.747903 0.78564 0.9476
Zn Zn 0.62504 0.752178 0.709147 0.9476
Zn Zn 0.86868 0.751574 0.717371 0.9476
H_ H_ 0.538377 0.924628 0.672097 0.10932
H_ H_ 0.7867 0.919151 0.680462 0.10932
H_ H_ 0.560436 0.853419 0.809319 0.10932
H_ H_ 0.801465 0.847347 0.817425 0.10932
H_ H_ 0.568108 0.860833 0.67281 0.10932
H_ H_ 0.820475 0.859832 0.687672 0.10932
H_ H_ 0.520406 0.909305 0.801742 0.10932
H_ H_ 0.7672 0.908411 0.813915 0.10932
H_ H_ 0.707025 0.929301 0.801979 0.10932
H_ H_ 0.950545 0.927778 0.830042 0.10932
H_ H_ 0.68964 0.850931 0.670687 0.10932
H_ H_ 0.947955 0.84323 0.701963 0.10932
H_ H_ 0.680786 0.858622 0.80287 0.10932
H_ H_ 0.913503 0.867659 0.822475 0.10932
H_ H_ 0.720421 0.914598 0.6716 0.10932
H_ H_ 0.973007 0.910207 0.701198 0.10932
H_ H_ 0.706836 0.579801 0.81543 0.10932
H_ H_ 0.952428 0.571595 0.807864 0.10932
H_ H_ 0.686305 0.648645 0.679786 0.10932
H_ H_ 0.945061 0.665654 0.682017 0.10932
H_ H_ 0.683809 0.649365 0.812568 0.10932
H_ H_ 0.924442 0.63928 0.810921 0.10932
H_ H_ 0.711514 0.582065 0.678047 0.10932
H_ H_ 0.975003 0.598672 0.679774 0.10932
H_ H_ 0.529708 0.583279 0.687227 0.10932
H_ H_ 0.793085 0.566617 0.687358 0.10932
H_ H_ 0.5682 0.646961 0.820928 0.10932
H_ H_ 0.810169 0.653798 0.81615 0.10932
H_ H_ 0.555965 0.649636 0.684988 0.10932
H_ H_ 0.828229 0.628846 0.688466 0.10932
H_ H_ 0.547384 0.577601 0.818775 0.10932
H_ H_ 0.770153 0.59615 0.815236 0.10932
H_ H_ 0.637217 0.694888 0.861567 0.10932
H_ H_ 0.857683 0.684939 0.854533 0.10932
H_ H_ 0.61828 0.823243 0.844467 0.10932
H_ H_ 0.865906 0.813265 0.860734 0.10932
H_ H_ 0.608812 0.825451 0.921207 0.10932
H_ H_ 0.860138 0.8114 0.938247 0.10932
H_ H_ 0.64193 0.703362 0.934973 0.10932
H_ H_ 0.863316 0.680931 0.933041 0.10932
H_ H_ 0.62698 0.684304 0.633995 0.10932
H_ H_ 0.874463 0.814877 0.640933 0.10932
H_ H_ 0.617316 0.814487 0.627275 0.10932
H_ H_ 0.861612 0.686747 0.649143 0.10932
H_ H_ 0.607357 0.807287 0.550798 0.10932
H_ H_ 0.858387 0.68078 0.569263 0.10932
H_ H_ 0.634064 0.679188 0.5606 0.10932
H_ H_ 0.875304 0.813468 0.561211 0.10932
C_ C_ 0.564807 0.849977 0.740218 -0.02249
C_ C_ 0.808618 0.845418 0.749662 -0.02249
C_ C_ 0.513297 0.962869 0.738313 -0.02249
C_ C_ 0.761301 0.962287 0.744671 -0.02249
C_ C_ 0.540742 0.906108 0.701505 -0.11473
C_ C_ 0.789495 0.904573 0.710309 -0.11473
C_ C_ 0.552735 0.86504 0.778096 -0.11473
C_ C_ 0.796643 0.861142 0.787602 -0.11473
C_ C_ 0.558318 0.870919 0.702006 -0.11473
C_ C_ 0.807474 0.868679 0.713374 -0.11473
C_ C_ 0.528141 0.92116 0.737425 -0.02249
C_ C_ 0.775458 0.920277 0.74717 -0.02249
C_ C_ 0.587699 0.81489 0.743679 0.6875
C_ C_ 0.828842 0.808239 0.750648 0.6875
C_ C_ 0.533174 0.898327 0.775066 -0.11473
C_ C_ 0.780285 0.898688 0.786162 -0.11473
C_ C_ 0.680188 0.851797 0.736736 -0.02249
C_ C_ 0.927303 0.850462 0.761819 -0.02249
C_ C_ 0.73028 0.96354 0.738281 -0.02249
C_ C_ 0.981921 0.962481 0.766099 -0.02249
C_ C_ 0.702863 0.910197 0.775104 -0.11473
C_ C_ 0.949445 0.908933 0.803382 -0.11473
C_ C_ 0.692117 0.868789 0.699027 -0.11473
C_ C_ 0.946259 0.862223 0.729424 -0.11473
C_ C_ 0.685178 0.873109 0.774135 -0.11473
C_ C_ 0.929256 0.87427 0.798696 -0.11473
C_ C_ 0.713252 0.925711 0.736661 -0.02249
C_ C_ 0.965384 0.922676 0.76745 -0.02249
C_ C_ 0.662839 0.813888 0.736628 0.6875
C_ C_ 0.907892 0.812739 0.758468 0.6875
C_ C_ 0.709375 0.904972 0.699049 -0.11473
C_ C_ 0.964399 0.898488 0.730939 -0.11473
C_ C_ 0.684898 0.654509 0.746293 -0.02249
C_ C_ 0.933298 0.656452 0.748488 -0.02249
C_ C_ 0.732118 0.538188 0.75231 -0.02249
C_ C_ 0.982335 0.5436 0.742947 -0.02249
C_ C_ 0.708313 0.598558 0.787294 -0.11473
C_ C_ 0.95148 0.594247 0.779639 -0.11473
C_ C_ 0.694653 0.636207 0.709 -0.11473
C_ C_ 0.945981 0.64387 0.708677 -0.11473
C_ C_ 0.693703 0.636947 0.784981 -0.11473
C_ C_ 0.936118 0.630544 0.783079 -0.11473
C_ C_ 0.714986 0.579747 0.74948 -0.02249
C_ C_ 0.964574 0.581934 0.742562 -0.02249
C_ C_ 0.666129 0.6926 0.743453 0.6875
C_ C_ 0.913882 0.69515 0.751037 0.6875
C_ C_ 0.707803 0.597602 0.709394 -0.11473
C_ C_ 0.962137 0.60691 0.707525 -0.11473
C_ C_ 0.566095 0.654148 0.753095 -0.02249
C_ C_ 0.817202 0.649255 0.749383 -0.02249
C_ C_ 0.515038 0.538239 0.756874 -0.02249
C_ C_ 0.764147 0.537498 0.753502 -0.02249
C_ C_ 0.538683 0.596804 0.715931 -0.11473
C_ C_ 0.795127 0.58865 0.713299 -0.11473
C_ C_ 0.560996 0.633761 0.790645 -0.11473
C_ C_ 0.802664 0.637756 0.785934 -0.11473
C_ C_ 0.552663 0.635912 0.716602 -0.11473
C_ C_ 0.813691 0.623214 0.712679 -0.11473
C_ C_ 0.534443 0.576596 0.754483 -0.02249
C_ C_ 0.782283 0.575823 0.751755 -0.02249
C_ C_ 0.585815 0.69121 0.750841 0.6875
C_ C_ 0.836363 0.686357 0.749246 0.6875
C_ C_ 0.546115 0.595011 0.791045 -0.11473
C_ C_ 0.783444 0.602456 0.786066 -0.11473
C_ C_ 0.636843 0.72594 0.872434 0.17695
C_ C_ 0.860962 0.712936 0.874298 0.17695
C_ C_ 0.62248 0.796173 0.863948 0.17695
C_ C_ 0.865881 0.784425 0.878394 0.17695
C_ C_ 0.619278 0.798457 0.9081 -0.11473
C_ C_ 0.861824 0.784761 0.921083 -0.11473
C_ C_ 0.629669 0.768096 0.93459 0.23465
C_ C_ 0.862464 0.746679 0.941577 0.23465
C_ C_ 0.636724 0.730558 0.915859 -0.11473
C_ C_ 0.860887 0.710686 0.918506 -0.11473
C_ C_ 0.623291 0.712994 0.61851 0.17695
C_ C_ 0.870082 0.785843 0.624642 0.17695
C_ C_ 0.615112 0.78419 0.612807 0.17695
C_ C_ 0.866448 0.713702 0.627785 0.17695
C_ C_ 0.614342 0.781169 0.569509 -0.11473
C_ C_ 0.861215 0.711561 0.583728 -0.11473
C_ C_ 0.620268 0.743284 0.549419 0.23465
C_ C_ 0.866935 0.746637 0.558315 0.23465
C_ C_ 0.626474 0.709299 0.576095 -0.11473
C_ C_ 0.870447 0.784921 0.580686 -0.11473
C_ C_ 0.530174 -0.0024969999999999715 0.736122 0.05793
C_ C_ 0.778307 0.000617121 0.749366 0.05793
C_ C_ 0.715846 0.501504 0.756392 0.05793
C_ C_ 0.968165 0.50371 0.737913 0.05793
Br Br 0.573145 -0.005272000000000054 0.737175 -0.17191
Br Br 0.822584 1.00160421 0.757787 -0.17191
Br Br 0.673075 0.500682 0.763331 -0.17191
Br Br 0.927046 0.501019 0.718788 -0.17191
N_ N_ 0.631106 0.759474 0.846476 -0.272
N_ N_ 0.866678 0.74835 0.855601 -0.272
N_ N_ 0.626556 0.772124 0.978628 -0.12501
N_ N_ 0.870622 0.743209 0.985747 -0.12501
N_ N_ 0.618569 0.749833 0.636362 -0.272
N_ N_ 0.870086 0.749721 0.647502 -0.272
N_ N_ 0.621028 0.737904 0.504483 -0.12501
N_ N_ 0.873902 0.740579 0.514225 -0.12501
O_ O_ 0.596032 0.796963 0.711303 -0.60745
O_ O_ 0.837741 0.791889 0.716277 -0.60745
O_ O_ 0.594923 0.799453 0.779071 -0.60745
O_ O_ 0.838196 0.793419 0.783949 -0.60745
O_ O_ 0.654115 0.799416 0.771893 -0.60745
O_ O_ 0.895826 0.798737 0.791077 -0.60745
O_ O_ 0.654908 0.796476 0.702357 -0.60745
O_ O_ 0.899743 0.798152 0.722196 -0.60745
O_ O_ 0.654594 0.707775 0.776788 -0.60745
O_ O_ 0.902904 0.706193 0.784811 -0.60745
O_ O_ 0.657322 0.705108 0.708212 -0.60745
O_ O_ 0.903239 0.711509 0.716353 -0.60745
O_ O_ 0.595262 0.701686 0.714699 -0.60745
O_ O_ 0.840271 0.705529 0.716451 -0.60745
O_ O_ 0.595895 0.709389 0.78402 -0.60745
O_ O_ 0.83889 0.705061 0.783187 -0.60745
