_cell_length_a 44.444
_cell_length_b 32.3360000049186
_cell_length_c 31.843999878906452
_cell_angle_alpha 89.99799923859553
_cell_angle_beta 91.13600050494348
_cell_angle_gamma 89.9990006550086
_symmetry_space_group_name_H-M         'P 1'
_symmetry_Int_Tables_number            1
loop_
_symmetry_equiv_pos_as_xyz
   'x, y, z'
                         
loop_
_atom_site_label
_atom_site_type_symbol
_atom_site_fract_x 
_atom_site_fract_y
_atom_site_fract_z
_atom_site_charge
Zn Zn 0.127081 0.252336 0.282418 0.9476
Zn Zn 0.372243 0.254475 0.288347 0.9476
Zn Zn 0.12467 0.251699 0.20975 0.9476
Zn Zn 0.373744 0.254394 0.220253 0.9476
H_ H_ 0.0472402 0.435992 0.191689 0.10932
H_ H_ 0.273719 0.410815 0.178597 0.10932
H_ H_ 0.0635622 0.352191 0.321143 0.10932
H_ H_ 0.332598 0.379005 0.307341 0.10932
H_ H_ 0.077979 0.372817 0.189931 0.10932
H_ H_ 0.298969 0.34058 0.186127 0.10932
H_ H_ 0.0383901 0.419128 0.325385 0.10932
H_ H_ 0.304093 0.442469 0.301538 0.10932
H_ H_ 0.230928 0.413474 0.311336 0.10932
H_ H_ 0.462003 0.425521 0.323505 0.10932
H_ H_ 0.175816 0.370223 0.182345 0.10932
H_ H_ 0.435087 0.352521 0.190451 0.10932
H_ H_ 0.199775 0.35253 0.313795 0.10932
H_ H_ 0.425862 0.361858 0.3231 0.10932
H_ H_ 0.211865 0.426121 0.182531 0.10932
H_ H_ 0.465727 0.419188 0.192394 0.10932
H_ H_ 0.211836 0.0887108 0.319771 0.10932
H_ H_ 0.447414 0.0797337 0.316898 0.10932
H_ H_ 0.184847 0.147826 0.179497 0.10932
H_ H_ 0.45504 0.170968 0.194644 0.10932
H_ H_ 0.188052 0.15865 0.311207 0.10932
H_ H_ 0.425265 0.15046 0.319465 0.10932
H_ H_ 0.212908 0.0829317 0.180458 0.10932
H_ H_ 0.477815 0.0994442 0.189975 0.10932
H_ H_ 0.0267757 0.0924726 0.177424 0.10932
H_ H_ 0.292899 0.0735306 0.189439 0.10932
H_ H_ 0.0690114 0.145496 0.31338 0.10932
H_ H_ 0.307424 0.157894 0.319861 0.10932
H_ H_ 0.049809 0.163141 0.181133 0.10932
H_ H_ 0.318852 0.142403 0.188906 0.10932
H_ H_ 0.0478403 0.0746949 0.308665 0.10932
H_ H_ 0.273845 0.0949682 0.321432 0.10932
H_ H_ 0.12363 0.189738 0.355171 0.10932
H_ H_ 0.365549 0.183841 0.359664 0.10932
H_ H_ 0.123883 0.317597 0.358094 0.10932
H_ H_ 0.378107 0.312589 0.36338 0.10932
H_ H_ 0.117853 0.320223 0.432859 0.10932
H_ H_ 0.382797 0.310663 0.442121 0.10932
H_ H_ 0.126774 0.187829 0.434143 0.10932
H_ H_ 0.372966 0.179579 0.438148 0.10932
H_ H_ 0.109914 0.313861 0.141711 0.10932
H_ H_ 0.398822 0.210472 0.143783 0.10932
H_ H_ 0.146549 0.196286 0.132851 0.10932
H_ H_ 0.341018 0.314862 0.144426 0.10932
H_ H_ 0.146244 0.196589 0.0569121 0.10932
H_ H_ 0.34274 0.317693 0.0656586 0.10932
H_ H_ 0.10399 0.319572 0.06334 0.10932
H_ H_ 0.40616 0.219332 0.0668146 0.10932
C_ C_ 0.0716064 0.354709 0.253575 -0.02249
C_ C_ 0.315482 0.353365 0.249995 -0.02249
C_ C_ 0.0176652 0.466395 0.258066 -0.02249
C_ C_ 0.266469 0.468063 0.241348 -0.02249
C_ C_ 0.0492939 0.417036 0.218959 -0.11473
C_ C_ 0.285977 0.402352 0.208685 -0.11473
C_ C_ 0.0610638 0.3708 0.293584 -0.11473
C_ C_ 0.316758 0.382423 0.282427 -0.11473
C_ C_ 0.0656137 0.379085 0.217116 -0.11473
C_ C_ 0.297951 0.360977 0.213383 -0.11473
C_ C_ 0.0354817 0.427507 0.256994 -0.02249
C_ C_ 0.28575 0.42979 0.242187 -0.02249
C_ C_ 0.0878912 0.313991 0.250528 0.6875
C_ C_ 0.331593 0.312252 0.253871 0.6875
C_ C_ 0.0441975 0.406837 0.296531 -0.11473
C_ C_ 0.301317 0.419092 0.278837 -0.11473
C_ C_ 0.18511 0.352427 0.248205 -0.02249
C_ C_ 0.429412 0.353625 0.256945 -0.02249
C_ C_ 0.23544 0.467333 0.245929 -0.02249
C_ C_ 0.48402 0.464236 0.25746 -0.02249
C_ C_ 0.21934 0.40281 0.283088 -0.11473
C_ C_ 0.455008 0.409695 0.293911 -0.11473
C_ C_ 0.187516 0.378214 0.211518 -0.11473
C_ C_ 0.441073 0.368289 0.219458 -0.11473
C_ C_ 0.20143 0.366887 0.283784 -0.11473
C_ C_ 0.436713 0.37333 0.294654 -0.11473
C_ C_ 0.220219 0.426577 0.246954 -0.02249
C_ C_ 0.464386 0.426957 0.256294 -0.02249
C_ C_ 0.164552 0.315925 0.250674 0.6875
C_ C_ 0.410617 0.314412 0.256756 0.6875
C_ C_ 0.206277 0.412779 0.211288 -0.11473
C_ C_ 0.46072 0.403763 0.220896 -0.11473
C_ C_ 0.184059 0.156553 0.244637 -0.02249
C_ C_ 0.435256 0.160342 0.255195 -0.02249
C_ C_ 0.231539 0.0406601 0.252723 -0.02249
C_ C_ 0.482073 0.0439839 0.2555 -0.02249
C_ C_ 0.208053 0.103164 0.288064 -0.11473
C_ C_ 0.453713 0.102599 0.29251 -0.11473
C_ C_ 0.190561 0.133324 0.210045 -0.11473
C_ C_ 0.45047 0.146823 0.218582 -0.11473
C_ C_ 0.195157 0.142591 0.284968 -0.11473
C_ C_ 0.436949 0.139292 0.291679 -0.11473
C_ C_ 0.21399 0.0812326 0.250272 -0.02249
C_ C_ 0.467589 0.0859097 0.25586 -0.02249
C_ C_ 0.164994 0.195146 0.24491 0.6875
C_ C_ 0.416731 0.198359 0.253446 0.6875
C_ C_ 0.204706 0.0960811 0.209939 -0.11473
C_ C_ 0.467981 0.110805 0.219924 -0.11473
C_ C_ 0.0659488 0.156164 0.245782 -0.02249
C_ C_ 0.315858 0.154354 0.254142 -0.02249
C_ C_ 0.0145624 0.0447177 0.244215 -0.02249
C_ C_ 0.262963 0.0398464 0.255794 -0.02249
C_ C_ 0.0359613 0.104255 0.207469 -0.11473
C_ C_ 0.293448 0.0933931 0.217002 -0.11473
C_ C_ 0.0615893 0.133656 0.282556 -0.11473
C_ C_ 0.304037 0.138763 0.29239 -0.11473
C_ C_ 0.0504566 0.143516 0.208495 -0.11473
C_ C_ 0.310314 0.130713 0.217848 -0.11473
C_ C_ 0.0305693 0.0836389 0.246059 -0.02249
C_ C_ 0.280763 0.0796563 0.253898 -0.02249
C_ C_ 0.0861783 0.192966 0.244976 0.6875
C_ C_ 0.33538 0.191671 0.255747 0.6875
C_ C_ 0.0453577 0.0969585 0.282335 -0.11473
C_ C_ 0.283539 0.104706 0.291284 -0.11473
C_ C_ 0.123387 0.218896 0.373729 0.17695
C_ C_ 0.367928 0.212701 0.378386 0.17695
C_ C_ 0.125461 0.289693 0.375077 0.17695
C_ C_ 0.375766 0.284577 0.380666 0.17695
C_ C_ 0.120917 0.289907 0.418861 -0.11473
C_ C_ 0.380959 0.283247 0.424133 -0.11473
C_ C_ 0.118966 0.254075 0.441469 0.23465
C_ C_ 0.378422 0.245236 0.443543 0.23465
C_ C_ 0.123581 0.21758 0.419492 -0.11473
C_ C_ 0.376038 0.209439 0.421145 -0.11473
C_ C_ 0.116751 0.288105 0.122744 0.17695
C_ C_ 0.38679 0.235108 0.125996 0.17695
C_ C_ 0.139964 0.223412 0.1186 0.17695
C_ C_ 0.3559 0.293959 0.12781 0.17695
C_ C_ 0.137311 0.224441 0.0746896 -0.11473
C_ C_ 0.355084 0.29508 0.0836705 -0.11473
C_ C_ 0.125681 0.261049 0.053261 0.23465
C_ C_ 0.370605 0.26582 0.059652 0.23465
C_ C_ 0.115519 0.292351 0.0781761 -0.11473
C_ C_ 0.388888 0.236612 0.082248 -0.11473
C_ C_ 0.0311308 0.506294 0.255892 0.05793
C_ C_ 0.281461 0.506651 0.234534 0.05793
C_ C_ 0.215342 0.00297501 0.245489 0.05793
C_ C_ 0.464609 1.00668014 0.255649 0.05793
Br Br 0.0747871 0.510376 0.255433 -0.17191
Br Br 0.323144 0.51106 0.216233 -0.17191
Br Br 0.171713 0.00420379 0.248306 -0.17191
Br Br 0.419822 1.0114234 0.243053 -0.17191
N_ N_ 0.124022 0.254337 0.353003 -0.272
N_ N_ 0.37137 0.248071 0.3585 -0.272
N_ N_ 0.112278 0.254329 0.485168 -0.12501
N_ N_ 0.380374 0.242119 0.488532 -0.12501
N_ N_ 0.128245 0.253926 0.141345 -0.272
N_ N_ 0.371803 0.26318 0.147569 -0.272
N_ N_ 0.12557 0.264454 0.00886311 -0.12501
N_ N_ 0.369508 0.269448 0.0136497 -0.12501
O_ O_ 0.0957959 0.298617 0.216758 -0.60745
O_ O_ 0.341206 0.295272 0.219515 -0.60745
O_ O_ 0.0948292 0.296092 0.284324 -0.60745
O_ O_ 0.339614 0.298823 0.289849 -0.60745
O_ O_ 0.156959 0.301801 0.285829 -0.60745
O_ O_ 0.401704 0.298765 0.29047 -0.60745
O_ O_ 0.157995 0.296832 0.21754 -0.60745
O_ O_ 0.405478 0.29616 0.222163 -0.60745
O_ O_ 0.158548 0.21154 0.279268 -0.60745
O_ O_ 0.404023 0.212621 0.287205 -0.60745
O_ O_ 0.153998 0.208996 0.210639 -0.60745
O_ O_ 0.406323 0.210616 0.218877 -0.60745
O_ O_ 0.0960301 0.206464 0.210877 -0.60745
O_ O_ 0.34172 0.211175 0.221016 -0.60745
O_ O_ 0.0974308 0.206178 0.279526 -0.60745
O_ O_ 0.342489 0.207697 0.291492 -0.60745
Zn Zn 0.124341 0.24334 0.781795 0.9476
Zn Zn 0.378829 0.248173 0.784407 0.9476
Zn Zn 0.122785 0.24269 0.713431 0.9476
Zn Zn 0.377426 0.245899 0.713571 0.9476
H_ H_ 0.0142149 0.395861 0.689909 0.10932
H_ H_ 0.27556 0.403433 0.680554 0.10932
H_ H_ 0.0804949 0.361965 0.811306 0.10932
H_ H_ 0.313881 0.347353 0.817576 0.10932
H_ H_ 0.0380107 0.326439 0.696444 0.10932
H_ H_ 0.306396 0.339942 0.678621 0.10932
H_ H_ 0.0526786 0.424626 0.814425 0.10932
H_ H_ 0.288251 0.419496 0.8092 0.10932
H_ H_ 0.216395 0.408614 0.81447 0.10932
H_ H_ 0.466099 0.423313 0.811768 0.10932
H_ H_ 0.183284 0.345397 0.681981 0.10932
H_ H_ 0.443104 0.341912 0.685043 0.10932
H_ H_ 0.189786 0.34006 0.81348 0.10932
H_ H_ 0.439164 0.361267 0.818865 0.10932
H_ H_ 0.211256 0.412372 0.681294 0.10932
H_ H_ 0.470776 0.408906 0.67917 0.10932
H_ H_ 0.213215 0.0766563 0.815708 0.10932
H_ H_ 0.465378 0.0765883 0.812501 0.10932
H_ H_ 0.182786 0.139874 0.684158 0.10932
H_ H_ 0.432975 0.139274 0.678745 0.10932
H_ H_ 0.196421 0.150774 0.814465 0.10932
H_ H_ 0.439489 0.143755 0.813235 0.10932
H_ H_ 0.21476 0.0759033 0.685237 0.10932
H_ H_ 0.465053 0.0761523 0.679701 0.10932
H_ H_ 0.0376239 0.0769213 0.675743 0.10932
H_ H_ 0.285098 0.0815651 0.676949 0.10932
H_ H_ 0.0636785 0.136056 0.811088 0.10932
H_ H_ 0.329029 0.131341 0.809769 0.10932
H_ H_ 0.0653288 0.139343 0.678321 0.10932
H_ H_ 0.314637 0.142848 0.678461 0.10932
H_ H_ 0.0373094 0.0685455 0.808055 0.10932
H_ H_ 0.295032 0.0686981 0.811489 0.10932
H_ H_ 0.12618 0.307864 0.855909 0.10932
H_ H_ 0.378641 0.312484 0.861326 0.10932
H_ H_ 0.126575 0.176689 0.853459 0.10932
H_ H_ 0.37052 0.181042 0.858477 0.10932
H_ H_ 0.124325 0.171886 0.929831 0.10932
H_ H_ 0.373735 0.178449 0.93868 0.10932
H_ H_ 0.13788 0.303289 0.935431 0.10932
H_ H_ 0.378621 0.312155 0.93796 0.10932
H_ H_ 0.121243 0.180538 0.631096 0.10932
H_ H_ 0.382484 0.190776 0.631142 0.10932
H_ H_ 0.136719 0.309996 0.646398 0.10932
H_ H_ 0.370675 0.322815 0.645557 0.10932
H_ H_ 0.135965 0.317212 0.568988 0.10932
H_ H_ 0.371024 0.331777 0.567887 0.10932
H_ H_ 0.126647 0.186406 0.554189 0.10932
H_ H_ 0.380109 0.202106 0.551972 0.10932
C_ C_ 0.0650861 0.342725 0.749349 -0.02249
C_ C_ 0.315488 0.338415 0.747574 -0.02249
C_ C_ 0.0153277 0.459097 0.749097 -0.02249
C_ C_ 0.263461 0.454259 0.745275 -0.02249
C_ C_ 0.0313468 0.390559 0.714299 -0.11473
C_ C_ 0.286578 0.391621 0.708054 -0.11473
C_ C_ 0.0673564 0.369709 0.782894 -0.11473
C_ C_ 0.308113 0.361868 0.785341 -0.11473
C_ C_ 0.0458065 0.351308 0.716828 -0.11473
C_ C_ 0.302849 0.355112 0.709889 -0.11473
C_ C_ 0.0324487 0.41778 0.749623 -0.02249
C_ C_ 0.281521 0.414839 0.744193 -0.02249
C_ C_ 0.0864787 0.306176 0.74851 0.6875
C_ C_ 0.336435 0.301993 0.747411 0.6875
C_ C_ 0.0490151 0.4055 0.785743 -0.11473
C_ C_ 0.290729 0.397612 0.783336 -0.11473
C_ C_ 0.183235 0.340674 0.747617 -0.02249
C_ C_ 0.435316 0.346414 0.750275 -0.02249
C_ C_ 0.232777 0.454178 0.748612 -0.02249
C_ C_ 0.486049 0.461199 0.743514 -0.02249
C_ C_ 0.209134 0.396143 0.785353 -0.11473
C_ C_ 0.459703 0.406586 0.785045 -0.11473
C_ C_ 0.190418 0.359775 0.709852 -0.11473
C_ C_ 0.446282 0.359724 0.71236 -0.11473
C_ C_ 0.194949 0.357837 0.78487 -0.11473
C_ C_ 0.443792 0.370064 0.787979 -0.11473
C_ C_ 0.21649 0.415766 0.747695 -0.02249
C_ C_ 0.468067 0.421097 0.746116 -0.02249
C_ C_ 0.164852 0.301593 0.749005 0.6875
C_ C_ 0.416174 0.308637 0.751972 0.6875
C_ C_ 0.208783 0.396042 0.709703 -0.11473
C_ C_ 0.462635 0.396848 0.710321 -0.11473
C_ C_ 0.187882 0.148386 0.748416 -0.02249
C_ C_ 0.437225 0.149832 0.746019 -0.02249
C_ C_ 0.237454 0.0329671 0.750911 -0.02249
C_ C_ 0.484419 0.0316703 0.750718 -0.02249
C_ C_ 0.213438 0.0934525 0.786694 -0.11473
C_ C_ 0.462608 0.0933117 0.784608 -0.11473
C_ C_ 0.193196 0.127446 0.711494 -0.11473
C_ C_ 0.441116 0.12556 0.710699 -0.11473
C_ C_ 0.200271 0.13308 0.786248 -0.11473
C_ C_ 0.446286 0.131497 0.782726 -0.11473
C_ C_ 0.219214 0.0727358 0.748257 -0.02249
C_ C_ 0.46958 0.072436 0.747254 -0.02249
C_ C_ 0.163253 0.181779 0.748634 0.6875
C_ C_ 0.417039 0.187908 0.744169 0.6875
C_ C_ 0.209595 0.0917123 0.711003 -0.11473
C_ C_ 0.457872 0.0894515 0.708923 -0.11473
C_ C_ 0.0671704 0.145045 0.746995 -0.02249
C_ C_ 0.322055 0.144565 0.745738 -0.02249
C_ C_ 0.0140921 0.0296946 0.743167 -0.02249
C_ C_ 0.268392 0.0329661 0.743343 -0.02249
C_ C_ 0.041726 0.0897896 0.706048 -0.11473
C_ C_ 0.291341 0.0943671 0.707169 -0.11473
C_ C_ 0.0583106 0.124402 0.782038 -0.11473
C_ C_ 0.319143 0.120744 0.782572 -0.11473
C_ C_ 0.0585217 0.127672 0.708112 -0.11473
C_ C_ 0.308564 0.129383 0.706876 -0.11473
C_ C_ 0.0322694 0.0699729 0.742275 -0.02249
C_ C_ 0.28522 0.0740963 0.745442 -0.02249
C_ C_ 0.0861928 0.182502 0.748616 0.6875
C_ C_ 0.340014 0.185828 0.746622 0.6875
C_ C_ 0.0403872 0.0875537 0.781283 -0.11473
C_ C_ 0.296742 0.0886869 0.784147 -0.11473
C_ C_ 0.12905 0.277619 0.873907 0.17695
C_ C_ 0.378888 0.282791 0.878005 0.17695
C_ C_ 0.123432 0.205354 0.871294 0.17695
C_ C_ 0.3774 0.20945 0.875495 0.17695
C_ C_ 0.124181 0.202562 0.915215 -0.11473
C_ C_ 0.376727 0.208473 0.920914 -0.11473
C_ C_ 0.127379 0.239196 0.940163 0.23465
C_ C_ 0.379821 0.245411 0.944326 0.23465
C_ C_ 0.132523 0.275359 0.918294 -0.11473
C_ C_ 0.379371 0.282594 0.921011 -0.11473
C_ C_ 0.12308 0.210919 0.617885 0.17695
C_ C_ 0.380191 0.223375 0.618329 0.17695
C_ C_ 0.132521 0.281907 0.626273 0.17695
C_ C_ 0.374044 0.295468 0.626524 0.17695
C_ C_ 0.130647 0.287663 0.582376 -0.11473
C_ C_ 0.370519 0.300611 0.582714 -0.11473
C_ C_ 0.126361 0.254725 0.555234 0.23465
C_ C_ 0.374961 0.266671 0.557218 0.23465
C_ C_ 0.121882 0.214936 0.572895 -0.11473
C_ C_ 0.376227 0.227652 0.574451 -0.11473
C_ C_ 0.0306475 0.497924 0.743961 0.05793
C_ C_ 0.279339 0.491774 0.742624 0.05793
C_ C_ 0.219802 -0.004553000000000029 0.751892 0.05793
C_ C_ 0.467438 0.994978 0.752168 0.05793
Br Br 0.0687797 0.499595 0.717647 -0.17191
Br Br 0.320238 0.490924 0.723581 -0.17191
Br Br 0.17623 -0.009619999999999962 0.764631 -0.17191
Br Br 0.426073 0.99856 0.763143 -0.17191
N_ N_ 0.124377 0.242176 0.851784 -0.272
N_ N_ 0.379369 0.247 0.855574 -0.272
N_ N_ 0.132173 0.235871 0.984121 -0.12501
N_ N_ 0.381711 0.244196 0.989484 -0.12501
N_ N_ 0.125622 0.245775 0.643083 -0.272
N_ N_ 0.374432 0.257045 0.642938 -0.272
N_ N_ 0.132404 0.259606 0.512704 -0.12501
N_ N_ 0.372397 0.271064 0.513103 -0.12501
O_ O_ 0.0947353 0.291678 0.713412 -0.60745
O_ O_ 0.349768 0.292229 0.714652 -0.60745
O_ O_ 0.0934396 0.286306 0.782263 -0.60745
O_ O_ 0.343922 0.284325 0.782999 -0.60745
O_ O_ 0.153075 0.290067 0.781858 -0.60745
O_ O_ 0.402336 0.298163 0.78528 -0.60745
O_ O_ 0.158227 0.283797 0.714876 -0.60745
O_ O_ 0.409434 0.289256 0.716459 -0.60745
O_ O_ 0.154868 0.197414 0.782927 -0.60745
O_ O_ 0.411761 0.207674 0.778398 -0.60745
O_ O_ 0.154047 0.198456 0.714742 -0.60745
O_ O_ 0.406739 0.202897 0.710585 -0.60745
O_ O_ 0.0891991 0.204203 0.71651 -0.60745
O_ O_ 0.346688 0.202163 0.710858 -0.60745
O_ O_ 0.096442 0.197407 0.782994 -0.60745
O_ O_ 0.354545 0.197169 0.779439 -0.60745
Zn Zn 0.121588 0.755851 0.284175 0.9476
Zn Zn 0.379335 0.751304 0.280805 0.9476
Zn Zn 0.122446 0.753554 0.215521 0.9476
Zn Zn 0.380257 0.755448 0.20977 0.9476
H_ H_ 0.0252182 0.91301 0.175639 0.10932
H_ H_ 0.290018 0.931451 0.182418 0.10932
H_ H_ 0.0817658 0.875507 0.304372 0.10932
H_ H_ 0.305131 0.841756 0.307348 0.10932
H_ H_ 0.0506808 0.842748 0.179682 0.10932
H_ H_ 0.330937 0.880969 0.183133 0.10932
H_ H_ 0.0439263 0.93381 0.30593 0.10932
H_ H_ 0.27495 0.905554 0.310874 0.10932
H_ H_ 0.207501 0.929523 0.312539 0.10932
H_ H_ 0.458326 0.928771 0.31595 0.10932
H_ H_ 0.190287 0.849247 0.180652 0.10932
H_ H_ 0.455012 0.84401 0.186884 0.10932
H_ H_ 0.170244 0.871675 0.314005 0.10932
H_ H_ 0.434681 0.864392 0.319581 0.10932
H_ H_ 0.20807 0.917981 0.179917 0.10932
H_ H_ 0.471575 0.922972 0.185025 0.10932
H_ H_ 0.222078 0.592939 0.315196 0.10932
H_ H_ 0.482955 0.595167 0.321336 0.10932
H_ H_ 0.165647 0.633108 0.189128 0.10932
H_ H_ 0.428196 0.636239 0.188084 0.10932
H_ H_ 0.196417 0.657945 0.315775 0.10932
H_ H_ 0.461891 0.668643 0.310969 0.10932
H_ H_ 0.195617 0.572237 0.186304 0.10932
H_ H_ 0.449946 0.568609 0.194956 0.10932
H_ H_ 0.0236116 0.592594 0.191218 0.10932
H_ H_ 0.28484 0.584269 0.171995 0.10932
H_ H_ 0.0757599 0.641128 0.321661 0.10932
H_ H_ 0.3136 0.653905 0.307069 0.10932
H_ H_ 0.0502926 0.659805 0.188424 0.10932
H_ H_ 0.314041 0.653256 0.173567 0.10932
H_ H_ 0.0407744 0.585394 0.32415 0.10932
H_ H_ 0.284403 0.590412 0.305943 0.10932
H_ H_ 0.112626 0.815709 0.349874 0.10932
H_ H_ 0.378966 0.8143 0.351265 0.10932
H_ H_ 0.125097 0.688873 0.363765 0.10932
H_ H_ 0.381248 0.685219 0.353854 0.10932
H_ H_ 0.118881 0.694489 0.443548 0.10932
H_ H_ 0.38546 0.687466 0.432702 0.10932
H_ H_ 0.114491 0.825997 0.424818 0.10932
H_ H_ 0.379294 0.82132 0.429213 0.10932
H_ H_ 0.115901 0.690135 0.147604 0.10932
H_ H_ 0.385319 0.823093 0.141736 0.10932
H_ H_ 0.12431 0.815653 0.133222 0.10932
H_ H_ 0.387371 0.691776 0.13665 0.10932
H_ H_ 0.12427 0.808175 0.0577255 0.10932
H_ H_ 0.391396 0.693713 0.0585458 0.10932
H_ H_ 0.11855 0.676357 0.0709621 0.10932
H_ H_ 0.392805 0.824702 0.0648131 0.10932
C_ C_ 0.0696614 0.856472 0.241955 -0.02249
C_ C_ 0.319152 0.854351 0.242467 -0.02249
C_ C_ 0.0174067 0.969167 0.236392 -0.02249
C_ C_ 0.262418 0.964654 0.248809 -0.02249
C_ C_ 0.0351936 0.903061 0.204806 -0.11473
C_ C_ 0.295862 0.916464 0.21138 -0.11473
C_ C_ 0.0669741 0.881648 0.278223 -0.11473
C_ C_ 0.302378 0.860903 0.279218 -0.11473
C_ C_ 0.0511668 0.864608 0.206859 -0.11473
C_ C_ 0.31783 0.883976 0.210323 -0.11473
C_ C_ 0.0351811 0.92971 0.238452 -0.02249
C_ C_ 0.280017 0.924471 0.247761 -0.02249
C_ C_ 0.0852078 0.815748 0.247056 0.6875
C_ C_ 0.341457 0.817208 0.242834 0.6875
C_ C_ 0.0482463 0.917107 0.277015 -0.11473
C_ C_ 0.284725 0.896355 0.2824 -0.11473
C_ C_ 0.183453 0.850281 0.250594 -0.02249
C_ C_ 0.438952 0.850206 0.250863 -0.02249
C_ C_ 0.231171 0.965605 0.243771 -0.02249
C_ C_ 0.479951 0.967827 0.255304 -0.02249
C_ C_ 0.204049 0.911721 0.285584 -0.11473
C_ C_ 0.45294 0.912653 0.288327 -0.11473
C_ C_ 0.19712 0.861941 0.212011 -0.11473
C_ C_ 0.451127 0.865831 0.213216 -0.11473
C_ C_ 0.186743 0.875518 0.288113 -0.11473
C_ C_ 0.441569 0.87316 0.288615 -0.11473
C_ C_ 0.214697 0.925819 0.245665 -0.02249
C_ C_ 0.463699 0.929555 0.250849 -0.02249
C_ C_ 0.162886 0.814968 0.251691 0.6875
C_ C_ 0.419905 0.813689 0.249009 0.6875
C_ C_ 0.209178 0.901521 0.210462 -0.11473
C_ C_ 0.463914 0.906547 0.212965 -0.11473
C_ C_ 0.175752 0.650472 0.253136 -0.02249
C_ C_ 0.440256 0.656423 0.25111 -0.02249
C_ C_ 0.233404 0.54308 0.249157 -0.02249
C_ C_ 0.485505 0.538275 0.26112 -0.02249
C_ C_ 0.212428 0.603478 0.285443 -0.11473
C_ C_ 0.471976 0.606925 0.290991 -0.11473
C_ C_ 0.176442 0.624666 0.216387 -0.11473
C_ C_ 0.441116 0.63001 0.215971 -0.11473
C_ C_ 0.193323 0.637176 0.288575 -0.11473
C_ C_ 0.457712 0.645306 0.286977 -0.11473
C_ C_ 0.215183 0.581581 0.248519 -0.02249
C_ C_ 0.471227 0.579185 0.257454 -0.02249
C_ C_ 0.161041 0.69119 0.252777 0.6875
C_ C_ 0.419098 0.693431 0.250229 0.6875
C_ C_ 0.196225 0.591936 0.214135 -0.11473
C_ C_ 0.454663 0.589895 0.219395 -0.11473
C_ C_ 0.0644525 0.657947 0.256047 -0.02249
C_ C_ 0.31935 0.655655 0.239928 -0.02249
C_ C_ 0.0147987 0.542038 0.258057 -0.02249
C_ C_ 0.264993 0.544896 0.240352 -0.02249
C_ C_ 0.0312855 0.607996 0.220319 -0.11473
C_ C_ 0.289276 0.6028 0.202104 -0.11473
C_ C_ 0.0620574 0.634848 0.293156 -0.11473
C_ C_ 0.308006 0.640047 0.276341 -0.11473
C_ C_ 0.0488393 0.643593 0.218606 -0.11473
C_ C_ 0.308944 0.638764 0.202369 -0.11473
C_ C_ 0.029362 0.58426 0.257945 -0.02249
C_ C_ 0.280555 0.585197 0.239057 -0.02249
C_ C_ 0.0841815 0.693512 0.253535 0.6875
C_ C_ 0.340797 0.692932 0.239474 0.6875
C_ C_ 0.0415475 0.6019 0.294723 -0.11473
C_ C_ 0.288265 0.605927 0.277447 -0.11473
C_ C_ 0.110842 0.78929 0.371548 0.17695
C_ C_ 0.380181 0.787163 0.368834 0.17695
C_ C_ 0.121634 0.718884 0.379161 0.17695
C_ C_ 0.376164 0.714894 0.371374 0.17695
C_ C_ 0.118718 0.722659 0.423818 -0.11473
C_ C_ 0.378722 0.715799 0.415589 -0.11473
C_ C_ 0.1164 0.761764 0.441628 0.23465
C_ C_ 0.382201 0.755161 0.435786 0.23465
C_ C_ 0.112252 0.795304 0.414492 -0.11473
C_ C_ 0.37813 0.790586 0.413244 -0.11473
C_ C_ 0.124958 0.713413 0.12811 0.17695
C_ C_ 0.388039 0.79448 0.125205 0.17695
C_ C_ 0.12766 0.786298 0.119927 0.17695
C_ C_ 0.384465 0.721638 0.120406 0.17695
C_ C_ 0.125545 0.780279 0.0755844 -0.11473
C_ C_ 0.385977 0.721915 0.077046 -0.11473
C_ C_ 0.125661 0.741618 0.0562451 0.23465
C_ C_ 0.386286 0.760112 0.0566425 0.23465
C_ C_ 0.122435 0.70783 0.082865 -0.11473
C_ C_ 0.389328 0.796946 0.0813804 -0.11473
C_ C_ 0.0317799 1.00709861 0.242324 0.05793
C_ C_ 0.278812 1.00155822 0.25507 0.05793
C_ C_ 0.218145 0.504775 0.254229 0.05793
C_ C_ 0.470121 0.501935 0.265254 0.05793
Br Br 0.0744687 0.008356 0.241728 -0.17191
Br Br 0.322675 1.000781683 0.269635 -0.17191
Br Br 0.175895 0.503904 0.257345 -0.17191
Br Br 0.429085 0.508894 0.285412 -0.17191
N_ N_ 0.116943 0.751974 0.354012 -0.272
N_ N_ 0.37574 0.751197 0.349266 -0.272
N_ N_ 0.116739 0.768125 0.48652 -0.12501
N_ N_ 0.38407 0.7584 0.481388 -0.12501
N_ N_ 0.124884 0.752065 0.144029 -0.272
N_ N_ 0.387573 0.7567 0.143103 -0.272
N_ N_ 0.121648 0.737339 0.0120453 -0.12501
N_ N_ 0.388893 0.764023 0.0108107 -0.12501
O_ O_ 0.0930115 0.798801 0.21354 -0.60745
O_ O_ 0.348756 0.799479 0.207959 -0.60745
O_ O_ 0.0872738 0.796639 0.280742 -0.60745
O_ O_ 0.350485 0.800521 0.276384 -0.60745
O_ O_ 0.150021 0.805024 0.284746 -0.60745
O_ O_ 0.411652 0.796585 0.281853 -0.60745
O_ O_ 0.156367 0.795717 0.217245 -0.60745
O_ O_ 0.409804 0.799354 0.214436 -0.60745
O_ O_ 0.15638 0.711872 0.285608 -0.60745
O_ O_ 0.405438 0.703633 0.282514 -0.60745
O_ O_ 0.152155 0.707016 0.219157 -0.60745
O_ O_ 0.41433 0.711424 0.215163 -0.60745
O_ O_ 0.0890524 0.711597 0.218543 -0.60745
O_ O_ 0.349987 0.70965 0.20484 -0.60745
O_ O_ 0.096569 0.70587 0.287366 -0.60745
O_ O_ 0.346199 0.711234 0.27292 -0.60745
Zn Zn 0.125105 0.747485 0.781136 0.9476
Zn Zn 0.377439 0.74336 0.779967 0.9476
Zn Zn 0.124191 0.7446 0.711626 0.9476
Zn Zn 0.374664 0.743429 0.710098 0.9476
H_ H_ 0.0205718 0.900276 0.67829 0.10932
H_ H_ 0.27329 0.90088 0.674972 0.10932
H_ H_ 0.0617828 0.851306 0.814429 0.10932
H_ H_ 0.328735 0.861977 0.802315 0.10932
H_ H_ 0.059432 0.844769 0.680399 0.10932
H_ H_ 0.294917 0.830415 0.679271 0.10932
H_ H_ 0.029072 0.911248 0.814496 0.10932
H_ H_ 0.295041 0.924115 0.801032 0.10932
H_ H_ 0.228863 0.900936 0.806648 0.10932
H_ H_ 0.4689 0.911419 0.817315 0.10932
H_ H_ 0.168461 0.859094 0.684049 0.10932
H_ H_ 0.428339 0.852955 0.681257 0.10932
H_ H_ 0.196546 0.844438 0.811566 0.10932
H_ H_ 0.431874 0.848738 0.819423 0.10932
H_ H_ 0.193942 0.926682 0.680961 0.10932
H_ H_ 0.45081 0.92036 0.682128 0.10932
H_ H_ 0.225399 0.587725 0.812811 0.10932
H_ H_ 0.482471 0.588512 0.808932 0.10932
H_ H_ 0.174917 0.630327 0.678867 0.10932
H_ H_ 0.425126 0.629048 0.678436 0.10932
H_ H_ 0.192672 0.648351 0.811119 0.10932
H_ H_ 0.452847 0.651075 0.811932 0.10932
H_ H_ 0.21032 0.571853 0.682956 0.10932
H_ H_ 0.461202 0.570915 0.679769 0.10932
H_ H_ 0.0148249 0.594965 0.689133 0.10932
H_ H_ 0.272702 0.585285 0.682692 0.10932
H_ H_ 0.0717899 0.638526 0.816004 0.10932
H_ H_ 0.333896 0.622436 0.808876 0.10932
H_ H_ 0.0470682 0.655528 0.683294 0.10932
H_ H_ 0.291422 0.657153 0.689303 0.10932
H_ H_ 0.041562 0.571732 0.816616 0.10932
H_ H_ 0.303429 0.557392 0.808836 0.10932
H_ H_ 0.134052 0.813506 0.849663 0.10932
H_ H_ 0.387853 0.813188 0.859466 0.10932
H_ H_ 0.127923 0.686284 0.861197 0.10932
H_ H_ 0.37309 0.682738 0.853148 0.10932
H_ H_ 0.12917 0.687302 0.936329 0.10932
H_ H_ 0.375139 0.677549 0.929211 0.10932
H_ H_ 0.135969 0.819252 0.927139 0.10932
H_ H_ 0.391409 0.806351 0.93647 0.10932
H_ H_ 0.120168 0.67968 0.644895 0.10932
H_ H_ 0.370649 0.809518 0.627197 0.10932
H_ H_ 0.120433 0.810435 0.63613 0.10932
H_ H_ 0.376891 0.678238 0.638443 0.10932
H_ H_ 0.120902 0.80983 0.559302 0.10932
H_ H_ 0.37279 0.672647 0.558593 0.10932
H_ H_ 0.132951 0.677294 0.565355 0.10932
H_ H_ 0.373742 0.806287 0.551009 0.10932
C_ C_ 0.0623257 0.84131 0.747684 -0.02249
C_ C_ 0.315762 0.839737 0.741808 -0.02249
C_ C_ 0.0112413 0.953801 0.745196 -0.02249
C_ C_ 0.266532 0.957104 0.734633 -0.02249
C_ C_ 0.0348399 0.894385 0.707832 -0.11473
C_ C_ 0.285622 0.891206 0.702301 -0.11473
C_ C_ 0.0514174 0.859876 0.784291 -0.11473
C_ C_ 0.315639 0.867489 0.776359 -0.11473
C_ C_ 0.0521308 0.857098 0.709217 -0.11473
C_ C_ 0.29966 0.852274 0.703953 -0.11473
C_ C_ 0.0257518 0.913643 0.744671 -0.02249
C_ C_ 0.283737 0.917447 0.737286 -0.02249
C_ C_ 0.08427 0.804473 0.748133 0.6875
C_ C_ 0.33377 0.800856 0.743975 0.6875
C_ C_ 0.0336553 0.895882 0.784697 -0.11473
C_ C_ 0.297694 0.903544 0.77523 -0.11473
C_ C_ 0.18597 0.84084 0.743637 -0.02249
C_ C_ 0.430889 0.844454 0.748712 -0.02249
C_ C_ 0.235613 0.956947 0.745858 -0.02249
C_ C_ 0.481978 0.956719 0.748795 -0.02249
C_ C_ 0.218677 0.890317 0.778147 -0.11473
C_ C_ 0.456591 0.900411 0.787994 -0.11473
C_ C_ 0.184646 0.867922 0.708471 -0.11473
C_ C_ 0.437666 0.864437 0.710516 -0.11473
C_ C_ 0.202717 0.852765 0.780379 -0.11473
C_ C_ 0.439115 0.863493 0.789166 -0.11473
C_ C_ 0.219015 0.916116 0.743763 -0.02249
C_ C_ 0.463276 0.918123 0.747945 -0.02249
C_ C_ 0.165203 0.804365 0.743291 0.6875
C_ C_ 0.411784 0.807409 0.748921 0.6875
C_ C_ 0.20018 0.9054 0.709144 -0.11473
C_ C_ 0.453302 0.901333 0.710298 -0.11473
C_ C_ 0.18486 0.647729 0.744502 -0.02249
C_ C_ 0.437424 0.648775 0.745556 -0.02249
C_ C_ 0.232596 0.531579 0.749642 -0.02249
C_ C_ 0.489632 0.53601 0.741894 -0.02249
C_ C_ 0.21339 0.595601 0.78476 -0.11473
C_ C_ 0.47159 0.600129 0.780443 -0.11473
C_ C_ 0.187899 0.62394 0.708546 -0.11473
C_ C_ 0.439756 0.624749 0.708501 -0.11473
C_ C_ 0.200337 0.635795 0.781533 -0.11473
C_ C_ 0.452728 0.633663 0.783488 -0.11473
C_ C_ 0.215415 0.57138 0.747792 -0.02249
C_ C_ 0.473876 0.575713 0.744988 -0.02249
C_ C_ 0.164628 0.685615 0.744943 0.6875
C_ C_ 0.416823 0.685346 0.745359 0.6875
C_ C_ 0.202682 0.586172 0.710266 -0.11473
C_ C_ 0.45887 0.589511 0.708716 -0.11473
C_ C_ 0.0639836 0.649962 0.749728 -0.02249
C_ C_ 0.315653 0.64577 0.749044 -0.02249
C_ C_ 0.0146089 0.536069 0.750729 -0.02249
C_ C_ 0.264059 0.529977 0.746217 -0.02249
C_ C_ 0.0275037 0.603303 0.716539 -0.11473
C_ C_ 0.281974 0.595542 0.712591 -0.11473
C_ C_ 0.0639009 0.624524 0.787004 -0.11473
C_ C_ 0.317352 0.616912 0.783201 -0.11473
C_ C_ 0.045176 0.640269 0.715026 -0.11473
C_ C_ 0.295192 0.635952 0.714931 -0.11473
C_ C_ 0.0318933 0.576523 0.750828 -0.02249
C_ C_ 0.282552 0.569038 0.747196 -0.02249
C_ C_ 0.083135 0.687103 0.74863 0.6875
C_ C_ 0.333958 0.684843 0.747317 0.6875
C_ C_ 0.0473473 0.587898 0.787584 -0.11473
C_ C_ 0.299562 0.580261 0.783142 -0.11473
C_ C_ 0.128378 0.785474 0.86958 0.17695
C_ C_ 0.387607 0.781929 0.874713 0.17695
C_ C_ 0.123399 0.71442 0.875122 0.17695
C_ C_ 0.378348 0.710012 0.87119 0.17695
C_ C_ 0.126739 0.716002 0.91971 -0.11473
C_ C_ 0.37717 0.708058 0.914911 -0.11473
C_ C_ 0.129056 0.755778 0.93807 0.23465
C_ C_ 0.380817 0.741931 0.94033 0.23465
C_ C_ 0.13091 0.789852 0.913925 -0.11473
C_ C_ 0.386152 0.779166 0.919551 -0.11473
C_ C_ 0.121344 0.707678 0.625431 0.17695
C_ C_ 0.373857 0.77946 0.613488 0.17695
C_ C_ 0.11832 0.780454 0.620441 0.17695
C_ C_ 0.375046 0.705984 0.619241 0.17695
C_ C_ 0.118332 0.779765 0.576019 -0.11473
C_ C_ 0.371689 0.702183 0.575514 -0.11473
C_ C_ 0.121369 0.741515 0.556002 0.23465
C_ C_ 0.372385 0.739399 0.550728 0.23465
C_ C_ 0.126921 0.70587 0.580709 -0.11473
C_ C_ 0.37421 0.777458 0.56861 -0.11473
C_ C_ 0.0287307 -0.009105999999999947 0.742487 0.05793
C_ C_ 0.28249 -0.005820000000000047 0.730656 0.05793
C_ C_ 0.216873 0.493988 0.747775 0.05793
C_ C_ 0.472419 0.499372 0.741118 0.05793
Br Br 0.0694687 -0.011195999999999984 0.726072 -0.17191
Br Br 0.321596 -0.003155000000000019 0.704302 -0.17191
Br Br 0.174347 0.494682 0.756093 -0.17191
Br Br 0.428581 0.500428 0.73318 -0.17191
N_ N_ 0.127722 0.74751 0.851896 -0.272
N_ N_ 0.383657 0.745886 0.850782 -0.272
N_ N_ 0.132759 0.762215 0.985478 -0.12501
N_ N_ 0.378058 0.737948 0.985733 -0.12501
N_ N_ 0.119953 0.745479 0.644479 -0.272
N_ N_ 0.37481 0.744566 0.637373 -0.272
N_ N_ 0.125883 0.739743 0.511572 -0.12501
N_ N_ 0.370248 0.735869 0.50571 -0.12501
O_ O_ 0.0977824 0.79433 0.716048 -0.60745
O_ O_ 0.340435 0.783537 0.70905 -0.60745
O_ O_ 0.0917669 0.784781 0.781075 -0.60745
O_ O_ 0.345148 0.78775 0.778353 -0.60745
O_ O_ 0.153995 0.791545 0.777797 -0.60745
O_ O_ 0.405925 0.789387 0.782498 -0.60745
O_ O_ 0.156855 0.786842 0.709806 -0.60745
O_ O_ 0.403249 0.79112 0.715411 -0.60745
O_ O_ 0.159322 0.70454 0.778338 -0.60745
O_ O_ 0.407126 0.701112 0.779792 -0.60745
O_ O_ 0.15122 0.697142 0.711447 -0.60745
O_ O_ 0.408645 0.703202 0.711395 -0.60745
O_ O_ 0.0898285 0.702104 0.712699 -0.60745
O_ O_ 0.343464 0.696691 0.711263 -0.60745
O_ O_ 0.0946003 0.701245 0.781882 -0.60745
O_ O_ 0.34746 0.698162 0.780804 -0.60745
Zn Zn 0.62719 0.249921 0.287265 0.9476
Zn Zn 0.8728 0.255324 0.288243 0.9476
Zn Zn 0.626904 0.251168 0.218607 0.9476
Zn Zn 0.872401 0.257976 0.218374 0.9476
H_ H_ 0.522241 0.405436 0.188106 0.10932
H_ H_ 0.800831 0.43663 0.19144 0.10932
H_ H_ 0.588495 0.370153 0.308091 0.10932
H_ H_ 0.804471 0.349632 0.322547 0.10932
H_ H_ 0.550828 0.34213 0.187692 0.10932
H_ H_ 0.826609 0.372388 0.189035 0.10932
H_ H_ 0.558298 0.43683 0.309951 0.10932
H_ H_ 0.767986 0.406393 0.316278 0.10932
H_ H_ 0.710386 0.427841 0.317586 0.10932
H_ H_ 0.98245 0.401686 0.321372 0.10932
H_ H_ 0.675719 0.366656 0.184478 0.10932
H_ H_ 0.929664 0.367551 0.188914 0.10932
H_ H_ 0.684179 0.359986 0.320648 0.10932
H_ H_ 0.945048 0.345262 0.32116 0.10932
H_ H_ 0.71061 0.423336 0.184317 0.10932
H_ H_ 0.960589 0.429643 0.1932 0.10932
H_ H_ 0.695448 0.066395 0.305886 0.10932
H_ H_ 0.975554 0.0959199 0.309433 0.10932
H_ H_ 0.7013 0.161054 0.186595 0.10932
H_ H_ 0.92142 0.148918 0.184696 0.10932
H_ H_ 0.667844 0.133009 0.31027 0.10932
H_ H_ 0.943903 0.15959 0.311362 0.10932
H_ H_ 0.722742 0.0912302 0.182448 0.10932
H_ H_ 0.951085 0.0826781 0.178491 0.10932
H_ H_ 0.552568 0.063238 0.201813 0.10932
H_ H_ 0.796166 0.0784846 0.183157 0.10932
H_ H_ 0.553339 0.163731 0.318696 0.10932
H_ H_ 0.802149 0.157749 0.318451 0.10932
H_ H_ 0.578452 0.128893 0.194372 0.10932
H_ H_ 0.824551 0.144356 0.188393 0.10932
H_ H_ 0.517485 0.104554 0.321778 0.10932
H_ H_ 0.770186 0.0959577 0.309839 0.10932
H_ H_ 0.581768 0.246409 0.368461 0.10932
H_ H_ 0.88849 0.192287 0.361332 0.10932
H_ H_ 0.677576 0.248957 0.356307 0.10932
H_ H_ 0.871853 0.319226 0.35499 0.10932
H_ H_ 0.685274 0.246817 0.434402 0.10932
H_ H_ 0.875264 0.325797 0.432586 0.10932
H_ H_ 0.58848 0.245623 0.444434 0.10932
H_ H_ 0.88689 0.195028 0.444153 0.10932
H_ H_ 0.622707 0.18817 0.141386 0.10932
H_ H_ 0.825378 0.276453 0.143828 0.10932
H_ H_ 0.62337 0.316551 0.151612 0.10932
H_ H_ 0.914996 0.225619 0.140323 0.10932
H_ H_ 0.625458 0.325392 0.0740295 0.10932
H_ H_ 0.914215 0.239886 0.0621455 0.10932
H_ H_ 0.621533 0.191527 0.0617976 0.10932
H_ H_ 0.824749 0.279914 0.0638283 0.10932
C_ C_ 0.565552 0.347274 0.252889 -0.02249
C_ C_ 0.816025 0.35451 0.256218 -0.02249
C_ C_ 0.516426 0.461232 0.253136 -0.02249
C_ C_ 0.764083 0.466381 0.255618 -0.02249
C_ C_ 0.533792 0.397402 0.216425 -0.11473
C_ C_ 0.798979 0.416861 0.220143 -0.11473
C_ C_ 0.569868 0.374784 0.285981 -0.11473
C_ C_ 0.801098 0.367388 0.293587 -0.11473
C_ C_ 0.548233 0.358996 0.217191 -0.11473
C_ C_ 0.813953 0.378672 0.218605 -0.11473
C_ C_ 0.532823 0.421119 0.253151 -0.02249
C_ C_ 0.781192 0.42715 0.25583 -0.02249
C_ C_ 0.585753 0.310185 0.253829 0.6875
C_ C_ 0.834613 0.316628 0.254472 0.6875
C_ C_ 0.553702 0.412295 0.286383 -0.11473
C_ C_ 0.782059 0.400569 0.291742 -0.11473
C_ C_ 0.680627 0.352088 0.251501 -0.02249
C_ C_ 0.933876 0.351364 0.255125 -0.02249
C_ C_ 0.732573 0.467531 0.252315 -0.02249
C_ C_ 0.985952 0.463881 0.261412 -0.02249
C_ C_ 0.705173 0.410705 0.289068 -0.11473
C_ C_ 0.969106 0.394801 0.293887 -0.11473
C_ C_ 0.68807 0.373964 0.212477 -0.11473
C_ C_ 0.939073 0.375663 0.219851 -0.11473
C_ C_ 0.691593 0.370529 0.289589 -0.11473
C_ C_ 0.948975 0.362973 0.293808 -0.11473
C_ C_ 0.715065 0.426907 0.250596 -0.02249
C_ C_ 0.970985 0.421928 0.259096 -0.02249
C_ C_ 0.662837 0.312678 0.252405 0.6875
C_ C_ 0.914557 0.316146 0.251916 0.6875
C_ C_ 0.706724 0.408632 0.212314 -0.11473
C_ C_ 0.955494 0.412094 0.222401 -0.11473
C_ C_ 0.685913 0.155343 0.250562 -0.02249
C_ C_ 0.930441 0.157912 0.247083 -0.02249
C_ C_ 0.732657 0.0395418 0.246844 -0.02249
C_ C_ 0.982382 0.0451755 0.238397 -0.02249
C_ C_ 0.697149 0.0880879 0.281447 -0.11473
C_ C_ 0.962371 0.105673 0.281905 -0.11473
C_ C_ 0.698928 0.140569 0.212897 -0.11473
C_ C_ 0.936733 0.138871 0.208863 -0.11473
C_ C_ 0.684037 0.127086 0.285211 -0.11473
C_ C_ 0.945786 0.143993 0.283494 -0.11473
C_ C_ 0.714441 0.0782751 0.245834 -0.02249
C_ C_ 0.964818 0.0836631 0.244047 -0.02249
C_ C_ 0.668328 0.194302 0.250831 0.6875
C_ C_ 0.909031 0.193451 0.250255 0.6875
C_ C_ 0.716215 0.105425 0.212309 -0.11473
C_ C_ 0.950002 0.0995821 0.209379 -0.11473
C_ C_ 0.567398 0.152755 0.255307 -0.02249
C_ C_ 0.814475 0.156939 0.251368 -0.02249
C_ C_ 0.514383 0.040952 0.262393 -0.02249
C_ C_ 0.766061 0.0398124 0.248799 -0.02249
C_ C_ 0.55212 0.0870401 0.227139 -0.11473
C_ C_ 0.798801 0.0929989 0.213362 -0.11473
C_ C_ 0.549927 0.145279 0.290579 -0.11473
C_ C_ 0.803289 0.139417 0.289153 -0.11473
C_ C_ 0.567399 0.123987 0.223076 -0.11473
C_ C_ 0.814149 0.132356 0.214152 -0.11473
C_ C_ 0.53286 0.0802811 0.261922 -0.02249
C_ C_ 0.782184 0.0808731 0.248543 -0.02249
C_ C_ 0.588116 0.188669 0.25427 0.6875
C_ C_ 0.83284 0.196128 0.25256 0.6875
C_ C_ 0.531265 0.11073 0.29318 -0.11473
C_ C_ 0.785086 0.104757 0.285352 -0.11473
C_ C_ 0.605165 0.249628 0.382219 0.17695
C_ C_ 0.883495 0.219808 0.3783 0.17695
C_ C_ 0.658374 0.247019 0.37669 0.17695
C_ C_ 0.875439 0.29262 0.374682 0.17695
C_ C_ 0.662372 0.245064 0.422062 -0.11473
C_ C_ 0.875711 0.296527 0.417858 -0.11473
C_ C_ 0.636424 0.242321 0.446826 0.23465
C_ C_ 0.876552 0.260531 0.44307 0.23465
C_ C_ 0.607436 0.245772 0.427255 -0.11473
C_ C_ 0.881334 0.221574 0.422621 -0.11473
C_ C_ 0.624346 0.218064 0.123135 0.17695
C_ C_ 0.846228 0.267016 0.126695 0.17695
C_ C_ 0.623523 0.28985 0.131403 0.17695
C_ C_ 0.895134 0.238826 0.124239 0.17695
C_ C_ 0.622225 0.293877 0.0876305 -0.11473
C_ C_ 0.893852 0.239756 0.0796981 -0.11473
C_ C_ 0.623961 0.25814 0.0603323 0.23465
C_ C_ 0.869079 0.255998 0.0582853 0.23465
C_ C_ 0.621069 0.220297 0.0791871 -0.11473
C_ C_ 0.84521 0.270582 0.0809969 -0.11473
C_ C_ 0.532337 0.498291 0.251072 0.05793
C_ C_ 0.781085 0.50359 0.252623 0.05793
C_ C_ 0.718308 1.00162162 0.242581 0.05793
C_ C_ 0.96909 1.00645841 0.231095 0.05793
Br Br 0.574944 0.49883 0.242587 -0.17191
Br Br 0.824608 0.504917 0.259348 -0.17191
Br Br 0.676281 0.00247942 0.225634 -0.17191
Br Br 0.925487 0.00487326 0.228079 -0.17191
N_ N_ 0.630602 0.249472 0.35853 -0.272
N_ N_ 0.879139 0.255188 0.356019 -0.272
N_ N_ 0.640319 0.244238 0.490614 -0.12501
N_ N_ 0.87711 0.263987 0.488236 -0.12501
N_ N_ 0.625783 0.251608 0.148295 -0.272
N_ N_ 0.871023 0.253158 0.147506 -0.272
N_ N_ 0.62455 0.263048 0.0146544 -0.12501
N_ N_ 0.869371 0.258753 0.0125363 -0.12501
O_ O_ 0.596166 0.296591 0.220502 -0.60745
O_ O_ 0.843168 0.305036 0.219013 -0.60745
O_ O_ 0.595988 0.295924 0.289278 -0.60745
O_ O_ 0.848659 0.302399 0.287721 -0.60745
O_ O_ 0.656572 0.295863 0.286702 -0.60745
O_ O_ 0.906012 0.299886 0.285354 -0.60745
O_ O_ 0.654879 0.296416 0.218108 -0.60745
O_ O_ 0.902786 0.304479 0.217227 -0.60745
O_ O_ 0.658527 0.210759 0.284038 -0.60745
O_ O_ 0.902977 0.208167 0.287011 -0.60745
O_ O_ 0.661329 0.212268 0.215035 -0.60745
O_ O_ 0.901894 0.214865 0.217724 -0.60745
O_ O_ 0.596915 0.204149 0.220197 -0.60745
O_ O_ 0.842464 0.211284 0.219246 -0.60745
O_ O_ 0.596269 0.206121 0.288086 -0.60745
O_ O_ 0.839857 0.210236 0.288203 -0.60745
Zn Zn 0.62472 0.244831 0.78634 0.9476
Zn Zn 0.877671 0.249638 0.788098 0.9476
Zn Zn 0.623736 0.247022 0.718025 0.9476
Zn Zn 0.875368 0.250256 0.715922 0.9476
H_ H_ 0.528899 0.407707 0.683251 0.10932
H_ H_ 0.78533 0.41672 0.686914 0.10932
H_ H_ 0.574578 0.359484 0.814453 0.10932
H_ H_ 0.815834 0.354737 0.823867 0.10932
H_ H_ 0.552987 0.336983 0.684453 0.10932
H_ H_ 0.818891 0.356346 0.689574 0.10932
H_ H_ 0.545244 0.423882 0.814084 0.10932
H_ H_ 0.787581 0.419665 0.82121 0.10932
H_ H_ 0.713272 0.415375 0.817467 0.10932
H_ H_ 0.977195 0.397719 0.821165 0.10932
H_ H_ 0.696475 0.336956 0.68655 0.10932
H_ H_ 0.926693 0.359937 0.68952 0.10932
H_ H_ 0.672168 0.359299 0.818041 0.10932
H_ H_ 0.953215 0.338053 0.81943 0.10932
H_ H_ 0.729795 0.396371 0.688703 0.10932
H_ H_ 0.954683 0.425995 0.69223 0.10932
H_ H_ 0.724485 0.0868754 0.817905 0.10932
H_ H_ 0.963362 0.075653 0.811287 0.10932
H_ H_ 0.675379 0.133445 0.688631 0.10932
H_ H_ 0.931935 0.143117 0.680581 0.10932
H_ H_ 0.693306 0.150709 0.820018 0.10932
H_ H_ 0.938668 0.144526 0.815607 0.10932
H_ H_ 0.706481 0.0740642 0.686148 0.10932
H_ H_ 0.960978 0.0773841 0.678172 0.10932
H_ H_ 0.529154 0.076062 0.686742 0.10932
H_ H_ 0.794084 0.0711395 0.686447 0.10932
H_ H_ 0.58005 0.125485 0.814473 0.10932
H_ H_ 0.808578 0.152657 0.815771 0.10932
H_ H_ 0.55828 0.143638 0.68334 0.10932
H_ H_ 0.828749 0.130527 0.685343 0.10932
H_ H_ 0.55173 0.0621483 0.813905 0.10932
H_ H_ 0.78093 0.0872444 0.819006 0.10932
H_ H_ 0.610041 0.310681 0.865109 0.10932
H_ H_ 0.893054 0.185199 0.855545 0.10932
H_ H_ 0.630352 0.183527 0.857068 0.10932
H_ H_ 0.865943 0.307921 0.868101 0.10932
H_ H_ 0.635604 0.179169 0.936573 0.10932
H_ H_ 0.857204 0.296743 0.945359 0.10932
H_ H_ 0.604236 0.302607 0.944374 0.10932
H_ H_ 0.893099 0.174681 0.932864 0.10932
H_ H_ 0.619216 0.311228 0.644398 0.10932
H_ H_ 0.917516 0.239986 0.642293 0.10932
H_ H_ 0.631937 0.182261 0.636995 0.10932
H_ H_ 0.821074 0.248703 0.639604 0.10932
H_ H_ 0.63743 0.189293 0.558952 0.10932
H_ H_ 0.821527 0.250399 0.560534 0.10932
H_ H_ 0.614156 0.317171 0.566748 0.10932
H_ H_ 0.917177 0.239762 0.561019 0.10932
C_ C_ 0.563613 0.340868 0.751198 -0.02249
C_ C_ 0.816117 0.346653 0.75628 -0.02249
C_ C_ 0.518264 0.459268 0.744254 -0.02249
C_ C_ 0.763305 0.460649 0.75232 -0.02249
C_ C_ 0.535707 0.394191 0.711844 -0.11473
C_ C_ 0.789146 0.400369 0.716608 -0.11473
C_ C_ 0.56168 0.365693 0.786402 -0.11473
C_ C_ 0.806496 0.365066 0.79266 -0.11473
C_ C_ 0.550695 0.35484 0.713312 -0.11473
C_ C_ 0.805881 0.363984 0.718356 -0.11473
C_ C_ 0.532802 0.418341 0.748786 -0.02249
C_ C_ 0.780217 0.419412 0.754616 -0.02249
C_ C_ 0.58582 0.304975 0.752165 0.6875
C_ C_ 0.838669 0.312545 0.754608 0.6875
C_ C_ 0.546288 0.403814 0.785574 -0.11473
C_ C_ 0.789623 0.402259 0.792698 -0.11473
C_ C_ 0.682698 0.341111 0.75324 -0.02249
C_ C_ 0.938316 0.34135 0.751897 -0.02249
C_ C_ 0.730296 0.459348 0.751875 -0.02249
C_ C_ 0.983608 0.459953 0.757198 -0.02249
C_ C_ 0.70291 0.402023 0.788185 -0.11473
C_ C_ 0.963874 0.39449 0.792561 -0.11473
C_ C_ 0.69895 0.353813 0.716956 -0.11473
C_ C_ 0.940978 0.367372 0.716156 -0.11473
C_ C_ 0.683837 0.367475 0.788645 -0.11473
C_ C_ 0.95188 0.35617 0.79118 -0.11473
C_ C_ 0.713962 0.418219 0.74943 -0.02249
C_ C_ 0.967087 0.420789 0.757034 -0.02249
C_ C_ 0.664546 0.304124 0.750914 0.6875
C_ C_ 0.917982 0.30609 0.749708 0.6875
C_ C_ 0.716464 0.390351 0.716454 -0.11473
C_ C_ 0.953086 0.407166 0.718584 -0.11473
C_ C_ 0.682633 0.14707 0.752987 -0.02249
C_ C_ 0.93482 0.150601 0.747997 -0.02249
C_ C_ 0.734806 0.0353619 0.752432 -0.02249
C_ C_ 0.98252 0.0321503 0.745565 -0.02249
C_ C_ 0.714057 0.0983175 0.789581 -0.11473
C_ C_ 0.960576 0.0940054 0.784291 -0.11473
C_ C_ 0.683454 0.122442 0.718023 -0.11473
C_ C_ 0.940103 0.131897 0.70967 -0.11473
C_ C_ 0.697676 0.134796 0.790701 -0.11473
C_ C_ 0.944442 0.129817 0.785586 -0.11473
C_ C_ 0.719064 0.076217 0.751391 -0.02249
C_ C_ 0.967163 0.074011 0.745478 -0.02249
C_ C_ 0.666535 0.186707 0.753349 0.6875
C_ C_ 0.91657 0.190323 0.748323 0.6875
C_ C_ 0.701906 0.0875509 0.71642 -0.11473
C_ C_ 0.956739 0.0938048 0.708983 -0.11473
C_ C_ 0.573224 0.140214 0.747662 -0.02249
C_ C_ 0.81857 0.149848 0.750581 -0.02249
C_ C_ 0.515997 0.0282233 0.754438 -0.02249
C_ C_ 0.765869 0.0347837 0.750894 -0.02249
C_ C_ 0.541786 0.0879934 0.713457 -0.11473
C_ C_ 0.795575 0.0910598 0.713613 -0.11473
C_ C_ 0.570356 0.11649 0.785892 -0.11473
C_ C_ 0.804239 0.135662 0.787351 -0.11473
C_ C_ 0.559546 0.123538 0.711077 -0.11473
C_ C_ 0.814219 0.125846 0.712729 -0.11473
C_ C_ 0.534891 0.0690166 0.752223 -0.02249
C_ C_ 0.783972 0.0755755 0.751173 -0.02249
C_ C_ 0.591461 0.17885 0.748741 0.6875
C_ C_ 0.83954 0.187629 0.751872 0.6875
C_ C_ 0.553179 0.08109 0.787026 -0.11473
C_ C_ 0.789871 0.0971054 0.78886 -0.11473
C_ C_ 0.612635 0.28091 0.880052 0.17695
C_ C_ 0.88736 0.209846 0.87607 0.17695
C_ C_ 0.628354 0.210714 0.8748 0.17695
C_ C_ 0.871043 0.278858 0.881961 0.17695
C_ C_ 0.627698 0.206868 0.920222 -0.11473
C_ C_ 0.867633 0.272572 0.925559 -0.11473
C_ C_ 0.618666 0.240783 0.943756 0.23465
C_ C_ 0.876245 0.234946 0.944723 0.23465
C_ C_ 0.610982 0.278245 0.924392 -0.11473
C_ C_ 0.885919 0.204251 0.919778 -0.11473
C_ C_ 0.620764 0.284223 0.62584 0.17695
C_ C_ 0.896934 0.24222 0.623129 0.17695
C_ C_ 0.632253 0.212596 0.621675 0.17695
C_ C_ 0.842701 0.247422 0.623367 0.17695
C_ C_ 0.632977 0.21539 0.57738 -0.11473
C_ C_ 0.842635 0.246262 0.578897 -0.11473
C_ C_ 0.624663 0.252598 0.558274 0.23465
C_ C_ 0.8686 0.242733 0.557137 0.23465
C_ C_ 0.618831 0.286226 0.582793 -0.11473
C_ C_ 0.896498 0.239778 0.57807 -0.11473
C_ C_ 0.536061 0.495523 0.744339 0.05793
C_ C_ 0.778912 0.497313 0.74642 0.05793
C_ C_ 0.718436 -0.0013030000000000541 0.760482 0.05793
C_ C_ 0.966482 -0.00585800000000003 0.753256 0.05793
Br Br 0.578672 0.494425 0.738706 -0.17191
Br Br 0.823196 0.494923 0.741838 -0.17191
Br Br 0.675047 0.000684858 0.767647 -0.17191
Br Br 0.922458 -0.004425000000000012 0.753591 -0.17191
N_ N_ 0.622097 0.248096 0.85677 -0.272
N_ N_ 0.881045 0.246827 0.857944 -0.272
N_ N_ 0.614946 0.235771 0.989094 -0.12501
N_ N_ 0.876732 0.229877 0.988877 -0.12501
N_ N_ 0.624726 0.248024 0.644573 -0.272
N_ N_ 0.870248 0.243231 0.643581 -0.272
N_ N_ 0.620115 0.255812 0.514948 -0.12501
N_ N_ 0.866086 0.238273 0.51273 -0.12501
O_ O_ 0.593744 0.290849 0.717549 -0.60745
O_ O_ 0.846894 0.297832 0.720408 -0.60745
O_ O_ 0.590134 0.283938 0.785094 -0.60745
O_ O_ 0.844079 0.292112 0.788662 -0.60745
O_ O_ 0.653018 0.290078 0.784809 -0.60745
O_ O_ 0.906895 0.29244 0.78298 -0.60745
O_ O_ 0.652641 0.292314 0.716624 -0.60745
O_ O_ 0.909969 0.289441 0.715459 -0.60745
O_ O_ 0.659435 0.204318 0.787455 -0.60745
O_ O_ 0.909664 0.206058 0.78466 -0.60745
O_ O_ 0.655032 0.202198 0.719229 -0.60745
O_ O_ 0.905778 0.205402 0.714461 -0.60745
O_ O_ 0.59845 0.19713 0.714572 -0.60745
O_ O_ 0.844085 0.209259 0.718977 -0.60745
O_ O_ 0.594637 0.197622 0.784581 -0.60745
O_ O_ 0.850664 0.200021 0.787849 -0.60745
Zn Zn 0.624628 0.755045 0.293641 0.9476
Zn Zn 0.880438 0.758012 0.285878 0.9476
Zn Zn 0.621112 0.760106 0.222754 0.9476
Zn Zn 0.876133 0.754052 0.214607 0.9476
H_ H_ 0.527854 0.92161 0.193482 0.10932
H_ H_ 0.776408 0.910892 0.180259 0.10932
H_ H_ 0.555563 0.854283 0.327823 0.10932
H_ H_ 0.810106 0.851113 0.315168 0.10932
H_ H_ 0.563395 0.861064 0.193986 0.10932
H_ H_ 0.81226 0.856605 0.178699 0.10932
H_ H_ 0.537419 0.92497 0.328972 0.10932
H_ H_ 0.778766 0.915701 0.316235 0.10932
H_ H_ 0.714086 0.930387 0.317755 0.10932
H_ H_ 0.97454 0.925445 0.301575 0.10932
H_ H_ 0.681583 0.858727 0.185936 0.10932
H_ H_ 0.932358 0.862728 0.172241 0.10932
H_ H_ 0.682956 0.862666 0.32056 0.10932
H_ H_ 0.953032 0.854275 0.308618 0.10932
H_ H_ 0.71681 0.91936 0.185136 0.10932
H_ H_ 0.957986 0.928758 0.170068 0.10932
H_ H_ 0.711067 0.582734 0.321054 0.10932
H_ H_ 0.96406 0.587025 0.323203 0.10932
H_ H_ 0.686874 0.659637 0.189814 0.10932
H_ H_ 0.934641 0.646695 0.187601 0.10932
H_ H_ 0.687586 0.647401 0.327361 0.10932
H_ H_ 0.938884 0.655779 0.31948 0.10932
H_ H_ 0.706488 0.588127 0.185164 0.10932
H_ H_ 0.959402 0.575697 0.188053 0.10932
H_ H_ 0.533661 0.587893 0.191897 0.10932
H_ H_ 0.779706 0.587718 0.187882 0.10932
H_ H_ 0.575844 0.641829 0.32476 0.10932
H_ H_ 0.822695 0.638793 0.317753 0.10932
H_ H_ 0.557182 0.650595 0.191649 0.10932
H_ H_ 0.810322 0.653737 0.18433 0.10932
H_ H_ 0.547111 0.578183 0.326698 0.10932
H_ H_ 0.78749 0.583918 0.318754 0.10932
H_ H_ 0.628245 0.693568 0.369739 0.10932
H_ H_ 0.893663 0.825499 0.358296 0.10932
H_ H_ 0.61253 0.823446 0.364493 0.10932
H_ H_ 0.881799 0.695947 0.359005 0.10932
H_ H_ 0.608224 0.824771 0.440217 0.10932
H_ H_ 0.881888 0.693815 0.434569 0.10932
H_ H_ 0.627156 0.695344 0.448899 0.10932
H_ H_ 0.885351 0.827811 0.4354 0.10932
H_ H_ 0.623267 0.691306 0.161931 0.10932
H_ H_ 0.88104 0.689967 0.132583 0.10932
H_ H_ 0.619752 0.819235 0.140748 0.10932
H_ H_ 0.875104 0.820742 0.143675 0.10932
H_ H_ 0.62022 0.808443 0.0634567 0.10932
H_ H_ 0.867562 0.824655 0.0662137 0.10932
H_ H_ 0.631057 0.675483 0.0853715 0.10932
H_ H_ 0.876858 0.692911 0.0590439 0.10932
C_ C_ 0.562959 0.8544 0.260001 -0.02249
C_ C_ 0.81552 0.848599 0.247103 -0.02249
C_ C_ 0.512528 0.96684 0.258676 -0.02249
C_ C_ 0.764984 0.962702 0.248511 -0.02249
C_ C_ 0.538074 0.910461 0.223422 -0.11473
C_ C_ 0.789308 0.905593 0.209126 -0.11473
C_ C_ 0.551593 0.869407 0.298909 -0.11473
C_ C_ 0.805589 0.867414 0.285533 -0.11473
C_ C_ 0.556483 0.87619 0.222696 -0.11473
C_ C_ 0.805638 0.868487 0.20921 -0.11473
C_ C_ 0.529525 0.92723 0.262045 -0.02249
C_ C_ 0.781849 0.924138 0.247226 -0.02249
C_ C_ 0.584691 0.818103 0.256742 0.6875
C_ C_ 0.836419 0.811765 0.25021 0.6875
C_ C_ 0.539749 0.909663 0.300495 -0.11473
C_ C_ 0.787764 0.904259 0.287299 -0.11473
C_ C_ 0.682572 0.853127 0.25513 -0.02249
C_ C_ 0.937463 0.85554 0.241861 -0.02249
C_ C_ 0.734625 0.964039 0.246581 -0.02249
C_ C_ 0.985418 0.968404 0.233074 -0.02249
C_ C_ 0.707252 0.911813 0.289511 -0.11473
C_ C_ 0.967752 0.908484 0.274864 -0.11473
C_ C_ 0.688901 0.872468 0.216034 -0.11473
C_ C_ 0.940117 0.87556 0.202156 -0.11473
C_ C_ 0.692485 0.872586 0.291303 -0.11473
C_ C_ 0.952665 0.870131 0.278191 -0.11473
C_ C_ 0.718143 0.925464 0.250727 -0.02249
C_ C_ 0.969695 0.92976 0.236088 -0.02249
C_ C_ 0.665507 0.814107 0.256477 0.6875
C_ C_ 0.916601 0.818716 0.245302 0.6875
C_ C_ 0.709093 0.907275 0.214139 -0.11473
C_ C_ 0.955495 0.91358 0.199852 -0.11473
C_ C_ 0.684689 0.660034 0.258566 -0.02249
C_ C_ 0.934816 0.654926 0.252816 -0.02249
C_ C_ 0.734601 0.543694 0.25186 -0.02249
C_ C_ 0.983065 0.538959 0.261229 -0.02249
C_ C_ 0.709233 0.600383 0.291702 -0.11473
C_ C_ 0.961863 0.601681 0.292874 -0.11473
C_ C_ 0.692118 0.642226 0.21967 -0.11473
C_ C_ 0.942775 0.632947 0.216201 -0.11473
C_ C_ 0.694977 0.638643 0.294848 -0.11473
C_ C_ 0.94405 0.638511 0.290482 -0.11473
C_ C_ 0.717084 0.584216 0.252667 -0.02249
C_ C_ 0.96629 0.577461 0.256921 -0.02249
C_ C_ 0.662045 0.694975 0.25927 0.6875
C_ C_ 0.916665 0.694152 0.25186 0.6875
C_ C_ 0.707336 0.60509 0.216105 -0.11473
C_ C_ 0.956484 0.593567 0.217738 -0.11473
C_ C_ 0.567125 0.654885 0.259376 -0.02249
C_ C_ 0.817426 0.656707 0.252823 -0.02249
C_ C_ 0.518544 0.535333 0.26007 -0.02249
C_ C_ 0.765837 0.543334 0.251645 -0.02249
C_ C_ 0.541681 0.598181 0.22288 -0.11473
C_ C_ 0.788799 0.601489 0.215167 -0.11473
C_ C_ 0.566644 0.631225 0.296192 -0.11473
C_ C_ 0.809642 0.635271 0.290739 -0.11473
C_ C_ 0.555004 0.636333 0.221478 -0.11473
C_ C_ 0.805965 0.638989 0.215115 -0.11473
C_ C_ 0.536059 0.575775 0.259202 -0.02249
C_ C_ 0.781167 0.583992 0.251881 -0.02249
C_ C_ 0.5844 0.695894 0.258743 0.6875
C_ C_ 0.838032 0.695151 0.253489 0.6875
C_ C_ 0.548958 0.593316 0.296994 -0.11473
C_ C_ 0.792219 0.600255 0.289671 -0.11473
C_ C_ 0.625519 0.722218 0.385366 0.17695
C_ C_ 0.886611 0.797721 0.375941 0.17695
C_ C_ 0.615996 0.794298 0.382126 0.17695
C_ C_ 0.883276 0.724812 0.375202 0.17695
C_ C_ 0.615827 0.797115 0.425991 -0.11473
C_ C_ 0.881949 0.724428 0.419357 -0.11473
C_ C_ 0.619109 0.761263 0.450904 0.23465
C_ C_ 0.881386 0.760511 0.443085 0.23465
C_ C_ 0.623528 0.723527 0.429695 -0.11473
C_ C_ 0.883492 0.798187 0.419079 -0.11473
C_ C_ 0.621409 0.715962 0.138547 0.17695
C_ C_ 0.878446 0.719028 0.118633 0.17695
C_ C_ 0.622834 0.788265 0.127556 0.17695
C_ C_ 0.876302 0.793436 0.12501 0.17695
C_ C_ 0.625896 0.782709 0.0850938 -0.11473
C_ C_ 0.873856 0.796557 0.0812042 -0.11473
C_ C_ 0.626862 0.742863 0.0680548 0.23465
C_ C_ 0.875143 0.75987 0.0557517 0.23465
C_ C_ 0.626733 0.708295 0.0957628 -0.11473
C_ C_ 0.874256 0.720873 0.0765417 -0.11473
C_ C_ 0.529378 1.00294624 0.264029 0.05793
C_ C_ 0.782231 1.00155329 0.248038 0.05793
C_ C_ 0.717559 0.506654 0.2548 0.05793
C_ C_ 0.96956 0.500116 0.26498 0.05793
Br Br 0.570342 1.00197316 0.278944 -0.17191
Br Br 0.825069 0.998364 0.24134 -0.17191
Br Br 0.674669 0.50778 0.242079 -0.17191
Br Br 0.929674 0.496822 0.287281 -0.17191
N_ N_ 0.621559 0.757527 0.363445 -0.272
N_ N_ 0.885578 0.761586 0.355814 -0.272
N_ N_ 0.614912 0.763532 0.49583 -0.12501
N_ N_ 0.874689 0.76366 0.48615 -0.12501
N_ N_ 0.622564 0.755341 0.154256 -0.272
N_ N_ 0.877896 0.755257 0.143038 -0.272
N_ N_ 0.628216 0.734979 0.023095 -0.12501
N_ N_ 0.870772 0.765957 0.0104332 -0.12501
O_ O_ 0.596268 0.807117 0.222179 -0.60745
O_ O_ 0.845716 0.797526 0.215965 -0.60745
O_ O_ 0.591639 0.797606 0.289126 -0.60745
O_ O_ 0.846748 0.79943 0.28569 -0.60745
O_ O_ 0.652525 0.804196 0.290866 -0.60745
O_ O_ 0.909444 0.806528 0.28172 -0.60745
O_ O_ 0.657952 0.796135 0.222311 -0.60745
O_ O_ 0.907091 0.798147 0.2122 -0.60745
O_ O_ 0.655301 0.7123 0.294403 -0.60745
O_ O_ 0.912583 0.714526 0.28499 -0.60745
O_ O_ 0.649186 0.707793 0.225327 -0.60745
O_ O_ 0.908786 0.712012 0.217409 -0.60745
O_ O_ 0.588687 0.715056 0.225521 -0.60745
O_ O_ 0.848621 0.708882 0.218604 -0.60745
O_ O_ 0.595298 0.709768 0.293307 -0.60745
O_ O_ 0.850311 0.708065 0.286546 -0.60745
Zn Zn 0.626044 0.745688 0.792375 0.9476
Zn Zn 0.871155 0.742478 0.783307 0.9476
Zn Zn 0.626324 0.749495 0.722572 0.9476
Zn Zn 0.871821 0.745654 0.71399 0.9476
H_ H_ 0.525834 0.907621 0.689641 0.10932
H_ H_ 0.791436 0.926776 0.689741 0.10932
H_ H_ 0.571992 0.853194 0.817947 0.10932
H_ H_ 0.80233 0.836411 0.819453 0.10932
H_ H_ 0.552887 0.838191 0.687219 0.10932
H_ H_ 0.817952 0.859403 0.68605 0.10932
H_ H_ 0.536791 0.910289 0.820109 0.10932
H_ H_ 0.77474 0.904637 0.817986 0.10932
H_ H_ 0.697672 0.928202 0.823095 0.10932
H_ H_ 0.946922 0.919684 0.812659 0.10932
H_ H_ 0.698715 0.840202 0.695545 0.10932
H_ H_ 0.936038 0.844241 0.680329 0.10932
H_ H_ 0.67442 0.861869 0.827041 0.10932
H_ H_ 0.914765 0.860278 0.809866 0.10932
H_ H_ 0.728886 0.905119 0.695575 0.10932
H_ H_ 0.963095 0.910009 0.682131 0.10932
H_ H_ 0.712058 0.574639 0.81498 0.10932
H_ H_ 0.977829 0.594805 0.814958 0.10932
H_ H_ 0.691208 0.655359 0.686589 0.10932
H_ H_ 0.915816 0.620753 0.690061 0.10932
H_ H_ 0.681532 0.635214 0.821634 0.10932
H_ H_ 0.951061 0.662386 0.81179 0.10932
H_ H_ 0.714123 0.585074 0.680333 0.10932
H_ H_ 0.94796 0.560136 0.695914 0.10932
H_ H_ 0.532928 0.582086 0.680033 0.10932
H_ H_ 0.781617 0.580165 0.674583 0.10932
H_ H_ 0.575786 0.633596 0.815009 0.10932
H_ H_ 0.80837 0.643652 0.809565 0.10932
H_ H_ 0.552382 0.656129 0.685795 0.10932
H_ H_ 0.814572 0.642663 0.676677 0.10932
H_ H_ 0.554024 0.565034 0.809953 0.10932
H_ H_ 0.779552 0.57978 0.807917 0.10932
H_ H_ 0.632979 0.685977 0.873312 0.10932
H_ H_ 0.879243 0.678866 0.85435 0.10932
H_ H_ 0.623836 0.817136 0.862911 0.10932
H_ H_ 0.866972 0.807679 0.857904 0.10932
H_ H_ 0.625812 0.821748 0.942339 0.10932
H_ H_ 0.867468 0.806434 0.940187 0.10932
H_ H_ 0.628554 0.691231 0.951159 0.10932
H_ H_ 0.879131 0.673006 0.933229 0.10932
H_ H_ 0.627439 0.680396 0.650687 0.10932
H_ H_ 0.871727 0.807144 0.634852 0.10932
H_ H_ 0.624848 0.813026 0.643764 0.10932
H_ H_ 0.872061 0.677767 0.641911 0.10932
H_ H_ 0.626215 0.810701 0.568656 0.10932
H_ H_ 0.876026 0.672158 0.566846 0.10932
H_ H_ 0.621115 0.681406 0.571682 0.10932
H_ H_ 0.875991 0.804011 0.559133 0.10932
C_ C_ 0.566811 0.844238 0.751782 -0.02249
C_ C_ 0.812841 0.843182 0.751856 -0.02249
C_ C_ 0.513558 0.953985 0.754312 -0.02249
C_ C_ 0.766004 0.959304 0.756662 -0.02249
C_ C_ 0.533983 0.892997 0.716841 -0.11473
C_ C_ 0.790775 0.905228 0.716881 -0.11473
C_ C_ 0.56071 0.862991 0.790396 -0.11473
C_ C_ 0.798786 0.854604 0.789685 -0.11473
C_ C_ 0.551597 0.856066 0.715798 -0.11473
C_ C_ 0.807996 0.868272 0.716587 -0.11473
C_ C_ 0.52931 0.913783 0.754285 -0.02249
C_ C_ 0.781628 0.919019 0.754807 -0.02249
C_ C_ 0.587163 0.806664 0.753897 0.6875
C_ C_ 0.832715 0.805779 0.751475 0.6875
C_ C_ 0.544301 0.899347 0.790072 -0.11473
C_ C_ 0.782642 0.892252 0.789234 -0.11473
C_ C_ 0.683044 0.847423 0.760595 -0.02249
C_ C_ 0.927336 0.841911 0.746506 -0.02249
C_ C_ 0.734103 0.960794 0.760207 -0.02249
C_ C_ 0.979349 0.955806 0.747854 -0.02249
C_ C_ 0.697645 0.90952 0.793811 -0.11473
C_ C_ 0.947848 0.900525 0.783474 -0.11473
C_ C_ 0.700419 0.858352 0.723915 -0.11473
C_ C_ 0.939585 0.858427 0.710014 -0.11473
C_ C_ 0.683865 0.872001 0.796962 -0.11473
C_ C_ 0.93016 0.865661 0.782606 -0.11473
C_ C_ 0.716 0.920482 0.759251 -0.02249
C_ C_ 0.961506 0.916185 0.747156 -0.02249
C_ C_ 0.665332 0.807041 0.759984 0.6875
C_ C_ 0.908239 0.803601 0.745354 0.6875
C_ C_ 0.716247 0.895198 0.723046 -0.11473
C_ C_ 0.956249 0.895178 0.710623 -0.11473
C_ C_ 0.684745 0.650075 0.753329 -0.02249
C_ C_ 0.927756 0.644933 0.75288 -0.02249
C_ C_ 0.730528 0.533984 0.744014 -0.02249
C_ C_ 0.983845 0.534448 0.756123 -0.02249
C_ C_ 0.705117 0.589143 0.785214 -0.11473
C_ C_ 0.965004 0.60218 0.789314 -0.11473
C_ C_ 0.693009 0.634928 0.713053 -0.11473
C_ C_ 0.928931 0.617422 0.718178 -0.11473
C_ C_ 0.690214 0.626258 0.789516 -0.11473
C_ C_ 0.946787 0.637836 0.788922 -0.11473
C_ C_ 0.714049 0.573538 0.746185 -0.02249
C_ C_ 0.965166 0.574447 0.754387 -0.02249
C_ C_ 0.664953 0.686366 0.757196 0.6875
C_ C_ 0.909644 0.683182 0.750828 0.6875
C_ C_ 0.708322 0.59677 0.7098 -0.11473
C_ C_ 0.94607 0.581945 0.720818 -0.11473
C_ C_ 0.565427 0.65093 0.750498 -0.02249
C_ C_ 0.812627 0.648613 0.743582 -0.02249
C_ C_ 0.521088 0.533714 0.747094 -0.02249
C_ C_ 0.762058 0.534584 0.740666 -0.02249
C_ C_ 0.539135 0.597648 0.709959 -0.11473
C_ C_ 0.790166 0.591069 0.704552 -0.11473
C_ C_ 0.565902 0.623684 0.785266 -0.11473
C_ C_ 0.803188 0.629329 0.780456 -0.11473
C_ C_ 0.554234 0.635354 0.711249 -0.11473
C_ C_ 0.805867 0.628398 0.705467 -0.11473
C_ C_ 0.538626 0.572859 0.745618 -0.02249
C_ C_ 0.779933 0.573801 0.741474 -0.02249
C_ C_ 0.586161 0.686951 0.752419 0.6875
C_ C_ 0.83238 0.685276 0.748041 0.6875
C_ C_ 0.552756 0.585796 0.783459 -0.11473
C_ C_ 0.788664 0.592928 0.780773 -0.11473
C_ C_ 0.630421 0.71625 0.886286 0.17695
C_ C_ 0.878283 0.706108 0.873189 0.17695
C_ C_ 0.627836 0.789394 0.882216 0.17695
C_ C_ 0.869452 0.777691 0.875811 0.17695
C_ C_ 0.627194 0.793429 0.925697 -0.11473
C_ C_ 0.872282 0.777538 0.920375 -0.11473
C_ C_ 0.627723 0.757987 0.951 0.23465
C_ C_ 0.872688 0.737959 0.941868 0.23465
C_ C_ 0.629773 0.718474 0.930873 -0.11473
C_ C_ 0.875483 0.702118 0.916517 -0.11473
C_ C_ 0.627945 0.707583 0.632236 0.17695
C_ C_ 0.872653 0.777259 0.619164 0.17695
C_ C_ 0.625464 0.782966 0.629818 0.17695
C_ C_ 0.868899 0.706822 0.623794 0.17695
C_ C_ 0.626175 0.781803 0.586006 -0.11473
C_ C_ 0.872547 0.702634 0.57841 -0.11473
C_ C_ 0.629841 0.743747 0.56535 0.23465
C_ C_ 0.877068 0.737664 0.555351 0.23465
C_ C_ 0.626239 0.708049 0.587418 -0.11473
C_ C_ 0.877402 0.775801 0.575856 -0.11473
C_ C_ 0.530344 -0.009948999999999986 0.750982 0.05793
C_ C_ 0.78186 -0.0026410000000000045 0.754759 0.05793
C_ C_ 0.713522 0.495416 0.746526 0.05793
C_ C_ 0.968106 0.498376 0.760268 0.05793
Br Br 0.573154 -0.010295000000000054 0.749096 -0.17191
Br Br 0.826074 0.993943 0.755499 -0.17191
Br Br 0.670529 0.498021 0.747306 -0.17191
Br Br 0.927279 0.498143 0.784556 -0.17191
N_ N_ 0.627454 0.750697 0.863107 -0.272
N_ N_ 0.87217 0.742031 0.853798 -0.272
N_ N_ 0.632067 0.763459 0.995835 -0.12501
N_ N_ 0.877937 0.737058 0.986864 -0.12501
N_ N_ 0.626314 0.747124 0.653479 -0.272
N_ N_ 0.872805 0.743031 0.643871 -0.272
N_ N_ 0.631586 0.742866 0.520648 -0.12501
N_ N_ 0.881355 0.734731 0.511678 -0.12501
O_ O_ 0.593294 0.786918 0.719483 -0.60745
O_ O_ 0.845126 0.795661 0.717814 -0.60745
O_ O_ 0.601063 0.795292 0.787429 -0.60745
O_ O_ 0.841523 0.789829 0.785504 -0.60745
O_ O_ 0.658684 0.788596 0.793838 -0.60745
O_ O_ 0.901526 0.786412 0.778699 -0.60745
O_ O_ 0.654303 0.79527 0.725724 -0.60745
O_ O_ 0.904235 0.784224 0.710439 -0.60745
O_ O_ 0.656029 0.701095 0.791517 -0.60745
O_ O_ 0.898185 0.694909 0.784978 -0.60745
O_ O_ 0.657502 0.704815 0.723436 -0.60745
O_ O_ 0.900241 0.698231 0.716207 -0.60745
O_ O_ 0.59747 0.702416 0.71969 -0.60745
O_ O_ 0.839497 0.703428 0.715133 -0.60745
O_ O_ 0.592151 0.702467 0.789053 -0.60745
O_ O_ 0.840402 0.698668 0.784149 -0.60745
_cell_length_a 44.444
_cell_length_b 32.3360000049186
_cell_length_c 31.843999878906452
_cell_angle_alpha 89.99799923859553
_cell_angle_beta 91.13600050494348
_cell_angle_gamma 89.9990006550086
_symmetry_space_group_name_H-M         'P 1'
_symmetry_Int_Tables_number            1
loop_
_symmetry_equiv_pos_as_xyz
   'x, y, z'
                         
loop_
_atom_site_label
_atom_site_type_symbol
_atom_site_fract_x 
_atom_site_fract_y
_atom_site_fract_z
_atom_site_charge
Zn Zn 0.127081 0.252336 0.282418 0.9476
Zn Zn 0.372243 0.254475 0.288347 0.9476
Zn Zn 0.12467 0.251699 0.20975 0.9476
Zn Zn 0.373744 0.254394 0.220253 0.9476
H_ H_ 0.0472402 0.435992 0.191689 0.10932
H_ H_ 0.273719 0.410815 0.178597 0.10932
H_ H_ 0.0635622 0.352191 0.321143 0.10932
H_ H_ 0.332598 0.379005 0.307341 0.10932
H_ H_ 0.077979 0.372817 0.189931 0.10932
H_ H_ 0.298969 0.34058 0.186127 0.10932
H_ H_ 0.0383901 0.419128 0.325385 0.10932
H_ H_ 0.304093 0.442469 0.301538 0.10932
H_ H_ 0.230928 0.413474 0.311336 0.10932
H_ H_ 0.462003 0.425521 0.323505 0.10932
H_ H_ 0.175816 0.370223 0.182345 0.10932
H_ H_ 0.435087 0.352521 0.190451 0.10932
H_ H_ 0.199775 0.35253 0.313795 0.10932
H_ H_ 0.425862 0.361858 0.3231 0.10932
H_ H_ 0.211865 0.426121 0.182531 0.10932
H_ H_ 0.465727 0.419188 0.192394 0.10932
H_ H_ 0.211836 0.0887108 0.319771 0.10932
H_ H_ 0.447414 0.0797337 0.316898 0.10932
H_ H_ 0.184847 0.147826 0.179497 0.10932
H_ H_ 0.45504 0.170968 0.194644 0.10932
H_ H_ 0.188052 0.15865 0.311207 0.10932
H_ H_ 0.425265 0.15046 0.319465 0.10932
H_ H_ 0.212908 0.0829317 0.180458 0.10932
H_ H_ 0.477815 0.0994442 0.189975 0.10932
H_ H_ 0.0267757 0.0924726 0.177424 0.10932
H_ H_ 0.292899 0.0735306 0.189439 0.10932
H_ H_ 0.0690114 0.145496 0.31338 0.10932
H_ H_ 0.307424 0.157894 0.319861 0.10932
H_ H_ 0.049809 0.163141 0.181133 0.10932
H_ H_ 0.318852 0.142403 0.188906 0.10932
H_ H_ 0.0478403 0.0746949 0.308665 0.10932
H_ H_ 0.273845 0.0949682 0.321432 0.10932
H_ H_ 0.12363 0.189738 0.355171 0.10932
H_ H_ 0.365549 0.183841 0.359664 0.10932
H_ H_ 0.123883 0.317597 0.358094 0.10932
H_ H_ 0.378107 0.312589 0.36338 0.10932
H_ H_ 0.117853 0.320223 0.432859 0.10932
H_ H_ 0.382797 0.310663 0.442121 0.10932
H_ H_ 0.126774 0.187829 0.434143 0.10932
H_ H_ 0.372966 0.179579 0.438148 0.10932
H_ H_ 0.109914 0.313861 0.141711 0.10932
H_ H_ 0.398822 0.210472 0.143783 0.10932
H_ H_ 0.146549 0.196286 0.132851 0.10932
H_ H_ 0.341018 0.314862 0.144426 0.10932
H_ H_ 0.146244 0.196589 0.0569121 0.10932
H_ H_ 0.34274 0.317693 0.0656586 0.10932
H_ H_ 0.10399 0.319572 0.06334 0.10932
H_ H_ 0.40616 0.219332 0.0668146 0.10932
C_ C_ 0.0716064 0.354709 0.253575 -0.02249
C_ C_ 0.315482 0.353365 0.249995 -0.02249
C_ C_ 0.0176652 0.466395 0.258066 -0.02249
C_ C_ 0.266469 0.468063 0.241348 -0.02249
C_ C_ 0.0492939 0.417036 0.218959 -0.11473
C_ C_ 0.285977 0.402352 0.208685 -0.11473
C_ C_ 0.0610638 0.3708 0.293584 -0.11473
C_ C_ 0.316758 0.382423 0.282427 -0.11473
C_ C_ 0.0656137 0.379085 0.217116 -0.11473
C_ C_ 0.297951 0.360977 0.213383 -0.11473
C_ C_ 0.0354817 0.427507 0.256994 -0.02249
C_ C_ 0.28575 0.42979 0.242187 -0.02249
C_ C_ 0.0878912 0.313991 0.250528 0.6875
C_ C_ 0.331593 0.312252 0.253871 0.6875
C_ C_ 0.0441975 0.406837 0.296531 -0.11473
C_ C_ 0.301317 0.419092 0.278837 -0.11473
C_ C_ 0.18511 0.352427 0.248205 -0.02249
C_ C_ 0.429412 0.353625 0.256945 -0.02249
C_ C_ 0.23544 0.467333 0.245929 -0.02249
C_ C_ 0.48402 0.464236 0.25746 -0.02249
C_ C_ 0.21934 0.40281 0.283088 -0.11473
C_ C_ 0.455008 0.409695 0.293911 -0.11473
C_ C_ 0.187516 0.378214 0.211518 -0.11473
C_ C_ 0.441073 0.368289 0.219458 -0.11473
C_ C_ 0.20143 0.366887 0.283784 -0.11473
C_ C_ 0.436713 0.37333 0.294654 -0.11473
C_ C_ 0.220219 0.426577 0.246954 -0.02249
C_ C_ 0.464386 0.426957 0.256294 -0.02249
C_ C_ 0.164552 0.315925 0.250674 0.6875
C_ C_ 0.410617 0.314412 0.256756 0.6875
C_ C_ 0.206277 0.412779 0.211288 -0.11473
C_ C_ 0.46072 0.403763 0.220896 -0.11473
C_ C_ 0.184059 0.156553 0.244637 -0.02249
C_ C_ 0.435256 0.160342 0.255195 -0.02249
C_ C_ 0.231539 0.0406601 0.252723 -0.02249
C_ C_ 0.482073 0.0439839 0.2555 -0.02249
C_ C_ 0.208053 0.103164 0.288064 -0.11473
C_ C_ 0.453713 0.102599 0.29251 -0.11473
C_ C_ 0.190561 0.133324 0.210045 -0.11473
C_ C_ 0.45047 0.146823 0.218582 -0.11473
C_ C_ 0.195157 0.142591 0.284968 -0.11473
C_ C_ 0.436949 0.139292 0.291679 -0.11473
C_ C_ 0.21399 0.0812326 0.250272 -0.02249
C_ C_ 0.467589 0.0859097 0.25586 -0.02249
C_ C_ 0.164994 0.195146 0.24491 0.6875
C_ C_ 0.416731 0.198359 0.253446 0.6875
C_ C_ 0.204706 0.0960811 0.209939 -0.11473
C_ C_ 0.467981 0.110805 0.219924 -0.11473
C_ C_ 0.0659488 0.156164 0.245782 -0.02249
C_ C_ 0.315858 0.154354 0.254142 -0.02249
C_ C_ 0.0145624 0.0447177 0.244215 -0.02249
C_ C_ 0.262963 0.0398464 0.255794 -0.02249
C_ C_ 0.0359613 0.104255 0.207469 -0.11473
C_ C_ 0.293448 0.0933931 0.217002 -0.11473
C_ C_ 0.0615893 0.133656 0.282556 -0.11473
C_ C_ 0.304037 0.138763 0.29239 -0.11473
C_ C_ 0.0504566 0.143516 0.208495 -0.11473
C_ C_ 0.310314 0.130713 0.217848 -0.11473
C_ C_ 0.0305693 0.0836389 0.246059 -0.02249
C_ C_ 0.280763 0.0796563 0.253898 -0.02249
C_ C_ 0.0861783 0.192966 0.244976 0.6875
C_ C_ 0.33538 0.191671 0.255747 0.6875
C_ C_ 0.0453577 0.0969585 0.282335 -0.11473
C_ C_ 0.283539 0.104706 0.291284 -0.11473
C_ C_ 0.123387 0.218896 0.373729 0.17695
C_ C_ 0.367928 0.212701 0.378386 0.17695
C_ C_ 0.125461 0.289693 0.375077 0.17695
C_ C_ 0.375766 0.284577 0.380666 0.17695
C_ C_ 0.120917 0.289907 0.418861 -0.11473
C_ C_ 0.380959 0.283247 0.424133 -0.11473
C_ C_ 0.118966 0.254075 0.441469 0.23465
C_ C_ 0.378422 0.245236 0.443543 0.23465
C_ C_ 0.123581 0.21758 0.419492 -0.11473
C_ C_ 0.376038 0.209439 0.421145 -0.11473
C_ C_ 0.116751 0.288105 0.122744 0.17695
C_ C_ 0.38679 0.235108 0.125996 0.17695
C_ C_ 0.139964 0.223412 0.1186 0.17695
C_ C_ 0.3559 0.293959 0.12781 0.17695
C_ C_ 0.137311 0.224441 0.0746896 -0.11473
C_ C_ 0.355084 0.29508 0.0836705 -0.11473
C_ C_ 0.125681 0.261049 0.053261 0.23465
C_ C_ 0.370605 0.26582 0.059652 0.23465
C_ C_ 0.115519 0.292351 0.0781761 -0.11473
C_ C_ 0.388888 0.236612 0.082248 -0.11473
C_ C_ 0.0311308 0.506294 0.255892 0.05793
C_ C_ 0.281461 0.506651 0.234534 0.05793
C_ C_ 0.215342 0.00297501 0.245489 0.05793
C_ C_ 0.464609 1.00668014 0.255649 0.05793
Br Br 0.0747871 0.510376 0.255433 -0.17191
Br Br 0.323144 0.51106 0.216233 -0.17191
Br Br 0.171713 0.00420379 0.248306 -0.17191
Br Br 0.419822 1.0114234 0.243053 -0.17191
N_ N_ 0.124022 0.254337 0.353003 -0.272
N_ N_ 0.37137 0.248071 0.3585 -0.272
N_ N_ 0.112278 0.254329 0.485168 -0.12501
N_ N_ 0.380374 0.242119 0.488532 -0.12501
N_ N_ 0.128245 0.253926 0.141345 -0.272
N_ N_ 0.371803 0.26318 0.147569 -0.272
N_ N_ 0.12557 0.264454 0.00886311 -0.12501
N_ N_ 0.369508 0.269448 0.0136497 -0.12501
O_ O_ 0.0957959 0.298617 0.216758 -0.60745
O_ O_ 0.341206 0.295272 0.219515 -0.60745
O_ O_ 0.0948292 0.296092 0.284324 -0.60745
O_ O_ 0.339614 0.298823 0.289849 -0.60745
O_ O_ 0.156959 0.301801 0.285829 -0.60745
O_ O_ 0.401704 0.298765 0.29047 -0.60745
O_ O_ 0.157995 0.296832 0.21754 -0.60745
O_ O_ 0.405478 0.29616 0.222163 -0.60745
O_ O_ 0.158548 0.21154 0.279268 -0.60745
O_ O_ 0.404023 0.212621 0.287205 -0.60745
O_ O_ 0.153998 0.208996 0.210639 -0.60745
O_ O_ 0.406323 0.210616 0.218877 -0.60745
O_ O_ 0.0960301 0.206464 0.210877 -0.60745
O_ O_ 0.34172 0.211175 0.221016 -0.60745
O_ O_ 0.0974308 0.206178 0.279526 -0.60745
O_ O_ 0.342489 0.207697 0.291492 -0.60745
Zn Zn 0.124341 0.24334 0.781795 0.9476
Zn Zn 0.378829 0.248173 0.784407 0.9476
Zn Zn 0.122785 0.24269 0.713431 0.9476
Zn Zn 0.377426 0.245899 0.713571 0.9476
H_ H_ 0.0142149 0.395861 0.689909 0.10932
H_ H_ 0.27556 0.403433 0.680554 0.10932
H_ H_ 0.0804949 0.361965 0.811306 0.10932
H_ H_ 0.313881 0.347353 0.817576 0.10932
H_ H_ 0.0380107 0.326439 0.696444 0.10932
H_ H_ 0.306396 0.339942 0.678621 0.10932
H_ H_ 0.0526786 0.424626 0.814425 0.10932
H_ H_ 0.288251 0.419496 0.8092 0.10932
H_ H_ 0.216395 0.408614 0.81447 0.10932
H_ H_ 0.466099 0.423313 0.811768 0.10932
H_ H_ 0.183284 0.345397 0.681981 0.10932
H_ H_ 0.443104 0.341912 0.685043 0.10932
H_ H_ 0.189786 0.34006 0.81348 0.10932
H_ H_ 0.439164 0.361267 0.818865 0.10932
H_ H_ 0.211256 0.412372 0.681294 0.10932
H_ H_ 0.470776 0.408906 0.67917 0.10932
H_ H_ 0.213215 0.0766563 0.815708 0.10932
H_ H_ 0.465378 0.0765883 0.812501 0.10932
H_ H_ 0.182786 0.139874 0.684158 0.10932
H_ H_ 0.432975 0.139274 0.678745 0.10932
H_ H_ 0.196421 0.150774 0.814465 0.10932
H_ H_ 0.439489 0.143755 0.813235 0.10932
H_ H_ 0.21476 0.0759033 0.685237 0.10932
H_ H_ 0.465053 0.0761523 0.679701 0.10932
H_ H_ 0.0376239 0.0769213 0.675743 0.10932
H_ H_ 0.285098 0.0815651 0.676949 0.10932
H_ H_ 0.0636785 0.136056 0.811088 0.10932
H_ H_ 0.329029 0.131341 0.809769 0.10932
H_ H_ 0.0653288 0.139343 0.678321 0.10932
H_ H_ 0.314637 0.142848 0.678461 0.10932
H_ H_ 0.0373094 0.0685455 0.808055 0.10932
H_ H_ 0.295032 0.0686981 0.811489 0.10932
H_ H_ 0.12618 0.307864 0.855909 0.10932
H_ H_ 0.378641 0.312484 0.861326 0.10932
H_ H_ 0.126575 0.176689 0.853459 0.10932
H_ H_ 0.37052 0.181042 0.858477 0.10932
H_ H_ 0.124325 0.171886 0.929831 0.10932
H_ H_ 0.373735 0.178449 0.93868 0.10932
H_ H_ 0.13788 0.303289 0.935431 0.10932
H_ H_ 0.378621 0.312155 0.93796 0.10932
H_ H_ 0.121243 0.180538 0.631096 0.10932
H_ H_ 0.382484 0.190776 0.631142 0.10932
H_ H_ 0.136719 0.309996 0.646398 0.10932
H_ H_ 0.370675 0.322815 0.645557 0.10932
H_ H_ 0.135965 0.317212 0.568988 0.10932
H_ H_ 0.371024 0.331777 0.567887 0.10932
H_ H_ 0.126647 0.186406 0.554189 0.10932
H_ H_ 0.380109 0.202106 0.551972 0.10932
C_ C_ 0.0650861 0.342725 0.749349 -0.02249
C_ C_ 0.315488 0.338415 0.747574 -0.02249
C_ C_ 0.0153277 0.459097 0.749097 -0.02249
C_ C_ 0.263461 0.454259 0.745275 -0.02249
C_ C_ 0.0313468 0.390559 0.714299 -0.11473
C_ C_ 0.286578 0.391621 0.708054 -0.11473
C_ C_ 0.0673564 0.369709 0.782894 -0.11473
C_ C_ 0.308113 0.361868 0.785341 -0.11473
C_ C_ 0.0458065 0.351308 0.716828 -0.11473
C_ C_ 0.302849 0.355112 0.709889 -0.11473
C_ C_ 0.0324487 0.41778 0.749623 -0.02249
C_ C_ 0.281521 0.414839 0.744193 -0.02249
C_ C_ 0.0864787 0.306176 0.74851 0.6875
C_ C_ 0.336435 0.301993 0.747411 0.6875
C_ C_ 0.0490151 0.4055 0.785743 -0.11473
C_ C_ 0.290729 0.397612 0.783336 -0.11473
C_ C_ 0.183235 0.340674 0.747617 -0.02249
C_ C_ 0.435316 0.346414 0.750275 -0.02249
C_ C_ 0.232777 0.454178 0.748612 -0.02249
C_ C_ 0.486049 0.461199 0.743514 -0.02249
C_ C_ 0.209134 0.396143 0.785353 -0.11473
C_ C_ 0.459703 0.406586 0.785045 -0.11473
C_ C_ 0.190418 0.359775 0.709852 -0.11473
C_ C_ 0.446282 0.359724 0.71236 -0.11473
C_ C_ 0.194949 0.357837 0.78487 -0.11473
C_ C_ 0.443792 0.370064 0.787979 -0.11473
C_ C_ 0.21649 0.415766 0.747695 -0.02249
C_ C_ 0.468067 0.421097 0.746116 -0.02249
C_ C_ 0.164852 0.301593 0.749005 0.6875
C_ C_ 0.416174 0.308637 0.751972 0.6875
C_ C_ 0.208783 0.396042 0.709703 -0.11473
C_ C_ 0.462635 0.396848 0.710321 -0.11473
C_ C_ 0.187882 0.148386 0.748416 -0.02249
C_ C_ 0.437225 0.149832 0.746019 -0.02249
C_ C_ 0.237454 0.0329671 0.750911 -0.02249
C_ C_ 0.484419 0.0316703 0.750718 -0.02249
C_ C_ 0.213438 0.0934525 0.786694 -0.11473
C_ C_ 0.462608 0.0933117 0.784608 -0.11473
C_ C_ 0.193196 0.127446 0.711494 -0.11473
C_ C_ 0.441116 0.12556 0.710699 -0.11473
C_ C_ 0.200271 0.13308 0.786248 -0.11473
C_ C_ 0.446286 0.131497 0.782726 -0.11473
C_ C_ 0.219214 0.0727358 0.748257 -0.02249
C_ C_ 0.46958 0.072436 0.747254 -0.02249
C_ C_ 0.163253 0.181779 0.748634 0.6875
C_ C_ 0.417039 0.187908 0.744169 0.6875
C_ C_ 0.209595 0.0917123 0.711003 -0.11473
C_ C_ 0.457872 0.0894515 0.708923 -0.11473
C_ C_ 0.0671704 0.145045 0.746995 -0.02249
C_ C_ 0.322055 0.144565 0.745738 -0.02249
C_ C_ 0.0140921 0.0296946 0.743167 -0.02249
C_ C_ 0.268392 0.0329661 0.743343 -0.02249
C_ C_ 0.041726 0.0897896 0.706048 -0.11473
C_ C_ 0.291341 0.0943671 0.707169 -0.11473
C_ C_ 0.0583106 0.124402 0.782038 -0.11473
C_ C_ 0.319143 0.120744 0.782572 -0.11473
C_ C_ 0.0585217 0.127672 0.708112 -0.11473
C_ C_ 0.308564 0.129383 0.706876 -0.11473
C_ C_ 0.0322694 0.0699729 0.742275 -0.02249
C_ C_ 0.28522 0.0740963 0.745442 -0.02249
C_ C_ 0.0861928 0.182502 0.748616 0.6875
C_ C_ 0.340014 0.185828 0.746622 0.6875
C_ C_ 0.0403872 0.0875537 0.781283 -0.11473
C_ C_ 0.296742 0.0886869 0.784147 -0.11473
C_ C_ 0.12905 0.277619 0.873907 0.17695
C_ C_ 0.378888 0.282791 0.878005 0.17695
C_ C_ 0.123432 0.205354 0.871294 0.17695
C_ C_ 0.3774 0.20945 0.875495 0.17695
C_ C_ 0.124181 0.202562 0.915215 -0.11473
C_ C_ 0.376727 0.208473 0.920914 -0.11473
C_ C_ 0.127379 0.239196 0.940163 0.23465
C_ C_ 0.379821 0.245411 0.944326 0.23465
C_ C_ 0.132523 0.275359 0.918294 -0.11473
C_ C_ 0.379371 0.282594 0.921011 -0.11473
C_ C_ 0.12308 0.210919 0.617885 0.17695
C_ C_ 0.380191 0.223375 0.618329 0.17695
C_ C_ 0.132521 0.281907 0.626273 0.17695
C_ C_ 0.374044 0.295468 0.626524 0.17695
C_ C_ 0.130647 0.287663 0.582376 -0.11473
C_ C_ 0.370519 0.300611 0.582714 -0.11473
C_ C_ 0.126361 0.254725 0.555234 0.23465
C_ C_ 0.374961 0.266671 0.557218 0.23465
C_ C_ 0.121882 0.214936 0.572895 -0.11473
C_ C_ 0.376227 0.227652 0.574451 -0.11473
C_ C_ 0.0306475 0.497924 0.743961 0.05793
C_ C_ 0.279339 0.491774 0.742624 0.05793
C_ C_ 0.219802 -0.004553000000000029 0.751892 0.05793
C_ C_ 0.467438 0.994978 0.752168 0.05793
Br Br 0.0687797 0.499595 0.717647 -0.17191
Br Br 0.320238 0.490924 0.723581 -0.17191
Br Br 0.17623 -0.009619999999999962 0.764631 -0.17191
Br Br 0.426073 0.99856 0.763143 -0.17191
N_ N_ 0.124377 0.242176 0.851784 -0.272
N_ N_ 0.379369 0.247 0.855574 -0.272
N_ N_ 0.132173 0.235871 0.984121 -0.12501
N_ N_ 0.381711 0.244196 0.989484 -0.12501
N_ N_ 0.125622 0.245775 0.643083 -0.272
N_ N_ 0.374432 0.257045 0.642938 -0.272
N_ N_ 0.132404 0.259606 0.512704 -0.12501
N_ N_ 0.372397 0.271064 0.513103 -0.12501
O_ O_ 0.0947353 0.291678 0.713412 -0.60745
O_ O_ 0.349768 0.292229 0.714652 -0.60745
O_ O_ 0.0934396 0.286306 0.782263 -0.60745
O_ O_ 0.343922 0.284325 0.782999 -0.60745
O_ O_ 0.153075 0.290067 0.781858 -0.60745
O_ O_ 0.402336 0.298163 0.78528 -0.60745
O_ O_ 0.158227 0.283797 0.714876 -0.60745
O_ O_ 0.409434 0.289256 0.716459 -0.60745
O_ O_ 0.154868 0.197414 0.782927 -0.60745
O_ O_ 0.411761 0.207674 0.778398 -0.60745
O_ O_ 0.154047 0.198456 0.714742 -0.60745
O_ O_ 0.406739 0.202897 0.710585 -0.60745
O_ O_ 0.0891991 0.204203 0.71651 -0.60745
O_ O_ 0.346688 0.202163 0.710858 -0.60745
O_ O_ 0.096442 0.197407 0.782994 -0.60745
O_ O_ 0.354545 0.197169 0.779439 -0.60745
Zn Zn 0.121588 0.755851 0.284175 0.9476
Zn Zn 0.379335 0.751304 0.280805 0.9476
Zn Zn 0.122446 0.753554 0.215521 0.9476
Zn Zn 0.380257 0.755448 0.20977 0.9476
H_ H_ 0.0252182 0.91301 0.175639 0.10932
H_ H_ 0.290018 0.931451 0.182418 0.10932
H_ H_ 0.0817658 0.875507 0.304372 0.10932
H_ H_ 0.305131 0.841756 0.307348 0.10932
H_ H_ 0.0506808 0.842748 0.179682 0.10932
H_ H_ 0.330937 0.880969 0.183133 0.10932
H_ H_ 0.0439263 0.93381 0.30593 0.10932
H_ H_ 0.27495 0.905554 0.310874 0.10932
H_ H_ 0.207501 0.929523 0.312539 0.10932
H_ H_ 0.458326 0.928771 0.31595 0.10932
H_ H_ 0.190287 0.849247 0.180652 0.10932
H_ H_ 0.455012 0.84401 0.186884 0.10932
H_ H_ 0.170244 0.871675 0.314005 0.10932
H_ H_ 0.434681 0.864392 0.319581 0.10932
H_ H_ 0.20807 0.917981 0.179917 0.10932
H_ H_ 0.471575 0.922972 0.185025 0.10932
H_ H_ 0.222078 0.592939 0.315196 0.10932
H_ H_ 0.482955 0.595167 0.321336 0.10932
H_ H_ 0.165647 0.633108 0.189128 0.10932
H_ H_ 0.428196 0.636239 0.188084 0.10932
H_ H_ 0.196417 0.657945 0.315775 0.10932
H_ H_ 0.461891 0.668643 0.310969 0.10932
H_ H_ 0.195617 0.572237 0.186304 0.10932
H_ H_ 0.449946 0.568609 0.194956 0.10932
H_ H_ 0.0236116 0.592594 0.191218 0.10932
H_ H_ 0.28484 0.584269 0.171995 0.10932
H_ H_ 0.0757599 0.641128 0.321661 0.10932
H_ H_ 0.3136 0.653905 0.307069 0.10932
H_ H_ 0.0502926 0.659805 0.188424 0.10932
H_ H_ 0.314041 0.653256 0.173567 0.10932
H_ H_ 0.0407744 0.585394 0.32415 0.10932
H_ H_ 0.284403 0.590412 0.305943 0.10932
H_ H_ 0.112626 0.815709 0.349874 0.10932
H_ H_ 0.378966 0.8143 0.351265 0.10932
H_ H_ 0.125097 0.688873 0.363765 0.10932
H_ H_ 0.381248 0.685219 0.353854 0.10932
H_ H_ 0.118881 0.694489 0.443548 0.10932
H_ H_ 0.38546 0.687466 0.432702 0.10932
H_ H_ 0.114491 0.825997 0.424818 0.10932
H_ H_ 0.379294 0.82132 0.429213 0.10932
H_ H_ 0.115901 0.690135 0.147604 0.10932
H_ H_ 0.385319 0.823093 0.141736 0.10932
H_ H_ 0.12431 0.815653 0.133222 0.10932
H_ H_ 0.387371 0.691776 0.13665 0.10932
H_ H_ 0.12427 0.808175 0.0577255 0.10932
H_ H_ 0.391396 0.693713 0.0585458 0.10932
H_ H_ 0.11855 0.676357 0.0709621 0.10932
H_ H_ 0.392805 0.824702 0.0648131 0.10932
C_ C_ 0.0696614 0.856472 0.241955 -0.02249
C_ C_ 0.319152 0.854351 0.242467 -0.02249
C_ C_ 0.0174067 0.969167 0.236392 -0.02249
C_ C_ 0.262418 0.964654 0.248809 -0.02249
C_ C_ 0.0351936 0.903061 0.204806 -0.11473
C_ C_ 0.295862 0.916464 0.21138 -0.11473
C_ C_ 0.0669741 0.881648 0.278223 -0.11473
C_ C_ 0.302378 0.860903 0.279218 -0.11473
C_ C_ 0.0511668 0.864608 0.206859 -0.11473
C_ C_ 0.31783 0.883976 0.210323 -0.11473
C_ C_ 0.0351811 0.92971 0.238452 -0.02249
C_ C_ 0.280017 0.924471 0.247761 -0.02249
C_ C_ 0.0852078 0.815748 0.247056 0.6875
C_ C_ 0.341457 0.817208 0.242834 0.6875
C_ C_ 0.0482463 0.917107 0.277015 -0.11473
C_ C_ 0.284725 0.896355 0.2824 -0.11473
C_ C_ 0.183453 0.850281 0.250594 -0.02249
C_ C_ 0.438952 0.850206 0.250863 -0.02249
C_ C_ 0.231171 0.965605 0.243771 -0.02249
C_ C_ 0.479951 0.967827 0.255304 -0.02249
C_ C_ 0.204049 0.911721 0.285584 -0.11473
C_ C_ 0.45294 0.912653 0.288327 -0.11473
C_ C_ 0.19712 0.861941 0.212011 -0.11473
C_ C_ 0.451127 0.865831 0.213216 -0.11473
C_ C_ 0.186743 0.875518 0.288113 -0.11473
C_ C_ 0.441569 0.87316 0.288615 -0.11473
C_ C_ 0.214697 0.925819 0.245665 -0.02249
C_ C_ 0.463699 0.929555 0.250849 -0.02249
C_ C_ 0.162886 0.814968 0.251691 0.6875
C_ C_ 0.419905 0.813689 0.249009 0.6875
C_ C_ 0.209178 0.901521 0.210462 -0.11473
C_ C_ 0.463914 0.906547 0.212965 -0.11473
C_ C_ 0.175752 0.650472 0.253136 -0.02249
C_ C_ 0.440256 0.656423 0.25111 -0.02249
C_ C_ 0.233404 0.54308 0.249157 -0.02249
C_ C_ 0.485505 0.538275 0.26112 -0.02249
C_ C_ 0.212428 0.603478 0.285443 -0.11473
C_ C_ 0.471976 0.606925 0.290991 -0.11473
C_ C_ 0.176442 0.624666 0.216387 -0.11473
C_ C_ 0.441116 0.63001 0.215971 -0.11473
C_ C_ 0.193323 0.637176 0.288575 -0.11473
C_ C_ 0.457712 0.645306 0.286977 -0.11473
C_ C_ 0.215183 0.581581 0.248519 -0.02249
C_ C_ 0.471227 0.579185 0.257454 -0.02249
C_ C_ 0.161041 0.69119 0.252777 0.6875
C_ C_ 0.419098 0.693431 0.250229 0.6875
C_ C_ 0.196225 0.591936 0.214135 -0.11473
C_ C_ 0.454663 0.589895 0.219395 -0.11473
C_ C_ 0.0644525 0.657947 0.256047 -0.02249
C_ C_ 0.31935 0.655655 0.239928 -0.02249
C_ C_ 0.0147987 0.542038 0.258057 -0.02249
C_ C_ 0.264993 0.544896 0.240352 -0.02249
C_ C_ 0.0312855 0.607996 0.220319 -0.11473
C_ C_ 0.289276 0.6028 0.202104 -0.11473
C_ C_ 0.0620574 0.634848 0.293156 -0.11473
C_ C_ 0.308006 0.640047 0.276341 -0.11473
C_ C_ 0.0488393 0.643593 0.218606 -0.11473
C_ C_ 0.308944 0.638764 0.202369 -0.11473
C_ C_ 0.029362 0.58426 0.257945 -0.02249
C_ C_ 0.280555 0.585197 0.239057 -0.02249
C_ C_ 0.0841815 0.693512 0.253535 0.6875
C_ C_ 0.340797 0.692932 0.239474 0.6875
C_ C_ 0.0415475 0.6019 0.294723 -0.11473
C_ C_ 0.288265 0.605927 0.277447 -0.11473
C_ C_ 0.110842 0.78929 0.371548 0.17695
C_ C_ 0.380181 0.787163 0.368834 0.17695
C_ C_ 0.121634 0.718884 0.379161 0.17695
C_ C_ 0.376164 0.714894 0.371374 0.17695
C_ C_ 0.118718 0.722659 0.423818 -0.11473
C_ C_ 0.378722 0.715799 0.415589 -0.11473
C_ C_ 0.1164 0.761764 0.441628 0.23465
C_ C_ 0.382201 0.755161 0.435786 0.23465
C_ C_ 0.112252 0.795304 0.414492 -0.11473
C_ C_ 0.37813 0.790586 0.413244 -0.11473
C_ C_ 0.124958 0.713413 0.12811 0.17695
C_ C_ 0.388039 0.79448 0.125205 0.17695
C_ C_ 0.12766 0.786298 0.119927 0.17695
C_ C_ 0.384465 0.721638 0.120406 0.17695
C_ C_ 0.125545 0.780279 0.0755844 -0.11473
C_ C_ 0.385977 0.721915 0.077046 -0.11473
C_ C_ 0.125661 0.741618 0.0562451 0.23465
C_ C_ 0.386286 0.760112 0.0566425 0.23465
C_ C_ 0.122435 0.70783 0.082865 -0.11473
C_ C_ 0.389328 0.796946 0.0813804 -0.11473
C_ C_ 0.0317799 1.00709861 0.242324 0.05793
C_ C_ 0.278812 1.00155822 0.25507 0.05793
C_ C_ 0.218145 0.504775 0.254229 0.05793
C_ C_ 0.470121 0.501935 0.265254 0.05793
Br Br 0.0744687 0.008356 0.241728 -0.17191
Br Br 0.322675 1.000781683 0.269635 -0.17191
Br Br 0.175895 0.503904 0.257345 -0.17191
Br Br 0.429085 0.508894 0.285412 -0.17191
N_ N_ 0.116943 0.751974 0.354012 -0.272
N_ N_ 0.37574 0.751197 0.349266 -0.272
N_ N_ 0.116739 0.768125 0.48652 -0.12501
N_ N_ 0.38407 0.7584 0.481388 -0.12501
N_ N_ 0.124884 0.752065 0.144029 -0.272
N_ N_ 0.387573 0.7567 0.143103 -0.272
N_ N_ 0.121648 0.737339 0.0120453 -0.12501
N_ N_ 0.388893 0.764023 0.0108107 -0.12501
O_ O_ 0.0930115 0.798801 0.21354 -0.60745
O_ O_ 0.348756 0.799479 0.207959 -0.60745
O_ O_ 0.0872738 0.796639 0.280742 -0.60745
O_ O_ 0.350485 0.800521 0.276384 -0.60745
O_ O_ 0.150021 0.805024 0.284746 -0.60745
O_ O_ 0.411652 0.796585 0.281853 -0.60745
O_ O_ 0.156367 0.795717 0.217245 -0.60745
O_ O_ 0.409804 0.799354 0.214436 -0.60745
O_ O_ 0.15638 0.711872 0.285608 -0.60745
O_ O_ 0.405438 0.703633 0.282514 -0.60745
O_ O_ 0.152155 0.707016 0.219157 -0.60745
O_ O_ 0.41433 0.711424 0.215163 -0.60745
O_ O_ 0.0890524 0.711597 0.218543 -0.60745
O_ O_ 0.349987 0.70965 0.20484 -0.60745
O_ O_ 0.096569 0.70587 0.287366 -0.60745
O_ O_ 0.346199 0.711234 0.27292 -0.60745
Zn Zn 0.125105 0.747485 0.781136 0.9476
Zn Zn 0.377439 0.74336 0.779967 0.9476
Zn Zn 0.124191 0.7446 0.711626 0.9476
Zn Zn 0.374664 0.743429 0.710098 0.9476
H_ H_ 0.0205718 0.900276 0.67829 0.10932
H_ H_ 0.27329 0.90088 0.674972 0.10932
H_ H_ 0.0617828 0.851306 0.814429 0.10932
H_ H_ 0.328735 0.861977 0.802315 0.10932
H_ H_ 0.059432 0.844769 0.680399 0.10932
H_ H_ 0.294917 0.830415 0.679271 0.10932
H_ H_ 0.029072 0.911248 0.814496 0.10932
H_ H_ 0.295041 0.924115 0.801032 0.10932
H_ H_ 0.228863 0.900936 0.806648 0.10932
H_ H_ 0.4689 0.911419 0.817315 0.10932
H_ H_ 0.168461 0.859094 0.684049 0.10932
H_ H_ 0.428339 0.852955 0.681257 0.10932
H_ H_ 0.196546 0.844438 0.811566 0.10932
H_ H_ 0.431874 0.848738 0.819423 0.10932
H_ H_ 0.193942 0.926682 0.680961 0.10932
H_ H_ 0.45081 0.92036 0.682128 0.10932
H_ H_ 0.225399 0.587725 0.812811 0.10932
H_ H_ 0.482471 0.588512 0.808932 0.10932
H_ H_ 0.174917 0.630327 0.678867 0.10932
H_ H_ 0.425126 0.629048 0.678436 0.10932
H_ H_ 0.192672 0.648351 0.811119 0.10932
H_ H_ 0.452847 0.651075 0.811932 0.10932
H_ H_ 0.21032 0.571853 0.682956 0.10932
H_ H_ 0.461202 0.570915 0.679769 0.10932
H_ H_ 0.0148249 0.594965 0.689133 0.10932
H_ H_ 0.272702 0.585285 0.682692 0.10932
H_ H_ 0.0717899 0.638526 0.816004 0.10932
H_ H_ 0.333896 0.622436 0.808876 0.10932
H_ H_ 0.0470682 0.655528 0.683294 0.10932
H_ H_ 0.291422 0.657153 0.689303 0.10932
H_ H_ 0.041562 0.571732 0.816616 0.10932
H_ H_ 0.303429 0.557392 0.808836 0.10932
H_ H_ 0.134052 0.813506 0.849663 0.10932
H_ H_ 0.387853 0.813188 0.859466 0.10932
H_ H_ 0.127923 0.686284 0.861197 0.10932
H_ H_ 0.37309 0.682738 0.853148 0.10932
H_ H_ 0.12917 0.687302 0.936329 0.10932
H_ H_ 0.375139 0.677549 0.929211 0.10932
H_ H_ 0.135969 0.819252 0.927139 0.10932
H_ H_ 0.391409 0.806351 0.93647 0.10932
H_ H_ 0.120168 0.67968 0.644895 0.10932
H_ H_ 0.370649 0.809518 0.627197 0.10932
H_ H_ 0.120433 0.810435 0.63613 0.10932
H_ H_ 0.376891 0.678238 0.638443 0.10932
H_ H_ 0.120902 0.80983 0.559302 0.10932
H_ H_ 0.37279 0.672647 0.558593 0.10932
H_ H_ 0.132951 0.677294 0.565355 0.10932
H_ H_ 0.373742 0.806287 0.551009 0.10932
C_ C_ 0.0623257 0.84131 0.747684 -0.02249
C_ C_ 0.315762 0.839737 0.741808 -0.02249
C_ C_ 0.0112413 0.953801 0.745196 -0.02249
C_ C_ 0.266532 0.957104 0.734633 -0.02249
C_ C_ 0.0348399 0.894385 0.707832 -0.11473
C_ C_ 0.285622 0.891206 0.702301 -0.11473
C_ C_ 0.0514174 0.859876 0.784291 -0.11473
C_ C_ 0.315639 0.867489 0.776359 -0.11473
C_ C_ 0.0521308 0.857098 0.709217 -0.11473
C_ C_ 0.29966 0.852274 0.703953 -0.11473
C_ C_ 0.0257518 0.913643 0.744671 -0.02249
C_ C_ 0.283737 0.917447 0.737286 -0.02249
C_ C_ 0.08427 0.804473 0.748133 0.6875
C_ C_ 0.33377 0.800856 0.743975 0.6875
C_ C_ 0.0336553 0.895882 0.784697 -0.11473
C_ C_ 0.297694 0.903544 0.77523 -0.11473
C_ C_ 0.18597 0.84084 0.743637 -0.02249
C_ C_ 0.430889 0.844454 0.748712 -0.02249
C_ C_ 0.235613 0.956947 0.745858 -0.02249
C_ C_ 0.481978 0.956719 0.748795 -0.02249
C_ C_ 0.218677 0.890317 0.778147 -0.11473
C_ C_ 0.456591 0.900411 0.787994 -0.11473
C_ C_ 0.184646 0.867922 0.708471 -0.11473
C_ C_ 0.437666 0.864437 0.710516 -0.11473
C_ C_ 0.202717 0.852765 0.780379 -0.11473
C_ C_ 0.439115 0.863493 0.789166 -0.11473
C_ C_ 0.219015 0.916116 0.743763 -0.02249
C_ C_ 0.463276 0.918123 0.747945 -0.02249
C_ C_ 0.165203 0.804365 0.743291 0.6875
C_ C_ 0.411784 0.807409 0.748921 0.6875
C_ C_ 0.20018 0.9054 0.709144 -0.11473
C_ C_ 0.453302 0.901333 0.710298 -0.11473
C_ C_ 0.18486 0.647729 0.744502 -0.02249
C_ C_ 0.437424 0.648775 0.745556 -0.02249
C_ C_ 0.232596 0.531579 0.749642 -0.02249
C_ C_ 0.489632 0.53601 0.741894 -0.02249
C_ C_ 0.21339 0.595601 0.78476 -0.11473
C_ C_ 0.47159 0.600129 0.780443 -0.11473
C_ C_ 0.187899 0.62394 0.708546 -0.11473
C_ C_ 0.439756 0.624749 0.708501 -0.11473
C_ C_ 0.200337 0.635795 0.781533 -0.11473
C_ C_ 0.452728 0.633663 0.783488 -0.11473
C_ C_ 0.215415 0.57138 0.747792 -0.02249
C_ C_ 0.473876 0.575713 0.744988 -0.02249
C_ C_ 0.164628 0.685615 0.744943 0.6875
C_ C_ 0.416823 0.685346 0.745359 0.6875
C_ C_ 0.202682 0.586172 0.710266 -0.11473
C_ C_ 0.45887 0.589511 0.708716 -0.11473
C_ C_ 0.0639836 0.649962 0.749728 -0.02249
C_ C_ 0.315653 0.64577 0.749044 -0.02249
C_ C_ 0.0146089 0.536069 0.750729 -0.02249
C_ C_ 0.264059 0.529977 0.746217 -0.02249
C_ C_ 0.0275037 0.603303 0.716539 -0.11473
C_ C_ 0.281974 0.595542 0.712591 -0.11473
C_ C_ 0.0639009 0.624524 0.787004 -0.11473
C_ C_ 0.317352 0.616912 0.783201 -0.11473
C_ C_ 0.045176 0.640269 0.715026 -0.11473
C_ C_ 0.295192 0.635952 0.714931 -0.11473
C_ C_ 0.0318933 0.576523 0.750828 -0.02249
C_ C_ 0.282552 0.569038 0.747196 -0.02249
C_ C_ 0.083135 0.687103 0.74863 0.6875
C_ C_ 0.333958 0.684843 0.747317 0.6875
C_ C_ 0.0473473 0.587898 0.787584 -0.11473
C_ C_ 0.299562 0.580261 0.783142 -0.11473
C_ C_ 0.128378 0.785474 0.86958 0.17695
C_ C_ 0.387607 0.781929 0.874713 0.17695
C_ C_ 0.123399 0.71442 0.875122 0.17695
C_ C_ 0.378348 0.710012 0.87119 0.17695
C_ C_ 0.126739 0.716002 0.91971 -0.11473
C_ C_ 0.37717 0.708058 0.914911 -0.11473
C_ C_ 0.129056 0.755778 0.93807 0.23465
C_ C_ 0.380817 0.741931 0.94033 0.23465
C_ C_ 0.13091 0.789852 0.913925 -0.11473
C_ C_ 0.386152 0.779166 0.919551 -0.11473
C_ C_ 0.121344 0.707678 0.625431 0.17695
C_ C_ 0.373857 0.77946 0.613488 0.17695
C_ C_ 0.11832 0.780454 0.620441 0.17695
C_ C_ 0.375046 0.705984 0.619241 0.17695
C_ C_ 0.118332 0.779765 0.576019 -0.11473
C_ C_ 0.371689 0.702183 0.575514 -0.11473
C_ C_ 0.121369 0.741515 0.556002 0.23465
C_ C_ 0.372385 0.739399 0.550728 0.23465
C_ C_ 0.126921 0.70587 0.580709 -0.11473
C_ C_ 0.37421 0.777458 0.56861 -0.11473
C_ C_ 0.0287307 -0.009105999999999947 0.742487 0.05793
C_ C_ 0.28249 -0.005820000000000047 0.730656 0.05793
C_ C_ 0.216873 0.493988 0.747775 0.05793
C_ C_ 0.472419 0.499372 0.741118 0.05793
Br Br 0.0694687 -0.011195999999999984 0.726072 -0.17191
Br Br 0.321596 -0.003155000000000019 0.704302 -0.17191
Br Br 0.174347 0.494682 0.756093 -0.17191
Br Br 0.428581 0.500428 0.73318 -0.17191
N_ N_ 0.127722 0.74751 0.851896 -0.272
N_ N_ 0.383657 0.745886 0.850782 -0.272
N_ N_ 0.132759 0.762215 0.985478 -0.12501
N_ N_ 0.378058 0.737948 0.985733 -0.12501
N_ N_ 0.119953 0.745479 0.644479 -0.272
N_ N_ 0.37481 0.744566 0.637373 -0.272
N_ N_ 0.125883 0.739743 0.511572 -0.12501
N_ N_ 0.370248 0.735869 0.50571 -0.12501
O_ O_ 0.0977824 0.79433 0.716048 -0.60745
O_ O_ 0.340435 0.783537 0.70905 -0.60745
O_ O_ 0.0917669 0.784781 0.781075 -0.60745
O_ O_ 0.345148 0.78775 0.778353 -0.60745
O_ O_ 0.153995 0.791545 0.777797 -0.60745
O_ O_ 0.405925 0.789387 0.782498 -0.60745
O_ O_ 0.156855 0.786842 0.709806 -0.60745
O_ O_ 0.403249 0.79112 0.715411 -0.60745
O_ O_ 0.159322 0.70454 0.778338 -0.60745
O_ O_ 0.407126 0.701112 0.779792 -0.60745
O_ O_ 0.15122 0.697142 0.711447 -0.60745
O_ O_ 0.408645 0.703202 0.711395 -0.60745
O_ O_ 0.0898285 0.702104 0.712699 -0.60745
O_ O_ 0.343464 0.696691 0.711263 -0.60745
O_ O_ 0.0946003 0.701245 0.781882 -0.60745
O_ O_ 0.34746 0.698162 0.780804 -0.60745
Zn Zn 0.62719 0.249921 0.287265 0.9476
Zn Zn 0.8728 0.255324 0.288243 0.9476
Zn Zn 0.626904 0.251168 0.218607 0.9476
Zn Zn 0.872401 0.257976 0.218374 0.9476
H_ H_ 0.522241 0.405436 0.188106 0.10932
H_ H_ 0.800831 0.43663 0.19144 0.10932
H_ H_ 0.588495 0.370153 0.308091 0.10932
H_ H_ 0.804471 0.349632 0.322547 0.10932
H_ H_ 0.550828 0.34213 0.187692 0.10932
H_ H_ 0.826609 0.372388 0.189035 0.10932
H_ H_ 0.558298 0.43683 0.309951 0.10932
H_ H_ 0.767986 0.406393 0.316278 0.10932
H_ H_ 0.710386 0.427841 0.317586 0.10932
H_ H_ 0.98245 0.401686 0.321372 0.10932
H_ H_ 0.675719 0.366656 0.184478 0.10932
H_ H_ 0.929664 0.367551 0.188914 0.10932
H_ H_ 0.684179 0.359986 0.320648 0.10932
H_ H_ 0.945048 0.345262 0.32116 0.10932
H_ H_ 0.71061 0.423336 0.184317 0.10932
H_ H_ 0.960589 0.429643 0.1932 0.10932
H_ H_ 0.695448 0.066395 0.305886 0.10932
H_ H_ 0.975554 0.0959199 0.309433 0.10932
H_ H_ 0.7013 0.161054 0.186595 0.10932
H_ H_ 0.92142 0.148918 0.184696 0.10932
H_ H_ 0.667844 0.133009 0.31027 0.10932
H_ H_ 0.943903 0.15959 0.311362 0.10932
H_ H_ 0.722742 0.0912302 0.182448 0.10932
H_ H_ 0.951085 0.0826781 0.178491 0.10932
H_ H_ 0.552568 0.063238 0.201813 0.10932
H_ H_ 0.796166 0.0784846 0.183157 0.10932
H_ H_ 0.553339 0.163731 0.318696 0.10932
H_ H_ 0.802149 0.157749 0.318451 0.10932
H_ H_ 0.578452 0.128893 0.194372 0.10932
H_ H_ 0.824551 0.144356 0.188393 0.10932
H_ H_ 0.517485 0.104554 0.321778 0.10932
H_ H_ 0.770186 0.0959577 0.309839 0.10932
H_ H_ 0.581768 0.246409 0.368461 0.10932
H_ H_ 0.88849 0.192287 0.361332 0.10932
H_ H_ 0.677576 0.248957 0.356307 0.10932
H_ H_ 0.871853 0.319226 0.35499 0.10932
H_ H_ 0.685274 0.246817 0.434402 0.10932
H_ H_ 0.875264 0.325797 0.432586 0.10932
H_ H_ 0.58848 0.245623 0.444434 0.10932
H_ H_ 0.88689 0.195028 0.444153 0.10932
H_ H_ 0.622707 0.18817 0.141386 0.10932
H_ H_ 0.825378 0.276453 0.143828 0.10932
H_ H_ 0.62337 0.316551 0.151612 0.10932
H_ H_ 0.914996 0.225619 0.140323 0.10932
H_ H_ 0.625458 0.325392 0.0740295 0.10932
H_ H_ 0.914215 0.239886 0.0621455 0.10932
H_ H_ 0.621533 0.191527 0.0617976 0.10932
H_ H_ 0.824749 0.279914 0.0638283 0.10932
C_ C_ 0.565552 0.347274 0.252889 -0.02249
C_ C_ 0.816025 0.35451 0.256218 -0.02249
C_ C_ 0.516426 0.461232 0.253136 -0.02249
C_ C_ 0.764083 0.466381 0.255618 -0.02249
C_ C_ 0.533792 0.397402 0.216425 -0.11473
C_ C_ 0.798979 0.416861 0.220143 -0.11473
C_ C_ 0.569868 0.374784 0.285981 -0.11473
C_ C_ 0.801098 0.367388 0.293587 -0.11473
C_ C_ 0.548233 0.358996 0.217191 -0.11473
C_ C_ 0.813953 0.378672 0.218605 -0.11473
C_ C_ 0.532823 0.421119 0.253151 -0.02249
C_ C_ 0.781192 0.42715 0.25583 -0.02249
C_ C_ 0.585753 0.310185 0.253829 0.6875
C_ C_ 0.834613 0.316628 0.254472 0.6875
C_ C_ 0.553702 0.412295 0.286383 -0.11473
C_ C_ 0.782059 0.400569 0.291742 -0.11473
C_ C_ 0.680627 0.352088 0.251501 -0.02249
C_ C_ 0.933876 0.351364 0.255125 -0.02249
C_ C_ 0.732573 0.467531 0.252315 -0.02249
C_ C_ 0.985952 0.463881 0.261412 -0.02249
C_ C_ 0.705173 0.410705 0.289068 -0.11473
C_ C_ 0.969106 0.394801 0.293887 -0.11473
C_ C_ 0.68807 0.373964 0.212477 -0.11473
C_ C_ 0.939073 0.375663 0.219851 -0.11473
C_ C_ 0.691593 0.370529 0.289589 -0.11473
C_ C_ 0.948975 0.362973 0.293808 -0.11473
C_ C_ 0.715065 0.426907 0.250596 -0.02249
C_ C_ 0.970985 0.421928 0.259096 -0.02249
C_ C_ 0.662837 0.312678 0.252405 0.6875
C_ C_ 0.914557 0.316146 0.251916 0.6875
C_ C_ 0.706724 0.408632 0.212314 -0.11473
C_ C_ 0.955494 0.412094 0.222401 -0.11473
C_ C_ 0.685913 0.155343 0.250562 -0.02249
C_ C_ 0.930441 0.157912 0.247083 -0.02249
C_ C_ 0.732657 0.0395418 0.246844 -0.02249
C_ C_ 0.982382 0.0451755 0.238397 -0.02249
C_ C_ 0.697149 0.0880879 0.281447 -0.11473
C_ C_ 0.962371 0.105673 0.281905 -0.11473
C_ C_ 0.698928 0.140569 0.212897 -0.11473
C_ C_ 0.936733 0.138871 0.208863 -0.11473
C_ C_ 0.684037 0.127086 0.285211 -0.11473
C_ C_ 0.945786 0.143993 0.283494 -0.11473
C_ C_ 0.714441 0.0782751 0.245834 -0.02249
C_ C_ 0.964818 0.0836631 0.244047 -0.02249
C_ C_ 0.668328 0.194302 0.250831 0.6875
C_ C_ 0.909031 0.193451 0.250255 0.6875
C_ C_ 0.716215 0.105425 0.212309 -0.11473
C_ C_ 0.950002 0.0995821 0.209379 -0.11473
C_ C_ 0.567398 0.152755 0.255307 -0.02249
C_ C_ 0.814475 0.156939 0.251368 -0.02249
C_ C_ 0.514383 0.040952 0.262393 -0.02249
C_ C_ 0.766061 0.0398124 0.248799 -0.02249
C_ C_ 0.55212 0.0870401 0.227139 -0.11473
C_ C_ 0.798801 0.0929989 0.213362 -0.11473
C_ C_ 0.549927 0.145279 0.290579 -0.11473
C_ C_ 0.803289 0.139417 0.289153 -0.11473
C_ C_ 0.567399 0.123987 0.223076 -0.11473
C_ C_ 0.814149 0.132356 0.214152 -0.11473
C_ C_ 0.53286 0.0802811 0.261922 -0.02249
C_ C_ 0.782184 0.0808731 0.248543 -0.02249
C_ C_ 0.588116 0.188669 0.25427 0.6875
C_ C_ 0.83284 0.196128 0.25256 0.6875
C_ C_ 0.531265 0.11073 0.29318 -0.11473
C_ C_ 0.785086 0.104757 0.285352 -0.11473
C_ C_ 0.605165 0.249628 0.382219 0.17695
C_ C_ 0.883495 0.219808 0.3783 0.17695
C_ C_ 0.658374 0.247019 0.37669 0.17695
C_ C_ 0.875439 0.29262 0.374682 0.17695
C_ C_ 0.662372 0.245064 0.422062 -0.11473
C_ C_ 0.875711 0.296527 0.417858 -0.11473
C_ C_ 0.636424 0.242321 0.446826 0.23465
C_ C_ 0.876552 0.260531 0.44307 0.23465
C_ C_ 0.607436 0.245772 0.427255 -0.11473
C_ C_ 0.881334 0.221574 0.422621 -0.11473
C_ C_ 0.624346 0.218064 0.123135 0.17695
C_ C_ 0.846228 0.267016 0.126695 0.17695
C_ C_ 0.623523 0.28985 0.131403 0.17695
C_ C_ 0.895134 0.238826 0.124239 0.17695
C_ C_ 0.622225 0.293877 0.0876305 -0.11473
C_ C_ 0.893852 0.239756 0.0796981 -0.11473
C_ C_ 0.623961 0.25814 0.0603323 0.23465
C_ C_ 0.869079 0.255998 0.0582853 0.23465
C_ C_ 0.621069 0.220297 0.0791871 -0.11473
C_ C_ 0.84521 0.270582 0.0809969 -0.11473
C_ C_ 0.532337 0.498291 0.251072 0.05793
C_ C_ 0.781085 0.50359 0.252623 0.05793
C_ C_ 0.718308 1.00162162 0.242581 0.05793
C_ C_ 0.96909 1.00645841 0.231095 0.05793
Br Br 0.574944 0.49883 0.242587 -0.17191
Br Br 0.824608 0.504917 0.259348 -0.17191
Br Br 0.676281 0.00247942 0.225634 -0.17191
Br Br 0.925487 0.00487326 0.228079 -0.17191
N_ N_ 0.630602 0.249472 0.35853 -0.272
N_ N_ 0.879139 0.255188 0.356019 -0.272
N_ N_ 0.640319 0.244238 0.490614 -0.12501
N_ N_ 0.87711 0.263987 0.488236 -0.12501
N_ N_ 0.625783 0.251608 0.148295 -0.272
N_ N_ 0.871023 0.253158 0.147506 -0.272
N_ N_ 0.62455 0.263048 0.0146544 -0.12501
N_ N_ 0.869371 0.258753 0.0125363 -0.12501
O_ O_ 0.596166 0.296591 0.220502 -0.60745
O_ O_ 0.843168 0.305036 0.219013 -0.60745
O_ O_ 0.595988 0.295924 0.289278 -0.60745
O_ O_ 0.848659 0.302399 0.287721 -0.60745
O_ O_ 0.656572 0.295863 0.286702 -0.60745
O_ O_ 0.906012 0.299886 0.285354 -0.60745
O_ O_ 0.654879 0.296416 0.218108 -0.60745
O_ O_ 0.902786 0.304479 0.217227 -0.60745
O_ O_ 0.658527 0.210759 0.284038 -0.60745
O_ O_ 0.902977 0.208167 0.287011 -0.60745
O_ O_ 0.661329 0.212268 0.215035 -0.60745
O_ O_ 0.901894 0.214865 0.217724 -0.60745
O_ O_ 0.596915 0.204149 0.220197 -0.60745
O_ O_ 0.842464 0.211284 0.219246 -0.60745
O_ O_ 0.596269 0.206121 0.288086 -0.60745
O_ O_ 0.839857 0.210236 0.288203 -0.60745
Zn Zn 0.62472 0.244831 0.78634 0.9476
Zn Zn 0.877671 0.249638 0.788098 0.9476
Zn Zn 0.623736 0.247022 0.718025 0.9476
Zn Zn 0.875368 0.250256 0.715922 0.9476
H_ H_ 0.528899 0.407707 0.683251 0.10932
H_ H_ 0.78533 0.41672 0.686914 0.10932
H_ H_ 0.574578 0.359484 0.814453 0.10932
H_ H_ 0.815834 0.354737 0.823867 0.10932
H_ H_ 0.552987 0.336983 0.684453 0.10932
H_ H_ 0.818891 0.356346 0.689574 0.10932
H_ H_ 0.545244 0.423882 0.814084 0.10932
H_ H_ 0.787581 0.419665 0.82121 0.10932
H_ H_ 0.713272 0.415375 0.817467 0.10932
H_ H_ 0.977195 0.397719 0.821165 0.10932
H_ H_ 0.696475 0.336956 0.68655 0.10932
H_ H_ 0.926693 0.359937 0.68952 0.10932
H_ H_ 0.672168 0.359299 0.818041 0.10932
H_ H_ 0.953215 0.338053 0.81943 0.10932
H_ H_ 0.729795 0.396371 0.688703 0.10932
H_ H_ 0.954683 0.425995 0.69223 0.10932
H_ H_ 0.724485 0.0868754 0.817905 0.10932
H_ H_ 0.963362 0.075653 0.811287 0.10932
H_ H_ 0.675379 0.133445 0.688631 0.10932
H_ H_ 0.931935 0.143117 0.680581 0.10932
H_ H_ 0.693306 0.150709 0.820018 0.10932
H_ H_ 0.938668 0.144526 0.815607 0.10932
H_ H_ 0.706481 0.0740642 0.686148 0.10932
H_ H_ 0.960978 0.0773841 0.678172 0.10932
H_ H_ 0.529154 0.076062 0.686742 0.10932
H_ H_ 0.794084 0.0711395 0.686447 0.10932
H_ H_ 0.58005 0.125485 0.814473 0.10932
H_ H_ 0.808578 0.152657 0.815771 0.10932
H_ H_ 0.55828 0.143638 0.68334 0.10932
H_ H_ 0.828749 0.130527 0.685343 0.10932
H_ H_ 0.55173 0.0621483 0.813905 0.10932
H_ H_ 0.78093 0.0872444 0.819006 0.10932
H_ H_ 0.610041 0.310681 0.865109 0.10932
H_ H_ 0.893054 0.185199 0.855545 0.10932
H_ H_ 0.630352 0.183527 0.857068 0.10932
H_ H_ 0.865943 0.307921 0.868101 0.10932
H_ H_ 0.635604 0.179169 0.936573 0.10932
H_ H_ 0.857204 0.296743 0.945359 0.10932
H_ H_ 0.604236 0.302607 0.944374 0.10932
H_ H_ 0.893099 0.174681 0.932864 0.10932
H_ H_ 0.619216 0.311228 0.644398 0.10932
H_ H_ 0.917516 0.239986 0.642293 0.10932
H_ H_ 0.631937 0.182261 0.636995 0.10932
H_ H_ 0.821074 0.248703 0.639604 0.10932
H_ H_ 0.63743 0.189293 0.558952 0.10932
H_ H_ 0.821527 0.250399 0.560534 0.10932
H_ H_ 0.614156 0.317171 0.566748 0.10932
H_ H_ 0.917177 0.239762 0.561019 0.10932
C_ C_ 0.563613 0.340868 0.751198 -0.02249
C_ C_ 0.816117 0.346653 0.75628 -0.02249
C_ C_ 0.518264 0.459268 0.744254 -0.02249
C_ C_ 0.763305 0.460649 0.75232 -0.02249
C_ C_ 0.535707 0.394191 0.711844 -0.11473
C_ C_ 0.789146 0.400369 0.716608 -0.11473
C_ C_ 0.56168 0.365693 0.786402 -0.11473
C_ C_ 0.806496 0.365066 0.79266 -0.11473
C_ C_ 0.550695 0.35484 0.713312 -0.11473
C_ C_ 0.805881 0.363984 0.718356 -0.11473
C_ C_ 0.532802 0.418341 0.748786 -0.02249
C_ C_ 0.780217 0.419412 0.754616 -0.02249
C_ C_ 0.58582 0.304975 0.752165 0.6875
C_ C_ 0.838669 0.312545 0.754608 0.6875
C_ C_ 0.546288 0.403814 0.785574 -0.11473
C_ C_ 0.789623 0.402259 0.792698 -0.11473
C_ C_ 0.682698 0.341111 0.75324 -0.02249
C_ C_ 0.938316 0.34135 0.751897 -0.02249
C_ C_ 0.730296 0.459348 0.751875 -0.02249
C_ C_ 0.983608 0.459953 0.757198 -0.02249
C_ C_ 0.70291 0.402023 0.788185 -0.11473
C_ C_ 0.963874 0.39449 0.792561 -0.11473
C_ C_ 0.69895 0.353813 0.716956 -0.11473
C_ C_ 0.940978 0.367372 0.716156 -0.11473
C_ C_ 0.683837 0.367475 0.788645 -0.11473
C_ C_ 0.95188 0.35617 0.79118 -0.11473
C_ C_ 0.713962 0.418219 0.74943 -0.02249
C_ C_ 0.967087 0.420789 0.757034 -0.02249
C_ C_ 0.664546 0.304124 0.750914 0.6875
C_ C_ 0.917982 0.30609 0.749708 0.6875
C_ C_ 0.716464 0.390351 0.716454 -0.11473
C_ C_ 0.953086 0.407166 0.718584 -0.11473
C_ C_ 0.682633 0.14707 0.752987 -0.02249
C_ C_ 0.93482 0.150601 0.747997 -0.02249
C_ C_ 0.734806 0.0353619 0.752432 -0.02249
C_ C_ 0.98252 0.0321503 0.745565 -0.02249
C_ C_ 0.714057 0.0983175 0.789581 -0.11473
C_ C_ 0.960576 0.0940054 0.784291 -0.11473
C_ C_ 0.683454 0.122442 0.718023 -0.11473
C_ C_ 0.940103 0.131897 0.70967 -0.11473
C_ C_ 0.697676 0.134796 0.790701 -0.11473
C_ C_ 0.944442 0.129817 0.785586 -0.11473
C_ C_ 0.719064 0.076217 0.751391 -0.02249
C_ C_ 0.967163 0.074011 0.745478 -0.02249
C_ C_ 0.666535 0.186707 0.753349 0.6875
C_ C_ 0.91657 0.190323 0.748323 0.6875
C_ C_ 0.701906 0.0875509 0.71642 -0.11473
C_ C_ 0.956739 0.0938048 0.708983 -0.11473
C_ C_ 0.573224 0.140214 0.747662 -0.02249
C_ C_ 0.81857 0.149848 0.750581 -0.02249
C_ C_ 0.515997 0.0282233 0.754438 -0.02249
C_ C_ 0.765869 0.0347837 0.750894 -0.02249
C_ C_ 0.541786 0.0879934 0.713457 -0.11473
C_ C_ 0.795575 0.0910598 0.713613 -0.11473
C_ C_ 0.570356 0.11649 0.785892 -0.11473
C_ C_ 0.804239 0.135662 0.787351 -0.11473
C_ C_ 0.559546 0.123538 0.711077 -0.11473
C_ C_ 0.814219 0.125846 0.712729 -0.11473
C_ C_ 0.534891 0.0690166 0.752223 -0.02249
C_ C_ 0.783972 0.0755755 0.751173 -0.02249
C_ C_ 0.591461 0.17885 0.748741 0.6875
C_ C_ 0.83954 0.187629 0.751872 0.6875
C_ C_ 0.553179 0.08109 0.787026 -0.11473
C_ C_ 0.789871 0.0971054 0.78886 -0.11473
C_ C_ 0.612635 0.28091 0.880052 0.17695
C_ C_ 0.88736 0.209846 0.87607 0.17695
C_ C_ 0.628354 0.210714 0.8748 0.17695
C_ C_ 0.871043 0.278858 0.881961 0.17695
C_ C_ 0.627698 0.206868 0.920222 -0.11473
C_ C_ 0.867633 0.272572 0.925559 -0.11473
C_ C_ 0.618666 0.240783 0.943756 0.23465
C_ C_ 0.876245 0.234946 0.944723 0.23465
C_ C_ 0.610982 0.278245 0.924392 -0.11473
C_ C_ 0.885919 0.204251 0.919778 -0.11473
C_ C_ 0.620764 0.284223 0.62584 0.17695
C_ C_ 0.896934 0.24222 0.623129 0.17695
C_ C_ 0.632253 0.212596 0.621675 0.17695
C_ C_ 0.842701 0.247422 0.623367 0.17695
C_ C_ 0.632977 0.21539 0.57738 -0.11473
C_ C_ 0.842635 0.246262 0.578897 -0.11473
C_ C_ 0.624663 0.252598 0.558274 0.23465
C_ C_ 0.8686 0.242733 0.557137 0.23465
C_ C_ 0.618831 0.286226 0.582793 -0.11473
C_ C_ 0.896498 0.239778 0.57807 -0.11473
C_ C_ 0.536061 0.495523 0.744339 0.05793
C_ C_ 0.778912 0.497313 0.74642 0.05793
C_ C_ 0.718436 -0.0013030000000000541 0.760482 0.05793
C_ C_ 0.966482 -0.00585800000000003 0.753256 0.05793
Br Br 0.578672 0.494425 0.738706 -0.17191
Br Br 0.823196 0.494923 0.741838 -0.17191
Br Br 0.675047 0.000684858 0.767647 -0.17191
Br Br 0.922458 -0.004425000000000012 0.753591 -0.17191
N_ N_ 0.622097 0.248096 0.85677 -0.272
N_ N_ 0.881045 0.246827 0.857944 -0.272
N_ N_ 0.614946 0.235771 0.989094 -0.12501
N_ N_ 0.876732 0.229877 0.988877 -0.12501
N_ N_ 0.624726 0.248024 0.644573 -0.272
N_ N_ 0.870248 0.243231 0.643581 -0.272
N_ N_ 0.620115 0.255812 0.514948 -0.12501
N_ N_ 0.866086 0.238273 0.51273 -0.12501
O_ O_ 0.593744 0.290849 0.717549 -0.60745
O_ O_ 0.846894 0.297832 0.720408 -0.60745
O_ O_ 0.590134 0.283938 0.785094 -0.60745
O_ O_ 0.844079 0.292112 0.788662 -0.60745
O_ O_ 0.653018 0.290078 0.784809 -0.60745
O_ O_ 0.906895 0.29244 0.78298 -0.60745
O_ O_ 0.652641 0.292314 0.716624 -0.60745
O_ O_ 0.909969 0.289441 0.715459 -0.60745
O_ O_ 0.659435 0.204318 0.787455 -0.60745
O_ O_ 0.909664 0.206058 0.78466 -0.60745
O_ O_ 0.655032 0.202198 0.719229 -0.60745
O_ O_ 0.905778 0.205402 0.714461 -0.60745
O_ O_ 0.59845 0.19713 0.714572 -0.60745
O_ O_ 0.844085 0.209259 0.718977 -0.60745
O_ O_ 0.594637 0.197622 0.784581 -0.60745
O_ O_ 0.850664 0.200021 0.787849 -0.60745
Zn Zn 0.624628 0.755045 0.293641 0.9476
Zn Zn 0.880438 0.758012 0.285878 0.9476
Zn Zn 0.621112 0.760106 0.222754 0.9476
Zn Zn 0.876133 0.754052 0.214607 0.9476
H_ H_ 0.527854 0.92161 0.193482 0.10932
H_ H_ 0.776408 0.910892 0.180259 0.10932
H_ H_ 0.555563 0.854283 0.327823 0.10932
H_ H_ 0.810106 0.851113 0.315168 0.10932
H_ H_ 0.563395 0.861064 0.193986 0.10932
H_ H_ 0.81226 0.856605 0.178699 0.10932
H_ H_ 0.537419 0.92497 0.328972 0.10932
H_ H_ 0.778766 0.915701 0.316235 0.10932
H_ H_ 0.714086 0.930387 0.317755 0.10932
H_ H_ 0.97454 0.925445 0.301575 0.10932
H_ H_ 0.681583 0.858727 0.185936 0.10932
H_ H_ 0.932358 0.862728 0.172241 0.10932
H_ H_ 0.682956 0.862666 0.32056 0.10932
H_ H_ 0.953032 0.854275 0.308618 0.10932
H_ H_ 0.71681 0.91936 0.185136 0.10932
H_ H_ 0.957986 0.928758 0.170068 0.10932
H_ H_ 0.711067 0.582734 0.321054 0.10932
H_ H_ 0.96406 0.587025 0.323203 0.10932
H_ H_ 0.686874 0.659637 0.189814 0.10932
H_ H_ 0.934641 0.646695 0.187601 0.10932
H_ H_ 0.687586 0.647401 0.327361 0.10932
H_ H_ 0.938884 0.655779 0.31948 0.10932
H_ H_ 0.706488 0.588127 0.185164 0.10932
H_ H_ 0.959402 0.575697 0.188053 0.10932
H_ H_ 0.533661 0.587893 0.191897 0.10932
H_ H_ 0.779706 0.587718 0.187882 0.10932
H_ H_ 0.575844 0.641829 0.32476 0.10932
H_ H_ 0.822695 0.638793 0.317753 0.10932
H_ H_ 0.557182 0.650595 0.191649 0.10932
H_ H_ 0.810322 0.653737 0.18433 0.10932
H_ H_ 0.547111 0.578183 0.326698 0.10932
H_ H_ 0.78749 0.583918 0.318754 0.10932
H_ H_ 0.628245 0.693568 0.369739 0.10932
H_ H_ 0.893663 0.825499 0.358296 0.10932
H_ H_ 0.61253 0.823446 0.364493 0.10932
H_ H_ 0.881799 0.695947 0.359005 0.10932
H_ H_ 0.608224 0.824771 0.440217 0.10932
H_ H_ 0.881888 0.693815 0.434569 0.10932
H_ H_ 0.627156 0.695344 0.448899 0.10932
H_ H_ 0.885351 0.827811 0.4354 0.10932
H_ H_ 0.623267 0.691306 0.161931 0.10932
H_ H_ 0.88104 0.689967 0.132583 0.10932
H_ H_ 0.619752 0.819235 0.140748 0.10932
H_ H_ 0.875104 0.820742 0.143675 0.10932
H_ H_ 0.62022 0.808443 0.0634567 0.10932
H_ H_ 0.867562 0.824655 0.0662137 0.10932
H_ H_ 0.631057 0.675483 0.0853715 0.10932
H_ H_ 0.876858 0.692911 0.0590439 0.10932
C_ C_ 0.562959 0.8544 0.260001 -0.02249
C_ C_ 0.81552 0.848599 0.247103 -0.02249
C_ C_ 0.512528 0.96684 0.258676 -0.02249
C_ C_ 0.764984 0.962702 0.248511 -0.02249
C_ C_ 0.538074 0.910461 0.223422 -0.11473
C_ C_ 0.789308 0.905593 0.209126 -0.11473
C_ C_ 0.551593 0.869407 0.298909 -0.11473
C_ C_ 0.805589 0.867414 0.285533 -0.11473
C_ C_ 0.556483 0.87619 0.222696 -0.11473
C_ C_ 0.805638 0.868487 0.20921 -0.11473
C_ C_ 0.529525 0.92723 0.262045 -0.02249
C_ C_ 0.781849 0.924138 0.247226 -0.02249
C_ C_ 0.584691 0.818103 0.256742 0.6875
C_ C_ 0.836419 0.811765 0.25021 0.6875
C_ C_ 0.539749 0.909663 0.300495 -0.11473
C_ C_ 0.787764 0.904259 0.287299 -0.11473
C_ C_ 0.682572 0.853127 0.25513 -0.02249
C_ C_ 0.937463 0.85554 0.241861 -0.02249
C_ C_ 0.734625 0.964039 0.246581 -0.02249
C_ C_ 0.985418 0.968404 0.233074 -0.02249
C_ C_ 0.707252 0.911813 0.289511 -0.11473
C_ C_ 0.967752 0.908484 0.274864 -0.11473
C_ C_ 0.688901 0.872468 0.216034 -0.11473
C_ C_ 0.940117 0.87556 0.202156 -0.11473
C_ C_ 0.692485 0.872586 0.291303 -0.11473
C_ C_ 0.952665 0.870131 0.278191 -0.11473
C_ C_ 0.718143 0.925464 0.250727 -0.02249
C_ C_ 0.969695 0.92976 0.236088 -0.02249
C_ C_ 0.665507 0.814107 0.256477 0.6875
C_ C_ 0.916601 0.818716 0.245302 0.6875
C_ C_ 0.709093 0.907275 0.214139 -0.11473
C_ C_ 0.955495 0.91358 0.199852 -0.11473
C_ C_ 0.684689 0.660034 0.258566 -0.02249
C_ C_ 0.934816 0.654926 0.252816 -0.02249
C_ C_ 0.734601 0.543694 0.25186 -0.02249
C_ C_ 0.983065 0.538959 0.261229 -0.02249
C_ C_ 0.709233 0.600383 0.291702 -0.11473
C_ C_ 0.961863 0.601681 0.292874 -0.11473
C_ C_ 0.692118 0.642226 0.21967 -0.11473
C_ C_ 0.942775 0.632947 0.216201 -0.11473
C_ C_ 0.694977 0.638643 0.294848 -0.11473
C_ C_ 0.94405 0.638511 0.290482 -0.11473
C_ C_ 0.717084 0.584216 0.252667 -0.02249
C_ C_ 0.96629 0.577461 0.256921 -0.02249
C_ C_ 0.662045 0.694975 0.25927 0.6875
C_ C_ 0.916665 0.694152 0.25186 0.6875
C_ C_ 0.707336 0.60509 0.216105 -0.11473
C_ C_ 0.956484 0.593567 0.217738 -0.11473
C_ C_ 0.567125 0.654885 0.259376 -0.02249
C_ C_ 0.817426 0.656707 0.252823 -0.02249
C_ C_ 0.518544 0.535333 0.26007 -0.02249
C_ C_ 0.765837 0.543334 0.251645 -0.02249
C_ C_ 0.541681 0.598181 0.22288 -0.11473
C_ C_ 0.788799 0.601489 0.215167 -0.11473
C_ C_ 0.566644 0.631225 0.296192 -0.11473
C_ C_ 0.809642 0.635271 0.290739 -0.11473
C_ C_ 0.555004 0.636333 0.221478 -0.11473
C_ C_ 0.805965 0.638989 0.215115 -0.11473
C_ C_ 0.536059 0.575775 0.259202 -0.02249
C_ C_ 0.781167 0.583992 0.251881 -0.02249
C_ C_ 0.5844 0.695894 0.258743 0.6875
C_ C_ 0.838032 0.695151 0.253489 0.6875
C_ C_ 0.548958 0.593316 0.296994 -0.11473
C_ C_ 0.792219 0.600255 0.289671 -0.11473
C_ C_ 0.625519 0.722218 0.385366 0.17695
C_ C_ 0.886611 0.797721 0.375941 0.17695
C_ C_ 0.615996 0.794298 0.382126 0.17695
C_ C_ 0.883276 0.724812 0.375202 0.17695
C_ C_ 0.615827 0.797115 0.425991 -0.11473
C_ C_ 0.881949 0.724428 0.419357 -0.11473
C_ C_ 0.619109 0.761263 0.450904 0.23465
C_ C_ 0.881386 0.760511 0.443085 0.23465
C_ C_ 0.623528 0.723527 0.429695 -0.11473
C_ C_ 0.883492 0.798187 0.419079 -0.11473
C_ C_ 0.621409 0.715962 0.138547 0.17695
C_ C_ 0.878446 0.719028 0.118633 0.17695
C_ C_ 0.622834 0.788265 0.127556 0.17695
C_ C_ 0.876302 0.793436 0.12501 0.17695
C_ C_ 0.625896 0.782709 0.0850938 -0.11473
C_ C_ 0.873856 0.796557 0.0812042 -0.11473
C_ C_ 0.626862 0.742863 0.0680548 0.23465
C_ C_ 0.875143 0.75987 0.0557517 0.23465
C_ C_ 0.626733 0.708295 0.0957628 -0.11473
C_ C_ 0.874256 0.720873 0.0765417 -0.11473
C_ C_ 0.529378 1.00294624 0.264029 0.05793
C_ C_ 0.782231 1.00155329 0.248038 0.05793
C_ C_ 0.717559 0.506654 0.2548 0.05793
C_ C_ 0.96956 0.500116 0.26498 0.05793
Br Br 0.570342 1.00197316 0.278944 -0.17191
Br Br 0.825069 0.998364 0.24134 -0.17191
Br Br 0.674669 0.50778 0.242079 -0.17191
Br Br 0.929674 0.496822 0.287281 -0.17191
N_ N_ 0.621559 0.757527 0.363445 -0.272
N_ N_ 0.885578 0.761586 0.355814 -0.272
N_ N_ 0.614912 0.763532 0.49583 -0.12501
N_ N_ 0.874689 0.76366 0.48615 -0.12501
N_ N_ 0.622564 0.755341 0.154256 -0.272
N_ N_ 0.877896 0.755257 0.143038 -0.272
N_ N_ 0.628216 0.734979 0.023095 -0.12501
N_ N_ 0.870772 0.765957 0.0104332 -0.12501
O_ O_ 0.596268 0.807117 0.222179 -0.60745
O_ O_ 0.845716 0.797526 0.215965 -0.60745
O_ O_ 0.591639 0.797606 0.289126 -0.60745
O_ O_ 0.846748 0.79943 0.28569 -0.60745
O_ O_ 0.652525 0.804196 0.290866 -0.60745
O_ O_ 0.909444 0.806528 0.28172 -0.60745
O_ O_ 0.657952 0.796135 0.222311 -0.60745
O_ O_ 0.907091 0.798147 0.2122 -0.60745
O_ O_ 0.655301 0.7123 0.294403 -0.60745
O_ O_ 0.912583 0.714526 0.28499 -0.60745
O_ O_ 0.649186 0.707793 0.225327 -0.60745
O_ O_ 0.908786 0.712012 0.217409 -0.60745
O_ O_ 0.588687 0.715056 0.225521 -0.60745
O_ O_ 0.848621 0.708882 0.218604 -0.60745
O_ O_ 0.595298 0.709768 0.293307 -0.60745
O_ O_ 0.850311 0.708065 0.286546 -0.60745
Zn Zn 0.626044 0.745688 0.792375 0.9476
Zn Zn 0.871155 0.742478 0.783307 0.9476
Zn Zn 0.626324 0.749495 0.722572 0.9476
Zn Zn 0.871821 0.745654 0.71399 0.9476
H_ H_ 0.525834 0.907621 0.689641 0.10932
H_ H_ 0.791436 0.926776 0.689741 0.10932
H_ H_ 0.571992 0.853194 0.817947 0.10932
H_ H_ 0.80233 0.836411 0.819453 0.10932
H_ H_ 0.552887 0.838191 0.687219 0.10932
H_ H_ 0.817952 0.859403 0.68605 0.10932
H_ H_ 0.536791 0.910289 0.820109 0.10932
H_ H_ 0.77474 0.904637 0.817986 0.10932
H_ H_ 0.697672 0.928202 0.823095 0.10932
H_ H_ 0.946922 0.919684 0.812659 0.10932
H_ H_ 0.698715 0.840202 0.695545 0.10932
H_ H_ 0.936038 0.844241 0.680329 0.10932
H_ H_ 0.67442 0.861869 0.827041 0.10932
H_ H_ 0.914765 0.860278 0.809866 0.10932
H_ H_ 0.728886 0.905119 0.695575 0.10932
H_ H_ 0.963095 0.910009 0.682131 0.10932
H_ H_ 0.712058 0.574639 0.81498 0.10932
H_ H_ 0.977829 0.594805 0.814958 0.10932
H_ H_ 0.691208 0.655359 0.686589 0.10932
H_ H_ 0.915816 0.620753 0.690061 0.10932
H_ H_ 0.681532 0.635214 0.821634 0.10932
H_ H_ 0.951061 0.662386 0.81179 0.10932
H_ H_ 0.714123 0.585074 0.680333 0.10932
H_ H_ 0.94796 0.560136 0.695914 0.10932
H_ H_ 0.532928 0.582086 0.680033 0.10932
H_ H_ 0.781617 0.580165 0.674583 0.10932
H_ H_ 0.575786 0.633596 0.815009 0.10932
H_ H_ 0.80837 0.643652 0.809565 0.10932
H_ H_ 0.552382 0.656129 0.685795 0.10932
H_ H_ 0.814572 0.642663 0.676677 0.10932
H_ H_ 0.554024 0.565034 0.809953 0.10932
H_ H_ 0.779552 0.57978 0.807917 0.10932
H_ H_ 0.632979 0.685977 0.873312 0.10932
H_ H_ 0.879243 0.678866 0.85435 0.10932
H_ H_ 0.623836 0.817136 0.862911 0.10932
H_ H_ 0.866972 0.807679 0.857904 0.10932
H_ H_ 0.625812 0.821748 0.942339 0.10932
H_ H_ 0.867468 0.806434 0.940187 0.10932
H_ H_ 0.628554 0.691231 0.951159 0.10932
H_ H_ 0.879131 0.673006 0.933229 0.10932
H_ H_ 0.627439 0.680396 0.650687 0.10932
H_ H_ 0.871727 0.807144 0.634852 0.10932
H_ H_ 0.624848 0.813026 0.643764 0.10932
H_ H_ 0.872061 0.677767 0.641911 0.10932
H_ H_ 0.626215 0.810701 0.568656 0.10932
H_ H_ 0.876026 0.672158 0.566846 0.10932
H_ H_ 0.621115 0.681406 0.571682 0.10932
H_ H_ 0.875991 0.804011 0.559133 0.10932
C_ C_ 0.566811 0.844238 0.751782 -0.02249
C_ C_ 0.812841 0.843182 0.751856 -0.02249
C_ C_ 0.513558 0.953985 0.754312 -0.02249
C_ C_ 0.766004 0.959304 0.756662 -0.02249
C_ C_ 0.533983 0.892997 0.716841 -0.11473
C_ C_ 0.790775 0.905228 0.716881 -0.11473
C_ C_ 0.56071 0.862991 0.790396 -0.11473
C_ C_ 0.798786 0.854604 0.789685 -0.11473
C_ C_ 0.551597 0.856066 0.715798 -0.11473
C_ C_ 0.807996 0.868272 0.716587 -0.11473
C_ C_ 0.52931 0.913783 0.754285 -0.02249
C_ C_ 0.781628 0.919019 0.754807 -0.02249
C_ C_ 0.587163 0.806664 0.753897 0.6875
C_ C_ 0.832715 0.805779 0.751475 0.6875
C_ C_ 0.544301 0.899347 0.790072 -0.11473
C_ C_ 0.782642 0.892252 0.789234 -0.11473
C_ C_ 0.683044 0.847423 0.760595 -0.02249
C_ C_ 0.927336 0.841911 0.746506 -0.02249
C_ C_ 0.734103 0.960794 0.760207 -0.02249
C_ C_ 0.979349 0.955806 0.747854 -0.02249
C_ C_ 0.697645 0.90952 0.793811 -0.11473
C_ C_ 0.947848 0.900525 0.783474 -0.11473
C_ C_ 0.700419 0.858352 0.723915 -0.11473
C_ C_ 0.939585 0.858427 0.710014 -0.11473
C_ C_ 0.683865 0.872001 0.796962 -0.11473
C_ C_ 0.93016 0.865661 0.782606 -0.11473
C_ C_ 0.716 0.920482 0.759251 -0.02249
C_ C_ 0.961506 0.916185 0.747156 -0.02249
C_ C_ 0.665332 0.807041 0.759984 0.6875
C_ C_ 0.908239 0.803601 0.745354 0.6875
C_ C_ 0.716247 0.895198 0.723046 -0.11473
C_ C_ 0.956249 0.895178 0.710623 -0.11473
C_ C_ 0.684745 0.650075 0.753329 -0.02249
C_ C_ 0.927756 0.644933 0.75288 -0.02249
C_ C_ 0.730528 0.533984 0.744014 -0.02249
C_ C_ 0.983845 0.534448 0.756123 -0.02249
C_ C_ 0.705117 0.589143 0.785214 -0.11473
C_ C_ 0.965004 0.60218 0.789314 -0.11473
C_ C_ 0.693009 0.634928 0.713053 -0.11473
C_ C_ 0.928931 0.617422 0.718178 -0.11473
C_ C_ 0.690214 0.626258 0.789516 -0.11473
C_ C_ 0.946787 0.637836 0.788922 -0.11473
C_ C_ 0.714049 0.573538 0.746185 -0.02249
C_ C_ 0.965166 0.574447 0.754387 -0.02249
C_ C_ 0.664953 0.686366 0.757196 0.6875
C_ C_ 0.909644 0.683182 0.750828 0.6875
C_ C_ 0.708322 0.59677 0.7098 -0.11473
C_ C_ 0.94607 0.581945 0.720818 -0.11473
C_ C_ 0.565427 0.65093 0.750498 -0.02249
C_ C_ 0.812627 0.648613 0.743582 -0.02249
C_ C_ 0.521088 0.533714 0.747094 -0.02249
C_ C_ 0.762058 0.534584 0.740666 -0.02249
C_ C_ 0.539135 0.597648 0.709959 -0.11473
C_ C_ 0.790166 0.591069 0.704552 -0.11473
C_ C_ 0.565902 0.623684 0.785266 -0.11473
C_ C_ 0.803188 0.629329 0.780456 -0.11473
C_ C_ 0.554234 0.635354 0.711249 -0.11473
C_ C_ 0.805867 0.628398 0.705467 -0.11473
C_ C_ 0.538626 0.572859 0.745618 -0.02249
C_ C_ 0.779933 0.573801 0.741474 -0.02249
C_ C_ 0.586161 0.686951 0.752419 0.6875
C_ C_ 0.83238 0.685276 0.748041 0.6875
C_ C_ 0.552756 0.585796 0.783459 -0.11473
C_ C_ 0.788664 0.592928 0.780773 -0.11473
C_ C_ 0.630421 0.71625 0.886286 0.17695
C_ C_ 0.878283 0.706108 0.873189 0.17695
C_ C_ 0.627836 0.789394 0.882216 0.17695
C_ C_ 0.869452 0.777691 0.875811 0.17695
C_ C_ 0.627194 0.793429 0.925697 -0.11473
C_ C_ 0.872282 0.777538 0.920375 -0.11473
C_ C_ 0.627723 0.757987 0.951 0.23465
C_ C_ 0.872688 0.737959 0.941868 0.23465
C_ C_ 0.629773 0.718474 0.930873 -0.11473
C_ C_ 0.875483 0.702118 0.916517 -0.11473
C_ C_ 0.627945 0.707583 0.632236 0.17695
C_ C_ 0.872653 0.777259 0.619164 0.17695
C_ C_ 0.625464 0.782966 0.629818 0.17695
C_ C_ 0.868899 0.706822 0.623794 0.17695
C_ C_ 0.626175 0.781803 0.586006 -0.11473
C_ C_ 0.872547 0.702634 0.57841 -0.11473
C_ C_ 0.629841 0.743747 0.56535 0.23465
C_ C_ 0.877068 0.737664 0.555351 0.23465
C_ C_ 0.626239 0.708049 0.587418 -0.11473
C_ C_ 0.877402 0.775801 0.575856 -0.11473
C_ C_ 0.530344 -0.009948999999999986 0.750982 0.05793
C_ C_ 0.78186 -0.0026410000000000045 0.754759 0.05793
C_ C_ 0.713522 0.495416 0.746526 0.05793
C_ C_ 0.968106 0.498376 0.760268 0.05793
Br Br 0.573154 -0.010295000000000054 0.749096 -0.17191
Br Br 0.826074 0.993943 0.755499 -0.17191
Br Br 0.670529 0.498021 0.747306 -0.17191
Br Br 0.927279 0.498143 0.784556 -0.17191
N_ N_ 0.627454 0.750697 0.863107 -0.272
N_ N_ 0.87217 0.742031 0.853798 -0.272
N_ N_ 0.632067 0.763459 0.995835 -0.12501
N_ N_ 0.877937 0.737058 0.986864 -0.12501
N_ N_ 0.626314 0.747124 0.653479 -0.272
N_ N_ 0.872805 0.743031 0.643871 -0.272
N_ N_ 0.631586 0.742866 0.520648 -0.12501
N_ N_ 0.881355 0.734731 0.511678 -0.12501
O_ O_ 0.593294 0.786918 0.719483 -0.60745
O_ O_ 0.845126 0.795661 0.717814 -0.60745
O_ O_ 0.601063 0.795292 0.787429 -0.60745
O_ O_ 0.841523 0.789829 0.785504 -0.60745
O_ O_ 0.658684 0.788596 0.793838 -0.60745
O_ O_ 0.901526 0.786412 0.778699 -0.60745
O_ O_ 0.654303 0.79527 0.725724 -0.60745
O_ O_ 0.904235 0.784224 0.710439 -0.60745
O_ O_ 0.656029 0.701095 0.791517 -0.60745
O_ O_ 0.898185 0.694909 0.784978 -0.60745
O_ O_ 0.657502 0.704815 0.723436 -0.60745
O_ O_ 0.900241 0.698231 0.716207 -0.60745
O_ O_ 0.59747 0.702416 0.71969 -0.60745
O_ O_ 0.839497 0.703428 0.715133 -0.60745
O_ O_ 0.592151 0.702467 0.789053 -0.60745
O_ O_ 0.840402 0.698668 0.784149 -0.60745
