_cell_length_a 44.444
_cell_length_b 32.3360000049186
_cell_length_c 31.843999878906452
_cell_angle_alpha 89.99799923859553
_cell_angle_beta 91.13600050494348
_cell_angle_gamma 89.9990006550086
_symmetry_space_group_name_H-M         'P 1'
_symmetry_Int_Tables_number            1
loop_
_symmetry_equiv_pos_as_xyz
   'x, y, z'
                         
loop_
_atom_site_label
_atom_site_type_symbol
_atom_site_fract_x 
_atom_site_fract_y
_atom_site_fract_z
_atom_site_charge
Zn Zn 0.124642 0.25202 0.278241 0.9476
Zn Zn 0.373517 0.246332 0.27967 0.9476
Zn Zn 0.126162 0.247462 0.208283 0.9476
Zn Zn 0.373886 0.248545 0.21081 0.9476
H_ H_ 0.0448315 0.421527 0.166767 0.10932
H_ H_ 0.287161 0.423886 0.189063 0.10932
H_ H_ 0.0604662 0.35215 0.30501 0.10932
H_ H_ 0.312254 0.346999 0.320686 0.10932
H_ H_ 0.0731643 0.35759 0.171423 0.10932
H_ H_ 0.315951 0.36349 0.187105 0.10932
H_ H_ 0.0226327 0.409684 0.297868 0.10932
H_ H_ 0.283971 0.41373 0.323519 0.10932
H_ H_ 0.202581 0.427542 0.314653 0.10932
H_ H_ 0.441539 0.430202 0.310302 0.10932
H_ H_ 0.194097 0.346236 0.182902 0.10932
H_ H_ 0.445576 0.347168 0.179444 0.10932
H_ H_ 0.181719 0.356112 0.31506 0.10932
H_ H_ 0.411552 0.365211 0.304986 0.10932
H_ H_ 0.221778 0.416203 0.182614 0.10932
H_ H_ 0.468771 0.414142 0.185863 0.10932
H_ H_ 0.215818 0.0825522 0.31242 0.10932
H_ H_ 0.47539 0.0882478 0.310329 0.10932
H_ H_ 0.179226 0.141798 0.179144 0.10932
H_ H_ 0.433448 0.14392 0.177932 0.10932
H_ H_ 0.183937 0.143842 0.313862 0.10932
H_ H_ 0.442823 0.15308 0.311418 0.10932
H_ H_ 0.203087 0.0727821 0.179538 0.10932
H_ H_ 0.467878 0.0837476 0.178343 0.10932
H_ H_ 0.0362152 0.0769846 0.180387 0.10932
H_ H_ 0.2635 0.101065 0.179604 0.10932
H_ H_ 0.0686851 0.150337 0.312427 0.10932
H_ H_ 0.340013 0.121824 0.294979 0.10932
H_ H_ 0.0680981 0.140673 0.177346 0.10932
H_ H_ 0.298673 0.161276 0.177829 0.10932
H_ H_ 0.0400356 0.0804653 0.312846 0.10932
H_ H_ 0.304758 0.0602488 0.29665 0.10932
H_ H_ 0.133618 0.184381 0.345838 0.10932
H_ H_ 0.377821 0.182613 0.34901 0.10932
H_ H_ 0.122806 0.313852 0.356639 0.10932
H_ H_ 0.36857 0.310579 0.353754 0.10932
H_ H_ 0.129214 0.309427 0.436469 0.10932
H_ H_ 0.373188 0.30895 0.438082 0.10932
H_ H_ 0.129801 0.177481 0.424464 0.10932
H_ H_ 0.372366 0.175795 0.426885 0.10932
H_ H_ 0.117342 0.311918 0.138476 0.10932
H_ H_ 0.411196 0.207777 0.134936 0.10932
H_ H_ 0.128624 0.1851 0.130315 0.10932
H_ H_ 0.330798 0.280272 0.136529 0.10932
H_ H_ 0.127264 0.190011 0.0512075 0.10932
H_ H_ 0.33563 0.294756 0.0607526 0.10932
H_ H_ 0.108773 0.317638 0.0640384 0.10932
H_ H_ 0.415807 0.218196 0.0610778 0.10932
C_ C_ 0.0661039 0.348036 0.239854 -0.02249
C_ C_ 0.317485 0.351195 0.25245 -0.02249
C_ C_ 0.0149188 0.458881 0.229748 -0.02249
C_ C_ 0.265514 0.464021 0.259301 -0.02249
C_ C_ 0.0459996 0.404116 0.196883 -0.11473
C_ C_ 0.292587 0.409387 0.217337 -0.11473
C_ C_ 0.0543548 0.364711 0.274247 -0.11473
C_ C_ 0.307735 0.364995 0.291861 -0.11473
C_ C_ 0.063115 0.369063 0.200783 -0.11473
C_ C_ 0.309302 0.374075 0.217363 -0.11473
C_ C_ 0.0310043 0.419718 0.231918 -0.02249
C_ C_ 0.283275 0.425546 0.256709 -0.02249
C_ C_ 0.0862326 0.310489 0.244164 0.6875
C_ C_ 0.337375 0.314128 0.249772 0.6875
C_ C_ 0.0347089 0.398757 0.269476 -0.11473
C_ C_ 0.288978 0.401309 0.293151 -0.11473
C_ C_ 0.184058 0.347631 0.248168 -0.02249
C_ C_ 0.430202 0.346023 0.246784 -0.02249
C_ C_ 0.234923 0.462501 0.251298 -0.02249
C_ C_ 0.480513 0.461638 0.258042 -0.02249
C_ C_ 0.201809 0.409382 0.285926 -0.11473
C_ C_ 0.444388 0.410044 0.284124 -0.11473
C_ C_ 0.199439 0.360521 0.212002 -0.11473
C_ C_ 0.444365 0.362758 0.210047 -0.11473
C_ C_ 0.187367 0.370753 0.285653 -0.11473
C_ C_ 0.426374 0.373178 0.281657 -0.11473
C_ C_ 0.218803 0.421823 0.24975 -0.02249
C_ C_ 0.463683 0.420852 0.252221 -0.02249
C_ C_ 0.165413 0.3083 0.247933 0.6875
C_ C_ 0.414929 0.305016 0.24436 0.6875
C_ C_ 0.214533 0.40011 0.21191 -0.11473
C_ C_ 0.46176 0.398722 0.213716 -0.11473
C_ C_ 0.180818 0.149664 0.245571 -0.02249
C_ C_ 0.434455 0.151584 0.244166 -0.02249
C_ C_ 0.230634 0.0363922 0.244566 -0.02249
C_ C_ 0.48372 0.0367212 0.24432 -0.02249
C_ C_ 0.205602 0.093723 0.284992 -0.11473
C_ C_ 0.462849 0.0980412 0.282997 -0.11473
C_ C_ 0.187647 0.129999 0.206875 -0.11473
C_ C_ 0.438961 0.129143 0.206539 -0.11473
C_ C_ 0.191059 0.130889 0.283491 -0.11473
C_ C_ 0.446562 0.135892 0.282245 -0.11473
C_ C_ 0.211336 0.0735894 0.244804 -0.02249
C_ C_ 0.468861 0.0779084 0.244959 -0.02249
C_ C_ 0.162967 0.189737 0.243878 0.6875
C_ C_ 0.413247 0.186768 0.245475 0.6875
C_ C_ 0.20364 0.0921851 0.207082 -0.11473
C_ C_ 0.45851 0.0952238 0.206566 -0.11473
C_ C_ 0.0672236 0.151102 0.242944 -0.02249
C_ C_ 0.319479 0.147004 0.238696 -0.02249
C_ C_ 0.0150628 0.039915 0.249494 -0.02249
C_ C_ 0.261386 0.0381733 0.236294 -0.02249
C_ C_ 0.0430485 0.0934106 0.208275 -0.11473
C_ C_ 0.282479 0.103127 0.201729 -0.11473
C_ C_ 0.0616738 0.134789 0.283471 -0.11473
C_ C_ 0.321203 0.118702 0.273173 -0.11473
C_ C_ 0.0588344 0.13099 0.206847 -0.11473
C_ C_ 0.301299 0.138027 0.202917 -0.11473
C_ C_ 0.0321529 0.0790141 0.247978 -0.02249
C_ C_ 0.281148 0.0768878 0.238774 -0.02249
C_ C_ 0.0854057 0.189463 0.24149 0.6875
C_ C_ 0.333181 0.189048 0.243926 0.6875
C_ C_ 0.0424329 0.0981455 0.284791 -0.11473
C_ C_ 0.30139 0.085269 0.274794 -0.11473
C_ C_ 0.131773 0.212041 0.366621 0.17695
C_ C_ 0.379485 0.209134 0.368326 0.17695
C_ C_ 0.126281 0.284317 0.371977 0.17695
C_ C_ 0.371434 0.282204 0.372137 0.17695
C_ C_ 0.125577 0.281696 0.416903 -0.11473
C_ C_ 0.37329 0.280711 0.417976 -0.11473
C_ C_ 0.125328 0.243272 0.435762 0.23465
C_ C_ 0.376824 0.239679 0.438321 0.23465
C_ C_ 0.129313 0.20807 0.411183 -0.11473
C_ C_ 0.377564 0.205525 0.413195 -0.11473
C_ C_ 0.117175 0.284688 0.119957 0.17695
C_ C_ 0.392192 0.224729 0.119283 0.17695
C_ C_ 0.127851 0.214671 0.114897 0.17695
C_ C_ 0.350103 0.267406 0.120851 0.17695
C_ C_ 0.127386 0.217475 0.0697624 -0.11473
C_ C_ 0.351873 0.273532 0.077148 -0.11473
C_ C_ 0.121947 0.255476 0.0497388 0.23465
C_ C_ 0.374994 0.256627 0.0543011 0.23465
C_ C_ 0.115293 0.289085 0.0758921 -0.11473
C_ C_ 0.395583 0.229642 0.0762126 -0.11473
C_ C_ 0.0310569 0.495902 0.228543 0.05793
C_ C_ 0.281719 0.501632 0.265489 0.05793
C_ C_ 0.214852 -0.0013360000000000039 0.244052 0.05793
C_ C_ 0.468155 0.999285 0.24926 0.05793
Br Br 0.074488 0.496659 0.23207 -0.17191
Br Br 0.323794 0.505348 0.279977 -0.17191
Br Br 0.170734 -0.0040200000000000236 0.245546 -0.17191
Br Br 0.426889 1.00112608 0.261721 -0.17191
N_ N_ 0.13064 0.249466 0.34863 -0.272
N_ N_ 0.375637 0.246446 0.349921 -0.272
N_ N_ 0.127748 0.239953 0.480405 -0.12501
N_ N_ 0.372235 0.236237 0.482882 -0.12501
N_ N_ 0.123339 0.249141 0.138225 -0.272
N_ N_ 0.373862 0.248796 0.142078 -0.272
N_ N_ 0.119327 0.261883 0.00430731 -0.12501
N_ N_ 0.373395 0.260365 0.010255 -0.12501
O_ O_ 0.0952811 0.291825 0.209945 -0.60745
O_ O_ 0.342923 0.297478 0.213358 -0.60745
O_ O_ 0.093195 0.296606 0.278575 -0.60745
O_ O_ 0.344534 0.293762 0.283075 -0.60745
O_ O_ 0.15705 0.292768 0.282575 -0.60745
O_ O_ 0.404542 0.291187 0.276997 -0.60745
O_ O_ 0.155458 0.294745 0.213627 -0.60745
O_ O_ 0.406317 0.292015 0.209222 -0.60745
O_ O_ 0.153472 0.206362 0.275745 -0.60745
O_ O_ 0.404274 0.198609 0.2802 -0.60745
O_ O_ 0.155612 0.20677 0.208738 -0.60745
O_ O_ 0.406572 0.207793 0.21386 -0.60745
O_ O_ 0.0928953 0.204218 0.206962 -0.60745
O_ O_ 0.340677 0.207795 0.21022 -0.60745
O_ O_ 0.0922241 0.207911 0.276156 -0.60745
O_ O_ 0.340706 0.202828 0.278432 -0.60745
Zn Zn 0.123047 0.246601 0.774729 0.9476
Zn Zn 0.379766 0.249513 0.782232 0.9476
Zn Zn 0.122404 0.248393 0.705197 0.9476
Zn Zn 0.380027 0.24812 0.711868 0.9476
H_ H_ 0.0416599 0.429361 0.681188 0.10932
H_ H_ 0.302888 0.429149 0.685111 0.10932
H_ H_ 0.0690414 0.353627 0.811536 0.10932
H_ H_ 0.296542 0.334911 0.803256 0.10932
H_ H_ 0.0559962 0.358052 0.674971 0.10932
H_ H_ 0.333941 0.365324 0.690558 0.10932
H_ H_ 0.0379029 0.413246 0.815627 0.10932
H_ H_ 0.270914 0.400566 0.808668 0.10932
H_ H_ 0.200418 0.425632 0.808025 0.10932
H_ H_ 0.466061 0.418606 0.827846 0.10932
H_ H_ 0.195247 0.344185 0.673965 0.10932
H_ H_ 0.443383 0.353553 0.687878 0.10932
H_ H_ 0.171202 0.363305 0.803856 0.10932
H_ H_ 0.437439 0.349223 0.825746 0.10932
H_ H_ 0.221571 0.410322 0.677368 0.10932
H_ H_ 0.462909 0.421167 0.690688 0.10932
H_ H_ 0.207127 0.0741867 0.805878 0.10932
H_ H_ 0.485104 0.0988595 0.812188 0.10932
H_ H_ 0.192059 0.15223 0.670413 0.10932
H_ H_ 0.433179 0.135031 0.678919 0.10932
H_ H_ 0.176268 0.139994 0.805107 0.10932
H_ H_ 0.453836 0.16162 0.804078 0.10932
H_ H_ 0.232287 0.0982008 0.672224 0.10932
H_ H_ 0.463273 0.0678712 0.681859 0.10932
H_ H_ 0.0328961 0.0731038 0.678562 0.10932
H_ H_ 0.304334 0.06428 0.680836 0.10932
H_ H_ 0.0650826 0.145352 0.81137 0.10932
H_ H_ 0.311671 0.154293 0.805646 0.10932
H_ H_ 0.0640552 0.140501 0.671579 0.10932
H_ H_ 0.331887 0.135316 0.676965 0.10932
H_ H_ 0.0353147 0.0849724 0.813428 0.10932
H_ H_ 0.276796 0.098958 0.802954 0.10932
H_ H_ 0.145402 0.307279 0.854764 0.10932
H_ H_ 0.375603 0.310632 0.864927 0.10932
H_ H_ 0.118251 0.183538 0.844229 0.10932
H_ H_ 0.3873 0.182712 0.851933 0.10932
H_ H_ 0.116386 0.175256 0.92196 0.10932
H_ H_ 0.385871 0.175329 0.932056 0.10932
H_ H_ 0.136913 0.30542 0.929751 0.10932
H_ H_ 0.368114 0.302699 0.940272 0.10932
H_ H_ 0.131745 0.191523 0.624568 0.10932
H_ H_ 0.388392 0.187415 0.632141 0.10932
H_ H_ 0.107732 0.317806 0.637448 0.10932
H_ H_ 0.369415 0.313486 0.645202 0.10932
H_ H_ 0.103026 0.322204 0.558872 0.10932
H_ H_ 0.363495 0.319951 0.569173 0.10932
H_ H_ 0.128535 0.194053 0.549094 0.10932
H_ H_ 0.385582 0.194666 0.552715 0.10932
C_ C_ 0.0683697 0.35218 0.74371 -0.02249
C_ C_ 0.320543 0.346458 0.749124 -0.02249
C_ C_ 0.0170201 0.462382 0.751912 -0.02249
C_ C_ 0.267792 0.459663 0.748754 -0.02249
C_ C_ 0.0397743 0.408775 0.707901 -0.11473
C_ C_ 0.30233 0.407739 0.712345 -0.11473
C_ C_ 0.0615962 0.368901 0.78272 -0.11473
C_ C_ 0.301112 0.35576 0.780736 -0.11473
C_ C_ 0.0550231 0.370214 0.70703 -0.11473
C_ C_ 0.317858 0.370037 0.712337 -0.11473
C_ C_ 0.0335571 0.424373 0.74878 -0.02249
C_ C_ 0.284523 0.419341 0.747923 -0.02249
C_ C_ 0.0866735 0.312731 0.742229 0.6875
C_ C_ 0.338189 0.30801 0.750232 0.6875
C_ C_ 0.0423898 0.402688 0.785665 -0.11473
C_ C_ 0.283339 0.39206 0.781375 -0.11473
C_ C_ 0.184274 0.345484 0.741175 -0.02249
C_ C_ 0.44086 0.343573 0.756816 -0.02249
C_ C_ 0.236104 0.460093 0.74668 -0.02249
C_ C_ 0.487995 0.460236 0.76312 -0.02249
C_ C_ 0.201435 0.40655 0.779286 -0.11473
C_ C_ 0.460007 0.403089 0.797395 -0.11473
C_ C_ 0.199024 0.359729 0.704955 -0.11473
C_ C_ 0.448311 0.366173 0.719479 -0.11473
C_ C_ 0.185389 0.369001 0.777096 -0.11473
C_ C_ 0.445376 0.36411 0.795265 -0.11473
C_ C_ 0.217434 0.420328 0.744035 -0.02249
C_ C_ 0.469005 0.422323 0.75989 -0.02249
C_ C_ 0.164432 0.30741 0.74015 0.6875
C_ C_ 0.420274 0.306846 0.755721 0.6875
C_ C_ 0.212427 0.398642 0.706077 -0.11473
C_ C_ 0.46097 0.405273 0.719776 -0.11473
C_ C_ 0.184616 0.153888 0.738201 -0.02249
C_ C_ 0.438639 0.150199 0.742448 -0.02249
C_ C_ 0.238258 0.0410239 0.737563 -0.02249
C_ C_ 0.49056 0.0387747 0.752504 -0.02249
C_ C_ 0.205238 0.0934222 0.777103 -0.11473
C_ C_ 0.47329 0.105967 0.781018 -0.11473
C_ C_ 0.19916 0.138995 0.700635 -0.11473
C_ C_ 0.44398 0.126916 0.706433 -0.11473
C_ C_ 0.187238 0.129559 0.776981 -0.11473
C_ C_ 0.45483 0.140587 0.778666 -0.11473
C_ C_ 0.223443 0.082281 0.740923 -0.02249
C_ C_ 0.474767 0.0775114 0.747136 -0.02249
C_ C_ 0.165063 0.19052 0.734096 0.6875
C_ C_ 0.421929 0.190458 0.741035 0.6875
C_ C_ 0.220522 0.10668 0.703271 -0.11473
C_ C_ 0.462972 0.0903368 0.70837 -0.11473
C_ C_ 0.0649683 0.149831 0.741411 -0.02249
C_ C_ 0.321637 0.152905 0.739774 -0.02249
C_ C_ 0.0147095 0.038356 0.7463 -0.02249
C_ C_ 0.269522 0.0397674 0.742834 -0.02249
C_ C_ 0.0414889 0.0916023 0.705525 -0.11473
C_ C_ 0.30471 0.0869809 0.706589 -0.11473
C_ C_ 0.0595204 0.131024 0.779721 -0.11473
C_ C_ 0.309863 0.136673 0.775983 -0.11473
C_ C_ 0.0563921 0.130056 0.702972 -0.11473
C_ C_ 0.323706 0.123614 0.70753 -0.11473
C_ C_ 0.0327793 0.076893 0.744671 -0.02249
C_ C_ 0.287525 0.0778358 0.740123 -0.02249
C_ C_ 0.0837788 0.188989 0.740934 0.6875
C_ C_ 0.341248 0.187991 0.740312 0.6875
C_ C_ 0.0411497 0.096231 0.782321 -0.11473
C_ C_ 0.289944 0.103959 0.775737 -0.11473
C_ C_ 0.135489 0.279844 0.870216 0.17695
C_ C_ 0.374063 0.279787 0.878876 0.17695
C_ C_ 0.120512 0.209486 0.865856 0.17695
C_ C_ 0.382213 0.20703 0.871753 0.17695
C_ C_ 0.122956 0.205413 0.90949 -0.11473
C_ C_ 0.385444 0.203881 0.916094 -0.11473
C_ C_ 0.128254 0.239078 0.935138 0.23465
C_ C_ 0.383179 0.239405 0.942189 0.23465
C_ C_ 0.135013 0.277296 0.913809 -0.11473
C_ C_ 0.374971 0.277364 0.921972 -0.11473
C_ C_ 0.127951 0.220975 0.611323 0.17695
C_ C_ 0.380323 0.215292 0.616489 0.17695
C_ C_ 0.112279 0.291528 0.61761 0.17695
C_ C_ 0.372258 0.287121 0.625744 0.17695
C_ C_ 0.110798 0.294256 0.573037 -0.11473
C_ C_ 0.371907 0.292448 0.581913 -0.11473
C_ C_ 0.118972 0.260164 0.548275 0.23465
C_ C_ 0.376533 0.259674 0.553642 0.23465
C_ C_ 0.12563 0.222072 0.567506 -0.11473
C_ C_ 0.380492 0.219944 0.572416 -0.11473
C_ C_ 0.0320861 0.500184 0.749619 0.05793
C_ C_ 0.282765 0.49701 0.762922 0.05793
C_ C_ 0.22088 0.00316464 0.737934 0.05793
C_ C_ 0.472482 1.0023247 0.746435 0.05793
Br Br 0.0734833 0.502078 0.736817 -0.17191
Br Br 0.324994 0.496438 0.76803 -0.17191
Br Br 0.179622 0.00297382 0.735666 -0.17191
Br Br 0.429671 1.00556961 0.739889 -0.17191
N_ N_ 0.12739 0.247089 0.84713 -0.272
N_ N_ 0.378944 0.246722 0.854183 -0.272
N_ N_ 0.12776 0.233837 0.980343 -0.12501
N_ N_ 0.38486 0.23452 0.986806 -0.12501
N_ N_ 0.119584 0.254184 0.634709 -0.272
N_ N_ 0.377492 0.249414 0.641678 -0.272
N_ N_ 0.11525 0.264699 0.503875 -0.12501
N_ N_ 0.377627 0.26564 0.508472 -0.12501
O_ O_ 0.0934434 0.297469 0.708586 -0.60745
O_ O_ 0.347702 0.290326 0.716874 -0.60745
O_ O_ 0.0948512 0.295024 0.776226 -0.60745
O_ O_ 0.350333 0.298833 0.786084 -0.60745
O_ O_ 0.153655 0.292041 0.774132 -0.60745
O_ O_ 0.414781 0.287792 0.789032 -0.60745
O_ O_ 0.156934 0.288743 0.705287 -0.60745
O_ O_ 0.407716 0.294982 0.720899 -0.60745
O_ O_ 0.155836 0.204753 0.768534 -0.60745
O_ O_ 0.410319 0.202117 0.7758 -0.60745
O_ O_ 0.152921 0.202866 0.700606 -0.60745
O_ O_ 0.411385 0.203731 0.707399 -0.60745
O_ O_ 0.0885936 0.208373 0.707222 -0.60745
O_ O_ 0.348156 0.204921 0.706276 -0.60745
O_ O_ 0.0938121 0.203635 0.77726 -0.60745
O_ O_ 0.351052 0.202907 0.774148 -0.60745
Zn Zn 0.118544 0.748796 0.280279 0.9476
Zn Zn 0.373369 0.751058 0.287854 0.9476
Zn Zn 0.12034 0.747195 0.210965 0.9476
Zn Zn 0.375329 0.750355 0.218351 0.9476
H_ H_ 0.0178273 0.909941 0.185534 0.10932
H_ H_ 0.276882 0.91146 0.175995 0.10932
H_ H_ 0.0661936 0.856406 0.314085 0.10932
H_ H_ 0.315746 0.861251 0.312621 0.10932
H_ H_ 0.0469132 0.846667 0.181555 0.10932
H_ H_ 0.312892 0.856357 0.178856 0.10932
H_ H_ 0.0353256 0.917093 0.316555 0.10932
H_ H_ 0.290675 0.928274 0.309894 0.10932
H_ H_ 0.209915 0.918306 0.31244 0.10932
H_ H_ 0.471188 0.916752 0.319651 0.10932
H_ H_ 0.188463 0.846001 0.176782 0.10932
H_ H_ 0.436776 0.856255 0.184838 0.10932
H_ H_ 0.182548 0.851218 0.31237 0.10932
H_ H_ 0.438782 0.853781 0.319099 0.10932
H_ H_ 0.21544 0.912588 0.176831 0.10932
H_ H_ 0.463819 0.915532 0.182496 0.10932
H_ H_ 0.205314 0.574409 0.318372 0.10932
H_ H_ 0.466041 0.585071 0.32479 0.10932
H_ H_ 0.197597 0.659236 0.187824 0.10932
H_ H_ 0.43726 0.647329 0.18708 0.10932
H_ H_ 0.176019 0.642537 0.31506 0.10932
H_ H_ 0.433362 0.648194 0.322359 0.10932
H_ H_ 0.229318 0.593266 0.194349 0.10932
H_ H_ 0.461408 0.577298 0.191384 0.10932
H_ H_ 0.0419892 0.581965 0.17036 0.10932
H_ H_ 0.310874 0.56237 0.206698 0.10932
H_ H_ 0.0547076 0.644119 0.31017 0.10932
H_ H_ 0.2944 0.665421 0.312306 0.10932
H_ H_ 0.071137 0.643409 0.177836 0.10932
H_ H_ 0.33945 0.622087 0.200164 0.10932
H_ H_ 0.0272636 0.57726 0.301472 0.10932
H_ H_ 0.266188 0.59976 0.314622 0.10932
H_ H_ 0.129748 0.81403 0.352538 0.10932
H_ H_ 0.393404 0.818258 0.356081 0.10932
H_ H_ 0.117049 0.686774 0.35398 0.10932
H_ H_ 0.354561 0.697089 0.365603 0.10932
H_ H_ 0.122011 0.687336 0.430796 0.10932
H_ H_ 0.352242 0.706229 0.441529 0.10932
H_ H_ 0.12441 0.81606 0.432671 0.10932
H_ H_ 0.395558 0.823234 0.436361 0.10932
H_ H_ 0.122464 0.67762 0.137498 0.10932
H_ H_ 0.357245 0.814134 0.145327 0.10932
H_ H_ 0.128594 0.805526 0.133288 0.10932
H_ H_ 0.387798 0.690377 0.143315 0.10932
H_ H_ 0.118692 0.80727 0.0545884 0.10932
H_ H_ 0.390447 0.692606 0.0642209 0.10932
H_ H_ 0.123518 0.676873 0.0596358 0.10932
H_ H_ 0.363333 0.823717 0.0708359 0.10932
C_ C_ 0.0652683 0.851101 0.245028 -0.02249
C_ C_ 0.316984 0.851107 0.246969 -0.02249
C_ C_ 0.0149468 0.964692 0.251458 -0.02249
C_ C_ 0.263577 0.962272 0.23866 -0.02249
C_ C_ 0.0335752 0.903246 0.210961 -0.11473
C_ C_ 0.283748 0.897672 0.206966 -0.11473
C_ C_ 0.0600839 0.871797 0.284059 -0.11473
C_ C_ 0.309683 0.873141 0.28268 -0.11473
C_ C_ 0.0495681 0.865601 0.208794 -0.11473
C_ C_ 0.302557 0.863596 0.208767 -0.11473
C_ C_ 0.0317525 0.924862 0.248923 -0.02249
C_ C_ 0.280094 0.922563 0.242535 -0.02249
C_ C_ 0.083655 0.814012 0.245392 0.6875
C_ C_ 0.336409 0.813425 0.249239 0.6875
C_ C_ 0.0429 0.907033 0.286064 -0.11473
C_ C_ 0.292886 0.910445 0.280808 -0.11473
C_ C_ 0.180486 0.843627 0.245022 -0.02249
C_ C_ 0.436114 0.848358 0.252971 -0.02249
C_ C_ 0.230803 0.960946 0.24199 -0.02249
C_ C_ 0.484996 0.96144 0.249626 -0.02249
C_ C_ 0.205424 0.901846 0.281753 -0.11473
C_ C_ 0.463428 0.901964 0.289992 -0.11473
C_ C_ 0.190694 0.861807 0.206263 -0.11473
C_ C_ 0.441935 0.868452 0.21422 -0.11473
C_ C_ 0.185838 0.866694 0.282991 -0.11473
C_ C_ 0.44628 0.86488 0.290119 -0.11473
C_ C_ 0.212709 0.91887 0.244118 -0.02249
C_ C_ 0.467493 0.923357 0.250886 -0.02249
C_ C_ 0.164354 0.803033 0.244501 0.6875
C_ C_ 0.417171 0.809224 0.251894 0.6875
C_ C_ 0.207751 0.898474 0.205456 -0.11473
C_ C_ 0.458607 0.903471 0.213514 -0.11473
C_ C_ 0.181761 0.652894 0.251062 -0.02249
C_ C_ 0.43386 0.653249 0.255197 -0.02249
C_ C_ 0.234798 0.538848 0.255602 -0.02249
C_ C_ 0.481066 0.536628 0.258335 -0.02249
C_ C_ 0.203267 0.593009 0.29 -0.11473
C_ C_ 0.457922 0.594734 0.295399 -0.11473
C_ C_ 0.199915 0.640572 0.217805 -0.11473
C_ C_ 0.442519 0.634548 0.217976 -0.11473
C_ C_ 0.185289 0.629388 0.287341 -0.11473
C_ C_ 0.442389 0.635351 0.293375 -0.11473
C_ C_ 0.216983 0.578232 0.25495 -0.02249
C_ C_ 0.465084 0.576664 0.256814 -0.02249
C_ C_ 0.160352 0.688928 0.247006 0.6875
C_ C_ 0.414118 0.692605 0.253129 0.6875
C_ C_ 0.216016 0.602051 0.219369 -0.11473
C_ C_ 0.455926 0.59541 0.219307 -0.11473
C_ C_ 0.0629355 0.651601 0.243075 -0.02249
C_ C_ 0.3183 0.652874 0.254585 -0.02249
C_ C_ 0.0160665 0.535581 0.229009 -0.02249
C_ C_ 0.26626 0.53868 0.257415 -0.02249
C_ C_ 0.0455721 0.593958 0.201301 -0.11473
C_ C_ 0.3058 0.585468 0.225896 -0.11473
C_ C_ 0.0517853 0.630758 0.279291 -0.11473
C_ C_ 0.295887 0.645553 0.285599 -0.11473
C_ C_ 0.0598742 0.631977 0.204643 -0.11473
C_ C_ 0.321031 0.621783 0.223483 -0.11473
C_ C_ 0.0321205 0.575537 0.234814 -0.02249
C_ C_ 0.283801 0.577097 0.25716 -0.02249
C_ C_ 0.0765192 0.694039 0.24382 0.6875
C_ C_ 0.33804 0.690166 0.256779 0.6875
C_ C_ 0.0343609 0.594645 0.274881 -0.11473
C_ C_ 0.280141 0.607767 0.2877 -0.11473
C_ C_ 0.123745 0.786051 0.370992 0.17695
C_ C_ 0.386281 0.79203 0.375322 0.17695
C_ C_ 0.114716 0.714462 0.372744 0.17695
C_ C_ 0.365826 0.724273 0.380507 0.17695
C_ C_ 0.117656 0.715773 0.415945 -0.11473
C_ C_ 0.36365 0.728166 0.424532 -0.11473
C_ C_ 0.11594 0.75301 0.43808 0.23465
C_ C_ 0.374193 0.764222 0.444411 0.23465
C_ C_ 0.120611 0.787991 0.414062 -0.11473
C_ C_ 0.386624 0.795396 0.42055 -0.11473
C_ C_ 0.125221 0.705343 0.120027 0.17695
C_ C_ 0.367794 0.788332 0.126885 0.17695
C_ C_ 0.122939 0.779611 0.115763 0.17695
C_ C_ 0.382975 0.718823 0.12575 0.17695
C_ C_ 0.122869 0.778191 0.0712421 -0.11473
C_ C_ 0.385384 0.719782 0.0813986 -0.11473
C_ C_ 0.126044 0.739815 0.0511289 0.23465
C_ C_ 0.377232 0.757737 0.0600194 0.23465
C_ C_ 0.12889 0.704588 0.0756528 -0.11473
C_ C_ 0.367922 0.791912 0.0840351 -0.11473
C_ C_ 0.0308606 1.00276416 0.251375 0.05793
C_ C_ 0.277471 1.000078572 0.230203 0.05793
C_ C_ 0.218842 0.500515 0.246743 0.05793
C_ C_ 0.464889 0.499701 0.260522 0.05793
Br Br 0.0723048 0.00578562 0.233935 -0.17191
Br Br 0.319407 0.997749 0.215315 -0.17191
Br Br 0.176611 0.503317 0.228376 -0.17191
Br Br 0.42287 0.501787 0.243793 -0.17191
N_ N_ 0.11771 0.750187 0.350173 -0.272
N_ N_ 0.375387 0.756335 0.356982 -0.272
N_ N_ 0.115057 0.757434 0.482982 -0.12501
N_ N_ 0.370151 0.769232 0.48938 -0.12501
N_ N_ 0.122021 0.743359 0.138441 -0.272
N_ N_ 0.372086 0.752704 0.146988 -0.272
N_ N_ 0.126348 0.736017 0.00635314 -0.12501
N_ N_ 0.376137 0.760605 0.0151545 -0.12501
O_ O_ 0.0911978 0.796283 0.210569 -0.60745
O_ O_ 0.344367 0.794401 0.216849 -0.60745
O_ O_ 0.0928058 0.798801 0.281156 -0.60745
O_ O_ 0.343465 0.797038 0.2842 -0.60745
O_ O_ 0.154784 0.788627 0.278993 -0.60745
O_ O_ 0.404497 0.797132 0.285219 -0.60745
O_ O_ 0.153639 0.788909 0.208424 -0.60745
O_ O_ 0.406455 0.797282 0.217406 -0.60745
O_ O_ 0.147302 0.702716 0.280919 -0.60745
O_ O_ 0.40293 0.706476 0.286934 -0.60745
O_ O_ 0.151533 0.700765 0.210931 -0.60745
O_ O_ 0.407465 0.709055 0.21791 -0.60745
O_ O_ 0.0888061 0.705207 0.211261 -0.60745
O_ O_ 0.347553 0.705864 0.224421 -0.60745
O_ O_ 0.0845395 0.709333 0.278186 -0.60745
O_ O_ 0.342306 0.708232 0.291859 -0.60745
Zn Zn 0.127214 0.749761 0.778015 0.9476
Zn Zn 0.379341 0.751311 0.787224 0.9476
Zn Zn 0.125531 0.750467 0.710421 0.9476
Zn Zn 0.377328 0.744708 0.718577 0.9476
H_ H_ 0.0429517 0.927297 0.678336 0.10932
H_ H_ 0.297826 0.925723 0.683908 0.10932
H_ H_ 0.0503512 0.841201 0.804473 0.10932
H_ H_ 0.299488 0.839496 0.813786 0.10932
H_ H_ 0.0679008 0.864464 0.674858 0.10932
H_ H_ 0.325508 0.857593 0.685251 0.10932
H_ H_ 0.0238811 0.906348 0.809089 0.10932
H_ H_ 0.269809 0.907137 0.810594 0.10932
H_ H_ 0.211926 0.926848 0.813045 0.10932
H_ H_ 0.467067 0.921512 0.812261 0.10932
H_ H_ 0.194272 0.843065 0.684803 0.10932
H_ H_ 0.436818 0.8494 0.681686 0.10932
H_ H_ 0.180767 0.861011 0.816486 0.10932
H_ H_ 0.437783 0.861264 0.814615 0.10932
H_ H_ 0.224017 0.905424 0.682251 0.10932
H_ H_ 0.460104 0.91975 0.679265 0.10932
H_ H_ 0.216233 0.580359 0.821242 0.10932
H_ H_ 0.479828 0.592179 0.827444 0.10932
H_ H_ 0.185408 0.639454 0.682681 0.10932
H_ H_ 0.427721 0.628761 0.696763 0.10932
H_ H_ 0.190045 0.646776 0.818187 0.10932
H_ H_ 0.459973 0.66741 0.816421 0.10932
H_ H_ 0.216214 0.578076 0.684976 0.10932
H_ H_ 0.452298 0.562986 0.704666 0.10932
H_ H_ 0.0139547 0.598977 0.68564 0.10932
H_ H_ 0.270338 0.588763 0.696155 0.10932
H_ H_ 0.0848699 0.631325 0.802527 0.10932
H_ H_ 0.330868 0.638394 0.818816 0.10932
H_ H_ 0.0472807 0.658024 0.682857 0.10932
H_ H_ 0.29898 0.656539 0.691725 0.10932
H_ H_ 0.0528185 0.571149 0.810964 0.10932
H_ H_ 0.300653 0.575259 0.822293 0.10932
H_ H_ 0.116336 0.819432 0.84813 0.10932
H_ H_ 0.371141 0.814063 0.869358 0.10932
H_ H_ 0.123365 0.68651 0.857117 0.10932
H_ H_ 0.389031 0.686933 0.855504 0.10932
H_ H_ 0.130785 0.692257 0.937368 0.10932
H_ H_ 0.392203 0.676015 0.928995 0.10932
H_ H_ 0.12832 0.825828 0.927501 0.10932
H_ H_ 0.371571 0.807777 0.946728 0.10932
H_ H_ 0.132208 0.679778 0.643387 0.10932
H_ H_ 0.371043 0.81289 0.639764 0.10932
H_ H_ 0.116317 0.807747 0.631549 0.10932
H_ H_ 0.383949 0.681532 0.644976 0.10932
H_ H_ 0.124112 0.803484 0.553768 0.10932
H_ H_ 0.385013 0.679356 0.566204 0.10932
H_ H_ 0.128978 0.671361 0.562144 0.10932
H_ H_ 0.363978 0.809016 0.564339 0.10932
C_ C_ 0.0631431 0.846471 0.7401 -0.02249
C_ C_ 0.314722 0.84499 0.749434 -0.02249
C_ C_ 0.0144486 0.962294 0.747636 -0.02249
C_ C_ 0.266397 0.962453 0.747444 -0.02249
C_ C_ 0.0440603 0.909105 0.705745 -0.11473
C_ C_ 0.297658 0.904935 0.711328 -0.11473
C_ C_ 0.0492563 0.860282 0.776627 -0.11473
C_ C_ 0.302287 0.86185 0.786893 -0.11473
C_ C_ 0.059835 0.87199 0.704403 -0.11473
C_ C_ 0.311072 0.866032 0.711352 -0.11473
C_ C_ 0.0310828 0.92325 0.743753 -0.02249
C_ C_ 0.283084 0.921399 0.747996 -0.02249
C_ C_ 0.0845133 0.809152 0.739723 0.6875
C_ C_ 0.336726 0.807217 0.750907 0.6875
C_ C_ 0.0326202 0.897944 0.778917 -0.11473
C_ C_ 0.28528 0.897266 0.785594 -0.11473
C_ C_ 0.182892 0.849829 0.7498 -0.02249
C_ C_ 0.438491 0.84623 0.750362 -0.02249
C_ C_ 0.234746 0.965061 0.74409 -0.02249
C_ C_ 0.487295 0.962911 0.7441 -0.02249
C_ C_ 0.206483 0.909314 0.784488 -0.11473
C_ C_ 0.46354 0.905529 0.783755 -0.11473
C_ C_ 0.196612 0.863267 0.712066 -0.11473
C_ C_ 0.444284 0.864677 0.711371 -0.11473
C_ C_ 0.188044 0.872669 0.785275 -0.11473
C_ C_ 0.446082 0.869591 0.785497 -0.11473
C_ C_ 0.216916 0.925752 0.744918 -0.02249
C_ C_ 0.468465 0.924468 0.746776 -0.02249
C_ C_ 0.164169 0.811241 0.748628 0.6875
C_ C_ 0.419452 0.808036 0.754248 0.6875
C_ C_ 0.213838 0.900647 0.710605 -0.11473
C_ C_ 0.459254 0.90462 0.709673 -0.11473
C_ C_ 0.186101 0.651754 0.752093 -0.02249
C_ C_ 0.437988 0.651632 0.756087 -0.02249
C_ C_ 0.236125 0.535886 0.753087 -0.02249
C_ C_ 0.49031 0.536735 0.763892 -0.02249
C_ C_ 0.211191 0.596268 0.790175 -0.11473
C_ C_ 0.472013 0.604219 0.796789 -0.11473
C_ C_ 0.191067 0.629197 0.713322 -0.11473
C_ C_ 0.441033 0.6246 0.723176 -0.11473
C_ C_ 0.19481 0.633201 0.789505 -0.11473
C_ C_ 0.4565 0.643257 0.79269 -0.11473
C_ C_ 0.218281 0.574977 0.752348 -0.02249
C_ C_ 0.474165 0.57778 0.76167 -0.02249
C_ C_ 0.167657 0.691973 0.750872 0.6875
C_ C_ 0.418455 0.688136 0.753132 0.6875
C_ C_ 0.210098 0.592931 0.714441 -0.11473
C_ C_ 0.457457 0.588301 0.725209 -0.11473
C_ C_ 0.0706523 0.647564 0.741854 -0.02249
C_ C_ 0.317173 0.652847 0.754359 -0.02249
C_ C_ 0.0142589 0.538758 0.748063 -0.02249
C_ C_ 0.267674 0.535814 0.763642 -0.02249
C_ C_ 0.0296885 0.605016 0.712964 -0.11473
C_ C_ 0.283424 0.600278 0.722574 -0.11473
C_ C_ 0.0677888 0.624464 0.778541 -0.11473
C_ C_ 0.317809 0.629755 0.79143 -0.11473
C_ C_ 0.0509632 0.637999 0.708942 -0.11473
C_ C_ 0.298669 0.638705 0.720498 -0.11473
C_ C_ 0.0299231 0.580399 0.74835 -0.02249
C_ C_ 0.284156 0.57712 0.75912 -0.02249
C_ C_ 0.0889872 0.687264 0.742935 0.6875
C_ C_ 0.33916 0.68797 0.751269 0.6875
C_ C_ 0.0497679 0.589922 0.782875 -0.11473
C_ C_ 0.299892 0.593629 0.79447 -0.11473
C_ C_ 0.120661 0.79173 0.867625 0.17695
C_ C_ 0.375449 0.784573 0.884209 0.17695
C_ C_ 0.122217 0.718483 0.872223 0.17695
C_ C_ 0.386462 0.713119 0.875736 0.17695
C_ C_ 0.123592 0.720653 0.918265 -0.11473
C_ C_ 0.389993 0.70872 0.919277 -0.11473
C_ C_ 0.124981 0.760565 0.935951 0.23465
C_ C_ 0.384755 0.741258 0.946233 0.23465
C_ C_ 0.125502 0.796099 0.912502 -0.11473
C_ C_ 0.377697 0.780983 0.927666 -0.11473
C_ C_ 0.129964 0.706216 0.621035 0.17695
C_ C_ 0.372762 0.782991 0.624293 0.17695
C_ C_ 0.12089 0.780081 0.616499 0.17695
C_ C_ 0.377075 0.708794 0.627897 0.17695
C_ C_ 0.121573 0.776847 0.572345 -0.11473
C_ C_ 0.379966 0.707422 0.583476 -0.11473
C_ C_ 0.123562 0.73684 0.552326 0.23465
C_ C_ 0.373678 0.742644 0.558346 0.23465
C_ C_ 0.127023 0.70161 0.576937 -0.11473
C_ C_ 0.36683 0.779933 0.580256 -0.11473
C_ C_ 0.0300892 5.87789e-05 0.742848 0.05793
C_ C_ 0.28342 0.00122031 0.748333 0.05793
C_ C_ 0.220296 0.497865 0.746186 0.05793
C_ C_ 0.473757 0.498333 0.765549 0.05793
Br Br 0.074465 0.000363503 0.743152 -0.17191
Br Br 0.32608 -0.0021719999999999517 0.769546 -0.17191
Br Br 0.177695 0.500415 0.728005 -0.17191
Br Br 0.430739 0.50469 0.774096 -0.17191
N_ N_ 0.120236 0.754718 0.848012 -0.272
N_ N_ 0.379595 0.75017 0.859074 -0.272
N_ N_ 0.129231 0.765497 0.981951 -0.12501
N_ N_ 0.390406 0.738466 0.990326 -0.12501
N_ N_ 0.125901 0.744508 0.638856 -0.272
N_ N_ 0.376332 0.746422 0.646305 -0.272
N_ N_ 0.127183 0.732483 0.507579 -0.12501
N_ N_ 0.378462 0.741471 0.514668 -0.12501
O_ O_ 0.0926743 0.792499 0.705212 -0.60745
O_ O_ 0.348649 0.792005 0.718907 -0.60745
O_ O_ 0.0942423 0.794178 0.774647 -0.60745
O_ O_ 0.348337 0.796209 0.7863 -0.60745
O_ O_ 0.158605 0.791667 0.782331 -0.60745
O_ O_ 0.411292 0.794481 0.789445 -0.60745
O_ O_ 0.152876 0.79925 0.712918 -0.60745
O_ O_ 0.406539 0.793882 0.720944 -0.60745
O_ O_ 0.156638 0.706852 0.784394 -0.60745
O_ O_ 0.409878 0.705013 0.786588 -0.60745
O_ O_ 0.163164 0.71015 0.715276 -0.60745
O_ O_ 0.409055 0.701856 0.717498 -0.60745
O_ O_ 0.0980718 0.70337 0.708922 -0.60745
O_ O_ 0.349482 0.697912 0.716365 -0.60745
O_ O_ 0.0983247 0.703112 0.776858 -0.60745
O_ O_ 0.345627 0.70977 0.783799 -0.60745
Zn Zn 0.622826 0.252285 0.289237 0.9476
Zn Zn 0.873614 0.251807 0.287714 0.9476
Zn Zn 0.627522 0.255205 0.220401 0.9476
Zn Zn 0.86916 0.249299 0.21754 0.9476
H_ H_ 0.528003 0.416036 0.184902 0.10932
H_ H_ 0.774676 0.416928 0.187307 0.10932
H_ H_ 0.558042 0.355377 0.32286 0.10932
H_ H_ 0.82313 0.362977 0.315865 0.10932
H_ H_ 0.56218 0.350162 0.190232 0.10932
H_ H_ 0.798268 0.347393 0.185935 0.10932
H_ H_ 0.525189 0.414237 0.322607 0.10932
H_ H_ 0.794825 0.423917 0.317818 0.10932
H_ H_ 0.717155 0.418646 0.332456 0.10932
H_ H_ 0.948438 0.432078 0.30122 0.10932
H_ H_ 0.680335 0.36258 0.195411 0.10932
H_ H_ 0.947799 0.334429 0.18369 0.10932
H_ H_ 0.68722 0.354524 0.332295 0.10932
H_ H_ 0.921999 0.365476 0.307174 0.10932
H_ H_ 0.712335 0.424748 0.194853 0.10932
H_ H_ 0.967775 0.402756 0.171943 0.10932
H_ H_ 0.709762 0.0873759 0.323077 0.10932
H_ H_ 0.97918 0.0997562 0.313684 0.10932
H_ H_ 0.683601 0.147051 0.182692 0.10932
H_ H_ 0.920892 0.142001 0.188777 0.10932
H_ H_ 0.681125 0.152702 0.317404 0.10932
H_ H_ 0.93606 0.148949 0.324631 0.10932
H_ H_ 0.714703 0.0851708 0.18743 0.10932
H_ H_ 0.948236 0.0738228 0.190149 0.10932
H_ H_ 0.534033 0.0824722 0.176083 0.10932
H_ H_ 0.784647 0.0793349 0.188578 0.10932
H_ H_ 0.567343 0.137869 0.314323 0.10932
H_ H_ 0.809161 0.145079 0.326818 0.10932
H_ H_ 0.561832 0.152767 0.17846 0.10932
H_ H_ 0.802 0.150803 0.187089 0.10932
H_ H_ 0.537363 0.0746287 0.30865 0.10932
H_ H_ 0.784174 0.0783895 0.321391 0.10932
H_ H_ 0.578149 0.243819 0.362134 0.10932
H_ H_ 0.870346 0.184772 0.353548 0.10932
H_ H_ 0.670175 0.262991 0.359254 0.10932
H_ H_ 0.880656 0.310672 0.364754 0.10932
H_ H_ 0.676199 0.251738 0.437422 0.10932
H_ H_ 0.878827 0.310318 0.444993 0.10932
H_ H_ 0.578016 0.24885 0.442795 0.10932
H_ H_ 0.86853 0.180988 0.434108 0.10932
H_ H_ 0.638539 0.196599 0.138486 0.10932
H_ H_ 0.817385 0.260763 0.148196 0.10932
H_ H_ 0.619991 0.320901 0.154129 0.10932
H_ H_ 0.910523 0.226535 0.138239 0.10932
H_ H_ 0.621445 0.329515 0.0758054 0.10932
H_ H_ 0.905441 0.237495 0.0571957 0.10932
H_ H_ 0.633357 0.19903 0.062659 0.10932
H_ H_ 0.810445 0.254008 0.0724982 0.10932
C_ C_ 0.560771 0.346072 0.257334 -0.02249
C_ C_ 0.81625 0.351094 0.247772 -0.02249
C_ C_ 0.511574 0.461912 0.251745 -0.02249
C_ C_ 0.764442 0.464281 0.253715 -0.02249
C_ C_ 0.532303 0.399998 0.215605 -0.11473
C_ C_ 0.787957 0.405337 0.213109 -0.11473
C_ C_ 0.551484 0.367375 0.293599 -0.11473
C_ C_ 0.812605 0.372583 0.286967 -0.11473
C_ C_ 0.551927 0.362862 0.2177 -0.11473
C_ C_ 0.801554 0.367005 0.212979 -0.11473
C_ C_ 0.526273 0.421364 0.254108 -0.02249
C_ C_ 0.783002 0.425876 0.251951 -0.02249
C_ C_ 0.583159 0.311356 0.259949 0.6875
C_ C_ 0.835103 0.313907 0.24884 0.6875
C_ C_ 0.53317 0.403284 0.292679 -0.11473
C_ C_ 0.795319 0.408245 0.287542 -0.11473
C_ C_ 0.682661 0.351392 0.262599 -0.02249
C_ C_ 0.931094 0.346944 0.245507 -0.02249
C_ C_ 0.733354 0.463191 0.264933 -0.02249
C_ C_ 0.982325 0.460675 0.233279 -0.02249
C_ C_ 0.711408 0.402285 0.302288 -0.11473
C_ C_ 0.952441 0.409066 0.275933 -0.11473
C_ C_ 0.689399 0.373313 0.225505 -0.11473
C_ C_ 0.947741 0.356202 0.20942 -0.11473
C_ C_ 0.694293 0.366526 0.301725 -0.11473
C_ C_ 0.935425 0.372192 0.280035 -0.11473
C_ C_ 0.715423 0.423898 0.264995 -0.02249
C_ C_ 0.96479 0.421914 0.236546 -0.02249
C_ C_ 0.662759 0.313819 0.257405 0.6875
C_ C_ 0.914106 0.307914 0.24905 0.6875
C_ C_ 0.709328 0.40748 0.225833 -0.11473
C_ C_ 0.960711 0.394685 0.202709 -0.11473
C_ C_ 0.68111 0.156829 0.25147 -0.02249
C_ C_ 0.928935 0.152194 0.255389 -0.02249
C_ C_ 0.730352 0.038432 0.258875 -0.02249
C_ C_ 0.983353 0.0403144 0.250528 -0.02249
C_ C_ 0.702658 0.099168 0.29171 -0.11473
C_ C_ 0.96329 0.103863 0.28822 -0.11473
C_ C_ 0.69148 0.136185 0.2146 -0.11473
C_ C_ 0.932028 0.130268 0.217847 -0.11473
C_ C_ 0.68655 0.135242 0.289127 -0.11473
C_ C_ 0.941863 0.135761 0.29148 -0.11473
C_ C_ 0.715549 0.0799081 0.25597 -0.02249
C_ C_ 0.964213 0.0782355 0.251925 -0.02249
C_ C_ 0.662413 0.192685 0.250177 0.6875
C_ C_ 0.90873 0.188119 0.254143 0.6875
C_ C_ 0.705658 0.0968441 0.216713 -0.11473
C_ C_ 0.945528 0.0914744 0.218306 -0.11473
C_ C_ 0.566202 0.151098 0.246458 -0.02249
C_ C_ 0.809917 0.152627 0.257002 -0.02249
C_ C_ 0.514758 0.0371847 0.239619 -0.02249
C_ C_ 0.762257 0.0378968 0.255029 -0.02249
C_ C_ 0.540787 0.096529 0.205389 -0.11473
C_ C_ 0.785427 0.0963727 0.218059 -0.11473
C_ C_ 0.55808 0.130509 0.283846 -0.11473
C_ C_ 0.803732 0.133676 0.294868 -0.11473
C_ C_ 0.553975 0.137027 0.207829 -0.11473
C_ C_ 0.799627 0.134066 0.219695 -0.11473
C_ C_ 0.533044 0.0776364 0.243193 -0.02249
C_ C_ 0.778691 0.0767541 0.256195 -0.02249
C_ C_ 0.586587 0.189396 0.251985 0.6875
C_ C_ 0.828306 0.190835 0.255168 0.6875
C_ C_ 0.541696 0.0931067 0.282833 -0.11473
C_ C_ 0.786399 0.0955973 0.293419 -0.11473
C_ C_ 0.598433 0.251297 0.381466 0.17695
C_ C_ 0.871703 0.212226 0.375533 0.17695
C_ C_ 0.651448 0.26245 0.377709 0.17695
C_ C_ 0.876338 0.283308 0.381486 0.17695
C_ C_ 0.653545 0.258051 0.422029 -0.11473
C_ C_ 0.8772 0.28159 0.425768 -0.11473
C_ C_ 0.62809 0.254406 0.446839 0.23465
C_ C_ 0.874729 0.243442 0.445401 0.23465
C_ C_ 0.599618 0.251662 0.4251 -0.11473
C_ C_ 0.872168 0.208964 0.419821 -0.11473
C_ C_ 0.628785 0.223859 0.125179 0.17695
C_ C_ 0.836341 0.248387 0.130005 0.17695
C_ C_ 0.620784 0.295252 0.13184 0.17695
C_ C_ 0.889354 0.237535 0.124158 0.17695
C_ C_ 0.619711 0.299855 0.087788 -0.11473
C_ C_ 0.886299 0.240634 0.0797731 -0.11473
C_ C_ 0.622617 0.265267 0.0602243 0.23465
C_ C_ 0.857984 0.24525 0.0596324 0.23465
C_ C_ 0.625936 0.225893 0.0807186 -0.11473
C_ C_ 0.832721 0.247293 0.0852964 -0.11473
C_ C_ 0.527179 0.499184 0.25686 0.05793
C_ C_ 0.780229 0.50193 0.253144 0.05793
C_ C_ 0.714084 1.00205219 0.256686 0.05793
C_ C_ 0.968125 1.00231742 0.25668 0.05793
Br Br 0.570444 0.499025 0.25092 -0.17191
Br Br 0.819731 0.506506 0.227652 -0.17191
Br Br 0.671064 0.00130862 0.252454 -0.17191
Br Br 0.925774 0.0021794 0.265426 -0.17191
N_ N_ 0.624424 0.252713 0.359614 -0.272
N_ N_ 0.87303 0.249383 0.358134 -0.272
N_ N_ 0.63073 0.247043 0.491468 -0.12501
N_ N_ 0.870821 0.237565 0.490134 -0.12501
N_ N_ 0.625197 0.257296 0.149725 -0.272
N_ N_ 0.864423 0.242187 0.14806 -0.272
N_ N_ 0.626124 0.269052 0.0163476 -0.12501
N_ N_ 0.855469 0.252726 0.0149805 -0.12501
O_ O_ 0.595093 0.298569 0.226114 -0.60745
O_ O_ 0.838056 0.293365 0.214807 -0.60745
O_ O_ 0.590758 0.295172 0.294705 -0.60745
O_ O_ 0.842333 0.296976 0.282863 -0.60745
O_ O_ 0.649733 0.29913 0.290304 -0.60745
O_ O_ 0.904453 0.295219 0.283704 -0.60745
O_ O_ 0.657116 0.298419 0.220253 -0.60745
O_ O_ 0.901406 0.294015 0.215122 -0.60745
O_ O_ 0.656463 0.211878 0.283249 -0.60745
O_ O_ 0.901052 0.205527 0.288416 -0.60745
O_ O_ 0.658502 0.211627 0.215321 -0.60745
O_ O_ 0.900463 0.203596 0.219396 -0.60745
O_ O_ 0.596369 0.208164 0.220569 -0.60745
O_ O_ 0.835473 0.207942 0.220474 -0.60745
O_ O_ 0.594117 0.203899 0.288059 -0.60745
O_ O_ 0.838427 0.20771 0.289452 -0.60745
Zn Zn 0.62774 0.250377 0.78988 0.9476
Zn Zn 0.878128 0.248312 0.788761 0.9476
Zn Zn 0.626435 0.250089 0.718628 0.9476
Zn Zn 0.876745 0.252515 0.718968 0.9476
H_ H_ 0.539089 0.421602 0.69594 0.10932
H_ H_ 0.782649 0.413373 0.684577 0.10932
H_ H_ 0.5653 0.345357 0.830075 0.10932
H_ H_ 0.820014 0.35533 0.822086 0.10932
H_ H_ 0.555391 0.350911 0.690801 0.10932
H_ H_ 0.812119 0.34866 0.687489 0.10932
H_ H_ 0.5415 0.412798 0.831033 0.10932
H_ H_ 0.788539 0.4139 0.821574 0.10932
H_ H_ 0.712267 0.416716 0.830106 0.10932
H_ H_ 0.959168 0.430588 0.818649 0.10932
H_ H_ 0.691737 0.348727 0.695967 0.10932
H_ H_ 0.951721 0.34007 0.694385 0.10932
H_ H_ 0.684742 0.3567 0.829437 0.10932
H_ H_ 0.926189 0.360355 0.820582 0.10932
H_ H_ 0.721723 0.412868 0.697417 0.10932
H_ H_ 0.978457 0.405994 0.69122 0.10932
H_ H_ 0.729057 0.0900908 0.812963 0.10932
H_ H_ 0.978284 0.0873404 0.814669 0.10932
H_ H_ 0.685525 0.148916 0.681426 0.10932
H_ H_ 0.926347 0.140466 0.683371 0.10932
H_ H_ 0.693812 0.149175 0.818522 0.10932
H_ H_ 0.949195 0.15435 0.81441 0.10932
H_ H_ 0.705655 0.077174 0.681189 0.10932
H_ H_ 0.960598 0.0825808 0.682594 0.10932
H_ H_ 0.536855 0.085993 0.686268 0.10932
H_ H_ 0.785525 0.089577 0.675008 0.10932
H_ H_ 0.581922 0.140753 0.819357 0.10932
H_ H_ 0.823437 0.141981 0.815017 0.10932
H_ H_ 0.553985 0.159133 0.687979 0.10932
H_ H_ 0.81616 0.152896 0.682691 0.10932
H_ H_ 0.558829 0.0709881 0.816296 0.10932
H_ H_ 0.79501 0.0758187 0.809162 0.10932
H_ H_ 0.610521 0.309075 0.868495 0.10932
H_ H_ 0.881292 0.183371 0.854532 0.10932
H_ H_ 0.634582 0.186747 0.861419 0.10932
H_ H_ 0.869101 0.314411 0.868882 0.10932
H_ H_ 0.640432 0.181293 0.939593 0.10932
H_ H_ 0.863735 0.304052 0.947724 0.10932
H_ H_ 0.616478 0.311253 0.947098 0.10932
H_ H_ 0.872087 0.172605 0.931154 0.10932
H_ H_ 0.62522 0.321401 0.650604 0.10932
H_ H_ 0.928335 0.258159 0.64949 0.10932
H_ H_ 0.623523 0.190197 0.640426 0.10932
H_ H_ 0.83461 0.255952 0.643863 0.10932
H_ H_ 0.62268 0.197912 0.559069 0.10932
H_ H_ 0.83473 0.260744 0.566904 0.10932
H_ H_ 0.623888 0.327007 0.57551 0.10932
H_ H_ 0.930539 0.255078 0.570153 0.10932
C_ C_ 0.564317 0.340686 0.759417 -0.02249
C_ C_ 0.818866 0.346684 0.753469 -0.02249
C_ C_ 0.519198 0.460345 0.770788 -0.02249
C_ C_ 0.768367 0.461878 0.758043 -0.02249
C_ C_ 0.541497 0.402076 0.725002 -0.11473
C_ C_ 0.79025 0.401348 0.715753 -0.11473
C_ C_ 0.560534 0.360404 0.799678 -0.11473
C_ C_ 0.814512 0.367161 0.792314 -0.11473
C_ C_ 0.553324 0.361843 0.722143 -0.11473
C_ C_ 0.807439 0.364749 0.71609 -0.11473
C_ C_ 0.535421 0.420312 0.765385 -0.02249
C_ C_ 0.785107 0.420978 0.753976 -0.02249
C_ C_ 0.58257 0.303098 0.757392 0.6875
C_ C_ 0.839654 0.30957 0.751287 0.6875
C_ C_ 0.545734 0.398961 0.801424 -0.11473
C_ C_ 0.796788 0.402489 0.792061 -0.11473
C_ C_ 0.68603 0.346802 0.76125 -0.02249
C_ C_ 0.939518 0.343889 0.759107 -0.02249
C_ C_ 0.737253 0.460175 0.761043 -0.02249
C_ C_ 0.985041 0.462303 0.753025 -0.02249
C_ C_ 0.711114 0.40257 0.79934 -0.11473
C_ C_ 0.956608 0.408141 0.792846 -0.11473
C_ C_ 0.696573 0.363893 0.724751 -0.11473
C_ C_ 0.953159 0.35813 0.723184 -0.11473
C_ C_ 0.692744 0.367231 0.799913 -0.11473
C_ C_ 0.940801 0.368683 0.795283 -0.11473
C_ C_ 0.721281 0.419631 0.762144 -0.02249
C_ C_ 0.969969 0.421062 0.755665 -0.02249
C_ C_ 0.66738 0.308719 0.758105 0.6875
C_ C_ 0.920478 0.306351 0.757403 0.6875
C_ C_ 0.714207 0.399174 0.72551 -0.11473
C_ C_ 0.964731 0.397588 0.719246 -0.11473
C_ C_ 0.68799 0.154187 0.751209 -0.02249
C_ C_ 0.935995 0.152844 0.751393 -0.02249
C_ C_ 0.738559 0.0413532 0.74571 -0.02249
C_ C_ 0.982755 0.0367048 0.748328 -0.02249
C_ C_ 0.719455 0.10262 0.784248 -0.11473
C_ C_ 0.964475 0.0980354 0.786933 -0.11473
C_ C_ 0.693714 0.136034 0.711102 -0.11473
C_ C_ 0.938175 0.130703 0.713128 -0.11473
C_ C_ 0.700407 0.137051 0.788471 -0.11473
C_ C_ 0.950491 0.137077 0.786761 -0.11473
C_ C_ 0.721609 0.0807523 0.746664 -0.02249
C_ C_ 0.966647 0.0769758 0.747149 -0.02249
C_ C_ 0.668541 0.191786 0.752704 0.6875
C_ C_ 0.919324 0.193463 0.753232 0.6875
C_ C_ 0.709167 0.0982986 0.708099 -0.11473
C_ C_ 0.957088 0.0968045 0.710826 -0.11473
C_ C_ 0.568714 0.156246 0.754799 -0.02249
C_ C_ 0.82433 0.151119 0.74773 -0.02249
C_ C_ 0.521862 0.0374929 0.752148 -0.02249
C_ C_ 0.768674 0.0414822 0.740043 -0.02249
C_ C_ 0.543124 0.100445 0.716312 -0.11473
C_ C_ 0.792957 0.100898 0.706479 -0.11473
C_ C_ 0.569537 0.131407 0.790433 -0.11473
C_ C_ 0.816175 0.129806 0.784093 -0.11473
C_ C_ 0.555812 0.140141 0.716361 -0.11473
C_ C_ 0.811332 0.135571 0.70983 -0.11473
C_ C_ 0.53919 0.0783117 0.754737 -0.02249
C_ C_ 0.786365 0.0803432 0.742412 -0.02249
C_ C_ 0.587925 0.193614 0.754542 0.6875
C_ C_ 0.841707 0.190761 0.749241 0.6875
C_ C_ 0.554679 0.0935338 0.790773 -0.11473
C_ C_ 0.797178 0.0946946 0.782006 -0.11473
C_ C_ 0.617226 0.282093 0.884171 0.17695
C_ C_ 0.877602 0.210144 0.874876 0.17695
C_ C_ 0.634508 0.213374 0.879112 0.17695
C_ C_ 0.869458 0.282606 0.882913 0.17695
C_ C_ 0.63261 0.209126 0.923261 -0.11473
C_ C_ 0.86705 0.277971 0.927751 -0.11473
C_ C_ 0.625737 0.243977 0.947887 0.23465
C_ C_ 0.866678 0.238233 0.944754 0.23465
C_ C_ 0.620127 0.282203 0.928379 -0.11473
C_ C_ 0.871948 0.203826 0.918964 -0.11473
C_ C_ 0.627809 0.294058 0.631414 0.17695
C_ C_ 0.908292 0.256877 0.629715 0.17695
C_ C_ 0.624616 0.220915 0.624733 0.17695
C_ C_ 0.854675 0.257548 0.626481 0.17695
C_ C_ 0.620623 0.223782 0.580652 -0.11473
C_ C_ 0.85498 0.257512 0.584134 -0.11473
C_ C_ 0.621028 0.261515 0.561442 0.23465
C_ C_ 0.881958 0.253889 0.561859 0.23465
C_ C_ 0.62364 0.297191 0.587733 -0.11473
C_ C_ 0.908935 0.256975 0.585267 -0.11473
C_ C_ 0.536548 0.497203 0.768055 0.05793
C_ C_ 0.782656 0.50135 0.759501 0.05793
C_ C_ 0.722352 0.00512916 0.749488 0.05793
C_ C_ 0.966874 -0.0021799999999999597 0.748122 0.05793
Br Br 0.580901 0.493443 0.771703 -0.17191
Br Br 0.826069 0.501481 0.756588 -0.17191
Br Br 0.679331 0.00770148 0.751447 -0.17191
Br Br 0.924319 0.00239476 0.743067 -0.17191
N_ N_ 0.626149 0.249358 0.861498 -0.272
N_ N_ 0.874604 0.249191 0.859561 -0.272
N_ N_ 0.624432 0.238319 0.992012 -0.12501
N_ N_ 0.87079 0.234424 0.98828 -0.12501
N_ N_ 0.627796 0.25616 0.649196 -0.272
N_ N_ 0.88131 0.252873 0.648759 -0.272
N_ N_ 0.616238 0.2678 0.51754 -0.12501
N_ N_ 0.882934 0.260475 0.518078 -0.12501
O_ O_ 0.59132 0.289166 0.722469 -0.60745
O_ O_ 0.8468 0.293823 0.715938 -0.60745
O_ O_ 0.597967 0.294735 0.790253 -0.60745
O_ O_ 0.847952 0.29416 0.78473 -0.60745
O_ O_ 0.657676 0.294729 0.791833 -0.60745
O_ O_ 0.90847 0.293175 0.791761 -0.60745
O_ O_ 0.655609 0.295962 0.72326 -0.60745
O_ O_ 0.906817 0.295552 0.724109 -0.60745
O_ O_ 0.657581 0.204555 0.786588 -0.60745
O_ O_ 0.911343 0.206742 0.788517 -0.60745
O_ O_ 0.65989 0.208614 0.717948 -0.60745
O_ O_ 0.906847 0.208663 0.720801 -0.60745
O_ O_ 0.600569 0.202787 0.720953 -0.60745
O_ O_ 0.849277 0.208412 0.715187 -0.60745
O_ O_ 0.598921 0.207247 0.790394 -0.60745
O_ O_ 0.849487 0.205683 0.783942 -0.60745
Zn Zn 0.623371 0.74671 0.28857 0.9476
Zn Zn 0.875811 0.751911 0.290005 0.9476
Zn Zn 0.624856 0.747291 0.219919 0.9476
Zn Zn 0.870834 0.751125 0.219012 0.9476
H_ H_ 0.525751 0.905095 0.178308 0.10932
H_ H_ 0.781508 0.919948 0.196291 0.10932
H_ H_ 0.571797 0.855552 0.31219 0.10932
H_ H_ 0.806391 0.851776 0.329925 0.10932
H_ H_ 0.558779 0.844739 0.177448 0.10932
H_ H_ 0.811207 0.854578 0.195221 0.10932
H_ H_ 0.549405 0.928336 0.307086 0.10932
H_ H_ 0.784788 0.917521 0.331204 0.10932
H_ H_ 0.70647 0.919881 0.323941 0.10932
H_ H_ 0.97057 0.9192 0.318032 0.10932
H_ H_ 0.682003 0.859502 0.185998 0.10932
H_ H_ 0.918427 0.870018 0.189782 0.10932
H_ H_ 0.684816 0.853247 0.321367 0.10932
H_ H_ 0.941558 0.853561 0.319237 0.10932
H_ H_ 0.711099 0.924698 0.190392 0.10932
H_ H_ 0.950768 0.930936 0.186969 0.10932
H_ H_ 0.720531 0.5939 0.331511 0.10932
H_ H_ 0.966636 0.576542 0.301472 0.10932
H_ H_ 0.675252 0.62924 0.195981 0.10932
H_ H_ 0.930226 0.648382 0.174724 0.10932
H_ H_ 0.703524 0.667597 0.319517 0.10932
H_ H_ 0.938606 0.637307 0.307702 0.10932
H_ H_ 0.70582 0.570874 0.200127 0.10932
H_ H_ 0.964072 0.589237 0.165391 0.10932
H_ H_ 0.530957 0.578664 0.194592 0.10932
H_ H_ 0.778346 0.590196 0.191439 0.10932
H_ H_ 0.555436 0.652155 0.326846 0.10932
H_ H_ 0.82391 0.645476 0.324965 0.10932
H_ H_ 0.56019 0.648695 0.19244 0.10932
H_ H_ 0.799376 0.653286 0.194468 0.10932
H_ H_ 0.52676 0.588338 0.32911 0.10932
H_ H_ 0.791924 0.579163 0.326881 0.10932
H_ H_ 0.610785 0.687267 0.364904 0.10932
H_ H_ 0.88041 0.816252 0.355514 0.10932
H_ H_ 0.626741 0.813496 0.363903 0.10932
H_ H_ 0.877102 0.684714 0.368714 0.10932
H_ H_ 0.629568 0.817155 0.44089 0.10932
H_ H_ 0.875485 0.6915 0.446088 0.10932
H_ H_ 0.608484 0.687052 0.441081 0.10932
H_ H_ 0.88611 0.824122 0.433672 0.10932
H_ H_ 0.627758 0.676804 0.151899 0.10932
H_ H_ 0.878793 0.694474 0.136223 0.10932
H_ H_ 0.62221 0.806175 0.139979 0.10932
H_ H_ 0.863764 0.822246 0.150025 0.10932
H_ H_ 0.624413 0.800864 0.0644824 0.10932
H_ H_ 0.852108 0.826344 0.0732803 0.10932
H_ H_ 0.636207 0.670651 0.0763216 0.10932
H_ H_ 0.876431 0.700422 0.059808 0.10932
C_ C_ 0.567492 0.845668 0.244063 -0.02249
C_ C_ 0.815519 0.848714 0.263738 -0.02249
C_ C_ 0.515704 0.961919 0.240083 -0.02249
C_ C_ 0.762913 0.96223 0.262448 -0.02249
C_ C_ 0.536067 0.896336 0.206993 -0.11473
C_ C_ 0.785619 0.902546 0.225146 -0.11473
C_ C_ 0.56623 0.870351 0.280508 -0.11473
C_ C_ 0.804213 0.865494 0.29997 -0.11473
C_ C_ 0.553785 0.860427 0.207369 -0.11473
C_ C_ 0.804019 0.865572 0.225181 -0.11473
C_ C_ 0.534332 0.92191 0.242065 -0.02249
C_ C_ 0.779757 0.922359 0.263312 -0.02249
C_ C_ 0.583837 0.805162 0.247758 0.6875
C_ C_ 0.833447 0.809234 0.262483 0.6875
C_ C_ 0.550722 0.908762 0.278422 -0.11473
C_ C_ 0.790208 0.904112 0.300565 -0.11473
C_ C_ 0.681003 0.850835 0.253907 -0.02249
C_ C_ 0.932839 0.850316 0.251439 -0.02249
C_ C_ 0.730604 0.964162 0.258877 -0.02249
C_ C_ 0.982703 0.964331 0.252578 -0.02249
C_ C_ 0.700563 0.909542 0.293441 -0.11473
C_ C_ 0.962522 0.903786 0.288576 -0.11473
C_ C_ 0.688442 0.872298 0.216022 -0.11473
C_ C_ 0.933147 0.874511 0.21666 -0.11473
C_ C_ 0.686987 0.869775 0.291966 -0.11473
C_ C_ 0.945966 0.866825 0.288623 -0.11473
C_ C_ 0.713877 0.924984 0.256642 -0.02249
C_ C_ 0.965475 0.925377 0.252084 -0.02249
C_ C_ 0.662442 0.812412 0.252188 0.6875
C_ C_ 0.914292 0.809803 0.253075 0.6875
C_ C_ 0.705543 0.907358 0.21861 -0.11473
C_ C_ 0.952784 0.908859 0.214222 -0.11473
C_ C_ 0.686328 0.652475 0.258355 -0.02249
C_ C_ 0.934124 0.654177 0.242832 -0.02249
C_ C_ 0.734346 0.538838 0.270164 -0.02249
C_ C_ 0.983236 0.536132 0.229286 -0.02249
C_ C_ 0.717171 0.605773 0.300115 -0.11473
C_ C_ 0.959828 0.592449 0.272613 -0.11473
C_ C_ 0.68626 0.623825 0.224958 -0.11473
C_ C_ 0.941176 0.636247 0.202673 -0.11473
C_ C_ 0.702451 0.643846 0.295992 -0.11473
C_ C_ 0.944387 0.630006 0.277412 -0.11473
C_ C_ 0.717485 0.578263 0.265342 -0.02249
C_ C_ 0.968089 0.57703 0.232113 -0.02249
C_ C_ 0.664126 0.688497 0.254901 0.6875
C_ C_ 0.913177 0.689637 0.247446 0.6875
C_ C_ 0.705782 0.590472 0.226102 -0.11473
C_ C_ 0.959134 0.599552 0.19641 -0.11473
C_ C_ 0.561546 0.652314 0.259882 -0.02249
C_ C_ 0.813139 0.656214 0.259675 -0.02249
C_ C_ 0.513698 0.536433 0.260457 -0.02249
C_ C_ 0.764417 0.538804 0.260565 -0.02249
C_ C_ 0.538636 0.593561 0.222532 -0.11473
C_ C_ 0.785717 0.601889 0.222508 -0.11473
C_ C_ 0.551153 0.636429 0.296529 -0.11473
C_ C_ 0.812332 0.631433 0.296532 -0.11473
C_ C_ 0.551085 0.635777 0.222165 -0.11473
C_ C_ 0.796843 0.641517 0.22379 -0.11473
C_ C_ 0.531402 0.575965 0.261983 -0.02249
C_ C_ 0.781995 0.578512 0.260557 -0.02249
C_ C_ 0.581992 0.686963 0.261178 0.6875
C_ C_ 0.833051 0.693642 0.257204 0.6875
C_ C_ 0.535421 0.599391 0.298238 -0.11473
C_ C_ 0.793024 0.596653 0.298256 -0.11473
C_ C_ 0.618693 0.714056 0.3807 0.17695
C_ C_ 0.883306 0.788507 0.376237 0.17695
C_ C_ 0.627638 0.78481 0.38183 0.17695
C_ C_ 0.87753 0.714663 0.384864 0.17695
C_ C_ 0.626794 0.787372 0.424554 -0.11473
C_ C_ 0.879984 0.718107 0.427766 -0.11473
C_ C_ 0.620683 0.751307 0.446129 0.23465
C_ C_ 0.8817 0.759858 0.445809 0.23465
C_ C_ 0.617197 0.713449 0.425121 -0.11473
C_ C_ 0.886618 0.79367 0.420249 -0.11473
C_ C_ 0.627678 0.704305 0.132157 0.17695
C_ C_ 0.870765 0.722797 0.122842 0.17695
C_ C_ 0.618838 0.775523 0.125195 0.17695
C_ C_ 0.860586 0.793466 0.130829 0.17695
C_ C_ 0.621303 0.772638 0.0802423 -0.11473
C_ C_ 0.857045 0.797133 0.0880261 -0.11473
C_ C_ 0.626695 0.732889 0.0604618 0.23465
C_ C_ 0.859541 0.764203 0.0607469 0.23465
C_ C_ 0.63058 0.699683 0.0888161 -0.11473
C_ C_ 0.86944 0.727352 0.078102 -0.11473
C_ C_ 0.530919 0.998815 0.239276 0.05793
C_ C_ 0.778584 0.999357 0.262323 0.05793
C_ C_ 0.71907 0.501507 0.273835 0.05793
C_ C_ 0.967138 0.499153 0.231452 0.05793
Br Br 0.573181 0.999602 0.235097 -0.17191
Br Br 0.819702 1.00152617 0.279009 -0.17191
Br Br 0.677145 0.503129 0.286943 -0.17191
Br Br 0.924623 0.502253 0.224131 -0.17191
N_ N_ 0.624711 0.749016 0.359926 -0.272
N_ N_ 0.880874 0.749393 0.361075 -0.272
N_ N_ 0.614125 0.752678 0.48962 -0.12501
N_ N_ 0.880293 0.766281 0.490639 -0.12501
N_ N_ 0.621572 0.741655 0.149624 -0.272
N_ N_ 0.865466 0.755431 0.149149 -0.272
N_ N_ 0.630453 0.729477 0.0151028 -0.12501
N_ N_ 0.864263 0.771092 0.0163075 -0.12501
O_ O_ 0.590397 0.785665 0.215478 -0.60745
O_ O_ 0.838819 0.79202 0.226456 -0.60745
O_ O_ 0.591778 0.791108 0.284531 -0.60745
O_ O_ 0.848172 0.798078 0.294766 -0.60745
O_ O_ 0.656041 0.792751 0.285084 -0.60745
O_ O_ 0.908272 0.793621 0.288638 -0.60745
O_ O_ 0.650132 0.800317 0.217207 -0.60745
O_ O_ 0.902278 0.795399 0.219577 -0.60745
O_ O_ 0.65399 0.702345 0.28903 -0.60745
O_ O_ 0.904957 0.701723 0.282932 -0.60745
O_ O_ 0.661281 0.709094 0.22117 -0.60745
O_ O_ 0.905056 0.709762 0.216268 -0.60745
O_ O_ 0.596093 0.697372 0.22787 -0.60745
O_ O_ 0.842091 0.706567 0.222648 -0.60745
O_ O_ 0.591436 0.702716 0.295226 -0.60745
O_ O_ 0.841986 0.711238 0.289832 -0.60745
Zn Zn 0.628171 0.75455 0.787039 0.9476
Zn Zn 0.870366 0.750618 0.784143 0.9476
Zn Zn 0.624966 0.748849 0.716771 0.9476
Zn Zn 0.873506 0.746038 0.716266 0.9476
H_ H_ 0.536119 0.917503 0.680847 0.10932
H_ H_ 0.781577 0.91732 0.678484 0.10932
H_ H_ 0.566712 0.853255 0.818043 0.10932
H_ H_ 0.813497 0.856718 0.816323 0.10932
H_ H_ 0.566288 0.854542 0.684989 0.10932
H_ H_ 0.805396 0.846958 0.683116 0.10932
H_ H_ 0.537342 0.921726 0.815363 0.10932
H_ H_ 0.790552 0.926016 0.813501 0.10932
H_ H_ 0.719195 0.922734 0.811159 0.10932
H_ H_ 0.960356 0.919246 0.814523 0.10932
H_ H_ 0.687154 0.856716 0.678794 0.10932
H_ H_ 0.947682 0.840386 0.682945 0.10932
H_ H_ 0.688434 0.859554 0.814919 0.10932
H_ H_ 0.926952 0.858288 0.813504 0.10932
H_ H_ 0.715577 0.915066 0.677907 0.10932
H_ H_ 0.972655 0.905716 0.681414 0.10932
H_ H_ 0.713743 0.587394 0.825351 0.10932
H_ H_ 0.971188 0.586618 0.818689 0.10932
H_ H_ 0.687921 0.641753 0.683597 0.10932
H_ H_ 0.923388 0.639376 0.683944 0.10932
H_ H_ 0.687612 0.654448 0.817624 0.10932
H_ H_ 0.939808 0.647525 0.819621 0.10932
H_ H_ 0.714821 0.577964 0.69071 0.10932
H_ H_ 0.952189 0.571988 0.683085 0.10932
H_ H_ 0.537393 0.579727 0.695258 0.10932
H_ H_ 0.778351 0.585133 0.685372 0.10932
H_ H_ 0.577625 0.642081 0.823915 0.10932
H_ H_ 0.818002 0.643642 0.817333 0.10932
H_ H_ 0.562088 0.649994 0.688986 0.10932
H_ H_ 0.810652 0.64784 0.684352 0.10932
H_ H_ 0.54561 0.578189 0.827105 0.10932
H_ H_ 0.793373 0.576487 0.820978 0.10932
H_ H_ 0.648833 0.697634 0.863916 0.10932
H_ H_ 0.870458 0.687018 0.857846 0.10932
H_ H_ 0.619514 0.821265 0.859771 0.10932
H_ H_ 0.874706 0.814015 0.866627 0.10932
H_ H_ 0.613991 0.821517 0.940134 0.10932
H_ H_ 0.87208 0.810946 0.940886 0.10932
H_ H_ 0.644923 0.695608 0.94024 0.10932
H_ H_ 0.867595 0.682858 0.937876 0.10932
H_ H_ 0.617602 0.676549 0.649688 0.10932
H_ H_ 0.873693 0.81396 0.637503 0.10932
H_ H_ 0.630488 0.806222 0.636812 0.10932
H_ H_ 0.860834 0.687576 0.646023 0.10932
H_ H_ 0.628093 0.801552 0.55928 0.10932
H_ H_ 0.864524 0.678575 0.568783 0.10932
H_ H_ 0.617743 0.666629 0.571782 0.10932
H_ H_ 0.883763 0.812122 0.563442 0.10932
C_ C_ 0.563897 0.843058 0.752396 -0.02249
C_ C_ 0.814095 0.847666 0.751378 -0.02249
C_ C_ 0.518997 0.961755 0.745584 -0.02249
C_ C_ 0.76901 0.965818 0.744722 -0.02249
C_ C_ 0.541714 0.901625 0.711551 -0.11473
C_ C_ 0.790329 0.904496 0.707969 -0.11473
C_ C_ 0.555838 0.864378 0.788405 -0.11473
C_ C_ 0.806759 0.869491 0.787521 -0.11473
C_ C_ 0.55481 0.862052 0.713485 -0.11473
C_ C_ 0.804045 0.86468 0.711635 -0.11473
C_ C_ 0.533768 0.921347 0.748988 -0.02249
C_ C_ 0.784195 0.925551 0.745535 -0.02249
C_ C_ 0.584095 0.806627 0.752362 0.6875
C_ C_ 0.834219 0.811058 0.752034 0.6875
C_ C_ 0.539977 0.903029 0.787469 -0.11473
C_ C_ 0.7946 0.909634 0.784476 -0.11473
C_ C_ 0.682597 0.853699 0.747024 -0.02249
C_ C_ 0.93565 0.843165 0.750233 -0.02249
C_ C_ 0.737594 0.966106 0.745767 -0.02249
C_ C_ 0.982748 0.960878 0.747227 -0.02249
C_ C_ 0.711674 0.908023 0.783282 -0.11473
C_ C_ 0.957148 0.902268 0.78692 -0.11473
C_ C_ 0.689572 0.871714 0.709689 -0.11473
C_ C_ 0.950011 0.85703 0.713424 -0.11473
C_ C_ 0.69448 0.871399 0.784547 -0.11473
C_ C_ 0.939137 0.866337 0.787133 -0.11473
C_ C_ 0.718814 0.925853 0.745579 -0.02249
C_ C_ 0.968013 0.918935 0.74736 -0.02249
C_ C_ 0.666748 0.812247 0.747465 0.6875
C_ C_ 0.91573 0.804209 0.748578 0.6875
C_ C_ 0.710503 0.903775 0.709211 -0.11473
C_ C_ 0.962125 0.896737 0.710251 -0.11473
C_ C_ 0.684008 0.653735 0.75299 -0.02249
C_ C_ 0.928446 0.647878 0.751341 -0.02249
C_ C_ 0.735091 0.5365 0.759737 -0.02249
C_ C_ 0.982503 0.536879 0.75017 -0.02249
C_ C_ 0.710808 0.601313 0.79477 -0.11473
C_ C_ 0.960513 0.597447 0.787988 -0.11473
C_ C_ 0.692334 0.63066 0.716167 -0.11473
C_ C_ 0.934493 0.628608 0.713304 -0.11473
C_ C_ 0.693328 0.637428 0.792069 -0.11473
C_ C_ 0.943129 0.633382 0.788659 -0.11473
C_ C_ 0.716619 0.57634 0.757735 -0.02249
C_ C_ 0.965713 0.575992 0.75036 -0.02249
C_ C_ 0.666248 0.69261 0.7506 0.6875
C_ C_ 0.909486 0.68597 0.751425 0.6875
C_ C_ 0.709863 0.594735 0.720036 -0.11473
C_ C_ 0.950462 0.590753 0.712903 -0.11473
C_ C_ 0.572794 0.651355 0.757456 -0.02249
C_ C_ 0.811353 0.655929 0.750784 -0.02249
C_ C_ 0.522827 0.5354 0.76345 -0.02249
C_ C_ 0.766495 0.537521 0.754559 -0.02249
C_ C_ 0.546738 0.592383 0.722247 -0.11473
C_ C_ 0.787622 0.598921 0.714422 -0.11473
C_ C_ 0.568529 0.630185 0.795168 -0.11473
C_ C_ 0.80737 0.633804 0.788867 -0.11473
C_ C_ 0.560384 0.631855 0.719899 -0.11473
C_ C_ 0.802546 0.636368 0.714024 -0.11473
C_ C_ 0.540615 0.574587 0.761438 -0.02249
C_ C_ 0.7827 0.578231 0.753431 -0.02249
C_ C_ 0.588558 0.692593 0.756979 0.6875
C_ C_ 0.831757 0.691528 0.749538 0.6875
C_ C_ 0.553167 0.591862 0.796495 -0.11473
C_ C_ 0.794805 0.593286 0.789783 -0.11473
C_ C_ 0.638702 0.724476 0.879742 0.17695
C_ C_ 0.872016 0.714589 0.877637 0.17695
C_ C_ 0.622585 0.793478 0.878441 0.17695
C_ C_ 0.872558 0.785053 0.880226 0.17695
C_ C_ 0.619104 0.792874 0.922836 -0.11473
C_ C_ 0.869426 0.783634 0.925235 -0.11473
C_ C_ 0.626343 0.756966 0.945974 0.23465
C_ C_ 0.867578 0.747547 0.945932 0.23465
C_ C_ 0.639095 0.723737 0.923497 -0.11473
C_ C_ 0.868824 0.712101 0.922251 -0.11473
C_ C_ 0.618376 0.704051 0.627095 0.17695
C_ C_ 0.875764 0.784363 0.623921 0.17695
C_ C_ 0.629649 0.775519 0.622238 0.17695
C_ C_ 0.866995 0.712658 0.62836 0.17695
C_ C_ 0.627845 0.77238 0.577754 -0.11473
C_ C_ 0.870846 0.707941 0.585031 -0.11473
C_ C_ 0.624455 0.733497 0.559571 0.23465
C_ C_ 0.874929 0.743712 0.560298 0.23465
C_ C_ 0.618937 0.698596 0.584844 -0.11473
C_ C_ 0.876872 0.783095 0.579341 -0.11473
C_ C_ 0.536017 -0.0014159999999999728 0.751577 0.05793
C_ C_ 0.784771 0.00295738 0.742029 0.05793
C_ C_ 0.719953 0.497468 0.75964 0.05793
C_ C_ 0.968435 0.497841 0.74613 0.05793
Br Br 0.5796 -0.0037850000000000383 0.757593 -0.17191
Br Br 0.827816 1.00120646 0.731847 -0.17191
Br Br 0.678554 0.493961 0.77143 -0.17191
Br Br 0.92461 0.496695 0.739192 -0.17191
N_ N_ 0.628151 0.757751 0.857645 -0.272
N_ N_ 0.872404 0.750851 0.856476 -0.272
N_ N_ 0.625679 0.760279 0.990829 -0.12501
N_ N_ 0.864535 0.741566 0.990056 -0.12501
N_ N_ 0.622466 0.741341 0.645669 -0.272
N_ N_ 0.872788 0.748773 0.646977 -0.272
N_ N_ 0.62904 0.729852 0.51492 -0.12501
N_ N_ 0.879899 0.737561 0.515993 -0.12501
O_ O_ 0.591625 0.791573 0.717862 -0.60745
O_ O_ 0.843769 0.795429 0.718117 -0.60745
O_ O_ 0.597984 0.797495 0.785165 -0.60745
O_ O_ 0.839725 0.792924 0.78681 -0.60745
O_ O_ 0.660668 0.795762 0.782138 -0.60745
O_ O_ 0.904181 0.79432 0.783395 -0.60745
O_ O_ 0.654389 0.796617 0.714781 -0.60745
O_ O_ 0.907173 0.787504 0.713853 -0.60745
O_ O_ 0.655869 0.706201 0.78437 -0.60745
O_ O_ 0.901829 0.70342 0.785919 -0.60745
O_ O_ 0.655931 0.706212 0.715629 -0.60745
O_ O_ 0.902835 0.701745 0.717105 -0.60745
O_ O_ 0.595777 0.70469 0.720483 -0.60745
O_ O_ 0.841884 0.706235 0.715105 -0.60745
O_ O_ 0.595344 0.713066 0.790001 -0.60745
O_ O_ 0.837967 0.709332 0.783631 -0.60745
_cell_length_a 44.444
_cell_length_b 32.3360000049186
_cell_length_c 31.843999878906452
_cell_angle_alpha 89.99799923859553
_cell_angle_beta 91.13600050494348
_cell_angle_gamma 89.9990006550086
_symmetry_space_group_name_H-M         'P 1'
_symmetry_Int_Tables_number            1
loop_
_symmetry_equiv_pos_as_xyz
   'x, y, z'
                         
loop_
_atom_site_label
_atom_site_type_symbol
_atom_site_fract_x 
_atom_site_fract_y
_atom_site_fract_z
_atom_site_charge
Zn Zn 0.124642 0.25202 0.278241 0.9476
Zn Zn 0.373517 0.246332 0.27967 0.9476
Zn Zn 0.126162 0.247462 0.208283 0.9476
Zn Zn 0.373886 0.248545 0.21081 0.9476
H_ H_ 0.0448315 0.421527 0.166767 0.10932
H_ H_ 0.287161 0.423886 0.189063 0.10932
H_ H_ 0.0604662 0.35215 0.30501 0.10932
H_ H_ 0.312254 0.346999 0.320686 0.10932
H_ H_ 0.0731643 0.35759 0.171423 0.10932
H_ H_ 0.315951 0.36349 0.187105 0.10932
H_ H_ 0.0226327 0.409684 0.297868 0.10932
H_ H_ 0.283971 0.41373 0.323519 0.10932
H_ H_ 0.202581 0.427542 0.314653 0.10932
H_ H_ 0.441539 0.430202 0.310302 0.10932
H_ H_ 0.194097 0.346236 0.182902 0.10932
H_ H_ 0.445576 0.347168 0.179444 0.10932
H_ H_ 0.181719 0.356112 0.31506 0.10932
H_ H_ 0.411552 0.365211 0.304986 0.10932
H_ H_ 0.221778 0.416203 0.182614 0.10932
H_ H_ 0.468771 0.414142 0.185863 0.10932
H_ H_ 0.215818 0.0825522 0.31242 0.10932
H_ H_ 0.47539 0.0882478 0.310329 0.10932
H_ H_ 0.179226 0.141798 0.179144 0.10932
H_ H_ 0.433448 0.14392 0.177932 0.10932
H_ H_ 0.183937 0.143842 0.313862 0.10932
H_ H_ 0.442823 0.15308 0.311418 0.10932
H_ H_ 0.203087 0.0727821 0.179538 0.10932
H_ H_ 0.467878 0.0837476 0.178343 0.10932
H_ H_ 0.0362152 0.0769846 0.180387 0.10932
H_ H_ 0.2635 0.101065 0.179604 0.10932
H_ H_ 0.0686851 0.150337 0.312427 0.10932
H_ H_ 0.340013 0.121824 0.294979 0.10932
H_ H_ 0.0680981 0.140673 0.177346 0.10932
H_ H_ 0.298673 0.161276 0.177829 0.10932
H_ H_ 0.0400356 0.0804653 0.312846 0.10932
H_ H_ 0.304758 0.0602488 0.29665 0.10932
H_ H_ 0.133618 0.184381 0.345838 0.10932
H_ H_ 0.377821 0.182613 0.34901 0.10932
H_ H_ 0.122806 0.313852 0.356639 0.10932
H_ H_ 0.36857 0.310579 0.353754 0.10932
H_ H_ 0.129214 0.309427 0.436469 0.10932
H_ H_ 0.373188 0.30895 0.438082 0.10932
H_ H_ 0.129801 0.177481 0.424464 0.10932
H_ H_ 0.372366 0.175795 0.426885 0.10932
H_ H_ 0.117342 0.311918 0.138476 0.10932
H_ H_ 0.411196 0.207777 0.134936 0.10932
H_ H_ 0.128624 0.1851 0.130315 0.10932
H_ H_ 0.330798 0.280272 0.136529 0.10932
H_ H_ 0.127264 0.190011 0.0512075 0.10932
H_ H_ 0.33563 0.294756 0.0607526 0.10932
H_ H_ 0.108773 0.317638 0.0640384 0.10932
H_ H_ 0.415807 0.218196 0.0610778 0.10932
C_ C_ 0.0661039 0.348036 0.239854 -0.02249
C_ C_ 0.317485 0.351195 0.25245 -0.02249
C_ C_ 0.0149188 0.458881 0.229748 -0.02249
C_ C_ 0.265514 0.464021 0.259301 -0.02249
C_ C_ 0.0459996 0.404116 0.196883 -0.11473
C_ C_ 0.292587 0.409387 0.217337 -0.11473
C_ C_ 0.0543548 0.364711 0.274247 -0.11473
C_ C_ 0.307735 0.364995 0.291861 -0.11473
C_ C_ 0.063115 0.369063 0.200783 -0.11473
C_ C_ 0.309302 0.374075 0.217363 -0.11473
C_ C_ 0.0310043 0.419718 0.231918 -0.02249
C_ C_ 0.283275 0.425546 0.256709 -0.02249
C_ C_ 0.0862326 0.310489 0.244164 0.6875
C_ C_ 0.337375 0.314128 0.249772 0.6875
C_ C_ 0.0347089 0.398757 0.269476 -0.11473
C_ C_ 0.288978 0.401309 0.293151 -0.11473
C_ C_ 0.184058 0.347631 0.248168 -0.02249
C_ C_ 0.430202 0.346023 0.246784 -0.02249
C_ C_ 0.234923 0.462501 0.251298 -0.02249
C_ C_ 0.480513 0.461638 0.258042 -0.02249
C_ C_ 0.201809 0.409382 0.285926 -0.11473
C_ C_ 0.444388 0.410044 0.284124 -0.11473
C_ C_ 0.199439 0.360521 0.212002 -0.11473
C_ C_ 0.444365 0.362758 0.210047 -0.11473
C_ C_ 0.187367 0.370753 0.285653 -0.11473
C_ C_ 0.426374 0.373178 0.281657 -0.11473
C_ C_ 0.218803 0.421823 0.24975 -0.02249
C_ C_ 0.463683 0.420852 0.252221 -0.02249
C_ C_ 0.165413 0.3083 0.247933 0.6875
C_ C_ 0.414929 0.305016 0.24436 0.6875
C_ C_ 0.214533 0.40011 0.21191 -0.11473
C_ C_ 0.46176 0.398722 0.213716 -0.11473
C_ C_ 0.180818 0.149664 0.245571 -0.02249
C_ C_ 0.434455 0.151584 0.244166 -0.02249
C_ C_ 0.230634 0.0363922 0.244566 -0.02249
C_ C_ 0.48372 0.0367212 0.24432 -0.02249
C_ C_ 0.205602 0.093723 0.284992 -0.11473
C_ C_ 0.462849 0.0980412 0.282997 -0.11473
C_ C_ 0.187647 0.129999 0.206875 -0.11473
C_ C_ 0.438961 0.129143 0.206539 -0.11473
C_ C_ 0.191059 0.130889 0.283491 -0.11473
C_ C_ 0.446562 0.135892 0.282245 -0.11473
C_ C_ 0.211336 0.0735894 0.244804 -0.02249
C_ C_ 0.468861 0.0779084 0.244959 -0.02249
C_ C_ 0.162967 0.189737 0.243878 0.6875
C_ C_ 0.413247 0.186768 0.245475 0.6875
C_ C_ 0.20364 0.0921851 0.207082 -0.11473
C_ C_ 0.45851 0.0952238 0.206566 -0.11473
C_ C_ 0.0672236 0.151102 0.242944 -0.02249
C_ C_ 0.319479 0.147004 0.238696 -0.02249
C_ C_ 0.0150628 0.039915 0.249494 -0.02249
C_ C_ 0.261386 0.0381733 0.236294 -0.02249
C_ C_ 0.0430485 0.0934106 0.208275 -0.11473
C_ C_ 0.282479 0.103127 0.201729 -0.11473
C_ C_ 0.0616738 0.134789 0.283471 -0.11473
C_ C_ 0.321203 0.118702 0.273173 -0.11473
C_ C_ 0.0588344 0.13099 0.206847 -0.11473
C_ C_ 0.301299 0.138027 0.202917 -0.11473
C_ C_ 0.0321529 0.0790141 0.247978 -0.02249
C_ C_ 0.281148 0.0768878 0.238774 -0.02249
C_ C_ 0.0854057 0.189463 0.24149 0.6875
C_ C_ 0.333181 0.189048 0.243926 0.6875
C_ C_ 0.0424329 0.0981455 0.284791 -0.11473
C_ C_ 0.30139 0.085269 0.274794 -0.11473
C_ C_ 0.131773 0.212041 0.366621 0.17695
C_ C_ 0.379485 0.209134 0.368326 0.17695
C_ C_ 0.126281 0.284317 0.371977 0.17695
C_ C_ 0.371434 0.282204 0.372137 0.17695
C_ C_ 0.125577 0.281696 0.416903 -0.11473
C_ C_ 0.37329 0.280711 0.417976 -0.11473
C_ C_ 0.125328 0.243272 0.435762 0.23465
C_ C_ 0.376824 0.239679 0.438321 0.23465
C_ C_ 0.129313 0.20807 0.411183 -0.11473
C_ C_ 0.377564 0.205525 0.413195 -0.11473
C_ C_ 0.117175 0.284688 0.119957 0.17695
C_ C_ 0.392192 0.224729 0.119283 0.17695
C_ C_ 0.127851 0.214671 0.114897 0.17695
C_ C_ 0.350103 0.267406 0.120851 0.17695
C_ C_ 0.127386 0.217475 0.0697624 -0.11473
C_ C_ 0.351873 0.273532 0.077148 -0.11473
C_ C_ 0.121947 0.255476 0.0497388 0.23465
C_ C_ 0.374994 0.256627 0.0543011 0.23465
C_ C_ 0.115293 0.289085 0.0758921 -0.11473
C_ C_ 0.395583 0.229642 0.0762126 -0.11473
C_ C_ 0.0310569 0.495902 0.228543 0.05793
C_ C_ 0.281719 0.501632 0.265489 0.05793
C_ C_ 0.214852 -0.0013360000000000039 0.244052 0.05793
C_ C_ 0.468155 0.999285 0.24926 0.05793
Br Br 0.074488 0.496659 0.23207 -0.17191
Br Br 0.323794 0.505348 0.279977 -0.17191
Br Br 0.170734 -0.0040200000000000236 0.245546 -0.17191
Br Br 0.426889 1.00112608 0.261721 -0.17191
N_ N_ 0.13064 0.249466 0.34863 -0.272
N_ N_ 0.375637 0.246446 0.349921 -0.272
N_ N_ 0.127748 0.239953 0.480405 -0.12501
N_ N_ 0.372235 0.236237 0.482882 -0.12501
N_ N_ 0.123339 0.249141 0.138225 -0.272
N_ N_ 0.373862 0.248796 0.142078 -0.272
N_ N_ 0.119327 0.261883 0.00430731 -0.12501
N_ N_ 0.373395 0.260365 0.010255 -0.12501
O_ O_ 0.0952811 0.291825 0.209945 -0.60745
O_ O_ 0.342923 0.297478 0.213358 -0.60745
O_ O_ 0.093195 0.296606 0.278575 -0.60745
O_ O_ 0.344534 0.293762 0.283075 -0.60745
O_ O_ 0.15705 0.292768 0.282575 -0.60745
O_ O_ 0.404542 0.291187 0.276997 -0.60745
O_ O_ 0.155458 0.294745 0.213627 -0.60745
O_ O_ 0.406317 0.292015 0.209222 -0.60745
O_ O_ 0.153472 0.206362 0.275745 -0.60745
O_ O_ 0.404274 0.198609 0.2802 -0.60745
O_ O_ 0.155612 0.20677 0.208738 -0.60745
O_ O_ 0.406572 0.207793 0.21386 -0.60745
O_ O_ 0.0928953 0.204218 0.206962 -0.60745
O_ O_ 0.340677 0.207795 0.21022 -0.60745
O_ O_ 0.0922241 0.207911 0.276156 -0.60745
O_ O_ 0.340706 0.202828 0.278432 -0.60745
Zn Zn 0.123047 0.246601 0.774729 0.9476
Zn Zn 0.379766 0.249513 0.782232 0.9476
Zn Zn 0.122404 0.248393 0.705197 0.9476
Zn Zn 0.380027 0.24812 0.711868 0.9476
H_ H_ 0.0416599 0.429361 0.681188 0.10932
H_ H_ 0.302888 0.429149 0.685111 0.10932
H_ H_ 0.0690414 0.353627 0.811536 0.10932
H_ H_ 0.296542 0.334911 0.803256 0.10932
H_ H_ 0.0559962 0.358052 0.674971 0.10932
H_ H_ 0.333941 0.365324 0.690558 0.10932
H_ H_ 0.0379029 0.413246 0.815627 0.10932
H_ H_ 0.270914 0.400566 0.808668 0.10932
H_ H_ 0.200418 0.425632 0.808025 0.10932
H_ H_ 0.466061 0.418606 0.827846 0.10932
H_ H_ 0.195247 0.344185 0.673965 0.10932
H_ H_ 0.443383 0.353553 0.687878 0.10932
H_ H_ 0.171202 0.363305 0.803856 0.10932
H_ H_ 0.437439 0.349223 0.825746 0.10932
H_ H_ 0.221571 0.410322 0.677368 0.10932
H_ H_ 0.462909 0.421167 0.690688 0.10932
H_ H_ 0.207127 0.0741867 0.805878 0.10932
H_ H_ 0.485104 0.0988595 0.812188 0.10932
H_ H_ 0.192059 0.15223 0.670413 0.10932
H_ H_ 0.433179 0.135031 0.678919 0.10932
H_ H_ 0.176268 0.139994 0.805107 0.10932
H_ H_ 0.453836 0.16162 0.804078 0.10932
H_ H_ 0.232287 0.0982008 0.672224 0.10932
H_ H_ 0.463273 0.0678712 0.681859 0.10932
H_ H_ 0.0328961 0.0731038 0.678562 0.10932
H_ H_ 0.304334 0.06428 0.680836 0.10932
H_ H_ 0.0650826 0.145352 0.81137 0.10932
H_ H_ 0.311671 0.154293 0.805646 0.10932
H_ H_ 0.0640552 0.140501 0.671579 0.10932
H_ H_ 0.331887 0.135316 0.676965 0.10932
H_ H_ 0.0353147 0.0849724 0.813428 0.10932
H_ H_ 0.276796 0.098958 0.802954 0.10932
H_ H_ 0.145402 0.307279 0.854764 0.10932
H_ H_ 0.375603 0.310632 0.864927 0.10932
H_ H_ 0.118251 0.183538 0.844229 0.10932
H_ H_ 0.3873 0.182712 0.851933 0.10932
H_ H_ 0.116386 0.175256 0.92196 0.10932
H_ H_ 0.385871 0.175329 0.932056 0.10932
H_ H_ 0.136913 0.30542 0.929751 0.10932
H_ H_ 0.368114 0.302699 0.940272 0.10932
H_ H_ 0.131745 0.191523 0.624568 0.10932
H_ H_ 0.388392 0.187415 0.632141 0.10932
H_ H_ 0.107732 0.317806 0.637448 0.10932
H_ H_ 0.369415 0.313486 0.645202 0.10932
H_ H_ 0.103026 0.322204 0.558872 0.10932
H_ H_ 0.363495 0.319951 0.569173 0.10932
H_ H_ 0.128535 0.194053 0.549094 0.10932
H_ H_ 0.385582 0.194666 0.552715 0.10932
C_ C_ 0.0683697 0.35218 0.74371 -0.02249
C_ C_ 0.320543 0.346458 0.749124 -0.02249
C_ C_ 0.0170201 0.462382 0.751912 -0.02249
C_ C_ 0.267792 0.459663 0.748754 -0.02249
C_ C_ 0.0397743 0.408775 0.707901 -0.11473
C_ C_ 0.30233 0.407739 0.712345 -0.11473
C_ C_ 0.0615962 0.368901 0.78272 -0.11473
C_ C_ 0.301112 0.35576 0.780736 -0.11473
C_ C_ 0.0550231 0.370214 0.70703 -0.11473
C_ C_ 0.317858 0.370037 0.712337 -0.11473
C_ C_ 0.0335571 0.424373 0.74878 -0.02249
C_ C_ 0.284523 0.419341 0.747923 -0.02249
C_ C_ 0.0866735 0.312731 0.742229 0.6875
C_ C_ 0.338189 0.30801 0.750232 0.6875
C_ C_ 0.0423898 0.402688 0.785665 -0.11473
C_ C_ 0.283339 0.39206 0.781375 -0.11473
C_ C_ 0.184274 0.345484 0.741175 -0.02249
C_ C_ 0.44086 0.343573 0.756816 -0.02249
C_ C_ 0.236104 0.460093 0.74668 -0.02249
C_ C_ 0.487995 0.460236 0.76312 -0.02249
C_ C_ 0.201435 0.40655 0.779286 -0.11473
C_ C_ 0.460007 0.403089 0.797395 -0.11473
C_ C_ 0.199024 0.359729 0.704955 -0.11473
C_ C_ 0.448311 0.366173 0.719479 -0.11473
C_ C_ 0.185389 0.369001 0.777096 -0.11473
C_ C_ 0.445376 0.36411 0.795265 -0.11473
C_ C_ 0.217434 0.420328 0.744035 -0.02249
C_ C_ 0.469005 0.422323 0.75989 -0.02249
C_ C_ 0.164432 0.30741 0.74015 0.6875
C_ C_ 0.420274 0.306846 0.755721 0.6875
C_ C_ 0.212427 0.398642 0.706077 -0.11473
C_ C_ 0.46097 0.405273 0.719776 -0.11473
C_ C_ 0.184616 0.153888 0.738201 -0.02249
C_ C_ 0.438639 0.150199 0.742448 -0.02249
C_ C_ 0.238258 0.0410239 0.737563 -0.02249
C_ C_ 0.49056 0.0387747 0.752504 -0.02249
C_ C_ 0.205238 0.0934222 0.777103 -0.11473
C_ C_ 0.47329 0.105967 0.781018 -0.11473
C_ C_ 0.19916 0.138995 0.700635 -0.11473
C_ C_ 0.44398 0.126916 0.706433 -0.11473
C_ C_ 0.187238 0.129559 0.776981 -0.11473
C_ C_ 0.45483 0.140587 0.778666 -0.11473
C_ C_ 0.223443 0.082281 0.740923 -0.02249
C_ C_ 0.474767 0.0775114 0.747136 -0.02249
C_ C_ 0.165063 0.19052 0.734096 0.6875
C_ C_ 0.421929 0.190458 0.741035 0.6875
C_ C_ 0.220522 0.10668 0.703271 -0.11473
C_ C_ 0.462972 0.0903368 0.70837 -0.11473
C_ C_ 0.0649683 0.149831 0.741411 -0.02249
C_ C_ 0.321637 0.152905 0.739774 -0.02249
C_ C_ 0.0147095 0.038356 0.7463 -0.02249
C_ C_ 0.269522 0.0397674 0.742834 -0.02249
C_ C_ 0.0414889 0.0916023 0.705525 -0.11473
C_ C_ 0.30471 0.0869809 0.706589 -0.11473
C_ C_ 0.0595204 0.131024 0.779721 -0.11473
C_ C_ 0.309863 0.136673 0.775983 -0.11473
C_ C_ 0.0563921 0.130056 0.702972 -0.11473
C_ C_ 0.323706 0.123614 0.70753 -0.11473
C_ C_ 0.0327793 0.076893 0.744671 -0.02249
C_ C_ 0.287525 0.0778358 0.740123 -0.02249
C_ C_ 0.0837788 0.188989 0.740934 0.6875
C_ C_ 0.341248 0.187991 0.740312 0.6875
C_ C_ 0.0411497 0.096231 0.782321 -0.11473
C_ C_ 0.289944 0.103959 0.775737 -0.11473
C_ C_ 0.135489 0.279844 0.870216 0.17695
C_ C_ 0.374063 0.279787 0.878876 0.17695
C_ C_ 0.120512 0.209486 0.865856 0.17695
C_ C_ 0.382213 0.20703 0.871753 0.17695
C_ C_ 0.122956 0.205413 0.90949 -0.11473
C_ C_ 0.385444 0.203881 0.916094 -0.11473
C_ C_ 0.128254 0.239078 0.935138 0.23465
C_ C_ 0.383179 0.239405 0.942189 0.23465
C_ C_ 0.135013 0.277296 0.913809 -0.11473
C_ C_ 0.374971 0.277364 0.921972 -0.11473
C_ C_ 0.127951 0.220975 0.611323 0.17695
C_ C_ 0.380323 0.215292 0.616489 0.17695
C_ C_ 0.112279 0.291528 0.61761 0.17695
C_ C_ 0.372258 0.287121 0.625744 0.17695
C_ C_ 0.110798 0.294256 0.573037 -0.11473
C_ C_ 0.371907 0.292448 0.581913 -0.11473
C_ C_ 0.118972 0.260164 0.548275 0.23465
C_ C_ 0.376533 0.259674 0.553642 0.23465
C_ C_ 0.12563 0.222072 0.567506 -0.11473
C_ C_ 0.380492 0.219944 0.572416 -0.11473
C_ C_ 0.0320861 0.500184 0.749619 0.05793
C_ C_ 0.282765 0.49701 0.762922 0.05793
C_ C_ 0.22088 0.00316464 0.737934 0.05793
C_ C_ 0.472482 1.0023247 0.746435 0.05793
Br Br 0.0734833 0.502078 0.736817 -0.17191
Br Br 0.324994 0.496438 0.76803 -0.17191
Br Br 0.179622 0.00297382 0.735666 -0.17191
Br Br 0.429671 1.00556961 0.739889 -0.17191
N_ N_ 0.12739 0.247089 0.84713 -0.272
N_ N_ 0.378944 0.246722 0.854183 -0.272
N_ N_ 0.12776 0.233837 0.980343 -0.12501
N_ N_ 0.38486 0.23452 0.986806 -0.12501
N_ N_ 0.119584 0.254184 0.634709 -0.272
N_ N_ 0.377492 0.249414 0.641678 -0.272
N_ N_ 0.11525 0.264699 0.503875 -0.12501
N_ N_ 0.377627 0.26564 0.508472 -0.12501
O_ O_ 0.0934434 0.297469 0.708586 -0.60745
O_ O_ 0.347702 0.290326 0.716874 -0.60745
O_ O_ 0.0948512 0.295024 0.776226 -0.60745
O_ O_ 0.350333 0.298833 0.786084 -0.60745
O_ O_ 0.153655 0.292041 0.774132 -0.60745
O_ O_ 0.414781 0.287792 0.789032 -0.60745
O_ O_ 0.156934 0.288743 0.705287 -0.60745
O_ O_ 0.407716 0.294982 0.720899 -0.60745
O_ O_ 0.155836 0.204753 0.768534 -0.60745
O_ O_ 0.410319 0.202117 0.7758 -0.60745
O_ O_ 0.152921 0.202866 0.700606 -0.60745
O_ O_ 0.411385 0.203731 0.707399 -0.60745
O_ O_ 0.0885936 0.208373 0.707222 -0.60745
O_ O_ 0.348156 0.204921 0.706276 -0.60745
O_ O_ 0.0938121 0.203635 0.77726 -0.60745
O_ O_ 0.351052 0.202907 0.774148 -0.60745
Zn Zn 0.118544 0.748796 0.280279 0.9476
Zn Zn 0.373369 0.751058 0.287854 0.9476
Zn Zn 0.12034 0.747195 0.210965 0.9476
Zn Zn 0.375329 0.750355 0.218351 0.9476
H_ H_ 0.0178273 0.909941 0.185534 0.10932
H_ H_ 0.276882 0.91146 0.175995 0.10932
H_ H_ 0.0661936 0.856406 0.314085 0.10932
H_ H_ 0.315746 0.861251 0.312621 0.10932
H_ H_ 0.0469132 0.846667 0.181555 0.10932
H_ H_ 0.312892 0.856357 0.178856 0.10932
H_ H_ 0.0353256 0.917093 0.316555 0.10932
H_ H_ 0.290675 0.928274 0.309894 0.10932
H_ H_ 0.209915 0.918306 0.31244 0.10932
H_ H_ 0.471188 0.916752 0.319651 0.10932
H_ H_ 0.188463 0.846001 0.176782 0.10932
H_ H_ 0.436776 0.856255 0.184838 0.10932
H_ H_ 0.182548 0.851218 0.31237 0.10932
H_ H_ 0.438782 0.853781 0.319099 0.10932
H_ H_ 0.21544 0.912588 0.176831 0.10932
H_ H_ 0.463819 0.915532 0.182496 0.10932
H_ H_ 0.205314 0.574409 0.318372 0.10932
H_ H_ 0.466041 0.585071 0.32479 0.10932
H_ H_ 0.197597 0.659236 0.187824 0.10932
H_ H_ 0.43726 0.647329 0.18708 0.10932
H_ H_ 0.176019 0.642537 0.31506 0.10932
H_ H_ 0.433362 0.648194 0.322359 0.10932
H_ H_ 0.229318 0.593266 0.194349 0.10932
H_ H_ 0.461408 0.577298 0.191384 0.10932
H_ H_ 0.0419892 0.581965 0.17036 0.10932
H_ H_ 0.310874 0.56237 0.206698 0.10932
H_ H_ 0.0547076 0.644119 0.31017 0.10932
H_ H_ 0.2944 0.665421 0.312306 0.10932
H_ H_ 0.071137 0.643409 0.177836 0.10932
H_ H_ 0.33945 0.622087 0.200164 0.10932
H_ H_ 0.0272636 0.57726 0.301472 0.10932
H_ H_ 0.266188 0.59976 0.314622 0.10932
H_ H_ 0.129748 0.81403 0.352538 0.10932
H_ H_ 0.393404 0.818258 0.356081 0.10932
H_ H_ 0.117049 0.686774 0.35398 0.10932
H_ H_ 0.354561 0.697089 0.365603 0.10932
H_ H_ 0.122011 0.687336 0.430796 0.10932
H_ H_ 0.352242 0.706229 0.441529 0.10932
H_ H_ 0.12441 0.81606 0.432671 0.10932
H_ H_ 0.395558 0.823234 0.436361 0.10932
H_ H_ 0.122464 0.67762 0.137498 0.10932
H_ H_ 0.357245 0.814134 0.145327 0.10932
H_ H_ 0.128594 0.805526 0.133288 0.10932
H_ H_ 0.387798 0.690377 0.143315 0.10932
H_ H_ 0.118692 0.80727 0.0545884 0.10932
H_ H_ 0.390447 0.692606 0.0642209 0.10932
H_ H_ 0.123518 0.676873 0.0596358 0.10932
H_ H_ 0.363333 0.823717 0.0708359 0.10932
C_ C_ 0.0652683 0.851101 0.245028 -0.02249
C_ C_ 0.316984 0.851107 0.246969 -0.02249
C_ C_ 0.0149468 0.964692 0.251458 -0.02249
C_ C_ 0.263577 0.962272 0.23866 -0.02249
C_ C_ 0.0335752 0.903246 0.210961 -0.11473
C_ C_ 0.283748 0.897672 0.206966 -0.11473
C_ C_ 0.0600839 0.871797 0.284059 -0.11473
C_ C_ 0.309683 0.873141 0.28268 -0.11473
C_ C_ 0.0495681 0.865601 0.208794 -0.11473
C_ C_ 0.302557 0.863596 0.208767 -0.11473
C_ C_ 0.0317525 0.924862 0.248923 -0.02249
C_ C_ 0.280094 0.922563 0.242535 -0.02249
C_ C_ 0.083655 0.814012 0.245392 0.6875
C_ C_ 0.336409 0.813425 0.249239 0.6875
C_ C_ 0.0429 0.907033 0.286064 -0.11473
C_ C_ 0.292886 0.910445 0.280808 -0.11473
C_ C_ 0.180486 0.843627 0.245022 -0.02249
C_ C_ 0.436114 0.848358 0.252971 -0.02249
C_ C_ 0.230803 0.960946 0.24199 -0.02249
C_ C_ 0.484996 0.96144 0.249626 -0.02249
C_ C_ 0.205424 0.901846 0.281753 -0.11473
C_ C_ 0.463428 0.901964 0.289992 -0.11473
C_ C_ 0.190694 0.861807 0.206263 -0.11473
C_ C_ 0.441935 0.868452 0.21422 -0.11473
C_ C_ 0.185838 0.866694 0.282991 -0.11473
C_ C_ 0.44628 0.86488 0.290119 -0.11473
C_ C_ 0.212709 0.91887 0.244118 -0.02249
C_ C_ 0.467493 0.923357 0.250886 -0.02249
C_ C_ 0.164354 0.803033 0.244501 0.6875
C_ C_ 0.417171 0.809224 0.251894 0.6875
C_ C_ 0.207751 0.898474 0.205456 -0.11473
C_ C_ 0.458607 0.903471 0.213514 -0.11473
C_ C_ 0.181761 0.652894 0.251062 -0.02249
C_ C_ 0.43386 0.653249 0.255197 -0.02249
C_ C_ 0.234798 0.538848 0.255602 -0.02249
C_ C_ 0.481066 0.536628 0.258335 -0.02249
C_ C_ 0.203267 0.593009 0.29 -0.11473
C_ C_ 0.457922 0.594734 0.295399 -0.11473
C_ C_ 0.199915 0.640572 0.217805 -0.11473
C_ C_ 0.442519 0.634548 0.217976 -0.11473
C_ C_ 0.185289 0.629388 0.287341 -0.11473
C_ C_ 0.442389 0.635351 0.293375 -0.11473
C_ C_ 0.216983 0.578232 0.25495 -0.02249
C_ C_ 0.465084 0.576664 0.256814 -0.02249
C_ C_ 0.160352 0.688928 0.247006 0.6875
C_ C_ 0.414118 0.692605 0.253129 0.6875
C_ C_ 0.216016 0.602051 0.219369 -0.11473
C_ C_ 0.455926 0.59541 0.219307 -0.11473
C_ C_ 0.0629355 0.651601 0.243075 -0.02249
C_ C_ 0.3183 0.652874 0.254585 -0.02249
C_ C_ 0.0160665 0.535581 0.229009 -0.02249
C_ C_ 0.26626 0.53868 0.257415 -0.02249
C_ C_ 0.0455721 0.593958 0.201301 -0.11473
C_ C_ 0.3058 0.585468 0.225896 -0.11473
C_ C_ 0.0517853 0.630758 0.279291 -0.11473
C_ C_ 0.295887 0.645553 0.285599 -0.11473
C_ C_ 0.0598742 0.631977 0.204643 -0.11473
C_ C_ 0.321031 0.621783 0.223483 -0.11473
C_ C_ 0.0321205 0.575537 0.234814 -0.02249
C_ C_ 0.283801 0.577097 0.25716 -0.02249
C_ C_ 0.0765192 0.694039 0.24382 0.6875
C_ C_ 0.33804 0.690166 0.256779 0.6875
C_ C_ 0.0343609 0.594645 0.274881 -0.11473
C_ C_ 0.280141 0.607767 0.2877 -0.11473
C_ C_ 0.123745 0.786051 0.370992 0.17695
C_ C_ 0.386281 0.79203 0.375322 0.17695
C_ C_ 0.114716 0.714462 0.372744 0.17695
C_ C_ 0.365826 0.724273 0.380507 0.17695
C_ C_ 0.117656 0.715773 0.415945 -0.11473
C_ C_ 0.36365 0.728166 0.424532 -0.11473
C_ C_ 0.11594 0.75301 0.43808 0.23465
C_ C_ 0.374193 0.764222 0.444411 0.23465
C_ C_ 0.120611 0.787991 0.414062 -0.11473
C_ C_ 0.386624 0.795396 0.42055 -0.11473
C_ C_ 0.125221 0.705343 0.120027 0.17695
C_ C_ 0.367794 0.788332 0.126885 0.17695
C_ C_ 0.122939 0.779611 0.115763 0.17695
C_ C_ 0.382975 0.718823 0.12575 0.17695
C_ C_ 0.122869 0.778191 0.0712421 -0.11473
C_ C_ 0.385384 0.719782 0.0813986 -0.11473
C_ C_ 0.126044 0.739815 0.0511289 0.23465
C_ C_ 0.377232 0.757737 0.0600194 0.23465
C_ C_ 0.12889 0.704588 0.0756528 -0.11473
C_ C_ 0.367922 0.791912 0.0840351 -0.11473
C_ C_ 0.0308606 1.00276416 0.251375 0.05793
C_ C_ 0.277471 1.000078572 0.230203 0.05793
C_ C_ 0.218842 0.500515 0.246743 0.05793
C_ C_ 0.464889 0.499701 0.260522 0.05793
Br Br 0.0723048 0.00578562 0.233935 -0.17191
Br Br 0.319407 0.997749 0.215315 -0.17191
Br Br 0.176611 0.503317 0.228376 -0.17191
Br Br 0.42287 0.501787 0.243793 -0.17191
N_ N_ 0.11771 0.750187 0.350173 -0.272
N_ N_ 0.375387 0.756335 0.356982 -0.272
N_ N_ 0.115057 0.757434 0.482982 -0.12501
N_ N_ 0.370151 0.769232 0.48938 -0.12501
N_ N_ 0.122021 0.743359 0.138441 -0.272
N_ N_ 0.372086 0.752704 0.146988 -0.272
N_ N_ 0.126348 0.736017 0.00635314 -0.12501
N_ N_ 0.376137 0.760605 0.0151545 -0.12501
O_ O_ 0.0911978 0.796283 0.210569 -0.60745
O_ O_ 0.344367 0.794401 0.216849 -0.60745
O_ O_ 0.0928058 0.798801 0.281156 -0.60745
O_ O_ 0.343465 0.797038 0.2842 -0.60745
O_ O_ 0.154784 0.788627 0.278993 -0.60745
O_ O_ 0.404497 0.797132 0.285219 -0.60745
O_ O_ 0.153639 0.788909 0.208424 -0.60745
O_ O_ 0.406455 0.797282 0.217406 -0.60745
O_ O_ 0.147302 0.702716 0.280919 -0.60745
O_ O_ 0.40293 0.706476 0.286934 -0.60745
O_ O_ 0.151533 0.700765 0.210931 -0.60745
O_ O_ 0.407465 0.709055 0.21791 -0.60745
O_ O_ 0.0888061 0.705207 0.211261 -0.60745
O_ O_ 0.347553 0.705864 0.224421 -0.60745
O_ O_ 0.0845395 0.709333 0.278186 -0.60745
O_ O_ 0.342306 0.708232 0.291859 -0.60745
Zn Zn 0.127214 0.749761 0.778015 0.9476
Zn Zn 0.379341 0.751311 0.787224 0.9476
Zn Zn 0.125531 0.750467 0.710421 0.9476
Zn Zn 0.377328 0.744708 0.718577 0.9476
H_ H_ 0.0429517 0.927297 0.678336 0.10932
H_ H_ 0.297826 0.925723 0.683908 0.10932
H_ H_ 0.0503512 0.841201 0.804473 0.10932
H_ H_ 0.299488 0.839496 0.813786 0.10932
H_ H_ 0.0679008 0.864464 0.674858 0.10932
H_ H_ 0.325508 0.857593 0.685251 0.10932
H_ H_ 0.0238811 0.906348 0.809089 0.10932
H_ H_ 0.269809 0.907137 0.810594 0.10932
H_ H_ 0.211926 0.926848 0.813045 0.10932
H_ H_ 0.467067 0.921512 0.812261 0.10932
H_ H_ 0.194272 0.843065 0.684803 0.10932
H_ H_ 0.436818 0.8494 0.681686 0.10932
H_ H_ 0.180767 0.861011 0.816486 0.10932
H_ H_ 0.437783 0.861264 0.814615 0.10932
H_ H_ 0.224017 0.905424 0.682251 0.10932
H_ H_ 0.460104 0.91975 0.679265 0.10932
H_ H_ 0.216233 0.580359 0.821242 0.10932
H_ H_ 0.479828 0.592179 0.827444 0.10932
H_ H_ 0.185408 0.639454 0.682681 0.10932
H_ H_ 0.427721 0.628761 0.696763 0.10932
H_ H_ 0.190045 0.646776 0.818187 0.10932
H_ H_ 0.459973 0.66741 0.816421 0.10932
H_ H_ 0.216214 0.578076 0.684976 0.10932
H_ H_ 0.452298 0.562986 0.704666 0.10932
H_ H_ 0.0139547 0.598977 0.68564 0.10932
H_ H_ 0.270338 0.588763 0.696155 0.10932
H_ H_ 0.0848699 0.631325 0.802527 0.10932
H_ H_ 0.330868 0.638394 0.818816 0.10932
H_ H_ 0.0472807 0.658024 0.682857 0.10932
H_ H_ 0.29898 0.656539 0.691725 0.10932
H_ H_ 0.0528185 0.571149 0.810964 0.10932
H_ H_ 0.300653 0.575259 0.822293 0.10932
H_ H_ 0.116336 0.819432 0.84813 0.10932
H_ H_ 0.371141 0.814063 0.869358 0.10932
H_ H_ 0.123365 0.68651 0.857117 0.10932
H_ H_ 0.389031 0.686933 0.855504 0.10932
H_ H_ 0.130785 0.692257 0.937368 0.10932
H_ H_ 0.392203 0.676015 0.928995 0.10932
H_ H_ 0.12832 0.825828 0.927501 0.10932
H_ H_ 0.371571 0.807777 0.946728 0.10932
H_ H_ 0.132208 0.679778 0.643387 0.10932
H_ H_ 0.371043 0.81289 0.639764 0.10932
H_ H_ 0.116317 0.807747 0.631549 0.10932
H_ H_ 0.383949 0.681532 0.644976 0.10932
H_ H_ 0.124112 0.803484 0.553768 0.10932
H_ H_ 0.385013 0.679356 0.566204 0.10932
H_ H_ 0.128978 0.671361 0.562144 0.10932
H_ H_ 0.363978 0.809016 0.564339 0.10932
C_ C_ 0.0631431 0.846471 0.7401 -0.02249
C_ C_ 0.314722 0.84499 0.749434 -0.02249
C_ C_ 0.0144486 0.962294 0.747636 -0.02249
C_ C_ 0.266397 0.962453 0.747444 -0.02249
C_ C_ 0.0440603 0.909105 0.705745 -0.11473
C_ C_ 0.297658 0.904935 0.711328 -0.11473
C_ C_ 0.0492563 0.860282 0.776627 -0.11473
C_ C_ 0.302287 0.86185 0.786893 -0.11473
C_ C_ 0.059835 0.87199 0.704403 -0.11473
C_ C_ 0.311072 0.866032 0.711352 -0.11473
C_ C_ 0.0310828 0.92325 0.743753 -0.02249
C_ C_ 0.283084 0.921399 0.747996 -0.02249
C_ C_ 0.0845133 0.809152 0.739723 0.6875
C_ C_ 0.336726 0.807217 0.750907 0.6875
C_ C_ 0.0326202 0.897944 0.778917 -0.11473
C_ C_ 0.28528 0.897266 0.785594 -0.11473
C_ C_ 0.182892 0.849829 0.7498 -0.02249
C_ C_ 0.438491 0.84623 0.750362 -0.02249
C_ C_ 0.234746 0.965061 0.74409 -0.02249
C_ C_ 0.487295 0.962911 0.7441 -0.02249
C_ C_ 0.206483 0.909314 0.784488 -0.11473
C_ C_ 0.46354 0.905529 0.783755 -0.11473
C_ C_ 0.196612 0.863267 0.712066 -0.11473
C_ C_ 0.444284 0.864677 0.711371 -0.11473
C_ C_ 0.188044 0.872669 0.785275 -0.11473
C_ C_ 0.446082 0.869591 0.785497 -0.11473
C_ C_ 0.216916 0.925752 0.744918 -0.02249
C_ C_ 0.468465 0.924468 0.746776 -0.02249
C_ C_ 0.164169 0.811241 0.748628 0.6875
C_ C_ 0.419452 0.808036 0.754248 0.6875
C_ C_ 0.213838 0.900647 0.710605 -0.11473
C_ C_ 0.459254 0.90462 0.709673 -0.11473
C_ C_ 0.186101 0.651754 0.752093 -0.02249
C_ C_ 0.437988 0.651632 0.756087 -0.02249
C_ C_ 0.236125 0.535886 0.753087 -0.02249
C_ C_ 0.49031 0.536735 0.763892 -0.02249
C_ C_ 0.211191 0.596268 0.790175 -0.11473
C_ C_ 0.472013 0.604219 0.796789 -0.11473
C_ C_ 0.191067 0.629197 0.713322 -0.11473
C_ C_ 0.441033 0.6246 0.723176 -0.11473
C_ C_ 0.19481 0.633201 0.789505 -0.11473
C_ C_ 0.4565 0.643257 0.79269 -0.11473
C_ C_ 0.218281 0.574977 0.752348 -0.02249
C_ C_ 0.474165 0.57778 0.76167 -0.02249
C_ C_ 0.167657 0.691973 0.750872 0.6875
C_ C_ 0.418455 0.688136 0.753132 0.6875
C_ C_ 0.210098 0.592931 0.714441 -0.11473
C_ C_ 0.457457 0.588301 0.725209 -0.11473
C_ C_ 0.0706523 0.647564 0.741854 -0.02249
C_ C_ 0.317173 0.652847 0.754359 -0.02249
C_ C_ 0.0142589 0.538758 0.748063 -0.02249
C_ C_ 0.267674 0.535814 0.763642 -0.02249
C_ C_ 0.0296885 0.605016 0.712964 -0.11473
C_ C_ 0.283424 0.600278 0.722574 -0.11473
C_ C_ 0.0677888 0.624464 0.778541 -0.11473
C_ C_ 0.317809 0.629755 0.79143 -0.11473
C_ C_ 0.0509632 0.637999 0.708942 -0.11473
C_ C_ 0.298669 0.638705 0.720498 -0.11473
C_ C_ 0.0299231 0.580399 0.74835 -0.02249
C_ C_ 0.284156 0.57712 0.75912 -0.02249
C_ C_ 0.0889872 0.687264 0.742935 0.6875
C_ C_ 0.33916 0.68797 0.751269 0.6875
C_ C_ 0.0497679 0.589922 0.782875 -0.11473
C_ C_ 0.299892 0.593629 0.79447 -0.11473
C_ C_ 0.120661 0.79173 0.867625 0.17695
C_ C_ 0.375449 0.784573 0.884209 0.17695
C_ C_ 0.122217 0.718483 0.872223 0.17695
C_ C_ 0.386462 0.713119 0.875736 0.17695
C_ C_ 0.123592 0.720653 0.918265 -0.11473
C_ C_ 0.389993 0.70872 0.919277 -0.11473
C_ C_ 0.124981 0.760565 0.935951 0.23465
C_ C_ 0.384755 0.741258 0.946233 0.23465
C_ C_ 0.125502 0.796099 0.912502 -0.11473
C_ C_ 0.377697 0.780983 0.927666 -0.11473
C_ C_ 0.129964 0.706216 0.621035 0.17695
C_ C_ 0.372762 0.782991 0.624293 0.17695
C_ C_ 0.12089 0.780081 0.616499 0.17695
C_ C_ 0.377075 0.708794 0.627897 0.17695
C_ C_ 0.121573 0.776847 0.572345 -0.11473
C_ C_ 0.379966 0.707422 0.583476 -0.11473
C_ C_ 0.123562 0.73684 0.552326 0.23465
C_ C_ 0.373678 0.742644 0.558346 0.23465
C_ C_ 0.127023 0.70161 0.576937 -0.11473
C_ C_ 0.36683 0.779933 0.580256 -0.11473
C_ C_ 0.0300892 5.87789e-05 0.742848 0.05793
C_ C_ 0.28342 0.00122031 0.748333 0.05793
C_ C_ 0.220296 0.497865 0.746186 0.05793
C_ C_ 0.473757 0.498333 0.765549 0.05793
Br Br 0.074465 0.000363503 0.743152 -0.17191
Br Br 0.32608 -0.0021719999999999517 0.769546 -0.17191
Br Br 0.177695 0.500415 0.728005 -0.17191
Br Br 0.430739 0.50469 0.774096 -0.17191
N_ N_ 0.120236 0.754718 0.848012 -0.272
N_ N_ 0.379595 0.75017 0.859074 -0.272
N_ N_ 0.129231 0.765497 0.981951 -0.12501
N_ N_ 0.390406 0.738466 0.990326 -0.12501
N_ N_ 0.125901 0.744508 0.638856 -0.272
N_ N_ 0.376332 0.746422 0.646305 -0.272
N_ N_ 0.127183 0.732483 0.507579 -0.12501
N_ N_ 0.378462 0.741471 0.514668 -0.12501
O_ O_ 0.0926743 0.792499 0.705212 -0.60745
O_ O_ 0.348649 0.792005 0.718907 -0.60745
O_ O_ 0.0942423 0.794178 0.774647 -0.60745
O_ O_ 0.348337 0.796209 0.7863 -0.60745
O_ O_ 0.158605 0.791667 0.782331 -0.60745
O_ O_ 0.411292 0.794481 0.789445 -0.60745
O_ O_ 0.152876 0.79925 0.712918 -0.60745
O_ O_ 0.406539 0.793882 0.720944 -0.60745
O_ O_ 0.156638 0.706852 0.784394 -0.60745
O_ O_ 0.409878 0.705013 0.786588 -0.60745
O_ O_ 0.163164 0.71015 0.715276 -0.60745
O_ O_ 0.409055 0.701856 0.717498 -0.60745
O_ O_ 0.0980718 0.70337 0.708922 -0.60745
O_ O_ 0.349482 0.697912 0.716365 -0.60745
O_ O_ 0.0983247 0.703112 0.776858 -0.60745
O_ O_ 0.345627 0.70977 0.783799 -0.60745
Zn Zn 0.622826 0.252285 0.289237 0.9476
Zn Zn 0.873614 0.251807 0.287714 0.9476
Zn Zn 0.627522 0.255205 0.220401 0.9476
Zn Zn 0.86916 0.249299 0.21754 0.9476
H_ H_ 0.528003 0.416036 0.184902 0.10932
H_ H_ 0.774676 0.416928 0.187307 0.10932
H_ H_ 0.558042 0.355377 0.32286 0.10932
H_ H_ 0.82313 0.362977 0.315865 0.10932
H_ H_ 0.56218 0.350162 0.190232 0.10932
H_ H_ 0.798268 0.347393 0.185935 0.10932
H_ H_ 0.525189 0.414237 0.322607 0.10932
H_ H_ 0.794825 0.423917 0.317818 0.10932
H_ H_ 0.717155 0.418646 0.332456 0.10932
H_ H_ 0.948438 0.432078 0.30122 0.10932
H_ H_ 0.680335 0.36258 0.195411 0.10932
H_ H_ 0.947799 0.334429 0.18369 0.10932
H_ H_ 0.68722 0.354524 0.332295 0.10932
H_ H_ 0.921999 0.365476 0.307174 0.10932
H_ H_ 0.712335 0.424748 0.194853 0.10932
H_ H_ 0.967775 0.402756 0.171943 0.10932
H_ H_ 0.709762 0.0873759 0.323077 0.10932
H_ H_ 0.97918 0.0997562 0.313684 0.10932
H_ H_ 0.683601 0.147051 0.182692 0.10932
H_ H_ 0.920892 0.142001 0.188777 0.10932
H_ H_ 0.681125 0.152702 0.317404 0.10932
H_ H_ 0.93606 0.148949 0.324631 0.10932
H_ H_ 0.714703 0.0851708 0.18743 0.10932
H_ H_ 0.948236 0.0738228 0.190149 0.10932
H_ H_ 0.534033 0.0824722 0.176083 0.10932
H_ H_ 0.784647 0.0793349 0.188578 0.10932
H_ H_ 0.567343 0.137869 0.314323 0.10932
H_ H_ 0.809161 0.145079 0.326818 0.10932
H_ H_ 0.561832 0.152767 0.17846 0.10932
H_ H_ 0.802 0.150803 0.187089 0.10932
H_ H_ 0.537363 0.0746287 0.30865 0.10932
H_ H_ 0.784174 0.0783895 0.321391 0.10932
H_ H_ 0.578149 0.243819 0.362134 0.10932
H_ H_ 0.870346 0.184772 0.353548 0.10932
H_ H_ 0.670175 0.262991 0.359254 0.10932
H_ H_ 0.880656 0.310672 0.364754 0.10932
H_ H_ 0.676199 0.251738 0.437422 0.10932
H_ H_ 0.878827 0.310318 0.444993 0.10932
H_ H_ 0.578016 0.24885 0.442795 0.10932
H_ H_ 0.86853 0.180988 0.434108 0.10932
H_ H_ 0.638539 0.196599 0.138486 0.10932
H_ H_ 0.817385 0.260763 0.148196 0.10932
H_ H_ 0.619991 0.320901 0.154129 0.10932
H_ H_ 0.910523 0.226535 0.138239 0.10932
H_ H_ 0.621445 0.329515 0.0758054 0.10932
H_ H_ 0.905441 0.237495 0.0571957 0.10932
H_ H_ 0.633357 0.19903 0.062659 0.10932
H_ H_ 0.810445 0.254008 0.0724982 0.10932
C_ C_ 0.560771 0.346072 0.257334 -0.02249
C_ C_ 0.81625 0.351094 0.247772 -0.02249
C_ C_ 0.511574 0.461912 0.251745 -0.02249
C_ C_ 0.764442 0.464281 0.253715 -0.02249
C_ C_ 0.532303 0.399998 0.215605 -0.11473
C_ C_ 0.787957 0.405337 0.213109 -0.11473
C_ C_ 0.551484 0.367375 0.293599 -0.11473
C_ C_ 0.812605 0.372583 0.286967 -0.11473
C_ C_ 0.551927 0.362862 0.2177 -0.11473
C_ C_ 0.801554 0.367005 0.212979 -0.11473
C_ C_ 0.526273 0.421364 0.254108 -0.02249
C_ C_ 0.783002 0.425876 0.251951 -0.02249
C_ C_ 0.583159 0.311356 0.259949 0.6875
C_ C_ 0.835103 0.313907 0.24884 0.6875
C_ C_ 0.53317 0.403284 0.292679 -0.11473
C_ C_ 0.795319 0.408245 0.287542 -0.11473
C_ C_ 0.682661 0.351392 0.262599 -0.02249
C_ C_ 0.931094 0.346944 0.245507 -0.02249
C_ C_ 0.733354 0.463191 0.264933 -0.02249
C_ C_ 0.982325 0.460675 0.233279 -0.02249
C_ C_ 0.711408 0.402285 0.302288 -0.11473
C_ C_ 0.952441 0.409066 0.275933 -0.11473
C_ C_ 0.689399 0.373313 0.225505 -0.11473
C_ C_ 0.947741 0.356202 0.20942 -0.11473
C_ C_ 0.694293 0.366526 0.301725 -0.11473
C_ C_ 0.935425 0.372192 0.280035 -0.11473
C_ C_ 0.715423 0.423898 0.264995 -0.02249
C_ C_ 0.96479 0.421914 0.236546 -0.02249
C_ C_ 0.662759 0.313819 0.257405 0.6875
C_ C_ 0.914106 0.307914 0.24905 0.6875
C_ C_ 0.709328 0.40748 0.225833 -0.11473
C_ C_ 0.960711 0.394685 0.202709 -0.11473
C_ C_ 0.68111 0.156829 0.25147 -0.02249
C_ C_ 0.928935 0.152194 0.255389 -0.02249
C_ C_ 0.730352 0.038432 0.258875 -0.02249
C_ C_ 0.983353 0.0403144 0.250528 -0.02249
C_ C_ 0.702658 0.099168 0.29171 -0.11473
C_ C_ 0.96329 0.103863 0.28822 -0.11473
C_ C_ 0.69148 0.136185 0.2146 -0.11473
C_ C_ 0.932028 0.130268 0.217847 -0.11473
C_ C_ 0.68655 0.135242 0.289127 -0.11473
C_ C_ 0.941863 0.135761 0.29148 -0.11473
C_ C_ 0.715549 0.0799081 0.25597 -0.02249
C_ C_ 0.964213 0.0782355 0.251925 -0.02249
C_ C_ 0.662413 0.192685 0.250177 0.6875
C_ C_ 0.90873 0.188119 0.254143 0.6875
C_ C_ 0.705658 0.0968441 0.216713 -0.11473
C_ C_ 0.945528 0.0914744 0.218306 -0.11473
C_ C_ 0.566202 0.151098 0.246458 -0.02249
C_ C_ 0.809917 0.152627 0.257002 -0.02249
C_ C_ 0.514758 0.0371847 0.239619 -0.02249
C_ C_ 0.762257 0.0378968 0.255029 -0.02249
C_ C_ 0.540787 0.096529 0.205389 -0.11473
C_ C_ 0.785427 0.0963727 0.218059 -0.11473
C_ C_ 0.55808 0.130509 0.283846 -0.11473
C_ C_ 0.803732 0.133676 0.294868 -0.11473
C_ C_ 0.553975 0.137027 0.207829 -0.11473
C_ C_ 0.799627 0.134066 0.219695 -0.11473
C_ C_ 0.533044 0.0776364 0.243193 -0.02249
C_ C_ 0.778691 0.0767541 0.256195 -0.02249
C_ C_ 0.586587 0.189396 0.251985 0.6875
C_ C_ 0.828306 0.190835 0.255168 0.6875
C_ C_ 0.541696 0.0931067 0.282833 -0.11473
C_ C_ 0.786399 0.0955973 0.293419 -0.11473
C_ C_ 0.598433 0.251297 0.381466 0.17695
C_ C_ 0.871703 0.212226 0.375533 0.17695
C_ C_ 0.651448 0.26245 0.377709 0.17695
C_ C_ 0.876338 0.283308 0.381486 0.17695
C_ C_ 0.653545 0.258051 0.422029 -0.11473
C_ C_ 0.8772 0.28159 0.425768 -0.11473
C_ C_ 0.62809 0.254406 0.446839 0.23465
C_ C_ 0.874729 0.243442 0.445401 0.23465
C_ C_ 0.599618 0.251662 0.4251 -0.11473
C_ C_ 0.872168 0.208964 0.419821 -0.11473
C_ C_ 0.628785 0.223859 0.125179 0.17695
C_ C_ 0.836341 0.248387 0.130005 0.17695
C_ C_ 0.620784 0.295252 0.13184 0.17695
C_ C_ 0.889354 0.237535 0.124158 0.17695
C_ C_ 0.619711 0.299855 0.087788 -0.11473
C_ C_ 0.886299 0.240634 0.0797731 -0.11473
C_ C_ 0.622617 0.265267 0.0602243 0.23465
C_ C_ 0.857984 0.24525 0.0596324 0.23465
C_ C_ 0.625936 0.225893 0.0807186 -0.11473
C_ C_ 0.832721 0.247293 0.0852964 -0.11473
C_ C_ 0.527179 0.499184 0.25686 0.05793
C_ C_ 0.780229 0.50193 0.253144 0.05793
C_ C_ 0.714084 1.00205219 0.256686 0.05793
C_ C_ 0.968125 1.00231742 0.25668 0.05793
Br Br 0.570444 0.499025 0.25092 -0.17191
Br Br 0.819731 0.506506 0.227652 -0.17191
Br Br 0.671064 0.00130862 0.252454 -0.17191
Br Br 0.925774 0.0021794 0.265426 -0.17191
N_ N_ 0.624424 0.252713 0.359614 -0.272
N_ N_ 0.87303 0.249383 0.358134 -0.272
N_ N_ 0.63073 0.247043 0.491468 -0.12501
N_ N_ 0.870821 0.237565 0.490134 -0.12501
N_ N_ 0.625197 0.257296 0.149725 -0.272
N_ N_ 0.864423 0.242187 0.14806 -0.272
N_ N_ 0.626124 0.269052 0.0163476 -0.12501
N_ N_ 0.855469 0.252726 0.0149805 -0.12501
O_ O_ 0.595093 0.298569 0.226114 -0.60745
O_ O_ 0.838056 0.293365 0.214807 -0.60745
O_ O_ 0.590758 0.295172 0.294705 -0.60745
O_ O_ 0.842333 0.296976 0.282863 -0.60745
O_ O_ 0.649733 0.29913 0.290304 -0.60745
O_ O_ 0.904453 0.295219 0.283704 -0.60745
O_ O_ 0.657116 0.298419 0.220253 -0.60745
O_ O_ 0.901406 0.294015 0.215122 -0.60745
O_ O_ 0.656463 0.211878 0.283249 -0.60745
O_ O_ 0.901052 0.205527 0.288416 -0.60745
O_ O_ 0.658502 0.211627 0.215321 -0.60745
O_ O_ 0.900463 0.203596 0.219396 -0.60745
O_ O_ 0.596369 0.208164 0.220569 -0.60745
O_ O_ 0.835473 0.207942 0.220474 -0.60745
O_ O_ 0.594117 0.203899 0.288059 -0.60745
O_ O_ 0.838427 0.20771 0.289452 -0.60745
Zn Zn 0.62774 0.250377 0.78988 0.9476
Zn Zn 0.878128 0.248312 0.788761 0.9476
Zn Zn 0.626435 0.250089 0.718628 0.9476
Zn Zn 0.876745 0.252515 0.718968 0.9476
H_ H_ 0.539089 0.421602 0.69594 0.10932
H_ H_ 0.782649 0.413373 0.684577 0.10932
H_ H_ 0.5653 0.345357 0.830075 0.10932
H_ H_ 0.820014 0.35533 0.822086 0.10932
H_ H_ 0.555391 0.350911 0.690801 0.10932
H_ H_ 0.812119 0.34866 0.687489 0.10932
H_ H_ 0.5415 0.412798 0.831033 0.10932
H_ H_ 0.788539 0.4139 0.821574 0.10932
H_ H_ 0.712267 0.416716 0.830106 0.10932
H_ H_ 0.959168 0.430588 0.818649 0.10932
H_ H_ 0.691737 0.348727 0.695967 0.10932
H_ H_ 0.951721 0.34007 0.694385 0.10932
H_ H_ 0.684742 0.3567 0.829437 0.10932
H_ H_ 0.926189 0.360355 0.820582 0.10932
H_ H_ 0.721723 0.412868 0.697417 0.10932
H_ H_ 0.978457 0.405994 0.69122 0.10932
H_ H_ 0.729057 0.0900908 0.812963 0.10932
H_ H_ 0.978284 0.0873404 0.814669 0.10932
H_ H_ 0.685525 0.148916 0.681426 0.10932
H_ H_ 0.926347 0.140466 0.683371 0.10932
H_ H_ 0.693812 0.149175 0.818522 0.10932
H_ H_ 0.949195 0.15435 0.81441 0.10932
H_ H_ 0.705655 0.077174 0.681189 0.10932
H_ H_ 0.960598 0.0825808 0.682594 0.10932
H_ H_ 0.536855 0.085993 0.686268 0.10932
H_ H_ 0.785525 0.089577 0.675008 0.10932
H_ H_ 0.581922 0.140753 0.819357 0.10932
H_ H_ 0.823437 0.141981 0.815017 0.10932
H_ H_ 0.553985 0.159133 0.687979 0.10932
H_ H_ 0.81616 0.152896 0.682691 0.10932
H_ H_ 0.558829 0.0709881 0.816296 0.10932
H_ H_ 0.79501 0.0758187 0.809162 0.10932
H_ H_ 0.610521 0.309075 0.868495 0.10932
H_ H_ 0.881292 0.183371 0.854532 0.10932
H_ H_ 0.634582 0.186747 0.861419 0.10932
H_ H_ 0.869101 0.314411 0.868882 0.10932
H_ H_ 0.640432 0.181293 0.939593 0.10932
H_ H_ 0.863735 0.304052 0.947724 0.10932
H_ H_ 0.616478 0.311253 0.947098 0.10932
H_ H_ 0.872087 0.172605 0.931154 0.10932
H_ H_ 0.62522 0.321401 0.650604 0.10932
H_ H_ 0.928335 0.258159 0.64949 0.10932
H_ H_ 0.623523 0.190197 0.640426 0.10932
H_ H_ 0.83461 0.255952 0.643863 0.10932
H_ H_ 0.62268 0.197912 0.559069 0.10932
H_ H_ 0.83473 0.260744 0.566904 0.10932
H_ H_ 0.623888 0.327007 0.57551 0.10932
H_ H_ 0.930539 0.255078 0.570153 0.10932
C_ C_ 0.564317 0.340686 0.759417 -0.02249
C_ C_ 0.818866 0.346684 0.753469 -0.02249
C_ C_ 0.519198 0.460345 0.770788 -0.02249
C_ C_ 0.768367 0.461878 0.758043 -0.02249
C_ C_ 0.541497 0.402076 0.725002 -0.11473
C_ C_ 0.79025 0.401348 0.715753 -0.11473
C_ C_ 0.560534 0.360404 0.799678 -0.11473
C_ C_ 0.814512 0.367161 0.792314 -0.11473
C_ C_ 0.553324 0.361843 0.722143 -0.11473
C_ C_ 0.807439 0.364749 0.71609 -0.11473
C_ C_ 0.535421 0.420312 0.765385 -0.02249
C_ C_ 0.785107 0.420978 0.753976 -0.02249
C_ C_ 0.58257 0.303098 0.757392 0.6875
C_ C_ 0.839654 0.30957 0.751287 0.6875
C_ C_ 0.545734 0.398961 0.801424 -0.11473
C_ C_ 0.796788 0.402489 0.792061 -0.11473
C_ C_ 0.68603 0.346802 0.76125 -0.02249
C_ C_ 0.939518 0.343889 0.759107 -0.02249
C_ C_ 0.737253 0.460175 0.761043 -0.02249
C_ C_ 0.985041 0.462303 0.753025 -0.02249
C_ C_ 0.711114 0.40257 0.79934 -0.11473
C_ C_ 0.956608 0.408141 0.792846 -0.11473
C_ C_ 0.696573 0.363893 0.724751 -0.11473
C_ C_ 0.953159 0.35813 0.723184 -0.11473
C_ C_ 0.692744 0.367231 0.799913 -0.11473
C_ C_ 0.940801 0.368683 0.795283 -0.11473
C_ C_ 0.721281 0.419631 0.762144 -0.02249
C_ C_ 0.969969 0.421062 0.755665 -0.02249
C_ C_ 0.66738 0.308719 0.758105 0.6875
C_ C_ 0.920478 0.306351 0.757403 0.6875
C_ C_ 0.714207 0.399174 0.72551 -0.11473
C_ C_ 0.964731 0.397588 0.719246 -0.11473
C_ C_ 0.68799 0.154187 0.751209 -0.02249
C_ C_ 0.935995 0.152844 0.751393 -0.02249
C_ C_ 0.738559 0.0413532 0.74571 -0.02249
C_ C_ 0.982755 0.0367048 0.748328 -0.02249
C_ C_ 0.719455 0.10262 0.784248 -0.11473
C_ C_ 0.964475 0.0980354 0.786933 -0.11473
C_ C_ 0.693714 0.136034 0.711102 -0.11473
C_ C_ 0.938175 0.130703 0.713128 -0.11473
C_ C_ 0.700407 0.137051 0.788471 -0.11473
C_ C_ 0.950491 0.137077 0.786761 -0.11473
C_ C_ 0.721609 0.0807523 0.746664 -0.02249
C_ C_ 0.966647 0.0769758 0.747149 -0.02249
C_ C_ 0.668541 0.191786 0.752704 0.6875
C_ C_ 0.919324 0.193463 0.753232 0.6875
C_ C_ 0.709167 0.0982986 0.708099 -0.11473
C_ C_ 0.957088 0.0968045 0.710826 -0.11473
C_ C_ 0.568714 0.156246 0.754799 -0.02249
C_ C_ 0.82433 0.151119 0.74773 -0.02249
C_ C_ 0.521862 0.0374929 0.752148 -0.02249
C_ C_ 0.768674 0.0414822 0.740043 -0.02249
C_ C_ 0.543124 0.100445 0.716312 -0.11473
C_ C_ 0.792957 0.100898 0.706479 -0.11473
C_ C_ 0.569537 0.131407 0.790433 -0.11473
C_ C_ 0.816175 0.129806 0.784093 -0.11473
C_ C_ 0.555812 0.140141 0.716361 -0.11473
C_ C_ 0.811332 0.135571 0.70983 -0.11473
C_ C_ 0.53919 0.0783117 0.754737 -0.02249
C_ C_ 0.786365 0.0803432 0.742412 -0.02249
C_ C_ 0.587925 0.193614 0.754542 0.6875
C_ C_ 0.841707 0.190761 0.749241 0.6875
C_ C_ 0.554679 0.0935338 0.790773 -0.11473
C_ C_ 0.797178 0.0946946 0.782006 -0.11473
C_ C_ 0.617226 0.282093 0.884171 0.17695
C_ C_ 0.877602 0.210144 0.874876 0.17695
C_ C_ 0.634508 0.213374 0.879112 0.17695
C_ C_ 0.869458 0.282606 0.882913 0.17695
C_ C_ 0.63261 0.209126 0.923261 -0.11473
C_ C_ 0.86705 0.277971 0.927751 -0.11473
C_ C_ 0.625737 0.243977 0.947887 0.23465
C_ C_ 0.866678 0.238233 0.944754 0.23465
C_ C_ 0.620127 0.282203 0.928379 -0.11473
C_ C_ 0.871948 0.203826 0.918964 -0.11473
C_ C_ 0.627809 0.294058 0.631414 0.17695
C_ C_ 0.908292 0.256877 0.629715 0.17695
C_ C_ 0.624616 0.220915 0.624733 0.17695
C_ C_ 0.854675 0.257548 0.626481 0.17695
C_ C_ 0.620623 0.223782 0.580652 -0.11473
C_ C_ 0.85498 0.257512 0.584134 -0.11473
C_ C_ 0.621028 0.261515 0.561442 0.23465
C_ C_ 0.881958 0.253889 0.561859 0.23465
C_ C_ 0.62364 0.297191 0.587733 -0.11473
C_ C_ 0.908935 0.256975 0.585267 -0.11473
C_ C_ 0.536548 0.497203 0.768055 0.05793
C_ C_ 0.782656 0.50135 0.759501 0.05793
C_ C_ 0.722352 0.00512916 0.749488 0.05793
C_ C_ 0.966874 -0.0021799999999999597 0.748122 0.05793
Br Br 0.580901 0.493443 0.771703 -0.17191
Br Br 0.826069 0.501481 0.756588 -0.17191
Br Br 0.679331 0.00770148 0.751447 -0.17191
Br Br 0.924319 0.00239476 0.743067 -0.17191
N_ N_ 0.626149 0.249358 0.861498 -0.272
N_ N_ 0.874604 0.249191 0.859561 -0.272
N_ N_ 0.624432 0.238319 0.992012 -0.12501
N_ N_ 0.87079 0.234424 0.98828 -0.12501
N_ N_ 0.627796 0.25616 0.649196 -0.272
N_ N_ 0.88131 0.252873 0.648759 -0.272
N_ N_ 0.616238 0.2678 0.51754 -0.12501
N_ N_ 0.882934 0.260475 0.518078 -0.12501
O_ O_ 0.59132 0.289166 0.722469 -0.60745
O_ O_ 0.8468 0.293823 0.715938 -0.60745
O_ O_ 0.597967 0.294735 0.790253 -0.60745
O_ O_ 0.847952 0.29416 0.78473 -0.60745
O_ O_ 0.657676 0.294729 0.791833 -0.60745
O_ O_ 0.90847 0.293175 0.791761 -0.60745
O_ O_ 0.655609 0.295962 0.72326 -0.60745
O_ O_ 0.906817 0.295552 0.724109 -0.60745
O_ O_ 0.657581 0.204555 0.786588 -0.60745
O_ O_ 0.911343 0.206742 0.788517 -0.60745
O_ O_ 0.65989 0.208614 0.717948 -0.60745
O_ O_ 0.906847 0.208663 0.720801 -0.60745
O_ O_ 0.600569 0.202787 0.720953 -0.60745
O_ O_ 0.849277 0.208412 0.715187 -0.60745
O_ O_ 0.598921 0.207247 0.790394 -0.60745
O_ O_ 0.849487 0.205683 0.783942 -0.60745
Zn Zn 0.623371 0.74671 0.28857 0.9476
Zn Zn 0.875811 0.751911 0.290005 0.9476
Zn Zn 0.624856 0.747291 0.219919 0.9476
Zn Zn 0.870834 0.751125 0.219012 0.9476
H_ H_ 0.525751 0.905095 0.178308 0.10932
H_ H_ 0.781508 0.919948 0.196291 0.10932
H_ H_ 0.571797 0.855552 0.31219 0.10932
H_ H_ 0.806391 0.851776 0.329925 0.10932
H_ H_ 0.558779 0.844739 0.177448 0.10932
H_ H_ 0.811207 0.854578 0.195221 0.10932
H_ H_ 0.549405 0.928336 0.307086 0.10932
H_ H_ 0.784788 0.917521 0.331204 0.10932
H_ H_ 0.70647 0.919881 0.323941 0.10932
H_ H_ 0.97057 0.9192 0.318032 0.10932
H_ H_ 0.682003 0.859502 0.185998 0.10932
H_ H_ 0.918427 0.870018 0.189782 0.10932
H_ H_ 0.684816 0.853247 0.321367 0.10932
H_ H_ 0.941558 0.853561 0.319237 0.10932
H_ H_ 0.711099 0.924698 0.190392 0.10932
H_ H_ 0.950768 0.930936 0.186969 0.10932
H_ H_ 0.720531 0.5939 0.331511 0.10932
H_ H_ 0.966636 0.576542 0.301472 0.10932
H_ H_ 0.675252 0.62924 0.195981 0.10932
H_ H_ 0.930226 0.648382 0.174724 0.10932
H_ H_ 0.703524 0.667597 0.319517 0.10932
H_ H_ 0.938606 0.637307 0.307702 0.10932
H_ H_ 0.70582 0.570874 0.200127 0.10932
H_ H_ 0.964072 0.589237 0.165391 0.10932
H_ H_ 0.530957 0.578664 0.194592 0.10932
H_ H_ 0.778346 0.590196 0.191439 0.10932
H_ H_ 0.555436 0.652155 0.326846 0.10932
H_ H_ 0.82391 0.645476 0.324965 0.10932
H_ H_ 0.56019 0.648695 0.19244 0.10932
H_ H_ 0.799376 0.653286 0.194468 0.10932
H_ H_ 0.52676 0.588338 0.32911 0.10932
H_ H_ 0.791924 0.579163 0.326881 0.10932
H_ H_ 0.610785 0.687267 0.364904 0.10932
H_ H_ 0.88041 0.816252 0.355514 0.10932
H_ H_ 0.626741 0.813496 0.363903 0.10932
H_ H_ 0.877102 0.684714 0.368714 0.10932
H_ H_ 0.629568 0.817155 0.44089 0.10932
H_ H_ 0.875485 0.6915 0.446088 0.10932
H_ H_ 0.608484 0.687052 0.441081 0.10932
H_ H_ 0.88611 0.824122 0.433672 0.10932
H_ H_ 0.627758 0.676804 0.151899 0.10932
H_ H_ 0.878793 0.694474 0.136223 0.10932
H_ H_ 0.62221 0.806175 0.139979 0.10932
H_ H_ 0.863764 0.822246 0.150025 0.10932
H_ H_ 0.624413 0.800864 0.0644824 0.10932
H_ H_ 0.852108 0.826344 0.0732803 0.10932
H_ H_ 0.636207 0.670651 0.0763216 0.10932
H_ H_ 0.876431 0.700422 0.059808 0.10932
C_ C_ 0.567492 0.845668 0.244063 -0.02249
C_ C_ 0.815519 0.848714 0.263738 -0.02249
C_ C_ 0.515704 0.961919 0.240083 -0.02249
C_ C_ 0.762913 0.96223 0.262448 -0.02249
C_ C_ 0.536067 0.896336 0.206993 -0.11473
C_ C_ 0.785619 0.902546 0.225146 -0.11473
C_ C_ 0.56623 0.870351 0.280508 -0.11473
C_ C_ 0.804213 0.865494 0.29997 -0.11473
C_ C_ 0.553785 0.860427 0.207369 -0.11473
C_ C_ 0.804019 0.865572 0.225181 -0.11473
C_ C_ 0.534332 0.92191 0.242065 -0.02249
C_ C_ 0.779757 0.922359 0.263312 -0.02249
C_ C_ 0.583837 0.805162 0.247758 0.6875
C_ C_ 0.833447 0.809234 0.262483 0.6875
C_ C_ 0.550722 0.908762 0.278422 -0.11473
C_ C_ 0.790208 0.904112 0.300565 -0.11473
C_ C_ 0.681003 0.850835 0.253907 -0.02249
C_ C_ 0.932839 0.850316 0.251439 -0.02249
C_ C_ 0.730604 0.964162 0.258877 -0.02249
C_ C_ 0.982703 0.964331 0.252578 -0.02249
C_ C_ 0.700563 0.909542 0.293441 -0.11473
C_ C_ 0.962522 0.903786 0.288576 -0.11473
C_ C_ 0.688442 0.872298 0.216022 -0.11473
C_ C_ 0.933147 0.874511 0.21666 -0.11473
C_ C_ 0.686987 0.869775 0.291966 -0.11473
C_ C_ 0.945966 0.866825 0.288623 -0.11473
C_ C_ 0.713877 0.924984 0.256642 -0.02249
C_ C_ 0.965475 0.925377 0.252084 -0.02249
C_ C_ 0.662442 0.812412 0.252188 0.6875
C_ C_ 0.914292 0.809803 0.253075 0.6875
C_ C_ 0.705543 0.907358 0.21861 -0.11473
C_ C_ 0.952784 0.908859 0.214222 -0.11473
C_ C_ 0.686328 0.652475 0.258355 -0.02249
C_ C_ 0.934124 0.654177 0.242832 -0.02249
C_ C_ 0.734346 0.538838 0.270164 -0.02249
C_ C_ 0.983236 0.536132 0.229286 -0.02249
C_ C_ 0.717171 0.605773 0.300115 -0.11473
C_ C_ 0.959828 0.592449 0.272613 -0.11473
C_ C_ 0.68626 0.623825 0.224958 -0.11473
C_ C_ 0.941176 0.636247 0.202673 -0.11473
C_ C_ 0.702451 0.643846 0.295992 -0.11473
C_ C_ 0.944387 0.630006 0.277412 -0.11473
C_ C_ 0.717485 0.578263 0.265342 -0.02249
C_ C_ 0.968089 0.57703 0.232113 -0.02249
C_ C_ 0.664126 0.688497 0.254901 0.6875
C_ C_ 0.913177 0.689637 0.247446 0.6875
C_ C_ 0.705782 0.590472 0.226102 -0.11473
C_ C_ 0.959134 0.599552 0.19641 -0.11473
C_ C_ 0.561546 0.652314 0.259882 -0.02249
C_ C_ 0.813139 0.656214 0.259675 -0.02249
C_ C_ 0.513698 0.536433 0.260457 -0.02249
C_ C_ 0.764417 0.538804 0.260565 -0.02249
C_ C_ 0.538636 0.593561 0.222532 -0.11473
C_ C_ 0.785717 0.601889 0.222508 -0.11473
C_ C_ 0.551153 0.636429 0.296529 -0.11473
C_ C_ 0.812332 0.631433 0.296532 -0.11473
C_ C_ 0.551085 0.635777 0.222165 -0.11473
C_ C_ 0.796843 0.641517 0.22379 -0.11473
C_ C_ 0.531402 0.575965 0.261983 -0.02249
C_ C_ 0.781995 0.578512 0.260557 -0.02249
C_ C_ 0.581992 0.686963 0.261178 0.6875
C_ C_ 0.833051 0.693642 0.257204 0.6875
C_ C_ 0.535421 0.599391 0.298238 -0.11473
C_ C_ 0.793024 0.596653 0.298256 -0.11473
C_ C_ 0.618693 0.714056 0.3807 0.17695
C_ C_ 0.883306 0.788507 0.376237 0.17695
C_ C_ 0.627638 0.78481 0.38183 0.17695
C_ C_ 0.87753 0.714663 0.384864 0.17695
C_ C_ 0.626794 0.787372 0.424554 -0.11473
C_ C_ 0.879984 0.718107 0.427766 -0.11473
C_ C_ 0.620683 0.751307 0.446129 0.23465
C_ C_ 0.8817 0.759858 0.445809 0.23465
C_ C_ 0.617197 0.713449 0.425121 -0.11473
C_ C_ 0.886618 0.79367 0.420249 -0.11473
C_ C_ 0.627678 0.704305 0.132157 0.17695
C_ C_ 0.870765 0.722797 0.122842 0.17695
C_ C_ 0.618838 0.775523 0.125195 0.17695
C_ C_ 0.860586 0.793466 0.130829 0.17695
C_ C_ 0.621303 0.772638 0.0802423 -0.11473
C_ C_ 0.857045 0.797133 0.0880261 -0.11473
C_ C_ 0.626695 0.732889 0.0604618 0.23465
C_ C_ 0.859541 0.764203 0.0607469 0.23465
C_ C_ 0.63058 0.699683 0.0888161 -0.11473
C_ C_ 0.86944 0.727352 0.078102 -0.11473
C_ C_ 0.530919 0.998815 0.239276 0.05793
C_ C_ 0.778584 0.999357 0.262323 0.05793
C_ C_ 0.71907 0.501507 0.273835 0.05793
C_ C_ 0.967138 0.499153 0.231452 0.05793
Br Br 0.573181 0.999602 0.235097 -0.17191
Br Br 0.819702 1.00152617 0.279009 -0.17191
Br Br 0.677145 0.503129 0.286943 -0.17191
Br Br 0.924623 0.502253 0.224131 -0.17191
N_ N_ 0.624711 0.749016 0.359926 -0.272
N_ N_ 0.880874 0.749393 0.361075 -0.272
N_ N_ 0.614125 0.752678 0.48962 -0.12501
N_ N_ 0.880293 0.766281 0.490639 -0.12501
N_ N_ 0.621572 0.741655 0.149624 -0.272
N_ N_ 0.865466 0.755431 0.149149 -0.272
N_ N_ 0.630453 0.729477 0.0151028 -0.12501
N_ N_ 0.864263 0.771092 0.0163075 -0.12501
O_ O_ 0.590397 0.785665 0.215478 -0.60745
O_ O_ 0.838819 0.79202 0.226456 -0.60745
O_ O_ 0.591778 0.791108 0.284531 -0.60745
O_ O_ 0.848172 0.798078 0.294766 -0.60745
O_ O_ 0.656041 0.792751 0.285084 -0.60745
O_ O_ 0.908272 0.793621 0.288638 -0.60745
O_ O_ 0.650132 0.800317 0.217207 -0.60745
O_ O_ 0.902278 0.795399 0.219577 -0.60745
O_ O_ 0.65399 0.702345 0.28903 -0.60745
O_ O_ 0.904957 0.701723 0.282932 -0.60745
O_ O_ 0.661281 0.709094 0.22117 -0.60745
O_ O_ 0.905056 0.709762 0.216268 -0.60745
O_ O_ 0.596093 0.697372 0.22787 -0.60745
O_ O_ 0.842091 0.706567 0.222648 -0.60745
O_ O_ 0.591436 0.702716 0.295226 -0.60745
O_ O_ 0.841986 0.711238 0.289832 -0.60745
Zn Zn 0.628171 0.75455 0.787039 0.9476
Zn Zn 0.870366 0.750618 0.784143 0.9476
Zn Zn 0.624966 0.748849 0.716771 0.9476
Zn Zn 0.873506 0.746038 0.716266 0.9476
H_ H_ 0.536119 0.917503 0.680847 0.10932
H_ H_ 0.781577 0.91732 0.678484 0.10932
H_ H_ 0.566712 0.853255 0.818043 0.10932
H_ H_ 0.813497 0.856718 0.816323 0.10932
H_ H_ 0.566288 0.854542 0.684989 0.10932
H_ H_ 0.805396 0.846958 0.683116 0.10932
H_ H_ 0.537342 0.921726 0.815363 0.10932
H_ H_ 0.790552 0.926016 0.813501 0.10932
H_ H_ 0.719195 0.922734 0.811159 0.10932
H_ H_ 0.960356 0.919246 0.814523 0.10932
H_ H_ 0.687154 0.856716 0.678794 0.10932
H_ H_ 0.947682 0.840386 0.682945 0.10932
H_ H_ 0.688434 0.859554 0.814919 0.10932
H_ H_ 0.926952 0.858288 0.813504 0.10932
H_ H_ 0.715577 0.915066 0.677907 0.10932
H_ H_ 0.972655 0.905716 0.681414 0.10932
H_ H_ 0.713743 0.587394 0.825351 0.10932
H_ H_ 0.971188 0.586618 0.818689 0.10932
H_ H_ 0.687921 0.641753 0.683597 0.10932
H_ H_ 0.923388 0.639376 0.683944 0.10932
H_ H_ 0.687612 0.654448 0.817624 0.10932
H_ H_ 0.939808 0.647525 0.819621 0.10932
H_ H_ 0.714821 0.577964 0.69071 0.10932
H_ H_ 0.952189 0.571988 0.683085 0.10932
H_ H_ 0.537393 0.579727 0.695258 0.10932
H_ H_ 0.778351 0.585133 0.685372 0.10932
H_ H_ 0.577625 0.642081 0.823915 0.10932
H_ H_ 0.818002 0.643642 0.817333 0.10932
H_ H_ 0.562088 0.649994 0.688986 0.10932
H_ H_ 0.810652 0.64784 0.684352 0.10932
H_ H_ 0.54561 0.578189 0.827105 0.10932
H_ H_ 0.793373 0.576487 0.820978 0.10932
H_ H_ 0.648833 0.697634 0.863916 0.10932
H_ H_ 0.870458 0.687018 0.857846 0.10932
H_ H_ 0.619514 0.821265 0.859771 0.10932
H_ H_ 0.874706 0.814015 0.866627 0.10932
H_ H_ 0.613991 0.821517 0.940134 0.10932
H_ H_ 0.87208 0.810946 0.940886 0.10932
H_ H_ 0.644923 0.695608 0.94024 0.10932
H_ H_ 0.867595 0.682858 0.937876 0.10932
H_ H_ 0.617602 0.676549 0.649688 0.10932
H_ H_ 0.873693 0.81396 0.637503 0.10932
H_ H_ 0.630488 0.806222 0.636812 0.10932
H_ H_ 0.860834 0.687576 0.646023 0.10932
H_ H_ 0.628093 0.801552 0.55928 0.10932
H_ H_ 0.864524 0.678575 0.568783 0.10932
H_ H_ 0.617743 0.666629 0.571782 0.10932
H_ H_ 0.883763 0.812122 0.563442 0.10932
C_ C_ 0.563897 0.843058 0.752396 -0.02249
C_ C_ 0.814095 0.847666 0.751378 -0.02249
C_ C_ 0.518997 0.961755 0.745584 -0.02249
C_ C_ 0.76901 0.965818 0.744722 -0.02249
C_ C_ 0.541714 0.901625 0.711551 -0.11473
C_ C_ 0.790329 0.904496 0.707969 -0.11473
C_ C_ 0.555838 0.864378 0.788405 -0.11473
C_ C_ 0.806759 0.869491 0.787521 -0.11473
C_ C_ 0.55481 0.862052 0.713485 -0.11473
C_ C_ 0.804045 0.86468 0.711635 -0.11473
C_ C_ 0.533768 0.921347 0.748988 -0.02249
C_ C_ 0.784195 0.925551 0.745535 -0.02249
C_ C_ 0.584095 0.806627 0.752362 0.6875
C_ C_ 0.834219 0.811058 0.752034 0.6875
C_ C_ 0.539977 0.903029 0.787469 -0.11473
C_ C_ 0.7946 0.909634 0.784476 -0.11473
C_ C_ 0.682597 0.853699 0.747024 -0.02249
C_ C_ 0.93565 0.843165 0.750233 -0.02249
C_ C_ 0.737594 0.966106 0.745767 -0.02249
C_ C_ 0.982748 0.960878 0.747227 -0.02249
C_ C_ 0.711674 0.908023 0.783282 -0.11473
C_ C_ 0.957148 0.902268 0.78692 -0.11473
C_ C_ 0.689572 0.871714 0.709689 -0.11473
C_ C_ 0.950011 0.85703 0.713424 -0.11473
C_ C_ 0.69448 0.871399 0.784547 -0.11473
C_ C_ 0.939137 0.866337 0.787133 -0.11473
C_ C_ 0.718814 0.925853 0.745579 -0.02249
C_ C_ 0.968013 0.918935 0.74736 -0.02249
C_ C_ 0.666748 0.812247 0.747465 0.6875
C_ C_ 0.91573 0.804209 0.748578 0.6875
C_ C_ 0.710503 0.903775 0.709211 -0.11473
C_ C_ 0.962125 0.896737 0.710251 -0.11473
C_ C_ 0.684008 0.653735 0.75299 -0.02249
C_ C_ 0.928446 0.647878 0.751341 -0.02249
C_ C_ 0.735091 0.5365 0.759737 -0.02249
C_ C_ 0.982503 0.536879 0.75017 -0.02249
C_ C_ 0.710808 0.601313 0.79477 -0.11473
C_ C_ 0.960513 0.597447 0.787988 -0.11473
C_ C_ 0.692334 0.63066 0.716167 -0.11473
C_ C_ 0.934493 0.628608 0.713304 -0.11473
C_ C_ 0.693328 0.637428 0.792069 -0.11473
C_ C_ 0.943129 0.633382 0.788659 -0.11473
C_ C_ 0.716619 0.57634 0.757735 -0.02249
C_ C_ 0.965713 0.575992 0.75036 -0.02249
C_ C_ 0.666248 0.69261 0.7506 0.6875
C_ C_ 0.909486 0.68597 0.751425 0.6875
C_ C_ 0.709863 0.594735 0.720036 -0.11473
C_ C_ 0.950462 0.590753 0.712903 -0.11473
C_ C_ 0.572794 0.651355 0.757456 -0.02249
C_ C_ 0.811353 0.655929 0.750784 -0.02249
C_ C_ 0.522827 0.5354 0.76345 -0.02249
C_ C_ 0.766495 0.537521 0.754559 -0.02249
C_ C_ 0.546738 0.592383 0.722247 -0.11473
C_ C_ 0.787622 0.598921 0.714422 -0.11473
C_ C_ 0.568529 0.630185 0.795168 -0.11473
C_ C_ 0.80737 0.633804 0.788867 -0.11473
C_ C_ 0.560384 0.631855 0.719899 -0.11473
C_ C_ 0.802546 0.636368 0.714024 -0.11473
C_ C_ 0.540615 0.574587 0.761438 -0.02249
C_ C_ 0.7827 0.578231 0.753431 -0.02249
C_ C_ 0.588558 0.692593 0.756979 0.6875
C_ C_ 0.831757 0.691528 0.749538 0.6875
C_ C_ 0.553167 0.591862 0.796495 -0.11473
C_ C_ 0.794805 0.593286 0.789783 -0.11473
C_ C_ 0.638702 0.724476 0.879742 0.17695
C_ C_ 0.872016 0.714589 0.877637 0.17695
C_ C_ 0.622585 0.793478 0.878441 0.17695
C_ C_ 0.872558 0.785053 0.880226 0.17695
C_ C_ 0.619104 0.792874 0.922836 -0.11473
C_ C_ 0.869426 0.783634 0.925235 -0.11473
C_ C_ 0.626343 0.756966 0.945974 0.23465
C_ C_ 0.867578 0.747547 0.945932 0.23465
C_ C_ 0.639095 0.723737 0.923497 -0.11473
C_ C_ 0.868824 0.712101 0.922251 -0.11473
C_ C_ 0.618376 0.704051 0.627095 0.17695
C_ C_ 0.875764 0.784363 0.623921 0.17695
C_ C_ 0.629649 0.775519 0.622238 0.17695
C_ C_ 0.866995 0.712658 0.62836 0.17695
C_ C_ 0.627845 0.77238 0.577754 -0.11473
C_ C_ 0.870846 0.707941 0.585031 -0.11473
C_ C_ 0.624455 0.733497 0.559571 0.23465
C_ C_ 0.874929 0.743712 0.560298 0.23465
C_ C_ 0.618937 0.698596 0.584844 -0.11473
C_ C_ 0.876872 0.783095 0.579341 -0.11473
C_ C_ 0.536017 -0.0014159999999999728 0.751577 0.05793
C_ C_ 0.784771 0.00295738 0.742029 0.05793
C_ C_ 0.719953 0.497468 0.75964 0.05793
C_ C_ 0.968435 0.497841 0.74613 0.05793
Br Br 0.5796 -0.0037850000000000383 0.757593 -0.17191
Br Br 0.827816 1.00120646 0.731847 -0.17191
Br Br 0.678554 0.493961 0.77143 -0.17191
Br Br 0.92461 0.496695 0.739192 -0.17191
N_ N_ 0.628151 0.757751 0.857645 -0.272
N_ N_ 0.872404 0.750851 0.856476 -0.272
N_ N_ 0.625679 0.760279 0.990829 -0.12501
N_ N_ 0.864535 0.741566 0.990056 -0.12501
N_ N_ 0.622466 0.741341 0.645669 -0.272
N_ N_ 0.872788 0.748773 0.646977 -0.272
N_ N_ 0.62904 0.729852 0.51492 -0.12501
N_ N_ 0.879899 0.737561 0.515993 -0.12501
O_ O_ 0.591625 0.791573 0.717862 -0.60745
O_ O_ 0.843769 0.795429 0.718117 -0.60745
O_ O_ 0.597984 0.797495 0.785165 -0.60745
O_ O_ 0.839725 0.792924 0.78681 -0.60745
O_ O_ 0.660668 0.795762 0.782138 -0.60745
O_ O_ 0.904181 0.79432 0.783395 -0.60745
O_ O_ 0.654389 0.796617 0.714781 -0.60745
O_ O_ 0.907173 0.787504 0.713853 -0.60745
O_ O_ 0.655869 0.706201 0.78437 -0.60745
O_ O_ 0.901829 0.70342 0.785919 -0.60745
O_ O_ 0.655931 0.706212 0.715629 -0.60745
O_ O_ 0.902835 0.701745 0.717105 -0.60745
O_ O_ 0.595777 0.70469 0.720483 -0.60745
O_ O_ 0.841884 0.706235 0.715105 -0.60745
O_ O_ 0.595344 0.713066 0.790001 -0.60745
O_ O_ 0.837967 0.709332 0.783631 -0.60745
