_cell_length_a 44.444
_cell_length_b 32.3360000049186
_cell_length_c 31.843999878906452
_cell_angle_alpha 89.99799923859553
_cell_angle_beta 91.13600050494348
_cell_angle_gamma 89.9990006550086
_symmetry_space_group_name_H-M         'P 1'
_symmetry_Int_Tables_number            1
loop_
_symmetry_equiv_pos_as_xyz
   'x, y, z'
                         
loop_
_atom_site_label
_atom_site_type_symbol
_atom_site_fract_x 
_atom_site_fract_y
_atom_site_fract_z
_atom_site_charge
Zn Zn 0.128708 0.250213 0.284029 0.9476
Zn Zn 0.380325 0.250595 0.286425 0.9476
Zn Zn 0.1257 0.252546 0.216975 0.9476
Zn Zn 0.379495 0.252227 0.214222 0.9476
H_ H_ 0.02548 0.409525 0.191402 0.10932
H_ H_ 0.260223 0.3903 0.192184 0.10932
H_ H_ 0.0767671 0.359464 0.322628 0.10932
H_ H_ 0.332082 0.371371 0.31181 0.10932
H_ H_ 0.0518841 0.343757 0.192759 0.10932
H_ H_ 0.298312 0.329112 0.19293 0.10932
H_ H_ 0.055878 0.431997 0.318919 0.10932
H_ H_ 0.300067 0.435057 0.30552 0.10932
H_ H_ 0.224156 0.413771 0.313397 0.10932
H_ H_ 0.459977 0.429075 0.321501 0.10932
H_ H_ 0.165979 0.371709 0.187581 0.10932
H_ H_ 0.455459 0.342664 0.194657 0.10932
H_ H_ 0.197331 0.349076 0.31091 0.10932
H_ H_ 0.427374 0.365762 0.319044 0.10932
H_ H_ 0.192633 0.442755 0.189811 0.10932
H_ H_ 0.488296 0.402583 0.194248 0.10932
H_ H_ 0.239981 0.103794 0.316816 0.10932
H_ H_ 0.466258 0.0792731 0.313717 0.10932
H_ H_ 0.172004 0.12737 0.19106 0.10932
H_ H_ 0.430357 0.139884 0.180834 0.10932
H_ H_ 0.204659 0.162859 0.315695 0.10932
H_ H_ 0.436111 0.144423 0.315699 0.10932
H_ H_ 0.201246 0.0637152 0.197441 0.10932
H_ H_ 0.457234 0.0760779 0.179237 0.10932
H_ H_ 0.0261788 0.0901286 0.190337 0.10932
H_ H_ 0.275223 0.0966142 0.189667 0.10932
H_ H_ 0.0868068 0.130444 0.31316 0.10932
H_ H_ 0.333883 0.131869 0.313618 0.10932
H_ H_ 0.0458675 0.162897 0.195082 0.10932
H_ H_ 0.307208 0.157737 0.188734 0.10932
H_ H_ 0.0524556 0.0731197 0.317976 0.10932
H_ H_ 0.306404 0.0697524 0.314818 0.10932
H_ H_ 0.12529 0.316489 0.357206 0.10932
H_ H_ 0.360369 0.309877 0.361543 0.10932
H_ H_ 0.128218 0.188146 0.36325 0.10932
H_ H_ 0.391292 0.186839 0.358334 0.10932
H_ H_ 0.132693 0.1918 0.442429 0.10932
H_ H_ 0.402028 0.185497 0.435182 0.10932
H_ H_ 0.129374 0.322192 0.434166 0.10932
H_ H_ 0.371746 0.310652 0.437773 0.10932
H_ H_ 0.113139 0.30948 0.151293 0.10932
H_ H_ 0.382336 0.323407 0.138974 0.10932
H_ H_ 0.136347 0.18562 0.138587 0.10932
H_ H_ 0.373749 0.19238 0.135645 0.10932
H_ H_ 0.133088 0.190085 0.0604259 0.10932
H_ H_ 0.370703 0.19537 0.0559527 0.10932
H_ H_ 0.107599 0.321132 0.0760396 0.10932
H_ H_ 0.385767 0.326993 0.0644025 0.10932
C_ C_ 0.0698531 0.34869 0.255343 -0.02249
C_ C_ 0.317557 0.346697 0.252425 -0.02249
C_ C_ 0.0190632 0.462263 0.257551 -0.02249
C_ C_ 0.264823 0.461192 0.240908 -0.02249
C_ C_ 0.0364652 0.400059 0.219809 -0.11473
C_ C_ 0.277286 0.387232 0.217464 -0.11473
C_ C_ 0.0674715 0.371972 0.292652 -0.11473
C_ C_ 0.31714 0.374797 0.283745 -0.11473
C_ C_ 0.0537302 0.362687 0.219551 -0.11473
C_ C_ 0.29737 0.352628 0.218027 -0.11473
C_ C_ 0.0381517 0.425704 0.255891 -0.02249
C_ C_ 0.280429 0.419061 0.24668 -0.02249
C_ C_ 0.0870733 0.309423 0.255104 0.6875
C_ C_ 0.337408 0.30916 0.249631 0.6875
C_ C_ 0.0541379 0.41027 0.291831 -0.11473
C_ C_ 0.300226 0.411435 0.280567 -0.11473
C_ C_ 0.181692 0.352392 0.247821 -0.02249
C_ C_ 0.437241 0.351685 0.254377 -0.02249
C_ C_ 0.233336 0.464822 0.248036 -0.02249
C_ C_ 0.491293 0.463816 0.254785 -0.02249
C_ C_ 0.21458 0.402555 0.284027 -0.11473
C_ C_ 0.457324 0.412955 0.29211 -0.11473
C_ C_ 0.178712 0.380775 0.213685 -0.11473
C_ C_ 0.452377 0.364632 0.218509 -0.11473
C_ C_ 0.200882 0.363589 0.282691 -0.11473
C_ C_ 0.439771 0.375705 0.29151 -0.11473
C_ C_ 0.213349 0.427077 0.248451 -0.02249
C_ C_ 0.475579 0.423405 0.257859 -0.02249
C_ C_ 0.162423 0.315564 0.248467 0.6875
C_ C_ 0.417949 0.313014 0.25204 0.6875
C_ C_ 0.194693 0.417843 0.213176 -0.11473
C_ C_ 0.473565 0.396795 0.22189 -0.11473
C_ C_ 0.18559 0.150936 0.25434 -0.02249
C_ C_ 0.439582 0.154465 0.247258 -0.02249
C_ C_ 0.239564 0.0387748 0.263409 -0.02249
C_ C_ 0.487272 0.037415 0.246757 -0.02249
C_ C_ 0.223086 0.106333 0.292396 -0.11473
C_ C_ 0.460919 0.0953029 0.284731 -0.11473
C_ C_ 0.186941 0.123882 0.218955 -0.11473
C_ C_ 0.444968 0.134141 0.207737 -0.11473
C_ C_ 0.202085 0.140502 0.291951 -0.11473
C_ C_ 0.445178 0.132658 0.285335 -0.11473
C_ C_ 0.222973 0.078956 0.258457 -0.02249
C_ C_ 0.46987 0.0775354 0.246136 -0.02249
C_ C_ 0.165513 0.188912 0.25172 0.6875
C_ C_ 0.422272 0.193799 0.248769 0.6875
C_ C_ 0.20481 0.0869541 0.221578 -0.11473
C_ C_ 0.459243 0.0949812 0.20841 -0.11473
C_ C_ 0.0672499 0.153838 0.255147 -0.02249
C_ C_ 0.325608 0.147084 0.248561 -0.02249
C_ C_ 0.0174498 0.0376436 0.25589 -0.02249
C_ C_ 0.270304 0.0378889 0.252391 -0.02249
C_ C_ 0.0370747 0.101843 0.220076 -0.11473
C_ C_ 0.289119 0.102676 0.214984 -0.11473
C_ C_ 0.0682132 0.128417 0.290794 -0.11473
C_ C_ 0.32494 0.122092 0.284064 -0.11473
C_ C_ 0.0502623 0.140896 0.220094 -0.11473
C_ C_ 0.309152 0.136405 0.214016 -0.11473
C_ C_ 0.0347625 0.0786585 0.25574 -0.02249
C_ C_ 0.288331 0.0762017 0.250751 -0.02249
C_ C_ 0.0873447 0.191451 0.252461 0.6875
C_ C_ 0.343977 0.18744 0.248886 0.6875
C_ C_ 0.0523188 0.0909508 0.290745 -0.11473
C_ C_ 0.306108 0.087615 0.286109 -0.11473
C_ C_ 0.129228 0.290953 0.375411 0.17695
C_ C_ 0.37105 0.283707 0.377766 0.17695
C_ C_ 0.130057 0.216599 0.380024 0.17695
C_ C_ 0.386756 0.214161 0.377162 0.17695
C_ C_ 0.13192 0.218809 0.424413 -0.11473
C_ C_ 0.39249 0.213767 0.420384 -0.11473
C_ C_ 0.133101 0.257284 0.444798 0.23465
C_ C_ 0.385028 0.247988 0.445139 0.23465
C_ C_ 0.130031 0.292754 0.420122 -0.11473
C_ C_ 0.372004 0.282864 0.422628 -0.11473
C_ C_ 0.113229 0.283906 0.131136 0.17695
C_ C_ 0.379117 0.294696 0.122164 0.17695
C_ C_ 0.12878 0.214051 0.123031 0.17695
C_ C_ 0.374907 0.221868 0.11775 0.17695
C_ C_ 0.12739 0.217817 0.0800196 -0.11473
C_ C_ 0.37311 0.223536 0.0734582 -0.11473
C_ C_ 0.118491 0.256702 0.0606439 0.23465
C_ C_ 0.374242 0.261261 0.0537121 0.23465
C_ C_ 0.114245 0.290509 0.0878981 -0.11473
C_ C_ 0.378626 0.297433 0.0789566 -0.11473
C_ C_ 0.0327305 0.500412 0.246997 0.05793
C_ C_ 0.281648 0.497602 0.23776 0.05793
C_ C_ 0.223927 0.0016013 0.272673 0.05793
C_ C_ 0.472804 1.0000420105 0.249071 0.05793
Br Br 0.0766584 0.504652 0.234337 -0.17191
Br Br 0.322912 0.494779 0.218996 -0.17191
Br Br 0.184351 0.00646666 0.292383 -0.17191
Br Br 0.429369 0.996832 0.248629 -0.17191
N_ N_ 0.128686 0.253117 0.356086 -0.272
N_ N_ 0.383396 0.251099 0.356645 -0.272
N_ N_ 0.125024 0.260438 0.488914 -0.12501
N_ N_ 0.390894 0.248481 0.490361 -0.12501
N_ N_ 0.11928 0.246197 0.146784 -0.272
N_ N_ 0.37707 0.257882 0.141474 -0.272
N_ N_ 0.119544 0.26188 0.0164866 -0.12501
N_ N_ 0.370775 0.264791 0.00808916 -0.12501
O_ O_ 0.0929386 0.293002 0.21951 -0.60745
O_ O_ 0.347233 0.297518 0.21478 -0.60745
O_ O_ 0.0965752 0.293591 0.288168 -0.60745
O_ O_ 0.348938 0.29504 0.282045 -0.60745
O_ O_ 0.154679 0.299975 0.283097 -0.60745
O_ O_ 0.406598 0.299734 0.286966 -0.60745
O_ O_ 0.15459 0.297256 0.213883 -0.60745
O_ O_ 0.407827 0.300282 0.217102 -0.60745
O_ O_ 0.161146 0.209435 0.285133 -0.60745
O_ O_ 0.414259 0.208232 0.283084 -0.60745
O_ O_ 0.153468 0.202164 0.216881 -0.60745
O_ O_ 0.411329 0.208434 0.214279 -0.60745
O_ O_ 0.0914632 0.209988 0.217303 -0.60745
O_ O_ 0.348436 0.206524 0.21532 -0.60745
O_ O_ 0.0981867 0.206799 0.285152 -0.60745
O_ O_ 0.351017 0.202674 0.283074 -0.60745
Zn Zn 0.123839 0.244366 0.788141 0.9476
Zn Zn 0.370822 0.249968 0.783713 0.9476
Zn Zn 0.12342 0.246181 0.716008 0.9476
Zn Zn 0.369969 0.250015 0.716203 0.9476
H_ H_ 0.0479714 0.429856 0.687285 0.10932
H_ H_ 0.287 0.420343 0.688755 0.10932
H_ H_ 0.0507692 0.342858 0.815445 0.10932
H_ H_ 0.292677 0.338059 0.817005 0.10932
H_ H_ 0.0820346 0.370111 0.69286 0.10932
H_ H_ 0.313308 0.353513 0.690449 0.10932
H_ H_ 0.0142432 0.399023 0.81066 0.10932
H_ H_ 0.266073 0.399901 0.819561 0.10932
H_ H_ 0.19232 0.433552 0.816685 0.10932
H_ H_ 0.47784 0.399904 0.822223 0.10932
H_ H_ 0.190362 0.342284 0.688899 0.10932
H_ H_ 0.414432 0.377393 0.696459 0.10932
H_ H_ 0.15972 0.366959 0.813943 0.10932
H_ H_ 0.452948 0.335529 0.816077 0.10932
H_ H_ 0.216014 0.409885 0.688161 0.10932
H_ H_ 0.449758 0.434425 0.699522 0.10932
H_ H_ 0.213131 0.0733775 0.81624 0.10932
H_ H_ 0.474549 0.090501 0.816246 0.10932
H_ H_ 0.187437 0.146681 0.685448 0.10932
H_ H_ 0.443067 0.15276 0.686805 0.10932
H_ H_ 0.186229 0.140805 0.81972 0.10932
H_ H_ 0.445709 0.15409 0.815631 0.10932
H_ H_ 0.208064 0.0750751 0.682744 0.10932
H_ H_ 0.455691 0.0786127 0.685208 0.10932
H_ H_ 0.0281514 0.0814153 0.689323 0.10932
H_ H_ 0.271034 0.0880178 0.681957 0.10932
H_ H_ 0.0718219 0.137348 0.821475 0.10932
H_ H_ 0.33474 0.1227 0.803099 0.10932
H_ H_ 0.0518985 0.150217 0.68961 0.10932
H_ H_ 0.299237 0.154333 0.682507 0.10932
H_ H_ 0.033143 0.0831863 0.823933 0.10932
H_ H_ 0.296493 0.0684494 0.811442 0.10932
H_ H_ 0.117461 0.309266 0.86579 0.10932
H_ H_ 0.365958 0.309162 0.861316 0.10932
H_ H_ 0.119669 0.177764 0.85694 0.10932
H_ H_ 0.366301 0.178565 0.850186 0.10932
H_ H_ 0.118731 0.172314 0.935155 0.10932
H_ H_ 0.36141 0.169933 0.927281 0.10932
H_ H_ 0.118412 0.30354 0.944163 0.10932
H_ H_ 0.361781 0.302029 0.937806 0.10932
H_ H_ 0.143013 0.183583 0.644256 0.10932
H_ H_ 0.380466 0.190165 0.640081 0.10932
H_ H_ 0.107859 0.304968 0.641441 0.10932
H_ H_ 0.358652 0.316346 0.645817 0.10932
H_ H_ 0.111876 0.305327 0.563654 0.10932
H_ H_ 0.356677 0.316868 0.563437 0.10932
H_ H_ 0.15531 0.186499 0.570754 0.10932
H_ H_ 0.377694 0.188027 0.567015 0.10932
C_ C_ 0.0658549 0.349146 0.750939 -0.02249
C_ C_ 0.308363 0.339247 0.753759 -0.02249
C_ C_ 0.0122166 0.460669 0.751308 -0.02249
C_ C_ 0.262855 0.459219 0.754843 -0.02249
C_ C_ 0.0474281 0.411427 0.716834 -0.11473
C_ C_ 0.290395 0.402648 0.717287 -0.11473
C_ C_ 0.0508923 0.362179 0.787896 -0.11473
C_ C_ 0.294837 0.35526 0.791393 -0.11473
C_ C_ 0.0666907 0.376586 0.718866 -0.11473
C_ C_ 0.303573 0.364049 0.716313 -0.11473
C_ C_ 0.028764 0.420886 0.751001 -0.02249
C_ C_ 0.279128 0.417474 0.754795 -0.02249
C_ C_ 0.0844684 0.309508 0.750702 0.6875
C_ C_ 0.325563 0.301069 0.756373 0.6875
C_ C_ 0.0301099 0.394875 0.784767 -0.11473
C_ C_ 0.279392 0.393391 0.791883 -0.11473
C_ C_ 0.177828 0.346832 0.755903 -0.02249
C_ C_ 0.427829 0.35116 0.756091 -0.02249
C_ C_ 0.230533 0.458776 0.754821 -0.02249
C_ C_ 0.482005 0.464248 0.762906 -0.02249
C_ C_ 0.19429 0.410561 0.790873 -0.11473
C_ C_ 0.463444 0.396771 0.795669 -0.11473
C_ C_ 0.191674 0.361215 0.719614 -0.11473
C_ C_ 0.431157 0.377352 0.721976 -0.11473
C_ C_ 0.174733 0.373769 0.789496 -0.11473
C_ C_ 0.445855 0.359923 0.792414 -0.11473
C_ C_ 0.212252 0.419937 0.755391 -0.02249
C_ C_ 0.463674 0.425767 0.762219 -0.02249
C_ C_ 0.159144 0.307912 0.754215 0.6875
C_ C_ 0.406809 0.315426 0.754808 0.6875
C_ C_ 0.208171 0.398389 0.718987 -0.11473
C_ C_ 0.449512 0.412493 0.724649 -0.11473
C_ C_ 0.180796 0.146864 0.752703 -0.02249
C_ C_ 0.43157 0.153368 0.750229 -0.02249
C_ C_ 0.231216 0.0320861 0.747885 -0.02249
C_ C_ 0.481842 0.0384865 0.750757 -0.02249
C_ C_ 0.205258 0.0878315 0.786766 -0.11473
C_ C_ 0.462867 0.100323 0.786043 -0.11473
C_ C_ 0.188004 0.128271 0.713404 -0.11473
C_ C_ 0.43886 0.134172 0.713221 -0.11473
C_ C_ 0.189181 0.125954 0.788659 -0.11473
C_ C_ 0.444185 0.13608 0.787271 -0.11473
C_ C_ 0.212877 0.070632 0.748941 -0.02249
C_ C_ 0.464899 0.0783469 0.749431 -0.02249
C_ C_ 0.163964 0.188773 0.754969 0.6875
C_ C_ 0.416117 0.195942 0.748397 0.6875
C_ C_ 0.204409 0.090662 0.711755 -0.11473
C_ C_ 0.454396 0.0969976 0.712991 -0.11473
C_ C_ 0.0631553 0.151566 0.75346 -0.02249
C_ C_ 0.317341 0.144185 0.745079 -0.02249
C_ C_ 0.00980625 0.0364576 0.760094 -0.02249
C_ C_ 0.263302 0.0339481 0.748244 -0.02249
C_ C_ 0.0344887 0.0959497 0.718526 -0.11473
C_ C_ 0.281993 0.0985044 0.710922 -0.11473
C_ C_ 0.0573072 0.130846 0.793064 -0.11473
C_ C_ 0.317533 0.118516 0.779453 -0.11473
C_ C_ 0.0491078 0.134661 0.717699 -0.11473
C_ C_ 0.299308 0.133904 0.709892 -0.11473
C_ C_ 0.0270134 0.0775319 0.757231 -0.02249
C_ C_ 0.27926 0.0748417 0.747738 -0.02249
C_ C_ 0.0816952 0.19123 0.754206 0.6875
C_ C_ 0.334663 0.184892 0.747196 0.6875
C_ C_ 0.0382335 0.0962849 0.795552 -0.11473
C_ C_ 0.296666 0.0873012 0.783667 -0.11473
C_ C_ 0.120113 0.278299 0.882236 0.17695
C_ C_ 0.365316 0.278088 0.876211 0.17695
C_ C_ 0.118934 0.205234 0.87604 0.17695
C_ C_ 0.365892 0.205162 0.87135 0.17695
C_ C_ 0.119863 0.201076 0.920236 -0.11473
C_ C_ 0.365577 0.200849 0.915376 -0.11473
C_ C_ 0.122099 0.236267 0.946156 0.23465
C_ C_ 0.363638 0.237217 0.939864 0.23465
C_ C_ 0.123901 0.275006 0.926106 -0.11473
C_ C_ 0.364211 0.276018 0.91912 -0.11473
C_ C_ 0.13589 0.211122 0.627336 0.17695
C_ C_ 0.37866 0.219163 0.626194 0.17695
C_ C_ 0.115703 0.277553 0.62451 0.17695
C_ C_ 0.363466 0.288591 0.626371 0.17695
C_ C_ 0.118116 0.277698 0.579961 -0.11473
C_ C_ 0.362722 0.288825 0.581738 -0.11473
C_ C_ 0.134398 0.245948 0.560229 0.23465
C_ C_ 0.373542 0.255014 0.560591 0.23465
C_ C_ 0.142039 0.211029 0.584846 -0.11473
C_ C_ 0.379613 0.218063 0.583516 -0.11473
C_ C_ 0.0285134 0.499154 0.749948 0.05793
C_ C_ 0.278659 0.497483 0.758631 0.05793
C_ C_ 0.215758 -0.00622900000000004 0.751934 0.05793
C_ C_ 0.465386 1.00185595 0.755602 0.05793
Br Br 0.0729062 0.498051 0.759493 -0.17191
Br Br 0.321976 0.494428 0.758399 -0.17191
Br Br 0.173783 -0.007356000000000029 0.76448 -0.17191
Br Br 0.425091 1.00409634 0.773809 -0.17191
N_ N_ 0.121534 0.243494 0.858004 -0.272
N_ N_ 0.368094 0.244169 0.852863 -0.272
N_ N_ 0.119092 0.232634 0.992019 -0.12501
N_ N_ 0.364209 0.235658 0.984423 -0.12501
N_ N_ 0.127486 0.246147 0.646826 -0.272
N_ N_ 0.370306 0.252775 0.646425 -0.272
N_ N_ 0.141159 0.244173 0.516377 -0.12501
N_ N_ 0.369513 0.252918 0.515387 -0.12501
O_ O_ 0.0917375 0.291955 0.716369 -0.60745
O_ O_ 0.335113 0.285914 0.721109 -0.60745
O_ O_ 0.0972529 0.296343 0.78523 -0.60745
O_ O_ 0.336002 0.286761 0.789957 -0.60745
O_ O_ 0.155176 0.288246 0.788124 -0.60745
O_ O_ 0.397127 0.299985 0.788424 -0.60745
O_ O_ 0.15348 0.291332 0.718767 -0.60745
O_ O_ 0.39998 0.298282 0.71983 -0.60745
O_ O_ 0.152033 0.198112 0.788494 -0.60745
O_ O_ 0.406159 0.211816 0.782237 -0.60745
O_ O_ 0.157987 0.207687 0.721758 -0.60745
O_ O_ 0.406194 0.211783 0.715182 -0.60745
O_ O_ 0.0918077 0.203262 0.719079 -0.60745
O_ O_ 0.346683 0.197611 0.712994 -0.60745
O_ O_ 0.0922987 0.204716 0.787771 -0.60745
O_ O_ 0.342941 0.200915 0.781744 -0.60745
Zn Zn 0.128309 0.74937 0.291721 0.9476
Zn Zn 0.377451 0.748991 0.285564 0.9476
Zn Zn 0.12945 0.751313 0.223905 0.9476
Zn Zn 0.377544 0.74858 0.216902 0.9476
H_ H_ 0.0529948 0.929001 0.19292 0.10932
H_ H_ 0.272064 0.910231 0.193611 0.10932
H_ H_ 0.0522866 0.83934 0.315776 0.10932
H_ H_ 0.339856 0.862107 0.307208 0.10932
H_ H_ 0.0820842 0.864258 0.191312 0.10932
H_ H_ 0.303213 0.848971 0.180136 0.10932
H_ H_ 0.0275875 0.906937 0.317432 0.10932
H_ H_ 0.312173 0.931685 0.313716 0.10932
H_ H_ 0.230485 0.906373 0.33282 0.10932
H_ H_ 0.470498 0.920008 0.319346 0.10932
H_ H_ 0.175626 0.866766 0.201307 0.10932
H_ H_ 0.440123 0.852867 0.188006 0.10932
H_ H_ 0.197881 0.844093 0.332161 0.10932
H_ H_ 0.435609 0.858634 0.321301 0.10932
H_ H_ 0.209996 0.927781 0.203003 0.10932
H_ H_ 0.470176 0.917457 0.186422 0.10932
H_ H_ 0.237771 0.596992 0.315543 0.10932
H_ H_ 0.460869 0.574893 0.317073 0.10932
H_ H_ 0.175342 0.638684 0.190921 0.10932
H_ H_ 0.445758 0.650911 0.18525 0.10932
H_ H_ 0.207319 0.663808 0.317152 0.10932
H_ H_ 0.437147 0.644298 0.319792 0.10932
H_ H_ 0.200117 0.574193 0.191611 0.10932
H_ H_ 0.470357 0.586602 0.183753 0.10932
H_ H_ 0.0381671 0.580906 0.180823 0.10932
H_ H_ 0.277553 0.591602 0.175757 0.10932
H_ H_ 0.0583465 0.651425 0.315065 0.10932
H_ H_ 0.322878 0.634479 0.311697 0.10932
H_ H_ 0.06852 0.644536 0.179545 0.10932
H_ H_ 0.311757 0.651677 0.179753 0.10932
H_ H_ 0.0333968 0.590191 0.317276 0.10932
H_ H_ 0.297485 0.570942 0.306089 0.10932
H_ H_ 0.128925 0.815609 0.371588 0.10932
H_ H_ 0.327168 0.777798 0.356317 0.10932
H_ H_ 0.124469 0.68604 0.362989 0.10932
H_ H_ 0.416016 0.733998 0.361862 0.10932
H_ H_ 0.118065 0.682052 0.442744 0.10932
H_ H_ 0.417514 0.745245 0.437886 0.10932
H_ H_ 0.13708 0.8133 0.445242 0.10932
H_ H_ 0.323439 0.77801 0.434151 0.10932
H_ H_ 0.122767 0.683815 0.142138 0.10932
H_ H_ 0.380415 0.678786 0.147624 0.10932
H_ H_ 0.139412 0.812775 0.156317 0.10932
H_ H_ 0.36292 0.804722 0.135351 0.10932
H_ H_ 0.137345 0.822829 0.0757903 0.10932
H_ H_ 0.355991 0.796566 0.0600518 0.10932
H_ H_ 0.106492 0.697014 0.068354 0.10932
H_ H_ 0.384121 0.670902 0.0734759 0.10932
C_ C_ 0.0683994 0.845396 0.252193 -0.02249
C_ C_ 0.321156 0.847213 0.2462 -0.02249
C_ C_ 0.0193508 0.961403 0.256089 -0.02249
C_ C_ 0.270012 0.962378 0.261011 -0.02249
C_ C_ 0.0517875 0.90916 0.218843 -0.11473
C_ C_ 0.284761 0.89796 0.219864 -0.11473
C_ C_ 0.0524395 0.857162 0.288309 -0.11473
C_ C_ 0.324052 0.871626 0.282504 -0.11473
C_ C_ 0.0672609 0.870626 0.217914 -0.11473
C_ C_ 0.301781 0.861351 0.212826 -0.11473
C_ C_ 0.0371461 0.921481 0.254717 -0.02249
C_ C_ 0.285354 0.921233 0.256543 -0.02249
C_ C_ 0.0914734 0.8108 0.255079 0.6875
C_ C_ 0.336667 0.806353 0.246043 0.6875
C_ C_ 0.0379136 0.895773 0.288624 -0.11473
C_ C_ 0.306082 0.907741 0.287987 -0.11473
C_ C_ 0.189662 0.847106 0.263131 -0.02249
C_ C_ 0.433296 0.851608 0.254293 -0.02249
C_ C_ 0.239433 0.962944 0.270536 -0.02249
C_ C_ 0.489235 0.962739 0.252451 -0.02249
C_ C_ 0.218641 0.898906 0.30478 -0.11473
C_ C_ 0.465031 0.902167 0.291609 -0.11473
C_ C_ 0.191378 0.873414 0.228677 -0.11473
C_ C_ 0.441799 0.869114 0.216072 -0.11473
C_ C_ 0.201086 0.861253 0.303771 -0.11473
C_ C_ 0.442753 0.871 0.291873 -0.11473
C_ C_ 0.221061 0.924454 0.26947 -0.02249
C_ C_ 0.473147 0.921114 0.254008 -0.02249
C_ C_ 0.168466 0.810817 0.261928 0.6875
C_ C_ 0.415648 0.811472 0.253887 0.6875
C_ C_ 0.205792 0.912119 0.231721 -0.11473
C_ C_ 0.46097 0.904375 0.215699 -0.11473
C_ C_ 0.187532 0.651997 0.255527 -0.02249
C_ C_ 0.440522 0.654902 0.253016 -0.02249
C_ C_ 0.23677 0.538819 0.252432 -0.02249
C_ C_ 0.488356 0.538992 0.253431 -0.02249
C_ C_ 0.223225 0.605223 0.289514 -0.11473
C_ C_ 0.459594 0.592437 0.289527 -0.11473
C_ C_ 0.188149 0.629475 0.217962 -0.11473
C_ C_ 0.450848 0.637253 0.214604 -0.11473
C_ C_ 0.207393 0.642666 0.289685 -0.11473
C_ C_ 0.443005 0.630307 0.289414 -0.11473
C_ C_ 0.219888 0.578972 0.254642 -0.02249
C_ C_ 0.469989 0.576981 0.251378 -0.02249
C_ C_ 0.169021 0.690013 0.256851 0.6875
C_ C_ 0.419758 0.691829 0.252608 0.6875
C_ C_ 0.201558 0.591446 0.218892 -0.11473
C_ C_ 0.467354 0.601055 0.214172 -0.11473
C_ C_ 0.0652267 0.657038 0.247379 -0.02249
C_ C_ 0.320353 0.650109 0.246173 -0.02249
C_ C_ 0.0168547 0.539097 0.249482 -0.02249
C_ C_ 0.267304 0.536102 0.241762 -0.02249
C_ C_ 0.0431465 0.597396 0.211139 -0.11473
C_ C_ 0.288218 0.600436 0.206118 -0.11473
C_ C_ 0.0532456 0.640409 0.284847 -0.11473
C_ C_ 0.315398 0.625218 0.280596 -0.11473
C_ C_ 0.0598649 0.634626 0.211157 -0.11473
C_ C_ 0.305813 0.637503 0.208284 -0.11473
C_ C_ 0.0336315 0.579124 0.249588 -0.02249
C_ C_ 0.286167 0.574757 0.241587 -0.02249
C_ C_ 0.0877421 0.692391 0.252868 0.6875
C_ C_ 0.339085 0.687223 0.250618 0.6875
C_ C_ 0.0429408 0.597702 0.287214 -0.11473
C_ C_ 0.303499 0.585089 0.276542 -0.11473
C_ C_ 0.128869 0.786501 0.384578 0.17695
C_ C_ 0.346826 0.768331 0.37456 0.17695
C_ C_ 0.122629 0.713712 0.380456 0.17695
C_ C_ 0.397504 0.747547 0.378 0.17695
C_ C_ 0.12192 0.710794 0.425978 -0.11473
C_ C_ 0.398389 0.754779 0.420808 -0.11473
C_ C_ 0.124283 0.747215 0.44894 0.23465
C_ C_ 0.372114 0.766558 0.442116 0.23465
C_ C_ 0.129995 0.784374 0.428321 -0.11473
C_ C_ 0.345122 0.770554 0.418521 -0.11473
C_ C_ 0.123862 0.714755 0.129183 0.17695
C_ C_ 0.380356 0.705514 0.128618 0.17695
C_ C_ 0.134613 0.78632 0.134972 0.17695
C_ C_ 0.369496 0.776285 0.121423 0.17695
C_ C_ 0.137101 0.790782 0.0911237 -0.11473
C_ C_ 0.367616 0.772654 0.0777441 -0.11473
C_ C_ 0.127647 0.75814 0.065364 0.23465
C_ C_ 0.372519 0.73287 0.0573565 0.23465
C_ C_ 0.118323 0.720016 0.0859398 -0.11473
C_ C_ 0.376635 0.699553 0.0844843 -0.11473
C_ C_ 0.0337764 0.999255 0.252526 0.05793
C_ C_ 0.284796 0.998943 0.247229 0.05793
C_ C_ 0.220475 0.503049 0.259126 0.05793
C_ C_ 0.473887 0.500484 0.255677 0.05793
Br Br 0.0763601 0.00420815 0.248881 -0.17191
Br Br 0.321909 0.994632 0.219096 -0.17191
Br Br 0.185635 0.505019 0.292524 -0.17191
Br Br 0.43292 0.497597 0.235918 -0.17191
N_ N_ 0.126635 0.752286 0.361901 -0.272
N_ N_ 0.372238 0.755835 0.35542 -0.272
N_ N_ 0.130528 0.743832 0.494115 -0.12501
N_ N_ 0.372477 0.773534 0.486435 -0.12501
N_ N_ 0.130488 0.748619 0.152238 -0.272
N_ N_ 0.380155 0.743935 0.144272 -0.272
N_ N_ 0.119552 0.764876 0.0217391 -0.12501
N_ N_ 0.37687 0.727636 0.0118996 -0.12501
O_ O_ 0.0945811 0.788045 0.223705 -0.60745
O_ O_ 0.346475 0.791627 0.211658 -0.60745
O_ O_ 0.0981527 0.793974 0.289429 -0.60745
O_ O_ 0.34613 0.791726 0.280844 -0.60745
O_ O_ 0.15804 0.796312 0.295034 -0.60745
O_ O_ 0.406047 0.796215 0.288024 -0.60745
O_ O_ 0.157853 0.797887 0.227383 -0.60745
O_ O_ 0.407965 0.795086 0.219493 -0.60745
O_ O_ 0.159093 0.702227 0.292958 -0.60745
O_ O_ 0.408015 0.704988 0.285666 -0.60745
O_ O_ 0.160626 0.708245 0.223815 -0.60745
O_ O_ 0.40891 0.704563 0.218418 -0.60745
O_ O_ 0.101377 0.707072 0.221174 -0.60745
O_ O_ 0.348213 0.703879 0.216851 -0.60745
O_ O_ 0.0950975 0.705642 0.28929 -0.60745
O_ O_ 0.349387 0.70094 0.285436 -0.60745
Zn Zn 0.122323 0.750469 0.791038 0.9476
Zn Zn 0.37477 0.748571 0.784929 0.9476
Zn Zn 0.122862 0.748065 0.721126 0.9476
Zn Zn 0.375043 0.745144 0.716871 0.9476
H_ H_ 0.0156303 0.903839 0.691859 0.10932
H_ H_ 0.273481 0.904098 0.677936 0.10932
H_ H_ 0.067447 0.862065 0.82592 0.10932
H_ H_ 0.331322 0.864996 0.80538 0.10932
H_ H_ 0.0505333 0.845301 0.692451 0.10932
H_ H_ 0.303193 0.841932 0.678842 0.10932
H_ H_ 0.0381302 0.927572 0.821469 0.10932
H_ H_ 0.298643 0.927462 0.807414 0.10932
H_ H_ 0.221836 0.907209 0.81928 0.10932
H_ H_ 0.469858 0.917519 0.815104 0.10932
H_ H_ 0.18145 0.850904 0.687269 0.10932
H_ H_ 0.412894 0.861466 0.694241 0.10932
H_ H_ 0.188186 0.852312 0.822654 0.10932
H_ H_ 0.448115 0.847554 0.820447 0.10932
H_ H_ 0.205814 0.912396 0.686134 0.10932
H_ H_ 0.436169 0.930017 0.692258 0.10932
H_ H_ 0.216475 0.587124 0.82032 0.10932
H_ H_ 0.463718 0.582766 0.827087 0.10932
H_ H_ 0.183489 0.645355 0.686725 0.10932
H_ H_ 0.439128 0.646579 0.691793 0.10932
H_ H_ 0.18172 0.645761 0.820031 0.10932
H_ H_ 0.432974 0.644984 0.824632 0.10932
H_ H_ 0.218335 0.582951 0.687538 0.10932
H_ H_ 0.466019 0.58108 0.694846 0.10932
H_ H_ 0.0303607 0.5841 0.684798 0.10932
H_ H_ 0.280956 0.577171 0.685131 0.10932
H_ H_ 0.0702672 0.633545 0.818139 0.10932
H_ H_ 0.32049 0.637427 0.820255 0.10932
H_ H_ 0.0576095 0.650261 0.68634 0.10932
H_ H_ 0.3195 0.63336 0.68047 0.10932
H_ H_ 0.0403067 0.573371 0.817666 0.10932
H_ H_ 0.287141 0.57828 0.817667 0.10932
H_ H_ 0.116318 0.813689 0.869395 0.10932
H_ H_ 0.367873 0.817207 0.85945 0.10932
H_ H_ 0.127262 0.687737 0.862642 0.10932
H_ H_ 0.38374 0.683068 0.859714 0.10932
H_ H_ 0.126796 0.67896 0.935943 0.10932
H_ H_ 0.384055 0.68809 0.938581 0.10932
H_ H_ 0.11663 0.80998 0.948336 0.10932
H_ H_ 0.365848 0.817677 0.934812 0.10932
H_ H_ 0.165245 0.766374 0.645859 0.10932
H_ H_ 0.362077 0.685835 0.643869 0.10932
H_ H_ 0.074208 0.740484 0.648917 0.10932
H_ H_ 0.386906 0.812369 0.64538 0.10932
H_ H_ 0.070898 0.748601 0.569329 0.10932
H_ H_ 0.389699 0.816688 0.569202 0.10932
H_ H_ 0.161862 0.783299 0.569864 0.10932
H_ H_ 0.356982 0.688702 0.56392 0.10932
C_ C_ 0.0613635 0.84796 0.758869 -0.02249
C_ C_ 0.317283 0.846968 0.745926 -0.02249
C_ C_ 0.010222 0.961054 0.754362 -0.02249
C_ C_ 0.264059 0.957818 0.745706 -0.02249
C_ C_ 0.0287116 0.896016 0.719448 -0.11473
C_ C_ 0.284471 0.895812 0.706129 -0.11473
C_ C_ 0.0587402 0.872329 0.795122 -0.11473
C_ C_ 0.315473 0.871631 0.78022 -0.11473
C_ C_ 0.0463089 0.860285 0.72125 -0.11473
C_ C_ 0.30262 0.860497 0.707827 -0.11473
C_ C_ 0.0272426 0.921554 0.755492 -0.02249
C_ C_ 0.282583 0.918811 0.743 -0.02249
C_ C_ 0.0790442 0.807843 0.758715 0.6875
C_ C_ 0.336659 0.808535 0.747393 0.6875
C_ C_ 0.0408252 0.907745 0.794234 -0.11473
C_ C_ 0.296505 0.905191 0.780619 -0.11473
C_ C_ 0.182789 0.843839 0.756154 -0.02249
C_ C_ 0.42967 0.847795 0.754854 -0.02249
C_ C_ 0.232834 0.956982 0.749869 -0.02249
C_ C_ 0.480373 0.963542 0.748095 -0.02249
C_ C_ 0.211114 0.897704 0.791044 -0.11473
C_ C_ 0.461382 0.901606 0.7872 -0.11473
C_ C_ 0.19065 0.86123 0.717762 -0.11473
C_ C_ 0.425899 0.872377 0.720905 -0.11473
C_ C_ 0.193492 0.86337 0.792339 -0.11473
C_ C_ 0.445853 0.863885 0.79057 -0.11473
C_ C_ 0.216759 0.916718 0.751138 -0.02249
C_ C_ 0.461132 0.925347 0.751748 -0.02249
C_ C_ 0.162601 0.80625 0.75742 0.6875
C_ C_ 0.413067 0.808262 0.755729 0.6875
C_ C_ 0.205385 0.898466 0.714917 -0.11473
C_ C_ 0.442231 0.911131 0.717259 -0.11473
C_ C_ 0.179994 0.648962 0.753301 -0.02249
C_ C_ 0.431479 0.649555 0.756557 -0.02249
C_ C_ 0.231384 0.535315 0.75611 -0.02249
C_ C_ 0.483591 0.53893 0.757742 -0.02249
C_ C_ 0.209539 0.598517 0.789412 -0.11473
C_ C_ 0.458663 0.59567 0.79623 -0.11473
C_ C_ 0.189476 0.630703 0.715077 -0.11473
C_ C_ 0.444253 0.632873 0.72019 -0.11473
C_ C_ 0.190074 0.632903 0.790543 -0.11473
C_ C_ 0.440346 0.63127 0.795706 -0.11473
C_ C_ 0.214774 0.575405 0.752935 -0.02249
C_ C_ 0.470722 0.581093 0.760924 -0.02249
C_ C_ 0.159292 0.686905 0.754309 0.6875
C_ C_ 0.412835 0.687625 0.754588 0.6875
C_ C_ 0.209519 0.59617 0.716315 -0.11473
C_ C_ 0.461662 0.597648 0.723059 -0.11473
C_ C_ 0.0658404 0.64777 0.752701 -0.02249
C_ C_ 0.320674 0.643858 0.750849 -0.02249
C_ C_ 0.013953 0.537182 0.750131 -0.02249
C_ C_ 0.263352 0.535443 0.755868 -0.02249
C_ C_ 0.0349463 0.599843 0.714555 -0.11473
C_ C_ 0.292588 0.586731 0.713563 -0.11473
C_ C_ 0.0577762 0.626916 0.791339 -0.11473
C_ C_ 0.31078 0.62857 0.788836 -0.11473
C_ C_ 0.0522074 0.636105 0.715838 -0.11473
C_ C_ 0.311597 0.621729 0.711962 -0.11473
C_ C_ 0.0311386 0.576761 0.751911 -0.02249
C_ C_ 0.281155 0.574599 0.751923 -0.02249
C_ C_ 0.084698 0.685311 0.753992 0.6875
C_ C_ 0.338595 0.683044 0.748435 0.6875
C_ C_ 0.0436141 0.58995 0.790296 -0.11473
C_ C_ 0.292238 0.593712 0.788879 -0.11473
C_ C_ 0.116907 0.785324 0.8864 0.17695
C_ C_ 0.371417 0.78734 0.875867 0.17695
C_ C_ 0.124435 0.71356 0.881079 0.17695
C_ C_ 0.380886 0.713201 0.876955 0.17695
C_ C_ 0.126249 0.710357 0.923986 -0.11473
C_ C_ 0.382225 0.715862 0.921805 -0.11473
C_ C_ 0.12224 0.743737 0.950927 0.23465
C_ C_ 0.373438 0.752202 0.942278 0.23465
C_ C_ 0.115716 0.782203 0.931413 -0.11473
C_ C_ 0.370274 0.788183 0.918414 -0.11473
C_ C_ 0.144975 0.759366 0.629152 0.17695
C_ C_ 0.366981 0.714094 0.625443 0.17695
C_ C_ 0.0940777 0.742914 0.630982 0.17695
C_ C_ 0.384269 0.784395 0.628009 0.17695
C_ C_ 0.0917629 0.746756 0.586343 -0.11473
C_ C_ 0.384473 0.78585 0.583382 -0.11473
C_ C_ 0.117317 0.758151 0.563481 0.23465
C_ C_ 0.377437 0.750606 0.558611 0.23465
C_ C_ 0.143681 0.765983 0.585794 -0.11473
C_ C_ 0.367568 0.714147 0.580902 -0.11473
C_ C_ 0.0261343 -0.0007719999999999949 0.753391 0.05793
C_ C_ 0.278697 -0.0034330000000000194 0.742789 0.05793
C_ C_ 0.215133 0.497768 0.754291 0.05793
C_ C_ 0.467292 0.503337 0.766806 0.05793
Br Br 0.0686998 -0.0003830000000000222 0.745438 -0.17191
Br Br 0.322046 -0.004149999999999987 0.737097 -0.17191
Br Br 0.172103 0.497942 0.74931 -0.17191
Br Br 0.427382 0.509117 0.791677 -0.17191
N_ N_ 0.119784 0.751006 0.862501 -0.272
N_ N_ 0.376642 0.749034 0.855847 -0.272
N_ N_ 0.1241 0.737266 0.995317 -0.12501
N_ N_ 0.366815 0.753819 0.98605 -0.12501
N_ N_ 0.120079 0.750915 0.651589 -0.272
N_ N_ 0.376105 0.748549 0.645892 -0.272
N_ N_ 0.11576 0.764061 0.518577 -0.12501
N_ N_ 0.381921 0.747851 0.513218 -0.12501
O_ O_ 0.091733 0.794127 0.726024 -0.60745
O_ O_ 0.346256 0.790744 0.714665 -0.60745
O_ O_ 0.091559 0.79785 0.792986 -0.60745
O_ O_ 0.341832 0.791439 0.78125 -0.60745
O_ O_ 0.154216 0.79353 0.793348 -0.60745
O_ O_ 0.402742 0.796381 0.790806 -0.60745
O_ O_ 0.156013 0.7874 0.724212 -0.60745
O_ O_ 0.406825 0.788405 0.7213 -0.60745
O_ O_ 0.152872 0.704271 0.789529 -0.60745
O_ O_ 0.409008 0.708475 0.78729 -0.60745
O_ O_ 0.150777 0.703441 0.720192 -0.60745
O_ O_ 0.404255 0.704282 0.718548 -0.60745
O_ O_ 0.0917124 0.702987 0.721181 -0.60745
O_ O_ 0.34435 0.699845 0.712761 -0.60745
O_ O_ 0.0906879 0.703075 0.788958 -0.60745
O_ O_ 0.343309 0.703089 0.782464 -0.60745
Zn Zn 0.628323 0.249287 0.27777 0.9476
Zn Zn 0.875248 0.254212 0.286534 0.9476
Zn Zn 0.625408 0.250094 0.205949 0.9476
Zn Zn 0.877242 0.248443 0.215374 0.9476
H_ H_ 0.54865 0.433188 0.186703 0.10932
H_ H_ 0.784652 0.410817 0.169695 0.10932
H_ H_ 0.564937 0.34855 0.314815 0.10932
H_ H_ 0.816758 0.36386 0.309035 0.10932
H_ H_ 0.576854 0.368396 0.183775 0.10932
H_ H_ 0.812961 0.346669 0.176495 0.10932
H_ H_ 0.534812 0.411867 0.3213 0.10932
H_ H_ 0.793665 0.42807 0.302077 0.10932
H_ H_ 0.726458 0.410177 0.313364 0.10932
H_ H_ 0.979206 0.411085 0.326379 0.10932
H_ H_ 0.684778 0.356878 0.182649 0.10932
H_ H_ 0.930609 0.362682 0.193597 0.10932
H_ H_ 0.702467 0.34188 0.314314 0.10932
H_ H_ 0.948755 0.349235 0.32628 0.10932
H_ H_ 0.702867 0.430366 0.186208 0.10932
H_ H_ 0.957047 0.428728 0.195442 0.10932
H_ H_ 0.71944 0.086303 0.311091 0.10932
H_ H_ 0.965755 0.0827623 0.322952 0.10932
H_ H_ 0.683702 0.138399 0.173318 0.10932
H_ H_ 0.93521 0.141931 0.184914 0.10932
H_ H_ 0.696398 0.155244 0.304961 0.10932
H_ H_ 0.937537 0.151898 0.320505 0.10932
H_ H_ 0.717016 0.0788198 0.178674 0.10932
H_ H_ 0.963168 0.0741224 0.187443 0.10932
H_ H_ 0.549129 0.0680906 0.181888 0.10932
H_ H_ 0.776745 0.0848817 0.179561 0.10932
H_ H_ 0.556221 0.163497 0.30385 0.10932
H_ H_ 0.824479 0.139782 0.310092 0.10932
H_ H_ 0.580956 0.128998 0.179816 0.10932
H_ H_ 0.809224 0.14684 0.177712 0.10932
H_ H_ 0.528768 0.0973524 0.307864 0.10932
H_ H_ 0.790292 0.0772975 0.308151 0.10932
H_ H_ 0.663743 0.198182 0.35356 0.10932
H_ H_ 0.857902 0.187571 0.351869 0.10932
H_ H_ 0.608055 0.303622 0.349338 0.10932
H_ H_ 0.895431 0.305511 0.370762 0.10932
H_ H_ 0.603497 0.30057 0.431381 0.10932
H_ H_ 0.897342 0.297445 0.44826 0.10932
H_ H_ 0.654478 0.186183 0.42511 0.10932
H_ H_ 0.850505 0.180038 0.431174 0.10932
H_ H_ 0.629867 0.185996 0.128914 0.10932
H_ H_ 0.835761 0.248391 0.129933 0.10932
H_ H_ 0.622099 0.31811 0.136257 0.10932
H_ H_ 0.930696 0.259592 0.145223 0.10932
H_ H_ 0.626838 0.323325 0.0569832 0.10932
H_ H_ 0.933605 0.272568 0.0664961 0.10932
H_ H_ 0.630783 0.189067 0.0525132 0.10932
H_ H_ 0.840187 0.241512 0.0572214 0.10932
C_ C_ 0.570212 0.350784 0.248185 -0.02249
C_ C_ 0.816878 0.348732 0.243626 -0.02249
C_ C_ 0.523399 0.467051 0.254961 -0.02249
C_ C_ 0.766981 0.464095 0.232593 -0.02249
C_ C_ 0.55051 0.413341 0.216226 -0.11473
C_ C_ 0.790155 0.399348 0.200929 -0.11473
C_ C_ 0.559989 0.366012 0.288023 -0.11473
C_ C_ 0.81137 0.373957 0.279539 -0.11473
C_ C_ 0.565929 0.37576 0.213377 -0.11473
C_ C_ 0.806359 0.362696 0.204813 -0.11473
C_ C_ 0.539428 0.427539 0.254069 -0.02249
C_ C_ 0.783258 0.422979 0.235265 -0.02249
C_ C_ 0.590284 0.313148 0.245594 0.6875
C_ C_ 0.835396 0.309346 0.246759 0.6875
C_ C_ 0.542183 0.402382 0.291046 -0.11473
C_ C_ 0.795588 0.40995 0.27488 -0.11473
C_ C_ 0.687913 0.346415 0.249638 -0.02249
C_ C_ 0.935635 0.349894 0.259118 -0.02249
C_ C_ 0.736195 0.464769 0.244379 -0.02249
C_ C_ 0.988275 0.461686 0.26208 -0.02249
C_ C_ 0.717428 0.398321 0.284316 -0.11473
C_ C_ 0.968463 0.399276 0.297467 -0.11473
C_ C_ 0.691138 0.369099 0.211496 -0.11473
C_ C_ 0.94143 0.372026 0.221673 -0.11473
C_ C_ 0.701101 0.360281 0.285346 -0.11473
C_ C_ 0.949244 0.366808 0.297834 -0.11473
C_ C_ 0.71821 0.424963 0.248647 -0.02249
C_ C_ 0.970943 0.422161 0.259881 -0.02249
C_ C_ 0.668026 0.309445 0.24845 0.6875
C_ C_ 0.916472 0.310001 0.258732 0.6875
C_ C_ 0.704465 0.409551 0.213152 -0.11473
C_ C_ 0.957924 0.40782 0.221816 -0.11473
C_ C_ 0.687363 0.152109 0.239064 -0.02249
C_ C_ 0.934101 0.150433 0.252975 -0.02249
C_ C_ 0.737031 0.0381777 0.242732 -0.02249
C_ C_ 0.985393 0.0355531 0.259841 -0.02249
C_ C_ 0.715017 0.102067 0.28035 -0.11473
C_ C_ 0.957204 0.0955588 0.292812 -0.11473
C_ C_ 0.694111 0.13063 0.202954 -0.11473
C_ C_ 0.941546 0.128476 0.215286 -0.11473
C_ C_ 0.70186 0.141235 0.277185 -0.11473
C_ C_ 0.940597 0.132772 0.290717 -0.11473
C_ C_ 0.721672 0.0792688 0.243437 -0.02249
C_ C_ 0.967291 0.0761545 0.256016 -0.02249
C_ C_ 0.664042 0.184997 0.237968 0.6875
C_ C_ 0.916062 0.189443 0.250711 0.6875
C_ C_ 0.713065 0.0965213 0.205745 -0.11473
C_ C_ 0.958958 0.0922104 0.216348 -0.11473
C_ C_ 0.570131 0.151223 0.240822 -0.02249
C_ C_ 0.821515 0.147749 0.244474 -0.02249
C_ C_ 0.519529 0.0395614 0.251652 -0.02249
C_ C_ 0.768459 0.0346265 0.244064 -0.02249
C_ C_ 0.552031 0.0868032 0.209877 -0.11473
C_ C_ 0.789204 0.0960288 0.207709 -0.11473
C_ C_ 0.554219 0.142092 0.277833 -0.11473
C_ C_ 0.816455 0.1254 0.281804 -0.11473
C_ C_ 0.56881 0.12328 0.207409 -0.11473
C_ C_ 0.80684 0.13288 0.207864 -0.11473
C_ C_ 0.535257 0.0793681 0.244666 -0.02249
C_ C_ 0.787193 0.0724524 0.244105 -0.02249
C_ C_ 0.588277 0.189342 0.238386 0.6875
C_ C_ 0.839874 0.188514 0.245615 0.6875
C_ C_ 0.536895 0.106646 0.278865 -0.11473
C_ C_ 0.800394 0.0873525 0.28065 -0.11473
C_ C_ 0.647065 0.217433 0.367886 0.17695
C_ C_ 0.861551 0.215737 0.373486 0.17695
C_ C_ 0.61717 0.280052 0.369934 0.17695
C_ C_ 0.885786 0.279255 0.382719 0.17695
C_ C_ 0.613419 0.274704 0.413731 -0.11473
C_ C_ 0.886443 0.274075 0.426872 -0.11473
C_ C_ 0.627385 0.24017 0.434712 0.23465
C_ C_ 0.870572 0.241586 0.444308 0.23465
C_ C_ 0.64268 0.210018 0.410958 -0.11473
C_ C_ 0.859254 0.20985 0.417266 -0.11473
C_ C_ 0.62756 0.215711 0.113203 0.17695
C_ C_ 0.858214 0.248176 0.118134 0.17695
C_ C_ 0.628816 0.290066 0.116516 0.17695
C_ C_ 0.909581 0.263119 0.126562 0.17695
C_ C_ 0.626934 0.293387 0.073044 -0.11473
C_ C_ 0.91177 0.270383 0.0815828 -0.11473
C_ C_ 0.628444 0.256506 0.0487382 0.23465
C_ C_ 0.885851 0.263442 0.0559406 0.23465
C_ C_ 0.630986 0.217701 0.0693752 -0.11473
C_ C_ 0.860755 0.247755 0.0743089 -0.11473
C_ C_ 0.537419 0.506743 0.257988 0.05793
C_ C_ 0.78327 0.501142 0.22741 0.05793
C_ C_ 0.720566 1.000599612 0.245005 0.05793
C_ C_ 0.970993 0.996462 0.258431 0.05793
Br Br 0.581318 0.510421 0.262624 -0.17191
Br Br 0.826689 0.499283 0.225725 -0.17191
Br Br 0.676975 0.00293447 0.243466 -0.17191
Br Br 0.927957 -0.0013929999999999776 0.255447 -0.17191
N_ N_ 0.632351 0.249978 0.347495 -0.272
N_ N_ 0.872812 0.250769 0.357489 -0.272
N_ N_ 0.624976 0.234932 0.478236 -0.12501
N_ N_ 0.872652 0.23269 0.487799 -0.12501
N_ N_ 0.627885 0.251659 0.135098 -0.272
N_ N_ 0.882512 0.252064 0.143347 -0.272
N_ N_ 0.621009 0.258838 0.00447396 -0.12501
N_ N_ 0.885377 0.271334 0.0116206 -0.12501
O_ O_ 0.594188 0.29565 0.212091 -0.60745
O_ O_ 0.843319 0.288985 0.214702 -0.60745
O_ O_ 0.599345 0.295845 0.279461 -0.60745
O_ O_ 0.843327 0.29642 0.283469 -0.60745
O_ O_ 0.661692 0.289901 0.283094 -0.60745
O_ O_ 0.907674 0.294073 0.293513 -0.60745
O_ O_ 0.65693 0.296903 0.21289 -0.60745
O_ O_ 0.905882 0.297348 0.223506 -0.60745
O_ O_ 0.656338 0.200461 0.272509 -0.60745
O_ O_ 0.904128 0.203794 0.283694 -0.60745
O_ O_ 0.655375 0.203788 0.204354 -0.60745
O_ O_ 0.910715 0.20829 0.216667 -0.60745
O_ O_ 0.598912 0.201719 0.204557 -0.60745
O_ O_ 0.84804 0.202797 0.211204 -0.60745
O_ O_ 0.595373 0.20806 0.271864 -0.60745
O_ O_ 0.842377 0.210356 0.279098 -0.60745
Zn Zn 0.62226 0.249776 0.778621 0.9476
Zn Zn 0.868717 0.253024 0.784717 0.9476
Zn Zn 0.621019 0.254451 0.707987 0.9476
Zn Zn 0.870008 0.250004 0.716828 0.9476
H_ H_ 0.520352 0.417476 0.691339 0.10932
H_ H_ 0.788552 0.428001 0.685023 0.10932
H_ H_ 0.572139 0.354882 0.814224 0.10932
H_ H_ 0.805984 0.352795 0.819499 0.10932
H_ H_ 0.547512 0.351036 0.681233 0.10932
H_ H_ 0.816596 0.364835 0.683977 0.10932
H_ H_ 0.543496 0.421685 0.820229 0.10932
H_ H_ 0.778291 0.419517 0.817433 0.10932
H_ H_ 0.715132 0.412428 0.815231 0.10932
H_ H_ 0.950693 0.429073 0.810498 0.10932
H_ H_ 0.677125 0.362504 0.684442 0.10932
H_ H_ 0.942953 0.340445 0.683397 0.10932
H_ H_ 0.691491 0.347748 0.813837 0.10932
H_ H_ 0.922543 0.368373 0.81492 0.10932
H_ H_ 0.714962 0.418524 0.682807 0.10932
H_ H_ 0.971244 0.402808 0.682472 0.10932
H_ H_ 0.707368 0.0771389 0.80239 0.10932
H_ H_ 0.952901 0.0814896 0.823749 0.10932
H_ H_ 0.689674 0.154996 0.670039 0.10932
H_ H_ 0.928714 0.142044 0.685088 0.10932
H_ H_ 0.67678 0.140617 0.806624 0.10932
H_ H_ 0.930558 0.156695 0.816679 0.10932
H_ H_ 0.720606 0.0940513 0.672959 0.10932
H_ H_ 0.960156 0.0808512 0.689716 0.10932
H_ H_ 0.520489 0.0933484 0.664422 0.10932
H_ H_ 0.788919 0.076653 0.683778 0.10932
H_ H_ 0.568051 0.139332 0.801518 0.10932
H_ H_ 0.806953 0.154275 0.816948 0.10932
H_ H_ 0.556116 0.157 0.666582 0.10932
H_ H_ 0.824883 0.135319 0.687521 0.10932
H_ H_ 0.533399 0.0798352 0.797679 0.10932
H_ H_ 0.779923 0.0814846 0.815678 0.10932
H_ H_ 0.625081 0.317637 0.858089 0.10932
H_ H_ 0.873338 0.185457 0.858083 0.10932
H_ H_ 0.626989 0.187379 0.8433 0.10932
H_ H_ 0.873236 0.31927 0.864313 0.10932
H_ H_ 0.642149 0.180309 0.917183 0.10932
H_ H_ 0.886976 0.312614 0.938311 0.10932
H_ H_ 0.620673 0.3101 0.937323 0.10932
H_ H_ 0.866843 0.182021 0.932567 0.10932
H_ H_ 0.621711 0.193359 0.628406 0.10932
H_ H_ 0.918463 0.242757 0.642765 0.10932
H_ H_ 0.615352 0.325184 0.636096 0.10932
H_ H_ 0.825814 0.275007 0.646325 0.10932
H_ H_ 0.615528 0.32855 0.555899 0.10932
H_ H_ 0.821218 0.270542 0.566449 0.10932
H_ H_ 0.627697 0.194979 0.554107 0.10932
H_ H_ 0.915569 0.255968 0.566144 0.10932
C_ C_ 0.56155 0.347009 0.748664 -0.02249
C_ C_ 0.813435 0.35233 0.750962 -0.02249
C_ C_ 0.512951 0.460162 0.758807 -0.02249
C_ C_ 0.761401 0.465938 0.746687 -0.02249
C_ C_ 0.528077 0.399896 0.71711 -0.11473
C_ C_ 0.7891 0.410291 0.713036 -0.11473
C_ C_ 0.558006 0.366199 0.788228 -0.11473
C_ C_ 0.800566 0.368026 0.788813 -0.11473
C_ C_ 0.547921 0.365829 0.713089 -0.11473
C_ C_ 0.808777 0.377325 0.712824 -0.11473
C_ C_ 0.526931 0.418796 0.756548 -0.02249
C_ C_ 0.779753 0.428434 0.748943 -0.02249
C_ C_ 0.580373 0.309714 0.744154 0.6875
C_ C_ 0.832237 0.313088 0.753136 0.6875
C_ C_ 0.54141 0.404052 0.792145 -0.11473
C_ C_ 0.784476 0.407071 0.787672 -0.11473
C_ C_ 0.680758 0.346613 0.748984 -0.02249
C_ C_ 0.934293 0.343355 0.751683 -0.02249
C_ C_ 0.730205 0.463839 0.750324 -0.02249
C_ C_ 0.981446 0.461557 0.745213 -0.02249
C_ C_ 0.7096 0.399587 0.785785 -0.11473
C_ C_ 0.9484 0.409305 0.783047 -0.11473
C_ C_ 0.687948 0.369534 0.712207 -0.11473
C_ C_ 0.946657 0.356449 0.713894 -0.11473
C_ C_ 0.691547 0.364184 0.786529 -0.11473
C_ C_ 0.934944 0.372051 0.786041 -0.11473
C_ C_ 0.714896 0.422844 0.749656 -0.02249
C_ C_ 0.963354 0.422658 0.747078 -0.02249
C_ C_ 0.660643 0.310749 0.746101 0.6875
C_ C_ 0.911221 0.309292 0.752102 0.6875
C_ C_ 0.705714 0.405861 0.712046 -0.11473
C_ C_ 0.96138 0.394339 0.712212 -0.11473
C_ C_ 0.678529 0.152179 0.740448 -0.02249
C_ C_ 0.928125 0.153331 0.752426 -0.02249
C_ C_ 0.732886 0.039617 0.736877 -0.02249
C_ C_ 0.978813 0.0377425 0.760266 -0.02249
C_ C_ 0.702214 0.0948627 0.774632 -0.11473
C_ C_ 0.952483 0.100437 0.794541 -0.11473
C_ C_ 0.692401 0.137702 0.700826 -0.11473
C_ C_ 0.937586 0.133262 0.716469 -0.11473
C_ C_ 0.685854 0.130968 0.778047 -0.11473
C_ C_ 0.937078 0.138674 0.791388 -0.11473
C_ C_ 0.714593 0.0791878 0.737751 -0.02249
C_ C_ 0.961856 0.0790314 0.757906 -0.02249
C_ C_ 0.658512 0.190107 0.740794 0.6875
C_ C_ 0.909705 0.19118 0.748848 0.6875
C_ C_ 0.710399 0.102376 0.701022 -0.11473
C_ C_ 0.954004 0.0970034 0.718862 -0.11473
C_ C_ 0.56286 0.152367 0.733766 -0.02249
C_ C_ 0.819895 0.145997 0.752464 -0.02249
C_ C_ 0.51107 0.0375735 0.733083 -0.02249
C_ C_ 0.763608 0.0381369 0.748857 -0.02249
C_ C_ 0.534836 0.0987951 0.693749 -0.11473
C_ C_ 0.795028 0.0913376 0.714418 -0.11473
C_ C_ 0.555833 0.131318 0.771183 -0.11473
C_ C_ 0.805762 0.132902 0.788241 -0.11473
C_ C_ 0.553457 0.135887 0.695229 -0.11473
C_ C_ 0.813475 0.125705 0.715623 -0.11473
C_ C_ 0.529234 0.0764103 0.729871 -0.02249
C_ C_ 0.781307 0.0765656 0.750728 -0.02249
C_ C_ 0.582524 0.189811 0.737558 0.6875
C_ C_ 0.835148 0.187452 0.749883 0.6875
C_ C_ 0.539219 0.0943516 0.768146 -0.11473
C_ C_ 0.787897 0.0972846 0.7884 -0.11473
C_ C_ 0.625621 0.287484 0.872981 0.17695
C_ C_ 0.872534 0.215107 0.874235 0.17695
C_ C_ 0.626718 0.213728 0.864094 0.17695
C_ C_ 0.873379 0.2884 0.879316 0.17695
C_ C_ 0.634508 0.209532 0.905483 -0.11473
C_ C_ 0.878767 0.285674 0.922187 -0.11473
C_ C_ 0.629938 0.243345 0.934604 0.23465
C_ C_ 0.877554 0.246907 0.94263 0.23465
C_ C_ 0.624253 0.282947 0.916676 -0.11473
C_ C_ 0.871783 0.212318 0.917782 -0.11473
C_ C_ 0.62029 0.223515 0.613575 0.17695
C_ C_ 0.896622 0.248016 0.626069 0.17695
C_ C_ 0.617837 0.296664 0.617424 0.17695
C_ C_ 0.844392 0.264659 0.627981 0.17695
C_ C_ 0.619662 0.298844 0.573667 -0.11473
C_ C_ 0.842862 0.266139 0.583772 -0.11473
C_ C_ 0.623228 0.262699 0.548669 0.23465
C_ C_ 0.866733 0.253387 0.559487 0.23465
C_ C_ 0.625271 0.224868 0.569612 -0.11473
C_ C_ 0.89503 0.250247 0.581312 -0.11473
C_ C_ 0.530698 0.497279 0.754624 0.05793
C_ C_ 0.775595 0.504783 0.741656 0.05793
C_ C_ 0.71836 0.000491075 0.730983 0.05793
C_ C_ 0.962647 0.00102778 0.757738 0.05793
Br Br 0.573157 0.49113 0.748765 -0.17191
Br Br 0.818276 0.505189 0.731192 -0.17191
Br Br 0.673561 0.00202155 0.71826 -0.17191
Br Br 0.918752 -0.0007070000000000132 0.763934 -0.17191
N_ N_ 0.62312 0.252934 0.848531 -0.272
N_ N_ 0.872276 0.25214 0.854356 -0.272
N_ N_ 0.63338 0.235167 0.978884 -0.12501
N_ N_ 0.883289 0.241428 0.986776 -0.12501
N_ N_ 0.618919 0.258234 0.636076 -0.272
N_ N_ 0.87074 0.254628 0.647939 -0.272
N_ N_ 0.621885 0.264319 0.503131 -0.12501
N_ N_ 0.865558 0.26046 0.514801 -0.12501
O_ O_ 0.591594 0.302111 0.708123 -0.60745
O_ O_ 0.839567 0.295419 0.719601 -0.60745
O_ O_ 0.587363 0.288219 0.775957 -0.60745
O_ O_ 0.83882 0.298109 0.788203 -0.60745
O_ O_ 0.648552 0.299258 0.77962 -0.60745
O_ O_ 0.898238 0.3007 0.785719 -0.60745
O_ O_ 0.655349 0.292455 0.710415 -0.60745
O_ O_ 0.901983 0.292371 0.717906 -0.60745
O_ O_ 0.654788 0.209136 0.775063 -0.60745
O_ O_ 0.899082 0.207786 0.780894 -0.60745
O_ O_ 0.646215 0.204927 0.70745 -0.60745
O_ O_ 0.902062 0.207501 0.713801 -0.60745
O_ O_ 0.585897 0.214879 0.707209 -0.60745
O_ O_ 0.837793 0.205194 0.714639 -0.60745
O_ O_ 0.593521 0.199477 0.773129 -0.60745
O_ O_ 0.842802 0.206113 0.783375 -0.60745
Zn Zn 0.629899 0.751452 0.275321 0.9476
Zn Zn 0.874829 0.749926 0.282909 0.9476
Zn Zn 0.626931 0.751426 0.208163 0.9476
Zn Zn 0.87723 0.751545 0.21107 0.9476
H_ H_ 0.544647 0.933007 0.187303 0.10932
H_ H_ 0.778411 0.908068 0.174543 0.10932
H_ H_ 0.560102 0.846798 0.318071 0.10932
H_ H_ 0.819838 0.855137 0.309063 0.10932
H_ H_ 0.578422 0.871243 0.182955 0.10932
H_ H_ 0.815191 0.850707 0.17695 0.10932
H_ H_ 0.533927 0.910608 0.319311 0.10932
H_ H_ 0.79001 0.918541 0.309286 0.10932
H_ H_ 0.722806 0.910449 0.309302 0.10932
H_ H_ 0.964332 0.918912 0.322523 0.10932
H_ H_ 0.680517 0.854396 0.173069 0.10932
H_ H_ 0.945439 0.843893 0.188512 0.10932
H_ H_ 0.701946 0.841087 0.304027 0.10932
H_ H_ 0.927176 0.861686 0.319117 0.10932
H_ H_ 0.710035 0.918872 0.17421 0.10932
H_ H_ 0.981369 0.906675 0.191953 0.10932
H_ H_ 0.730758 0.597482 0.306039 0.10932
H_ H_ 0.972666 0.587682 0.324514 0.10932
H_ H_ 0.675838 0.633512 0.1781 0.10932
H_ H_ 0.923966 0.634928 0.188378 0.10932
H_ H_ 0.701901 0.659729 0.304447 0.10932
H_ H_ 0.935087 0.643952 0.322534 0.10932
H_ H_ 0.703715 0.572023 0.177497 0.10932
H_ H_ 0.959816 0.574264 0.190067 0.10932
H_ H_ 0.559476 0.57272 0.188591 0.10932
H_ H_ 0.777494 0.594517 0.16585 0.10932
H_ H_ 0.55574 0.662018 0.307725 0.10932
H_ H_ 0.832954 0.63054 0.296528 0.10932
H_ H_ 0.576799 0.640377 0.179511 0.10932
H_ H_ 0.804362 0.663582 0.173157 0.10932
H_ H_ 0.533748 0.595171 0.312563 0.10932
H_ H_ 0.804659 0.567289 0.29612 0.10932
H_ H_ 0.620148 0.686883 0.351015 0.10932
H_ H_ 0.826616 0.775675 0.35208 0.10932
H_ H_ 0.630121 0.815107 0.34723 0.10932
H_ H_ 0.911484 0.725835 0.360019 0.10932
H_ H_ 0.626509 0.81988 0.424665 0.10932
H_ H_ 0.911621 0.722228 0.438143 0.10932
H_ H_ 0.616162 0.689561 0.430489 0.10932
H_ H_ 0.829584 0.796423 0.429194 0.10932
H_ H_ 0.646626 0.811662 0.135281 0.10932
H_ H_ 0.905624 0.693397 0.132305 0.10932
H_ H_ 0.60687 0.690821 0.131141 0.10932
H_ H_ 0.867613 0.814003 0.140442 0.10932
H_ H_ 0.609101 0.693397 0.0535868 0.10932
H_ H_ 0.872873 0.821685 0.0621407 0.10932
H_ H_ 0.650004 0.811058 0.0593582 0.10932
H_ H_ 0.905162 0.697201 0.0581257 0.10932
C_ C_ 0.573826 0.854535 0.249519 -0.02249
C_ C_ 0.817191 0.845381 0.244292 -0.02249
C_ C_ 0.520746 0.964797 0.255414 -0.02249
C_ C_ 0.766581 0.958609 0.239543 -0.02249
C_ C_ 0.548315 0.912386 0.215609 -0.11473
C_ C_ 0.787056 0.898599 0.204366 -0.11473
C_ C_ 0.560053 0.864374 0.28804 -0.11473
C_ C_ 0.811512 0.867527 0.279921 -0.11473
C_ C_ 0.566954 0.876881 0.213066 -0.11473
C_ C_ 0.807313 0.863916 0.20502 -0.11473
C_ C_ 0.538118 0.927242 0.254055 -0.02249
C_ C_ 0.780325 0.91756 0.241276 -0.02249
C_ C_ 0.592478 0.816155 0.246144 0.6875
C_ C_ 0.835167 0.807457 0.245649 0.6875
C_ C_ 0.543397 0.901659 0.289872 -0.11473
C_ C_ 0.791847 0.901308 0.279801 -0.11473
C_ C_ 0.688808 0.843873 0.23998 -0.02249
C_ C_ 0.935928 0.84629 0.253783 -0.02249
C_ C_ 0.734616 0.961872 0.241064 -0.02249
C_ C_ 0.987325 0.960202 0.25735 -0.02249
C_ C_ 0.712613 0.900803 0.278936 -0.11473
C_ C_ 0.958264 0.905206 0.293347 -0.11473
C_ C_ 0.690443 0.86655 0.203823 -0.11473
C_ C_ 0.951149 0.86053 0.218084 -0.11473
C_ C_ 0.704099 0.858944 0.277115 -0.11473
C_ C_ 0.938679 0.869707 0.2918 -0.11473
C_ C_ 0.715439 0.92276 0.241787 -0.02249
C_ C_ 0.971919 0.918665 0.256715 -0.02249
C_ C_ 0.668864 0.806187 0.242082 0.6875
C_ C_ 0.917382 0.807785 0.251669 0.6875
C_ C_ 0.703513 0.905602 0.203919 -0.11473
C_ C_ 0.968928 0.89705 0.219402 -0.11473
C_ C_ 0.68707 0.654265 0.238586 -0.02249
C_ C_ 0.932204 0.6484 0.255972 -0.02249
C_ C_ 0.73873 0.542861 0.241506 -0.02249
C_ C_ 0.985881 0.538224 0.261393 -0.02249
C_ C_ 0.720093 0.605952 0.277041 -0.11473
C_ C_ 0.96487 0.599943 0.29483 -0.11473
C_ C_ 0.690642 0.630483 0.203512 -0.11473
C_ C_ 0.936499 0.625989 0.218483 -0.11473
C_ C_ 0.701729 0.641352 0.277188 -0.11473
C_ C_ 0.944684 0.632797 0.293735 -0.11473
C_ C_ 0.722007 0.580885 0.241078 -0.02249
C_ C_ 0.968919 0.57749 0.258152 -0.02249
C_ C_ 0.663714 0.686001 0.24072 0.6875
C_ C_ 0.914515 0.690244 0.253187 0.6875
C_ C_ 0.706312 0.592721 0.204192 -0.11473
C_ C_ 0.956553 0.592597 0.219989 -0.11473
C_ C_ 0.563955 0.663848 0.242596 -0.02249
C_ C_ 0.81948 0.65224 0.236327 -0.02249
C_ C_ 0.520141 0.54298 0.250292 -0.02249
C_ C_ 0.768521 0.539927 0.229611 -0.02249
C_ C_ 0.552863 0.593022 0.212277 -0.11473
C_ C_ 0.786621 0.605261 0.197434 -0.11473
C_ C_ 0.548065 0.651281 0.277611 -0.11473
C_ C_ 0.81919 0.62552 0.269655 -0.11473
C_ C_ 0.565864 0.632554 0.209117 -0.11473
C_ C_ 0.80351 0.642947 0.199788 -0.11473
C_ C_ 0.534821 0.583118 0.246135 -0.02249
C_ C_ 0.786818 0.577985 0.230635 -0.02249
C_ C_ 0.583626 0.701011 0.243705 0.6875
C_ C_ 0.835073 0.692698 0.241543 0.6875
C_ C_ 0.535336 0.610217 0.281545 -0.11473
C_ C_ 0.802989 0.588142 0.268828 -0.11473
C_ C_ 0.623428 0.715702 0.368418 0.17695
C_ C_ 0.846589 0.769813 0.371706 0.17695
C_ C_ 0.633583 0.786958 0.366329 0.17695
C_ C_ 0.892423 0.733701 0.37588 0.17695
C_ C_ 0.628337 0.790121 0.410231 -0.11473
C_ C_ 0.893371 0.736609 0.419451 -0.11473
C_ C_ 0.624036 0.754005 0.434559 0.23465
C_ C_ 0.87055 0.75928 0.43968 0.23465
C_ C_ 0.620555 0.716454 0.411977 -0.11473
C_ C_ 0.847065 0.776392 0.416109 -0.11473
C_ C_ 0.641539 0.782535 0.118744 0.17695
C_ C_ 0.895166 0.721443 0.118421 0.17695
C_ C_ 0.616271 0.718767 0.115882 0.17695
C_ C_ 0.876417 0.789023 0.122617 0.17695
C_ C_ 0.618687 0.717305 0.0716622 -0.11473
C_ C_ 0.880336 0.794674 0.0792357 -0.11473
C_ C_ 0.631279 0.74996 0.0511988 0.23465
C_ C_ 0.886717 0.760703 0.0541386 0.23465
C_ C_ 0.640886 0.784842 0.0746982 -0.11473
C_ C_ 0.898046 0.725271 0.0744589 -0.11473
C_ C_ 0.535809 1.00202504 0.25349 0.05793
C_ C_ 0.783044 0.995987 0.23848 0.05793
C_ C_ 0.721927 0.503427 0.246391 0.05793
C_ C_ 0.972637 0.49984 0.269881 0.05793
Br Br 0.579297 1.00250374 0.256848 -0.17191
Br Br 0.826779 0.992351 0.238073 -0.17191
Br Br 0.683556 0.506282 0.271378 -0.17191
Br Br 0.933209 0.497453 0.291612 -0.17191
N_ N_ 0.631929 0.750551 0.347853 -0.272
N_ N_ 0.869606 0.751045 0.352449 -0.272
N_ N_ 0.628435 0.757012 0.477831 -0.12501
N_ N_ 0.871394 0.766418 0.484659 -0.12501
N_ N_ 0.628531 0.749655 0.139189 -0.272
N_ N_ 0.884776 0.753999 0.140818 -0.272
N_ N_ 0.637526 0.750703 0.0066319 -0.12501
N_ N_ 0.878206 0.761132 0.00876368 -0.12501
O_ O_ 0.598383 0.798377 0.21132 -0.60745
O_ O_ 0.846154 0.796642 0.211603 -0.60745
O_ O_ 0.603657 0.800369 0.278227 -0.60745
O_ O_ 0.841198 0.789888 0.28033 -0.60745
O_ O_ 0.663472 0.786488 0.27631 -0.60745
O_ O_ 0.90407 0.7951 0.284663 -0.60745
O_ O_ 0.659156 0.790947 0.208777 -0.60745
O_ O_ 0.910163 0.791675 0.215545 -0.60745
O_ O_ 0.65763 0.702875 0.277283 -0.60745
O_ O_ 0.906234 0.706823 0.28743 -0.60745
O_ O_ 0.654036 0.704323 0.20759 -0.60745
O_ O_ 0.907047 0.70426 0.216795 -0.60745
O_ O_ 0.593471 0.714402 0.208614 -0.60745
O_ O_ 0.84423 0.712712 0.210982 -0.60745
O_ O_ 0.592493 0.717432 0.277911 -0.60745
O_ O_ 0.845681 0.703931 0.278057 -0.60745
Zn Zn 0.621477 0.751983 0.781434 0.9476
Zn Zn 0.87547 0.75054 0.781857 0.9476
Zn Zn 0.620844 0.75255 0.710029 0.9476
Zn Zn 0.872743 0.748488 0.714066 0.9476
H_ H_ 0.515155 0.902993 0.677224 0.10932
H_ H_ 0.808486 0.934109 0.693149 0.10932
H_ H_ 0.564236 0.855422 0.809748 0.10932
H_ H_ 0.787771 0.828997 0.80211 0.10932
H_ H_ 0.543487 0.837679 0.677264 0.10932
H_ H_ 0.843741 0.879958 0.704035 0.10932
H_ H_ 0.534979 0.919092 0.809143 0.10932
H_ H_ 0.760081 0.895842 0.800405 0.10932
H_ H_ 0.701075 0.937344 0.799207 0.10932
H_ H_ 0.965933 0.914757 0.81871 0.10932
H_ H_ 0.689144 0.84376 0.681916 0.10932
H_ H_ 0.92764 0.858846 0.681915 0.10932
H_ H_ 0.669839 0.875036 0.807995 0.10932
H_ H_ 0.937156 0.847323 0.817595 0.10932
H_ H_ 0.7191 0.904623 0.673142 0.10932
H_ H_ 0.956486 0.924986 0.685827 0.10932
H_ H_ 0.723501 0.598676 0.813688 0.10932
H_ H_ 0.970537 0.586574 0.812898 0.10932
H_ H_ 0.674637 0.645971 0.682828 0.10932
H_ H_ 0.939868 0.653787 0.678177 0.10932
H_ H_ 0.70054 0.665295 0.811997 0.10932
H_ H_ 0.930714 0.642366 0.814115 0.10932
H_ H_ 0.698025 0.579552 0.684217 0.10932
H_ H_ 0.959243 0.582642 0.678857 0.10932
H_ H_ 0.52254 0.585472 0.689908 0.10932
H_ H_ 0.763 0.602954 0.687991 0.10932
H_ H_ 0.574509 0.636124 0.814972 0.10932
H_ H_ 0.833894 0.628559 0.804778 0.10932
H_ H_ 0.550579 0.648439 0.683357 0.10932
H_ H_ 0.792661 0.666839 0.687353 0.10932
H_ H_ 0.54623 0.570204 0.818973 0.10932
H_ H_ 0.79518 0.574216 0.811081 0.10932
H_ H_ 0.577152 0.751196 0.849734 0.10932
H_ H_ 0.878759 0.68091 0.849333 0.10932
H_ H_ 0.67244 0.762211 0.861135 0.10932
H_ H_ 0.869349 0.811576 0.865649 0.10932
H_ H_ 0.668413 0.763255 0.935598 0.10932
H_ H_ 0.880454 0.804415 0.941095 0.10932
H_ H_ 0.573025 0.738971 0.923294 0.10932
H_ H_ 0.875188 0.672707 0.928336 0.10932
H_ H_ 0.612346 0.679686 0.635823 0.10932
H_ H_ 0.872317 0.817922 0.634988 0.10932
H_ H_ 0.631913 0.808338 0.634134 0.10932
H_ H_ 0.878908 0.686105 0.646766 0.10932
H_ H_ 0.624999 0.80603 0.551826 0.10932
H_ H_ 0.875043 0.679179 0.567751 0.10932
H_ H_ 0.603464 0.675984 0.556933 0.10932
H_ H_ 0.873697 0.811849 0.555443 0.10932
C_ C_ 0.555533 0.842012 0.743429 -0.02249
C_ C_ 0.81482 0.846297 0.747087 -0.02249
C_ C_ 0.510848 0.961052 0.738642 -0.02249
C_ C_ 0.76468 0.960322 0.749239 -0.02249
C_ C_ 0.523646 0.893127 0.706594 -0.11473
C_ C_ 0.80376 0.911903 0.716992 -0.11473
C_ C_ 0.554302 0.865643 0.780573 -0.11473
C_ C_ 0.79187 0.85134 0.777937 -0.11473
C_ C_ 0.540432 0.85566 0.705358 -0.11473
C_ C_ 0.822631 0.879177 0.720867 -0.11473
C_ C_ 0.525773 0.920437 0.740965 -0.02249
C_ C_ 0.78177 0.920265 0.748169 -0.02249
C_ C_ 0.576153 0.806001 0.741222 0.6875
C_ C_ 0.832393 0.806884 0.748082 0.6875
C_ C_ 0.5379 0.902878 0.779802 -0.11473
C_ C_ 0.777118 0.889203 0.777951 -0.11473
C_ C_ 0.677665 0.852917 0.744714 -0.02249
C_ C_ 0.932457 0.84622 0.74809 -0.02249
C_ C_ 0.733215 0.961113 0.737243 -0.02249
C_ C_ 0.978529 0.962764 0.755397 -0.02249
C_ C_ 0.696662 0.917815 0.772962 -0.11473
C_ C_ 0.958345 0.901393 0.790117 -0.11473
C_ C_ 0.69571 0.859665 0.70946 -0.11473
C_ C_ 0.937692 0.86868 0.711978 -0.11473
C_ C_ 0.68039 0.882144 0.777955 -0.11473
C_ C_ 0.941748 0.862976 0.788009 -0.11473
C_ C_ 0.714769 0.924193 0.736577 -0.02249
C_ C_ 0.961926 0.923709 0.75255 -0.02249
C_ C_ 0.657563 0.815266 0.745255 0.6875
C_ C_ 0.913306 0.808396 0.749301 0.6875
C_ C_ 0.714013 0.895663 0.703946 -0.11473
C_ C_ 0.950627 0.907468 0.714618 -0.11473
C_ C_ 0.68256 0.658705 0.751352 -0.02249
C_ C_ 0.93641 0.656094 0.747229 -0.02249
C_ C_ 0.727303 0.540962 0.751411 -0.02249
C_ C_ 0.981866 0.537337 0.746078 -0.02249
C_ C_ 0.709425 0.605272 0.787389 -0.11473
C_ C_ 0.958852 0.597594 0.785177 -0.11473
C_ C_ 0.681448 0.633835 0.714507 -0.11473
C_ C_ 0.945573 0.63854 0.709398 -0.11473
C_ C_ 0.697121 0.644497 0.786526 -0.11473
C_ C_ 0.940914 0.633624 0.78521 -0.11473
C_ C_ 0.709488 0.580396 0.750247 -0.02249
C_ C_ 0.963802 0.577179 0.747374 -0.02249
C_ C_ 0.664816 0.698543 0.752122 0.6875
C_ C_ 0.915561 0.692501 0.745678 0.6875
C_ C_ 0.694765 0.594852 0.714233 -0.11473
C_ C_ 0.95702 0.598998 0.708765 -0.11473
C_ C_ 0.566953 0.6461 0.748535 -0.02249
C_ C_ 0.813427 0.656169 0.747875 -0.02249
C_ C_ 0.515627 0.536527 0.757191 -0.02249
C_ C_ 0.759052 0.542786 0.746824 -0.02249
C_ C_ 0.533005 0.597326 0.717285 -0.11473
C_ C_ 0.77468 0.612304 0.715326 -0.11473
C_ C_ 0.566228 0.621832 0.786673 -0.11473
C_ C_ 0.814967 0.628353 0.783141 -0.11473
C_ C_ 0.550226 0.632591 0.713604 -0.11473
C_ C_ 0.793091 0.648885 0.715273 -0.11473
C_ C_ 0.534203 0.573895 0.753638 -0.02249
C_ C_ 0.776854 0.583371 0.749157 -0.02249
C_ C_ 0.586561 0.685153 0.749649 0.6875
C_ C_ 0.835879 0.688964 0.745381 0.6875
C_ C_ 0.54925 0.587843 0.789504 -0.11473
C_ C_ 0.794737 0.594922 0.783196 -0.11473
C_ C_ 0.597829 0.751553 0.868757 0.17695
C_ C_ 0.875521 0.707877 0.87029 0.17695
C_ C_ 0.649591 0.756031 0.874138 0.17695
C_ C_ 0.875622 0.782025 0.876579 0.17695
C_ C_ 0.647389 0.755976 0.918183 -0.11473
C_ C_ 0.880253 0.777856 0.920544 -0.11473
C_ C_ 0.621793 0.741663 0.937423 0.23465
C_ C_ 0.880492 0.738634 0.939124 0.23465
C_ C_ 0.595832 0.742642 0.911975 -0.11473
C_ C_ 0.876719 0.702488 0.915363 -0.11473
C_ C_ 0.615682 0.70697 0.61686 0.17695
C_ C_ 0.872719 0.787346 0.618164 0.17695
C_ C_ 0.627587 0.778051 0.615641 0.17695
C_ C_ 0.874713 0.713279 0.625132 0.17695
C_ C_ 0.621062 0.778239 0.569953 -0.11473
C_ C_ 0.873367 0.708941 0.580539 -0.11473
C_ C_ 0.612979 0.742164 0.548949 0.23465
C_ C_ 0.870905 0.744632 0.554821 0.23465
C_ C_ 0.610044 0.705407 0.572302 -0.11473
C_ C_ 0.87314 0.784471 0.573582 -0.11473
C_ C_ 0.526074 -0.0005159999999999609 0.729994 0.05793
C_ C_ 0.778103 -0.0007160000000000499 0.759873 0.05793
C_ C_ 0.71267 0.500168 0.751252 0.05793
C_ C_ 0.966112 0.500537 0.742518 0.05793
Br Br 0.565387 -0.0023339999999999472 0.704918 -0.17191
Br Br 0.818717 0.994439 0.787862 -0.17191
Br Br 0.670686 0.494219 0.766915 -0.17191
Br Br 0.92654 0.50147 0.721851 -0.17191
N_ N_ 0.624875 0.755323 0.849225 -0.272
N_ N_ 0.874096 0.746455 0.852736 -0.272
N_ N_ 0.619093 0.735787 0.981087 -0.12501
N_ N_ 0.887634 0.735709 0.982298 -0.12501
N_ N_ 0.620995 0.742892 0.638338 -0.272
N_ N_ 0.870817 0.752351 0.642756 -0.272
N_ N_ 0.61018 0.741359 0.502915 -0.12501
N_ N_ 0.865386 0.739058 0.510973 -0.12501
O_ O_ 0.586525 0.79315 0.70646 -0.60745
O_ O_ 0.844511 0.795079 0.714741 -0.60745
O_ O_ 0.586531 0.791648 0.775644 -0.60745
O_ O_ 0.839704 0.789627 0.782313 -0.60745
O_ O_ 0.648107 0.800019 0.779885 -0.60745
O_ O_ 0.901289 0.798862 0.783947 -0.60745
O_ O_ 0.645539 0.802813 0.709958 -0.60745
O_ O_ 0.906611 0.789538 0.714821 -0.60745
O_ O_ 0.656068 0.71234 0.786784 -0.60745
O_ O_ 0.910798 0.710283 0.78096 -0.60745
O_ O_ 0.656906 0.717175 0.718861 -0.60745
O_ O_ 0.904282 0.705098 0.710736 -0.60745
O_ O_ 0.595055 0.700145 0.714191 -0.60745
O_ O_ 0.841874 0.706092 0.711215 -0.60745
O_ O_ 0.592698 0.705025 0.783194 -0.60745
O_ O_ 0.846143 0.705443 0.779764 -0.60745
_cell_length_a 44.444
_cell_length_b 32.3360000049186
_cell_length_c 31.843999878906452
_cell_angle_alpha 89.99799923859553
_cell_angle_beta 91.13600050494348
_cell_angle_gamma 89.9990006550086
_symmetry_space_group_name_H-M         'P 1'
_symmetry_Int_Tables_number            1
loop_
_symmetry_equiv_pos_as_xyz
   'x, y, z'
                         
loop_
_atom_site_label
_atom_site_type_symbol
_atom_site_fract_x 
_atom_site_fract_y
_atom_site_fract_z
_atom_site_charge
Zn Zn 0.128708 0.250213 0.284029 0.9476
Zn Zn 0.380325 0.250595 0.286425 0.9476
Zn Zn 0.1257 0.252546 0.216975 0.9476
Zn Zn 0.379495 0.252227 0.214222 0.9476
H_ H_ 0.02548 0.409525 0.191402 0.10932
H_ H_ 0.260223 0.3903 0.192184 0.10932
H_ H_ 0.0767671 0.359464 0.322628 0.10932
H_ H_ 0.332082 0.371371 0.31181 0.10932
H_ H_ 0.0518841 0.343757 0.192759 0.10932
H_ H_ 0.298312 0.329112 0.19293 0.10932
H_ H_ 0.055878 0.431997 0.318919 0.10932
H_ H_ 0.300067 0.435057 0.30552 0.10932
H_ H_ 0.224156 0.413771 0.313397 0.10932
H_ H_ 0.459977 0.429075 0.321501 0.10932
H_ H_ 0.165979 0.371709 0.187581 0.10932
H_ H_ 0.455459 0.342664 0.194657 0.10932
H_ H_ 0.197331 0.349076 0.31091 0.10932
H_ H_ 0.427374 0.365762 0.319044 0.10932
H_ H_ 0.192633 0.442755 0.189811 0.10932
H_ H_ 0.488296 0.402583 0.194248 0.10932
H_ H_ 0.239981 0.103794 0.316816 0.10932
H_ H_ 0.466258 0.0792731 0.313717 0.10932
H_ H_ 0.172004 0.12737 0.19106 0.10932
H_ H_ 0.430357 0.139884 0.180834 0.10932
H_ H_ 0.204659 0.162859 0.315695 0.10932
H_ H_ 0.436111 0.144423 0.315699 0.10932
H_ H_ 0.201246 0.0637152 0.197441 0.10932
H_ H_ 0.457234 0.0760779 0.179237 0.10932
H_ H_ 0.0261788 0.0901286 0.190337 0.10932
H_ H_ 0.275223 0.0966142 0.189667 0.10932
H_ H_ 0.0868068 0.130444 0.31316 0.10932
H_ H_ 0.333883 0.131869 0.313618 0.10932
H_ H_ 0.0458675 0.162897 0.195082 0.10932
H_ H_ 0.307208 0.157737 0.188734 0.10932
H_ H_ 0.0524556 0.0731197 0.317976 0.10932
H_ H_ 0.306404 0.0697524 0.314818 0.10932
H_ H_ 0.12529 0.316489 0.357206 0.10932
H_ H_ 0.360369 0.309877 0.361543 0.10932
H_ H_ 0.128218 0.188146 0.36325 0.10932
H_ H_ 0.391292 0.186839 0.358334 0.10932
H_ H_ 0.132693 0.1918 0.442429 0.10932
H_ H_ 0.402028 0.185497 0.435182 0.10932
H_ H_ 0.129374 0.322192 0.434166 0.10932
H_ H_ 0.371746 0.310652 0.437773 0.10932
H_ H_ 0.113139 0.30948 0.151293 0.10932
H_ H_ 0.382336 0.323407 0.138974 0.10932
H_ H_ 0.136347 0.18562 0.138587 0.10932
H_ H_ 0.373749 0.19238 0.135645 0.10932
H_ H_ 0.133088 0.190085 0.0604259 0.10932
H_ H_ 0.370703 0.19537 0.0559527 0.10932
H_ H_ 0.107599 0.321132 0.0760396 0.10932
H_ H_ 0.385767 0.326993 0.0644025 0.10932
C_ C_ 0.0698531 0.34869 0.255343 -0.02249
C_ C_ 0.317557 0.346697 0.252425 -0.02249
C_ C_ 0.0190632 0.462263 0.257551 -0.02249
C_ C_ 0.264823 0.461192 0.240908 -0.02249
C_ C_ 0.0364652 0.400059 0.219809 -0.11473
C_ C_ 0.277286 0.387232 0.217464 -0.11473
C_ C_ 0.0674715 0.371972 0.292652 -0.11473
C_ C_ 0.31714 0.374797 0.283745 -0.11473
C_ C_ 0.0537302 0.362687 0.219551 -0.11473
C_ C_ 0.29737 0.352628 0.218027 -0.11473
C_ C_ 0.0381517 0.425704 0.255891 -0.02249
C_ C_ 0.280429 0.419061 0.24668 -0.02249
C_ C_ 0.0870733 0.309423 0.255104 0.6875
C_ C_ 0.337408 0.30916 0.249631 0.6875
C_ C_ 0.0541379 0.41027 0.291831 -0.11473
C_ C_ 0.300226 0.411435 0.280567 -0.11473
C_ C_ 0.181692 0.352392 0.247821 -0.02249
C_ C_ 0.437241 0.351685 0.254377 -0.02249
C_ C_ 0.233336 0.464822 0.248036 -0.02249
C_ C_ 0.491293 0.463816 0.254785 -0.02249
C_ C_ 0.21458 0.402555 0.284027 -0.11473
C_ C_ 0.457324 0.412955 0.29211 -0.11473
C_ C_ 0.178712 0.380775 0.213685 -0.11473
C_ C_ 0.452377 0.364632 0.218509 -0.11473
C_ C_ 0.200882 0.363589 0.282691 -0.11473
C_ C_ 0.439771 0.375705 0.29151 -0.11473
C_ C_ 0.213349 0.427077 0.248451 -0.02249
C_ C_ 0.475579 0.423405 0.257859 -0.02249
C_ C_ 0.162423 0.315564 0.248467 0.6875
C_ C_ 0.417949 0.313014 0.25204 0.6875
C_ C_ 0.194693 0.417843 0.213176 -0.11473
C_ C_ 0.473565 0.396795 0.22189 -0.11473
C_ C_ 0.18559 0.150936 0.25434 -0.02249
C_ C_ 0.439582 0.154465 0.247258 -0.02249
C_ C_ 0.239564 0.0387748 0.263409 -0.02249
C_ C_ 0.487272 0.037415 0.246757 -0.02249
C_ C_ 0.223086 0.106333 0.292396 -0.11473
C_ C_ 0.460919 0.0953029 0.284731 -0.11473
C_ C_ 0.186941 0.123882 0.218955 -0.11473
C_ C_ 0.444968 0.134141 0.207737 -0.11473
C_ C_ 0.202085 0.140502 0.291951 -0.11473
C_ C_ 0.445178 0.132658 0.285335 -0.11473
C_ C_ 0.222973 0.078956 0.258457 -0.02249
C_ C_ 0.46987 0.0775354 0.246136 -0.02249
C_ C_ 0.165513 0.188912 0.25172 0.6875
C_ C_ 0.422272 0.193799 0.248769 0.6875
C_ C_ 0.20481 0.0869541 0.221578 -0.11473
C_ C_ 0.459243 0.0949812 0.20841 -0.11473
C_ C_ 0.0672499 0.153838 0.255147 -0.02249
C_ C_ 0.325608 0.147084 0.248561 -0.02249
C_ C_ 0.0174498 0.0376436 0.25589 -0.02249
C_ C_ 0.270304 0.0378889 0.252391 -0.02249
C_ C_ 0.0370747 0.101843 0.220076 -0.11473
C_ C_ 0.289119 0.102676 0.214984 -0.11473
C_ C_ 0.0682132 0.128417 0.290794 -0.11473
C_ C_ 0.32494 0.122092 0.284064 -0.11473
C_ C_ 0.0502623 0.140896 0.220094 -0.11473
C_ C_ 0.309152 0.136405 0.214016 -0.11473
C_ C_ 0.0347625 0.0786585 0.25574 -0.02249
C_ C_ 0.288331 0.0762017 0.250751 -0.02249
C_ C_ 0.0873447 0.191451 0.252461 0.6875
C_ C_ 0.343977 0.18744 0.248886 0.6875
C_ C_ 0.0523188 0.0909508 0.290745 -0.11473
C_ C_ 0.306108 0.087615 0.286109 -0.11473
C_ C_ 0.129228 0.290953 0.375411 0.17695
C_ C_ 0.37105 0.283707 0.377766 0.17695
C_ C_ 0.130057 0.216599 0.380024 0.17695
C_ C_ 0.386756 0.214161 0.377162 0.17695
C_ C_ 0.13192 0.218809 0.424413 -0.11473
C_ C_ 0.39249 0.213767 0.420384 -0.11473
C_ C_ 0.133101 0.257284 0.444798 0.23465
C_ C_ 0.385028 0.247988 0.445139 0.23465
C_ C_ 0.130031 0.292754 0.420122 -0.11473
C_ C_ 0.372004 0.282864 0.422628 -0.11473
C_ C_ 0.113229 0.283906 0.131136 0.17695
C_ C_ 0.379117 0.294696 0.122164 0.17695
C_ C_ 0.12878 0.214051 0.123031 0.17695
C_ C_ 0.374907 0.221868 0.11775 0.17695
C_ C_ 0.12739 0.217817 0.0800196 -0.11473
C_ C_ 0.37311 0.223536 0.0734582 -0.11473
C_ C_ 0.118491 0.256702 0.0606439 0.23465
C_ C_ 0.374242 0.261261 0.0537121 0.23465
C_ C_ 0.114245 0.290509 0.0878981 -0.11473
C_ C_ 0.378626 0.297433 0.0789566 -0.11473
C_ C_ 0.0327305 0.500412 0.246997 0.05793
C_ C_ 0.281648 0.497602 0.23776 0.05793
C_ C_ 0.223927 0.0016013 0.272673 0.05793
C_ C_ 0.472804 1.0000420105 0.249071 0.05793
Br Br 0.0766584 0.504652 0.234337 -0.17191
Br Br 0.322912 0.494779 0.218996 -0.17191
Br Br 0.184351 0.00646666 0.292383 -0.17191
Br Br 0.429369 0.996832 0.248629 -0.17191
N_ N_ 0.128686 0.253117 0.356086 -0.272
N_ N_ 0.383396 0.251099 0.356645 -0.272
N_ N_ 0.125024 0.260438 0.488914 -0.12501
N_ N_ 0.390894 0.248481 0.490361 -0.12501
N_ N_ 0.11928 0.246197 0.146784 -0.272
N_ N_ 0.37707 0.257882 0.141474 -0.272
N_ N_ 0.119544 0.26188 0.0164866 -0.12501
N_ N_ 0.370775 0.264791 0.00808916 -0.12501
O_ O_ 0.0929386 0.293002 0.21951 -0.60745
O_ O_ 0.347233 0.297518 0.21478 -0.60745
O_ O_ 0.0965752 0.293591 0.288168 -0.60745
O_ O_ 0.348938 0.29504 0.282045 -0.60745
O_ O_ 0.154679 0.299975 0.283097 -0.60745
O_ O_ 0.406598 0.299734 0.286966 -0.60745
O_ O_ 0.15459 0.297256 0.213883 -0.60745
O_ O_ 0.407827 0.300282 0.217102 -0.60745
O_ O_ 0.161146 0.209435 0.285133 -0.60745
O_ O_ 0.414259 0.208232 0.283084 -0.60745
O_ O_ 0.153468 0.202164 0.216881 -0.60745
O_ O_ 0.411329 0.208434 0.214279 -0.60745
O_ O_ 0.0914632 0.209988 0.217303 -0.60745
O_ O_ 0.348436 0.206524 0.21532 -0.60745
O_ O_ 0.0981867 0.206799 0.285152 -0.60745
O_ O_ 0.351017 0.202674 0.283074 -0.60745
Zn Zn 0.123839 0.244366 0.788141 0.9476
Zn Zn 0.370822 0.249968 0.783713 0.9476
Zn Zn 0.12342 0.246181 0.716008 0.9476
Zn Zn 0.369969 0.250015 0.716203 0.9476
H_ H_ 0.0479714 0.429856 0.687285 0.10932
H_ H_ 0.287 0.420343 0.688755 0.10932
H_ H_ 0.0507692 0.342858 0.815445 0.10932
H_ H_ 0.292677 0.338059 0.817005 0.10932
H_ H_ 0.0820346 0.370111 0.69286 0.10932
H_ H_ 0.313308 0.353513 0.690449 0.10932
H_ H_ 0.0142432 0.399023 0.81066 0.10932
H_ H_ 0.266073 0.399901 0.819561 0.10932
H_ H_ 0.19232 0.433552 0.816685 0.10932
H_ H_ 0.47784 0.399904 0.822223 0.10932
H_ H_ 0.190362 0.342284 0.688899 0.10932
H_ H_ 0.414432 0.377393 0.696459 0.10932
H_ H_ 0.15972 0.366959 0.813943 0.10932
H_ H_ 0.452948 0.335529 0.816077 0.10932
H_ H_ 0.216014 0.409885 0.688161 0.10932
H_ H_ 0.449758 0.434425 0.699522 0.10932
H_ H_ 0.213131 0.0733775 0.81624 0.10932
H_ H_ 0.474549 0.090501 0.816246 0.10932
H_ H_ 0.187437 0.146681 0.685448 0.10932
H_ H_ 0.443067 0.15276 0.686805 0.10932
H_ H_ 0.186229 0.140805 0.81972 0.10932
H_ H_ 0.445709 0.15409 0.815631 0.10932
H_ H_ 0.208064 0.0750751 0.682744 0.10932
H_ H_ 0.455691 0.0786127 0.685208 0.10932
H_ H_ 0.0281514 0.0814153 0.689323 0.10932
H_ H_ 0.271034 0.0880178 0.681957 0.10932
H_ H_ 0.0718219 0.137348 0.821475 0.10932
H_ H_ 0.33474 0.1227 0.803099 0.10932
H_ H_ 0.0518985 0.150217 0.68961 0.10932
H_ H_ 0.299237 0.154333 0.682507 0.10932
H_ H_ 0.033143 0.0831863 0.823933 0.10932
H_ H_ 0.296493 0.0684494 0.811442 0.10932
H_ H_ 0.117461 0.309266 0.86579 0.10932
H_ H_ 0.365958 0.309162 0.861316 0.10932
H_ H_ 0.119669 0.177764 0.85694 0.10932
H_ H_ 0.366301 0.178565 0.850186 0.10932
H_ H_ 0.118731 0.172314 0.935155 0.10932
H_ H_ 0.36141 0.169933 0.927281 0.10932
H_ H_ 0.118412 0.30354 0.944163 0.10932
H_ H_ 0.361781 0.302029 0.937806 0.10932
H_ H_ 0.143013 0.183583 0.644256 0.10932
H_ H_ 0.380466 0.190165 0.640081 0.10932
H_ H_ 0.107859 0.304968 0.641441 0.10932
H_ H_ 0.358652 0.316346 0.645817 0.10932
H_ H_ 0.111876 0.305327 0.563654 0.10932
H_ H_ 0.356677 0.316868 0.563437 0.10932
H_ H_ 0.15531 0.186499 0.570754 0.10932
H_ H_ 0.377694 0.188027 0.567015 0.10932
C_ C_ 0.0658549 0.349146 0.750939 -0.02249
C_ C_ 0.308363 0.339247 0.753759 -0.02249
C_ C_ 0.0122166 0.460669 0.751308 -0.02249
C_ C_ 0.262855 0.459219 0.754843 -0.02249
C_ C_ 0.0474281 0.411427 0.716834 -0.11473
C_ C_ 0.290395 0.402648 0.717287 -0.11473
C_ C_ 0.0508923 0.362179 0.787896 -0.11473
C_ C_ 0.294837 0.35526 0.791393 -0.11473
C_ C_ 0.0666907 0.376586 0.718866 -0.11473
C_ C_ 0.303573 0.364049 0.716313 -0.11473
C_ C_ 0.028764 0.420886 0.751001 -0.02249
C_ C_ 0.279128 0.417474 0.754795 -0.02249
C_ C_ 0.0844684 0.309508 0.750702 0.6875
C_ C_ 0.325563 0.301069 0.756373 0.6875
C_ C_ 0.0301099 0.394875 0.784767 -0.11473
C_ C_ 0.279392 0.393391 0.791883 -0.11473
C_ C_ 0.177828 0.346832 0.755903 -0.02249
C_ C_ 0.427829 0.35116 0.756091 -0.02249
C_ C_ 0.230533 0.458776 0.754821 -0.02249
C_ C_ 0.482005 0.464248 0.762906 -0.02249
C_ C_ 0.19429 0.410561 0.790873 -0.11473
C_ C_ 0.463444 0.396771 0.795669 -0.11473
C_ C_ 0.191674 0.361215 0.719614 -0.11473
C_ C_ 0.431157 0.377352 0.721976 -0.11473
C_ C_ 0.174733 0.373769 0.789496 -0.11473
C_ C_ 0.445855 0.359923 0.792414 -0.11473
C_ C_ 0.212252 0.419937 0.755391 -0.02249
C_ C_ 0.463674 0.425767 0.762219 -0.02249
C_ C_ 0.159144 0.307912 0.754215 0.6875
C_ C_ 0.406809 0.315426 0.754808 0.6875
C_ C_ 0.208171 0.398389 0.718987 -0.11473
C_ C_ 0.449512 0.412493 0.724649 -0.11473
C_ C_ 0.180796 0.146864 0.752703 -0.02249
C_ C_ 0.43157 0.153368 0.750229 -0.02249
C_ C_ 0.231216 0.0320861 0.747885 -0.02249
C_ C_ 0.481842 0.0384865 0.750757 -0.02249
C_ C_ 0.205258 0.0878315 0.786766 -0.11473
C_ C_ 0.462867 0.100323 0.786043 -0.11473
C_ C_ 0.188004 0.128271 0.713404 -0.11473
C_ C_ 0.43886 0.134172 0.713221 -0.11473
C_ C_ 0.189181 0.125954 0.788659 -0.11473
C_ C_ 0.444185 0.13608 0.787271 -0.11473
C_ C_ 0.212877 0.070632 0.748941 -0.02249
C_ C_ 0.464899 0.0783469 0.749431 -0.02249
C_ C_ 0.163964 0.188773 0.754969 0.6875
C_ C_ 0.416117 0.195942 0.748397 0.6875
C_ C_ 0.204409 0.090662 0.711755 -0.11473
C_ C_ 0.454396 0.0969976 0.712991 -0.11473
C_ C_ 0.0631553 0.151566 0.75346 -0.02249
C_ C_ 0.317341 0.144185 0.745079 -0.02249
C_ C_ 0.00980625 0.0364576 0.760094 -0.02249
C_ C_ 0.263302 0.0339481 0.748244 -0.02249
C_ C_ 0.0344887 0.0959497 0.718526 -0.11473
C_ C_ 0.281993 0.0985044 0.710922 -0.11473
C_ C_ 0.0573072 0.130846 0.793064 -0.11473
C_ C_ 0.317533 0.118516 0.779453 -0.11473
C_ C_ 0.0491078 0.134661 0.717699 -0.11473
C_ C_ 0.299308 0.133904 0.709892 -0.11473
C_ C_ 0.0270134 0.0775319 0.757231 -0.02249
C_ C_ 0.27926 0.0748417 0.747738 -0.02249
C_ C_ 0.0816952 0.19123 0.754206 0.6875
C_ C_ 0.334663 0.184892 0.747196 0.6875
C_ C_ 0.0382335 0.0962849 0.795552 -0.11473
C_ C_ 0.296666 0.0873012 0.783667 -0.11473
C_ C_ 0.120113 0.278299 0.882236 0.17695
C_ C_ 0.365316 0.278088 0.876211 0.17695
C_ C_ 0.118934 0.205234 0.87604 0.17695
C_ C_ 0.365892 0.205162 0.87135 0.17695
C_ C_ 0.119863 0.201076 0.920236 -0.11473
C_ C_ 0.365577 0.200849 0.915376 -0.11473
C_ C_ 0.122099 0.236267 0.946156 0.23465
C_ C_ 0.363638 0.237217 0.939864 0.23465
C_ C_ 0.123901 0.275006 0.926106 -0.11473
C_ C_ 0.364211 0.276018 0.91912 -0.11473
C_ C_ 0.13589 0.211122 0.627336 0.17695
C_ C_ 0.37866 0.219163 0.626194 0.17695
C_ C_ 0.115703 0.277553 0.62451 0.17695
C_ C_ 0.363466 0.288591 0.626371 0.17695
C_ C_ 0.118116 0.277698 0.579961 -0.11473
C_ C_ 0.362722 0.288825 0.581738 -0.11473
C_ C_ 0.134398 0.245948 0.560229 0.23465
C_ C_ 0.373542 0.255014 0.560591 0.23465
C_ C_ 0.142039 0.211029 0.584846 -0.11473
C_ C_ 0.379613 0.218063 0.583516 -0.11473
C_ C_ 0.0285134 0.499154 0.749948 0.05793
C_ C_ 0.278659 0.497483 0.758631 0.05793
C_ C_ 0.215758 -0.00622900000000004 0.751934 0.05793
C_ C_ 0.465386 1.00185595 0.755602 0.05793
Br Br 0.0729062 0.498051 0.759493 -0.17191
Br Br 0.321976 0.494428 0.758399 -0.17191
Br Br 0.173783 -0.007356000000000029 0.76448 -0.17191
Br Br 0.425091 1.00409634 0.773809 -0.17191
N_ N_ 0.121534 0.243494 0.858004 -0.272
N_ N_ 0.368094 0.244169 0.852863 -0.272
N_ N_ 0.119092 0.232634 0.992019 -0.12501
N_ N_ 0.364209 0.235658 0.984423 -0.12501
N_ N_ 0.127486 0.246147 0.646826 -0.272
N_ N_ 0.370306 0.252775 0.646425 -0.272
N_ N_ 0.141159 0.244173 0.516377 -0.12501
N_ N_ 0.369513 0.252918 0.515387 -0.12501
O_ O_ 0.0917375 0.291955 0.716369 -0.60745
O_ O_ 0.335113 0.285914 0.721109 -0.60745
O_ O_ 0.0972529 0.296343 0.78523 -0.60745
O_ O_ 0.336002 0.286761 0.789957 -0.60745
O_ O_ 0.155176 0.288246 0.788124 -0.60745
O_ O_ 0.397127 0.299985 0.788424 -0.60745
O_ O_ 0.15348 0.291332 0.718767 -0.60745
O_ O_ 0.39998 0.298282 0.71983 -0.60745
O_ O_ 0.152033 0.198112 0.788494 -0.60745
O_ O_ 0.406159 0.211816 0.782237 -0.60745
O_ O_ 0.157987 0.207687 0.721758 -0.60745
O_ O_ 0.406194 0.211783 0.715182 -0.60745
O_ O_ 0.0918077 0.203262 0.719079 -0.60745
O_ O_ 0.346683 0.197611 0.712994 -0.60745
O_ O_ 0.0922987 0.204716 0.787771 -0.60745
O_ O_ 0.342941 0.200915 0.781744 -0.60745
Zn Zn 0.128309 0.74937 0.291721 0.9476
Zn Zn 0.377451 0.748991 0.285564 0.9476
Zn Zn 0.12945 0.751313 0.223905 0.9476
Zn Zn 0.377544 0.74858 0.216902 0.9476
H_ H_ 0.0529948 0.929001 0.19292 0.10932
H_ H_ 0.272064 0.910231 0.193611 0.10932
H_ H_ 0.0522866 0.83934 0.315776 0.10932
H_ H_ 0.339856 0.862107 0.307208 0.10932
H_ H_ 0.0820842 0.864258 0.191312 0.10932
H_ H_ 0.303213 0.848971 0.180136 0.10932
H_ H_ 0.0275875 0.906937 0.317432 0.10932
H_ H_ 0.312173 0.931685 0.313716 0.10932
H_ H_ 0.230485 0.906373 0.33282 0.10932
H_ H_ 0.470498 0.920008 0.319346 0.10932
H_ H_ 0.175626 0.866766 0.201307 0.10932
H_ H_ 0.440123 0.852867 0.188006 0.10932
H_ H_ 0.197881 0.844093 0.332161 0.10932
H_ H_ 0.435609 0.858634 0.321301 0.10932
H_ H_ 0.209996 0.927781 0.203003 0.10932
H_ H_ 0.470176 0.917457 0.186422 0.10932
H_ H_ 0.237771 0.596992 0.315543 0.10932
H_ H_ 0.460869 0.574893 0.317073 0.10932
H_ H_ 0.175342 0.638684 0.190921 0.10932
H_ H_ 0.445758 0.650911 0.18525 0.10932
H_ H_ 0.207319 0.663808 0.317152 0.10932
H_ H_ 0.437147 0.644298 0.319792 0.10932
H_ H_ 0.200117 0.574193 0.191611 0.10932
H_ H_ 0.470357 0.586602 0.183753 0.10932
H_ H_ 0.0381671 0.580906 0.180823 0.10932
H_ H_ 0.277553 0.591602 0.175757 0.10932
H_ H_ 0.0583465 0.651425 0.315065 0.10932
H_ H_ 0.322878 0.634479 0.311697 0.10932
H_ H_ 0.06852 0.644536 0.179545 0.10932
H_ H_ 0.311757 0.651677 0.179753 0.10932
H_ H_ 0.0333968 0.590191 0.317276 0.10932
H_ H_ 0.297485 0.570942 0.306089 0.10932
H_ H_ 0.128925 0.815609 0.371588 0.10932
H_ H_ 0.327168 0.777798 0.356317 0.10932
H_ H_ 0.124469 0.68604 0.362989 0.10932
H_ H_ 0.416016 0.733998 0.361862 0.10932
H_ H_ 0.118065 0.682052 0.442744 0.10932
H_ H_ 0.417514 0.745245 0.437886 0.10932
H_ H_ 0.13708 0.8133 0.445242 0.10932
H_ H_ 0.323439 0.77801 0.434151 0.10932
H_ H_ 0.122767 0.683815 0.142138 0.10932
H_ H_ 0.380415 0.678786 0.147624 0.10932
H_ H_ 0.139412 0.812775 0.156317 0.10932
H_ H_ 0.36292 0.804722 0.135351 0.10932
H_ H_ 0.137345 0.822829 0.0757903 0.10932
H_ H_ 0.355991 0.796566 0.0600518 0.10932
H_ H_ 0.106492 0.697014 0.068354 0.10932
H_ H_ 0.384121 0.670902 0.0734759 0.10932
C_ C_ 0.0683994 0.845396 0.252193 -0.02249
C_ C_ 0.321156 0.847213 0.2462 -0.02249
C_ C_ 0.0193508 0.961403 0.256089 -0.02249
C_ C_ 0.270012 0.962378 0.261011 -0.02249
C_ C_ 0.0517875 0.90916 0.218843 -0.11473
C_ C_ 0.284761 0.89796 0.219864 -0.11473
C_ C_ 0.0524395 0.857162 0.288309 -0.11473
C_ C_ 0.324052 0.871626 0.282504 -0.11473
C_ C_ 0.0672609 0.870626 0.217914 -0.11473
C_ C_ 0.301781 0.861351 0.212826 -0.11473
C_ C_ 0.0371461 0.921481 0.254717 -0.02249
C_ C_ 0.285354 0.921233 0.256543 -0.02249
C_ C_ 0.0914734 0.8108 0.255079 0.6875
C_ C_ 0.336667 0.806353 0.246043 0.6875
C_ C_ 0.0379136 0.895773 0.288624 -0.11473
C_ C_ 0.306082 0.907741 0.287987 -0.11473
C_ C_ 0.189662 0.847106 0.263131 -0.02249
C_ C_ 0.433296 0.851608 0.254293 -0.02249
C_ C_ 0.239433 0.962944 0.270536 -0.02249
C_ C_ 0.489235 0.962739 0.252451 -0.02249
C_ C_ 0.218641 0.898906 0.30478 -0.11473
C_ C_ 0.465031 0.902167 0.291609 -0.11473
C_ C_ 0.191378 0.873414 0.228677 -0.11473
C_ C_ 0.441799 0.869114 0.216072 -0.11473
C_ C_ 0.201086 0.861253 0.303771 -0.11473
C_ C_ 0.442753 0.871 0.291873 -0.11473
C_ C_ 0.221061 0.924454 0.26947 -0.02249
C_ C_ 0.473147 0.921114 0.254008 -0.02249
C_ C_ 0.168466 0.810817 0.261928 0.6875
C_ C_ 0.415648 0.811472 0.253887 0.6875
C_ C_ 0.205792 0.912119 0.231721 -0.11473
C_ C_ 0.46097 0.904375 0.215699 -0.11473
C_ C_ 0.187532 0.651997 0.255527 -0.02249
C_ C_ 0.440522 0.654902 0.253016 -0.02249
C_ C_ 0.23677 0.538819 0.252432 -0.02249
C_ C_ 0.488356 0.538992 0.253431 -0.02249
C_ C_ 0.223225 0.605223 0.289514 -0.11473
C_ C_ 0.459594 0.592437 0.289527 -0.11473
C_ C_ 0.188149 0.629475 0.217962 -0.11473
C_ C_ 0.450848 0.637253 0.214604 -0.11473
C_ C_ 0.207393 0.642666 0.289685 -0.11473
C_ C_ 0.443005 0.630307 0.289414 -0.11473
C_ C_ 0.219888 0.578972 0.254642 -0.02249
C_ C_ 0.469989 0.576981 0.251378 -0.02249
C_ C_ 0.169021 0.690013 0.256851 0.6875
C_ C_ 0.419758 0.691829 0.252608 0.6875
C_ C_ 0.201558 0.591446 0.218892 -0.11473
C_ C_ 0.467354 0.601055 0.214172 -0.11473
C_ C_ 0.0652267 0.657038 0.247379 -0.02249
C_ C_ 0.320353 0.650109 0.246173 -0.02249
C_ C_ 0.0168547 0.539097 0.249482 -0.02249
C_ C_ 0.267304 0.536102 0.241762 -0.02249
C_ C_ 0.0431465 0.597396 0.211139 -0.11473
C_ C_ 0.288218 0.600436 0.206118 -0.11473
C_ C_ 0.0532456 0.640409 0.284847 -0.11473
C_ C_ 0.315398 0.625218 0.280596 -0.11473
C_ C_ 0.0598649 0.634626 0.211157 -0.11473
C_ C_ 0.305813 0.637503 0.208284 -0.11473
C_ C_ 0.0336315 0.579124 0.249588 -0.02249
C_ C_ 0.286167 0.574757 0.241587 -0.02249
C_ C_ 0.0877421 0.692391 0.252868 0.6875
C_ C_ 0.339085 0.687223 0.250618 0.6875
C_ C_ 0.0429408 0.597702 0.287214 -0.11473
C_ C_ 0.303499 0.585089 0.276542 -0.11473
C_ C_ 0.128869 0.786501 0.384578 0.17695
C_ C_ 0.346826 0.768331 0.37456 0.17695
C_ C_ 0.122629 0.713712 0.380456 0.17695
C_ C_ 0.397504 0.747547 0.378 0.17695
C_ C_ 0.12192 0.710794 0.425978 -0.11473
C_ C_ 0.398389 0.754779 0.420808 -0.11473
C_ C_ 0.124283 0.747215 0.44894 0.23465
C_ C_ 0.372114 0.766558 0.442116 0.23465
C_ C_ 0.129995 0.784374 0.428321 -0.11473
C_ C_ 0.345122 0.770554 0.418521 -0.11473
C_ C_ 0.123862 0.714755 0.129183 0.17695
C_ C_ 0.380356 0.705514 0.128618 0.17695
C_ C_ 0.134613 0.78632 0.134972 0.17695
C_ C_ 0.369496 0.776285 0.121423 0.17695
C_ C_ 0.137101 0.790782 0.0911237 -0.11473
C_ C_ 0.367616 0.772654 0.0777441 -0.11473
C_ C_ 0.127647 0.75814 0.065364 0.23465
C_ C_ 0.372519 0.73287 0.0573565 0.23465
C_ C_ 0.118323 0.720016 0.0859398 -0.11473
C_ C_ 0.376635 0.699553 0.0844843 -0.11473
C_ C_ 0.0337764 0.999255 0.252526 0.05793
C_ C_ 0.284796 0.998943 0.247229 0.05793
C_ C_ 0.220475 0.503049 0.259126 0.05793
C_ C_ 0.473887 0.500484 0.255677 0.05793
Br Br 0.0763601 0.00420815 0.248881 -0.17191
Br Br 0.321909 0.994632 0.219096 -0.17191
Br Br 0.185635 0.505019 0.292524 -0.17191
Br Br 0.43292 0.497597 0.235918 -0.17191
N_ N_ 0.126635 0.752286 0.361901 -0.272
N_ N_ 0.372238 0.755835 0.35542 -0.272
N_ N_ 0.130528 0.743832 0.494115 -0.12501
N_ N_ 0.372477 0.773534 0.486435 -0.12501
N_ N_ 0.130488 0.748619 0.152238 -0.272
N_ N_ 0.380155 0.743935 0.144272 -0.272
N_ N_ 0.119552 0.764876 0.0217391 -0.12501
N_ N_ 0.37687 0.727636 0.0118996 -0.12501
O_ O_ 0.0945811 0.788045 0.223705 -0.60745
O_ O_ 0.346475 0.791627 0.211658 -0.60745
O_ O_ 0.0981527 0.793974 0.289429 -0.60745
O_ O_ 0.34613 0.791726 0.280844 -0.60745
O_ O_ 0.15804 0.796312 0.295034 -0.60745
O_ O_ 0.406047 0.796215 0.288024 -0.60745
O_ O_ 0.157853 0.797887 0.227383 -0.60745
O_ O_ 0.407965 0.795086 0.219493 -0.60745
O_ O_ 0.159093 0.702227 0.292958 -0.60745
O_ O_ 0.408015 0.704988 0.285666 -0.60745
O_ O_ 0.160626 0.708245 0.223815 -0.60745
O_ O_ 0.40891 0.704563 0.218418 -0.60745
O_ O_ 0.101377 0.707072 0.221174 -0.60745
O_ O_ 0.348213 0.703879 0.216851 -0.60745
O_ O_ 0.0950975 0.705642 0.28929 -0.60745
O_ O_ 0.349387 0.70094 0.285436 -0.60745
Zn Zn 0.122323 0.750469 0.791038 0.9476
Zn Zn 0.37477 0.748571 0.784929 0.9476
Zn Zn 0.122862 0.748065 0.721126 0.9476
Zn Zn 0.375043 0.745144 0.716871 0.9476
H_ H_ 0.0156303 0.903839 0.691859 0.10932
H_ H_ 0.273481 0.904098 0.677936 0.10932
H_ H_ 0.067447 0.862065 0.82592 0.10932
H_ H_ 0.331322 0.864996 0.80538 0.10932
H_ H_ 0.0505333 0.845301 0.692451 0.10932
H_ H_ 0.303193 0.841932 0.678842 0.10932
H_ H_ 0.0381302 0.927572 0.821469 0.10932
H_ H_ 0.298643 0.927462 0.807414 0.10932
H_ H_ 0.221836 0.907209 0.81928 0.10932
H_ H_ 0.469858 0.917519 0.815104 0.10932
H_ H_ 0.18145 0.850904 0.687269 0.10932
H_ H_ 0.412894 0.861466 0.694241 0.10932
H_ H_ 0.188186 0.852312 0.822654 0.10932
H_ H_ 0.448115 0.847554 0.820447 0.10932
H_ H_ 0.205814 0.912396 0.686134 0.10932
H_ H_ 0.436169 0.930017 0.692258 0.10932
H_ H_ 0.216475 0.587124 0.82032 0.10932
H_ H_ 0.463718 0.582766 0.827087 0.10932
H_ H_ 0.183489 0.645355 0.686725 0.10932
H_ H_ 0.439128 0.646579 0.691793 0.10932
H_ H_ 0.18172 0.645761 0.820031 0.10932
H_ H_ 0.432974 0.644984 0.824632 0.10932
H_ H_ 0.218335 0.582951 0.687538 0.10932
H_ H_ 0.466019 0.58108 0.694846 0.10932
H_ H_ 0.0303607 0.5841 0.684798 0.10932
H_ H_ 0.280956 0.577171 0.685131 0.10932
H_ H_ 0.0702672 0.633545 0.818139 0.10932
H_ H_ 0.32049 0.637427 0.820255 0.10932
H_ H_ 0.0576095 0.650261 0.68634 0.10932
H_ H_ 0.3195 0.63336 0.68047 0.10932
H_ H_ 0.0403067 0.573371 0.817666 0.10932
H_ H_ 0.287141 0.57828 0.817667 0.10932
H_ H_ 0.116318 0.813689 0.869395 0.10932
H_ H_ 0.367873 0.817207 0.85945 0.10932
H_ H_ 0.127262 0.687737 0.862642 0.10932
H_ H_ 0.38374 0.683068 0.859714 0.10932
H_ H_ 0.126796 0.67896 0.935943 0.10932
H_ H_ 0.384055 0.68809 0.938581 0.10932
H_ H_ 0.11663 0.80998 0.948336 0.10932
H_ H_ 0.365848 0.817677 0.934812 0.10932
H_ H_ 0.165245 0.766374 0.645859 0.10932
H_ H_ 0.362077 0.685835 0.643869 0.10932
H_ H_ 0.074208 0.740484 0.648917 0.10932
H_ H_ 0.386906 0.812369 0.64538 0.10932
H_ H_ 0.070898 0.748601 0.569329 0.10932
H_ H_ 0.389699 0.816688 0.569202 0.10932
H_ H_ 0.161862 0.783299 0.569864 0.10932
H_ H_ 0.356982 0.688702 0.56392 0.10932
C_ C_ 0.0613635 0.84796 0.758869 -0.02249
C_ C_ 0.317283 0.846968 0.745926 -0.02249
C_ C_ 0.010222 0.961054 0.754362 -0.02249
C_ C_ 0.264059 0.957818 0.745706 -0.02249
C_ C_ 0.0287116 0.896016 0.719448 -0.11473
C_ C_ 0.284471 0.895812 0.706129 -0.11473
C_ C_ 0.0587402 0.872329 0.795122 -0.11473
C_ C_ 0.315473 0.871631 0.78022 -0.11473
C_ C_ 0.0463089 0.860285 0.72125 -0.11473
C_ C_ 0.30262 0.860497 0.707827 -0.11473
C_ C_ 0.0272426 0.921554 0.755492 -0.02249
C_ C_ 0.282583 0.918811 0.743 -0.02249
C_ C_ 0.0790442 0.807843 0.758715 0.6875
C_ C_ 0.336659 0.808535 0.747393 0.6875
C_ C_ 0.0408252 0.907745 0.794234 -0.11473
C_ C_ 0.296505 0.905191 0.780619 -0.11473
C_ C_ 0.182789 0.843839 0.756154 -0.02249
C_ C_ 0.42967 0.847795 0.754854 -0.02249
C_ C_ 0.232834 0.956982 0.749869 -0.02249
C_ C_ 0.480373 0.963542 0.748095 -0.02249
C_ C_ 0.211114 0.897704 0.791044 -0.11473
C_ C_ 0.461382 0.901606 0.7872 -0.11473
C_ C_ 0.19065 0.86123 0.717762 -0.11473
C_ C_ 0.425899 0.872377 0.720905 -0.11473
C_ C_ 0.193492 0.86337 0.792339 -0.11473
C_ C_ 0.445853 0.863885 0.79057 -0.11473
C_ C_ 0.216759 0.916718 0.751138 -0.02249
C_ C_ 0.461132 0.925347 0.751748 -0.02249
C_ C_ 0.162601 0.80625 0.75742 0.6875
C_ C_ 0.413067 0.808262 0.755729 0.6875
C_ C_ 0.205385 0.898466 0.714917 -0.11473
C_ C_ 0.442231 0.911131 0.717259 -0.11473
C_ C_ 0.179994 0.648962 0.753301 -0.02249
C_ C_ 0.431479 0.649555 0.756557 -0.02249
C_ C_ 0.231384 0.535315 0.75611 -0.02249
C_ C_ 0.483591 0.53893 0.757742 -0.02249
C_ C_ 0.209539 0.598517 0.789412 -0.11473
C_ C_ 0.458663 0.59567 0.79623 -0.11473
C_ C_ 0.189476 0.630703 0.715077 -0.11473
C_ C_ 0.444253 0.632873 0.72019 -0.11473
C_ C_ 0.190074 0.632903 0.790543 -0.11473
C_ C_ 0.440346 0.63127 0.795706 -0.11473
C_ C_ 0.214774 0.575405 0.752935 -0.02249
C_ C_ 0.470722 0.581093 0.760924 -0.02249
C_ C_ 0.159292 0.686905 0.754309 0.6875
C_ C_ 0.412835 0.687625 0.754588 0.6875
C_ C_ 0.209519 0.59617 0.716315 -0.11473
C_ C_ 0.461662 0.597648 0.723059 -0.11473
C_ C_ 0.0658404 0.64777 0.752701 -0.02249
C_ C_ 0.320674 0.643858 0.750849 -0.02249
C_ C_ 0.013953 0.537182 0.750131 -0.02249
C_ C_ 0.263352 0.535443 0.755868 -0.02249
C_ C_ 0.0349463 0.599843 0.714555 -0.11473
C_ C_ 0.292588 0.586731 0.713563 -0.11473
C_ C_ 0.0577762 0.626916 0.791339 -0.11473
C_ C_ 0.31078 0.62857 0.788836 -0.11473
C_ C_ 0.0522074 0.636105 0.715838 -0.11473
C_ C_ 0.311597 0.621729 0.711962 -0.11473
C_ C_ 0.0311386 0.576761 0.751911 -0.02249
C_ C_ 0.281155 0.574599 0.751923 -0.02249
C_ C_ 0.084698 0.685311 0.753992 0.6875
C_ C_ 0.338595 0.683044 0.748435 0.6875
C_ C_ 0.0436141 0.58995 0.790296 -0.11473
C_ C_ 0.292238 0.593712 0.788879 -0.11473
C_ C_ 0.116907 0.785324 0.8864 0.17695
C_ C_ 0.371417 0.78734 0.875867 0.17695
C_ C_ 0.124435 0.71356 0.881079 0.17695
C_ C_ 0.380886 0.713201 0.876955 0.17695
C_ C_ 0.126249 0.710357 0.923986 -0.11473
C_ C_ 0.382225 0.715862 0.921805 -0.11473
C_ C_ 0.12224 0.743737 0.950927 0.23465
C_ C_ 0.373438 0.752202 0.942278 0.23465
C_ C_ 0.115716 0.782203 0.931413 -0.11473
C_ C_ 0.370274 0.788183 0.918414 -0.11473
C_ C_ 0.144975 0.759366 0.629152 0.17695
C_ C_ 0.366981 0.714094 0.625443 0.17695
C_ C_ 0.0940777 0.742914 0.630982 0.17695
C_ C_ 0.384269 0.784395 0.628009 0.17695
C_ C_ 0.0917629 0.746756 0.586343 -0.11473
C_ C_ 0.384473 0.78585 0.583382 -0.11473
C_ C_ 0.117317 0.758151 0.563481 0.23465
C_ C_ 0.377437 0.750606 0.558611 0.23465
C_ C_ 0.143681 0.765983 0.585794 -0.11473
C_ C_ 0.367568 0.714147 0.580902 -0.11473
C_ C_ 0.0261343 -0.0007719999999999949 0.753391 0.05793
C_ C_ 0.278697 -0.0034330000000000194 0.742789 0.05793
C_ C_ 0.215133 0.497768 0.754291 0.05793
C_ C_ 0.467292 0.503337 0.766806 0.05793
Br Br 0.0686998 -0.0003830000000000222 0.745438 -0.17191
Br Br 0.322046 -0.004149999999999987 0.737097 -0.17191
Br Br 0.172103 0.497942 0.74931 -0.17191
Br Br 0.427382 0.509117 0.791677 -0.17191
N_ N_ 0.119784 0.751006 0.862501 -0.272
N_ N_ 0.376642 0.749034 0.855847 -0.272
N_ N_ 0.1241 0.737266 0.995317 -0.12501
N_ N_ 0.366815 0.753819 0.98605 -0.12501
N_ N_ 0.120079 0.750915 0.651589 -0.272
N_ N_ 0.376105 0.748549 0.645892 -0.272
N_ N_ 0.11576 0.764061 0.518577 -0.12501
N_ N_ 0.381921 0.747851 0.513218 -0.12501
O_ O_ 0.091733 0.794127 0.726024 -0.60745
O_ O_ 0.346256 0.790744 0.714665 -0.60745
O_ O_ 0.091559 0.79785 0.792986 -0.60745
O_ O_ 0.341832 0.791439 0.78125 -0.60745
O_ O_ 0.154216 0.79353 0.793348 -0.60745
O_ O_ 0.402742 0.796381 0.790806 -0.60745
O_ O_ 0.156013 0.7874 0.724212 -0.60745
O_ O_ 0.406825 0.788405 0.7213 -0.60745
O_ O_ 0.152872 0.704271 0.789529 -0.60745
O_ O_ 0.409008 0.708475 0.78729 -0.60745
O_ O_ 0.150777 0.703441 0.720192 -0.60745
O_ O_ 0.404255 0.704282 0.718548 -0.60745
O_ O_ 0.0917124 0.702987 0.721181 -0.60745
O_ O_ 0.34435 0.699845 0.712761 -0.60745
O_ O_ 0.0906879 0.703075 0.788958 -0.60745
O_ O_ 0.343309 0.703089 0.782464 -0.60745
Zn Zn 0.628323 0.249287 0.27777 0.9476
Zn Zn 0.875248 0.254212 0.286534 0.9476
Zn Zn 0.625408 0.250094 0.205949 0.9476
Zn Zn 0.877242 0.248443 0.215374 0.9476
H_ H_ 0.54865 0.433188 0.186703 0.10932
H_ H_ 0.784652 0.410817 0.169695 0.10932
H_ H_ 0.564937 0.34855 0.314815 0.10932
H_ H_ 0.816758 0.36386 0.309035 0.10932
H_ H_ 0.576854 0.368396 0.183775 0.10932
H_ H_ 0.812961 0.346669 0.176495 0.10932
H_ H_ 0.534812 0.411867 0.3213 0.10932
H_ H_ 0.793665 0.42807 0.302077 0.10932
H_ H_ 0.726458 0.410177 0.313364 0.10932
H_ H_ 0.979206 0.411085 0.326379 0.10932
H_ H_ 0.684778 0.356878 0.182649 0.10932
H_ H_ 0.930609 0.362682 0.193597 0.10932
H_ H_ 0.702467 0.34188 0.314314 0.10932
H_ H_ 0.948755 0.349235 0.32628 0.10932
H_ H_ 0.702867 0.430366 0.186208 0.10932
H_ H_ 0.957047 0.428728 0.195442 0.10932
H_ H_ 0.71944 0.086303 0.311091 0.10932
H_ H_ 0.965755 0.0827623 0.322952 0.10932
H_ H_ 0.683702 0.138399 0.173318 0.10932
H_ H_ 0.93521 0.141931 0.184914 0.10932
H_ H_ 0.696398 0.155244 0.304961 0.10932
H_ H_ 0.937537 0.151898 0.320505 0.10932
H_ H_ 0.717016 0.0788198 0.178674 0.10932
H_ H_ 0.963168 0.0741224 0.187443 0.10932
H_ H_ 0.549129 0.0680906 0.181888 0.10932
H_ H_ 0.776745 0.0848817 0.179561 0.10932
H_ H_ 0.556221 0.163497 0.30385 0.10932
H_ H_ 0.824479 0.139782 0.310092 0.10932
H_ H_ 0.580956 0.128998 0.179816 0.10932
H_ H_ 0.809224 0.14684 0.177712 0.10932
H_ H_ 0.528768 0.0973524 0.307864 0.10932
H_ H_ 0.790292 0.0772975 0.308151 0.10932
H_ H_ 0.663743 0.198182 0.35356 0.10932
H_ H_ 0.857902 0.187571 0.351869 0.10932
H_ H_ 0.608055 0.303622 0.349338 0.10932
H_ H_ 0.895431 0.305511 0.370762 0.10932
H_ H_ 0.603497 0.30057 0.431381 0.10932
H_ H_ 0.897342 0.297445 0.44826 0.10932
H_ H_ 0.654478 0.186183 0.42511 0.10932
H_ H_ 0.850505 0.180038 0.431174 0.10932
H_ H_ 0.629867 0.185996 0.128914 0.10932
H_ H_ 0.835761 0.248391 0.129933 0.10932
H_ H_ 0.622099 0.31811 0.136257 0.10932
H_ H_ 0.930696 0.259592 0.145223 0.10932
H_ H_ 0.626838 0.323325 0.0569832 0.10932
H_ H_ 0.933605 0.272568 0.0664961 0.10932
H_ H_ 0.630783 0.189067 0.0525132 0.10932
H_ H_ 0.840187 0.241512 0.0572214 0.10932
C_ C_ 0.570212 0.350784 0.248185 -0.02249
C_ C_ 0.816878 0.348732 0.243626 -0.02249
C_ C_ 0.523399 0.467051 0.254961 -0.02249
C_ C_ 0.766981 0.464095 0.232593 -0.02249
C_ C_ 0.55051 0.413341 0.216226 -0.11473
C_ C_ 0.790155 0.399348 0.200929 -0.11473
C_ C_ 0.559989 0.366012 0.288023 -0.11473
C_ C_ 0.81137 0.373957 0.279539 -0.11473
C_ C_ 0.565929 0.37576 0.213377 -0.11473
C_ C_ 0.806359 0.362696 0.204813 -0.11473
C_ C_ 0.539428 0.427539 0.254069 -0.02249
C_ C_ 0.783258 0.422979 0.235265 -0.02249
C_ C_ 0.590284 0.313148 0.245594 0.6875
C_ C_ 0.835396 0.309346 0.246759 0.6875
C_ C_ 0.542183 0.402382 0.291046 -0.11473
C_ C_ 0.795588 0.40995 0.27488 -0.11473
C_ C_ 0.687913 0.346415 0.249638 -0.02249
C_ C_ 0.935635 0.349894 0.259118 -0.02249
C_ C_ 0.736195 0.464769 0.244379 -0.02249
C_ C_ 0.988275 0.461686 0.26208 -0.02249
C_ C_ 0.717428 0.398321 0.284316 -0.11473
C_ C_ 0.968463 0.399276 0.297467 -0.11473
C_ C_ 0.691138 0.369099 0.211496 -0.11473
C_ C_ 0.94143 0.372026 0.221673 -0.11473
C_ C_ 0.701101 0.360281 0.285346 -0.11473
C_ C_ 0.949244 0.366808 0.297834 -0.11473
C_ C_ 0.71821 0.424963 0.248647 -0.02249
C_ C_ 0.970943 0.422161 0.259881 -0.02249
C_ C_ 0.668026 0.309445 0.24845 0.6875
C_ C_ 0.916472 0.310001 0.258732 0.6875
C_ C_ 0.704465 0.409551 0.213152 -0.11473
C_ C_ 0.957924 0.40782 0.221816 -0.11473
C_ C_ 0.687363 0.152109 0.239064 -0.02249
C_ C_ 0.934101 0.150433 0.252975 -0.02249
C_ C_ 0.737031 0.0381777 0.242732 -0.02249
C_ C_ 0.985393 0.0355531 0.259841 -0.02249
C_ C_ 0.715017 0.102067 0.28035 -0.11473
C_ C_ 0.957204 0.0955588 0.292812 -0.11473
C_ C_ 0.694111 0.13063 0.202954 -0.11473
C_ C_ 0.941546 0.128476 0.215286 -0.11473
C_ C_ 0.70186 0.141235 0.277185 -0.11473
C_ C_ 0.940597 0.132772 0.290717 -0.11473
C_ C_ 0.721672 0.0792688 0.243437 -0.02249
C_ C_ 0.967291 0.0761545 0.256016 -0.02249
C_ C_ 0.664042 0.184997 0.237968 0.6875
C_ C_ 0.916062 0.189443 0.250711 0.6875
C_ C_ 0.713065 0.0965213 0.205745 -0.11473
C_ C_ 0.958958 0.0922104 0.216348 -0.11473
C_ C_ 0.570131 0.151223 0.240822 -0.02249
C_ C_ 0.821515 0.147749 0.244474 -0.02249
C_ C_ 0.519529 0.0395614 0.251652 -0.02249
C_ C_ 0.768459 0.0346265 0.244064 -0.02249
C_ C_ 0.552031 0.0868032 0.209877 -0.11473
C_ C_ 0.789204 0.0960288 0.207709 -0.11473
C_ C_ 0.554219 0.142092 0.277833 -0.11473
C_ C_ 0.816455 0.1254 0.281804 -0.11473
C_ C_ 0.56881 0.12328 0.207409 -0.11473
C_ C_ 0.80684 0.13288 0.207864 -0.11473
C_ C_ 0.535257 0.0793681 0.244666 -0.02249
C_ C_ 0.787193 0.0724524 0.244105 -0.02249
C_ C_ 0.588277 0.189342 0.238386 0.6875
C_ C_ 0.839874 0.188514 0.245615 0.6875
C_ C_ 0.536895 0.106646 0.278865 -0.11473
C_ C_ 0.800394 0.0873525 0.28065 -0.11473
C_ C_ 0.647065 0.217433 0.367886 0.17695
C_ C_ 0.861551 0.215737 0.373486 0.17695
C_ C_ 0.61717 0.280052 0.369934 0.17695
C_ C_ 0.885786 0.279255 0.382719 0.17695
C_ C_ 0.613419 0.274704 0.413731 -0.11473
C_ C_ 0.886443 0.274075 0.426872 -0.11473
C_ C_ 0.627385 0.24017 0.434712 0.23465
C_ C_ 0.870572 0.241586 0.444308 0.23465
C_ C_ 0.64268 0.210018 0.410958 -0.11473
C_ C_ 0.859254 0.20985 0.417266 -0.11473
C_ C_ 0.62756 0.215711 0.113203 0.17695
C_ C_ 0.858214 0.248176 0.118134 0.17695
C_ C_ 0.628816 0.290066 0.116516 0.17695
C_ C_ 0.909581 0.263119 0.126562 0.17695
C_ C_ 0.626934 0.293387 0.073044 -0.11473
C_ C_ 0.91177 0.270383 0.0815828 -0.11473
C_ C_ 0.628444 0.256506 0.0487382 0.23465
C_ C_ 0.885851 0.263442 0.0559406 0.23465
C_ C_ 0.630986 0.217701 0.0693752 -0.11473
C_ C_ 0.860755 0.247755 0.0743089 -0.11473
C_ C_ 0.537419 0.506743 0.257988 0.05793
C_ C_ 0.78327 0.501142 0.22741 0.05793
C_ C_ 0.720566 1.000599612 0.245005 0.05793
C_ C_ 0.970993 0.996462 0.258431 0.05793
Br Br 0.581318 0.510421 0.262624 -0.17191
Br Br 0.826689 0.499283 0.225725 -0.17191
Br Br 0.676975 0.00293447 0.243466 -0.17191
Br Br 0.927957 -0.0013929999999999776 0.255447 -0.17191
N_ N_ 0.632351 0.249978 0.347495 -0.272
N_ N_ 0.872812 0.250769 0.357489 -0.272
N_ N_ 0.624976 0.234932 0.478236 -0.12501
N_ N_ 0.872652 0.23269 0.487799 -0.12501
N_ N_ 0.627885 0.251659 0.135098 -0.272
N_ N_ 0.882512 0.252064 0.143347 -0.272
N_ N_ 0.621009 0.258838 0.00447396 -0.12501
N_ N_ 0.885377 0.271334 0.0116206 -0.12501
O_ O_ 0.594188 0.29565 0.212091 -0.60745
O_ O_ 0.843319 0.288985 0.214702 -0.60745
O_ O_ 0.599345 0.295845 0.279461 -0.60745
O_ O_ 0.843327 0.29642 0.283469 -0.60745
O_ O_ 0.661692 0.289901 0.283094 -0.60745
O_ O_ 0.907674 0.294073 0.293513 -0.60745
O_ O_ 0.65693 0.296903 0.21289 -0.60745
O_ O_ 0.905882 0.297348 0.223506 -0.60745
O_ O_ 0.656338 0.200461 0.272509 -0.60745
O_ O_ 0.904128 0.203794 0.283694 -0.60745
O_ O_ 0.655375 0.203788 0.204354 -0.60745
O_ O_ 0.910715 0.20829 0.216667 -0.60745
O_ O_ 0.598912 0.201719 0.204557 -0.60745
O_ O_ 0.84804 0.202797 0.211204 -0.60745
O_ O_ 0.595373 0.20806 0.271864 -0.60745
O_ O_ 0.842377 0.210356 0.279098 -0.60745
Zn Zn 0.62226 0.249776 0.778621 0.9476
Zn Zn 0.868717 0.253024 0.784717 0.9476
Zn Zn 0.621019 0.254451 0.707987 0.9476
Zn Zn 0.870008 0.250004 0.716828 0.9476
H_ H_ 0.520352 0.417476 0.691339 0.10932
H_ H_ 0.788552 0.428001 0.685023 0.10932
H_ H_ 0.572139 0.354882 0.814224 0.10932
H_ H_ 0.805984 0.352795 0.819499 0.10932
H_ H_ 0.547512 0.351036 0.681233 0.10932
H_ H_ 0.816596 0.364835 0.683977 0.10932
H_ H_ 0.543496 0.421685 0.820229 0.10932
H_ H_ 0.778291 0.419517 0.817433 0.10932
H_ H_ 0.715132 0.412428 0.815231 0.10932
H_ H_ 0.950693 0.429073 0.810498 0.10932
H_ H_ 0.677125 0.362504 0.684442 0.10932
H_ H_ 0.942953 0.340445 0.683397 0.10932
H_ H_ 0.691491 0.347748 0.813837 0.10932
H_ H_ 0.922543 0.368373 0.81492 0.10932
H_ H_ 0.714962 0.418524 0.682807 0.10932
H_ H_ 0.971244 0.402808 0.682472 0.10932
H_ H_ 0.707368 0.0771389 0.80239 0.10932
H_ H_ 0.952901 0.0814896 0.823749 0.10932
H_ H_ 0.689674 0.154996 0.670039 0.10932
H_ H_ 0.928714 0.142044 0.685088 0.10932
H_ H_ 0.67678 0.140617 0.806624 0.10932
H_ H_ 0.930558 0.156695 0.816679 0.10932
H_ H_ 0.720606 0.0940513 0.672959 0.10932
H_ H_ 0.960156 0.0808512 0.689716 0.10932
H_ H_ 0.520489 0.0933484 0.664422 0.10932
H_ H_ 0.788919 0.076653 0.683778 0.10932
H_ H_ 0.568051 0.139332 0.801518 0.10932
H_ H_ 0.806953 0.154275 0.816948 0.10932
H_ H_ 0.556116 0.157 0.666582 0.10932
H_ H_ 0.824883 0.135319 0.687521 0.10932
H_ H_ 0.533399 0.0798352 0.797679 0.10932
H_ H_ 0.779923 0.0814846 0.815678 0.10932
H_ H_ 0.625081 0.317637 0.858089 0.10932
H_ H_ 0.873338 0.185457 0.858083 0.10932
H_ H_ 0.626989 0.187379 0.8433 0.10932
H_ H_ 0.873236 0.31927 0.864313 0.10932
H_ H_ 0.642149 0.180309 0.917183 0.10932
H_ H_ 0.886976 0.312614 0.938311 0.10932
H_ H_ 0.620673 0.3101 0.937323 0.10932
H_ H_ 0.866843 0.182021 0.932567 0.10932
H_ H_ 0.621711 0.193359 0.628406 0.10932
H_ H_ 0.918463 0.242757 0.642765 0.10932
H_ H_ 0.615352 0.325184 0.636096 0.10932
H_ H_ 0.825814 0.275007 0.646325 0.10932
H_ H_ 0.615528 0.32855 0.555899 0.10932
H_ H_ 0.821218 0.270542 0.566449 0.10932
H_ H_ 0.627697 0.194979 0.554107 0.10932
H_ H_ 0.915569 0.255968 0.566144 0.10932
C_ C_ 0.56155 0.347009 0.748664 -0.02249
C_ C_ 0.813435 0.35233 0.750962 -0.02249
C_ C_ 0.512951 0.460162 0.758807 -0.02249
C_ C_ 0.761401 0.465938 0.746687 -0.02249
C_ C_ 0.528077 0.399896 0.71711 -0.11473
C_ C_ 0.7891 0.410291 0.713036 -0.11473
C_ C_ 0.558006 0.366199 0.788228 -0.11473
C_ C_ 0.800566 0.368026 0.788813 -0.11473
C_ C_ 0.547921 0.365829 0.713089 -0.11473
C_ C_ 0.808777 0.377325 0.712824 -0.11473
C_ C_ 0.526931 0.418796 0.756548 -0.02249
C_ C_ 0.779753 0.428434 0.748943 -0.02249
C_ C_ 0.580373 0.309714 0.744154 0.6875
C_ C_ 0.832237 0.313088 0.753136 0.6875
C_ C_ 0.54141 0.404052 0.792145 -0.11473
C_ C_ 0.784476 0.407071 0.787672 -0.11473
C_ C_ 0.680758 0.346613 0.748984 -0.02249
C_ C_ 0.934293 0.343355 0.751683 -0.02249
C_ C_ 0.730205 0.463839 0.750324 -0.02249
C_ C_ 0.981446 0.461557 0.745213 -0.02249
C_ C_ 0.7096 0.399587 0.785785 -0.11473
C_ C_ 0.9484 0.409305 0.783047 -0.11473
C_ C_ 0.687948 0.369534 0.712207 -0.11473
C_ C_ 0.946657 0.356449 0.713894 -0.11473
C_ C_ 0.691547 0.364184 0.786529 -0.11473
C_ C_ 0.934944 0.372051 0.786041 -0.11473
C_ C_ 0.714896 0.422844 0.749656 -0.02249
C_ C_ 0.963354 0.422658 0.747078 -0.02249
C_ C_ 0.660643 0.310749 0.746101 0.6875
C_ C_ 0.911221 0.309292 0.752102 0.6875
C_ C_ 0.705714 0.405861 0.712046 -0.11473
C_ C_ 0.96138 0.394339 0.712212 -0.11473
C_ C_ 0.678529 0.152179 0.740448 -0.02249
C_ C_ 0.928125 0.153331 0.752426 -0.02249
C_ C_ 0.732886 0.039617 0.736877 -0.02249
C_ C_ 0.978813 0.0377425 0.760266 -0.02249
C_ C_ 0.702214 0.0948627 0.774632 -0.11473
C_ C_ 0.952483 0.100437 0.794541 -0.11473
C_ C_ 0.692401 0.137702 0.700826 -0.11473
C_ C_ 0.937586 0.133262 0.716469 -0.11473
C_ C_ 0.685854 0.130968 0.778047 -0.11473
C_ C_ 0.937078 0.138674 0.791388 -0.11473
C_ C_ 0.714593 0.0791878 0.737751 -0.02249
C_ C_ 0.961856 0.0790314 0.757906 -0.02249
C_ C_ 0.658512 0.190107 0.740794 0.6875
C_ C_ 0.909705 0.19118 0.748848 0.6875
C_ C_ 0.710399 0.102376 0.701022 -0.11473
C_ C_ 0.954004 0.0970034 0.718862 -0.11473
C_ C_ 0.56286 0.152367 0.733766 -0.02249
C_ C_ 0.819895 0.145997 0.752464 -0.02249
C_ C_ 0.51107 0.0375735 0.733083 -0.02249
C_ C_ 0.763608 0.0381369 0.748857 -0.02249
C_ C_ 0.534836 0.0987951 0.693749 -0.11473
C_ C_ 0.795028 0.0913376 0.714418 -0.11473
C_ C_ 0.555833 0.131318 0.771183 -0.11473
C_ C_ 0.805762 0.132902 0.788241 -0.11473
C_ C_ 0.553457 0.135887 0.695229 -0.11473
C_ C_ 0.813475 0.125705 0.715623 -0.11473
C_ C_ 0.529234 0.0764103 0.729871 -0.02249
C_ C_ 0.781307 0.0765656 0.750728 -0.02249
C_ C_ 0.582524 0.189811 0.737558 0.6875
C_ C_ 0.835148 0.187452 0.749883 0.6875
C_ C_ 0.539219 0.0943516 0.768146 -0.11473
C_ C_ 0.787897 0.0972846 0.7884 -0.11473
C_ C_ 0.625621 0.287484 0.872981 0.17695
C_ C_ 0.872534 0.215107 0.874235 0.17695
C_ C_ 0.626718 0.213728 0.864094 0.17695
C_ C_ 0.873379 0.2884 0.879316 0.17695
C_ C_ 0.634508 0.209532 0.905483 -0.11473
C_ C_ 0.878767 0.285674 0.922187 -0.11473
C_ C_ 0.629938 0.243345 0.934604 0.23465
C_ C_ 0.877554 0.246907 0.94263 0.23465
C_ C_ 0.624253 0.282947 0.916676 -0.11473
C_ C_ 0.871783 0.212318 0.917782 -0.11473
C_ C_ 0.62029 0.223515 0.613575 0.17695
C_ C_ 0.896622 0.248016 0.626069 0.17695
C_ C_ 0.617837 0.296664 0.617424 0.17695
C_ C_ 0.844392 0.264659 0.627981 0.17695
C_ C_ 0.619662 0.298844 0.573667 -0.11473
C_ C_ 0.842862 0.266139 0.583772 -0.11473
C_ C_ 0.623228 0.262699 0.548669 0.23465
C_ C_ 0.866733 0.253387 0.559487 0.23465
C_ C_ 0.625271 0.224868 0.569612 -0.11473
C_ C_ 0.89503 0.250247 0.581312 -0.11473
C_ C_ 0.530698 0.497279 0.754624 0.05793
C_ C_ 0.775595 0.504783 0.741656 0.05793
C_ C_ 0.71836 0.000491075 0.730983 0.05793
C_ C_ 0.962647 0.00102778 0.757738 0.05793
Br Br 0.573157 0.49113 0.748765 -0.17191
Br Br 0.818276 0.505189 0.731192 -0.17191
Br Br 0.673561 0.00202155 0.71826 -0.17191
Br Br 0.918752 -0.0007070000000000132 0.763934 -0.17191
N_ N_ 0.62312 0.252934 0.848531 -0.272
N_ N_ 0.872276 0.25214 0.854356 -0.272
N_ N_ 0.63338 0.235167 0.978884 -0.12501
N_ N_ 0.883289 0.241428 0.986776 -0.12501
N_ N_ 0.618919 0.258234 0.636076 -0.272
N_ N_ 0.87074 0.254628 0.647939 -0.272
N_ N_ 0.621885 0.264319 0.503131 -0.12501
N_ N_ 0.865558 0.26046 0.514801 -0.12501
O_ O_ 0.591594 0.302111 0.708123 -0.60745
O_ O_ 0.839567 0.295419 0.719601 -0.60745
O_ O_ 0.587363 0.288219 0.775957 -0.60745
O_ O_ 0.83882 0.298109 0.788203 -0.60745
O_ O_ 0.648552 0.299258 0.77962 -0.60745
O_ O_ 0.898238 0.3007 0.785719 -0.60745
O_ O_ 0.655349 0.292455 0.710415 -0.60745
O_ O_ 0.901983 0.292371 0.717906 -0.60745
O_ O_ 0.654788 0.209136 0.775063 -0.60745
O_ O_ 0.899082 0.207786 0.780894 -0.60745
O_ O_ 0.646215 0.204927 0.70745 -0.60745
O_ O_ 0.902062 0.207501 0.713801 -0.60745
O_ O_ 0.585897 0.214879 0.707209 -0.60745
O_ O_ 0.837793 0.205194 0.714639 -0.60745
O_ O_ 0.593521 0.199477 0.773129 -0.60745
O_ O_ 0.842802 0.206113 0.783375 -0.60745
Zn Zn 0.629899 0.751452 0.275321 0.9476
Zn Zn 0.874829 0.749926 0.282909 0.9476
Zn Zn 0.626931 0.751426 0.208163 0.9476
Zn Zn 0.87723 0.751545 0.21107 0.9476
H_ H_ 0.544647 0.933007 0.187303 0.10932
H_ H_ 0.778411 0.908068 0.174543 0.10932
H_ H_ 0.560102 0.846798 0.318071 0.10932
H_ H_ 0.819838 0.855137 0.309063 0.10932
H_ H_ 0.578422 0.871243 0.182955 0.10932
H_ H_ 0.815191 0.850707 0.17695 0.10932
H_ H_ 0.533927 0.910608 0.319311 0.10932
H_ H_ 0.79001 0.918541 0.309286 0.10932
H_ H_ 0.722806 0.910449 0.309302 0.10932
H_ H_ 0.964332 0.918912 0.322523 0.10932
H_ H_ 0.680517 0.854396 0.173069 0.10932
H_ H_ 0.945439 0.843893 0.188512 0.10932
H_ H_ 0.701946 0.841087 0.304027 0.10932
H_ H_ 0.927176 0.861686 0.319117 0.10932
H_ H_ 0.710035 0.918872 0.17421 0.10932
H_ H_ 0.981369 0.906675 0.191953 0.10932
H_ H_ 0.730758 0.597482 0.306039 0.10932
H_ H_ 0.972666 0.587682 0.324514 0.10932
H_ H_ 0.675838 0.633512 0.1781 0.10932
H_ H_ 0.923966 0.634928 0.188378 0.10932
H_ H_ 0.701901 0.659729 0.304447 0.10932
H_ H_ 0.935087 0.643952 0.322534 0.10932
H_ H_ 0.703715 0.572023 0.177497 0.10932
H_ H_ 0.959816 0.574264 0.190067 0.10932
H_ H_ 0.559476 0.57272 0.188591 0.10932
H_ H_ 0.777494 0.594517 0.16585 0.10932
H_ H_ 0.55574 0.662018 0.307725 0.10932
H_ H_ 0.832954 0.63054 0.296528 0.10932
H_ H_ 0.576799 0.640377 0.179511 0.10932
H_ H_ 0.804362 0.663582 0.173157 0.10932
H_ H_ 0.533748 0.595171 0.312563 0.10932
H_ H_ 0.804659 0.567289 0.29612 0.10932
H_ H_ 0.620148 0.686883 0.351015 0.10932
H_ H_ 0.826616 0.775675 0.35208 0.10932
H_ H_ 0.630121 0.815107 0.34723 0.10932
H_ H_ 0.911484 0.725835 0.360019 0.10932
H_ H_ 0.626509 0.81988 0.424665 0.10932
H_ H_ 0.911621 0.722228 0.438143 0.10932
H_ H_ 0.616162 0.689561 0.430489 0.10932
H_ H_ 0.829584 0.796423 0.429194 0.10932
H_ H_ 0.646626 0.811662 0.135281 0.10932
H_ H_ 0.905624 0.693397 0.132305 0.10932
H_ H_ 0.60687 0.690821 0.131141 0.10932
H_ H_ 0.867613 0.814003 0.140442 0.10932
H_ H_ 0.609101 0.693397 0.0535868 0.10932
H_ H_ 0.872873 0.821685 0.0621407 0.10932
H_ H_ 0.650004 0.811058 0.0593582 0.10932
H_ H_ 0.905162 0.697201 0.0581257 0.10932
C_ C_ 0.573826 0.854535 0.249519 -0.02249
C_ C_ 0.817191 0.845381 0.244292 -0.02249
C_ C_ 0.520746 0.964797 0.255414 -0.02249
C_ C_ 0.766581 0.958609 0.239543 -0.02249
C_ C_ 0.548315 0.912386 0.215609 -0.11473
C_ C_ 0.787056 0.898599 0.204366 -0.11473
C_ C_ 0.560053 0.864374 0.28804 -0.11473
C_ C_ 0.811512 0.867527 0.279921 -0.11473
C_ C_ 0.566954 0.876881 0.213066 -0.11473
C_ C_ 0.807313 0.863916 0.20502 -0.11473
C_ C_ 0.538118 0.927242 0.254055 -0.02249
C_ C_ 0.780325 0.91756 0.241276 -0.02249
C_ C_ 0.592478 0.816155 0.246144 0.6875
C_ C_ 0.835167 0.807457 0.245649 0.6875
C_ C_ 0.543397 0.901659 0.289872 -0.11473
C_ C_ 0.791847 0.901308 0.279801 -0.11473
C_ C_ 0.688808 0.843873 0.23998 -0.02249
C_ C_ 0.935928 0.84629 0.253783 -0.02249
C_ C_ 0.734616 0.961872 0.241064 -0.02249
C_ C_ 0.987325 0.960202 0.25735 -0.02249
C_ C_ 0.712613 0.900803 0.278936 -0.11473
C_ C_ 0.958264 0.905206 0.293347 -0.11473
C_ C_ 0.690443 0.86655 0.203823 -0.11473
C_ C_ 0.951149 0.86053 0.218084 -0.11473
C_ C_ 0.704099 0.858944 0.277115 -0.11473
C_ C_ 0.938679 0.869707 0.2918 -0.11473
C_ C_ 0.715439 0.92276 0.241787 -0.02249
C_ C_ 0.971919 0.918665 0.256715 -0.02249
C_ C_ 0.668864 0.806187 0.242082 0.6875
C_ C_ 0.917382 0.807785 0.251669 0.6875
C_ C_ 0.703513 0.905602 0.203919 -0.11473
C_ C_ 0.968928 0.89705 0.219402 -0.11473
C_ C_ 0.68707 0.654265 0.238586 -0.02249
C_ C_ 0.932204 0.6484 0.255972 -0.02249
C_ C_ 0.73873 0.542861 0.241506 -0.02249
C_ C_ 0.985881 0.538224 0.261393 -0.02249
C_ C_ 0.720093 0.605952 0.277041 -0.11473
C_ C_ 0.96487 0.599943 0.29483 -0.11473
C_ C_ 0.690642 0.630483 0.203512 -0.11473
C_ C_ 0.936499 0.625989 0.218483 -0.11473
C_ C_ 0.701729 0.641352 0.277188 -0.11473
C_ C_ 0.944684 0.632797 0.293735 -0.11473
C_ C_ 0.722007 0.580885 0.241078 -0.02249
C_ C_ 0.968919 0.57749 0.258152 -0.02249
C_ C_ 0.663714 0.686001 0.24072 0.6875
C_ C_ 0.914515 0.690244 0.253187 0.6875
C_ C_ 0.706312 0.592721 0.204192 -0.11473
C_ C_ 0.956553 0.592597 0.219989 -0.11473
C_ C_ 0.563955 0.663848 0.242596 -0.02249
C_ C_ 0.81948 0.65224 0.236327 -0.02249
C_ C_ 0.520141 0.54298 0.250292 -0.02249
C_ C_ 0.768521 0.539927 0.229611 -0.02249
C_ C_ 0.552863 0.593022 0.212277 -0.11473
C_ C_ 0.786621 0.605261 0.197434 -0.11473
C_ C_ 0.548065 0.651281 0.277611 -0.11473
C_ C_ 0.81919 0.62552 0.269655 -0.11473
C_ C_ 0.565864 0.632554 0.209117 -0.11473
C_ C_ 0.80351 0.642947 0.199788 -0.11473
C_ C_ 0.534821 0.583118 0.246135 -0.02249
C_ C_ 0.786818 0.577985 0.230635 -0.02249
C_ C_ 0.583626 0.701011 0.243705 0.6875
C_ C_ 0.835073 0.692698 0.241543 0.6875
C_ C_ 0.535336 0.610217 0.281545 -0.11473
C_ C_ 0.802989 0.588142 0.268828 -0.11473
C_ C_ 0.623428 0.715702 0.368418 0.17695
C_ C_ 0.846589 0.769813 0.371706 0.17695
C_ C_ 0.633583 0.786958 0.366329 0.17695
C_ C_ 0.892423 0.733701 0.37588 0.17695
C_ C_ 0.628337 0.790121 0.410231 -0.11473
C_ C_ 0.893371 0.736609 0.419451 -0.11473
C_ C_ 0.624036 0.754005 0.434559 0.23465
C_ C_ 0.87055 0.75928 0.43968 0.23465
C_ C_ 0.620555 0.716454 0.411977 -0.11473
C_ C_ 0.847065 0.776392 0.416109 -0.11473
C_ C_ 0.641539 0.782535 0.118744 0.17695
C_ C_ 0.895166 0.721443 0.118421 0.17695
C_ C_ 0.616271 0.718767 0.115882 0.17695
C_ C_ 0.876417 0.789023 0.122617 0.17695
C_ C_ 0.618687 0.717305 0.0716622 -0.11473
C_ C_ 0.880336 0.794674 0.0792357 -0.11473
C_ C_ 0.631279 0.74996 0.0511988 0.23465
C_ C_ 0.886717 0.760703 0.0541386 0.23465
C_ C_ 0.640886 0.784842 0.0746982 -0.11473
C_ C_ 0.898046 0.725271 0.0744589 -0.11473
C_ C_ 0.535809 1.00202504 0.25349 0.05793
C_ C_ 0.783044 0.995987 0.23848 0.05793
C_ C_ 0.721927 0.503427 0.246391 0.05793
C_ C_ 0.972637 0.49984 0.269881 0.05793
Br Br 0.579297 1.00250374 0.256848 -0.17191
Br Br 0.826779 0.992351 0.238073 -0.17191
Br Br 0.683556 0.506282 0.271378 -0.17191
Br Br 0.933209 0.497453 0.291612 -0.17191
N_ N_ 0.631929 0.750551 0.347853 -0.272
N_ N_ 0.869606 0.751045 0.352449 -0.272
N_ N_ 0.628435 0.757012 0.477831 -0.12501
N_ N_ 0.871394 0.766418 0.484659 -0.12501
N_ N_ 0.628531 0.749655 0.139189 -0.272
N_ N_ 0.884776 0.753999 0.140818 -0.272
N_ N_ 0.637526 0.750703 0.0066319 -0.12501
N_ N_ 0.878206 0.761132 0.00876368 -0.12501
O_ O_ 0.598383 0.798377 0.21132 -0.60745
O_ O_ 0.846154 0.796642 0.211603 -0.60745
O_ O_ 0.603657 0.800369 0.278227 -0.60745
O_ O_ 0.841198 0.789888 0.28033 -0.60745
O_ O_ 0.663472 0.786488 0.27631 -0.60745
O_ O_ 0.90407 0.7951 0.284663 -0.60745
O_ O_ 0.659156 0.790947 0.208777 -0.60745
O_ O_ 0.910163 0.791675 0.215545 -0.60745
O_ O_ 0.65763 0.702875 0.277283 -0.60745
O_ O_ 0.906234 0.706823 0.28743 -0.60745
O_ O_ 0.654036 0.704323 0.20759 -0.60745
O_ O_ 0.907047 0.70426 0.216795 -0.60745
O_ O_ 0.593471 0.714402 0.208614 -0.60745
O_ O_ 0.84423 0.712712 0.210982 -0.60745
O_ O_ 0.592493 0.717432 0.277911 -0.60745
O_ O_ 0.845681 0.703931 0.278057 -0.60745
Zn Zn 0.621477 0.751983 0.781434 0.9476
Zn Zn 0.87547 0.75054 0.781857 0.9476
Zn Zn 0.620844 0.75255 0.710029 0.9476
Zn Zn 0.872743 0.748488 0.714066 0.9476
H_ H_ 0.515155 0.902993 0.677224 0.10932
H_ H_ 0.808486 0.934109 0.693149 0.10932
H_ H_ 0.564236 0.855422 0.809748 0.10932
H_ H_ 0.787771 0.828997 0.80211 0.10932
H_ H_ 0.543487 0.837679 0.677264 0.10932
H_ H_ 0.843741 0.879958 0.704035 0.10932
H_ H_ 0.534979 0.919092 0.809143 0.10932
H_ H_ 0.760081 0.895842 0.800405 0.10932
H_ H_ 0.701075 0.937344 0.799207 0.10932
H_ H_ 0.965933 0.914757 0.81871 0.10932
H_ H_ 0.689144 0.84376 0.681916 0.10932
H_ H_ 0.92764 0.858846 0.681915 0.10932
H_ H_ 0.669839 0.875036 0.807995 0.10932
H_ H_ 0.937156 0.847323 0.817595 0.10932
H_ H_ 0.7191 0.904623 0.673142 0.10932
H_ H_ 0.956486 0.924986 0.685827 0.10932
H_ H_ 0.723501 0.598676 0.813688 0.10932
H_ H_ 0.970537 0.586574 0.812898 0.10932
H_ H_ 0.674637 0.645971 0.682828 0.10932
H_ H_ 0.939868 0.653787 0.678177 0.10932
H_ H_ 0.70054 0.665295 0.811997 0.10932
H_ H_ 0.930714 0.642366 0.814115 0.10932
H_ H_ 0.698025 0.579552 0.684217 0.10932
H_ H_ 0.959243 0.582642 0.678857 0.10932
H_ H_ 0.52254 0.585472 0.689908 0.10932
H_ H_ 0.763 0.602954 0.687991 0.10932
H_ H_ 0.574509 0.636124 0.814972 0.10932
H_ H_ 0.833894 0.628559 0.804778 0.10932
H_ H_ 0.550579 0.648439 0.683357 0.10932
H_ H_ 0.792661 0.666839 0.687353 0.10932
H_ H_ 0.54623 0.570204 0.818973 0.10932
H_ H_ 0.79518 0.574216 0.811081 0.10932
H_ H_ 0.577152 0.751196 0.849734 0.10932
H_ H_ 0.878759 0.68091 0.849333 0.10932
H_ H_ 0.67244 0.762211 0.861135 0.10932
H_ H_ 0.869349 0.811576 0.865649 0.10932
H_ H_ 0.668413 0.763255 0.935598 0.10932
H_ H_ 0.880454 0.804415 0.941095 0.10932
H_ H_ 0.573025 0.738971 0.923294 0.10932
H_ H_ 0.875188 0.672707 0.928336 0.10932
H_ H_ 0.612346 0.679686 0.635823 0.10932
H_ H_ 0.872317 0.817922 0.634988 0.10932
H_ H_ 0.631913 0.808338 0.634134 0.10932
H_ H_ 0.878908 0.686105 0.646766 0.10932
H_ H_ 0.624999 0.80603 0.551826 0.10932
H_ H_ 0.875043 0.679179 0.567751 0.10932
H_ H_ 0.603464 0.675984 0.556933 0.10932
H_ H_ 0.873697 0.811849 0.555443 0.10932
C_ C_ 0.555533 0.842012 0.743429 -0.02249
C_ C_ 0.81482 0.846297 0.747087 -0.02249
C_ C_ 0.510848 0.961052 0.738642 -0.02249
C_ C_ 0.76468 0.960322 0.749239 -0.02249
C_ C_ 0.523646 0.893127 0.706594 -0.11473
C_ C_ 0.80376 0.911903 0.716992 -0.11473
C_ C_ 0.554302 0.865643 0.780573 -0.11473
C_ C_ 0.79187 0.85134 0.777937 -0.11473
C_ C_ 0.540432 0.85566 0.705358 -0.11473
C_ C_ 0.822631 0.879177 0.720867 -0.11473
C_ C_ 0.525773 0.920437 0.740965 -0.02249
C_ C_ 0.78177 0.920265 0.748169 -0.02249
C_ C_ 0.576153 0.806001 0.741222 0.6875
C_ C_ 0.832393 0.806884 0.748082 0.6875
C_ C_ 0.5379 0.902878 0.779802 -0.11473
C_ C_ 0.777118 0.889203 0.777951 -0.11473
C_ C_ 0.677665 0.852917 0.744714 -0.02249
C_ C_ 0.932457 0.84622 0.74809 -0.02249
C_ C_ 0.733215 0.961113 0.737243 -0.02249
C_ C_ 0.978529 0.962764 0.755397 -0.02249
C_ C_ 0.696662 0.917815 0.772962 -0.11473
C_ C_ 0.958345 0.901393 0.790117 -0.11473
C_ C_ 0.69571 0.859665 0.70946 -0.11473
C_ C_ 0.937692 0.86868 0.711978 -0.11473
C_ C_ 0.68039 0.882144 0.777955 -0.11473
C_ C_ 0.941748 0.862976 0.788009 -0.11473
C_ C_ 0.714769 0.924193 0.736577 -0.02249
C_ C_ 0.961926 0.923709 0.75255 -0.02249
C_ C_ 0.657563 0.815266 0.745255 0.6875
C_ C_ 0.913306 0.808396 0.749301 0.6875
C_ C_ 0.714013 0.895663 0.703946 -0.11473
C_ C_ 0.950627 0.907468 0.714618 -0.11473
C_ C_ 0.68256 0.658705 0.751352 -0.02249
C_ C_ 0.93641 0.656094 0.747229 -0.02249
C_ C_ 0.727303 0.540962 0.751411 -0.02249
C_ C_ 0.981866 0.537337 0.746078 -0.02249
C_ C_ 0.709425 0.605272 0.787389 -0.11473
C_ C_ 0.958852 0.597594 0.785177 -0.11473
C_ C_ 0.681448 0.633835 0.714507 -0.11473
C_ C_ 0.945573 0.63854 0.709398 -0.11473
C_ C_ 0.697121 0.644497 0.786526 -0.11473
C_ C_ 0.940914 0.633624 0.78521 -0.11473
C_ C_ 0.709488 0.580396 0.750247 -0.02249
C_ C_ 0.963802 0.577179 0.747374 -0.02249
C_ C_ 0.664816 0.698543 0.752122 0.6875
C_ C_ 0.915561 0.692501 0.745678 0.6875
C_ C_ 0.694765 0.594852 0.714233 -0.11473
C_ C_ 0.95702 0.598998 0.708765 -0.11473
C_ C_ 0.566953 0.6461 0.748535 -0.02249
C_ C_ 0.813427 0.656169 0.747875 -0.02249
C_ C_ 0.515627 0.536527 0.757191 -0.02249
C_ C_ 0.759052 0.542786 0.746824 -0.02249
C_ C_ 0.533005 0.597326 0.717285 -0.11473
C_ C_ 0.77468 0.612304 0.715326 -0.11473
C_ C_ 0.566228 0.621832 0.786673 -0.11473
C_ C_ 0.814967 0.628353 0.783141 -0.11473
C_ C_ 0.550226 0.632591 0.713604 -0.11473
C_ C_ 0.793091 0.648885 0.715273 -0.11473
C_ C_ 0.534203 0.573895 0.753638 -0.02249
C_ C_ 0.776854 0.583371 0.749157 -0.02249
C_ C_ 0.586561 0.685153 0.749649 0.6875
C_ C_ 0.835879 0.688964 0.745381 0.6875
C_ C_ 0.54925 0.587843 0.789504 -0.11473
C_ C_ 0.794737 0.594922 0.783196 -0.11473
C_ C_ 0.597829 0.751553 0.868757 0.17695
C_ C_ 0.875521 0.707877 0.87029 0.17695
C_ C_ 0.649591 0.756031 0.874138 0.17695
C_ C_ 0.875622 0.782025 0.876579 0.17695
C_ C_ 0.647389 0.755976 0.918183 -0.11473
C_ C_ 0.880253 0.777856 0.920544 -0.11473
C_ C_ 0.621793 0.741663 0.937423 0.23465
C_ C_ 0.880492 0.738634 0.939124 0.23465
C_ C_ 0.595832 0.742642 0.911975 -0.11473
C_ C_ 0.876719 0.702488 0.915363 -0.11473
C_ C_ 0.615682 0.70697 0.61686 0.17695
C_ C_ 0.872719 0.787346 0.618164 0.17695
C_ C_ 0.627587 0.778051 0.615641 0.17695
C_ C_ 0.874713 0.713279 0.625132 0.17695
C_ C_ 0.621062 0.778239 0.569953 -0.11473
C_ C_ 0.873367 0.708941 0.580539 -0.11473
C_ C_ 0.612979 0.742164 0.548949 0.23465
C_ C_ 0.870905 0.744632 0.554821 0.23465
C_ C_ 0.610044 0.705407 0.572302 -0.11473
C_ C_ 0.87314 0.784471 0.573582 -0.11473
C_ C_ 0.526074 -0.0005159999999999609 0.729994 0.05793
C_ C_ 0.778103 -0.0007160000000000499 0.759873 0.05793
C_ C_ 0.71267 0.500168 0.751252 0.05793
C_ C_ 0.966112 0.500537 0.742518 0.05793
Br Br 0.565387 -0.0023339999999999472 0.704918 -0.17191
Br Br 0.818717 0.994439 0.787862 -0.17191
Br Br 0.670686 0.494219 0.766915 -0.17191
Br Br 0.92654 0.50147 0.721851 -0.17191
N_ N_ 0.624875 0.755323 0.849225 -0.272
N_ N_ 0.874096 0.746455 0.852736 -0.272
N_ N_ 0.619093 0.735787 0.981087 -0.12501
N_ N_ 0.887634 0.735709 0.982298 -0.12501
N_ N_ 0.620995 0.742892 0.638338 -0.272
N_ N_ 0.870817 0.752351 0.642756 -0.272
N_ N_ 0.61018 0.741359 0.502915 -0.12501
N_ N_ 0.865386 0.739058 0.510973 -0.12501
O_ O_ 0.586525 0.79315 0.70646 -0.60745
O_ O_ 0.844511 0.795079 0.714741 -0.60745
O_ O_ 0.586531 0.791648 0.775644 -0.60745
O_ O_ 0.839704 0.789627 0.782313 -0.60745
O_ O_ 0.648107 0.800019 0.779885 -0.60745
O_ O_ 0.901289 0.798862 0.783947 -0.60745
O_ O_ 0.645539 0.802813 0.709958 -0.60745
O_ O_ 0.906611 0.789538 0.714821 -0.60745
O_ O_ 0.656068 0.71234 0.786784 -0.60745
O_ O_ 0.910798 0.710283 0.78096 -0.60745
O_ O_ 0.656906 0.717175 0.718861 -0.60745
O_ O_ 0.904282 0.705098 0.710736 -0.60745
O_ O_ 0.595055 0.700145 0.714191 -0.60745
O_ O_ 0.841874 0.706092 0.711215 -0.60745
O_ O_ 0.592698 0.705025 0.783194 -0.60745
O_ O_ 0.846143 0.705443 0.779764 -0.60745
