_cell_length_a 44.444
_cell_length_b 32.3360000049186
_cell_length_c 31.843999878906452
_cell_angle_alpha 89.99799923859553
_cell_angle_beta 91.13600050494348
_cell_angle_gamma 89.9990006550086
_symmetry_space_group_name_H-M         'P 1'
_symmetry_Int_Tables_number            1
loop_
_symmetry_equiv_pos_as_xyz
   'x, y, z'
                         
loop_
_atom_site_label
_atom_site_type_symbol
_atom_site_fract_x 
_atom_site_fract_y
_atom_site_fract_z
_atom_site_charge
Zn Zn 0.125109 0.250001 0.2932 0.9476
Zn Zn 0.375109 0.250001 0.2932 0.9476
Zn Zn 0.124895 0.250002 0.20678 0.9476
Zn Zn 0.374897 0.250002 0.20678 0.9476
H_ H_ 0.034677 0.418408 0.18246 0.10932
H_ H_ 0.28468 0.418408 0.18246 0.10932
H_ H_ 0.0636971 0.351169 0.31757 0.10932
H_ H_ 0.3137 0.351169 0.31757 0.10932
H_ H_ 0.0640934 0.352466 0.183055 0.10932
H_ H_ 0.314096 0.352466 0.183055 0.10932
H_ H_ 0.0341926 0.417025 0.31752 0.10932
H_ H_ 0.284195 0.417025 0.31752 0.10932
H_ H_ 0.215323 0.418405 0.31752 0.10932
H_ H_ 0.465325 0.418404 0.31752 0.10932
H_ H_ 0.186305 0.351176 0.18241 0.10932
H_ H_ 0.436307 0.351176 0.18241 0.10932
H_ H_ 0.185907 0.352465 0.316925 0.10932
H_ H_ 0.435909 0.352465 0.316925 0.10932
H_ H_ 0.215809 0.417029 0.18246 0.10932
H_ H_ 0.465811 0.41703 0.18246 0.10932
H_ H_ 0.215325 0.0815959 0.31752 0.10932
H_ H_ 0.465327 0.0815955 0.31752 0.10932
H_ H_ 0.186306 0.148834 0.18241 0.10932
H_ H_ 0.436307 0.148834 0.18241 0.10932
H_ H_ 0.185909 0.147537 0.316925 0.10932
H_ H_ 0.43591 0.147537 0.3169 0.10932
H_ H_ 0.21581 0.0829786 0.18246 0.10932
H_ H_ 0.465811 0.082978 0.18246 0.10932
H_ H_ 0.0346786 0.081599 0.18246 0.10932
H_ H_ 0.284682 0.0815981 0.18246 0.10932
H_ H_ 0.0636965 0.148828 0.31757 0.10932
H_ H_ 0.313699 0.148827 0.31757 0.10932
H_ H_ 0.0640945 0.147538 0.183055 0.10932
H_ H_ 0.314098 0.147538 0.183055 0.10932
H_ H_ 0.0341925 0.0829739 0.31752 0.10932
H_ H_ 0.284195 0.0829736 0.31752 0.10932
H_ H_ 0.17444 0.249989 0.35713 0.10932
H_ H_ 0.424441 0.25 0.35713 0.10932
H_ H_ 0.0816264 0.249999 0.363685 0.10932
H_ H_ 0.331628 0.249999 0.363685 0.10932
H_ H_ 0.0834356 0.249998 0.44315 0.10932
H_ H_ 0.333437 0.25 0.443185 0.10932
H_ H_ 0.180257 0.249985 0.436625 0.10932
H_ H_ 0.430259 0.25 0.436625 0.10932
H_ H_ 0.0755626 0.250014 0.14285 0.10932
H_ H_ 0.325564 0.250003 0.14285 0.10932
H_ H_ 0.168376 0.250004 0.136 0.10932
H_ H_ 0.418378 0.250004 0.136295 0.10932
H_ H_ 0.166567 0.250005 0.0567949 0.10932
H_ H_ 0.416569 0.250004 0.0567949 0.10932
H_ H_ 0.069745 0.250018 0.063355 0.10932
H_ H_ 0.319747 0.250003 0.063355 0.10932
C_ C_ 0.0655484 0.347806 0.2503 -0.02249
C_ C_ 0.31555 0.347806 0.2503 -0.02249
C_ C_ 0.0158785 0.461942 0.24989 -0.02249
C_ C_ 0.26588 0.461942 0.24989 -0.02249
C_ C_ 0.0408274 0.403466 0.21211 -0.11473
C_ C_ 0.29083 0.403466 0.21211 -0.11473
C_ C_ 0.0569359 0.36601 0.28815 -0.11473
C_ C_ 0.306938 0.36601 0.28815 -0.11473
C_ C_ 0.0571636 0.366738 0.21229 -0.11473
C_ C_ 0.307166 0.366738 0.21229 -0.11473
C_ C_ 0.0325766 0.421985 0.24997 -0.02249
C_ C_ 0.282578 0.421985 0.24997 -0.02249
C_ C_ 0.0847836 0.309704 0.25067 0.6875
C_ C_ 0.334786 0.309705 0.25067 0.6875
C_ C_ 0.0405626 0.402699 0.287995 -0.11473
C_ C_ 0.290565 0.402699 0.287995 -0.11473
C_ C_ 0.184453 0.347809 0.2495 -0.02249
C_ C_ 0.434455 0.347809 0.249645 -0.02249
C_ C_ 0.234124 0.461943 0.25009 -0.02249
C_ C_ 0.484126 0.461943 0.25009 -0.02249
C_ C_ 0.209173 0.403466 0.28787 -0.11473
C_ C_ 0.459175 0.403466 0.28787 -0.11473
C_ C_ 0.193065 0.366014 0.2118 -0.11473
C_ C_ 0.443067 0.366014 0.211805 -0.11473
C_ C_ 0.192837 0.366739 0.28769 -0.11473
C_ C_ 0.442839 0.366738 0.28769 -0.11473
C_ C_ 0.217425 0.421987 0.25001 -0.02249
C_ C_ 0.467427 0.421987 0.25001 -0.02249
C_ C_ 0.165218 0.309706 0.24931 0.6875
C_ C_ 0.415219 0.309706 0.24931 0.6875
C_ C_ 0.209439 0.402703 0.211985 -0.11473
C_ C_ 0.459441 0.402703 0.211985 -0.11473
C_ C_ 0.184454 0.152197 0.24965 -0.02249
C_ C_ 0.434456 0.152197 0.24965 -0.02249
C_ C_ 0.234124 0.0380616 0.25009 -0.02249
C_ C_ 0.484126 0.038061 0.25009 -0.02249
C_ C_ 0.209175 0.0965369 0.28787 -0.11473
C_ C_ 0.459176 0.0965366 0.28787 -0.11473
C_ C_ 0.193066 0.133993 0.21181 -0.11473
C_ C_ 0.443068 0.133993 0.21181 -0.11473
C_ C_ 0.192838 0.133266 0.28769 -0.11473
C_ C_ 0.44284 0.133265 0.28769 -0.11473
C_ C_ 0.217426 0.0780186 0.25001 -0.02249
C_ C_ 0.467427 0.0780186 0.25001 -0.02249
C_ C_ 0.165218 0.190299 0.24931 0.6875
C_ C_ 0.41522 0.190299 0.24931 0.6875
C_ C_ 0.209439 0.0973046 0.211985 -0.11473
C_ C_ 0.459441 0.097304 0.211985 -0.11473
C_ C_ 0.065549 0.152195 0.250335 -0.02249
C_ C_ 0.315551 0.152194 0.250335 -0.02249
C_ C_ 0.015878 0.0380603 0.24989 -0.02249
C_ C_ 0.265881 0.0380603 0.24989 -0.02249
C_ C_ 0.0408286 0.0965374 0.21211 -0.11473
C_ C_ 0.290832 0.096537 0.21211 -0.11473
C_ C_ 0.0569365 0.133989 0.288175 -0.11473
C_ C_ 0.306939 0.133989 0.288175 -0.11473
C_ C_ 0.057165 0.133265 0.21229 -0.11473
C_ C_ 0.307168 0.133265 0.21229 -0.11473
C_ C_ 0.0325769 0.078017 0.24997 -0.02249
C_ C_ 0.282579 0.0780164 0.24997 -0.02249
C_ C_ 0.0847839 0.190298 0.25067 0.6875
C_ C_ 0.334787 0.190297 0.25067 0.6875
C_ C_ 0.0405631 0.097301 0.287995 -0.11473
C_ C_ 0.290566 0.0973004 0.287995 -0.11473
C_ C_ 0.155099 0.249992 0.37765 0.17695
C_ C_ 0.405101 0.25 0.37765 0.17695
C_ C_ 0.102842 0.249998 0.38145 0.17695
C_ C_ 0.352844 0.249999 0.381465 0.17695
C_ C_ 0.103899 0.249996 0.425005 -0.11473
C_ C_ 0.3539 0.25 0.425 -0.11473
C_ C_ 0.132208 0.249993 0.445385 0.23465
C_ C_ 0.38221 0.250001 0.44535 0.23465
C_ C_ 0.158169 0.249989 0.4212 -0.11473
C_ C_ 0.408171 0.25 0.4212 -0.11473
C_ C_ 0.0949035 0.250012 0.12233 0.17695
C_ C_ 0.344905 0.250003 0.12233 0.17695
C_ C_ 0.14716 0.250006 0.118515 0.17695
C_ C_ 0.397162 0.250004 0.118515 0.17695
C_ C_ 0.146104 0.250007 0.0749799 -0.11473
C_ C_ 0.396106 0.250004 0.07495 -0.11473
C_ C_ 0.117794 0.25001 0.0545001 0.23465
C_ C_ 0.367796 0.250003 0.0546 0.23465
C_ C_ 0.091833 0.250014 0.0787801 -0.11473
C_ C_ 0.341835 0.250003 0.0787801 -0.11473
C_ C_ 0.0310424 0.499998 0.24981 0.05793
C_ C_ 0.281045 0.499998 0.24981 0.05793
C_ C_ 0.218958 8.98658e-07 0.25017 0.05793
C_ C_ 0.46896 1.000000589405 0.25017 0.05793
Br Br 0.0743374 0.499997 0.24991 -0.17191
Br Br 0.32434 0.499996 0.24991 -0.17191
Br Br 0.175663 3.37616e-06 0.25007 -0.17191
Br Br 0.425665 1.00000306691 0.25007 -0.17191
N_ N_ 0.127942 0.249996 0.3582 -0.272
N_ N_ 0.377944 0.25 0.3582 -0.272
N_ N_ 0.137098 0.249993 0.489575 -0.12501
N_ N_ 0.387098 0.250001 0.489575 -0.12501
N_ N_ 0.12206 0.250007 0.141755 -0.272
N_ N_ 0.372062 0.250004 0.141755 -0.272
N_ N_ 0.112907 0.250011 0.0104049 -0.12501
N_ N_ 0.362907 0.250003 0.0104049 -0.12501
O_ O_ 0.0924795 0.295258 0.215205 -0.60745
O_ O_ 0.342482 0.295258 0.215205 -0.60745
O_ O_ 0.0926029 0.295156 0.286475 -0.60745
O_ O_ 0.342604 0.295156 0.286475 -0.60745
O_ O_ 0.157522 0.295259 0.284775 -0.60745
O_ O_ 0.407525 0.295259 0.284775 -0.60745
O_ O_ 0.1574 0.295158 0.213505 -0.60745
O_ O_ 0.407402 0.295158 0.213505 -0.60745
O_ O_ 0.157523 0.204745 0.284775 -0.60745
O_ O_ 0.407525 0.204745 0.284775 -0.60745
O_ O_ 0.157399 0.204847 0.213505 -0.60745
O_ O_ 0.407401 0.204847 0.213505 -0.60745
O_ O_ 0.0924795 0.204745 0.215205 -0.60745
O_ O_ 0.342482 0.204745 0.215205 -0.60745
O_ O_ 0.0926025 0.204845 0.286475 -0.60745
O_ O_ 0.342604 0.204845 0.286475 -0.60745
Zn Zn 0.125108 0.250001 0.7932 0.9476
Zn Zn 0.37511 0.250001 0.7932 0.9476
Zn Zn 0.124894 0.250002 0.70678 0.9476
Zn Zn 0.374896 0.250002 0.70678 0.9476
H_ H_ 0.0346769 0.418407 0.68246 0.10932
H_ H_ 0.28468 0.418407 0.68246 0.10932
H_ H_ 0.0636969 0.351169 0.81757 0.10932
H_ H_ 0.313699 0.351169 0.81757 0.10932
H_ H_ 0.0640935 0.352466 0.683055 0.10932
H_ H_ 0.314096 0.352466 0.683055 0.10932
H_ H_ 0.0341924 0.417025 0.81752 0.10932
H_ H_ 0.284195 0.417025 0.81752 0.10932
H_ H_ 0.215323 0.418405 0.81752 0.10932
H_ H_ 0.465325 0.418405 0.81752 0.10932
H_ H_ 0.186305 0.351176 0.68241 0.10932
H_ H_ 0.436307 0.351176 0.68241 0.10932
H_ H_ 0.185907 0.352465 0.816925 0.10932
H_ H_ 0.435909 0.352465 0.816925 0.10932
H_ H_ 0.215809 0.417029 0.68246 0.10932
H_ H_ 0.465811 0.41703 0.68246 0.10932
H_ H_ 0.215325 0.0815961 0.81752 0.10932
H_ H_ 0.465326 0.0815955 0.81752 0.10932
H_ H_ 0.186305 0.148834 0.68241 0.10932
H_ H_ 0.436307 0.148834 0.68241 0.10932
H_ H_ 0.185908 0.147537 0.816925 0.10932
H_ H_ 0.43591 0.147537 0.8169 0.10932
H_ H_ 0.21581 0.0829785 0.68246 0.10932
H_ H_ 0.465811 0.0829779 0.68246 0.10932
H_ H_ 0.0346785 0.0815989 0.68246 0.10932
H_ H_ 0.284682 0.081598 0.68246 0.10932
H_ H_ 0.0636966 0.148828 0.81757 0.10932
H_ H_ 0.3137 0.148827 0.81757 0.10932
H_ H_ 0.0640946 0.147538 0.683055 0.10932
H_ H_ 0.314098 0.147538 0.683055 0.10932
H_ H_ 0.0341926 0.0829738 0.81752 0.10932
H_ H_ 0.284195 0.0829735 0.81752 0.10932
H_ H_ 0.17444 0.249989 0.85713 0.10932
H_ H_ 0.424442 0.25 0.85713 0.10932
H_ H_ 0.0816265 0.249999 0.863685 0.10932
H_ H_ 0.331628 0.249999 0.863685 0.10932
H_ H_ 0.0834355 0.249998 0.94315 0.10932
H_ H_ 0.333437 0.25 0.943185 0.10932
H_ H_ 0.180258 0.249985 0.936625 0.10932
H_ H_ 0.430259 0.25 0.936625 0.10932
H_ H_ 0.0755625 0.250014 0.64285 0.10932
H_ H_ 0.325564 0.250003 0.64285 0.10932
H_ H_ 0.168376 0.250004 0.636 0.10932
H_ H_ 0.418378 0.250004 0.636295 0.10932
H_ H_ 0.166567 0.250005 0.556795 0.10932
H_ H_ 0.416569 0.250004 0.556795 0.10932
H_ H_ 0.0697451 0.250018 0.563355 0.10932
H_ H_ 0.319746 0.250003 0.563355 0.10932
C_ C_ 0.0655485 0.347806 0.7503 -0.02249
C_ C_ 0.315551 0.347806 0.7503 -0.02249
C_ C_ 0.0158785 0.461942 0.74989 -0.02249
C_ C_ 0.265881 0.461942 0.74989 -0.02249
C_ C_ 0.0408275 0.403466 0.71211 -0.11473
C_ C_ 0.29083 0.403466 0.71211 -0.11473
C_ C_ 0.056936 0.36601 0.78815 -0.11473
C_ C_ 0.306939 0.36601 0.78815 -0.11473
C_ C_ 0.0571634 0.366738 0.71229 -0.11473
C_ C_ 0.307166 0.366738 0.71229 -0.11473
C_ C_ 0.0325765 0.421985 0.74997 -0.02249
C_ C_ 0.282579 0.421985 0.74997 -0.02249
C_ C_ 0.0847834 0.309704 0.75067 0.6875
C_ C_ 0.334787 0.309705 0.75067 0.6875
C_ C_ 0.0405624 0.402699 0.787995 -0.11473
C_ C_ 0.290565 0.402699 0.787995 -0.11473
C_ C_ 0.184452 0.347809 0.7495 -0.02249
C_ C_ 0.434455 0.347809 0.749645 -0.02249
C_ C_ 0.234123 0.461943 0.75009 -0.02249
C_ C_ 0.484125 0.461943 0.75009 -0.02249
C_ C_ 0.209173 0.403466 0.78787 -0.11473
C_ C_ 0.459175 0.403466 0.78787 -0.11473
C_ C_ 0.193065 0.366014 0.7118 -0.11473
C_ C_ 0.443068 0.366014 0.711805 -0.11473
C_ C_ 0.192837 0.366738 0.78769 -0.11473
C_ C_ 0.442839 0.366738 0.78769 -0.11473
C_ C_ 0.217425 0.421987 0.75001 -0.02249
C_ C_ 0.467427 0.421987 0.75001 -0.02249
C_ C_ 0.165218 0.309706 0.74931 0.6875
C_ C_ 0.41522 0.309706 0.74931 0.6875
C_ C_ 0.209439 0.402703 0.711985 -0.11473
C_ C_ 0.45944 0.402703 0.711985 -0.11473
C_ C_ 0.184454 0.152197 0.74965 -0.02249
C_ C_ 0.434455 0.152197 0.74965 -0.02249
C_ C_ 0.234124 0.0380615 0.75009 -0.02249
C_ C_ 0.484125 0.0380609 0.75009 -0.02249
C_ C_ 0.209175 0.0965368 0.78787 -0.11473
C_ C_ 0.459176 0.0965365 0.78787 -0.11473
C_ C_ 0.193066 0.133993 0.71181 -0.11473
C_ C_ 0.443067 0.133993 0.71181 -0.11473
C_ C_ 0.192839 0.133266 0.78769 -0.11473
C_ C_ 0.44284 0.133265 0.78769 -0.11473
C_ C_ 0.217426 0.0780185 0.75001 -0.02249
C_ C_ 0.467428 0.0780185 0.75001 -0.02249
C_ C_ 0.165219 0.1903 0.74931 0.6875
C_ C_ 0.415219 0.190299 0.74931 0.6875
C_ C_ 0.20944 0.0973046 0.711985 -0.11473
C_ C_ 0.45944 0.0973039 0.711985 -0.11473
C_ C_ 0.065549 0.152195 0.750335 -0.02249
C_ C_ 0.315552 0.152194 0.750335 -0.02249
C_ C_ 0.0158781 0.0380606 0.74989 -0.02249
C_ C_ 0.265881 0.0380606 0.74989 -0.02249
C_ C_ 0.0408285 0.0965376 0.71211 -0.11473
C_ C_ 0.290832 0.096537 0.71211 -0.11473
C_ C_ 0.0569364 0.133989 0.788175 -0.11473
C_ C_ 0.306939 0.133989 0.788175 -0.11473
C_ C_ 0.057165 0.133265 0.71229 -0.11473
C_ C_ 0.307168 0.133265 0.71229 -0.11473
C_ C_ 0.032577 0.078017 0.74997 -0.02249
C_ C_ 0.282579 0.0780164 0.74997 -0.02249
C_ C_ 0.084784 0.190298 0.75067 0.6875
C_ C_ 0.334787 0.190297 0.75067 0.6875
C_ C_ 0.0405629 0.097301 0.787995 -0.11473
C_ C_ 0.290566 0.0973004 0.787995 -0.11473
C_ C_ 0.155098 0.249991 0.87765 0.17695
C_ C_ 0.4051 0.25 0.87765 0.17695
C_ C_ 0.102843 0.249998 0.88145 0.17695
C_ C_ 0.352844 0.249999 0.881465 0.17695
C_ C_ 0.103899 0.249996 0.925005 -0.11473
C_ C_ 0.353901 0.25 0.925 -0.11473
C_ C_ 0.132209 0.249993 0.945385 0.23465
C_ C_ 0.382209 0.250001 0.94535 0.23465
C_ C_ 0.15817 0.249989 0.9212 -0.11473
C_ C_ 0.408171 0.25 0.9212 -0.11473
C_ C_ 0.0949035 0.250012 0.62233 0.17695
C_ C_ 0.344906 0.250003 0.62233 0.17695
C_ C_ 0.14716 0.250006 0.618515 0.17695
C_ C_ 0.397162 0.250004 0.618515 0.17695
C_ C_ 0.146103 0.250007 0.57498 -0.11473
C_ C_ 0.396105 0.250004 0.57495 -0.11473
C_ C_ 0.117795 0.25001 0.5545 0.23465
C_ C_ 0.367796 0.250003 0.5546 0.23465
C_ C_ 0.0918331 0.250014 0.57878 -0.11473
C_ C_ 0.341834 0.250003 0.57878 -0.11473
C_ C_ 0.0310425 0.499998 0.74981 0.05793
C_ C_ 0.281045 0.499998 0.74981 0.05793
C_ C_ 0.218959 8.52271e-07 0.75017 0.05793
C_ C_ 0.46896 1.000000543018 0.75017 0.05793
Br Br 0.0743375 0.499997 0.74991 -0.17191
Br Br 0.32434 0.499996 0.74991 -0.17191
Br Br 0.175664 3.63903e-06 0.75007 -0.17191
Br Br 0.425665 1.00000302052 0.75007 -0.17191
N_ N_ 0.127942 0.249996 0.8582 -0.272
N_ N_ 0.377944 0.25 0.8582 -0.272
N_ N_ 0.137098 0.249993 0.989575 -0.12501
N_ N_ 0.387098 0.250001 0.989575 -0.12501
N_ N_ 0.12206 0.250007 0.641755 -0.272
N_ N_ 0.372062 0.250004 0.641755 -0.272
N_ N_ 0.112906 0.250011 0.510405 -0.12501
N_ N_ 0.362907 0.250003 0.510405 -0.12501
O_ O_ 0.0924796 0.295258 0.715205 -0.60745
O_ O_ 0.342482 0.295258 0.715205 -0.60745
O_ O_ 0.092603 0.295156 0.786475 -0.60745
O_ O_ 0.342605 0.295156 0.786475 -0.60745
O_ O_ 0.157523 0.295259 0.784775 -0.60745
O_ O_ 0.407525 0.295258 0.784775 -0.60745
O_ O_ 0.157399 0.295159 0.713505 -0.60745
O_ O_ 0.407401 0.295159 0.713505 -0.60745
O_ O_ 0.157523 0.204745 0.784775 -0.60745
O_ O_ 0.407524 0.204745 0.784775 -0.60745
O_ O_ 0.157399 0.204847 0.713505 -0.60745
O_ O_ 0.407401 0.204847 0.713505 -0.60745
O_ O_ 0.0924796 0.204744 0.715205 -0.60745
O_ O_ 0.342481 0.204745 0.715205 -0.60745
O_ O_ 0.0926026 0.204845 0.786475 -0.60745
O_ O_ 0.342605 0.204845 0.786475 -0.60745
Zn Zn 0.125109 0.750001 0.2932 0.9476
Zn Zn 0.375109 0.750001 0.2932 0.9476
Zn Zn 0.124895 0.750002 0.20678 0.9476
Zn Zn 0.374897 0.750002 0.20678 0.9476
H_ H_ 0.034677 0.918408 0.18246 0.10932
H_ H_ 0.284679 0.918408 0.18246 0.10932
H_ H_ 0.063697 0.851169 0.31757 0.10932
H_ H_ 0.3137 0.851169 0.31757 0.10932
H_ H_ 0.0640934 0.852466 0.183055 0.10932
H_ H_ 0.314096 0.852466 0.183055 0.10932
H_ H_ 0.0341925 0.917025 0.31752 0.10932
H_ H_ 0.284195 0.917025 0.31752 0.10932
H_ H_ 0.215323 0.918405 0.31752 0.10932
H_ H_ 0.465325 0.918404 0.31752 0.10932
H_ H_ 0.186305 0.851176 0.18241 0.10932
H_ H_ 0.436307 0.851176 0.18241 0.10932
H_ H_ 0.185907 0.852465 0.316925 0.10932
H_ H_ 0.435909 0.852465 0.316925 0.10932
H_ H_ 0.215809 0.917029 0.18246 0.10932
H_ H_ 0.465811 0.91703 0.18246 0.10932
H_ H_ 0.215325 0.581596 0.31752 0.10932
H_ H_ 0.465327 0.581596 0.31752 0.10932
H_ H_ 0.186306 0.648834 0.18241 0.10932
H_ H_ 0.436306 0.648834 0.18241 0.10932
H_ H_ 0.185909 0.647537 0.316925 0.10932
H_ H_ 0.43591 0.647537 0.3169 0.10932
H_ H_ 0.21581 0.582979 0.18246 0.10932
H_ H_ 0.465811 0.582978 0.18246 0.10932
H_ H_ 0.0346786 0.581599 0.18246 0.10932
H_ H_ 0.284682 0.581598 0.18246 0.10932
H_ H_ 0.0636964 0.648828 0.31757 0.10932
H_ H_ 0.3137 0.648827 0.31757 0.10932
H_ H_ 0.0640944 0.647538 0.183055 0.10932
H_ H_ 0.314098 0.647538 0.183055 0.10932
H_ H_ 0.0341925 0.582974 0.31752 0.10932
H_ H_ 0.284195 0.582974 0.31752 0.10932
H_ H_ 0.17444 0.749989 0.35713 0.10932
H_ H_ 0.424442 0.75 0.35713 0.10932
H_ H_ 0.0816266 0.749999 0.363685 0.10932
H_ H_ 0.331628 0.749999 0.363685 0.10932
H_ H_ 0.0834356 0.749998 0.44315 0.10932
H_ H_ 0.333437 0.75 0.443185 0.10932
H_ H_ 0.180257 0.749985 0.436625 0.10932
H_ H_ 0.430259 0.75 0.436625 0.10932
H_ H_ 0.0755626 0.750014 0.14285 0.10932
H_ H_ 0.325564 0.750003 0.14285 0.10932
H_ H_ 0.168376 0.750004 0.136 0.10932
H_ H_ 0.418378 0.750004 0.136295 0.10932
H_ H_ 0.166567 0.750005 0.0567949 0.10932
H_ H_ 0.416569 0.750004 0.0567949 0.10932
H_ H_ 0.069745 0.750018 0.063355 0.10932
H_ H_ 0.319747 0.750003 0.063355 0.10932
C_ C_ 0.0655484 0.847806 0.2503 -0.02249
C_ C_ 0.31555 0.847806 0.2503 -0.02249
C_ C_ 0.0158784 0.961942 0.24989 -0.02249
C_ C_ 0.26588 0.961942 0.24989 -0.02249
C_ C_ 0.0408276 0.903466 0.21211 -0.11473
C_ C_ 0.29083 0.903466 0.21211 -0.11473
C_ C_ 0.0569361 0.86601 0.28815 -0.11473
C_ C_ 0.306939 0.86601 0.28815 -0.11473
C_ C_ 0.0571635 0.866738 0.21229 -0.11473
C_ C_ 0.307166 0.866738 0.21229 -0.11473
C_ C_ 0.0325766 0.921985 0.24997 -0.02249
C_ C_ 0.282579 0.921985 0.24997 -0.02249
C_ C_ 0.0847835 0.809704 0.25067 0.6875
C_ C_ 0.334786 0.809705 0.25067 0.6875
C_ C_ 0.0405625 0.902699 0.287995 -0.11473
C_ C_ 0.290565 0.902699 0.287995 -0.11473
C_ C_ 0.184453 0.847809 0.2495 -0.02249
C_ C_ 0.434455 0.847809 0.249645 -0.02249
C_ C_ 0.234124 0.961943 0.25009 -0.02249
C_ C_ 0.484126 0.961943 0.25009 -0.02249
C_ C_ 0.209173 0.903466 0.28787 -0.11473
C_ C_ 0.459175 0.903466 0.28787 -0.11473
C_ C_ 0.193065 0.866014 0.2118 -0.11473
C_ C_ 0.443067 0.866014 0.211805 -0.11473
C_ C_ 0.192837 0.866739 0.28769 -0.11473
C_ C_ 0.442839 0.866738 0.28769 -0.11473
C_ C_ 0.217425 0.921987 0.25001 -0.02249
C_ C_ 0.467427 0.921987 0.25001 -0.02249
C_ C_ 0.165218 0.809706 0.24931 0.6875
C_ C_ 0.41522 0.809706 0.24931 0.6875
C_ C_ 0.209438 0.902703 0.211985 -0.11473
C_ C_ 0.45944 0.902703 0.211985 -0.11473
C_ C_ 0.184454 0.652197 0.24965 -0.02249
C_ C_ 0.434456 0.652197 0.24965 -0.02249
C_ C_ 0.234124 0.538062 0.25009 -0.02249
C_ C_ 0.484126 0.538061 0.25009 -0.02249
C_ C_ 0.209175 0.596537 0.28787 -0.11473
C_ C_ 0.459176 0.596537 0.28787 -0.11473
C_ C_ 0.193066 0.633993 0.21181 -0.11473
C_ C_ 0.443068 0.633993 0.21181 -0.11473
C_ C_ 0.192839 0.633266 0.28769 -0.11473
C_ C_ 0.44284 0.633265 0.28769 -0.11473
C_ C_ 0.217426 0.578019 0.25001 -0.02249
C_ C_ 0.467428 0.578019 0.25001 -0.02249
C_ C_ 0.165218 0.690299 0.24931 0.6875
C_ C_ 0.41522 0.690299 0.24931 0.6875
C_ C_ 0.209439 0.597305 0.211985 -0.11473
C_ C_ 0.459441 0.597304 0.211985 -0.11473
C_ C_ 0.0655489 0.652195 0.250335 -0.02249
C_ C_ 0.315552 0.652194 0.250335 -0.02249
C_ C_ 0.0158779 0.53806 0.24989 -0.02249
C_ C_ 0.265881 0.53806 0.24989 -0.02249
C_ C_ 0.0408286 0.596537 0.21211 -0.11473
C_ C_ 0.290832 0.596537 0.21211 -0.11473
C_ C_ 0.0569365 0.633989 0.288175 -0.11473
C_ C_ 0.306939 0.633989 0.288175 -0.11473
C_ C_ 0.0571649 0.633265 0.21229 -0.11473
C_ C_ 0.307168 0.633265 0.21229 -0.11473
C_ C_ 0.0325771 0.578017 0.24997 -0.02249
C_ C_ 0.28258 0.578016 0.24997 -0.02249
C_ C_ 0.0847839 0.690298 0.25067 0.6875
C_ C_ 0.334787 0.690297 0.25067 0.6875
C_ C_ 0.040563 0.597301 0.287995 -0.11473
C_ C_ 0.290566 0.5973 0.287995 -0.11473
C_ C_ 0.155099 0.749992 0.37765 0.17695
C_ C_ 0.405101 0.75 0.37765 0.17695
C_ C_ 0.102843 0.749998 0.38145 0.17695
C_ C_ 0.352844 0.749999 0.381465 0.17695
C_ C_ 0.103899 0.749996 0.425005 -0.11473
C_ C_ 0.3539 0.75 0.425 -0.11473
C_ C_ 0.132208 0.749993 0.445385 0.23465
C_ C_ 0.382209 0.750001 0.44535 0.23465
C_ C_ 0.158169 0.749989 0.4212 -0.11473
C_ C_ 0.408171 0.75 0.4212 -0.11473
C_ C_ 0.0949034 0.750012 0.12233 0.17695
C_ C_ 0.344905 0.750003 0.12233 0.17695
C_ C_ 0.14716 0.750006 0.118515 0.17695
C_ C_ 0.397162 0.750004 0.118515 0.17695
C_ C_ 0.146103 0.750007 0.0749799 -0.11473
C_ C_ 0.396106 0.750004 0.07495 -0.11473
C_ C_ 0.117794 0.75001 0.0545001 0.23465
C_ C_ 0.367796 0.750003 0.0546 0.23465
C_ C_ 0.0918329 0.750014 0.0787801 -0.11473
C_ C_ 0.341835 0.750003 0.0787801 -0.11473
C_ C_ 0.0310426 0.999998 0.24981 0.05793
C_ C_ 0.281045 0.999998 0.24981 0.05793
C_ C_ 0.218958 0.500001 0.25017 0.05793
C_ C_ 0.46896 0.500001 0.25017 0.05793
Br Br 0.0743376 -2.9999999999752447e-06 0.24991 -0.17191
Br Br 0.32434 0.999996 0.24991 -0.17191
Br Br 0.175663 0.500003 0.25007 -0.17191
Br Br 0.425665 0.500003 0.25007 -0.17191
N_ N_ 0.127942 0.749996 0.3582 -0.272
N_ N_ 0.377945 0.75 0.3582 -0.272
N_ N_ 0.137097 0.749993 0.489575 -0.12501
N_ N_ 0.387098 0.750001 0.489575 -0.12501
N_ N_ 0.122059 0.750007 0.141755 -0.272
N_ N_ 0.372062 0.750004 0.141755 -0.272
N_ N_ 0.112906 0.750011 0.0104049 -0.12501
N_ N_ 0.362907 0.750003 0.0104049 -0.12501
O_ O_ 0.0924794 0.795258 0.215205 -0.60745
O_ O_ 0.342481 0.795258 0.215205 -0.60745
O_ O_ 0.0926031 0.795156 0.286475 -0.60745
O_ O_ 0.342604 0.795156 0.286475 -0.60745
O_ O_ 0.157522 0.795259 0.284775 -0.60745
O_ O_ 0.407524 0.795259 0.284775 -0.60745
O_ O_ 0.157399 0.795158 0.213505 -0.60745
O_ O_ 0.407402 0.795158 0.213505 -0.60745
O_ O_ 0.157522 0.704745 0.284775 -0.60745
O_ O_ 0.407525 0.704745 0.284775 -0.60745
O_ O_ 0.157399 0.704847 0.213505 -0.60745
O_ O_ 0.407401 0.704847 0.213505 -0.60745
O_ O_ 0.0924795 0.704745 0.215205 -0.60745
O_ O_ 0.342481 0.704745 0.215205 -0.60745
O_ O_ 0.0926024 0.704845 0.286475 -0.60745
O_ O_ 0.342604 0.704845 0.286475 -0.60745
Zn Zn 0.125109 0.750001 0.7932 0.9476
Zn Zn 0.375109 0.750001 0.7932 0.9476
Zn Zn 0.124894 0.750002 0.70678 0.9476
Zn Zn 0.374896 0.750002 0.70678 0.9476
H_ H_ 0.0346771 0.918407 0.68246 0.10932
H_ H_ 0.28468 0.918407 0.68246 0.10932
H_ H_ 0.0636971 0.851169 0.81757 0.10932
H_ H_ 0.3137 0.851169 0.81757 0.10932
H_ H_ 0.0640935 0.852466 0.683055 0.10932
H_ H_ 0.314096 0.852466 0.683055 0.10932
H_ H_ 0.0341926 0.917025 0.81752 0.10932
H_ H_ 0.284195 0.917025 0.81752 0.10932
H_ H_ 0.215323 0.918405 0.81752 0.10932
H_ H_ 0.465325 0.918405 0.81752 0.10932
H_ H_ 0.186305 0.851176 0.68241 0.10932
H_ H_ 0.436307 0.851176 0.68241 0.10932
H_ H_ 0.185907 0.852465 0.816925 0.10932
H_ H_ 0.435909 0.852465 0.816925 0.10932
H_ H_ 0.215809 0.917029 0.68246 0.10932
H_ H_ 0.465811 0.91703 0.68246 0.10932
H_ H_ 0.215325 0.581596 0.81752 0.10932
H_ H_ 0.465327 0.581595 0.81752 0.10932
H_ H_ 0.186305 0.648834 0.68241 0.10932
H_ H_ 0.436307 0.648834 0.68241 0.10932
H_ H_ 0.185909 0.647537 0.816925 0.10932
H_ H_ 0.43591 0.647537 0.8169 0.10932
H_ H_ 0.21581 0.582979 0.68246 0.10932
H_ H_ 0.465811 0.582978 0.68246 0.10932
H_ H_ 0.0346784 0.581599 0.68246 0.10932
H_ H_ 0.284682 0.581598 0.68246 0.10932
H_ H_ 0.0636965 0.648828 0.81757 0.10932
H_ H_ 0.313699 0.648827 0.81757 0.10932
H_ H_ 0.0640945 0.647538 0.683055 0.10932
H_ H_ 0.314098 0.647538 0.683055 0.10932
H_ H_ 0.0341926 0.582974 0.81752 0.10932
H_ H_ 0.284195 0.582974 0.81752 0.10932
H_ H_ 0.17444 0.749989 0.85713 0.10932
H_ H_ 0.424441 0.75 0.85713 0.10932
H_ H_ 0.0816264 0.749999 0.863685 0.10932
H_ H_ 0.331628 0.749999 0.863685 0.10932
H_ H_ 0.0834354 0.749998 0.94315 0.10932
H_ H_ 0.333437 0.75 0.943185 0.10932
H_ H_ 0.180258 0.749985 0.936625 0.10932
H_ H_ 0.430259 0.75 0.936625 0.10932
H_ H_ 0.0755624 0.750014 0.64285 0.10932
H_ H_ 0.325564 0.750003 0.64285 0.10932
H_ H_ 0.168376 0.750004 0.636 0.10932
H_ H_ 0.418378 0.750004 0.636295 0.10932
H_ H_ 0.166567 0.750005 0.556795 0.10932
H_ H_ 0.416569 0.750004 0.556795 0.10932
H_ H_ 0.069745 0.750018 0.563355 0.10932
H_ H_ 0.319747 0.750003 0.563355 0.10932
C_ C_ 0.0655485 0.847806 0.7503 -0.02249
C_ C_ 0.315551 0.847806 0.7503 -0.02249
C_ C_ 0.0158785 0.961942 0.74989 -0.02249
C_ C_ 0.265881 0.961942 0.74989 -0.02249
C_ C_ 0.0408275 0.903466 0.71211 -0.11473
C_ C_ 0.29083 0.903466 0.71211 -0.11473
C_ C_ 0.056936 0.86601 0.78815 -0.11473
C_ C_ 0.306938 0.86601 0.78815 -0.11473
C_ C_ 0.0571636 0.866738 0.71229 -0.11473
C_ C_ 0.307166 0.866738 0.71229 -0.11473
C_ C_ 0.0325764 0.921985 0.74997 -0.02249
C_ C_ 0.282578 0.921985 0.74997 -0.02249
C_ C_ 0.0847836 0.809704 0.75067 0.6875
C_ C_ 0.334787 0.809705 0.75067 0.6875
C_ C_ 0.0405626 0.902699 0.787995 -0.11473
C_ C_ 0.290565 0.902699 0.787995 -0.11473
C_ C_ 0.184453 0.847809 0.7495 -0.02249
C_ C_ 0.434455 0.847809 0.749645 -0.02249
C_ C_ 0.234124 0.961943 0.75009 -0.02249
C_ C_ 0.484125 0.961943 0.75009 -0.02249
C_ C_ 0.209173 0.903466 0.78787 -0.11473
C_ C_ 0.459175 0.903466 0.78787 -0.11473
C_ C_ 0.193065 0.866014 0.7118 -0.11473
C_ C_ 0.443068 0.866014 0.711805 -0.11473
C_ C_ 0.192837 0.866738 0.78769 -0.11473
C_ C_ 0.442839 0.866738 0.78769 -0.11473
C_ C_ 0.217425 0.921987 0.75001 -0.02249
C_ C_ 0.467427 0.921987 0.75001 -0.02249
C_ C_ 0.165218 0.809706 0.74931 0.6875
C_ C_ 0.415219 0.809706 0.74931 0.6875
C_ C_ 0.209439 0.902703 0.711985 -0.11473
C_ C_ 0.459441 0.902703 0.711985 -0.11473
C_ C_ 0.184454 0.652197 0.74965 -0.02249
C_ C_ 0.434455 0.652197 0.74965 -0.02249
C_ C_ 0.234124 0.538062 0.75009 -0.02249
C_ C_ 0.484125 0.538061 0.75009 -0.02249
C_ C_ 0.209175 0.596537 0.78787 -0.11473
C_ C_ 0.459176 0.596537 0.78787 -0.11473
C_ C_ 0.193066 0.633993 0.71181 -0.11473
C_ C_ 0.443067 0.633993 0.71181 -0.11473
C_ C_ 0.192838 0.633266 0.78769 -0.11473
C_ C_ 0.44284 0.633265 0.78769 -0.11473
C_ C_ 0.217426 0.578019 0.75001 -0.02249
C_ C_ 0.467427 0.578019 0.75001 -0.02249
C_ C_ 0.165219 0.6903 0.74931 0.6875
C_ C_ 0.415219 0.690299 0.74931 0.6875
C_ C_ 0.209439 0.597305 0.711985 -0.11473
C_ C_ 0.45944 0.597304 0.711985 -0.11473
C_ C_ 0.065549 0.652195 0.750335 -0.02249
C_ C_ 0.315551 0.652194 0.750335 -0.02249
C_ C_ 0.015878 0.538061 0.74989 -0.02249
C_ C_ 0.265881 0.538061 0.74989 -0.02249
C_ C_ 0.0408284 0.596538 0.71211 -0.11473
C_ C_ 0.290832 0.596537 0.71211 -0.11473
C_ C_ 0.0569366 0.633989 0.788175 -0.11473
C_ C_ 0.306939 0.633989 0.788175 -0.11473
C_ C_ 0.057165 0.633265 0.71229 -0.11473
C_ C_ 0.307168 0.633265 0.71229 -0.11473
C_ C_ 0.032577 0.578017 0.74997 -0.02249
C_ C_ 0.282579 0.578016 0.74997 -0.02249
C_ C_ 0.084784 0.690298 0.75067 0.6875
C_ C_ 0.334787 0.690297 0.75067 0.6875
C_ C_ 0.0405631 0.597301 0.787995 -0.11473
C_ C_ 0.290566 0.5973 0.787995 -0.11473
C_ C_ 0.155099 0.749991 0.87765 0.17695
C_ C_ 0.405101 0.75 0.87765 0.17695
C_ C_ 0.102842 0.749998 0.88145 0.17695
C_ C_ 0.352844 0.749999 0.881465 0.17695
C_ C_ 0.103899 0.749996 0.925005 -0.11473
C_ C_ 0.353901 0.75 0.925 -0.11473
C_ C_ 0.132209 0.749993 0.945385 0.23465
C_ C_ 0.38221 0.750001 0.94535 0.23465
C_ C_ 0.15817 0.749989 0.9212 -0.11473
C_ C_ 0.408171 0.75 0.9212 -0.11473
C_ C_ 0.0949035 0.750012 0.62233 0.17695
C_ C_ 0.344906 0.750003 0.62233 0.17695
C_ C_ 0.14716 0.750006 0.618515 0.17695
C_ C_ 0.397162 0.750004 0.618515 0.17695
C_ C_ 0.146104 0.750007 0.57498 -0.11473
C_ C_ 0.396105 0.750004 0.57495 -0.11473
C_ C_ 0.117794 0.75001 0.5545 0.23465
C_ C_ 0.367796 0.750003 0.5546 0.23465
C_ C_ 0.091833 0.750014 0.57878 -0.11473
C_ C_ 0.341835 0.750003 0.57878 -0.11473
C_ C_ 0.0310425 -1.999999999946489e-06 0.74981 0.05793
C_ C_ 0.281045 -1.999999999946489e-06 0.74981 0.05793
C_ C_ 0.218958 0.500001 0.75017 0.05793
C_ C_ 0.46896 0.500001 0.75017 0.05793
Br Br 0.0743375 -2.9999999999752447e-06 0.74991 -0.17191
Br Br 0.32434 -4.000000000004e-06 0.74991 -0.17191
Br Br 0.175663 0.500004 0.75007 -0.17191
Br Br 0.425665 0.500003 0.75007 -0.17191
N_ N_ 0.127942 0.749996 0.8582 -0.272
N_ N_ 0.377944 0.75 0.8582 -0.272
N_ N_ 0.137098 0.749993 0.989575 -0.12501
N_ N_ 0.387098 0.750001 0.989575 -0.12501
N_ N_ 0.12206 0.750007 0.641755 -0.272
N_ N_ 0.372062 0.750004 0.641755 -0.272
N_ N_ 0.112907 0.750011 0.510405 -0.12501
N_ N_ 0.362907 0.750003 0.510405 -0.12501
O_ O_ 0.0924795 0.795258 0.715205 -0.60745
O_ O_ 0.342482 0.795258 0.715205 -0.60745
O_ O_ 0.0926029 0.795156 0.786475 -0.60745
O_ O_ 0.342605 0.795156 0.786475 -0.60745
O_ O_ 0.157523 0.795259 0.784775 -0.60745
O_ O_ 0.407525 0.795258 0.784775 -0.60745
O_ O_ 0.1574 0.795159 0.713505 -0.60745
O_ O_ 0.407402 0.795159 0.713505 -0.60745
O_ O_ 0.157523 0.704745 0.784775 -0.60745
O_ O_ 0.407525 0.704745 0.784775 -0.60745
O_ O_ 0.157399 0.704847 0.713505 -0.60745
O_ O_ 0.407401 0.704847 0.713505 -0.60745
O_ O_ 0.0924796 0.704744 0.715205 -0.60745
O_ O_ 0.342482 0.704745 0.715205 -0.60745
O_ O_ 0.0926025 0.704845 0.786475 -0.60745
O_ O_ 0.342605 0.704845 0.786475 -0.60745
Zn Zn 0.625109 0.250001 0.2932 0.9476
Zn Zn 0.875109 0.250001 0.2932 0.9476
Zn Zn 0.624895 0.250002 0.20678 0.9476
Zn Zn 0.874897 0.250002 0.20678 0.9476
H_ H_ 0.534677 0.418408 0.18246 0.10932
H_ H_ 0.78468 0.418408 0.18246 0.10932
H_ H_ 0.563697 0.351169 0.31757 0.10932
H_ H_ 0.8137 0.351169 0.31757 0.10932
H_ H_ 0.564093 0.352466 0.183055 0.10932
H_ H_ 0.814096 0.352466 0.183055 0.10932
H_ H_ 0.534193 0.417025 0.31752 0.10932
H_ H_ 0.784195 0.417025 0.31752 0.10932
H_ H_ 0.715323 0.418405 0.31752 0.10932
H_ H_ 0.965325 0.418404 0.31752 0.10932
H_ H_ 0.686305 0.351176 0.18241 0.10932
H_ H_ 0.936307 0.351176 0.18241 0.10932
H_ H_ 0.685907 0.352465 0.316925 0.10932
H_ H_ 0.935909 0.352465 0.316925 0.10932
H_ H_ 0.715809 0.417029 0.18246 0.10932
H_ H_ 0.965811 0.41703 0.18246 0.10932
H_ H_ 0.715325 0.0815959 0.31752 0.10932
H_ H_ 0.965327 0.0815955 0.31752 0.10932
H_ H_ 0.686306 0.148834 0.18241 0.10932
H_ H_ 0.936307 0.148834 0.18241 0.10932
H_ H_ 0.685909 0.147537 0.316925 0.10932
H_ H_ 0.93591 0.147537 0.3169 0.10932
H_ H_ 0.71581 0.0829786 0.18246 0.10932
H_ H_ 0.965811 0.082978 0.18246 0.10932
H_ H_ 0.534679 0.081599 0.18246 0.10932
H_ H_ 0.784682 0.0815981 0.18246 0.10932
H_ H_ 0.563696 0.148828 0.31757 0.10932
H_ H_ 0.813699 0.148827 0.31757 0.10932
H_ H_ 0.564094 0.147538 0.183055 0.10932
H_ H_ 0.814098 0.147538 0.183055 0.10932
H_ H_ 0.534193 0.0829739 0.31752 0.10932
H_ H_ 0.784195 0.0829736 0.31752 0.10932
H_ H_ 0.67444 0.249989 0.35713 0.10932
H_ H_ 0.924441 0.25 0.35713 0.10932
H_ H_ 0.581626 0.249999 0.363685 0.10932
H_ H_ 0.831628 0.249999 0.363685 0.10932
H_ H_ 0.583436 0.249998 0.44315 0.10932
H_ H_ 0.833437 0.25 0.443185 0.10932
H_ H_ 0.680257 0.249985 0.436625 0.10932
H_ H_ 0.930259 0.25 0.436625 0.10932
H_ H_ 0.575563 0.250014 0.14285 0.10932
H_ H_ 0.825564 0.250003 0.14285 0.10932
H_ H_ 0.668376 0.250004 0.136 0.10932
H_ H_ 0.918378 0.250004 0.136295 0.10932
H_ H_ 0.666567 0.250005 0.0567949 0.10932
H_ H_ 0.916569 0.250004 0.0567949 0.10932
H_ H_ 0.569745 0.250018 0.063355 0.10932
H_ H_ 0.819747 0.250003 0.063355 0.10932
C_ C_ 0.565548 0.347806 0.2503 -0.02249
C_ C_ 0.81555 0.347806 0.2503 -0.02249
C_ C_ 0.515878 0.461942 0.24989 -0.02249
C_ C_ 0.76588 0.461942 0.24989 -0.02249
C_ C_ 0.540827 0.403466 0.21211 -0.11473
C_ C_ 0.79083 0.403466 0.21211 -0.11473
C_ C_ 0.556936 0.36601 0.28815 -0.11473
C_ C_ 0.806938 0.36601 0.28815 -0.11473
C_ C_ 0.557164 0.366738 0.21229 -0.11473
C_ C_ 0.807166 0.366738 0.21229 -0.11473
C_ C_ 0.532577 0.421985 0.24997 -0.02249
C_ C_ 0.782578 0.421985 0.24997 -0.02249
C_ C_ 0.584784 0.309704 0.25067 0.6875
C_ C_ 0.834786 0.309705 0.25067 0.6875
C_ C_ 0.540563 0.402699 0.287995 -0.11473
C_ C_ 0.790565 0.402699 0.287995 -0.11473
C_ C_ 0.684453 0.347809 0.2495 -0.02249
C_ C_ 0.934455 0.347809 0.249645 -0.02249
C_ C_ 0.734124 0.461943 0.25009 -0.02249
C_ C_ 0.984126 0.461943 0.25009 -0.02249
C_ C_ 0.709173 0.403466 0.28787 -0.11473
C_ C_ 0.959175 0.403466 0.28787 -0.11473
C_ C_ 0.693065 0.366014 0.2118 -0.11473
C_ C_ 0.943067 0.366014 0.211805 -0.11473
C_ C_ 0.692837 0.366739 0.28769 -0.11473
C_ C_ 0.942839 0.366738 0.28769 -0.11473
C_ C_ 0.717425 0.421987 0.25001 -0.02249
C_ C_ 0.967427 0.421987 0.25001 -0.02249
C_ C_ 0.665218 0.309706 0.24931 0.6875
C_ C_ 0.915219 0.309706 0.24931 0.6875
C_ C_ 0.709439 0.402703 0.211985 -0.11473
C_ C_ 0.959441 0.402703 0.211985 -0.11473
C_ C_ 0.684454 0.152197 0.24965 -0.02249
C_ C_ 0.934456 0.152197 0.24965 -0.02249
C_ C_ 0.734124 0.0380616 0.25009 -0.02249
C_ C_ 0.984126 0.038061 0.25009 -0.02249
C_ C_ 0.709175 0.0965369 0.28787 -0.11473
C_ C_ 0.959176 0.0965366 0.28787 -0.11473
C_ C_ 0.693066 0.133993 0.21181 -0.11473
C_ C_ 0.943068 0.133993 0.21181 -0.11473
C_ C_ 0.692838 0.133266 0.28769 -0.11473
C_ C_ 0.94284 0.133265 0.28769 -0.11473
C_ C_ 0.717426 0.0780186 0.25001 -0.02249
C_ C_ 0.967427 0.0780186 0.25001 -0.02249
C_ C_ 0.665218 0.190299 0.24931 0.6875
C_ C_ 0.91522 0.190299 0.24931 0.6875
C_ C_ 0.709439 0.0973046 0.211985 -0.11473
C_ C_ 0.959441 0.097304 0.211985 -0.11473
C_ C_ 0.565549 0.152195 0.250335 -0.02249
C_ C_ 0.815551 0.152194 0.250335 -0.02249
C_ C_ 0.515878 0.0380603 0.24989 -0.02249
C_ C_ 0.765881 0.0380603 0.24989 -0.02249
C_ C_ 0.540829 0.0965374 0.21211 -0.11473
C_ C_ 0.790832 0.096537 0.21211 -0.11473
C_ C_ 0.556937 0.133989 0.288175 -0.11473
C_ C_ 0.806939 0.133989 0.288175 -0.11473
C_ C_ 0.557165 0.133265 0.21229 -0.11473
C_ C_ 0.807168 0.133265 0.21229 -0.11473
C_ C_ 0.532577 0.078017 0.24997 -0.02249
C_ C_ 0.782579 0.0780164 0.24997 -0.02249
C_ C_ 0.584784 0.190298 0.25067 0.6875
C_ C_ 0.834787 0.190297 0.25067 0.6875
C_ C_ 0.540563 0.097301 0.287995 -0.11473
C_ C_ 0.790566 0.0973004 0.287995 -0.11473
C_ C_ 0.655099 0.249992 0.37765 0.17695
C_ C_ 0.905101 0.25 0.37765 0.17695
C_ C_ 0.602842 0.249998 0.38145 0.17695
C_ C_ 0.852844 0.249999 0.381465 0.17695
C_ C_ 0.603899 0.249996 0.425005 -0.11473
C_ C_ 0.8539 0.25 0.425 -0.11473
C_ C_ 0.632208 0.249993 0.445385 0.23465
C_ C_ 0.88221 0.250001 0.44535 0.23465
C_ C_ 0.658169 0.249989 0.4212 -0.11473
C_ C_ 0.908171 0.25 0.4212 -0.11473
C_ C_ 0.594903 0.250012 0.12233 0.17695
C_ C_ 0.844905 0.250003 0.12233 0.17695
C_ C_ 0.64716 0.250006 0.118515 0.17695
C_ C_ 0.897162 0.250004 0.118515 0.17695
C_ C_ 0.646104 0.250007 0.0749799 -0.11473
C_ C_ 0.896106 0.250004 0.07495 -0.11473
C_ C_ 0.617794 0.25001 0.0545001 0.23465
C_ C_ 0.867796 0.250003 0.0546 0.23465
C_ C_ 0.591833 0.250014 0.0787801 -0.11473
C_ C_ 0.841835 0.250003 0.0787801 -0.11473
C_ C_ 0.531042 0.499998 0.24981 0.05793
C_ C_ 0.781045 0.499998 0.24981 0.05793
C_ C_ 0.718958 1.000000898658 0.25017 0.05793
C_ C_ 0.96896 1.000000589405 0.25017 0.05793
Br Br 0.574337 0.499997 0.24991 -0.17191
Br Br 0.82434 0.499996 0.24991 -0.17191
Br Br 0.675663 3.37616e-06 0.25007 -0.17191
Br Br 0.925665 3.06691e-06 0.25007 -0.17191
N_ N_ 0.627942 0.249996 0.3582 -0.272
N_ N_ 0.877944 0.25 0.3582 -0.272
N_ N_ 0.637098 0.249993 0.489575 -0.12501
N_ N_ 0.887098 0.250001 0.489575 -0.12501
N_ N_ 0.62206 0.250007 0.141755 -0.272
N_ N_ 0.872062 0.250004 0.141755 -0.272
N_ N_ 0.612907 0.250011 0.0104049 -0.12501
N_ N_ 0.862907 0.250003 0.0104049 -0.12501
O_ O_ 0.592479 0.295258 0.215205 -0.60745
O_ O_ 0.842482 0.295258 0.215205 -0.60745
O_ O_ 0.592603 0.295156 0.286475 -0.60745
O_ O_ 0.842604 0.295156 0.286475 -0.60745
O_ O_ 0.657522 0.295259 0.284775 -0.60745
O_ O_ 0.907525 0.295259 0.284775 -0.60745
O_ O_ 0.6574 0.295158 0.213505 -0.60745
O_ O_ 0.907402 0.295158 0.213505 -0.60745
O_ O_ 0.657523 0.204745 0.284775 -0.60745
O_ O_ 0.907525 0.204745 0.284775 -0.60745
O_ O_ 0.657399 0.204847 0.213505 -0.60745
O_ O_ 0.907401 0.204847 0.213505 -0.60745
O_ O_ 0.59248 0.204745 0.215205 -0.60745
O_ O_ 0.842482 0.204745 0.215205 -0.60745
O_ O_ 0.592602 0.204845 0.286475 -0.60745
O_ O_ 0.842604 0.204845 0.286475 -0.60745
Zn Zn 0.625108 0.250001 0.7932 0.9476
Zn Zn 0.87511 0.250001 0.7932 0.9476
Zn Zn 0.624894 0.250002 0.70678 0.9476
Zn Zn 0.874896 0.250002 0.70678 0.9476
H_ H_ 0.534677 0.418407 0.68246 0.10932
H_ H_ 0.78468 0.418407 0.68246 0.10932
H_ H_ 0.563697 0.351169 0.81757 0.10932
H_ H_ 0.813699 0.351169 0.81757 0.10932
H_ H_ 0.564094 0.352466 0.683055 0.10932
H_ H_ 0.814096 0.352466 0.683055 0.10932
H_ H_ 0.534192 0.417025 0.81752 0.10932
H_ H_ 0.784195 0.417025 0.81752 0.10932
H_ H_ 0.715323 0.418405 0.81752 0.10932
H_ H_ 0.965325 0.418405 0.81752 0.10932
H_ H_ 0.686305 0.351176 0.68241 0.10932
H_ H_ 0.936307 0.351176 0.68241 0.10932
H_ H_ 0.685907 0.352465 0.816925 0.10932
H_ H_ 0.935909 0.352465 0.816925 0.10932
H_ H_ 0.715809 0.417029 0.68246 0.10932
H_ H_ 0.965811 0.41703 0.68246 0.10932
H_ H_ 0.715325 0.0815961 0.81752 0.10932
H_ H_ 0.965326 0.0815955 0.81752 0.10932
H_ H_ 0.686305 0.148834 0.68241 0.10932
H_ H_ 0.936307 0.148834 0.68241 0.10932
H_ H_ 0.685908 0.147537 0.816925 0.10932
H_ H_ 0.93591 0.147537 0.8169 0.10932
H_ H_ 0.71581 0.0829785 0.68246 0.10932
H_ H_ 0.965811 0.0829779 0.68246 0.10932
H_ H_ 0.534678 0.0815989 0.68246 0.10932
H_ H_ 0.784682 0.081598 0.68246 0.10932
H_ H_ 0.563697 0.148828 0.81757 0.10932
H_ H_ 0.8137 0.148827 0.81757 0.10932
H_ H_ 0.564095 0.147538 0.683055 0.10932
H_ H_ 0.814098 0.147538 0.683055 0.10932
H_ H_ 0.534193 0.0829738 0.81752 0.10932
H_ H_ 0.784195 0.0829735 0.81752 0.10932
H_ H_ 0.67444 0.249989 0.85713 0.10932
H_ H_ 0.924442 0.25 0.85713 0.10932
H_ H_ 0.581626 0.249999 0.863685 0.10932
H_ H_ 0.831628 0.249999 0.863685 0.10932
H_ H_ 0.583435 0.249998 0.94315 0.10932
H_ H_ 0.833437 0.25 0.943185 0.10932
H_ H_ 0.680258 0.249985 0.936625 0.10932
H_ H_ 0.930259 0.25 0.936625 0.10932
H_ H_ 0.575562 0.250014 0.64285 0.10932
H_ H_ 0.825564 0.250003 0.64285 0.10932
H_ H_ 0.668376 0.250004 0.636 0.10932
H_ H_ 0.918378 0.250004 0.636295 0.10932
H_ H_ 0.666567 0.250005 0.556795 0.10932
H_ H_ 0.916569 0.250004 0.556795 0.10932
H_ H_ 0.569745 0.250018 0.563355 0.10932
H_ H_ 0.819746 0.250003 0.563355 0.10932
C_ C_ 0.565549 0.347806 0.7503 -0.02249
C_ C_ 0.815551 0.347806 0.7503 -0.02249
C_ C_ 0.515879 0.461942 0.74989 -0.02249
C_ C_ 0.765881 0.461942 0.74989 -0.02249
C_ C_ 0.540827 0.403466 0.71211 -0.11473
C_ C_ 0.79083 0.403466 0.71211 -0.11473
C_ C_ 0.556936 0.36601 0.78815 -0.11473
C_ C_ 0.806939 0.36601 0.78815 -0.11473
C_ C_ 0.557163 0.366738 0.71229 -0.11473
C_ C_ 0.807166 0.366738 0.71229 -0.11473
C_ C_ 0.532576 0.421985 0.74997 -0.02249
C_ C_ 0.782579 0.421985 0.74997 -0.02249
C_ C_ 0.584783 0.309704 0.75067 0.6875
C_ C_ 0.834787 0.309705 0.75067 0.6875
C_ C_ 0.540562 0.402699 0.787995 -0.11473
C_ C_ 0.790565 0.402699 0.787995 -0.11473
C_ C_ 0.684452 0.347809 0.7495 -0.02249
C_ C_ 0.934455 0.347809 0.749645 -0.02249
C_ C_ 0.734123 0.461943 0.75009 -0.02249
C_ C_ 0.984125 0.461943 0.75009 -0.02249
C_ C_ 0.709173 0.403466 0.78787 -0.11473
C_ C_ 0.959175 0.403466 0.78787 -0.11473
C_ C_ 0.693065 0.366014 0.7118 -0.11473
C_ C_ 0.943068 0.366014 0.711805 -0.11473
C_ C_ 0.692837 0.366738 0.78769 -0.11473
C_ C_ 0.942839 0.366738 0.78769 -0.11473
C_ C_ 0.717425 0.421987 0.75001 -0.02249
C_ C_ 0.967427 0.421987 0.75001 -0.02249
C_ C_ 0.665218 0.309706 0.74931 0.6875
C_ C_ 0.91522 0.309706 0.74931 0.6875
C_ C_ 0.709439 0.402703 0.711985 -0.11473
C_ C_ 0.95944 0.402703 0.711985 -0.11473
C_ C_ 0.684454 0.152197 0.74965 -0.02249
C_ C_ 0.934455 0.152197 0.74965 -0.02249
C_ C_ 0.734124 0.0380615 0.75009 -0.02249
C_ C_ 0.984125 0.0380609 0.75009 -0.02249
C_ C_ 0.709175 0.0965368 0.78787 -0.11473
C_ C_ 0.959176 0.0965365 0.78787 -0.11473
C_ C_ 0.693066 0.133993 0.71181 -0.11473
C_ C_ 0.943067 0.133993 0.71181 -0.11473
C_ C_ 0.692839 0.133266 0.78769 -0.11473
C_ C_ 0.94284 0.133265 0.78769 -0.11473
C_ C_ 0.717426 0.0780185 0.75001 -0.02249
C_ C_ 0.967428 0.0780185 0.75001 -0.02249
C_ C_ 0.665219 0.1903 0.74931 0.6875
C_ C_ 0.915219 0.190299 0.74931 0.6875
C_ C_ 0.70944 0.0973046 0.711985 -0.11473
C_ C_ 0.95944 0.0973039 0.711985 -0.11473
C_ C_ 0.565549 0.152195 0.750335 -0.02249
C_ C_ 0.815552 0.152194 0.750335 -0.02249
C_ C_ 0.515878 0.0380606 0.74989 -0.02249
C_ C_ 0.765881 0.0380606 0.74989 -0.02249
C_ C_ 0.540828 0.0965376 0.71211 -0.11473
C_ C_ 0.790832 0.096537 0.71211 -0.11473
C_ C_ 0.556936 0.133989 0.788175 -0.11473
C_ C_ 0.806939 0.133989 0.788175 -0.11473
C_ C_ 0.557165 0.133265 0.71229 -0.11473
C_ C_ 0.807168 0.133265 0.71229 -0.11473
C_ C_ 0.532577 0.078017 0.74997 -0.02249
C_ C_ 0.782579 0.0780164 0.74997 -0.02249
C_ C_ 0.584784 0.190298 0.75067 0.6875
C_ C_ 0.834787 0.190297 0.75067 0.6875
C_ C_ 0.540563 0.097301 0.787995 -0.11473
C_ C_ 0.790566 0.0973004 0.787995 -0.11473
C_ C_ 0.655098 0.249991 0.87765 0.17695
C_ C_ 0.9051 0.25 0.87765 0.17695
C_ C_ 0.602843 0.249998 0.88145 0.17695
C_ C_ 0.852844 0.249999 0.881465 0.17695
C_ C_ 0.603899 0.249996 0.925005 -0.11473
C_ C_ 0.853901 0.25 0.925 -0.11473
C_ C_ 0.632209 0.249993 0.945385 0.23465
C_ C_ 0.882209 0.250001 0.94535 0.23465
C_ C_ 0.65817 0.249989 0.9212 -0.11473
C_ C_ 0.908171 0.25 0.9212 -0.11473
C_ C_ 0.594904 0.250012 0.62233 0.17695
C_ C_ 0.844906 0.250003 0.62233 0.17695
C_ C_ 0.64716 0.250006 0.618515 0.17695
C_ C_ 0.897162 0.250004 0.618515 0.17695
C_ C_ 0.646103 0.250007 0.57498 -0.11473
C_ C_ 0.896105 0.250004 0.57495 -0.11473
C_ C_ 0.617795 0.25001 0.5545 0.23465
C_ C_ 0.867796 0.250003 0.5546 0.23465
C_ C_ 0.591833 0.250014 0.57878 -0.11473
C_ C_ 0.841834 0.250003 0.57878 -0.11473
C_ C_ 0.531043 0.499998 0.74981 0.05793
C_ C_ 0.781045 0.499998 0.74981 0.05793
C_ C_ 0.718959 8.52271e-07 0.75017 0.05793
C_ C_ 0.96896 5.43018e-07 0.75017 0.05793
Br Br 0.574338 0.499997 0.74991 -0.17191
Br Br 0.82434 0.499996 0.74991 -0.17191
Br Br 0.675664 3.63903e-06 0.75007 -0.17191
Br Br 0.925665 3.02052e-06 0.75007 -0.17191
N_ N_ 0.627942 0.249996 0.8582 -0.272
N_ N_ 0.877944 0.25 0.8582 -0.272
N_ N_ 0.637098 0.249993 0.989575 -0.12501
N_ N_ 0.887098 0.250001 0.989575 -0.12501
N_ N_ 0.62206 0.250007 0.641755 -0.272
N_ N_ 0.872062 0.250004 0.641755 -0.272
N_ N_ 0.612906 0.250011 0.510405 -0.12501
N_ N_ 0.862907 0.250003 0.510405 -0.12501
O_ O_ 0.59248 0.295258 0.715205 -0.60745
O_ O_ 0.842482 0.295258 0.715205 -0.60745
O_ O_ 0.592603 0.295156 0.786475 -0.60745
O_ O_ 0.842605 0.295156 0.786475 -0.60745
O_ O_ 0.657523 0.295259 0.784775 -0.60745
O_ O_ 0.907525 0.295258 0.784775 -0.60745
O_ O_ 0.657399 0.295159 0.713505 -0.60745
O_ O_ 0.907401 0.295159 0.713505 -0.60745
O_ O_ 0.657523 0.204745 0.784775 -0.60745
O_ O_ 0.907524 0.204745 0.784775 -0.60745
O_ O_ 0.657399 0.204847 0.713505 -0.60745
O_ O_ 0.907401 0.204847 0.713505 -0.60745
O_ O_ 0.59248 0.204744 0.715205 -0.60745
O_ O_ 0.842481 0.204745 0.715205 -0.60745
O_ O_ 0.592603 0.204845 0.786475 -0.60745
O_ O_ 0.842605 0.204845 0.786475 -0.60745
Zn Zn 0.625109 0.750001 0.2932 0.9476
Zn Zn 0.875109 0.750001 0.2932 0.9476
Zn Zn 0.624895 0.750002 0.20678 0.9476
Zn Zn 0.874897 0.750002 0.20678 0.9476
H_ H_ 0.534677 0.918408 0.18246 0.10932
H_ H_ 0.784679 0.918408 0.18246 0.10932
H_ H_ 0.563697 0.851169 0.31757 0.10932
H_ H_ 0.8137 0.851169 0.31757 0.10932
H_ H_ 0.564093 0.852466 0.183055 0.10932
H_ H_ 0.814096 0.852466 0.183055 0.10932
H_ H_ 0.534193 0.917025 0.31752 0.10932
H_ H_ 0.784195 0.917025 0.31752 0.10932
H_ H_ 0.715323 0.918405 0.31752 0.10932
H_ H_ 0.965325 0.918404 0.31752 0.10932
H_ H_ 0.686305 0.851176 0.18241 0.10932
H_ H_ 0.936307 0.851176 0.18241 0.10932
H_ H_ 0.685907 0.852465 0.316925 0.10932
H_ H_ 0.935909 0.852465 0.316925 0.10932
H_ H_ 0.715809 0.917029 0.18246 0.10932
H_ H_ 0.965811 0.91703 0.18246 0.10932
H_ H_ 0.715325 0.581596 0.31752 0.10932
H_ H_ 0.965327 0.581596 0.31752 0.10932
H_ H_ 0.686306 0.648834 0.18241 0.10932
H_ H_ 0.936306 0.648834 0.18241 0.10932
H_ H_ 0.685909 0.647537 0.316925 0.10932
H_ H_ 0.93591 0.647537 0.3169 0.10932
H_ H_ 0.71581 0.582979 0.18246 0.10932
H_ H_ 0.965811 0.582978 0.18246 0.10932
H_ H_ 0.534679 0.581599 0.18246 0.10932
H_ H_ 0.784682 0.581598 0.18246 0.10932
H_ H_ 0.563696 0.648828 0.31757 0.10932
H_ H_ 0.8137 0.648827 0.31757 0.10932
H_ H_ 0.564094 0.647538 0.183055 0.10932
H_ H_ 0.814098 0.647538 0.183055 0.10932
H_ H_ 0.534192 0.582974 0.31752 0.10932
H_ H_ 0.784195 0.582974 0.31752 0.10932
H_ H_ 0.67444 0.749989 0.35713 0.10932
H_ H_ 0.924442 0.75 0.35713 0.10932
H_ H_ 0.581627 0.749999 0.363685 0.10932
H_ H_ 0.831628 0.749999 0.363685 0.10932
H_ H_ 0.583436 0.749998 0.44315 0.10932
H_ H_ 0.833437 0.75 0.443185 0.10932
H_ H_ 0.680257 0.749985 0.436625 0.10932
H_ H_ 0.930259 0.75 0.436625 0.10932
H_ H_ 0.575563 0.750014 0.14285 0.10932
H_ H_ 0.825564 0.750003 0.14285 0.10932
H_ H_ 0.668376 0.750004 0.136 0.10932
H_ H_ 0.918378 0.750004 0.136295 0.10932
H_ H_ 0.666567 0.750005 0.0567949 0.10932
H_ H_ 0.916569 0.750004 0.0567949 0.10932
H_ H_ 0.569745 0.750018 0.063355 0.10932
H_ H_ 0.819747 0.750003 0.063355 0.10932
C_ C_ 0.565548 0.847806 0.2503 -0.02249
C_ C_ 0.81555 0.847806 0.2503 -0.02249
C_ C_ 0.515878 0.961942 0.24989 -0.02249
C_ C_ 0.76588 0.961942 0.24989 -0.02249
C_ C_ 0.540828 0.903466 0.21211 -0.11473
C_ C_ 0.79083 0.903466 0.21211 -0.11473
C_ C_ 0.556936 0.86601 0.28815 -0.11473
C_ C_ 0.806939 0.86601 0.28815 -0.11473
C_ C_ 0.557164 0.866738 0.21229 -0.11473
C_ C_ 0.807166 0.866738 0.21229 -0.11473
C_ C_ 0.532577 0.921985 0.24997 -0.02249
C_ C_ 0.782579 0.921985 0.24997 -0.02249
C_ C_ 0.584784 0.809704 0.25067 0.6875
C_ C_ 0.834786 0.809705 0.25067 0.6875
C_ C_ 0.540563 0.902699 0.287995 -0.11473
C_ C_ 0.790565 0.902699 0.287995 -0.11473
C_ C_ 0.684453 0.847809 0.2495 -0.02249
C_ C_ 0.934455 0.847809 0.249645 -0.02249
C_ C_ 0.734124 0.961943 0.25009 -0.02249
C_ C_ 0.984126 0.961943 0.25009 -0.02249
C_ C_ 0.709173 0.903466 0.28787 -0.11473
C_ C_ 0.959175 0.903466 0.28787 -0.11473
C_ C_ 0.693065 0.866014 0.2118 -0.11473
C_ C_ 0.943067 0.866014 0.211805 -0.11473
C_ C_ 0.692837 0.866739 0.28769 -0.11473
C_ C_ 0.942839 0.866738 0.28769 -0.11473
C_ C_ 0.717425 0.921987 0.25001 -0.02249
C_ C_ 0.967427 0.921987 0.25001 -0.02249
C_ C_ 0.665218 0.809706 0.24931 0.6875
C_ C_ 0.91522 0.809706 0.24931 0.6875
C_ C_ 0.709438 0.902703 0.211985 -0.11473
C_ C_ 0.95944 0.902703 0.211985 -0.11473
C_ C_ 0.684454 0.652197 0.24965 -0.02249
C_ C_ 0.934456 0.652197 0.24965 -0.02249
C_ C_ 0.734124 0.538062 0.25009 -0.02249
C_ C_ 0.984126 0.538061 0.25009 -0.02249
C_ C_ 0.709175 0.596537 0.28787 -0.11473
C_ C_ 0.959176 0.596537 0.28787 -0.11473
C_ C_ 0.693066 0.633993 0.21181 -0.11473
C_ C_ 0.943068 0.633993 0.21181 -0.11473
C_ C_ 0.692839 0.633266 0.28769 -0.11473
C_ C_ 0.94284 0.633265 0.28769 -0.11473
C_ C_ 0.717426 0.578019 0.25001 -0.02249
C_ C_ 0.967428 0.578019 0.25001 -0.02249
C_ C_ 0.665218 0.690299 0.24931 0.6875
C_ C_ 0.91522 0.690299 0.24931 0.6875
C_ C_ 0.709439 0.597305 0.211985 -0.11473
C_ C_ 0.959441 0.597304 0.211985 -0.11473
C_ C_ 0.565549 0.652195 0.250335 -0.02249
C_ C_ 0.815552 0.652194 0.250335 -0.02249
C_ C_ 0.515878 0.53806 0.24989 -0.02249
C_ C_ 0.765881 0.53806 0.24989 -0.02249
C_ C_ 0.540829 0.596537 0.21211 -0.11473
C_ C_ 0.790832 0.596537 0.21211 -0.11473
C_ C_ 0.556936 0.633989 0.288175 -0.11473
C_ C_ 0.806939 0.633989 0.288175 -0.11473
C_ C_ 0.557165 0.633265 0.21229 -0.11473
C_ C_ 0.807168 0.633265 0.21229 -0.11473
C_ C_ 0.532577 0.578017 0.24997 -0.02249
C_ C_ 0.78258 0.578016 0.24997 -0.02249
C_ C_ 0.584784 0.690298 0.25067 0.6875
C_ C_ 0.834787 0.690297 0.25067 0.6875
C_ C_ 0.540563 0.597301 0.287995 -0.11473
C_ C_ 0.790566 0.5973 0.287995 -0.11473
C_ C_ 0.655099 0.749992 0.37765 0.17695
C_ C_ 0.905101 0.75 0.37765 0.17695
C_ C_ 0.602843 0.749998 0.38145 0.17695
C_ C_ 0.852844 0.749999 0.381465 0.17695
C_ C_ 0.603899 0.749996 0.425005 -0.11473
C_ C_ 0.8539 0.75 0.425 -0.11473
C_ C_ 0.632208 0.749993 0.445385 0.23465
C_ C_ 0.882209 0.750001 0.44535 0.23465
C_ C_ 0.658169 0.749989 0.4212 -0.11473
C_ C_ 0.908171 0.75 0.4212 -0.11473
C_ C_ 0.594903 0.750012 0.12233 0.17695
C_ C_ 0.844905 0.750003 0.12233 0.17695
C_ C_ 0.64716 0.750006 0.118515 0.17695
C_ C_ 0.897162 0.750004 0.118515 0.17695
C_ C_ 0.646103 0.750007 0.0749799 -0.11473
C_ C_ 0.896106 0.750004 0.07495 -0.11473
C_ C_ 0.617794 0.75001 0.0545001 0.23465
C_ C_ 0.867796 0.750003 0.0546 0.23465
C_ C_ 0.591833 0.750014 0.0787801 -0.11473
C_ C_ 0.841835 0.750003 0.0787801 -0.11473
C_ C_ 0.531043 0.999998 0.24981 0.05793
C_ C_ 0.781045 0.999998 0.24981 0.05793
C_ C_ 0.718958 0.500001 0.25017 0.05793
C_ C_ 0.96896 0.500001 0.25017 0.05793
Br Br 0.574338 0.999997 0.24991 -0.17191
Br Br 0.82434 0.999996 0.24991 -0.17191
Br Br 0.675663 0.500003 0.25007 -0.17191
Br Br 0.925665 0.500003 0.25007 -0.17191
N_ N_ 0.627942 0.749996 0.3582 -0.272
N_ N_ 0.877945 0.75 0.3582 -0.272
N_ N_ 0.637097 0.749993 0.489575 -0.12501
N_ N_ 0.887098 0.750001 0.489575 -0.12501
N_ N_ 0.622059 0.750007 0.141755 -0.272
N_ N_ 0.872062 0.750004 0.141755 -0.272
N_ N_ 0.612906 0.750011 0.0104049 -0.12501
N_ N_ 0.862907 0.750003 0.0104049 -0.12501
O_ O_ 0.592479 0.795258 0.215205 -0.60745
O_ O_ 0.842481 0.795258 0.215205 -0.60745
O_ O_ 0.592603 0.795156 0.286475 -0.60745
O_ O_ 0.842604 0.795156 0.286475 -0.60745
O_ O_ 0.657522 0.795259 0.284775 -0.60745
O_ O_ 0.907524 0.795259 0.284775 -0.60745
O_ O_ 0.657399 0.795158 0.213505 -0.60745
O_ O_ 0.907402 0.795158 0.213505 -0.60745
O_ O_ 0.657522 0.704745 0.284775 -0.60745
O_ O_ 0.907525 0.704745 0.284775 -0.60745
O_ O_ 0.657399 0.704847 0.213505 -0.60745
O_ O_ 0.907401 0.704847 0.213505 -0.60745
O_ O_ 0.592479 0.704745 0.215205 -0.60745
O_ O_ 0.842481 0.704745 0.215205 -0.60745
O_ O_ 0.592602 0.704845 0.286475 -0.60745
O_ O_ 0.842604 0.704845 0.286475 -0.60745
Zn Zn 0.625109 0.750001 0.7932 0.9476
Zn Zn 0.875109 0.750001 0.7932 0.9476
Zn Zn 0.624894 0.750002 0.70678 0.9476
Zn Zn 0.874896 0.750002 0.70678 0.9476
H_ H_ 0.534677 0.918407 0.68246 0.10932
H_ H_ 0.78468 0.918407 0.68246 0.10932
H_ H_ 0.563697 0.851169 0.81757 0.10932
H_ H_ 0.8137 0.851169 0.81757 0.10932
H_ H_ 0.564093 0.852466 0.683055 0.10932
H_ H_ 0.814096 0.852466 0.683055 0.10932
H_ H_ 0.534193 0.917025 0.81752 0.10932
H_ H_ 0.784195 0.917025 0.81752 0.10932
H_ H_ 0.715323 0.918405 0.81752 0.10932
H_ H_ 0.965325 0.918405 0.81752 0.10932
H_ H_ 0.686305 0.851176 0.68241 0.10932
H_ H_ 0.936307 0.851176 0.68241 0.10932
H_ H_ 0.685907 0.852465 0.816925 0.10932
H_ H_ 0.935909 0.852465 0.816925 0.10932
H_ H_ 0.715809 0.917029 0.68246 0.10932
H_ H_ 0.965811 0.91703 0.68246 0.10932
H_ H_ 0.715325 0.581596 0.81752 0.10932
H_ H_ 0.965327 0.581595 0.81752 0.10932
H_ H_ 0.686305 0.648834 0.68241 0.10932
H_ H_ 0.936307 0.648834 0.68241 0.10932
H_ H_ 0.685909 0.647537 0.816925 0.10932
H_ H_ 0.93591 0.647537 0.8169 0.10932
H_ H_ 0.71581 0.582979 0.68246 0.10932
H_ H_ 0.965811 0.582978 0.68246 0.10932
H_ H_ 0.534678 0.581599 0.68246 0.10932
H_ H_ 0.784682 0.581598 0.68246 0.10932
H_ H_ 0.563697 0.648828 0.81757 0.10932
H_ H_ 0.813699 0.648827 0.81757 0.10932
H_ H_ 0.564095 0.647538 0.683055 0.10932
H_ H_ 0.814098 0.647538 0.683055 0.10932
H_ H_ 0.534193 0.582974 0.81752 0.10932
H_ H_ 0.784195 0.582974 0.81752 0.10932
H_ H_ 0.67444 0.749989 0.85713 0.10932
H_ H_ 0.924441 0.75 0.85713 0.10932
H_ H_ 0.581626 0.749999 0.863685 0.10932
H_ H_ 0.831628 0.749999 0.863685 0.10932
H_ H_ 0.583435 0.749998 0.94315 0.10932
H_ H_ 0.833437 0.75 0.943185 0.10932
H_ H_ 0.680258 0.749985 0.936625 0.10932
H_ H_ 0.930259 0.75 0.936625 0.10932
H_ H_ 0.575562 0.750014 0.64285 0.10932
H_ H_ 0.825564 0.750003 0.64285 0.10932
H_ H_ 0.668376 0.750004 0.636 0.10932
H_ H_ 0.918378 0.750004 0.636295 0.10932
H_ H_ 0.666567 0.750005 0.556795 0.10932
H_ H_ 0.916569 0.750004 0.556795 0.10932
H_ H_ 0.569745 0.750018 0.563355 0.10932
H_ H_ 0.819747 0.750003 0.563355 0.10932
C_ C_ 0.565548 0.847806 0.7503 -0.02249
C_ C_ 0.815551 0.847806 0.7503 -0.02249
C_ C_ 0.515878 0.961942 0.74989 -0.02249
C_ C_ 0.765881 0.961942 0.74989 -0.02249
C_ C_ 0.540827 0.903466 0.71211 -0.11473
C_ C_ 0.79083 0.903466 0.71211 -0.11473
C_ C_ 0.556936 0.86601 0.78815 -0.11473
C_ C_ 0.806938 0.86601 0.78815 -0.11473
C_ C_ 0.557164 0.866738 0.71229 -0.11473
C_ C_ 0.807166 0.866738 0.71229 -0.11473
C_ C_ 0.532576 0.921985 0.74997 -0.02249
C_ C_ 0.782578 0.921985 0.74997 -0.02249
C_ C_ 0.584784 0.809704 0.75067 0.6875
C_ C_ 0.834787 0.809705 0.75067 0.6875
C_ C_ 0.540563 0.902699 0.787995 -0.11473
C_ C_ 0.790565 0.902699 0.787995 -0.11473
C_ C_ 0.684453 0.847809 0.7495 -0.02249
C_ C_ 0.934455 0.847809 0.749645 -0.02249
C_ C_ 0.734124 0.961943 0.75009 -0.02249
C_ C_ 0.984125 0.961943 0.75009 -0.02249
C_ C_ 0.709173 0.903466 0.78787 -0.11473
C_ C_ 0.959175 0.903466 0.78787 -0.11473
C_ C_ 0.693065 0.866014 0.7118 -0.11473
C_ C_ 0.943068 0.866014 0.711805 -0.11473
C_ C_ 0.692837 0.866738 0.78769 -0.11473
C_ C_ 0.942839 0.866738 0.78769 -0.11473
C_ C_ 0.717425 0.921987 0.75001 -0.02249
C_ C_ 0.967427 0.921987 0.75001 -0.02249
C_ C_ 0.665218 0.809706 0.74931 0.6875
C_ C_ 0.915219 0.809706 0.74931 0.6875
C_ C_ 0.709439 0.902703 0.711985 -0.11473
C_ C_ 0.959441 0.902703 0.711985 -0.11473
C_ C_ 0.684454 0.652197 0.74965 -0.02249
C_ C_ 0.934455 0.652197 0.74965 -0.02249
C_ C_ 0.734124 0.538062 0.75009 -0.02249
C_ C_ 0.984125 0.538061 0.75009 -0.02249
C_ C_ 0.709175 0.596537 0.78787 -0.11473
C_ C_ 0.959176 0.596537 0.78787 -0.11473
C_ C_ 0.693066 0.633993 0.71181 -0.11473
C_ C_ 0.943067 0.633993 0.71181 -0.11473
C_ C_ 0.692838 0.633266 0.78769 -0.11473
C_ C_ 0.94284 0.633265 0.78769 -0.11473
C_ C_ 0.717426 0.578019 0.75001 -0.02249
C_ C_ 0.967427 0.578019 0.75001 -0.02249
C_ C_ 0.665219 0.6903 0.74931 0.6875
C_ C_ 0.915219 0.690299 0.74931 0.6875
C_ C_ 0.709439 0.597305 0.711985 -0.11473
C_ C_ 0.95944 0.597304 0.711985 -0.11473
C_ C_ 0.565549 0.652195 0.750335 -0.02249
C_ C_ 0.815551 0.652194 0.750335 -0.02249
C_ C_ 0.515878 0.538061 0.74989 -0.02249
C_ C_ 0.765881 0.538061 0.74989 -0.02249
C_ C_ 0.540828 0.596538 0.71211 -0.11473
C_ C_ 0.790832 0.596537 0.71211 -0.11473
C_ C_ 0.556937 0.633989 0.788175 -0.11473
C_ C_ 0.806939 0.633989 0.788175 -0.11473
C_ C_ 0.557165 0.633265 0.71229 -0.11473
C_ C_ 0.807168 0.633265 0.71229 -0.11473
C_ C_ 0.532577 0.578017 0.74997 -0.02249
C_ C_ 0.782579 0.578016 0.74997 -0.02249
C_ C_ 0.584784 0.690298 0.75067 0.6875
C_ C_ 0.834787 0.690297 0.75067 0.6875
C_ C_ 0.540563 0.597301 0.787995 -0.11473
C_ C_ 0.790566 0.5973 0.787995 -0.11473
C_ C_ 0.655099 0.749991 0.87765 0.17695
C_ C_ 0.905101 0.75 0.87765 0.17695
C_ C_ 0.602842 0.749998 0.88145 0.17695
C_ C_ 0.852844 0.749999 0.881465 0.17695
C_ C_ 0.603899 0.749996 0.925005 -0.11473
C_ C_ 0.853901 0.75 0.925 -0.11473
C_ C_ 0.632209 0.749993 0.945385 0.23465
C_ C_ 0.88221 0.750001 0.94535 0.23465
C_ C_ 0.65817 0.749989 0.9212 -0.11473
C_ C_ 0.908171 0.75 0.9212 -0.11473
C_ C_ 0.594904 0.750012 0.62233 0.17695
C_ C_ 0.844906 0.750003 0.62233 0.17695
C_ C_ 0.64716 0.750006 0.618515 0.17695
C_ C_ 0.897162 0.750004 0.618515 0.17695
C_ C_ 0.646104 0.750007 0.57498 -0.11473
C_ C_ 0.896105 0.750004 0.57495 -0.11473
C_ C_ 0.617794 0.75001 0.5545 0.23465
C_ C_ 0.867796 0.750003 0.5546 0.23465
C_ C_ 0.591833 0.750014 0.57878 -0.11473
C_ C_ 0.841835 0.750003 0.57878 -0.11473
C_ C_ 0.531042 -1.999999999946489e-06 0.74981 0.05793
C_ C_ 0.781045 -1.999999999946489e-06 0.74981 0.05793
C_ C_ 0.718958 0.500001 0.75017 0.05793
C_ C_ 0.96896 0.500001 0.75017 0.05793
Br Br 0.574337 -2.9999999999752447e-06 0.74991 -0.17191
Br Br 0.82434 0.999996 0.74991 -0.17191
Br Br 0.675663 0.500004 0.75007 -0.17191
Br Br 0.925665 0.500003 0.75007 -0.17191
N_ N_ 0.627942 0.749996 0.8582 -0.272
N_ N_ 0.877944 0.75 0.8582 -0.272
N_ N_ 0.637098 0.749993 0.989575 -0.12501
N_ N_ 0.887098 0.750001 0.989575 -0.12501
N_ N_ 0.62206 0.750007 0.641755 -0.272
N_ N_ 0.872062 0.750004 0.641755 -0.272
N_ N_ 0.612907 0.750011 0.510405 -0.12501
N_ N_ 0.862907 0.750003 0.510405 -0.12501
O_ O_ 0.59248 0.795258 0.715205 -0.60745
O_ O_ 0.842482 0.795258 0.715205 -0.60745
O_ O_ 0.592603 0.795156 0.786475 -0.60745
O_ O_ 0.842605 0.795156 0.786475 -0.60745
O_ O_ 0.657523 0.795259 0.784775 -0.60745
O_ O_ 0.907525 0.795258 0.784775 -0.60745
O_ O_ 0.6574 0.795159 0.713505 -0.60745
O_ O_ 0.907402 0.795159 0.713505 -0.60745
O_ O_ 0.657523 0.704745 0.784775 -0.60745
O_ O_ 0.907525 0.704745 0.784775 -0.60745
O_ O_ 0.657399 0.704847 0.713505 -0.60745
O_ O_ 0.907401 0.704847 0.713505 -0.60745
O_ O_ 0.59248 0.704744 0.715205 -0.60745
O_ O_ 0.842482 0.704745 0.715205 -0.60745
O_ O_ 0.592603 0.704845 0.786475 -0.60745
O_ O_ 0.842605 0.704845 0.786475 -0.60745
_cell_length_a 44.444
_cell_length_b 32.3360000049186
_cell_length_c 31.843999878906452
_cell_angle_alpha 89.99799923859553
_cell_angle_beta 91.13600050494348
_cell_angle_gamma 89.9990006550086
_symmetry_space_group_name_H-M         'P 1'
_symmetry_Int_Tables_number            1
loop_
_symmetry_equiv_pos_as_xyz
   'x, y, z'
                         
loop_
_atom_site_label
_atom_site_type_symbol
_atom_site_fract_x 
_atom_site_fract_y
_atom_site_fract_z
_atom_site_charge
Zn Zn 0.125109 0.250001 0.2932 0.9476
Zn Zn 0.375109 0.250001 0.2932 0.9476
Zn Zn 0.124895 0.250002 0.20678 0.9476
Zn Zn 0.374897 0.250002 0.20678 0.9476
H_ H_ 0.034677 0.418408 0.18246 0.10932
H_ H_ 0.28468 0.418408 0.18246 0.10932
H_ H_ 0.0636971 0.351169 0.31757 0.10932
H_ H_ 0.3137 0.351169 0.31757 0.10932
H_ H_ 0.0640934 0.352466 0.183055 0.10932
H_ H_ 0.314096 0.352466 0.183055 0.10932
H_ H_ 0.0341926 0.417025 0.31752 0.10932
H_ H_ 0.284195 0.417025 0.31752 0.10932
H_ H_ 0.215323 0.418405 0.31752 0.10932
H_ H_ 0.465325 0.418404 0.31752 0.10932
H_ H_ 0.186305 0.351176 0.18241 0.10932
H_ H_ 0.436307 0.351176 0.18241 0.10932
H_ H_ 0.185907 0.352465 0.316925 0.10932
H_ H_ 0.435909 0.352465 0.316925 0.10932
H_ H_ 0.215809 0.417029 0.18246 0.10932
H_ H_ 0.465811 0.41703 0.18246 0.10932
H_ H_ 0.215325 0.0815959 0.31752 0.10932
H_ H_ 0.465327 0.0815955 0.31752 0.10932
H_ H_ 0.186306 0.148834 0.18241 0.10932
H_ H_ 0.436307 0.148834 0.18241 0.10932
H_ H_ 0.185909 0.147537 0.316925 0.10932
H_ H_ 0.43591 0.147537 0.3169 0.10932
H_ H_ 0.21581 0.0829786 0.18246 0.10932
H_ H_ 0.465811 0.082978 0.18246 0.10932
H_ H_ 0.0346786 0.081599 0.18246 0.10932
H_ H_ 0.284682 0.0815981 0.18246 0.10932
H_ H_ 0.0636965 0.148828 0.31757 0.10932
H_ H_ 0.313699 0.148827 0.31757 0.10932
H_ H_ 0.0640945 0.147538 0.183055 0.10932
H_ H_ 0.314098 0.147538 0.183055 0.10932
H_ H_ 0.0341925 0.0829739 0.31752 0.10932
H_ H_ 0.284195 0.0829736 0.31752 0.10932
H_ H_ 0.17444 0.249989 0.35713 0.10932
H_ H_ 0.424441 0.25 0.35713 0.10932
H_ H_ 0.0816264 0.249999 0.363685 0.10932
H_ H_ 0.331628 0.249999 0.363685 0.10932
H_ H_ 0.0834356 0.249998 0.44315 0.10932
H_ H_ 0.333437 0.25 0.443185 0.10932
H_ H_ 0.180257 0.249985 0.436625 0.10932
H_ H_ 0.430259 0.25 0.436625 0.10932
H_ H_ 0.0755626 0.250014 0.14285 0.10932
H_ H_ 0.325564 0.250003 0.14285 0.10932
H_ H_ 0.168376 0.250004 0.136 0.10932
H_ H_ 0.418378 0.250004 0.136295 0.10932
H_ H_ 0.166567 0.250005 0.0567949 0.10932
H_ H_ 0.416569 0.250004 0.0567949 0.10932
H_ H_ 0.069745 0.250018 0.063355 0.10932
H_ H_ 0.319747 0.250003 0.063355 0.10932
C_ C_ 0.0655484 0.347806 0.2503 -0.02249
C_ C_ 0.31555 0.347806 0.2503 -0.02249
C_ C_ 0.0158785 0.461942 0.24989 -0.02249
C_ C_ 0.26588 0.461942 0.24989 -0.02249
C_ C_ 0.0408274 0.403466 0.21211 -0.11473
C_ C_ 0.29083 0.403466 0.21211 -0.11473
C_ C_ 0.0569359 0.36601 0.28815 -0.11473
C_ C_ 0.306938 0.36601 0.28815 -0.11473
C_ C_ 0.0571636 0.366738 0.21229 -0.11473
C_ C_ 0.307166 0.366738 0.21229 -0.11473
C_ C_ 0.0325766 0.421985 0.24997 -0.02249
C_ C_ 0.282578 0.421985 0.24997 -0.02249
C_ C_ 0.0847836 0.309704 0.25067 0.6875
C_ C_ 0.334786 0.309705 0.25067 0.6875
C_ C_ 0.0405626 0.402699 0.287995 -0.11473
C_ C_ 0.290565 0.402699 0.287995 -0.11473
C_ C_ 0.184453 0.347809 0.2495 -0.02249
C_ C_ 0.434455 0.347809 0.249645 -0.02249
C_ C_ 0.234124 0.461943 0.25009 -0.02249
C_ C_ 0.484126 0.461943 0.25009 -0.02249
C_ C_ 0.209173 0.403466 0.28787 -0.11473
C_ C_ 0.459175 0.403466 0.28787 -0.11473
C_ C_ 0.193065 0.366014 0.2118 -0.11473
C_ C_ 0.443067 0.366014 0.211805 -0.11473
C_ C_ 0.192837 0.366739 0.28769 -0.11473
C_ C_ 0.442839 0.366738 0.28769 -0.11473
C_ C_ 0.217425 0.421987 0.25001 -0.02249
C_ C_ 0.467427 0.421987 0.25001 -0.02249
C_ C_ 0.165218 0.309706 0.24931 0.6875
C_ C_ 0.415219 0.309706 0.24931 0.6875
C_ C_ 0.209439 0.402703 0.211985 -0.11473
C_ C_ 0.459441 0.402703 0.211985 -0.11473
C_ C_ 0.184454 0.152197 0.24965 -0.02249
C_ C_ 0.434456 0.152197 0.24965 -0.02249
C_ C_ 0.234124 0.0380616 0.25009 -0.02249
C_ C_ 0.484126 0.038061 0.25009 -0.02249
C_ C_ 0.209175 0.0965369 0.28787 -0.11473
C_ C_ 0.459176 0.0965366 0.28787 -0.11473
C_ C_ 0.193066 0.133993 0.21181 -0.11473
C_ C_ 0.443068 0.133993 0.21181 -0.11473
C_ C_ 0.192838 0.133266 0.28769 -0.11473
C_ C_ 0.44284 0.133265 0.28769 -0.11473
C_ C_ 0.217426 0.0780186 0.25001 -0.02249
C_ C_ 0.467427 0.0780186 0.25001 -0.02249
C_ C_ 0.165218 0.190299 0.24931 0.6875
C_ C_ 0.41522 0.190299 0.24931 0.6875
C_ C_ 0.209439 0.0973046 0.211985 -0.11473
C_ C_ 0.459441 0.097304 0.211985 -0.11473
C_ C_ 0.065549 0.152195 0.250335 -0.02249
C_ C_ 0.315551 0.152194 0.250335 -0.02249
C_ C_ 0.015878 0.0380603 0.24989 -0.02249
C_ C_ 0.265881 0.0380603 0.24989 -0.02249
C_ C_ 0.0408286 0.0965374 0.21211 -0.11473
C_ C_ 0.290832 0.096537 0.21211 -0.11473
C_ C_ 0.0569365 0.133989 0.288175 -0.11473
C_ C_ 0.306939 0.133989 0.288175 -0.11473
C_ C_ 0.057165 0.133265 0.21229 -0.11473
C_ C_ 0.307168 0.133265 0.21229 -0.11473
C_ C_ 0.0325769 0.078017 0.24997 -0.02249
C_ C_ 0.282579 0.0780164 0.24997 -0.02249
C_ C_ 0.0847839 0.190298 0.25067 0.6875
C_ C_ 0.334787 0.190297 0.25067 0.6875
C_ C_ 0.0405631 0.097301 0.287995 -0.11473
C_ C_ 0.290566 0.0973004 0.287995 -0.11473
C_ C_ 0.155099 0.249992 0.37765 0.17695
C_ C_ 0.405101 0.25 0.37765 0.17695
C_ C_ 0.102842 0.249998 0.38145 0.17695
C_ C_ 0.352844 0.249999 0.381465 0.17695
C_ C_ 0.103899 0.249996 0.425005 -0.11473
C_ C_ 0.3539 0.25 0.425 -0.11473
C_ C_ 0.132208 0.249993 0.445385 0.23465
C_ C_ 0.38221 0.250001 0.44535 0.23465
C_ C_ 0.158169 0.249989 0.4212 -0.11473
C_ C_ 0.408171 0.25 0.4212 -0.11473
C_ C_ 0.0949035 0.250012 0.12233 0.17695
C_ C_ 0.344905 0.250003 0.12233 0.17695
C_ C_ 0.14716 0.250006 0.118515 0.17695
C_ C_ 0.397162 0.250004 0.118515 0.17695
C_ C_ 0.146104 0.250007 0.0749799 -0.11473
C_ C_ 0.396106 0.250004 0.07495 -0.11473
C_ C_ 0.117794 0.25001 0.0545001 0.23465
C_ C_ 0.367796 0.250003 0.0546 0.23465
C_ C_ 0.091833 0.250014 0.0787801 -0.11473
C_ C_ 0.341835 0.250003 0.0787801 -0.11473
C_ C_ 0.0310424 0.499998 0.24981 0.05793
C_ C_ 0.281045 0.499998 0.24981 0.05793
C_ C_ 0.218958 8.98658e-07 0.25017 0.05793
C_ C_ 0.46896 1.000000589405 0.25017 0.05793
Br Br 0.0743374 0.499997 0.24991 -0.17191
Br Br 0.32434 0.499996 0.24991 -0.17191
Br Br 0.175663 3.37616e-06 0.25007 -0.17191
Br Br 0.425665 1.00000306691 0.25007 -0.17191
N_ N_ 0.127942 0.249996 0.3582 -0.272
N_ N_ 0.377944 0.25 0.3582 -0.272
N_ N_ 0.137098 0.249993 0.489575 -0.12501
N_ N_ 0.387098 0.250001 0.489575 -0.12501
N_ N_ 0.12206 0.250007 0.141755 -0.272
N_ N_ 0.372062 0.250004 0.141755 -0.272
N_ N_ 0.112907 0.250011 0.0104049 -0.12501
N_ N_ 0.362907 0.250003 0.0104049 -0.12501
O_ O_ 0.0924795 0.295258 0.215205 -0.60745
O_ O_ 0.342482 0.295258 0.215205 -0.60745
O_ O_ 0.0926029 0.295156 0.286475 -0.60745
O_ O_ 0.342604 0.295156 0.286475 -0.60745
O_ O_ 0.157522 0.295259 0.284775 -0.60745
O_ O_ 0.407525 0.295259 0.284775 -0.60745
O_ O_ 0.1574 0.295158 0.213505 -0.60745
O_ O_ 0.407402 0.295158 0.213505 -0.60745
O_ O_ 0.157523 0.204745 0.284775 -0.60745
O_ O_ 0.407525 0.204745 0.284775 -0.60745
O_ O_ 0.157399 0.204847 0.213505 -0.60745
O_ O_ 0.407401 0.204847 0.213505 -0.60745
O_ O_ 0.0924795 0.204745 0.215205 -0.60745
O_ O_ 0.342482 0.204745 0.215205 -0.60745
O_ O_ 0.0926025 0.204845 0.286475 -0.60745
O_ O_ 0.342604 0.204845 0.286475 -0.60745
Zn Zn 0.125108 0.250001 0.7932 0.9476
Zn Zn 0.37511 0.250001 0.7932 0.9476
Zn Zn 0.124894 0.250002 0.70678 0.9476
Zn Zn 0.374896 0.250002 0.70678 0.9476
H_ H_ 0.0346769 0.418407 0.68246 0.10932
H_ H_ 0.28468 0.418407 0.68246 0.10932
H_ H_ 0.0636969 0.351169 0.81757 0.10932
H_ H_ 0.313699 0.351169 0.81757 0.10932
H_ H_ 0.0640935 0.352466 0.683055 0.10932
H_ H_ 0.314096 0.352466 0.683055 0.10932
H_ H_ 0.0341924 0.417025 0.81752 0.10932
H_ H_ 0.284195 0.417025 0.81752 0.10932
H_ H_ 0.215323 0.418405 0.81752 0.10932
H_ H_ 0.465325 0.418405 0.81752 0.10932
H_ H_ 0.186305 0.351176 0.68241 0.10932
H_ H_ 0.436307 0.351176 0.68241 0.10932
H_ H_ 0.185907 0.352465 0.816925 0.10932
H_ H_ 0.435909 0.352465 0.816925 0.10932
H_ H_ 0.215809 0.417029 0.68246 0.10932
H_ H_ 0.465811 0.41703 0.68246 0.10932
H_ H_ 0.215325 0.0815961 0.81752 0.10932
H_ H_ 0.465326 0.0815955 0.81752 0.10932
H_ H_ 0.186305 0.148834 0.68241 0.10932
H_ H_ 0.436307 0.148834 0.68241 0.10932
H_ H_ 0.185908 0.147537 0.816925 0.10932
H_ H_ 0.43591 0.147537 0.8169 0.10932
H_ H_ 0.21581 0.0829785 0.68246 0.10932
H_ H_ 0.465811 0.0829779 0.68246 0.10932
H_ H_ 0.0346785 0.0815989 0.68246 0.10932
H_ H_ 0.284682 0.081598 0.68246 0.10932
H_ H_ 0.0636966 0.148828 0.81757 0.10932
H_ H_ 0.3137 0.148827 0.81757 0.10932
H_ H_ 0.0640946 0.147538 0.683055 0.10932
H_ H_ 0.314098 0.147538 0.683055 0.10932
H_ H_ 0.0341926 0.0829738 0.81752 0.10932
H_ H_ 0.284195 0.0829735 0.81752 0.10932
H_ H_ 0.17444 0.249989 0.85713 0.10932
H_ H_ 0.424442 0.25 0.85713 0.10932
H_ H_ 0.0816265 0.249999 0.863685 0.10932
H_ H_ 0.331628 0.249999 0.863685 0.10932
H_ H_ 0.0834355 0.249998 0.94315 0.10932
H_ H_ 0.333437 0.25 0.943185 0.10932
H_ H_ 0.180258 0.249985 0.936625 0.10932
H_ H_ 0.430259 0.25 0.936625 0.10932
H_ H_ 0.0755625 0.250014 0.64285 0.10932
H_ H_ 0.325564 0.250003 0.64285 0.10932
H_ H_ 0.168376 0.250004 0.636 0.10932
H_ H_ 0.418378 0.250004 0.636295 0.10932
H_ H_ 0.166567 0.250005 0.556795 0.10932
H_ H_ 0.416569 0.250004 0.556795 0.10932
H_ H_ 0.0697451 0.250018 0.563355 0.10932
H_ H_ 0.319746 0.250003 0.563355 0.10932
C_ C_ 0.0655485 0.347806 0.7503 -0.02249
C_ C_ 0.315551 0.347806 0.7503 -0.02249
C_ C_ 0.0158785 0.461942 0.74989 -0.02249
C_ C_ 0.265881 0.461942 0.74989 -0.02249
C_ C_ 0.0408275 0.403466 0.71211 -0.11473
C_ C_ 0.29083 0.403466 0.71211 -0.11473
C_ C_ 0.056936 0.36601 0.78815 -0.11473
C_ C_ 0.306939 0.36601 0.78815 -0.11473
C_ C_ 0.0571634 0.366738 0.71229 -0.11473
C_ C_ 0.307166 0.366738 0.71229 -0.11473
C_ C_ 0.0325765 0.421985 0.74997 -0.02249
C_ C_ 0.282579 0.421985 0.74997 -0.02249
C_ C_ 0.0847834 0.309704 0.75067 0.6875
C_ C_ 0.334787 0.309705 0.75067 0.6875
C_ C_ 0.0405624 0.402699 0.787995 -0.11473
C_ C_ 0.290565 0.402699 0.787995 -0.11473
C_ C_ 0.184452 0.347809 0.7495 -0.02249
C_ C_ 0.434455 0.347809 0.749645 -0.02249
C_ C_ 0.234123 0.461943 0.75009 -0.02249
C_ C_ 0.484125 0.461943 0.75009 -0.02249
C_ C_ 0.209173 0.403466 0.78787 -0.11473
C_ C_ 0.459175 0.403466 0.78787 -0.11473
C_ C_ 0.193065 0.366014 0.7118 -0.11473
C_ C_ 0.443068 0.366014 0.711805 -0.11473
C_ C_ 0.192837 0.366738 0.78769 -0.11473
C_ C_ 0.442839 0.366738 0.78769 -0.11473
C_ C_ 0.217425 0.421987 0.75001 -0.02249
C_ C_ 0.467427 0.421987 0.75001 -0.02249
C_ C_ 0.165218 0.309706 0.74931 0.6875
C_ C_ 0.41522 0.309706 0.74931 0.6875
C_ C_ 0.209439 0.402703 0.711985 -0.11473
C_ C_ 0.45944 0.402703 0.711985 -0.11473
C_ C_ 0.184454 0.152197 0.74965 -0.02249
C_ C_ 0.434455 0.152197 0.74965 -0.02249
C_ C_ 0.234124 0.0380615 0.75009 -0.02249
C_ C_ 0.484125 0.0380609 0.75009 -0.02249
C_ C_ 0.209175 0.0965368 0.78787 -0.11473
C_ C_ 0.459176 0.0965365 0.78787 -0.11473
C_ C_ 0.193066 0.133993 0.71181 -0.11473
C_ C_ 0.443067 0.133993 0.71181 -0.11473
C_ C_ 0.192839 0.133266 0.78769 -0.11473
C_ C_ 0.44284 0.133265 0.78769 -0.11473
C_ C_ 0.217426 0.0780185 0.75001 -0.02249
C_ C_ 0.467428 0.0780185 0.75001 -0.02249
C_ C_ 0.165219 0.1903 0.74931 0.6875
C_ C_ 0.415219 0.190299 0.74931 0.6875
C_ C_ 0.20944 0.0973046 0.711985 -0.11473
C_ C_ 0.45944 0.0973039 0.711985 -0.11473
C_ C_ 0.065549 0.152195 0.750335 -0.02249
C_ C_ 0.315552 0.152194 0.750335 -0.02249
C_ C_ 0.0158781 0.0380606 0.74989 -0.02249
C_ C_ 0.265881 0.0380606 0.74989 -0.02249
C_ C_ 0.0408285 0.0965376 0.71211 -0.11473
C_ C_ 0.290832 0.096537 0.71211 -0.11473
C_ C_ 0.0569364 0.133989 0.788175 -0.11473
C_ C_ 0.306939 0.133989 0.788175 -0.11473
C_ C_ 0.057165 0.133265 0.71229 -0.11473
C_ C_ 0.307168 0.133265 0.71229 -0.11473
C_ C_ 0.032577 0.078017 0.74997 -0.02249
C_ C_ 0.282579 0.0780164 0.74997 -0.02249
C_ C_ 0.084784 0.190298 0.75067 0.6875
C_ C_ 0.334787 0.190297 0.75067 0.6875
C_ C_ 0.0405629 0.097301 0.787995 -0.11473
C_ C_ 0.290566 0.0973004 0.787995 -0.11473
C_ C_ 0.155098 0.249991 0.87765 0.17695
C_ C_ 0.4051 0.25 0.87765 0.17695
C_ C_ 0.102843 0.249998 0.88145 0.17695
C_ C_ 0.352844 0.249999 0.881465 0.17695
C_ C_ 0.103899 0.249996 0.925005 -0.11473
C_ C_ 0.353901 0.25 0.925 -0.11473
C_ C_ 0.132209 0.249993 0.945385 0.23465
C_ C_ 0.382209 0.250001 0.94535 0.23465
C_ C_ 0.15817 0.249989 0.9212 -0.11473
C_ C_ 0.408171 0.25 0.9212 -0.11473
C_ C_ 0.0949035 0.250012 0.62233 0.17695
C_ C_ 0.344906 0.250003 0.62233 0.17695
C_ C_ 0.14716 0.250006 0.618515 0.17695
C_ C_ 0.397162 0.250004 0.618515 0.17695
C_ C_ 0.146103 0.250007 0.57498 -0.11473
C_ C_ 0.396105 0.250004 0.57495 -0.11473
C_ C_ 0.117795 0.25001 0.5545 0.23465
C_ C_ 0.367796 0.250003 0.5546 0.23465
C_ C_ 0.0918331 0.250014 0.57878 -0.11473
C_ C_ 0.341834 0.250003 0.57878 -0.11473
C_ C_ 0.0310425 0.499998 0.74981 0.05793
C_ C_ 0.281045 0.499998 0.74981 0.05793
C_ C_ 0.218959 8.52271e-07 0.75017 0.05793
C_ C_ 0.46896 1.000000543018 0.75017 0.05793
Br Br 0.0743375 0.499997 0.74991 -0.17191
Br Br 0.32434 0.499996 0.74991 -0.17191
Br Br 0.175664 3.63903e-06 0.75007 -0.17191
Br Br 0.425665 1.00000302052 0.75007 -0.17191
N_ N_ 0.127942 0.249996 0.8582 -0.272
N_ N_ 0.377944 0.25 0.8582 -0.272
N_ N_ 0.137098 0.249993 0.989575 -0.12501
N_ N_ 0.387098 0.250001 0.989575 -0.12501
N_ N_ 0.12206 0.250007 0.641755 -0.272
N_ N_ 0.372062 0.250004 0.641755 -0.272
N_ N_ 0.112906 0.250011 0.510405 -0.12501
N_ N_ 0.362907 0.250003 0.510405 -0.12501
O_ O_ 0.0924796 0.295258 0.715205 -0.60745
O_ O_ 0.342482 0.295258 0.715205 -0.60745
O_ O_ 0.092603 0.295156 0.786475 -0.60745
O_ O_ 0.342605 0.295156 0.786475 -0.60745
O_ O_ 0.157523 0.295259 0.784775 -0.60745
O_ O_ 0.407525 0.295258 0.784775 -0.60745
O_ O_ 0.157399 0.295159 0.713505 -0.60745
O_ O_ 0.407401 0.295159 0.713505 -0.60745
O_ O_ 0.157523 0.204745 0.784775 -0.60745
O_ O_ 0.407524 0.204745 0.784775 -0.60745
O_ O_ 0.157399 0.204847 0.713505 -0.60745
O_ O_ 0.407401 0.204847 0.713505 -0.60745
O_ O_ 0.0924796 0.204744 0.715205 -0.60745
O_ O_ 0.342481 0.204745 0.715205 -0.60745
O_ O_ 0.0926026 0.204845 0.786475 -0.60745
O_ O_ 0.342605 0.204845 0.786475 -0.60745
Zn Zn 0.125109 0.750001 0.2932 0.9476
Zn Zn 0.375109 0.750001 0.2932 0.9476
Zn Zn 0.124895 0.750002 0.20678 0.9476
Zn Zn 0.374897 0.750002 0.20678 0.9476
H_ H_ 0.034677 0.918408 0.18246 0.10932
H_ H_ 0.284679 0.918408 0.18246 0.10932
H_ H_ 0.063697 0.851169 0.31757 0.10932
H_ H_ 0.3137 0.851169 0.31757 0.10932
H_ H_ 0.0640934 0.852466 0.183055 0.10932
H_ H_ 0.314096 0.852466 0.183055 0.10932
H_ H_ 0.0341925 0.917025 0.31752 0.10932
H_ H_ 0.284195 0.917025 0.31752 0.10932
H_ H_ 0.215323 0.918405 0.31752 0.10932
H_ H_ 0.465325 0.918404 0.31752 0.10932
H_ H_ 0.186305 0.851176 0.18241 0.10932
H_ H_ 0.436307 0.851176 0.18241 0.10932
H_ H_ 0.185907 0.852465 0.316925 0.10932
H_ H_ 0.435909 0.852465 0.316925 0.10932
H_ H_ 0.215809 0.917029 0.18246 0.10932
H_ H_ 0.465811 0.91703 0.18246 0.10932
H_ H_ 0.215325 0.581596 0.31752 0.10932
H_ H_ 0.465327 0.581596 0.31752 0.10932
H_ H_ 0.186306 0.648834 0.18241 0.10932
H_ H_ 0.436306 0.648834 0.18241 0.10932
H_ H_ 0.185909 0.647537 0.316925 0.10932
H_ H_ 0.43591 0.647537 0.3169 0.10932
H_ H_ 0.21581 0.582979 0.18246 0.10932
H_ H_ 0.465811 0.582978 0.18246 0.10932
H_ H_ 0.0346786 0.581599 0.18246 0.10932
H_ H_ 0.284682 0.581598 0.18246 0.10932
H_ H_ 0.0636964 0.648828 0.31757 0.10932
H_ H_ 0.3137 0.648827 0.31757 0.10932
H_ H_ 0.0640944 0.647538 0.183055 0.10932
H_ H_ 0.314098 0.647538 0.183055 0.10932
H_ H_ 0.0341925 0.582974 0.31752 0.10932
H_ H_ 0.284195 0.582974 0.31752 0.10932
H_ H_ 0.17444 0.749989 0.35713 0.10932
H_ H_ 0.424442 0.75 0.35713 0.10932
H_ H_ 0.0816266 0.749999 0.363685 0.10932
H_ H_ 0.331628 0.749999 0.363685 0.10932
H_ H_ 0.0834356 0.749998 0.44315 0.10932
H_ H_ 0.333437 0.75 0.443185 0.10932
H_ H_ 0.180257 0.749985 0.436625 0.10932
H_ H_ 0.430259 0.75 0.436625 0.10932
H_ H_ 0.0755626 0.750014 0.14285 0.10932
H_ H_ 0.325564 0.750003 0.14285 0.10932
H_ H_ 0.168376 0.750004 0.136 0.10932
H_ H_ 0.418378 0.750004 0.136295 0.10932
H_ H_ 0.166567 0.750005 0.0567949 0.10932
H_ H_ 0.416569 0.750004 0.0567949 0.10932
H_ H_ 0.069745 0.750018 0.063355 0.10932
H_ H_ 0.319747 0.750003 0.063355 0.10932
C_ C_ 0.0655484 0.847806 0.2503 -0.02249
C_ C_ 0.31555 0.847806 0.2503 -0.02249
C_ C_ 0.0158784 0.961942 0.24989 -0.02249
C_ C_ 0.26588 0.961942 0.24989 -0.02249
C_ C_ 0.0408276 0.903466 0.21211 -0.11473
C_ C_ 0.29083 0.903466 0.21211 -0.11473
C_ C_ 0.0569361 0.86601 0.28815 -0.11473
C_ C_ 0.306939 0.86601 0.28815 -0.11473
C_ C_ 0.0571635 0.866738 0.21229 -0.11473
C_ C_ 0.307166 0.866738 0.21229 -0.11473
C_ C_ 0.0325766 0.921985 0.24997 -0.02249
C_ C_ 0.282579 0.921985 0.24997 -0.02249
C_ C_ 0.0847835 0.809704 0.25067 0.6875
C_ C_ 0.334786 0.809705 0.25067 0.6875
C_ C_ 0.0405625 0.902699 0.287995 -0.11473
C_ C_ 0.290565 0.902699 0.287995 -0.11473
C_ C_ 0.184453 0.847809 0.2495 -0.02249
C_ C_ 0.434455 0.847809 0.249645 -0.02249
C_ C_ 0.234124 0.961943 0.25009 -0.02249
C_ C_ 0.484126 0.961943 0.25009 -0.02249
C_ C_ 0.209173 0.903466 0.28787 -0.11473
C_ C_ 0.459175 0.903466 0.28787 -0.11473
C_ C_ 0.193065 0.866014 0.2118 -0.11473
C_ C_ 0.443067 0.866014 0.211805 -0.11473
C_ C_ 0.192837 0.866739 0.28769 -0.11473
C_ C_ 0.442839 0.866738 0.28769 -0.11473
C_ C_ 0.217425 0.921987 0.25001 -0.02249
C_ C_ 0.467427 0.921987 0.25001 -0.02249
C_ C_ 0.165218 0.809706 0.24931 0.6875
C_ C_ 0.41522 0.809706 0.24931 0.6875
C_ C_ 0.209438 0.902703 0.211985 -0.11473
C_ C_ 0.45944 0.902703 0.211985 -0.11473
C_ C_ 0.184454 0.652197 0.24965 -0.02249
C_ C_ 0.434456 0.652197 0.24965 -0.02249
C_ C_ 0.234124 0.538062 0.25009 -0.02249
C_ C_ 0.484126 0.538061 0.25009 -0.02249
C_ C_ 0.209175 0.596537 0.28787 -0.11473
C_ C_ 0.459176 0.596537 0.28787 -0.11473
C_ C_ 0.193066 0.633993 0.21181 -0.11473
C_ C_ 0.443068 0.633993 0.21181 -0.11473
C_ C_ 0.192839 0.633266 0.28769 -0.11473
C_ C_ 0.44284 0.633265 0.28769 -0.11473
C_ C_ 0.217426 0.578019 0.25001 -0.02249
C_ C_ 0.467428 0.578019 0.25001 -0.02249
C_ C_ 0.165218 0.690299 0.24931 0.6875
C_ C_ 0.41522 0.690299 0.24931 0.6875
C_ C_ 0.209439 0.597305 0.211985 -0.11473
C_ C_ 0.459441 0.597304 0.211985 -0.11473
C_ C_ 0.0655489 0.652195 0.250335 -0.02249
C_ C_ 0.315552 0.652194 0.250335 -0.02249
C_ C_ 0.0158779 0.53806 0.24989 -0.02249
C_ C_ 0.265881 0.53806 0.24989 -0.02249
C_ C_ 0.0408286 0.596537 0.21211 -0.11473
C_ C_ 0.290832 0.596537 0.21211 -0.11473
C_ C_ 0.0569365 0.633989 0.288175 -0.11473
C_ C_ 0.306939 0.633989 0.288175 -0.11473
C_ C_ 0.0571649 0.633265 0.21229 -0.11473
C_ C_ 0.307168 0.633265 0.21229 -0.11473
C_ C_ 0.0325771 0.578017 0.24997 -0.02249
C_ C_ 0.28258 0.578016 0.24997 -0.02249
C_ C_ 0.0847839 0.690298 0.25067 0.6875
C_ C_ 0.334787 0.690297 0.25067 0.6875
C_ C_ 0.040563 0.597301 0.287995 -0.11473
C_ C_ 0.290566 0.5973 0.287995 -0.11473
C_ C_ 0.155099 0.749992 0.37765 0.17695
C_ C_ 0.405101 0.75 0.37765 0.17695
C_ C_ 0.102843 0.749998 0.38145 0.17695
C_ C_ 0.352844 0.749999 0.381465 0.17695
C_ C_ 0.103899 0.749996 0.425005 -0.11473
C_ C_ 0.3539 0.75 0.425 -0.11473
C_ C_ 0.132208 0.749993 0.445385 0.23465
C_ C_ 0.382209 0.750001 0.44535 0.23465
C_ C_ 0.158169 0.749989 0.4212 -0.11473
C_ C_ 0.408171 0.75 0.4212 -0.11473
C_ C_ 0.0949034 0.750012 0.12233 0.17695
C_ C_ 0.344905 0.750003 0.12233 0.17695
C_ C_ 0.14716 0.750006 0.118515 0.17695
C_ C_ 0.397162 0.750004 0.118515 0.17695
C_ C_ 0.146103 0.750007 0.0749799 -0.11473
C_ C_ 0.396106 0.750004 0.07495 -0.11473
C_ C_ 0.117794 0.75001 0.0545001 0.23465
C_ C_ 0.367796 0.750003 0.0546 0.23465
C_ C_ 0.0918329 0.750014 0.0787801 -0.11473
C_ C_ 0.341835 0.750003 0.0787801 -0.11473
C_ C_ 0.0310426 0.999998 0.24981 0.05793
C_ C_ 0.281045 0.999998 0.24981 0.05793
C_ C_ 0.218958 0.500001 0.25017 0.05793
C_ C_ 0.46896 0.500001 0.25017 0.05793
Br Br 0.0743376 -2.9999999999752447e-06 0.24991 -0.17191
Br Br 0.32434 0.999996 0.24991 -0.17191
Br Br 0.175663 0.500003 0.25007 -0.17191
Br Br 0.425665 0.500003 0.25007 -0.17191
N_ N_ 0.127942 0.749996 0.3582 -0.272
N_ N_ 0.377945 0.75 0.3582 -0.272
N_ N_ 0.137097 0.749993 0.489575 -0.12501
N_ N_ 0.387098 0.750001 0.489575 -0.12501
N_ N_ 0.122059 0.750007 0.141755 -0.272
N_ N_ 0.372062 0.750004 0.141755 -0.272
N_ N_ 0.112906 0.750011 0.0104049 -0.12501
N_ N_ 0.362907 0.750003 0.0104049 -0.12501
O_ O_ 0.0924794 0.795258 0.215205 -0.60745
O_ O_ 0.342481 0.795258 0.215205 -0.60745
O_ O_ 0.0926031 0.795156 0.286475 -0.60745
O_ O_ 0.342604 0.795156 0.286475 -0.60745
O_ O_ 0.157522 0.795259 0.284775 -0.60745
O_ O_ 0.407524 0.795259 0.284775 -0.60745
O_ O_ 0.157399 0.795158 0.213505 -0.60745
O_ O_ 0.407402 0.795158 0.213505 -0.60745
O_ O_ 0.157522 0.704745 0.284775 -0.60745
O_ O_ 0.407525 0.704745 0.284775 -0.60745
O_ O_ 0.157399 0.704847 0.213505 -0.60745
O_ O_ 0.407401 0.704847 0.213505 -0.60745
O_ O_ 0.0924795 0.704745 0.215205 -0.60745
O_ O_ 0.342481 0.704745 0.215205 -0.60745
O_ O_ 0.0926024 0.704845 0.286475 -0.60745
O_ O_ 0.342604 0.704845 0.286475 -0.60745
Zn Zn 0.125109 0.750001 0.7932 0.9476
Zn Zn 0.375109 0.750001 0.7932 0.9476
Zn Zn 0.124894 0.750002 0.70678 0.9476
Zn Zn 0.374896 0.750002 0.70678 0.9476
H_ H_ 0.0346771 0.918407 0.68246 0.10932
H_ H_ 0.28468 0.918407 0.68246 0.10932
H_ H_ 0.0636971 0.851169 0.81757 0.10932
H_ H_ 0.3137 0.851169 0.81757 0.10932
H_ H_ 0.0640935 0.852466 0.683055 0.10932
H_ H_ 0.314096 0.852466 0.683055 0.10932
H_ H_ 0.0341926 0.917025 0.81752 0.10932
H_ H_ 0.284195 0.917025 0.81752 0.10932
H_ H_ 0.215323 0.918405 0.81752 0.10932
H_ H_ 0.465325 0.918405 0.81752 0.10932
H_ H_ 0.186305 0.851176 0.68241 0.10932
H_ H_ 0.436307 0.851176 0.68241 0.10932
H_ H_ 0.185907 0.852465 0.816925 0.10932
H_ H_ 0.435909 0.852465 0.816925 0.10932
H_ H_ 0.215809 0.917029 0.68246 0.10932
H_ H_ 0.465811 0.91703 0.68246 0.10932
H_ H_ 0.215325 0.581596 0.81752 0.10932
H_ H_ 0.465327 0.581595 0.81752 0.10932
H_ H_ 0.186305 0.648834 0.68241 0.10932
H_ H_ 0.436307 0.648834 0.68241 0.10932
H_ H_ 0.185909 0.647537 0.816925 0.10932
H_ H_ 0.43591 0.647537 0.8169 0.10932
H_ H_ 0.21581 0.582979 0.68246 0.10932
H_ H_ 0.465811 0.582978 0.68246 0.10932
H_ H_ 0.0346784 0.581599 0.68246 0.10932
H_ H_ 0.284682 0.581598 0.68246 0.10932
H_ H_ 0.0636965 0.648828 0.81757 0.10932
H_ H_ 0.313699 0.648827 0.81757 0.10932
H_ H_ 0.0640945 0.647538 0.683055 0.10932
H_ H_ 0.314098 0.647538 0.683055 0.10932
H_ H_ 0.0341926 0.582974 0.81752 0.10932
H_ H_ 0.284195 0.582974 0.81752 0.10932
H_ H_ 0.17444 0.749989 0.85713 0.10932
H_ H_ 0.424441 0.75 0.85713 0.10932
H_ H_ 0.0816264 0.749999 0.863685 0.10932
H_ H_ 0.331628 0.749999 0.863685 0.10932
H_ H_ 0.0834354 0.749998 0.94315 0.10932
H_ H_ 0.333437 0.75 0.943185 0.10932
H_ H_ 0.180258 0.749985 0.936625 0.10932
H_ H_ 0.430259 0.75 0.936625 0.10932
H_ H_ 0.0755624 0.750014 0.64285 0.10932
H_ H_ 0.325564 0.750003 0.64285 0.10932
H_ H_ 0.168376 0.750004 0.636 0.10932
H_ H_ 0.418378 0.750004 0.636295 0.10932
H_ H_ 0.166567 0.750005 0.556795 0.10932
H_ H_ 0.416569 0.750004 0.556795 0.10932
H_ H_ 0.069745 0.750018 0.563355 0.10932
H_ H_ 0.319747 0.750003 0.563355 0.10932
C_ C_ 0.0655485 0.847806 0.7503 -0.02249
C_ C_ 0.315551 0.847806 0.7503 -0.02249
C_ C_ 0.0158785 0.961942 0.74989 -0.02249
C_ C_ 0.265881 0.961942 0.74989 -0.02249
C_ C_ 0.0408275 0.903466 0.71211 -0.11473
C_ C_ 0.29083 0.903466 0.71211 -0.11473
C_ C_ 0.056936 0.86601 0.78815 -0.11473
C_ C_ 0.306938 0.86601 0.78815 -0.11473
C_ C_ 0.0571636 0.866738 0.71229 -0.11473
C_ C_ 0.307166 0.866738 0.71229 -0.11473
C_ C_ 0.0325764 0.921985 0.74997 -0.02249
C_ C_ 0.282578 0.921985 0.74997 -0.02249
C_ C_ 0.0847836 0.809704 0.75067 0.6875
C_ C_ 0.334787 0.809705 0.75067 0.6875
C_ C_ 0.0405626 0.902699 0.787995 -0.11473
C_ C_ 0.290565 0.902699 0.787995 -0.11473
C_ C_ 0.184453 0.847809 0.7495 -0.02249
C_ C_ 0.434455 0.847809 0.749645 -0.02249
C_ C_ 0.234124 0.961943 0.75009 -0.02249
C_ C_ 0.484125 0.961943 0.75009 -0.02249
C_ C_ 0.209173 0.903466 0.78787 -0.11473
C_ C_ 0.459175 0.903466 0.78787 -0.11473
C_ C_ 0.193065 0.866014 0.7118 -0.11473
C_ C_ 0.443068 0.866014 0.711805 -0.11473
C_ C_ 0.192837 0.866738 0.78769 -0.11473
C_ C_ 0.442839 0.866738 0.78769 -0.11473
C_ C_ 0.217425 0.921987 0.75001 -0.02249
C_ C_ 0.467427 0.921987 0.75001 -0.02249
C_ C_ 0.165218 0.809706 0.74931 0.6875
C_ C_ 0.415219 0.809706 0.74931 0.6875
C_ C_ 0.209439 0.902703 0.711985 -0.11473
C_ C_ 0.459441 0.902703 0.711985 -0.11473
C_ C_ 0.184454 0.652197 0.74965 -0.02249
C_ C_ 0.434455 0.652197 0.74965 -0.02249
C_ C_ 0.234124 0.538062 0.75009 -0.02249
C_ C_ 0.484125 0.538061 0.75009 -0.02249
C_ C_ 0.209175 0.596537 0.78787 -0.11473
C_ C_ 0.459176 0.596537 0.78787 -0.11473
C_ C_ 0.193066 0.633993 0.71181 -0.11473
C_ C_ 0.443067 0.633993 0.71181 -0.11473
C_ C_ 0.192838 0.633266 0.78769 -0.11473
C_ C_ 0.44284 0.633265 0.78769 -0.11473
C_ C_ 0.217426 0.578019 0.75001 -0.02249
C_ C_ 0.467427 0.578019 0.75001 -0.02249
C_ C_ 0.165219 0.6903 0.74931 0.6875
C_ C_ 0.415219 0.690299 0.74931 0.6875
C_ C_ 0.209439 0.597305 0.711985 -0.11473
C_ C_ 0.45944 0.597304 0.711985 -0.11473
C_ C_ 0.065549 0.652195 0.750335 -0.02249
C_ C_ 0.315551 0.652194 0.750335 -0.02249
C_ C_ 0.015878 0.538061 0.74989 -0.02249
C_ C_ 0.265881 0.538061 0.74989 -0.02249
C_ C_ 0.0408284 0.596538 0.71211 -0.11473
C_ C_ 0.290832 0.596537 0.71211 -0.11473
C_ C_ 0.0569366 0.633989 0.788175 -0.11473
C_ C_ 0.306939 0.633989 0.788175 -0.11473
C_ C_ 0.057165 0.633265 0.71229 -0.11473
C_ C_ 0.307168 0.633265 0.71229 -0.11473
C_ C_ 0.032577 0.578017 0.74997 -0.02249
C_ C_ 0.282579 0.578016 0.74997 -0.02249
C_ C_ 0.084784 0.690298 0.75067 0.6875
C_ C_ 0.334787 0.690297 0.75067 0.6875
C_ C_ 0.0405631 0.597301 0.787995 -0.11473
C_ C_ 0.290566 0.5973 0.787995 -0.11473
C_ C_ 0.155099 0.749991 0.87765 0.17695
C_ C_ 0.405101 0.75 0.87765 0.17695
C_ C_ 0.102842 0.749998 0.88145 0.17695
C_ C_ 0.352844 0.749999 0.881465 0.17695
C_ C_ 0.103899 0.749996 0.925005 -0.11473
C_ C_ 0.353901 0.75 0.925 -0.11473
C_ C_ 0.132209 0.749993 0.945385 0.23465
C_ C_ 0.38221 0.750001 0.94535 0.23465
C_ C_ 0.15817 0.749989 0.9212 -0.11473
C_ C_ 0.408171 0.75 0.9212 -0.11473
C_ C_ 0.0949035 0.750012 0.62233 0.17695
C_ C_ 0.344906 0.750003 0.62233 0.17695
C_ C_ 0.14716 0.750006 0.618515 0.17695
C_ C_ 0.397162 0.750004 0.618515 0.17695
C_ C_ 0.146104 0.750007 0.57498 -0.11473
C_ C_ 0.396105 0.750004 0.57495 -0.11473
C_ C_ 0.117794 0.75001 0.5545 0.23465
C_ C_ 0.367796 0.750003 0.5546 0.23465
C_ C_ 0.091833 0.750014 0.57878 -0.11473
C_ C_ 0.341835 0.750003 0.57878 -0.11473
C_ C_ 0.0310425 -1.999999999946489e-06 0.74981 0.05793
C_ C_ 0.281045 -1.999999999946489e-06 0.74981 0.05793
C_ C_ 0.218958 0.500001 0.75017 0.05793
C_ C_ 0.46896 0.500001 0.75017 0.05793
Br Br 0.0743375 -2.9999999999752447e-06 0.74991 -0.17191
Br Br 0.32434 -4.000000000004e-06 0.74991 -0.17191
Br Br 0.175663 0.500004 0.75007 -0.17191
Br Br 0.425665 0.500003 0.75007 -0.17191
N_ N_ 0.127942 0.749996 0.8582 -0.272
N_ N_ 0.377944 0.75 0.8582 -0.272
N_ N_ 0.137098 0.749993 0.989575 -0.12501
N_ N_ 0.387098 0.750001 0.989575 -0.12501
N_ N_ 0.12206 0.750007 0.641755 -0.272
N_ N_ 0.372062 0.750004 0.641755 -0.272
N_ N_ 0.112907 0.750011 0.510405 -0.12501
N_ N_ 0.362907 0.750003 0.510405 -0.12501
O_ O_ 0.0924795 0.795258 0.715205 -0.60745
O_ O_ 0.342482 0.795258 0.715205 -0.60745
O_ O_ 0.0926029 0.795156 0.786475 -0.60745
O_ O_ 0.342605 0.795156 0.786475 -0.60745
O_ O_ 0.157523 0.795259 0.784775 -0.60745
O_ O_ 0.407525 0.795258 0.784775 -0.60745
O_ O_ 0.1574 0.795159 0.713505 -0.60745
O_ O_ 0.407402 0.795159 0.713505 -0.60745
O_ O_ 0.157523 0.704745 0.784775 -0.60745
O_ O_ 0.407525 0.704745 0.784775 -0.60745
O_ O_ 0.157399 0.704847 0.713505 -0.60745
O_ O_ 0.407401 0.704847 0.713505 -0.60745
O_ O_ 0.0924796 0.704744 0.715205 -0.60745
O_ O_ 0.342482 0.704745 0.715205 -0.60745
O_ O_ 0.0926025 0.704845 0.786475 -0.60745
O_ O_ 0.342605 0.704845 0.786475 -0.60745
Zn Zn 0.625109 0.250001 0.2932 0.9476
Zn Zn 0.875109 0.250001 0.2932 0.9476
Zn Zn 0.624895 0.250002 0.20678 0.9476
Zn Zn 0.874897 0.250002 0.20678 0.9476
H_ H_ 0.534677 0.418408 0.18246 0.10932
H_ H_ 0.78468 0.418408 0.18246 0.10932
H_ H_ 0.563697 0.351169 0.31757 0.10932
H_ H_ 0.8137 0.351169 0.31757 0.10932
H_ H_ 0.564093 0.352466 0.183055 0.10932
H_ H_ 0.814096 0.352466 0.183055 0.10932
H_ H_ 0.534193 0.417025 0.31752 0.10932
H_ H_ 0.784195 0.417025 0.31752 0.10932
H_ H_ 0.715323 0.418405 0.31752 0.10932
H_ H_ 0.965325 0.418404 0.31752 0.10932
H_ H_ 0.686305 0.351176 0.18241 0.10932
H_ H_ 0.936307 0.351176 0.18241 0.10932
H_ H_ 0.685907 0.352465 0.316925 0.10932
H_ H_ 0.935909 0.352465 0.316925 0.10932
H_ H_ 0.715809 0.417029 0.18246 0.10932
H_ H_ 0.965811 0.41703 0.18246 0.10932
H_ H_ 0.715325 0.0815959 0.31752 0.10932
H_ H_ 0.965327 0.0815955 0.31752 0.10932
H_ H_ 0.686306 0.148834 0.18241 0.10932
H_ H_ 0.936307 0.148834 0.18241 0.10932
H_ H_ 0.685909 0.147537 0.316925 0.10932
H_ H_ 0.93591 0.147537 0.3169 0.10932
H_ H_ 0.71581 0.0829786 0.18246 0.10932
H_ H_ 0.965811 0.082978 0.18246 0.10932
H_ H_ 0.534679 0.081599 0.18246 0.10932
H_ H_ 0.784682 0.0815981 0.18246 0.10932
H_ H_ 0.563696 0.148828 0.31757 0.10932
H_ H_ 0.813699 0.148827 0.31757 0.10932
H_ H_ 0.564094 0.147538 0.183055 0.10932
H_ H_ 0.814098 0.147538 0.183055 0.10932
H_ H_ 0.534193 0.0829739 0.31752 0.10932
H_ H_ 0.784195 0.0829736 0.31752 0.10932
H_ H_ 0.67444 0.249989 0.35713 0.10932
H_ H_ 0.924441 0.25 0.35713 0.10932
H_ H_ 0.581626 0.249999 0.363685 0.10932
H_ H_ 0.831628 0.249999 0.363685 0.10932
H_ H_ 0.583436 0.249998 0.44315 0.10932
H_ H_ 0.833437 0.25 0.443185 0.10932
H_ H_ 0.680257 0.249985 0.436625 0.10932
H_ H_ 0.930259 0.25 0.436625 0.10932
H_ H_ 0.575563 0.250014 0.14285 0.10932
H_ H_ 0.825564 0.250003 0.14285 0.10932
H_ H_ 0.668376 0.250004 0.136 0.10932
H_ H_ 0.918378 0.250004 0.136295 0.10932
H_ H_ 0.666567 0.250005 0.0567949 0.10932
H_ H_ 0.916569 0.250004 0.0567949 0.10932
H_ H_ 0.569745 0.250018 0.063355 0.10932
H_ H_ 0.819747 0.250003 0.063355 0.10932
C_ C_ 0.565548 0.347806 0.2503 -0.02249
C_ C_ 0.81555 0.347806 0.2503 -0.02249
C_ C_ 0.515878 0.461942 0.24989 -0.02249
C_ C_ 0.76588 0.461942 0.24989 -0.02249
C_ C_ 0.540827 0.403466 0.21211 -0.11473
C_ C_ 0.79083 0.403466 0.21211 -0.11473
C_ C_ 0.556936 0.36601 0.28815 -0.11473
C_ C_ 0.806938 0.36601 0.28815 -0.11473
C_ C_ 0.557164 0.366738 0.21229 -0.11473
C_ C_ 0.807166 0.366738 0.21229 -0.11473
C_ C_ 0.532577 0.421985 0.24997 -0.02249
C_ C_ 0.782578 0.421985 0.24997 -0.02249
C_ C_ 0.584784 0.309704 0.25067 0.6875
C_ C_ 0.834786 0.309705 0.25067 0.6875
C_ C_ 0.540563 0.402699 0.287995 -0.11473
C_ C_ 0.790565 0.402699 0.287995 -0.11473
C_ C_ 0.684453 0.347809 0.2495 -0.02249
C_ C_ 0.934455 0.347809 0.249645 -0.02249
C_ C_ 0.734124 0.461943 0.25009 -0.02249
C_ C_ 0.984126 0.461943 0.25009 -0.02249
C_ C_ 0.709173 0.403466 0.28787 -0.11473
C_ C_ 0.959175 0.403466 0.28787 -0.11473
C_ C_ 0.693065 0.366014 0.2118 -0.11473
C_ C_ 0.943067 0.366014 0.211805 -0.11473
C_ C_ 0.692837 0.366739 0.28769 -0.11473
C_ C_ 0.942839 0.366738 0.28769 -0.11473
C_ C_ 0.717425 0.421987 0.25001 -0.02249
C_ C_ 0.967427 0.421987 0.25001 -0.02249
C_ C_ 0.665218 0.309706 0.24931 0.6875
C_ C_ 0.915219 0.309706 0.24931 0.6875
C_ C_ 0.709439 0.402703 0.211985 -0.11473
C_ C_ 0.959441 0.402703 0.211985 -0.11473
C_ C_ 0.684454 0.152197 0.24965 -0.02249
C_ C_ 0.934456 0.152197 0.24965 -0.02249
C_ C_ 0.734124 0.0380616 0.25009 -0.02249
C_ C_ 0.984126 0.038061 0.25009 -0.02249
C_ C_ 0.709175 0.0965369 0.28787 -0.11473
C_ C_ 0.959176 0.0965366 0.28787 -0.11473
C_ C_ 0.693066 0.133993 0.21181 -0.11473
C_ C_ 0.943068 0.133993 0.21181 -0.11473
C_ C_ 0.692838 0.133266 0.28769 -0.11473
C_ C_ 0.94284 0.133265 0.28769 -0.11473
C_ C_ 0.717426 0.0780186 0.25001 -0.02249
C_ C_ 0.967427 0.0780186 0.25001 -0.02249
C_ C_ 0.665218 0.190299 0.24931 0.6875
C_ C_ 0.91522 0.190299 0.24931 0.6875
C_ C_ 0.709439 0.0973046 0.211985 -0.11473
C_ C_ 0.959441 0.097304 0.211985 -0.11473
C_ C_ 0.565549 0.152195 0.250335 -0.02249
C_ C_ 0.815551 0.152194 0.250335 -0.02249
C_ C_ 0.515878 0.0380603 0.24989 -0.02249
C_ C_ 0.765881 0.0380603 0.24989 -0.02249
C_ C_ 0.540829 0.0965374 0.21211 -0.11473
C_ C_ 0.790832 0.096537 0.21211 -0.11473
C_ C_ 0.556937 0.133989 0.288175 -0.11473
C_ C_ 0.806939 0.133989 0.288175 -0.11473
C_ C_ 0.557165 0.133265 0.21229 -0.11473
C_ C_ 0.807168 0.133265 0.21229 -0.11473
C_ C_ 0.532577 0.078017 0.24997 -0.02249
C_ C_ 0.782579 0.0780164 0.24997 -0.02249
C_ C_ 0.584784 0.190298 0.25067 0.6875
C_ C_ 0.834787 0.190297 0.25067 0.6875
C_ C_ 0.540563 0.097301 0.287995 -0.11473
C_ C_ 0.790566 0.0973004 0.287995 -0.11473
C_ C_ 0.655099 0.249992 0.37765 0.17695
C_ C_ 0.905101 0.25 0.37765 0.17695
C_ C_ 0.602842 0.249998 0.38145 0.17695
C_ C_ 0.852844 0.249999 0.381465 0.17695
C_ C_ 0.603899 0.249996 0.425005 -0.11473
C_ C_ 0.8539 0.25 0.425 -0.11473
C_ C_ 0.632208 0.249993 0.445385 0.23465
C_ C_ 0.88221 0.250001 0.44535 0.23465
C_ C_ 0.658169 0.249989 0.4212 -0.11473
C_ C_ 0.908171 0.25 0.4212 -0.11473
C_ C_ 0.594903 0.250012 0.12233 0.17695
C_ C_ 0.844905 0.250003 0.12233 0.17695
C_ C_ 0.64716 0.250006 0.118515 0.17695
C_ C_ 0.897162 0.250004 0.118515 0.17695
C_ C_ 0.646104 0.250007 0.0749799 -0.11473
C_ C_ 0.896106 0.250004 0.07495 -0.11473
C_ C_ 0.617794 0.25001 0.0545001 0.23465
C_ C_ 0.867796 0.250003 0.0546 0.23465
C_ C_ 0.591833 0.250014 0.0787801 -0.11473
C_ C_ 0.841835 0.250003 0.0787801 -0.11473
C_ C_ 0.531042 0.499998 0.24981 0.05793
C_ C_ 0.781045 0.499998 0.24981 0.05793
C_ C_ 0.718958 1.000000898658 0.25017 0.05793
C_ C_ 0.96896 1.000000589405 0.25017 0.05793
Br Br 0.574337 0.499997 0.24991 -0.17191
Br Br 0.82434 0.499996 0.24991 -0.17191
Br Br 0.675663 3.37616e-06 0.25007 -0.17191
Br Br 0.925665 3.06691e-06 0.25007 -0.17191
N_ N_ 0.627942 0.249996 0.3582 -0.272
N_ N_ 0.877944 0.25 0.3582 -0.272
N_ N_ 0.637098 0.249993 0.489575 -0.12501
N_ N_ 0.887098 0.250001 0.489575 -0.12501
N_ N_ 0.62206 0.250007 0.141755 -0.272
N_ N_ 0.872062 0.250004 0.141755 -0.272
N_ N_ 0.612907 0.250011 0.0104049 -0.12501
N_ N_ 0.862907 0.250003 0.0104049 -0.12501
O_ O_ 0.592479 0.295258 0.215205 -0.60745
O_ O_ 0.842482 0.295258 0.215205 -0.60745
O_ O_ 0.592603 0.295156 0.286475 -0.60745
O_ O_ 0.842604 0.295156 0.286475 -0.60745
O_ O_ 0.657522 0.295259 0.284775 -0.60745
O_ O_ 0.907525 0.295259 0.284775 -0.60745
O_ O_ 0.6574 0.295158 0.213505 -0.60745
O_ O_ 0.907402 0.295158 0.213505 -0.60745
O_ O_ 0.657523 0.204745 0.284775 -0.60745
O_ O_ 0.907525 0.204745 0.284775 -0.60745
O_ O_ 0.657399 0.204847 0.213505 -0.60745
O_ O_ 0.907401 0.204847 0.213505 -0.60745
O_ O_ 0.59248 0.204745 0.215205 -0.60745
O_ O_ 0.842482 0.204745 0.215205 -0.60745
O_ O_ 0.592602 0.204845 0.286475 -0.60745
O_ O_ 0.842604 0.204845 0.286475 -0.60745
Zn Zn 0.625108 0.250001 0.7932 0.9476
Zn Zn 0.87511 0.250001 0.7932 0.9476
Zn Zn 0.624894 0.250002 0.70678 0.9476
Zn Zn 0.874896 0.250002 0.70678 0.9476
H_ H_ 0.534677 0.418407 0.68246 0.10932
H_ H_ 0.78468 0.418407 0.68246 0.10932
H_ H_ 0.563697 0.351169 0.81757 0.10932
H_ H_ 0.813699 0.351169 0.81757 0.10932
H_ H_ 0.564094 0.352466 0.683055 0.10932
H_ H_ 0.814096 0.352466 0.683055 0.10932
H_ H_ 0.534192 0.417025 0.81752 0.10932
H_ H_ 0.784195 0.417025 0.81752 0.10932
H_ H_ 0.715323 0.418405 0.81752 0.10932
H_ H_ 0.965325 0.418405 0.81752 0.10932
H_ H_ 0.686305 0.351176 0.68241 0.10932
H_ H_ 0.936307 0.351176 0.68241 0.10932
H_ H_ 0.685907 0.352465 0.816925 0.10932
H_ H_ 0.935909 0.352465 0.816925 0.10932
H_ H_ 0.715809 0.417029 0.68246 0.10932
H_ H_ 0.965811 0.41703 0.68246 0.10932
H_ H_ 0.715325 0.0815961 0.81752 0.10932
H_ H_ 0.965326 0.0815955 0.81752 0.10932
H_ H_ 0.686305 0.148834 0.68241 0.10932
H_ H_ 0.936307 0.148834 0.68241 0.10932
H_ H_ 0.685908 0.147537 0.816925 0.10932
H_ H_ 0.93591 0.147537 0.8169 0.10932
H_ H_ 0.71581 0.0829785 0.68246 0.10932
H_ H_ 0.965811 0.0829779 0.68246 0.10932
H_ H_ 0.534678 0.0815989 0.68246 0.10932
H_ H_ 0.784682 0.081598 0.68246 0.10932
H_ H_ 0.563697 0.148828 0.81757 0.10932
H_ H_ 0.8137 0.148827 0.81757 0.10932
H_ H_ 0.564095 0.147538 0.683055 0.10932
H_ H_ 0.814098 0.147538 0.683055 0.10932
H_ H_ 0.534193 0.0829738 0.81752 0.10932
H_ H_ 0.784195 0.0829735 0.81752 0.10932
H_ H_ 0.67444 0.249989 0.85713 0.10932
H_ H_ 0.924442 0.25 0.85713 0.10932
H_ H_ 0.581626 0.249999 0.863685 0.10932
H_ H_ 0.831628 0.249999 0.863685 0.10932
H_ H_ 0.583435 0.249998 0.94315 0.10932
H_ H_ 0.833437 0.25 0.943185 0.10932
H_ H_ 0.680258 0.249985 0.936625 0.10932
H_ H_ 0.930259 0.25 0.936625 0.10932
H_ H_ 0.575562 0.250014 0.64285 0.10932
H_ H_ 0.825564 0.250003 0.64285 0.10932
H_ H_ 0.668376 0.250004 0.636 0.10932
H_ H_ 0.918378 0.250004 0.636295 0.10932
H_ H_ 0.666567 0.250005 0.556795 0.10932
H_ H_ 0.916569 0.250004 0.556795 0.10932
H_ H_ 0.569745 0.250018 0.563355 0.10932
H_ H_ 0.819746 0.250003 0.563355 0.10932
C_ C_ 0.565549 0.347806 0.7503 -0.02249
C_ C_ 0.815551 0.347806 0.7503 -0.02249
C_ C_ 0.515879 0.461942 0.74989 -0.02249
C_ C_ 0.765881 0.461942 0.74989 -0.02249
C_ C_ 0.540827 0.403466 0.71211 -0.11473
C_ C_ 0.79083 0.403466 0.71211 -0.11473
C_ C_ 0.556936 0.36601 0.78815 -0.11473
C_ C_ 0.806939 0.36601 0.78815 -0.11473
C_ C_ 0.557163 0.366738 0.71229 -0.11473
C_ C_ 0.807166 0.366738 0.71229 -0.11473
C_ C_ 0.532576 0.421985 0.74997 -0.02249
C_ C_ 0.782579 0.421985 0.74997 -0.02249
C_ C_ 0.584783 0.309704 0.75067 0.6875
C_ C_ 0.834787 0.309705 0.75067 0.6875
C_ C_ 0.540562 0.402699 0.787995 -0.11473
C_ C_ 0.790565 0.402699 0.787995 -0.11473
C_ C_ 0.684452 0.347809 0.7495 -0.02249
C_ C_ 0.934455 0.347809 0.749645 -0.02249
C_ C_ 0.734123 0.461943 0.75009 -0.02249
C_ C_ 0.984125 0.461943 0.75009 -0.02249
C_ C_ 0.709173 0.403466 0.78787 -0.11473
C_ C_ 0.959175 0.403466 0.78787 -0.11473
C_ C_ 0.693065 0.366014 0.7118 -0.11473
C_ C_ 0.943068 0.366014 0.711805 -0.11473
C_ C_ 0.692837 0.366738 0.78769 -0.11473
C_ C_ 0.942839 0.366738 0.78769 -0.11473
C_ C_ 0.717425 0.421987 0.75001 -0.02249
C_ C_ 0.967427 0.421987 0.75001 -0.02249
C_ C_ 0.665218 0.309706 0.74931 0.6875
C_ C_ 0.91522 0.309706 0.74931 0.6875
C_ C_ 0.709439 0.402703 0.711985 -0.11473
C_ C_ 0.95944 0.402703 0.711985 -0.11473
C_ C_ 0.684454 0.152197 0.74965 -0.02249
C_ C_ 0.934455 0.152197 0.74965 -0.02249
C_ C_ 0.734124 0.0380615 0.75009 -0.02249
C_ C_ 0.984125 0.0380609 0.75009 -0.02249
C_ C_ 0.709175 0.0965368 0.78787 -0.11473
C_ C_ 0.959176 0.0965365 0.78787 -0.11473
C_ C_ 0.693066 0.133993 0.71181 -0.11473
C_ C_ 0.943067 0.133993 0.71181 -0.11473
C_ C_ 0.692839 0.133266 0.78769 -0.11473
C_ C_ 0.94284 0.133265 0.78769 -0.11473
C_ C_ 0.717426 0.0780185 0.75001 -0.02249
C_ C_ 0.967428 0.0780185 0.75001 -0.02249
C_ C_ 0.665219 0.1903 0.74931 0.6875
C_ C_ 0.915219 0.190299 0.74931 0.6875
C_ C_ 0.70944 0.0973046 0.711985 -0.11473
C_ C_ 0.95944 0.0973039 0.711985 -0.11473
C_ C_ 0.565549 0.152195 0.750335 -0.02249
C_ C_ 0.815552 0.152194 0.750335 -0.02249
C_ C_ 0.515878 0.0380606 0.74989 -0.02249
C_ C_ 0.765881 0.0380606 0.74989 -0.02249
C_ C_ 0.540828 0.0965376 0.71211 -0.11473
C_ C_ 0.790832 0.096537 0.71211 -0.11473
C_ C_ 0.556936 0.133989 0.788175 -0.11473
C_ C_ 0.806939 0.133989 0.788175 -0.11473
C_ C_ 0.557165 0.133265 0.71229 -0.11473
C_ C_ 0.807168 0.133265 0.71229 -0.11473
C_ C_ 0.532577 0.078017 0.74997 -0.02249
C_ C_ 0.782579 0.0780164 0.74997 -0.02249
C_ C_ 0.584784 0.190298 0.75067 0.6875
C_ C_ 0.834787 0.190297 0.75067 0.6875
C_ C_ 0.540563 0.097301 0.787995 -0.11473
C_ C_ 0.790566 0.0973004 0.787995 -0.11473
C_ C_ 0.655098 0.249991 0.87765 0.17695
C_ C_ 0.9051 0.25 0.87765 0.17695
C_ C_ 0.602843 0.249998 0.88145 0.17695
C_ C_ 0.852844 0.249999 0.881465 0.17695
C_ C_ 0.603899 0.249996 0.925005 -0.11473
C_ C_ 0.853901 0.25 0.925 -0.11473
C_ C_ 0.632209 0.249993 0.945385 0.23465
C_ C_ 0.882209 0.250001 0.94535 0.23465
C_ C_ 0.65817 0.249989 0.9212 -0.11473
C_ C_ 0.908171 0.25 0.9212 -0.11473
C_ C_ 0.594904 0.250012 0.62233 0.17695
C_ C_ 0.844906 0.250003 0.62233 0.17695
C_ C_ 0.64716 0.250006 0.618515 0.17695
C_ C_ 0.897162 0.250004 0.618515 0.17695
C_ C_ 0.646103 0.250007 0.57498 -0.11473
C_ C_ 0.896105 0.250004 0.57495 -0.11473
C_ C_ 0.617795 0.25001 0.5545 0.23465
C_ C_ 0.867796 0.250003 0.5546 0.23465
C_ C_ 0.591833 0.250014 0.57878 -0.11473
C_ C_ 0.841834 0.250003 0.57878 -0.11473
C_ C_ 0.531043 0.499998 0.74981 0.05793
C_ C_ 0.781045 0.499998 0.74981 0.05793
C_ C_ 0.718959 8.52271e-07 0.75017 0.05793
C_ C_ 0.96896 5.43018e-07 0.75017 0.05793
Br Br 0.574338 0.499997 0.74991 -0.17191
Br Br 0.82434 0.499996 0.74991 -0.17191
Br Br 0.675664 3.63903e-06 0.75007 -0.17191
Br Br 0.925665 3.02052e-06 0.75007 -0.17191
N_ N_ 0.627942 0.249996 0.8582 -0.272
N_ N_ 0.877944 0.25 0.8582 -0.272
N_ N_ 0.637098 0.249993 0.989575 -0.12501
N_ N_ 0.887098 0.250001 0.989575 -0.12501
N_ N_ 0.62206 0.250007 0.641755 -0.272
N_ N_ 0.872062 0.250004 0.641755 -0.272
N_ N_ 0.612906 0.250011 0.510405 -0.12501
N_ N_ 0.862907 0.250003 0.510405 -0.12501
O_ O_ 0.59248 0.295258 0.715205 -0.60745
O_ O_ 0.842482 0.295258 0.715205 -0.60745
O_ O_ 0.592603 0.295156 0.786475 -0.60745
O_ O_ 0.842605 0.295156 0.786475 -0.60745
O_ O_ 0.657523 0.295259 0.784775 -0.60745
O_ O_ 0.907525 0.295258 0.784775 -0.60745
O_ O_ 0.657399 0.295159 0.713505 -0.60745
O_ O_ 0.907401 0.295159 0.713505 -0.60745
O_ O_ 0.657523 0.204745 0.784775 -0.60745
O_ O_ 0.907524 0.204745 0.784775 -0.60745
O_ O_ 0.657399 0.204847 0.713505 -0.60745
O_ O_ 0.907401 0.204847 0.713505 -0.60745
O_ O_ 0.59248 0.204744 0.715205 -0.60745
O_ O_ 0.842481 0.204745 0.715205 -0.60745
O_ O_ 0.592603 0.204845 0.786475 -0.60745
O_ O_ 0.842605 0.204845 0.786475 -0.60745
Zn Zn 0.625109 0.750001 0.2932 0.9476
Zn Zn 0.875109 0.750001 0.2932 0.9476
Zn Zn 0.624895 0.750002 0.20678 0.9476
Zn Zn 0.874897 0.750002 0.20678 0.9476
H_ H_ 0.534677 0.918408 0.18246 0.10932
H_ H_ 0.784679 0.918408 0.18246 0.10932
H_ H_ 0.563697 0.851169 0.31757 0.10932
H_ H_ 0.8137 0.851169 0.31757 0.10932
H_ H_ 0.564093 0.852466 0.183055 0.10932
H_ H_ 0.814096 0.852466 0.183055 0.10932
H_ H_ 0.534193 0.917025 0.31752 0.10932
H_ H_ 0.784195 0.917025 0.31752 0.10932
H_ H_ 0.715323 0.918405 0.31752 0.10932
H_ H_ 0.965325 0.918404 0.31752 0.10932
H_ H_ 0.686305 0.851176 0.18241 0.10932
H_ H_ 0.936307 0.851176 0.18241 0.10932
H_ H_ 0.685907 0.852465 0.316925 0.10932
H_ H_ 0.935909 0.852465 0.316925 0.10932
H_ H_ 0.715809 0.917029 0.18246 0.10932
H_ H_ 0.965811 0.91703 0.18246 0.10932
H_ H_ 0.715325 0.581596 0.31752 0.10932
H_ H_ 0.965327 0.581596 0.31752 0.10932
H_ H_ 0.686306 0.648834 0.18241 0.10932
H_ H_ 0.936306 0.648834 0.18241 0.10932
H_ H_ 0.685909 0.647537 0.316925 0.10932
H_ H_ 0.93591 0.647537 0.3169 0.10932
H_ H_ 0.71581 0.582979 0.18246 0.10932
H_ H_ 0.965811 0.582978 0.18246 0.10932
H_ H_ 0.534679 0.581599 0.18246 0.10932
H_ H_ 0.784682 0.581598 0.18246 0.10932
H_ H_ 0.563696 0.648828 0.31757 0.10932
H_ H_ 0.8137 0.648827 0.31757 0.10932
H_ H_ 0.564094 0.647538 0.183055 0.10932
H_ H_ 0.814098 0.647538 0.183055 0.10932
H_ H_ 0.534192 0.582974 0.31752 0.10932
H_ H_ 0.784195 0.582974 0.31752 0.10932
H_ H_ 0.67444 0.749989 0.35713 0.10932
H_ H_ 0.924442 0.75 0.35713 0.10932
H_ H_ 0.581627 0.749999 0.363685 0.10932
H_ H_ 0.831628 0.749999 0.363685 0.10932
H_ H_ 0.583436 0.749998 0.44315 0.10932
H_ H_ 0.833437 0.75 0.443185 0.10932
H_ H_ 0.680257 0.749985 0.436625 0.10932
H_ H_ 0.930259 0.75 0.436625 0.10932
H_ H_ 0.575563 0.750014 0.14285 0.10932
H_ H_ 0.825564 0.750003 0.14285 0.10932
H_ H_ 0.668376 0.750004 0.136 0.10932
H_ H_ 0.918378 0.750004 0.136295 0.10932
H_ H_ 0.666567 0.750005 0.0567949 0.10932
H_ H_ 0.916569 0.750004 0.0567949 0.10932
H_ H_ 0.569745 0.750018 0.063355 0.10932
H_ H_ 0.819747 0.750003 0.063355 0.10932
C_ C_ 0.565548 0.847806 0.2503 -0.02249
C_ C_ 0.81555 0.847806 0.2503 -0.02249
C_ C_ 0.515878 0.961942 0.24989 -0.02249
C_ C_ 0.76588 0.961942 0.24989 -0.02249
C_ C_ 0.540828 0.903466 0.21211 -0.11473
C_ C_ 0.79083 0.903466 0.21211 -0.11473
C_ C_ 0.556936 0.86601 0.28815 -0.11473
C_ C_ 0.806939 0.86601 0.28815 -0.11473
C_ C_ 0.557164 0.866738 0.21229 -0.11473
C_ C_ 0.807166 0.866738 0.21229 -0.11473
C_ C_ 0.532577 0.921985 0.24997 -0.02249
C_ C_ 0.782579 0.921985 0.24997 -0.02249
C_ C_ 0.584784 0.809704 0.25067 0.6875
C_ C_ 0.834786 0.809705 0.25067 0.6875
C_ C_ 0.540563 0.902699 0.287995 -0.11473
C_ C_ 0.790565 0.902699 0.287995 -0.11473
C_ C_ 0.684453 0.847809 0.2495 -0.02249
C_ C_ 0.934455 0.847809 0.249645 -0.02249
C_ C_ 0.734124 0.961943 0.25009 -0.02249
C_ C_ 0.984126 0.961943 0.25009 -0.02249
C_ C_ 0.709173 0.903466 0.28787 -0.11473
C_ C_ 0.959175 0.903466 0.28787 -0.11473
C_ C_ 0.693065 0.866014 0.2118 -0.11473
C_ C_ 0.943067 0.866014 0.211805 -0.11473
C_ C_ 0.692837 0.866739 0.28769 -0.11473
C_ C_ 0.942839 0.866738 0.28769 -0.11473
C_ C_ 0.717425 0.921987 0.25001 -0.02249
C_ C_ 0.967427 0.921987 0.25001 -0.02249
C_ C_ 0.665218 0.809706 0.24931 0.6875
C_ C_ 0.91522 0.809706 0.24931 0.6875
C_ C_ 0.709438 0.902703 0.211985 -0.11473
C_ C_ 0.95944 0.902703 0.211985 -0.11473
C_ C_ 0.684454 0.652197 0.24965 -0.02249
C_ C_ 0.934456 0.652197 0.24965 -0.02249
C_ C_ 0.734124 0.538062 0.25009 -0.02249
C_ C_ 0.984126 0.538061 0.25009 -0.02249
C_ C_ 0.709175 0.596537 0.28787 -0.11473
C_ C_ 0.959176 0.596537 0.28787 -0.11473
C_ C_ 0.693066 0.633993 0.21181 -0.11473
C_ C_ 0.943068 0.633993 0.21181 -0.11473
C_ C_ 0.692839 0.633266 0.28769 -0.11473
C_ C_ 0.94284 0.633265 0.28769 -0.11473
C_ C_ 0.717426 0.578019 0.25001 -0.02249
C_ C_ 0.967428 0.578019 0.25001 -0.02249
C_ C_ 0.665218 0.690299 0.24931 0.6875
C_ C_ 0.91522 0.690299 0.24931 0.6875
C_ C_ 0.709439 0.597305 0.211985 -0.11473
C_ C_ 0.959441 0.597304 0.211985 -0.11473
C_ C_ 0.565549 0.652195 0.250335 -0.02249
C_ C_ 0.815552 0.652194 0.250335 -0.02249
C_ C_ 0.515878 0.53806 0.24989 -0.02249
C_ C_ 0.765881 0.53806 0.24989 -0.02249
C_ C_ 0.540829 0.596537 0.21211 -0.11473
C_ C_ 0.790832 0.596537 0.21211 -0.11473
C_ C_ 0.556936 0.633989 0.288175 -0.11473
C_ C_ 0.806939 0.633989 0.288175 -0.11473
C_ C_ 0.557165 0.633265 0.21229 -0.11473
C_ C_ 0.807168 0.633265 0.21229 -0.11473
C_ C_ 0.532577 0.578017 0.24997 -0.02249
C_ C_ 0.78258 0.578016 0.24997 -0.02249
C_ C_ 0.584784 0.690298 0.25067 0.6875
C_ C_ 0.834787 0.690297 0.25067 0.6875
C_ C_ 0.540563 0.597301 0.287995 -0.11473
C_ C_ 0.790566 0.5973 0.287995 -0.11473
C_ C_ 0.655099 0.749992 0.37765 0.17695
C_ C_ 0.905101 0.75 0.37765 0.17695
C_ C_ 0.602843 0.749998 0.38145 0.17695
C_ C_ 0.852844 0.749999 0.381465 0.17695
C_ C_ 0.603899 0.749996 0.425005 -0.11473
C_ C_ 0.8539 0.75 0.425 -0.11473
C_ C_ 0.632208 0.749993 0.445385 0.23465
C_ C_ 0.882209 0.750001 0.44535 0.23465
C_ C_ 0.658169 0.749989 0.4212 -0.11473
C_ C_ 0.908171 0.75 0.4212 -0.11473
C_ C_ 0.594903 0.750012 0.12233 0.17695
C_ C_ 0.844905 0.750003 0.12233 0.17695
C_ C_ 0.64716 0.750006 0.118515 0.17695
C_ C_ 0.897162 0.750004 0.118515 0.17695
C_ C_ 0.646103 0.750007 0.0749799 -0.11473
C_ C_ 0.896106 0.750004 0.07495 -0.11473
C_ C_ 0.617794 0.75001 0.0545001 0.23465
C_ C_ 0.867796 0.750003 0.0546 0.23465
C_ C_ 0.591833 0.750014 0.0787801 -0.11473
C_ C_ 0.841835 0.750003 0.0787801 -0.11473
C_ C_ 0.531043 0.999998 0.24981 0.05793
C_ C_ 0.781045 0.999998 0.24981 0.05793
C_ C_ 0.718958 0.500001 0.25017 0.05793
C_ C_ 0.96896 0.500001 0.25017 0.05793
Br Br 0.574338 0.999997 0.24991 -0.17191
Br Br 0.82434 0.999996 0.24991 -0.17191
Br Br 0.675663 0.500003 0.25007 -0.17191
Br Br 0.925665 0.500003 0.25007 -0.17191
N_ N_ 0.627942 0.749996 0.3582 -0.272
N_ N_ 0.877945 0.75 0.3582 -0.272
N_ N_ 0.637097 0.749993 0.489575 -0.12501
N_ N_ 0.887098 0.750001 0.489575 -0.12501
N_ N_ 0.622059 0.750007 0.141755 -0.272
N_ N_ 0.872062 0.750004 0.141755 -0.272
N_ N_ 0.612906 0.750011 0.0104049 -0.12501
N_ N_ 0.862907 0.750003 0.0104049 -0.12501
O_ O_ 0.592479 0.795258 0.215205 -0.60745
O_ O_ 0.842481 0.795258 0.215205 -0.60745
O_ O_ 0.592603 0.795156 0.286475 -0.60745
O_ O_ 0.842604 0.795156 0.286475 -0.60745
O_ O_ 0.657522 0.795259 0.284775 -0.60745
O_ O_ 0.907524 0.795259 0.284775 -0.60745
O_ O_ 0.657399 0.795158 0.213505 -0.60745
O_ O_ 0.907402 0.795158 0.213505 -0.60745
O_ O_ 0.657522 0.704745 0.284775 -0.60745
O_ O_ 0.907525 0.704745 0.284775 -0.60745
O_ O_ 0.657399 0.704847 0.213505 -0.60745
O_ O_ 0.907401 0.704847 0.213505 -0.60745
O_ O_ 0.592479 0.704745 0.215205 -0.60745
O_ O_ 0.842481 0.704745 0.215205 -0.60745
O_ O_ 0.592602 0.704845 0.286475 -0.60745
O_ O_ 0.842604 0.704845 0.286475 -0.60745
Zn Zn 0.625109 0.750001 0.7932 0.9476
Zn Zn 0.875109 0.750001 0.7932 0.9476
Zn Zn 0.624894 0.750002 0.70678 0.9476
Zn Zn 0.874896 0.750002 0.70678 0.9476
H_ H_ 0.534677 0.918407 0.68246 0.10932
H_ H_ 0.78468 0.918407 0.68246 0.10932
H_ H_ 0.563697 0.851169 0.81757 0.10932
H_ H_ 0.8137 0.851169 0.81757 0.10932
H_ H_ 0.564093 0.852466 0.683055 0.10932
H_ H_ 0.814096 0.852466 0.683055 0.10932
H_ H_ 0.534193 0.917025 0.81752 0.10932
H_ H_ 0.784195 0.917025 0.81752 0.10932
H_ H_ 0.715323 0.918405 0.81752 0.10932
H_ H_ 0.965325 0.918405 0.81752 0.10932
H_ H_ 0.686305 0.851176 0.68241 0.10932
H_ H_ 0.936307 0.851176 0.68241 0.10932
H_ H_ 0.685907 0.852465 0.816925 0.10932
H_ H_ 0.935909 0.852465 0.816925 0.10932
H_ H_ 0.715809 0.917029 0.68246 0.10932
H_ H_ 0.965811 0.91703 0.68246 0.10932
H_ H_ 0.715325 0.581596 0.81752 0.10932
H_ H_ 0.965327 0.581595 0.81752 0.10932
H_ H_ 0.686305 0.648834 0.68241 0.10932
H_ H_ 0.936307 0.648834 0.68241 0.10932
H_ H_ 0.685909 0.647537 0.816925 0.10932
H_ H_ 0.93591 0.647537 0.8169 0.10932
H_ H_ 0.71581 0.582979 0.68246 0.10932
H_ H_ 0.965811 0.582978 0.68246 0.10932
H_ H_ 0.534678 0.581599 0.68246 0.10932
H_ H_ 0.784682 0.581598 0.68246 0.10932
H_ H_ 0.563697 0.648828 0.81757 0.10932
H_ H_ 0.813699 0.648827 0.81757 0.10932
H_ H_ 0.564095 0.647538 0.683055 0.10932
H_ H_ 0.814098 0.647538 0.683055 0.10932
H_ H_ 0.534193 0.582974 0.81752 0.10932
H_ H_ 0.784195 0.582974 0.81752 0.10932
H_ H_ 0.67444 0.749989 0.85713 0.10932
H_ H_ 0.924441 0.75 0.85713 0.10932
H_ H_ 0.581626 0.749999 0.863685 0.10932
H_ H_ 0.831628 0.749999 0.863685 0.10932
H_ H_ 0.583435 0.749998 0.94315 0.10932
H_ H_ 0.833437 0.75 0.943185 0.10932
H_ H_ 0.680258 0.749985 0.936625 0.10932
H_ H_ 0.930259 0.75 0.936625 0.10932
H_ H_ 0.575562 0.750014 0.64285 0.10932
H_ H_ 0.825564 0.750003 0.64285 0.10932
H_ H_ 0.668376 0.750004 0.636 0.10932
H_ H_ 0.918378 0.750004 0.636295 0.10932
H_ H_ 0.666567 0.750005 0.556795 0.10932
H_ H_ 0.916569 0.750004 0.556795 0.10932
H_ H_ 0.569745 0.750018 0.563355 0.10932
H_ H_ 0.819747 0.750003 0.563355 0.10932
C_ C_ 0.565548 0.847806 0.7503 -0.02249
C_ C_ 0.815551 0.847806 0.7503 -0.02249
C_ C_ 0.515878 0.961942 0.74989 -0.02249
C_ C_ 0.765881 0.961942 0.74989 -0.02249
C_ C_ 0.540827 0.903466 0.71211 -0.11473
C_ C_ 0.79083 0.903466 0.71211 -0.11473
C_ C_ 0.556936 0.86601 0.78815 -0.11473
C_ C_ 0.806938 0.86601 0.78815 -0.11473
C_ C_ 0.557164 0.866738 0.71229 -0.11473
C_ C_ 0.807166 0.866738 0.71229 -0.11473
C_ C_ 0.532576 0.921985 0.74997 -0.02249
C_ C_ 0.782578 0.921985 0.74997 -0.02249
C_ C_ 0.584784 0.809704 0.75067 0.6875
C_ C_ 0.834787 0.809705 0.75067 0.6875
C_ C_ 0.540563 0.902699 0.787995 -0.11473
C_ C_ 0.790565 0.902699 0.787995 -0.11473
C_ C_ 0.684453 0.847809 0.7495 -0.02249
C_ C_ 0.934455 0.847809 0.749645 -0.02249
C_ C_ 0.734124 0.961943 0.75009 -0.02249
C_ C_ 0.984125 0.961943 0.75009 -0.02249
C_ C_ 0.709173 0.903466 0.78787 -0.11473
C_ C_ 0.959175 0.903466 0.78787 -0.11473
C_ C_ 0.693065 0.866014 0.7118 -0.11473
C_ C_ 0.943068 0.866014 0.711805 -0.11473
C_ C_ 0.692837 0.866738 0.78769 -0.11473
C_ C_ 0.942839 0.866738 0.78769 -0.11473
C_ C_ 0.717425 0.921987 0.75001 -0.02249
C_ C_ 0.967427 0.921987 0.75001 -0.02249
C_ C_ 0.665218 0.809706 0.74931 0.6875
C_ C_ 0.915219 0.809706 0.74931 0.6875
C_ C_ 0.709439 0.902703 0.711985 -0.11473
C_ C_ 0.959441 0.902703 0.711985 -0.11473
C_ C_ 0.684454 0.652197 0.74965 -0.02249
C_ C_ 0.934455 0.652197 0.74965 -0.02249
C_ C_ 0.734124 0.538062 0.75009 -0.02249
C_ C_ 0.984125 0.538061 0.75009 -0.02249
C_ C_ 0.709175 0.596537 0.78787 -0.11473
C_ C_ 0.959176 0.596537 0.78787 -0.11473
C_ C_ 0.693066 0.633993 0.71181 -0.11473
C_ C_ 0.943067 0.633993 0.71181 -0.11473
C_ C_ 0.692838 0.633266 0.78769 -0.11473
C_ C_ 0.94284 0.633265 0.78769 -0.11473
C_ C_ 0.717426 0.578019 0.75001 -0.02249
C_ C_ 0.967427 0.578019 0.75001 -0.02249
C_ C_ 0.665219 0.6903 0.74931 0.6875
C_ C_ 0.915219 0.690299 0.74931 0.6875
C_ C_ 0.709439 0.597305 0.711985 -0.11473
C_ C_ 0.95944 0.597304 0.711985 -0.11473
C_ C_ 0.565549 0.652195 0.750335 -0.02249
C_ C_ 0.815551 0.652194 0.750335 -0.02249
C_ C_ 0.515878 0.538061 0.74989 -0.02249
C_ C_ 0.765881 0.538061 0.74989 -0.02249
C_ C_ 0.540828 0.596538 0.71211 -0.11473
C_ C_ 0.790832 0.596537 0.71211 -0.11473
C_ C_ 0.556937 0.633989 0.788175 -0.11473
C_ C_ 0.806939 0.633989 0.788175 -0.11473
C_ C_ 0.557165 0.633265 0.71229 -0.11473
C_ C_ 0.807168 0.633265 0.71229 -0.11473
C_ C_ 0.532577 0.578017 0.74997 -0.02249
C_ C_ 0.782579 0.578016 0.74997 -0.02249
C_ C_ 0.584784 0.690298 0.75067 0.6875
C_ C_ 0.834787 0.690297 0.75067 0.6875
C_ C_ 0.540563 0.597301 0.787995 -0.11473
C_ C_ 0.790566 0.5973 0.787995 -0.11473
C_ C_ 0.655099 0.749991 0.87765 0.17695
C_ C_ 0.905101 0.75 0.87765 0.17695
C_ C_ 0.602842 0.749998 0.88145 0.17695
C_ C_ 0.852844 0.749999 0.881465 0.17695
C_ C_ 0.603899 0.749996 0.925005 -0.11473
C_ C_ 0.853901 0.75 0.925 -0.11473
C_ C_ 0.632209 0.749993 0.945385 0.23465
C_ C_ 0.88221 0.750001 0.94535 0.23465
C_ C_ 0.65817 0.749989 0.9212 -0.11473
C_ C_ 0.908171 0.75 0.9212 -0.11473
C_ C_ 0.594904 0.750012 0.62233 0.17695
C_ C_ 0.844906 0.750003 0.62233 0.17695
C_ C_ 0.64716 0.750006 0.618515 0.17695
C_ C_ 0.897162 0.750004 0.618515 0.17695
C_ C_ 0.646104 0.750007 0.57498 -0.11473
C_ C_ 0.896105 0.750004 0.57495 -0.11473
C_ C_ 0.617794 0.75001 0.5545 0.23465
C_ C_ 0.867796 0.750003 0.5546 0.23465
C_ C_ 0.591833 0.750014 0.57878 -0.11473
C_ C_ 0.841835 0.750003 0.57878 -0.11473
C_ C_ 0.531042 -1.999999999946489e-06 0.74981 0.05793
C_ C_ 0.781045 -1.999999999946489e-06 0.74981 0.05793
C_ C_ 0.718958 0.500001 0.75017 0.05793
C_ C_ 0.96896 0.500001 0.75017 0.05793
Br Br 0.574337 -2.9999999999752447e-06 0.74991 -0.17191
Br Br 0.82434 0.999996 0.74991 -0.17191
Br Br 0.675663 0.500004 0.75007 -0.17191
Br Br 0.925665 0.500003 0.75007 -0.17191
N_ N_ 0.627942 0.749996 0.8582 -0.272
N_ N_ 0.877944 0.75 0.8582 -0.272
N_ N_ 0.637098 0.749993 0.989575 -0.12501
N_ N_ 0.887098 0.750001 0.989575 -0.12501
N_ N_ 0.62206 0.750007 0.641755 -0.272
N_ N_ 0.872062 0.750004 0.641755 -0.272
N_ N_ 0.612907 0.750011 0.510405 -0.12501
N_ N_ 0.862907 0.750003 0.510405 -0.12501
O_ O_ 0.59248 0.795258 0.715205 -0.60745
O_ O_ 0.842482 0.795258 0.715205 -0.60745
O_ O_ 0.592603 0.795156 0.786475 -0.60745
O_ O_ 0.842605 0.795156 0.786475 -0.60745
O_ O_ 0.657523 0.795259 0.784775 -0.60745
O_ O_ 0.907525 0.795258 0.784775 -0.60745
O_ O_ 0.6574 0.795159 0.713505 -0.60745
O_ O_ 0.907402 0.795159 0.713505 -0.60745
O_ O_ 0.657523 0.704745 0.784775 -0.60745
O_ O_ 0.907525 0.704745 0.784775 -0.60745
O_ O_ 0.657399 0.704847 0.713505 -0.60745
O_ O_ 0.907401 0.704847 0.713505 -0.60745
O_ O_ 0.59248 0.704744 0.715205 -0.60745
O_ O_ 0.842482 0.704745 0.715205 -0.60745
O_ O_ 0.592603 0.704845 0.786475 -0.60745
O_ O_ 0.842605 0.704845 0.786475 -0.60745
