_cell_length_a 44.444
_cell_length_b 32.3360000049186
_cell_length_c 31.843999878906452
_cell_angle_alpha 89.99799923859553
_cell_angle_beta 91.13600050494348
_cell_angle_gamma 89.9990006550086
_symmetry_space_group_name_H-M         'P 1'
_symmetry_Int_Tables_number            1
loop_
_symmetry_equiv_pos_as_xyz
   'x, y, z'
                         
loop_
_atom_site_label
_atom_site_type_symbol
_atom_site_fract_x 
_atom_site_fract_y
_atom_site_fract_z
_atom_site_charge
Zn Zn 0.125305 0.252964 0.280598 0.9476
Zn Zn 0.380594 0.251926 0.286656 0.9476
Zn Zn 0.121454 0.256559 0.213327 0.9476
Zn Zn 0.376421 0.250283 0.216539 0.9476
H_ H_ 0.0429006 0.432937 0.194072 0.10932
H_ H_ 0.292602 0.425473 0.189648 0.10932
H_ H_ 0.0621928 0.352261 0.322195 0.10932
H_ H_ 0.311092 0.346538 0.31874 0.10932
H_ H_ 0.0746172 0.370442 0.190592 0.10932
H_ H_ 0.31902 0.362289 0.186411 0.10932
H_ H_ 0.0264291 0.410094 0.323074 0.10932
H_ H_ 0.284573 0.417829 0.321447 0.10932
H_ H_ 0.218096 0.422996 0.309234 0.10932
H_ H_ 0.468989 0.414389 0.324801 0.10932
H_ H_ 0.187434 0.356202 0.173707 0.10932
H_ H_ 0.437129 0.357317 0.187042 0.10932
H_ H_ 0.187468 0.353923 0.309458 0.10932
H_ H_ 0.439755 0.352251 0.320484 0.10932
H_ H_ 0.217381 0.41661 0.175787 0.10932
H_ H_ 0.464476 0.422041 0.189129 0.10932
H_ H_ 0.226432 0.102338 0.314187 0.10932
H_ H_ 0.493375 0.103539 0.29853 0.10932
H_ H_ 0.184198 0.155511 0.182008 0.10932
H_ H_ 0.407186 0.122396 0.201971 0.10932
H_ H_ 0.192797 0.160851 0.317221 0.10932
H_ H_ 0.468373 0.171042 0.293873 0.10932
H_ H_ 0.211103 0.0886263 0.182735 0.10932
H_ H_ 0.440976 0.0624693 0.192543 0.10932
H_ H_ 0.0440024 0.0798677 0.186018 0.10932
H_ H_ 0.292451 0.0819438 0.181631 0.10932
H_ H_ 0.0682604 0.147314 0.319658 0.10932
H_ H_ 0.309907 0.153523 0.319471 0.10932
H_ H_ 0.0678751 0.148388 0.186492 0.10932
H_ H_ 0.324823 0.144243 0.185163 0.10932
H_ H_ 0.0347584 0.0802009 0.316509 0.10932
H_ H_ 0.283248 0.0832365 0.315493 0.10932
H_ H_ 0.118668 0.324829 0.354688 0.10932
H_ H_ 0.374992 0.311611 0.370303 0.10932
H_ H_ 0.128421 0.197131 0.35592 0.10932
H_ H_ 0.383074 0.180807 0.353065 0.10932
H_ H_ 0.129235 0.197306 0.437743 0.10932
H_ H_ 0.384611 0.173576 0.43188 0.10932
H_ H_ 0.108964 0.326549 0.431768 0.10932
H_ H_ 0.378225 0.309363 0.446737 0.10932
H_ H_ 0.100719 0.3115 0.145556 0.10932
H_ H_ 0.37787 0.322049 0.145425 0.10932
H_ H_ 0.134265 0.193911 0.134799 0.10932
H_ H_ 0.383878 0.190003 0.133684 0.10932
H_ H_ 0.133188 0.199104 0.0569314 0.10932
H_ H_ 0.372573 0.19519 0.0580609 0.10932
H_ H_ 0.093315 0.319256 0.0670909 0.10932
H_ H_ 0.373053 0.326938 0.0658654 0.10932
C_ C_ 0.0639101 0.349841 0.253549 -0.02249
C_ C_ 0.31924 0.349968 0.252252 -0.02249
C_ C_ 0.0127974 0.465305 0.256045 -0.02249
C_ C_ 0.269417 0.464473 0.251909 -0.02249
C_ C_ 0.0436079 0.411223 0.220129 -0.11473
C_ C_ 0.297185 0.409519 0.217964 -0.11473
C_ C_ 0.052331 0.362932 0.292813 -0.11473
C_ C_ 0.306816 0.364732 0.290892 -0.11473
C_ C_ 0.0607377 0.375662 0.218422 -0.11473
C_ C_ 0.312518 0.372115 0.217016 -0.11473
C_ C_ 0.0298913 0.423965 0.256894 -0.02249
C_ C_ 0.286742 0.42625 0.254869 -0.02249
C_ C_ 0.0823723 0.31146 0.252053 0.6875
C_ C_ 0.34057 0.312051 0.253721 0.6875
C_ C_ 0.0356093 0.400937 0.293838 -0.11473
C_ C_ 0.292133 0.404069 0.292468 -0.11473
C_ C_ 0.182265 0.353935 0.24347 -0.02249
C_ C_ 0.439105 0.346205 0.253306 -0.02249
C_ C_ 0.238256 0.462956 0.2431 -0.02249
C_ C_ 0.483953 0.468254 0.25601 -0.02249
C_ C_ 0.209543 0.407628 0.280652 -0.11473
C_ C_ 0.460868 0.405154 0.294215 -0.11473
C_ C_ 0.194274 0.36967 0.205843 -0.11473
C_ C_ 0.446601 0.368283 0.217697 -0.11473
C_ C_ 0.193384 0.370943 0.280752 -0.11473
C_ C_ 0.445848 0.366775 0.291127 -0.11473
C_ C_ 0.220221 0.423913 0.242368 -0.02249
C_ C_ 0.469016 0.426449 0.257126 -0.02249
C_ C_ 0.163363 0.316926 0.242835 0.6875
C_ C_ 0.417595 0.310479 0.252957 0.6875
C_ C_ 0.213337 0.40291 0.205584 -0.11473
C_ C_ 0.460931 0.407506 0.218028 -0.11473
C_ C_ 0.183335 0.160938 0.248393 -0.02249
C_ C_ 0.436098 0.152244 0.248605 -0.02249
C_ C_ 0.232374 0.0434498 0.250293 -0.02249
C_ C_ 0.487714 0.0403989 0.240541 -0.02249
C_ C_ 0.21447 0.109628 0.285056 -0.11473
C_ C_ 0.476718 0.108669 0.274288 -0.11473
C_ C_ 0.190388 0.141526 0.211638 -0.11473
C_ C_ 0.428628 0.121467 0.218797 -0.11473
C_ C_ 0.195361 0.144927 0.286091 -0.11473
C_ C_ 0.460855 0.1463 0.275788 -0.11473
C_ C_ 0.216549 0.0843355 0.249868 -0.02249
C_ C_ 0.469789 0.0794614 0.244203 -0.02249
C_ C_ 0.166171 0.199505 0.248229 0.6875
C_ C_ 0.418945 0.191841 0.250321 0.6875
C_ C_ 0.205981 0.102892 0.212684 -0.11473
C_ C_ 0.446112 0.0858078 0.215685 -0.11473
C_ C_ 0.068756 0.153182 0.253778 -0.02249
C_ C_ 0.319046 0.154774 0.252595 -0.02249
C_ C_ 0.0180505 0.0390569 0.245391 -0.02249
C_ C_ 0.264461 0.0419685 0.247583 -0.02249
C_ C_ 0.0438773 0.0990577 0.213386 -0.11473
C_ C_ 0.29564 0.0994818 0.212513 -0.11473
C_ C_ 0.0615805 0.13236 0.290447 -0.11473
C_ C_ 0.306766 0.137588 0.289175 -0.11473
C_ C_ 0.0581318 0.137391 0.215068 -0.11473
C_ C_ 0.314077 0.134677 0.214495 -0.11473
C_ C_ 0.0351775 0.0785071 0.248657 -0.02249
C_ C_ 0.280596 0.083092 0.248415 -0.02249
C_ C_ 0.0852814 0.194314 0.252149 0.6875
C_ C_ 0.33859 0.192749 0.252114 0.6875
C_ C_ 0.0444534 0.0952078 0.288272 -0.11473
C_ C_ 0.287036 0.102828 0.287678 -0.11473
C_ C_ 0.119641 0.296785 0.3719 0.17695
C_ C_ 0.375454 0.281412 0.383103 0.17695
C_ C_ 0.127743 0.224596 0.375187 0.17695
C_ C_ 0.378759 0.206948 0.374598 0.17695
C_ C_ 0.125707 0.225963 0.419476 -0.11473
C_ C_ 0.378371 0.202855 0.419547 -0.11473
C_ C_ 0.120559 0.2635 0.440897 0.23465
C_ C_ 0.376148 0.238595 0.446922 0.23465
C_ C_ 0.118255 0.29936 0.415266 -0.11473
C_ C_ 0.375576 0.279976 0.42708 -0.11473
C_ C_ 0.103122 0.285252 0.125614 0.17695
C_ C_ 0.375668 0.294077 0.126454 0.17695
C_ C_ 0.124221 0.219336 0.119408 0.17695
C_ C_ 0.376235 0.219671 0.120602 0.17695
C_ C_ 0.12201 0.221372 0.0747704 -0.11473
C_ C_ 0.373181 0.22364 0.0772956 -0.11473
C_ C_ 0.111177 0.258204 0.0553253 0.23465
C_ C_ 0.374781 0.261709 0.0562345 0.23465
C_ C_ 0.0996915 0.290298 0.0809985 -0.11473
C_ C_ 0.372608 0.297705 0.0803595 -0.11473
C_ C_ 0.0282881 0.502781 0.251011 0.05793
C_ C_ 0.285127 0.502249 0.25493 0.05793
C_ C_ 0.215946 0.0063555 0.252357 0.05793
C_ C_ 0.471544 1.00240851 0.245818 0.05793
Br Br 0.07232 0.502577 0.2508 -0.17191
Br Br 0.323838 0.499881 0.280786 -0.17191
Br Br 0.173112 0.00680828 0.246313 -0.17191
Br Br 0.430458 1.000717285 0.269469 -0.17191
N_ N_ 0.125936 0.259406 0.35295 -0.272
N_ N_ 0.3787 0.246331 0.358697 -0.272
N_ N_ 0.119572 0.265184 0.485782 -0.12501
N_ N_ 0.376769 0.232542 0.492943 -0.12501
N_ N_ 0.116434 0.25178 0.143172 -0.272
N_ N_ 0.376646 0.254687 0.145013 -0.272
N_ N_ 0.115838 0.265737 0.0123812 -0.12501
N_ N_ 0.374314 0.264108 0.0114416 -0.12501
O_ O_ 0.0882245 0.295601 0.217892 -0.60745
O_ O_ 0.344341 0.291947 0.219761 -0.60745
O_ O_ 0.0920566 0.29419 0.285773 -0.60745
O_ O_ 0.349618 0.295942 0.288407 -0.60745
O_ O_ 0.155629 0.299702 0.276519 -0.60745
O_ O_ 0.410456 0.292747 0.286148 -0.60745
O_ O_ 0.149483 0.306909 0.20968 -0.60745
O_ O_ 0.408249 0.295173 0.218467 -0.60745
O_ O_ 0.159031 0.214586 0.283644 -0.60745
O_ O_ 0.414738 0.208846 0.286153 -0.60745
O_ O_ 0.158227 0.216442 0.213156 -0.60745
O_ O_ 0.407773 0.206242 0.215891 -0.60745
O_ O_ 0.0947451 0.208908 0.218212 -0.60745
O_ O_ 0.346875 0.207069 0.217652 -0.60745
O_ O_ 0.0948025 0.209846 0.286389 -0.60745
O_ O_ 0.350644 0.205754 0.285692 -0.60745
Zn Zn 0.123587 0.244378 0.784762 0.9476
Zn Zn 0.374615 0.247315 0.783337 0.9476
Zn Zn 0.124057 0.250379 0.711624 0.9476
Zn Zn 0.376798 0.246375 0.717472 0.9476
H_ H_ 0.0372514 0.420647 0.684938 0.10932
H_ H_ 0.297436 0.422118 0.68811 0.10932
H_ H_ 0.0541891 0.337542 0.813181 0.10932
H_ H_ 0.302878 0.33793 0.82071 0.10932
H_ H_ 0.0712541 0.362064 0.682699 0.10932
H_ H_ 0.325224 0.354091 0.690703 0.10932
H_ H_ 0.0306906 0.405298 0.817765 0.10932
H_ H_ 0.26548 0.401912 0.810851 0.10932
H_ H_ 0.200269 0.420449 0.816957 0.10932
H_ H_ 0.451924 0.430834 0.811161 0.10932
H_ H_ 0.198905 0.336392 0.692874 0.10932
H_ H_ 0.427379 0.359458 0.679928 0.10932
H_ H_ 0.178651 0.356074 0.821099 0.10932
H_ H_ 0.423202 0.364987 0.813722 0.10932
H_ H_ 0.216389 0.40729 0.687196 0.10932
H_ H_ 0.46441 0.411748 0.679353 0.10932
H_ H_ 0.20136 0.0636716 0.81287 0.10932
H_ H_ 0.455437 0.0779185 0.815876 0.10932
H_ H_ 0.195117 0.156184 0.689088 0.10932
H_ H_ 0.454236 0.157858 0.683043 0.10932
H_ H_ 0.175491 0.127959 0.81729 0.10932
H_ H_ 0.428594 0.141756 0.811799 0.10932
H_ H_ 0.226829 0.0915392 0.687486 0.10932
H_ H_ 0.470765 0.0826448 0.684524 0.10932
H_ H_ 0.0420018 0.0731917 0.676443 0.10932
H_ H_ 0.291005 0.0694035 0.684114 0.10932
H_ H_ 0.0639323 0.14549 0.80812 0.10932
H_ H_ 0.297787 0.157789 0.810733 0.10932
H_ H_ 0.0671712 0.142397 0.672917 0.10932
H_ H_ 0.316378 0.134821 0.681716 0.10932
H_ H_ 0.0321955 0.0806446 0.810564 0.10932
H_ H_ 0.272003 0.0925219 0.814395 0.10932
H_ H_ 0.134174 0.309251 0.864439 0.10932
H_ H_ 0.37801 0.305029 0.859732 0.10932
H_ H_ 0.119268 0.183727 0.855944 0.10932
H_ H_ 0.382201 0.175654 0.859625 0.10932
H_ H_ 0.117156 0.177692 0.934113 0.10932
H_ H_ 0.379161 0.171865 0.935268 0.10932
H_ H_ 0.129301 0.308643 0.93854 0.10932
H_ H_ 0.376959 0.305158 0.938642 0.10932
H_ H_ 0.149655 0.19214 0.640029 0.10932
H_ H_ 0.385345 0.183231 0.642456 0.10932
H_ H_ 0.0999632 0.304357 0.63137 0.10932
H_ H_ 0.371576 0.312847 0.650402 0.10932
H_ H_ 0.094094 0.296087 0.554572 0.10932
H_ H_ 0.372221 0.319852 0.571151 0.10932
H_ H_ 0.155895 0.194411 0.563684 0.10932
H_ H_ 0.39082 0.190286 0.566052 0.10932
C_ C_ 0.0667352 0.344112 0.746846 -0.02249
C_ C_ 0.315391 0.343799 0.754492 -0.02249
C_ C_ 0.0178723 0.457652 0.754022 -0.02249
C_ C_ 0.261929 0.457074 0.751145 -0.02249
C_ C_ 0.0448714 0.404889 0.71274 -0.11473
C_ C_ 0.297055 0.40479 0.715922 -0.11473
C_ C_ 0.0518368 0.356522 0.784128 -0.11473
C_ C_ 0.298196 0.35679 0.788429 -0.11473
C_ C_ 0.061594 0.368235 0.71108 -0.11473
C_ C_ 0.313762 0.366955 0.718499 -0.11473
C_ C_ 0.0354599 0.419715 0.752582 -0.02249
C_ C_ 0.279465 0.417251 0.749438 -0.02249
C_ C_ 0.0861302 0.306123 0.747769 0.6875
C_ C_ 0.334674 0.30655 0.755031 0.6875
C_ C_ 0.0384247 0.395093 0.788045 -0.11473
C_ C_ 0.279784 0.391503 0.785334 -0.11473
C_ C_ 0.183485 0.343048 0.755608 -0.02249
C_ C_ 0.427829 0.352367 0.74906 -0.02249
C_ C_ 0.230977 0.458364 0.752924 -0.02249
C_ C_ 0.480388 0.461127 0.744045 -0.02249
C_ C_ 0.199836 0.404463 0.788428 -0.11473
C_ C_ 0.450807 0.409712 0.784012 -0.11473
C_ C_ 0.195654 0.355999 0.717585 -0.11473
C_ C_ 0.434754 0.369653 0.709647 -0.11473
C_ C_ 0.185528 0.366748 0.790189 -0.11473
C_ C_ 0.434002 0.374194 0.78586 -0.11473
C_ C_ 0.213745 0.419045 0.751843 -0.02249
C_ C_ 0.460682 0.424627 0.745824 -0.02249
C_ C_ 0.163158 0.305335 0.753037 0.6875
C_ C_ 0.412208 0.31066 0.750189 0.6875
C_ C_ 0.209763 0.395115 0.71632 -0.11473
C_ C_ 0.451349 0.405511 0.708346 -0.11473
C_ C_ 0.184103 0.149616 0.753118 -0.02249
C_ C_ 0.437674 0.15492 0.748235 -0.02249
C_ C_ 0.233641 0.0329719 0.750778 -0.02249
C_ C_ 0.484512 0.0355415 0.753331 -0.02249
C_ C_ 0.198474 0.0830681 0.786121 -0.11473
C_ C_ 0.457591 0.0957164 0.789274 -0.11473
C_ C_ 0.19925 0.139246 0.717494 -0.11473
C_ C_ 0.453619 0.140652 0.713403 -0.11473
C_ C_ 0.186368 0.122776 0.789158 -0.11473
C_ C_ 0.441497 0.132983 0.785591 -0.11473
C_ C_ 0.216051 0.0734893 0.751139 -0.02249
C_ C_ 0.468769 0.0773234 0.752322 -0.02249
C_ C_ 0.164019 0.188142 0.754761 0.6875
C_ C_ 0.416298 0.190165 0.745957 0.6875
C_ C_ 0.216882 0.102002 0.716849 -0.11473
C_ C_ 0.464413 0.0976464 0.713729 -0.11473
C_ C_ 0.0651994 0.150937 0.742741 -0.02249
C_ C_ 0.316609 0.148209 0.749261 -0.02249
C_ C_ 0.0170136 0.0323905 0.739211 -0.02249
C_ C_ 0.265049 0.0330955 0.753448 -0.02249
C_ C_ 0.0424545 0.0930826 0.703575 -0.11473
C_ C_ 0.29242 0.0879881 0.712264 -0.11473
C_ C_ 0.0576648 0.130756 0.779801 -0.11473
C_ C_ 0.30126 0.135997 0.785719 -0.11473
C_ C_ 0.0580351 0.131828 0.704104 -0.11473
C_ C_ 0.312316 0.122221 0.712585 -0.11473
C_ C_ 0.0337516 0.0738838 0.741206 -0.02249
C_ C_ 0.280321 0.0740255 0.749456 -0.02249
C_ C_ 0.084748 0.188127 0.74335 0.6875
C_ C_ 0.33747 0.184635 0.748573 0.6875
C_ C_ 0.0396484 0.0944731 0.77889 -0.11473
C_ C_ 0.28364 0.0995196 0.786111 -0.11473
C_ C_ 0.12471 0.283025 0.87848 0.17695
C_ C_ 0.377691 0.275685 0.877338 0.17695
C_ C_ 0.11917 0.210976 0.874582 0.17695
C_ C_ 0.379263 0.204175 0.874667 0.17695
C_ C_ 0.121645 0.208199 0.918339 -0.11473
C_ C_ 0.379514 0.202388 0.918772 -0.11473
C_ C_ 0.12472 0.242348 0.943378 0.23465
C_ C_ 0.378843 0.238607 0.943696 0.23465
C_ C_ 0.124539 0.281123 0.922852 -0.11473
C_ C_ 0.378496 0.27555 0.921812 -0.11473
C_ C_ 0.137293 0.214459 0.622564 0.17695
C_ C_ 0.3808 0.214455 0.62748 0.17695
C_ C_ 0.110842 0.278033 0.615771 0.17695
C_ C_ 0.374848 0.286361 0.630838 0.17695
C_ C_ 0.11038 0.27684 0.57191 -0.11473
C_ C_ 0.374075 0.290991 0.587668 -0.11473
C_ C_ 0.120853 0.240157 0.553545 0.23465
C_ C_ 0.377696 0.255438 0.562868 0.23465
C_ C_ 0.139154 0.213581 0.577995 -0.11473
C_ C_ 0.381137 0.21541 0.582549 -0.11473
C_ C_ 0.031563 0.495033 0.758722 0.05793
C_ C_ 0.278309 0.494023 0.7492 0.05793
C_ C_ 0.21815 -0.005275999999999947 0.749543 0.05793
C_ C_ 0.466954 0.996776 0.750163 0.05793
Br Br 0.0760502 0.497033 0.758171 -0.17191
Br Br 0.32175 0.493034 0.755657 -0.17191
Br Br 0.175455 -0.0027479999999999727 0.76091 -0.17191
Br Br 0.428756 1.00053 0.724807 -0.17191
N_ N_ 0.121437 0.246656 0.85471 -0.272
N_ N_ 0.377052 0.240318 0.854136 -0.272
N_ N_ 0.125722 0.238206 0.988576 -0.12501
N_ N_ 0.382454 0.235519 0.988564 -0.12501
N_ N_ 0.12284 0.246541 0.639959 -0.272
N_ N_ 0.374897 0.248961 0.649254 -0.272
N_ N_ 0.118906 0.235335 0.510434 -0.12501
N_ N_ 0.380282 0.261279 0.519404 -0.12501
O_ O_ 0.0964044 0.294194 0.71318 -0.60745
O_ O_ 0.339897 0.28503 0.722 -0.60745
O_ O_ 0.0904942 0.286108 0.783037 -0.60745
O_ O_ 0.344121 0.29353 0.789028 -0.60745
O_ O_ 0.150995 0.292556 0.786325 -0.60745
O_ O_ 0.401775 0.296578 0.784794 -0.60745
O_ O_ 0.1567 0.290261 0.717122 -0.60745
O_ O_ 0.405088 0.292381 0.716658 -0.60745
O_ O_ 0.156419 0.20408 0.788773 -0.60745
O_ O_ 0.403238 0.200518 0.778903 -0.60745
O_ O_ 0.155839 0.205629 0.720137 -0.60745
O_ O_ 0.412129 0.210383 0.713235 -0.60745
O_ O_ 0.0925615 0.206848 0.710952 -0.60745
O_ O_ 0.350608 0.195618 0.715839 -0.60745
O_ O_ 0.0943149 0.198644 0.779737 -0.60745
O_ O_ 0.342469 0.204525 0.781518 -0.60745
Zn Zn 0.125559 0.747488 0.285826 0.9476
Zn Zn 0.374852 0.755531 0.283302 0.9476
Zn Zn 0.127571 0.75155 0.215949 0.9476
Zn Zn 0.374229 0.753233 0.215172 0.9476
H_ H_ 0.0388442 0.920549 0.18091 0.10932
H_ H_ 0.286901 0.928102 0.183102 0.10932
H_ H_ 0.0617408 0.849707 0.317219 0.10932
H_ H_ 0.303895 0.855587 0.31737 0.10932
H_ H_ 0.071171 0.857963 0.184771 0.10932
H_ H_ 0.317976 0.863944 0.184847 0.10932
H_ H_ 0.0258425 0.907853 0.31584 0.10932
H_ H_ 0.278385 0.920591 0.313993 0.10932
H_ H_ 0.207021 0.926642 0.318674 0.10932
H_ H_ 0.488015 0.908344 0.303967 0.10932
H_ H_ 0.180398 0.855975 0.185628 0.10932
H_ H_ 0.410435 0.877596 0.188418 0.10932
H_ H_ 0.183722 0.859444 0.319964 0.10932
H_ H_ 0.456274 0.844171 0.307576 0.10932
H_ H_ 0.211625 0.918097 0.181563 0.10932
H_ H_ 0.444648 0.938354 0.186605 0.10932
H_ H_ 0.215739 0.579305 0.319126 0.10932
H_ H_ 0.469679 0.596348 0.325757 0.10932
H_ H_ 0.18663 0.649855 0.185564 0.10932
H_ H_ 0.43392 0.649447 0.183096 0.10932
H_ H_ 0.179085 0.635881 0.318783 0.10932
H_ H_ 0.442527 0.661508 0.321107 0.10932
H_ H_ 0.227164 0.591327 0.185381 0.10932
H_ H_ 0.462929 0.586176 0.188861 0.10932
H_ H_ 0.0425656 0.578894 0.177611 0.10932
H_ H_ 0.304869 0.566957 0.193327 0.10932
H_ H_ 0.0523372 0.657624 0.311788 0.10932
H_ H_ 0.292156 0.673777 0.301724 0.10932
H_ H_ 0.0742679 0.637371 0.18131 0.10932
H_ H_ 0.336454 0.628591 0.189957 0.10932
H_ H_ 0.0290191 0.588576 0.311806 0.10932
H_ H_ 0.273857 0.600068 0.316602 0.10932
H_ H_ 0.12538 0.806766 0.364159 0.10932
H_ H_ 0.381781 0.687498 0.358418 0.10932
H_ H_ 0.117066 0.675403 0.353132 0.10932
H_ H_ 0.367421 0.816513 0.358752 0.10932
H_ H_ 0.110708 0.670826 0.431 0.10932
H_ H_ 0.368243 0.817117 0.437168 0.10932
H_ H_ 0.120788 0.801252 0.441251 0.10932
H_ H_ 0.382283 0.686133 0.437007 0.10932
H_ H_ 0.176716 0.77912 0.144776 0.10932
H_ H_ 0.365454 0.689667 0.145639 0.10932
H_ H_ 0.0866477 0.734482 0.134867 0.10932
H_ H_ 0.389101 0.815051 0.134573 0.10932
H_ H_ 0.0935255 0.723553 0.0585494 0.10932
H_ H_ 0.390755 0.805276 0.0536085 0.10932
H_ H_ 0.180668 0.783521 0.0707224 0.10932
H_ H_ 0.365516 0.678571 0.0706434 0.10932
C_ C_ 0.0665622 0.846505 0.248431 -0.02249
C_ C_ 0.310005 0.84996 0.248589 -0.02249
C_ C_ 0.0158876 0.962995 0.248292 -0.02249
C_ C_ 0.262311 0.966925 0.248347 -0.02249
C_ C_ 0.0419612 0.903601 0.211909 -0.11473
C_ C_ 0.289417 0.909954 0.211382 -0.11473
C_ C_ 0.0543542 0.862222 0.286726 -0.11473
C_ C_ 0.298511 0.867986 0.28592 -0.11473
C_ C_ 0.0612339 0.868623 0.212418 -0.11473
C_ C_ 0.306431 0.873315 0.21168 -0.11473
C_ C_ 0.0307764 0.920671 0.249877 -0.02249
C_ C_ 0.278158 0.925992 0.24859 -0.02249
C_ C_ 0.0867771 0.809288 0.247991 0.6875
C_ C_ 0.332501 0.814536 0.251538 0.6875
C_ C_ 0.0343562 0.897325 0.286523 -0.11473
C_ C_ 0.282037 0.904864 0.286479 -0.11473
C_ C_ 0.178723 0.85362 0.253521 -0.02249
C_ C_ 0.431287 0.853993 0.248278 -0.02249
C_ C_ 0.230522 0.967252 0.248818 -0.02249
C_ C_ 0.486035 0.965035 0.241019 -0.02249
C_ C_ 0.20151 0.91154 0.289292 -0.11473
C_ C_ 0.472515 0.898527 0.278247 -0.11473
C_ C_ 0.186839 0.870032 0.214345 -0.11473
C_ C_ 0.429927 0.879832 0.212594 -0.11473
C_ C_ 0.187537 0.873816 0.289954 -0.11473
C_ C_ 0.453607 0.862626 0.280152 -0.11473
C_ C_ 0.212296 0.927473 0.250599 -0.02249
C_ C_ 0.468516 0.925811 0.244109 -0.02249
C_ C_ 0.162758 0.813307 0.254109 0.6875
C_ C_ 0.412563 0.8154 0.249566 0.6875
C_ C_ 0.204304 0.90681 0.212554 -0.11473
C_ C_ 0.446826 0.915212 0.211362 -0.11473
C_ C_ 0.1833 0.649688 0.253075 -0.02249
C_ C_ 0.434731 0.66074 0.253083 -0.02249
C_ C_ 0.237189 0.538813 0.24922 -0.02249
C_ C_ 0.483237 0.545188 0.254951 -0.02249
C_ C_ 0.208013 0.592582 0.288577 -0.11473
C_ C_ 0.460539 0.606554 0.293764 -0.11473
C_ C_ 0.194134 0.63487 0.214772 -0.11473
C_ C_ 0.438368 0.63765 0.21559 -0.11473
C_ C_ 0.187676 0.626267 0.289749 -0.11473
C_ C_ 0.445435 0.645042 0.292514 -0.11473
C_ C_ 0.221312 0.579699 0.252875 -0.02249
C_ C_ 0.465848 0.583912 0.255898 -0.02249
C_ C_ 0.163857 0.688341 0.253263 0.6875
C_ C_ 0.412611 0.69372 0.251329 0.6875
C_ C_ 0.215617 0.601948 0.21521 -0.11473
C_ C_ 0.454264 0.59919 0.217741 -0.11473
C_ C_ 0.0661725 0.653522 0.245247 -0.02249
C_ C_ 0.31989 0.65381 0.249081 -0.02249
C_ C_ 0.0125837 0.540488 0.24618 -0.02249
C_ C_ 0.26949 0.54047 0.252392 -0.02249
C_ C_ 0.0422038 0.595207 0.206587 -0.11473
C_ C_ 0.305212 0.585833 0.220146 -0.11473
C_ C_ 0.0521834 0.639677 0.281637 -0.11473
C_ C_ 0.300519 0.647375 0.28408 -0.11473
C_ C_ 0.0611888 0.631155 0.208191 -0.11473
C_ C_ 0.322504 0.621722 0.219065 -0.11473
C_ C_ 0.0323879 0.57836 0.246005 -0.02249
C_ C_ 0.285976 0.580951 0.252692 -0.02249
C_ C_ 0.0875722 0.69066 0.248433 0.6875
C_ C_ 0.336506 0.692658 0.246662 0.6875
C_ C_ 0.0360306 0.602209 0.282077 -0.11473
C_ C_ 0.286013 0.608506 0.287892 -0.11473
C_ C_ 0.124476 0.775564 0.378597 0.17695
C_ C_ 0.377702 0.715035 0.375999 0.17695
C_ C_ 0.11794 0.70433 0.372061 0.17695
C_ C_ 0.370357 0.787748 0.376083 0.17695
C_ C_ 0.11783 0.698813 0.416547 -0.11473
C_ C_ 0.370535 0.787912 0.418906 -0.11473
C_ C_ 0.120738 0.73444 0.440811 0.23465
C_ C_ 0.375771 0.750972 0.442696 0.23465
C_ C_ 0.119684 0.773444 0.422221 -0.11473
C_ C_ 0.377807 0.713836 0.420122 -0.11473
C_ C_ 0.155437 0.770825 0.127291 0.17695
C_ C_ 0.371185 0.715652 0.12631 0.17695
C_ C_ 0.108254 0.739573 0.12092 0.17695
C_ C_ 0.382961 0.784493 0.119526 0.17695
C_ C_ 0.110905 0.736333 0.0767879 -0.11473
C_ C_ 0.385099 0.780349 0.0741795 -0.11473
C_ C_ 0.137392 0.753401 0.0568679 0.23465
C_ C_ 0.376342 0.743385 0.0558134 0.23465
C_ C_ 0.159028 0.772164 0.0835993 -0.11473
C_ C_ 0.371956 0.709713 0.0831941 -0.11473
C_ C_ 0.033157 1.00181874 0.246321 0.05793
C_ C_ 0.279548 1.00462261 0.252308 0.05793
C_ C_ 0.221502 0.500505 0.238904 0.05793
C_ C_ 0.468978 0.506542 0.262597 0.05793
Br Br 0.0762885 0.00197391 0.230377 -0.17191
Br Br 0.321394 1.00890479 0.257599 -0.17191
Br Br 0.181172 0.50543 0.214575 -0.17191
Br Br 0.425749 0.506501 0.268186 -0.17191
N_ N_ 0.123808 0.740925 0.354615 -0.272
N_ N_ 0.374829 0.751268 0.354296 -0.272
N_ N_ 0.116619 0.731361 0.486392 -0.12501
N_ N_ 0.383097 0.754375 0.48611 -0.12501
N_ N_ 0.13011 0.755858 0.144203 -0.272
N_ N_ 0.37683 0.752656 0.144957 -0.272
N_ N_ 0.138122 0.759158 0.0118495 -0.12501
N_ N_ 0.37554 0.737494 0.0114273 -0.12501
O_ O_ 0.0976055 0.79662 0.213229 -0.60745
O_ O_ 0.346881 0.803589 0.21909 -0.60745
O_ O_ 0.0964501 0.792814 0.282046 -0.60745
O_ O_ 0.339104 0.795356 0.284755 -0.60745
O_ O_ 0.155811 0.795349 0.286764 -0.60745
O_ O_ 0.402804 0.803027 0.284481 -0.60745
O_ O_ 0.156839 0.79448 0.220213 -0.60745
O_ O_ 0.40529 0.79645 0.215993 -0.60745
O_ O_ 0.153446 0.700842 0.287544 -0.60745
O_ O_ 0.407081 0.714339 0.284136 -0.60745
O_ O_ 0.156326 0.706302 0.218292 -0.60745
O_ O_ 0.401702 0.705624 0.216801 -0.60745
O_ O_ 0.0935401 0.70918 0.21484 -0.60745
O_ O_ 0.341835 0.710712 0.211763 -0.60745
O_ O_ 0.0940089 0.705869 0.2846 -0.60745
O_ O_ 0.348318 0.705607 0.280459 -0.60745
Zn Zn 0.125382 0.744058 0.783934 0.9476
Zn Zn 0.376068 0.745796 0.782146 0.9476
Zn Zn 0.124103 0.744724 0.713118 0.9476
Zn Zn 0.372464 0.749393 0.715122 0.9476
H_ H_ 0.0299916 0.905288 0.677664 0.10932
H_ H_ 0.283505 0.914567 0.677243 0.10932
H_ H_ 0.0664218 0.851841 0.815384 0.10932
H_ H_ 0.321821 0.855125 0.813631 0.10932
H_ H_ 0.0632014 0.843823 0.68216 0.10932
H_ H_ 0.306477 0.846507 0.680326 0.10932
H_ H_ 0.0366588 0.91691 0.811821 0.10932
H_ H_ 0.295729 0.919246 0.812973 0.10932
H_ H_ 0.21935 0.914669 0.820383 0.10932
H_ H_ 0.457535 0.91465 0.821409 0.10932
H_ H_ 0.176006 0.855825 0.68635 0.10932
H_ H_ 0.438338 0.850669 0.682499 0.10932
H_ H_ 0.177384 0.859572 0.823068 0.10932
H_ H_ 0.430787 0.846462 0.816096 0.10932
H_ H_ 0.206617 0.921039 0.685575 0.10932
H_ H_ 0.464298 0.919056 0.68687 0.10932
H_ H_ 0.223225 0.590322 0.817847 0.10932
H_ H_ 0.465128 0.576285 0.811435 0.10932
H_ H_ 0.1758 0.63475 0.680496 0.10932
H_ H_ 0.442378 0.658332 0.680845 0.10932
H_ H_ 0.198745 0.652281 0.813756 0.10932
H_ H_ 0.439898 0.646045 0.815992 0.10932
H_ H_ 0.205976 0.57457 0.681902 0.10932
H_ H_ 0.462562 0.58915 0.678119 0.10932
H_ H_ 0.0155199 0.589165 0.69513 0.10932
H_ H_ 0.287302 0.572403 0.68615 0.10932
H_ H_ 0.0780199 0.631851 0.819395 0.10932
H_ H_ 0.303752 0.648384 0.820483 0.10932
H_ H_ 0.0475121 0.650597 0.689163 0.10932
H_ H_ 0.310864 0.643109 0.687395 0.10932
H_ H_ 0.0415609 0.570269 0.824996 0.10932
H_ H_ 0.277988 0.577035 0.818969 0.10932
H_ H_ 0.119158 0.804971 0.859856 0.10932
H_ H_ 0.36767 0.814992 0.849968 0.10932
H_ H_ 0.133053 0.67745 0.855322 0.10932
H_ H_ 0.382152 0.68594 0.864058 0.10932
H_ H_ 0.13163 0.67027 0.932633 0.10932
H_ H_ 0.382208 0.692725 0.940848 0.10932
H_ H_ 0.121447 0.802978 0.936981 0.10932
H_ H_ 0.370371 0.823939 0.926879 0.10932
H_ H_ 0.171151 0.746573 0.642576 0.10932
H_ H_ 0.411338 0.790784 0.637644 0.10932
H_ H_ 0.0757106 0.750838 0.639061 0.10932
H_ H_ 0.350692 0.69062 0.645316 0.10932
H_ H_ 0.0774207 0.754923 0.561009 0.10932
H_ H_ 0.347042 0.690851 0.567256 0.10932
H_ H_ 0.172993 0.753358 0.56346 0.10932
H_ H_ 0.408015 0.788958 0.560413 0.10932
C_ C_ 0.0675594 0.842802 0.748874 -0.02249
C_ C_ 0.316468 0.844988 0.746815 -0.02249
C_ C_ 0.0176599 0.957603 0.744627 -0.02249
C_ C_ 0.266383 0.958746 0.748742 -0.02249
C_ C_ 0.0396428 0.895128 0.707516 -0.11473
C_ C_ 0.289273 0.899791 0.707878 -0.11473
C_ C_ 0.0603202 0.863132 0.784912 -0.11473
C_ C_ 0.313024 0.866736 0.784761 -0.11473
C_ C_ 0.0590084 0.860028 0.710396 -0.11473
C_ C_ 0.303566 0.86084 0.708927 -0.11473
C_ C_ 0.0349787 0.917715 0.744599 -0.02249
C_ C_ 0.2824 0.918572 0.74611 -0.02249
C_ C_ 0.0848662 0.802027 0.749476 0.6875
C_ C_ 0.335127 0.807722 0.745212 0.6875
C_ C_ 0.0427849 0.900299 0.783636 -0.11473
C_ C_ 0.297389 0.905022 0.783673 -0.11473
C_ C_ 0.178826 0.848026 0.754003 -0.02249
C_ C_ 0.430524 0.845679 0.749019 -0.02249
C_ C_ 0.234016 0.957554 0.752999 -0.02249
C_ C_ 0.481835 0.958617 0.756505 -0.02249
C_ C_ 0.211226 0.899716 0.790824 -0.11473
C_ C_ 0.453092 0.900983 0.790859 -0.11473
C_ C_ 0.184352 0.868072 0.715744 -0.11473
C_ C_ 0.442685 0.863682 0.712651 -0.11473
C_ C_ 0.188105 0.868132 0.792441 -0.11473
C_ C_ 0.436313 0.863665 0.788293 -0.11473
C_ C_ 0.216882 0.919298 0.75273 -0.02249
C_ C_ 0.465072 0.91882 0.755215 -0.02249
C_ C_ 0.160093 0.809267 0.75264 0.6875
C_ C_ 0.411583 0.80713 0.748154 0.6875
C_ C_ 0.203382 0.902746 0.71542 -0.11473
C_ C_ 0.457024 0.902342 0.715073 -0.11473
C_ C_ 0.182792 0.648063 0.748531 -0.02249
C_ C_ 0.441051 0.656824 0.750359 -0.02249
C_ C_ 0.231668 0.534204 0.750707 -0.02249
C_ C_ 0.483305 0.537541 0.741348 -0.02249
C_ C_ 0.213113 0.598525 0.788043 -0.11473
C_ C_ 0.461019 0.594579 0.784291 -0.11473
C_ C_ 0.18863 0.626429 0.710296 -0.11473
C_ C_ 0.45069 0.643104 0.71118 -0.11473
C_ C_ 0.19799 0.634786 0.786582 -0.11473
C_ C_ 0.449818 0.635382 0.787025 -0.11473
C_ C_ 0.216159 0.575645 0.749257 -0.02249
C_ C_ 0.467425 0.578008 0.745319 -0.02249
C_ C_ 0.162488 0.683517 0.747952 0.6875
C_ C_ 0.415889 0.68896 0.755634 0.6875
C_ C_ 0.204335 0.590811 0.711204 -0.11473
C_ C_ 0.463296 0.602865 0.709302 -0.11473
C_ C_ 0.0666658 0.646356 0.75233 -0.02249
C_ C_ 0.3137 0.647184 0.753858 -0.02249
C_ C_ 0.0138971 0.533547 0.759883 -0.02249
C_ C_ 0.263903 0.532512 0.751899 -0.02249
C_ C_ 0.0320789 0.595606 0.719328 -0.11473
C_ C_ 0.289356 0.589619 0.714904 -0.11473
C_ C_ 0.0640407 0.623154 0.790643 -0.11473
C_ C_ 0.302229 0.631013 0.791434 -0.11473
C_ C_ 0.0486139 0.63234 0.717539 -0.11473
C_ C_ 0.305715 0.627392 0.715417 -0.11473
C_ C_ 0.0300899 0.572825 0.757115 -0.02249
C_ C_ 0.280539 0.572782 0.751443 -0.02249
C_ C_ 0.0853155 0.684874 0.751942 0.6875
C_ C_ 0.330343 0.686661 0.75285 0.6875
C_ C_ 0.0438464 0.58873 0.794282 -0.11473
C_ C_ 0.288082 0.591168 0.790638 -0.11473
C_ C_ 0.122934 0.775965 0.876915 0.17695
C_ C_ 0.372368 0.787836 0.868954 0.17695
C_ C_ 0.13196 0.704146 0.874445 0.17695
C_ C_ 0.379528 0.716478 0.878658 0.17695
C_ C_ 0.129838 0.70019 0.917275 -0.11473
C_ C_ 0.379034 0.720337 0.921719 -0.11473
C_ C_ 0.125465 0.736295 0.942387 0.23465
C_ C_ 0.375514 0.759591 0.940963 0.23465
C_ C_ 0.122803 0.774002 0.920191 -0.11473
C_ C_ 0.373944 0.794207 0.913273 -0.11473
C_ C_ 0.150587 0.750642 0.62521 0.17695
C_ C_ 0.39345 0.772536 0.621662 0.17695
C_ C_ 0.0988838 0.752213 0.622465 0.17695
C_ C_ 0.361338 0.71456 0.626699 0.17695
C_ C_ 0.0984248 0.755894 0.578104 -0.11473
C_ C_ 0.359392 0.71454 0.582943 -0.11473
C_ C_ 0.125851 0.755687 0.555558 0.23465
C_ C_ 0.3714 0.744581 0.557709 0.23465
C_ C_ 0.151882 0.756067 0.579984 -0.11473
C_ C_ 0.392484 0.770484 0.577498 -0.11473
C_ C_ 0.0342512 -0.005700000000000038 0.742718 0.05793
C_ C_ 0.281215 -0.004082999999999948 0.745058 0.05793
C_ C_ 0.215598 0.496064 0.752919 0.05793
C_ C_ 0.466593 0.500154 0.738261 0.05793
Br Br 0.0746592 -0.004472999999999949 0.766514 -0.17191
Br Br 0.32468 -0.0036519999999999886 0.747926 -0.17191
Br Br 0.170953 0.496353 0.750294 -0.17191
Br Br 0.422565 0.499347 0.724116 -0.17191
N_ N_ 0.126702 0.741167 0.855021 -0.272
N_ N_ 0.376994 0.750976 0.852667 -0.272
N_ N_ 0.12442 0.734505 0.987472 -0.12501
N_ N_ 0.37959 0.765358 0.984645 -0.12501
N_ N_ 0.123865 0.751736 0.645854 -0.272
N_ N_ 0.378261 0.744457 0.645207 -0.272
N_ N_ 0.126302 0.758546 0.51087 -0.12501
N_ N_ 0.36421 0.744829 0.51292 -0.12501
O_ O_ 0.0889915 0.78366 0.714543 -0.60745
O_ O_ 0.342569 0.792698 0.708983 -0.60745
O_ O_ 0.092436 0.784724 0.78297 -0.60745
O_ O_ 0.344791 0.789406 0.777166 -0.60745
O_ O_ 0.154462 0.791344 0.785876 -0.60745
O_ O_ 0.404967 0.789204 0.781759 -0.60745
O_ O_ 0.15299 0.793735 0.716925 -0.60745
O_ O_ 0.401411 0.794501 0.714322 -0.60745
O_ O_ 0.155325 0.697628 0.782807 -0.60745
O_ O_ 0.407335 0.701864 0.791208 -0.60745
O_ O_ 0.154918 0.70165 0.713792 -0.60745
O_ O_ 0.406075 0.707135 0.722957 -0.60745
O_ O_ 0.0918365 0.702238 0.716647 -0.60745
O_ O_ 0.339986 0.70395 0.719699 -0.60745
O_ O_ 0.0965104 0.699015 0.785067 -0.60745
O_ O_ 0.343157 0.69966 0.78657 -0.60745
Zn Zn 0.622986 0.256851 0.281159 0.9476
Zn Zn 0.875712 0.251787 0.28793 0.9476
Zn Zn 0.623203 0.255555 0.215875 0.9476
Zn Zn 0.874487 0.25196 0.217292 0.9476
H_ H_ 0.527857 0.41931 0.18427 0.10932
H_ H_ 0.80181 0.43806 0.195767 0.10932
H_ H_ 0.571967 0.365116 0.314673 0.10932
H_ H_ 0.810486 0.340626 0.31723 0.10932
H_ H_ 0.554866 0.355885 0.181009 0.10932
H_ H_ 0.826812 0.37302 0.186995 0.10932
H_ H_ 0.543025 0.429903 0.315908 0.10932
H_ H_ 0.777785 0.407229 0.321578 0.10932
H_ H_ 0.708257 0.425082 0.318399 0.10932
H_ H_ 0.957523 0.430094 0.317394 0.10932
H_ H_ 0.692708 0.349811 0.182841 0.10932
H_ H_ 0.943671 0.344561 0.187768 0.10932
H_ H_ 0.678237 0.361448 0.319573 0.10932
H_ H_ 0.930079 0.362755 0.32066 0.10932
H_ H_ 0.718624 0.41876 0.185698 0.10932
H_ H_ 0.968967 0.415188 0.18524 0.10932
H_ H_ 0.717227 0.0924282 0.316785 0.10932
H_ H_ 0.977509 0.0880357 0.321657 0.10932
H_ H_ 0.673577 0.141587 0.183838 0.10932
H_ H_ 0.923558 0.143206 0.19533 0.10932
H_ H_ 0.692643 0.16259 0.316909 0.10932
H_ H_ 0.95054 0.15252 0.3262 0.10932
H_ H_ 0.703397 0.0782826 0.186212 0.10932
H_ H_ 0.95417 0.0764302 0.191017 0.10932
H_ H_ 0.518442 0.105568 0.177252 0.10932
H_ H_ 0.786063 0.0826648 0.185217 0.10932
H_ H_ 0.584245 0.132253 0.304224 0.10932
H_ H_ 0.813905 0.150591 0.317331 0.10932
H_ H_ 0.556616 0.162719 0.174713 0.10932
H_ H_ 0.80947 0.152057 0.181722 0.10932
H_ H_ 0.559145 0.0635732 0.295079 0.10932
H_ H_ 0.782494 0.0858782 0.32081 0.10932
H_ H_ 0.646787 0.191906 0.349228 0.10932
H_ H_ 0.863685 0.188298 0.362917 0.10932
H_ H_ 0.5974 0.301361 0.365154 0.10932
H_ H_ 0.885623 0.317904 0.361547 0.10932
H_ H_ 0.600015 0.2991 0.437334 0.10932
H_ H_ 0.894199 0.316541 0.439695 0.10932
H_ H_ 0.658435 0.191856 0.428425 0.10932
H_ H_ 0.858984 0.194636 0.441837 0.10932
H_ H_ 0.612581 0.191492 0.1415 0.10932
H_ H_ 0.828396 0.241704 0.135933 0.10932
H_ H_ 0.637088 0.317093 0.141035 0.10932
H_ H_ 0.921929 0.250586 0.154081 0.10932
H_ H_ 0.643583 0.311142 0.0629941 0.10932
H_ H_ 0.92849 0.248022 0.0742083 0.10932
H_ H_ 0.608847 0.187936 0.0657777 0.10932
H_ H_ 0.834551 0.237791 0.0586122 0.10932
C_ C_ 0.561947 0.351415 0.248843 -0.02249
C_ C_ 0.819038 0.351707 0.251165 -0.02249
C_ C_ 0.516293 0.469747 0.250047 -0.02249
C_ C_ 0.769561 0.465504 0.257564 -0.02249
C_ C_ 0.53757 0.409078 0.212307 -0.11473
C_ C_ 0.801958 0.4173 0.221518 -0.11473
C_ C_ 0.563155 0.377845 0.284972 -0.11473
C_ C_ 0.806968 0.362669 0.288505 -0.11473
C_ C_ 0.552889 0.371099 0.2107 -0.11473
C_ C_ 0.818158 0.381045 0.217169 -0.11473
C_ C_ 0.534069 0.431169 0.250553 -0.02249
C_ C_ 0.787043 0.42613 0.257389 -0.02249
C_ C_ 0.580016 0.312493 0.249456 0.6875
C_ C_ 0.838799 0.313622 0.250178 0.6875
C_ C_ 0.546242 0.414714 0.285904 -0.11473
C_ C_ 0.788383 0.399497 0.291414 -0.11473
C_ C_ 0.683728 0.350261 0.25169 -0.02249
C_ C_ 0.932373 0.349284 0.253763 -0.02249
C_ C_ 0.737014 0.464291 0.255604 -0.02249
C_ C_ 0.980201 0.465988 0.251409 -0.02249
C_ C_ 0.707152 0.407489 0.289648 -0.11473
C_ C_ 0.953096 0.411365 0.289882 -0.11473
C_ C_ 0.696441 0.366352 0.214293 -0.11473
C_ C_ 0.94361 0.366311 0.215673 -0.11473
C_ C_ 0.688275 0.371976 0.29045 -0.11473
C_ C_ 0.939927 0.371443 0.29097 -0.11473
C_ C_ 0.718477 0.425557 0.250788 -0.02249
C_ C_ 0.963101 0.42772 0.252584 -0.02249
C_ C_ 0.662206 0.314003 0.250213 0.6875
C_ C_ 0.915977 0.308743 0.254233 0.6875
C_ C_ 0.713337 0.402867 0.214735 -0.11473
C_ C_ 0.958011 0.405426 0.213908 -0.11473
C_ C_ 0.684656 0.160919 0.248251 -0.02249
C_ C_ 0.934297 0.152845 0.259037 -0.02249
C_ C_ 0.730435 0.0415887 0.251158 -0.02249
C_ C_ 0.986969 0.0404354 0.253066 -0.02249
C_ C_ 0.706337 0.102541 0.288235 -0.11473
C_ C_ 0.967231 0.101592 0.293982 -0.11473
C_ C_ 0.688273 0.136164 0.211896 -0.11473
C_ C_ 0.935722 0.130475 0.222233 -0.11473
C_ C_ 0.694644 0.143666 0.286439 -0.11473
C_ C_ 0.951288 0.138567 0.296124 -0.11473
C_ C_ 0.711172 0.0802845 0.251319 -0.02249
C_ C_ 0.9703 0.0813207 0.254537 -0.02249
C_ C_ 0.665903 0.199703 0.246708 0.6875
C_ C_ 0.913229 0.190753 0.259321 0.6875
C_ C_ 0.703328 0.0990437 0.212897 -0.11473
C_ C_ 0.955665 0.0960585 0.218228 -0.11473
C_ C_ 0.571737 0.153125 0.241994 -0.02249
C_ C_ 0.812918 0.158164 0.250234 -0.02249
C_ C_ 0.518872 0.0408642 0.234004 -0.02249
C_ C_ 0.761422 0.0449284 0.252133 -0.02249
C_ C_ 0.536294 0.108295 0.201462 -0.11473
C_ C_ 0.788272 0.100716 0.213245 -0.11473
C_ C_ 0.574595 0.122932 0.273678 -0.11473
C_ C_ 0.803514 0.139236 0.287595 -0.11473
C_ C_ 0.555373 0.143091 0.203075 -0.11473
C_ C_ 0.805032 0.137731 0.213318 -0.11473
C_ C_ 0.537345 0.0794098 0.235702 -0.02249
C_ C_ 0.776725 0.0850965 0.252167 -0.02249
C_ C_ 0.587949 0.192482 0.247653 0.6875
C_ C_ 0.83362 0.19516 0.252598 0.6875
C_ C_ 0.557225 0.087421 0.269664 -0.11473
C_ C_ 0.787579 0.101921 0.289317 -0.11473
C_ C_ 0.637783 0.215608 0.37042 0.17695
C_ C_ 0.866713 0.218738 0.381574 0.17695
C_ C_ 0.608401 0.275338 0.377678 0.17695
C_ C_ 0.880274 0.288926 0.379346 0.17695
C_ C_ 0.611799 0.274575 0.420576 -0.11473
C_ C_ 0.884589 0.290363 0.423646 -0.11473
C_ C_ 0.627378 0.241429 0.441214 0.23465
C_ C_ 0.878367 0.254938 0.446872 0.23465
C_ C_ 0.641157 0.21284 0.415108 -0.11473
C_ C_ 0.867908 0.218958 0.426304 -0.11473
C_ C_ 0.617189 0.219427 0.124637 0.17695
C_ C_ 0.850224 0.246447 0.121497 0.17695
C_ C_ 0.632194 0.288971 0.123446 0.17695
C_ C_ 0.903533 0.251233 0.131514 0.17695
C_ C_ 0.632128 0.28804 0.0799896 -0.11473
C_ C_ 0.907286 0.253363 0.0877379 -0.11473
C_ C_ 0.624981 0.252102 0.0577204 0.23465
C_ C_ 0.88183 0.249657 0.0608293 0.23465
C_ C_ 0.615984 0.217539 0.0808717 -0.11473
C_ C_ 0.853093 0.249386 0.0775825 -0.11473
C_ C_ 0.531808 0.506592 0.250558 0.05793
C_ C_ 0.783847 0.504009 0.265494 0.05793
C_ C_ 0.715903 1.00260247 0.252934 0.05793
C_ C_ 0.969616 1.00369619 0.257073 0.05793
Br Br 0.574133 0.512981 0.246301 -0.17191
Br Br 0.826135 0.504311 0.288385 -0.17191
Br Br 0.673288 -1.60503e-05 0.261546 -0.17191
Br Br 0.927085 0.00520304 0.250743 -0.17191
N_ N_ 0.623075 0.247075 0.353235 -0.272
N_ N_ 0.874959 0.252468 0.359071 -0.272
N_ N_ 0.632254 0.237392 0.485289 -0.12501
N_ N_ 0.887371 0.253816 0.490574 -0.12501
N_ N_ 0.623408 0.254901 0.145113 -0.272
N_ N_ 0.875372 0.248733 0.147794 -0.272
N_ N_ 0.619155 0.256027 0.0145276 -0.12501
N_ N_ 0.885986 0.255007 0.0159882 -0.12501
O_ O_ 0.593388 0.30226 0.214388 -0.60745
O_ O_ 0.845826 0.298743 0.214069 -0.60745
O_ O_ 0.588151 0.295839 0.283483 -0.60745
O_ O_ 0.843651 0.293347 0.28389 -0.60745
O_ O_ 0.651247 0.303012 0.285423 -0.60745
O_ O_ 0.90652 0.295267 0.288346 -0.60745
O_ O_ 0.654785 0.294954 0.216606 -0.60745
O_ O_ 0.907572 0.292354 0.22001 -0.60745
O_ O_ 0.659717 0.218983 0.280286 -0.60745
O_ O_ 0.90675 0.207944 0.294363 -0.60745
O_ O_ 0.651964 0.210246 0.213226 -0.60745
O_ O_ 0.904323 0.208159 0.224002 -0.60745
O_ O_ 0.590733 0.215816 0.216029 -0.60745
O_ O_ 0.843452 0.210652 0.218421 -0.60745
O_ O_ 0.595918 0.205377 0.282717 -0.60745
O_ O_ 0.846025 0.208343 0.285863 -0.60745
Zn Zn 0.626915 0.246092 0.782066 0.9476
Zn Zn 0.876408 0.245981 0.787442 0.9476
Zn Zn 0.623636 0.24668 0.712807 0.9476
Zn Zn 0.87903 0.248808 0.717703 0.9476
H_ H_ 0.532126 0.409407 0.674565 0.10932
H_ H_ 0.792304 0.422889 0.684891 0.10932
H_ H_ 0.550258 0.342282 0.81104 0.10932
H_ H_ 0.790733 0.326347 0.803203 0.10932
H_ H_ 0.565565 0.352794 0.679641 0.10932
H_ H_ 0.82944 0.365102 0.689017 0.10932
H_ H_ 0.523731 0.408868 0.811558 0.10932
H_ H_ 0.772739 0.396295 0.817247 0.10932
H_ H_ 0.699901 0.426817 0.816029 0.10932
H_ H_ 0.967823 0.410142 0.821326 0.10932
H_ H_ 0.703729 0.339104 0.687798 0.10932
H_ H_ 0.94145 0.343982 0.684739 0.10932
H_ H_ 0.671263 0.360681 0.8146 0.10932
H_ H_ 0.933936 0.347958 0.820345 0.10932
H_ H_ 0.72568 0.406015 0.687924 0.10932
H_ H_ 0.970789 0.40887 0.687877 0.10932
H_ H_ 0.731228 0.0963724 0.814589 0.10932
H_ H_ 0.972501 0.0806978 0.808372 0.10932
H_ H_ 0.674066 0.133758 0.686506 0.10932
H_ H_ 0.926302 0.139463 0.67993 0.10932
H_ H_ 0.707242 0.163244 0.80845 0.10932
H_ H_ 0.940837 0.141528 0.815864 0.10932
H_ H_ 0.703546 0.0681606 0.68501 0.10932
H_ H_ 0.957026 0.0715153 0.678732 0.10932
H_ H_ 0.5572 0.0585197 0.705014 0.10932
H_ H_ 0.768268 0.096558 0.680583 0.10932
H_ H_ 0.543042 0.17254 0.802032 0.10932
H_ H_ 0.821188 0.13346 0.809885 0.10932
H_ H_ 0.585554 0.119687 0.694001 0.10932
H_ H_ 0.805398 0.156209 0.678824 0.10932
H_ H_ 0.519669 0.104628 0.818655 0.10932
H_ H_ 0.798135 0.0663684 0.803338 0.10932
H_ H_ 0.609114 0.307544 0.857469 0.10932
H_ H_ 0.824326 0.245181 0.855365 0.10932
H_ H_ 0.648341 0.188787 0.857935 0.10932
H_ H_ 0.920437 0.246675 0.869087 0.10932
H_ H_ 0.643677 0.185758 0.936352 0.10932
H_ H_ 0.91707 0.248733 0.942751 0.10932
H_ H_ 0.618537 0.31349 0.934396 0.10932
H_ H_ 0.820929 0.241195 0.931564 0.10932
H_ H_ 0.636531 0.189076 0.634298 0.10932
H_ H_ 0.923682 0.240808 0.644407 0.10932
H_ H_ 0.611733 0.314061 0.645129 0.10932
H_ H_ 0.826907 0.25329 0.651008 0.10932
H_ H_ 0.611949 0.321946 0.570942 0.10932
H_ H_ 0.824317 0.259043 0.572559 0.10932
H_ H_ 0.628111 0.194077 0.552299 0.10932
H_ H_ 0.918718 0.235159 0.562892 0.10932
C_ C_ 0.564694 0.343967 0.745823 -0.02249
C_ C_ 0.813823 0.342476 0.75044 -0.02249
C_ C_ 0.511904 0.457334 0.74293 -0.02249
C_ C_ 0.765423 0.45809 0.752886 -0.02249
C_ C_ 0.537008 0.396574 0.706835 -0.11473
C_ C_ 0.793457 0.404168 0.713891 -0.11473
C_ C_ 0.551435 0.362075 0.783261 -0.11473
C_ C_ 0.79422 0.350904 0.782144 -0.11473
C_ C_ 0.55741 0.363704 0.708677 -0.11473
C_ C_ 0.813182 0.369349 0.714811 -0.11473
C_ C_ 0.524685 0.414881 0.743135 -0.02249
C_ C_ 0.780077 0.416902 0.749765 -0.02249
C_ C_ 0.586914 0.308319 0.745099 0.6875
C_ C_ 0.837264 0.307263 0.750862 0.6875
C_ C_ 0.535633 0.399069 0.782162 -0.11473
C_ C_ 0.780127 0.388492 0.785445 -0.11473
C_ C_ 0.688568 0.343694 0.750309 -0.02249
C_ C_ 0.935751 0.339926 0.751563 -0.02249
C_ C_ 0.733097 0.458761 0.752862 -0.02249
C_ C_ 0.985527 0.455349 0.756982 -0.02249
C_ C_ 0.702385 0.405426 0.788812 -0.11473
C_ C_ 0.960862 0.393435 0.792404 -0.11473
C_ C_ 0.703068 0.35853 0.7164 -0.11473
C_ C_ 0.947514 0.355185 0.714838 -0.11473
C_ C_ 0.686269 0.369328 0.78668 -0.11473
C_ C_ 0.941715 0.359758 0.790499 -0.11473
C_ C_ 0.716539 0.41917 0.752486 -0.02249
C_ C_ 0.96792 0.414011 0.755776 -0.02249
C_ C_ 0.668427 0.306326 0.7493 0.6875
C_ C_ 0.919976 0.299782 0.755008 0.6875
C_ C_ 0.718468 0.395251 0.717445 -0.11473
C_ C_ 0.962497 0.394117 0.716352 -0.11473
C_ C_ 0.683923 0.1482 0.748048 -0.02249
C_ C_ 0.934738 0.148979 0.746889 -0.02249
C_ C_ 0.735861 0.0366445 0.752196 -0.02249
C_ C_ 0.985268 0.0313241 0.740785 -0.02249
C_ C_ 0.718925 0.101701 0.786068 -0.11473
C_ C_ 0.960609 0.0908426 0.781656 -0.11473
C_ C_ 0.684391 0.122605 0.713742 -0.11473
C_ C_ 0.936365 0.126678 0.708043 -0.11473
C_ C_ 0.701765 0.138144 0.784729 -0.11473
C_ C_ 0.946397 0.129762 0.78423 -0.11473
C_ C_ 0.718335 0.075504 0.751066 -0.02249
C_ C_ 0.967765 0.0724111 0.742738 -0.02249
C_ C_ 0.665902 0.187332 0.747923 0.6875
C_ C_ 0.915076 0.185632 0.750139 0.6875
C_ C_ 0.701752 0.0871307 0.714453 -0.11473
C_ C_ 0.955387 0.0907506 0.705766 -0.11473
C_ C_ 0.566023 0.151835 0.748045 -0.02249
C_ C_ 0.816832 0.151885 0.74511 -0.02249
C_ C_ 0.515449 0.0352033 0.76138 -0.02249
C_ C_ 0.766658 0.0378191 0.740634 -0.02249
C_ C_ 0.55492 0.0809688 0.728105 -0.11473
C_ C_ 0.783195 0.103768 0.704885 -0.11473
C_ C_ 0.544119 0.147014 0.779933 -0.11473
C_ C_ 0.812897 0.125243 0.78087 -0.11473
C_ C_ 0.571042 0.118001 0.720474 -0.11473
C_ C_ 0.803351 0.138212 0.705861 -0.11473
C_ C_ 0.532545 0.0756467 0.758497 -0.02249
C_ C_ 0.784546 0.0753145 0.738898 -0.02249
C_ C_ 0.586407 0.189781 0.748371 0.6875
C_ C_ 0.837943 0.186932 0.74938 0.6875
C_ C_ 0.529207 0.107894 0.786613 -0.11473
C_ C_ 0.801644 0.0860139 0.775068 -0.11473
C_ C_ 0.619728 0.282587 0.874977 0.17695
C_ C_ 0.845173 0.240609 0.873499 0.17695
C_ C_ 0.639848 0.215225 0.875591 0.17695
C_ C_ 0.898066 0.241223 0.882934 0.17695
C_ C_ 0.641034 0.215279 0.920113 -0.11473
C_ C_ 0.896018 0.249073 0.924594 -0.11473
C_ C_ 0.632858 0.250116 0.943572 0.23465
C_ C_ 0.868922 0.246281 0.944463 0.23465
C_ C_ 0.624647 0.285782 0.919008 -0.11473
C_ C_ 0.842667 0.242727 0.917441 -0.11473
C_ C_ 0.629235 0.216723 0.618645 0.17695
C_ C_ 0.902757 0.246266 0.626425 0.17695
C_ C_ 0.616536 0.286875 0.624927 0.17695
C_ C_ 0.848371 0.253924 0.631812 0.17695
C_ C_ 0.619571 0.293248 0.581915 -0.11473
C_ C_ 0.845243 0.253834 0.587554 -0.11473
C_ C_ 0.625205 0.258293 0.556015 0.23465
C_ C_ 0.871259 0.248071 0.562868 0.23465
C_ C_ 0.629162 0.219945 0.57449 -0.11473
C_ C_ 0.899605 0.246229 0.582327 -0.11473
C_ C_ 0.53065 0.493548 0.74017 0.05793
C_ C_ 0.781754 0.496035 0.749283 0.05793
C_ C_ 0.721529 -0.0034570000000000434 0.7563 0.05793
C_ C_ 0.97048 -0.007140999999999953 0.739707 0.05793
Br Br 0.572941 0.486048 0.744964 -0.17191
Br Br 0.824912 0.492726 0.751733 -0.17191
Br Br 0.678511 -0.002322999999999964 0.765852 -0.17191
Br Br 0.928508 -0.008145999999999987 0.751211 -0.17191
N_ N_ 0.629526 0.248102 0.853828 -0.272
N_ N_ 0.873054 0.237906 0.856862 -0.272
N_ N_ 0.639474 0.24932 0.987596 -0.12501
N_ N_ 0.864842 0.250932 0.989152 -0.12501
N_ N_ 0.62196 0.250042 0.641963 -0.272
N_ N_ 0.877074 0.249257 0.64855 -0.272
N_ N_ 0.623326 0.264309 0.510367 -0.12501
N_ N_ 0.867851 0.242951 0.516863 -0.12501
O_ O_ 0.589582 0.286419 0.713914 -0.60745
O_ O_ 0.852192 0.296719 0.717832 -0.60745
O_ O_ 0.598181 0.294816 0.778354 -0.60745
O_ O_ 0.84372 0.290453 0.785005 -0.60745
O_ O_ 0.659772 0.288753 0.78333 -0.60745
O_ O_ 0.906733 0.288755 0.788408 -0.60745
O_ O_ 0.657244 0.292984 0.713944 -0.60745
O_ O_ 0.913464 0.284037 0.719658 -0.60745
O_ O_ 0.655933 0.20012 0.782289 -0.60745
O_ O_ 0.902472 0.19607 0.784519 -0.60745
O_ O_ 0.65601 0.203829 0.713574 -0.60745
O_ O_ 0.907467 0.202704 0.716568 -0.60745
O_ O_ 0.59271 0.207522 0.71407 -0.60745
O_ O_ 0.843516 0.207688 0.716252 -0.60745
O_ O_ 0.594611 0.206358 0.783791 -0.60745
O_ O_ 0.846467 0.198964 0.785105 -0.60745
Zn Zn 0.626246 0.753735 0.281525 0.9476
Zn Zn 0.876417 0.755546 0.286772 0.9476
Zn Zn 0.628222 0.749923 0.214128 0.9476
Zn Zn 0.872242 0.754348 0.216353 0.9476
H_ H_ 0.526904 0.908767 0.168252 0.10932
H_ H_ 0.803414 0.941766 0.188697 0.10932
H_ H_ 0.574531 0.864056 0.301358 0.10932
H_ H_ 0.805173 0.852444 0.314624 0.10932
H_ H_ 0.551585 0.844495 0.170476 0.10932
H_ H_ 0.833662 0.877947 0.190206 0.10932
H_ H_ 0.545617 0.930795 0.298038 0.10932
H_ H_ 0.776371 0.919549 0.315086 0.10932
H_ H_ 0.721075 0.91554 0.316932 0.10932
H_ H_ 0.947055 0.934479 0.319276 0.10932
H_ H_ 0.673599 0.865683 0.187901 0.10932
H_ H_ 0.947849 0.847286 0.190461 0.10932
H_ H_ 0.691075 0.85239 0.319969 0.10932
H_ H_ 0.913778 0.87141 0.312971 0.10932
H_ H_ 0.707469 0.925522 0.184457 0.10932
H_ H_ 0.9826 0.905195 0.198012 0.10932
H_ H_ 0.712005 0.582562 0.32602 0.10932
H_ H_ 0.940166 0.564161 0.304173 0.10932
H_ H_ 0.699997 0.660711 0.189605 0.10932
H_ H_ 0.941636 0.65758 0.18244 0.10932
H_ H_ 0.679168 0.643894 0.320916 0.10932
H_ H_ 0.920763 0.636717 0.313199 0.10932
H_ H_ 0.732228 0.597304 0.191617 0.10932
H_ H_ 0.975962 0.600043 0.185478 0.10932
H_ H_ 0.53651 0.580362 0.184227 0.10932
H_ H_ 0.79883 0.573659 0.192478 0.10932
H_ H_ 0.561806 0.657514 0.31686 0.10932
H_ H_ 0.819656 0.650411 0.322225 0.10932
H_ H_ 0.561172 0.651261 0.179525 0.10932
H_ H_ 0.824587 0.639142 0.189447 0.10932
H_ H_ 0.525333 0.599545 0.315024 0.10932
H_ H_ 0.786511 0.589923 0.32388 0.10932
H_ H_ 0.622508 0.698815 0.363577 0.10932
H_ H_ 0.827629 0.767154 0.357269 0.10932
H_ H_ 0.627341 0.827409 0.348918 0.10932
H_ H_ 0.916221 0.729835 0.361491 0.10932
H_ H_ 0.63184 0.836214 0.429162 0.10932
H_ H_ 0.917033 0.727134 0.440363 0.10932
H_ H_ 0.61985 0.705637 0.441385 0.10932
H_ H_ 0.82942 0.779007 0.437845 0.10932
H_ H_ 0.61869 0.81586 0.136208 0.10932
H_ H_ 0.858162 0.692201 0.142244 0.10932
H_ H_ 0.644145 0.687473 0.141015 0.10932
H_ H_ 0.876465 0.820894 0.144703 0.10932
H_ H_ 0.638733 0.686689 0.0622945 0.10932
H_ H_ 0.878165 0.821263 0.0651229 0.10932
H_ H_ 0.620107 0.815241 0.0582101 0.10932
H_ H_ 0.850486 0.695544 0.0670013 0.10932
C_ C_ 0.56784 0.849959 0.236045 -0.02249
C_ C_ 0.81916 0.858139 0.251141 -0.02249
C_ C_ 0.518117 0.964785 0.230603 -0.02249
C_ C_ 0.764608 0.968628 0.249039 -0.02249
C_ C_ 0.538384 0.90086 0.196016 -0.11473
C_ C_ 0.799973 0.919588 0.214564 -0.11473
C_ C_ 0.563142 0.872043 0.273004 -0.11473
C_ C_ 0.800565 0.869409 0.284993 -0.11473
C_ C_ 0.554011 0.863205 0.198232 -0.11473
C_ C_ 0.819057 0.885256 0.217934 -0.11473
C_ C_ 0.534768 0.924328 0.232344 -0.02249
C_ C_ 0.783469 0.930635 0.250393 -0.02249
C_ C_ 0.587565 0.812009 0.236545 0.6875
C_ C_ 0.835969 0.817333 0.251462 0.6875
C_ C_ 0.548435 0.910228 0.27045 -0.11473
C_ C_ 0.785194 0.907588 0.285676 -0.11473
C_ C_ 0.683341 0.850836 0.251721 -0.02249
C_ C_ 0.933016 0.850421 0.25599 -0.02249
C_ C_ 0.732632 0.965509 0.250623 -0.02249
C_ C_ 0.984264 0.965702 0.25897 -0.02249
C_ C_ 0.712552 0.903435 0.288085 -0.11473
C_ C_ 0.949556 0.913045 0.292901 -0.11473
C_ C_ 0.687714 0.872939 0.213755 -0.11473
C_ C_ 0.948941 0.864693 0.219729 -0.11473
C_ C_ 0.695925 0.866554 0.289489 -0.11473
C_ C_ 0.932118 0.876281 0.290814 -0.11473
C_ C_ 0.717273 0.924524 0.251487 -0.02249
C_ C_ 0.964837 0.926817 0.25829 -0.02249
C_ C_ 0.664445 0.813329 0.252899 0.6875
C_ C_ 0.914049 0.811792 0.254426 0.6875
C_ C_ 0.705313 0.909584 0.214199 -0.11473
C_ C_ 0.966934 0.899847 0.222608 -0.11473
C_ C_ 0.687743 0.657986 0.256992 -0.02249
C_ C_ 0.92734 0.653007 0.247358 -0.02249
C_ C_ 0.737685 0.540632 0.256642 -0.02249
C_ C_ 0.980578 0.541827 0.24682 -0.02249
C_ C_ 0.708056 0.597014 0.294024 -0.11473
C_ C_ 0.94411 0.589492 0.280337 -0.11473
C_ C_ 0.702592 0.643528 0.219718 -0.11473
C_ C_ 0.945878 0.64334 0.212334 -0.11473
C_ C_ 0.68976 0.632703 0.292026 -0.11473
C_ C_ 0.927777 0.62634 0.282248 -0.11473
C_ C_ 0.721221 0.580648 0.256675 -0.02249
C_ C_ 0.964116 0.582541 0.246769 -0.02249
C_ C_ 0.669079 0.69669 0.255764 0.6875
C_ C_ 0.909283 0.691467 0.248961 0.6875
C_ C_ 0.718083 0.604579 0.218257 -0.11473
C_ C_ 0.965313 0.610035 0.212764 -0.11473
C_ C_ 0.56731 0.657513 0.247199 -0.02249
C_ C_ 0.819233 0.652925 0.253853 -0.02249
C_ C_ 0.514936 0.54459 0.249456 -0.02249
C_ C_ 0.769568 0.541394 0.262069 -0.02249
C_ C_ 0.540199 0.60005 0.212901 -0.11473
C_ C_ 0.803195 0.588373 0.221852 -0.11473
C_ C_ 0.55597 0.642691 0.286078 -0.11473
C_ C_ 0.811655 0.636657 0.291706 -0.11473
C_ C_ 0.556484 0.638947 0.211476 -0.11473
C_ C_ 0.814079 0.629242 0.218703 -0.11473
C_ C_ 0.531156 0.584737 0.249763 -0.02249
C_ C_ 0.787599 0.577783 0.258673 -0.02249
C_ C_ 0.587371 0.695226 0.245783 0.6875
C_ C_ 0.837921 0.692989 0.251736 0.6875
C_ C_ 0.537598 0.605531 0.286995 -0.11473
C_ C_ 0.794137 0.600939 0.293825 -0.11473
C_ C_ 0.621747 0.728135 0.377572 0.17695
C_ C_ 0.848114 0.764645 0.377136 0.17695
C_ C_ 0.624948 0.80258 0.370747 0.17695
C_ C_ 0.896916 0.736201 0.378732 0.17695
C_ C_ 0.624958 0.80696 0.414878 -0.11473
C_ C_ 0.897638 0.736694 0.422033 -0.11473
C_ C_ 0.622935 0.771413 0.4414 0.23465
C_ C_ 0.873981 0.754036 0.444085 0.23465
C_ C_ 0.624504 0.732785 0.422664 -0.11473
C_ C_ 0.847926 0.766499 0.421982 -0.11473
C_ C_ 0.623136 0.786848 0.121574 0.17695
C_ C_ 0.866364 0.720163 0.124428 0.17695
C_ C_ 0.638542 0.716298 0.123397 0.17695
C_ C_ 0.876801 0.791489 0.127463 0.17695
C_ C_ 0.638541 0.716478 0.078912 -0.11473
C_ C_ 0.87322 0.793436 0.0825571 -0.11473
C_ C_ 0.631272 0.751526 0.0572064 0.23465
C_ C_ 0.86405 0.757955 0.0601266 0.23465
C_ C_ 0.62792 0.788539 0.0781041 -0.11473
C_ C_ 0.861657 0.721356 0.0812612 -0.11473
C_ C_ 0.533266 1.00322107 0.226778 0.05793
C_ C_ 0.778582 1.00743754 0.256233 0.05793
C_ C_ 0.722204 0.503709 0.248399 0.05793
C_ C_ 0.964636 0.504694 0.248038 0.05793
Br Br 0.575504 1.00319471 0.210061 -0.17191
Br Br 0.821538 1.0120771 0.263404 -0.17191
Br Br 0.680782 0.505947 0.231409 -0.17191
Br Br 0.923378 0.500613 0.228504 -0.17191
N_ N_ 0.621714 0.763515 0.353219 -0.272
N_ N_ 0.872999 0.750338 0.357273 -0.272
N_ N_ 0.627507 0.776434 0.484343 -0.12501
N_ N_ 0.87609 0.761696 0.488822 -0.12501
N_ N_ 0.629553 0.750035 0.144083 -0.272
N_ N_ 0.873627 0.755003 0.145958 -0.272
N_ N_ 0.635317 0.748853 0.0124859 -0.12501
N_ N_ 0.859624 0.761514 0.0141443 -0.12501
O_ O_ 0.59176 0.789081 0.205075 -0.60745
O_ O_ 0.84198 0.799652 0.217803 -0.60745
O_ O_ 0.596197 0.799331 0.272237 -0.60745
O_ O_ 0.846346 0.803793 0.285839 -0.60745
O_ O_ 0.657796 0.795423 0.285655 -0.60745
O_ O_ 0.909672 0.793279 0.288796 -0.60745
O_ O_ 0.654788 0.796048 0.218746 -0.60745
O_ O_ 0.899806 0.802483 0.221661 -0.60745
O_ O_ 0.654933 0.707694 0.288632 -0.60745
O_ O_ 0.902095 0.706879 0.284427 -0.60745
O_ O_ 0.6638 0.71453 0.220329 -0.60745
O_ O_ 0.904196 0.711919 0.216094 -0.60745
O_ O_ 0.601768 0.704284 0.212888 -0.60745
O_ O_ 0.84544 0.706188 0.217163 -0.60745
O_ O_ 0.594689 0.714516 0.278998 -0.60745
O_ O_ 0.84372 0.712237 0.285184 -0.60745
Zn Zn 0.626523 0.745369 0.784861 0.9476
Zn Zn 0.875022 0.749081 0.783589 0.9476
Zn Zn 0.623772 0.749365 0.715348 0.9476
Zn Zn 0.876132 0.742409 0.715864 0.9476
H_ H_ 0.527582 0.911882 0.691553 0.10932
H_ H_ 0.787618 0.916427 0.675176 0.10932
H_ H_ 0.561226 0.844229 0.824842 0.10932
H_ H_ 0.810773 0.853002 0.812575 0.10932
H_ H_ 0.559841 0.849567 0.689758 0.10932
H_ H_ 0.812273 0.845882 0.681228 0.10932
H_ H_ 0.526732 0.902984 0.826612 0.10932
H_ H_ 0.781509 0.915541 0.806843 0.10932
H_ H_ 0.717777 0.913875 0.814307 0.10932
H_ H_ 0.982927 0.901916 0.8056 0.10932
H_ H_ 0.678253 0.860186 0.678288 0.10932
H_ H_ 0.921372 0.857808 0.683896 0.10932
H_ H_ 0.680253 0.857768 0.81064 0.10932
H_ H_ 0.946381 0.848071 0.813808 0.10932
H_ H_ 0.709967 0.923134 0.678056 0.10932
H_ H_ 0.95013 0.922871 0.682225 0.10932
H_ H_ 0.716543 0.580396 0.811924 0.10932
H_ H_ 0.97564 0.588471 0.817469 0.10932
H_ H_ 0.681203 0.64051 0.678206 0.10932
H_ H_ 0.918615 0.624743 0.690895 0.10932
H_ H_ 0.68997 0.643896 0.812761 0.10932
H_ H_ 0.942199 0.647218 0.820479 0.10932
H_ H_ 0.711435 0.576777 0.677036 0.10932
H_ H_ 0.942205 0.558308 0.697351 0.10932
H_ H_ 0.526391 0.590765 0.676556 0.10932
H_ H_ 0.787401 0.575102 0.680868 0.10932
H_ H_ 0.575419 0.623981 0.815303 0.10932
H_ H_ 0.820605 0.637224 0.816867 0.10932
H_ H_ 0.559828 0.653985 0.683218 0.10932
H_ H_ 0.810377 0.642019 0.678754 0.10932
H_ H_ 0.542608 0.560591 0.804755 0.10932
H_ H_ 0.787982 0.577732 0.816236 0.10932
H_ H_ 0.576901 0.748116 0.853225 0.10932
H_ H_ 0.884174 0.686995 0.855102 0.10932
H_ H_ 0.672315 0.754568 0.868732 0.10932
H_ H_ 0.856551 0.808329 0.869214 0.10932
H_ H_ 0.666591 0.753566 0.944352 0.10932
H_ H_ 0.853862 0.803875 0.942324 0.10932
H_ H_ 0.570638 0.755511 0.926256 0.10932
H_ H_ 0.884953 0.677725 0.933653 0.10932
H_ H_ 0.624611 0.681941 0.642704 0.10932
H_ H_ 0.871928 0.805506 0.636752 0.10932
H_ H_ 0.628683 0.811171 0.640792 0.10932
H_ H_ 0.879315 0.677594 0.644251 0.10932
H_ H_ 0.629199 0.813586 0.565867 0.10932
H_ H_ 0.86915 0.674112 0.567191 0.10932
H_ H_ 0.619669 0.682208 0.563775 0.10932
H_ H_ 0.868027 0.804234 0.560316 0.10932
C_ C_ 0.56333 0.842921 0.757339 -0.02249
C_ C_ 0.819685 0.847769 0.746642 -0.02249
C_ C_ 0.513925 0.957384 0.760596 -0.02249
C_ C_ 0.767045 0.960171 0.738772 -0.02249
C_ C_ 0.538992 0.902165 0.720372 -0.11473
C_ C_ 0.79246 0.901144 0.704877 -0.11473
C_ C_ 0.554197 0.85813 0.796003 -0.11473
C_ C_ 0.811577 0.869266 0.782829 -0.11473
C_ C_ 0.553304 0.864069 0.719494 -0.11473
C_ C_ 0.809014 0.863629 0.708857 -0.11473
C_ C_ 0.529077 0.916476 0.759361 -0.02249
C_ C_ 0.784888 0.921292 0.741552 -0.02249
C_ C_ 0.586242 0.80764 0.755762 0.6875
C_ C_ 0.836176 0.80747 0.747253 0.6875
C_ C_ 0.536071 0.893557 0.796766 -0.11473
C_ C_ 0.795271 0.905791 0.780198 -0.11473
C_ C_ 0.677487 0.853625 0.745277 -0.02249
C_ C_ 0.93452 0.840971 0.746459 -0.02249
C_ C_ 0.735581 0.95875 0.747307 -0.02249
C_ C_ 0.986205 0.956135 0.739605 -0.02249
C_ C_ 0.710164 0.901451 0.783947 -0.11473
C_ C_ 0.969036 0.890792 0.778998 -0.11473
C_ C_ 0.683629 0.875159 0.707977 -0.11473
C_ C_ 0.936836 0.86408 0.708918 -0.11473
C_ C_ 0.689372 0.86901 0.782705 -0.11473
C_ C_ 0.949858 0.857369 0.782583 -0.11473
C_ C_ 0.716461 0.922507 0.746423 -0.02249
C_ C_ 0.970074 0.915632 0.741391 -0.02249
C_ C_ 0.660723 0.813687 0.745403 0.6875
C_ C_ 0.914185 0.803457 0.746095 0.6875
C_ C_ 0.701402 0.910154 0.708361 -0.11473
C_ C_ 0.953962 0.902305 0.70696 -0.11473
C_ C_ 0.682647 0.650018 0.744706 -0.02249
C_ C_ 0.92867 0.644005 0.753512 -0.02249
C_ C_ 0.733739 0.534833 0.74528 -0.02249
C_ C_ 0.982208 0.532461 0.75814 -0.02249
C_ C_ 0.710074 0.593933 0.782036 -0.11473
C_ C_ 0.96433 0.597813 0.788746 -0.11473
C_ C_ 0.68956 0.629376 0.70724 -0.11473
C_ C_ 0.928004 0.617144 0.719849 -0.11473
C_ C_ 0.692484 0.629875 0.782514 -0.11473
C_ C_ 0.943593 0.630413 0.790652 -0.11473
C_ C_ 0.719857 0.576012 0.744507 -0.02249
C_ C_ 0.964484 0.570491 0.755443 -0.02249
C_ C_ 0.663437 0.687619 0.74752 0.6875
C_ C_ 0.914799 0.686155 0.750136 0.6875
C_ C_ 0.708091 0.593095 0.706607 -0.11473
C_ C_ 0.943616 0.579873 0.722835 -0.11473
C_ C_ 0.570273 0.644454 0.74848 -0.02249
C_ C_ 0.815229 0.650852 0.748275 -0.02249
C_ C_ 0.515208 0.534029 0.737935 -0.02249
C_ C_ 0.76573 0.53412 0.747554 -0.02249
C_ C_ 0.537448 0.599275 0.706079 -0.11473
C_ C_ 0.791722 0.592169 0.711253 -0.11473
C_ C_ 0.565236 0.616268 0.78444 -0.11473
C_ C_ 0.809899 0.627091 0.786735 -0.11473
C_ C_ 0.555676 0.635157 0.710251 -0.11473
C_ C_ 0.80583 0.630714 0.710917 -0.11473
C_ C_ 0.533363 0.571182 0.740248 -0.02249
C_ C_ 0.783481 0.573192 0.749496 -0.02249
C_ C_ 0.587557 0.684091 0.752052 0.6875
C_ C_ 0.836509 0.686461 0.747784 0.6875
C_ C_ 0.546629 0.580981 0.778611 -0.11473
C_ C_ 0.791709 0.591413 0.786664 -0.11473
C_ C_ 0.597725 0.750933 0.87192 0.17695
C_ C_ 0.881332 0.71356 0.874095 0.17695
C_ C_ 0.650498 0.751789 0.882003 0.17695
C_ C_ 0.866618 0.78249 0.88191 0.17695
C_ C_ 0.647015 0.750425 0.924552 -0.11473
C_ C_ 0.865468 0.778889 0.925553 -0.11473
C_ C_ 0.618282 0.751626 0.943641 0.23465
C_ C_ 0.872453 0.741272 0.945351 0.23465
C_ C_ 0.593332 0.753926 0.915088 -0.11473
C_ C_ 0.881884 0.70855 0.918836 -0.11473
C_ C_ 0.622939 0.711167 0.624461 0.17695
C_ C_ 0.874962 0.778365 0.622145 0.17695
C_ C_ 0.623007 0.784148 0.623029 0.17695
C_ C_ 0.878684 0.705189 0.625433 0.17695
C_ C_ 0.623565 0.78533 0.579256 -0.11473
C_ C_ 0.876846 0.702571 0.582696 -0.11473
C_ C_ 0.623052 0.749027 0.555643 0.23465
C_ C_ 0.8755 0.737726 0.558149 0.23465
C_ C_ 0.621988 0.711395 0.579299 -0.11473
C_ C_ 0.872678 0.775618 0.579231 -0.11473
C_ C_ 0.531196 -0.004819000000000018 0.763577 0.05793
C_ C_ 0.782038 -0.0009930000000000216 0.734041 0.05793
C_ C_ 0.717718 0.497225 0.748522 0.05793
C_ C_ 0.969142 0.493568 0.761982 0.05793
Br Br 0.572622 -0.006793000000000049 0.783915 -0.17191
Br Br 0.820604 0.995763 0.709392 -0.17191
Br Br 0.676127 0.501896 0.741205 -0.17191
Br Br 0.926314 0.492146 0.775481 -0.17191
N_ N_ 0.626449 0.754417 0.854815 -0.272
N_ N_ 0.87621 0.750458 0.857726 -0.272
N_ N_ 0.615308 0.760978 0.987116 -0.12501
N_ N_ 0.872021 0.736832 0.989483 -0.12501
N_ N_ 0.620083 0.747894 0.643982 -0.272
N_ N_ 0.877607 0.743021 0.644893 -0.272
N_ N_ 0.621462 0.747162 0.509798 -0.12501
N_ N_ 0.873114 0.732545 0.514063 -0.12501
O_ O_ 0.592041 0.791757 0.720698 -0.60745
O_ O_ 0.846619 0.791517 0.71378 -0.60745
O_ O_ 0.59794 0.792484 0.788894 -0.60745
O_ O_ 0.846143 0.79511 0.782158 -0.60745
O_ O_ 0.654846 0.7958 0.779655 -0.60745
O_ O_ 0.906893 0.787726 0.781372 -0.60745
O_ O_ 0.653464 0.795723 0.710865 -0.60745
O_ O_ 0.905587 0.788242 0.711334 -0.60745
O_ O_ 0.656943 0.702995 0.782727 -0.60745
O_ O_ 0.903888 0.701921 0.784395 -0.60745
O_ O_ 0.655561 0.705364 0.714324 -0.60745
O_ O_ 0.906023 0.700497 0.714084 -0.60745
O_ O_ 0.59479 0.70289 0.718004 -0.60745
O_ O_ 0.846892 0.698307 0.71416 -0.60745
O_ O_ 0.597287 0.696078 0.7873 -0.60745
O_ O_ 0.843651 0.704842 0.781398 -0.60745
_cell_length_a 44.444
_cell_length_b 32.3360000049186
_cell_length_c 31.843999878906452
_cell_angle_alpha 89.99799923859553
_cell_angle_beta 91.13600050494348
_cell_angle_gamma 89.9990006550086
_symmetry_space_group_name_H-M         'P 1'
_symmetry_Int_Tables_number            1
loop_
_symmetry_equiv_pos_as_xyz
   'x, y, z'
                         
loop_
_atom_site_label
_atom_site_type_symbol
_atom_site_fract_x 
_atom_site_fract_y
_atom_site_fract_z
_atom_site_charge
Zn Zn 0.125305 0.252964 0.280598 0.9476
Zn Zn 0.380594 0.251926 0.286656 0.9476
Zn Zn 0.121454 0.256559 0.213327 0.9476
Zn Zn 0.376421 0.250283 0.216539 0.9476
H_ H_ 0.0429006 0.432937 0.194072 0.10932
H_ H_ 0.292602 0.425473 0.189648 0.10932
H_ H_ 0.0621928 0.352261 0.322195 0.10932
H_ H_ 0.311092 0.346538 0.31874 0.10932
H_ H_ 0.0746172 0.370442 0.190592 0.10932
H_ H_ 0.31902 0.362289 0.186411 0.10932
H_ H_ 0.0264291 0.410094 0.323074 0.10932
H_ H_ 0.284573 0.417829 0.321447 0.10932
H_ H_ 0.218096 0.422996 0.309234 0.10932
H_ H_ 0.468989 0.414389 0.324801 0.10932
H_ H_ 0.187434 0.356202 0.173707 0.10932
H_ H_ 0.437129 0.357317 0.187042 0.10932
H_ H_ 0.187468 0.353923 0.309458 0.10932
H_ H_ 0.439755 0.352251 0.320484 0.10932
H_ H_ 0.217381 0.41661 0.175787 0.10932
H_ H_ 0.464476 0.422041 0.189129 0.10932
H_ H_ 0.226432 0.102338 0.314187 0.10932
H_ H_ 0.493375 0.103539 0.29853 0.10932
H_ H_ 0.184198 0.155511 0.182008 0.10932
H_ H_ 0.407186 0.122396 0.201971 0.10932
H_ H_ 0.192797 0.160851 0.317221 0.10932
H_ H_ 0.468373 0.171042 0.293873 0.10932
H_ H_ 0.211103 0.0886263 0.182735 0.10932
H_ H_ 0.440976 0.0624693 0.192543 0.10932
H_ H_ 0.0440024 0.0798677 0.186018 0.10932
H_ H_ 0.292451 0.0819438 0.181631 0.10932
H_ H_ 0.0682604 0.147314 0.319658 0.10932
H_ H_ 0.309907 0.153523 0.319471 0.10932
H_ H_ 0.0678751 0.148388 0.186492 0.10932
H_ H_ 0.324823 0.144243 0.185163 0.10932
H_ H_ 0.0347584 0.0802009 0.316509 0.10932
H_ H_ 0.283248 0.0832365 0.315493 0.10932
H_ H_ 0.118668 0.324829 0.354688 0.10932
H_ H_ 0.374992 0.311611 0.370303 0.10932
H_ H_ 0.128421 0.197131 0.35592 0.10932
H_ H_ 0.383074 0.180807 0.353065 0.10932
H_ H_ 0.129235 0.197306 0.437743 0.10932
H_ H_ 0.384611 0.173576 0.43188 0.10932
H_ H_ 0.108964 0.326549 0.431768 0.10932
H_ H_ 0.378225 0.309363 0.446737 0.10932
H_ H_ 0.100719 0.3115 0.145556 0.10932
H_ H_ 0.37787 0.322049 0.145425 0.10932
H_ H_ 0.134265 0.193911 0.134799 0.10932
H_ H_ 0.383878 0.190003 0.133684 0.10932
H_ H_ 0.133188 0.199104 0.0569314 0.10932
H_ H_ 0.372573 0.19519 0.0580609 0.10932
H_ H_ 0.093315 0.319256 0.0670909 0.10932
H_ H_ 0.373053 0.326938 0.0658654 0.10932
C_ C_ 0.0639101 0.349841 0.253549 -0.02249
C_ C_ 0.31924 0.349968 0.252252 -0.02249
C_ C_ 0.0127974 0.465305 0.256045 -0.02249
C_ C_ 0.269417 0.464473 0.251909 -0.02249
C_ C_ 0.0436079 0.411223 0.220129 -0.11473
C_ C_ 0.297185 0.409519 0.217964 -0.11473
C_ C_ 0.052331 0.362932 0.292813 -0.11473
C_ C_ 0.306816 0.364732 0.290892 -0.11473
C_ C_ 0.0607377 0.375662 0.218422 -0.11473
C_ C_ 0.312518 0.372115 0.217016 -0.11473
C_ C_ 0.0298913 0.423965 0.256894 -0.02249
C_ C_ 0.286742 0.42625 0.254869 -0.02249
C_ C_ 0.0823723 0.31146 0.252053 0.6875
C_ C_ 0.34057 0.312051 0.253721 0.6875
C_ C_ 0.0356093 0.400937 0.293838 -0.11473
C_ C_ 0.292133 0.404069 0.292468 -0.11473
C_ C_ 0.182265 0.353935 0.24347 -0.02249
C_ C_ 0.439105 0.346205 0.253306 -0.02249
C_ C_ 0.238256 0.462956 0.2431 -0.02249
C_ C_ 0.483953 0.468254 0.25601 -0.02249
C_ C_ 0.209543 0.407628 0.280652 -0.11473
C_ C_ 0.460868 0.405154 0.294215 -0.11473
C_ C_ 0.194274 0.36967 0.205843 -0.11473
C_ C_ 0.446601 0.368283 0.217697 -0.11473
C_ C_ 0.193384 0.370943 0.280752 -0.11473
C_ C_ 0.445848 0.366775 0.291127 -0.11473
C_ C_ 0.220221 0.423913 0.242368 -0.02249
C_ C_ 0.469016 0.426449 0.257126 -0.02249
C_ C_ 0.163363 0.316926 0.242835 0.6875
C_ C_ 0.417595 0.310479 0.252957 0.6875
C_ C_ 0.213337 0.40291 0.205584 -0.11473
C_ C_ 0.460931 0.407506 0.218028 -0.11473
C_ C_ 0.183335 0.160938 0.248393 -0.02249
C_ C_ 0.436098 0.152244 0.248605 -0.02249
C_ C_ 0.232374 0.0434498 0.250293 -0.02249
C_ C_ 0.487714 0.0403989 0.240541 -0.02249
C_ C_ 0.21447 0.109628 0.285056 -0.11473
C_ C_ 0.476718 0.108669 0.274288 -0.11473
C_ C_ 0.190388 0.141526 0.211638 -0.11473
C_ C_ 0.428628 0.121467 0.218797 -0.11473
C_ C_ 0.195361 0.144927 0.286091 -0.11473
C_ C_ 0.460855 0.1463 0.275788 -0.11473
C_ C_ 0.216549 0.0843355 0.249868 -0.02249
C_ C_ 0.469789 0.0794614 0.244203 -0.02249
C_ C_ 0.166171 0.199505 0.248229 0.6875
C_ C_ 0.418945 0.191841 0.250321 0.6875
C_ C_ 0.205981 0.102892 0.212684 -0.11473
C_ C_ 0.446112 0.0858078 0.215685 -0.11473
C_ C_ 0.068756 0.153182 0.253778 -0.02249
C_ C_ 0.319046 0.154774 0.252595 -0.02249
C_ C_ 0.0180505 0.0390569 0.245391 -0.02249
C_ C_ 0.264461 0.0419685 0.247583 -0.02249
C_ C_ 0.0438773 0.0990577 0.213386 -0.11473
C_ C_ 0.29564 0.0994818 0.212513 -0.11473
C_ C_ 0.0615805 0.13236 0.290447 -0.11473
C_ C_ 0.306766 0.137588 0.289175 -0.11473
C_ C_ 0.0581318 0.137391 0.215068 -0.11473
C_ C_ 0.314077 0.134677 0.214495 -0.11473
C_ C_ 0.0351775 0.0785071 0.248657 -0.02249
C_ C_ 0.280596 0.083092 0.248415 -0.02249
C_ C_ 0.0852814 0.194314 0.252149 0.6875
C_ C_ 0.33859 0.192749 0.252114 0.6875
C_ C_ 0.0444534 0.0952078 0.288272 -0.11473
C_ C_ 0.287036 0.102828 0.287678 -0.11473
C_ C_ 0.119641 0.296785 0.3719 0.17695
C_ C_ 0.375454 0.281412 0.383103 0.17695
C_ C_ 0.127743 0.224596 0.375187 0.17695
C_ C_ 0.378759 0.206948 0.374598 0.17695
C_ C_ 0.125707 0.225963 0.419476 -0.11473
C_ C_ 0.378371 0.202855 0.419547 -0.11473
C_ C_ 0.120559 0.2635 0.440897 0.23465
C_ C_ 0.376148 0.238595 0.446922 0.23465
C_ C_ 0.118255 0.29936 0.415266 -0.11473
C_ C_ 0.375576 0.279976 0.42708 -0.11473
C_ C_ 0.103122 0.285252 0.125614 0.17695
C_ C_ 0.375668 0.294077 0.126454 0.17695
C_ C_ 0.124221 0.219336 0.119408 0.17695
C_ C_ 0.376235 0.219671 0.120602 0.17695
C_ C_ 0.12201 0.221372 0.0747704 -0.11473
C_ C_ 0.373181 0.22364 0.0772956 -0.11473
C_ C_ 0.111177 0.258204 0.0553253 0.23465
C_ C_ 0.374781 0.261709 0.0562345 0.23465
C_ C_ 0.0996915 0.290298 0.0809985 -0.11473
C_ C_ 0.372608 0.297705 0.0803595 -0.11473
C_ C_ 0.0282881 0.502781 0.251011 0.05793
C_ C_ 0.285127 0.502249 0.25493 0.05793
C_ C_ 0.215946 0.0063555 0.252357 0.05793
C_ C_ 0.471544 1.00240851 0.245818 0.05793
Br Br 0.07232 0.502577 0.2508 -0.17191
Br Br 0.323838 0.499881 0.280786 -0.17191
Br Br 0.173112 0.00680828 0.246313 -0.17191
Br Br 0.430458 1.000717285 0.269469 -0.17191
N_ N_ 0.125936 0.259406 0.35295 -0.272
N_ N_ 0.3787 0.246331 0.358697 -0.272
N_ N_ 0.119572 0.265184 0.485782 -0.12501
N_ N_ 0.376769 0.232542 0.492943 -0.12501
N_ N_ 0.116434 0.25178 0.143172 -0.272
N_ N_ 0.376646 0.254687 0.145013 -0.272
N_ N_ 0.115838 0.265737 0.0123812 -0.12501
N_ N_ 0.374314 0.264108 0.0114416 -0.12501
O_ O_ 0.0882245 0.295601 0.217892 -0.60745
O_ O_ 0.344341 0.291947 0.219761 -0.60745
O_ O_ 0.0920566 0.29419 0.285773 -0.60745
O_ O_ 0.349618 0.295942 0.288407 -0.60745
O_ O_ 0.155629 0.299702 0.276519 -0.60745
O_ O_ 0.410456 0.292747 0.286148 -0.60745
O_ O_ 0.149483 0.306909 0.20968 -0.60745
O_ O_ 0.408249 0.295173 0.218467 -0.60745
O_ O_ 0.159031 0.214586 0.283644 -0.60745
O_ O_ 0.414738 0.208846 0.286153 -0.60745
O_ O_ 0.158227 0.216442 0.213156 -0.60745
O_ O_ 0.407773 0.206242 0.215891 -0.60745
O_ O_ 0.0947451 0.208908 0.218212 -0.60745
O_ O_ 0.346875 0.207069 0.217652 -0.60745
O_ O_ 0.0948025 0.209846 0.286389 -0.60745
O_ O_ 0.350644 0.205754 0.285692 -0.60745
Zn Zn 0.123587 0.244378 0.784762 0.9476
Zn Zn 0.374615 0.247315 0.783337 0.9476
Zn Zn 0.124057 0.250379 0.711624 0.9476
Zn Zn 0.376798 0.246375 0.717472 0.9476
H_ H_ 0.0372514 0.420647 0.684938 0.10932
H_ H_ 0.297436 0.422118 0.68811 0.10932
H_ H_ 0.0541891 0.337542 0.813181 0.10932
H_ H_ 0.302878 0.33793 0.82071 0.10932
H_ H_ 0.0712541 0.362064 0.682699 0.10932
H_ H_ 0.325224 0.354091 0.690703 0.10932
H_ H_ 0.0306906 0.405298 0.817765 0.10932
H_ H_ 0.26548 0.401912 0.810851 0.10932
H_ H_ 0.200269 0.420449 0.816957 0.10932
H_ H_ 0.451924 0.430834 0.811161 0.10932
H_ H_ 0.198905 0.336392 0.692874 0.10932
H_ H_ 0.427379 0.359458 0.679928 0.10932
H_ H_ 0.178651 0.356074 0.821099 0.10932
H_ H_ 0.423202 0.364987 0.813722 0.10932
H_ H_ 0.216389 0.40729 0.687196 0.10932
H_ H_ 0.46441 0.411748 0.679353 0.10932
H_ H_ 0.20136 0.0636716 0.81287 0.10932
H_ H_ 0.455437 0.0779185 0.815876 0.10932
H_ H_ 0.195117 0.156184 0.689088 0.10932
H_ H_ 0.454236 0.157858 0.683043 0.10932
H_ H_ 0.175491 0.127959 0.81729 0.10932
H_ H_ 0.428594 0.141756 0.811799 0.10932
H_ H_ 0.226829 0.0915392 0.687486 0.10932
H_ H_ 0.470765 0.0826448 0.684524 0.10932
H_ H_ 0.0420018 0.0731917 0.676443 0.10932
H_ H_ 0.291005 0.0694035 0.684114 0.10932
H_ H_ 0.0639323 0.14549 0.80812 0.10932
H_ H_ 0.297787 0.157789 0.810733 0.10932
H_ H_ 0.0671712 0.142397 0.672917 0.10932
H_ H_ 0.316378 0.134821 0.681716 0.10932
H_ H_ 0.0321955 0.0806446 0.810564 0.10932
H_ H_ 0.272003 0.0925219 0.814395 0.10932
H_ H_ 0.134174 0.309251 0.864439 0.10932
H_ H_ 0.37801 0.305029 0.859732 0.10932
H_ H_ 0.119268 0.183727 0.855944 0.10932
H_ H_ 0.382201 0.175654 0.859625 0.10932
H_ H_ 0.117156 0.177692 0.934113 0.10932
H_ H_ 0.379161 0.171865 0.935268 0.10932
H_ H_ 0.129301 0.308643 0.93854 0.10932
H_ H_ 0.376959 0.305158 0.938642 0.10932
H_ H_ 0.149655 0.19214 0.640029 0.10932
H_ H_ 0.385345 0.183231 0.642456 0.10932
H_ H_ 0.0999632 0.304357 0.63137 0.10932
H_ H_ 0.371576 0.312847 0.650402 0.10932
H_ H_ 0.094094 0.296087 0.554572 0.10932
H_ H_ 0.372221 0.319852 0.571151 0.10932
H_ H_ 0.155895 0.194411 0.563684 0.10932
H_ H_ 0.39082 0.190286 0.566052 0.10932
C_ C_ 0.0667352 0.344112 0.746846 -0.02249
C_ C_ 0.315391 0.343799 0.754492 -0.02249
C_ C_ 0.0178723 0.457652 0.754022 -0.02249
C_ C_ 0.261929 0.457074 0.751145 -0.02249
C_ C_ 0.0448714 0.404889 0.71274 -0.11473
C_ C_ 0.297055 0.40479 0.715922 -0.11473
C_ C_ 0.0518368 0.356522 0.784128 -0.11473
C_ C_ 0.298196 0.35679 0.788429 -0.11473
C_ C_ 0.061594 0.368235 0.71108 -0.11473
C_ C_ 0.313762 0.366955 0.718499 -0.11473
C_ C_ 0.0354599 0.419715 0.752582 -0.02249
C_ C_ 0.279465 0.417251 0.749438 -0.02249
C_ C_ 0.0861302 0.306123 0.747769 0.6875
C_ C_ 0.334674 0.30655 0.755031 0.6875
C_ C_ 0.0384247 0.395093 0.788045 -0.11473
C_ C_ 0.279784 0.391503 0.785334 -0.11473
C_ C_ 0.183485 0.343048 0.755608 -0.02249
C_ C_ 0.427829 0.352367 0.74906 -0.02249
C_ C_ 0.230977 0.458364 0.752924 -0.02249
C_ C_ 0.480388 0.461127 0.744045 -0.02249
C_ C_ 0.199836 0.404463 0.788428 -0.11473
C_ C_ 0.450807 0.409712 0.784012 -0.11473
C_ C_ 0.195654 0.355999 0.717585 -0.11473
C_ C_ 0.434754 0.369653 0.709647 -0.11473
C_ C_ 0.185528 0.366748 0.790189 -0.11473
C_ C_ 0.434002 0.374194 0.78586 -0.11473
C_ C_ 0.213745 0.419045 0.751843 -0.02249
C_ C_ 0.460682 0.424627 0.745824 -0.02249
C_ C_ 0.163158 0.305335 0.753037 0.6875
C_ C_ 0.412208 0.31066 0.750189 0.6875
C_ C_ 0.209763 0.395115 0.71632 -0.11473
C_ C_ 0.451349 0.405511 0.708346 -0.11473
C_ C_ 0.184103 0.149616 0.753118 -0.02249
C_ C_ 0.437674 0.15492 0.748235 -0.02249
C_ C_ 0.233641 0.0329719 0.750778 -0.02249
C_ C_ 0.484512 0.0355415 0.753331 -0.02249
C_ C_ 0.198474 0.0830681 0.786121 -0.11473
C_ C_ 0.457591 0.0957164 0.789274 -0.11473
C_ C_ 0.19925 0.139246 0.717494 -0.11473
C_ C_ 0.453619 0.140652 0.713403 -0.11473
C_ C_ 0.186368 0.122776 0.789158 -0.11473
C_ C_ 0.441497 0.132983 0.785591 -0.11473
C_ C_ 0.216051 0.0734893 0.751139 -0.02249
C_ C_ 0.468769 0.0773234 0.752322 -0.02249
C_ C_ 0.164019 0.188142 0.754761 0.6875
C_ C_ 0.416298 0.190165 0.745957 0.6875
C_ C_ 0.216882 0.102002 0.716849 -0.11473
C_ C_ 0.464413 0.0976464 0.713729 -0.11473
C_ C_ 0.0651994 0.150937 0.742741 -0.02249
C_ C_ 0.316609 0.148209 0.749261 -0.02249
C_ C_ 0.0170136 0.0323905 0.739211 -0.02249
C_ C_ 0.265049 0.0330955 0.753448 -0.02249
C_ C_ 0.0424545 0.0930826 0.703575 -0.11473
C_ C_ 0.29242 0.0879881 0.712264 -0.11473
C_ C_ 0.0576648 0.130756 0.779801 -0.11473
C_ C_ 0.30126 0.135997 0.785719 -0.11473
C_ C_ 0.0580351 0.131828 0.704104 -0.11473
C_ C_ 0.312316 0.122221 0.712585 -0.11473
C_ C_ 0.0337516 0.0738838 0.741206 -0.02249
C_ C_ 0.280321 0.0740255 0.749456 -0.02249
C_ C_ 0.084748 0.188127 0.74335 0.6875
C_ C_ 0.33747 0.184635 0.748573 0.6875
C_ C_ 0.0396484 0.0944731 0.77889 -0.11473
C_ C_ 0.28364 0.0995196 0.786111 -0.11473
C_ C_ 0.12471 0.283025 0.87848 0.17695
C_ C_ 0.377691 0.275685 0.877338 0.17695
C_ C_ 0.11917 0.210976 0.874582 0.17695
C_ C_ 0.379263 0.204175 0.874667 0.17695
C_ C_ 0.121645 0.208199 0.918339 -0.11473
C_ C_ 0.379514 0.202388 0.918772 -0.11473
C_ C_ 0.12472 0.242348 0.943378 0.23465
C_ C_ 0.378843 0.238607 0.943696 0.23465
C_ C_ 0.124539 0.281123 0.922852 -0.11473
C_ C_ 0.378496 0.27555 0.921812 -0.11473
C_ C_ 0.137293 0.214459 0.622564 0.17695
C_ C_ 0.3808 0.214455 0.62748 0.17695
C_ C_ 0.110842 0.278033 0.615771 0.17695
C_ C_ 0.374848 0.286361 0.630838 0.17695
C_ C_ 0.11038 0.27684 0.57191 -0.11473
C_ C_ 0.374075 0.290991 0.587668 -0.11473
C_ C_ 0.120853 0.240157 0.553545 0.23465
C_ C_ 0.377696 0.255438 0.562868 0.23465
C_ C_ 0.139154 0.213581 0.577995 -0.11473
C_ C_ 0.381137 0.21541 0.582549 -0.11473
C_ C_ 0.031563 0.495033 0.758722 0.05793
C_ C_ 0.278309 0.494023 0.7492 0.05793
C_ C_ 0.21815 -0.005275999999999947 0.749543 0.05793
C_ C_ 0.466954 0.996776 0.750163 0.05793
Br Br 0.0760502 0.497033 0.758171 -0.17191
Br Br 0.32175 0.493034 0.755657 -0.17191
Br Br 0.175455 -0.0027479999999999727 0.76091 -0.17191
Br Br 0.428756 1.00053 0.724807 -0.17191
N_ N_ 0.121437 0.246656 0.85471 -0.272
N_ N_ 0.377052 0.240318 0.854136 -0.272
N_ N_ 0.125722 0.238206 0.988576 -0.12501
N_ N_ 0.382454 0.235519 0.988564 -0.12501
N_ N_ 0.12284 0.246541 0.639959 -0.272
N_ N_ 0.374897 0.248961 0.649254 -0.272
N_ N_ 0.118906 0.235335 0.510434 -0.12501
N_ N_ 0.380282 0.261279 0.519404 -0.12501
O_ O_ 0.0964044 0.294194 0.71318 -0.60745
O_ O_ 0.339897 0.28503 0.722 -0.60745
O_ O_ 0.0904942 0.286108 0.783037 -0.60745
O_ O_ 0.344121 0.29353 0.789028 -0.60745
O_ O_ 0.150995 0.292556 0.786325 -0.60745
O_ O_ 0.401775 0.296578 0.784794 -0.60745
O_ O_ 0.1567 0.290261 0.717122 -0.60745
O_ O_ 0.405088 0.292381 0.716658 -0.60745
O_ O_ 0.156419 0.20408 0.788773 -0.60745
O_ O_ 0.403238 0.200518 0.778903 -0.60745
O_ O_ 0.155839 0.205629 0.720137 -0.60745
O_ O_ 0.412129 0.210383 0.713235 -0.60745
O_ O_ 0.0925615 0.206848 0.710952 -0.60745
O_ O_ 0.350608 0.195618 0.715839 -0.60745
O_ O_ 0.0943149 0.198644 0.779737 -0.60745
O_ O_ 0.342469 0.204525 0.781518 -0.60745
Zn Zn 0.125559 0.747488 0.285826 0.9476
Zn Zn 0.374852 0.755531 0.283302 0.9476
Zn Zn 0.127571 0.75155 0.215949 0.9476
Zn Zn 0.374229 0.753233 0.215172 0.9476
H_ H_ 0.0388442 0.920549 0.18091 0.10932
H_ H_ 0.286901 0.928102 0.183102 0.10932
H_ H_ 0.0617408 0.849707 0.317219 0.10932
H_ H_ 0.303895 0.855587 0.31737 0.10932
H_ H_ 0.071171 0.857963 0.184771 0.10932
H_ H_ 0.317976 0.863944 0.184847 0.10932
H_ H_ 0.0258425 0.907853 0.31584 0.10932
H_ H_ 0.278385 0.920591 0.313993 0.10932
H_ H_ 0.207021 0.926642 0.318674 0.10932
H_ H_ 0.488015 0.908344 0.303967 0.10932
H_ H_ 0.180398 0.855975 0.185628 0.10932
H_ H_ 0.410435 0.877596 0.188418 0.10932
H_ H_ 0.183722 0.859444 0.319964 0.10932
H_ H_ 0.456274 0.844171 0.307576 0.10932
H_ H_ 0.211625 0.918097 0.181563 0.10932
H_ H_ 0.444648 0.938354 0.186605 0.10932
H_ H_ 0.215739 0.579305 0.319126 0.10932
H_ H_ 0.469679 0.596348 0.325757 0.10932
H_ H_ 0.18663 0.649855 0.185564 0.10932
H_ H_ 0.43392 0.649447 0.183096 0.10932
H_ H_ 0.179085 0.635881 0.318783 0.10932
H_ H_ 0.442527 0.661508 0.321107 0.10932
H_ H_ 0.227164 0.591327 0.185381 0.10932
H_ H_ 0.462929 0.586176 0.188861 0.10932
H_ H_ 0.0425656 0.578894 0.177611 0.10932
H_ H_ 0.304869 0.566957 0.193327 0.10932
H_ H_ 0.0523372 0.657624 0.311788 0.10932
H_ H_ 0.292156 0.673777 0.301724 0.10932
H_ H_ 0.0742679 0.637371 0.18131 0.10932
H_ H_ 0.336454 0.628591 0.189957 0.10932
H_ H_ 0.0290191 0.588576 0.311806 0.10932
H_ H_ 0.273857 0.600068 0.316602 0.10932
H_ H_ 0.12538 0.806766 0.364159 0.10932
H_ H_ 0.381781 0.687498 0.358418 0.10932
H_ H_ 0.117066 0.675403 0.353132 0.10932
H_ H_ 0.367421 0.816513 0.358752 0.10932
H_ H_ 0.110708 0.670826 0.431 0.10932
H_ H_ 0.368243 0.817117 0.437168 0.10932
H_ H_ 0.120788 0.801252 0.441251 0.10932
H_ H_ 0.382283 0.686133 0.437007 0.10932
H_ H_ 0.176716 0.77912 0.144776 0.10932
H_ H_ 0.365454 0.689667 0.145639 0.10932
H_ H_ 0.0866477 0.734482 0.134867 0.10932
H_ H_ 0.389101 0.815051 0.134573 0.10932
H_ H_ 0.0935255 0.723553 0.0585494 0.10932
H_ H_ 0.390755 0.805276 0.0536085 0.10932
H_ H_ 0.180668 0.783521 0.0707224 0.10932
H_ H_ 0.365516 0.678571 0.0706434 0.10932
C_ C_ 0.0665622 0.846505 0.248431 -0.02249
C_ C_ 0.310005 0.84996 0.248589 -0.02249
C_ C_ 0.0158876 0.962995 0.248292 -0.02249
C_ C_ 0.262311 0.966925 0.248347 -0.02249
C_ C_ 0.0419612 0.903601 0.211909 -0.11473
C_ C_ 0.289417 0.909954 0.211382 -0.11473
C_ C_ 0.0543542 0.862222 0.286726 -0.11473
C_ C_ 0.298511 0.867986 0.28592 -0.11473
C_ C_ 0.0612339 0.868623 0.212418 -0.11473
C_ C_ 0.306431 0.873315 0.21168 -0.11473
C_ C_ 0.0307764 0.920671 0.249877 -0.02249
C_ C_ 0.278158 0.925992 0.24859 -0.02249
C_ C_ 0.0867771 0.809288 0.247991 0.6875
C_ C_ 0.332501 0.814536 0.251538 0.6875
C_ C_ 0.0343562 0.897325 0.286523 -0.11473
C_ C_ 0.282037 0.904864 0.286479 -0.11473
C_ C_ 0.178723 0.85362 0.253521 -0.02249
C_ C_ 0.431287 0.853993 0.248278 -0.02249
C_ C_ 0.230522 0.967252 0.248818 -0.02249
C_ C_ 0.486035 0.965035 0.241019 -0.02249
C_ C_ 0.20151 0.91154 0.289292 -0.11473
C_ C_ 0.472515 0.898527 0.278247 -0.11473
C_ C_ 0.186839 0.870032 0.214345 -0.11473
C_ C_ 0.429927 0.879832 0.212594 -0.11473
C_ C_ 0.187537 0.873816 0.289954 -0.11473
C_ C_ 0.453607 0.862626 0.280152 -0.11473
C_ C_ 0.212296 0.927473 0.250599 -0.02249
C_ C_ 0.468516 0.925811 0.244109 -0.02249
C_ C_ 0.162758 0.813307 0.254109 0.6875
C_ C_ 0.412563 0.8154 0.249566 0.6875
C_ C_ 0.204304 0.90681 0.212554 -0.11473
C_ C_ 0.446826 0.915212 0.211362 -0.11473
C_ C_ 0.1833 0.649688 0.253075 -0.02249
C_ C_ 0.434731 0.66074 0.253083 -0.02249
C_ C_ 0.237189 0.538813 0.24922 -0.02249
C_ C_ 0.483237 0.545188 0.254951 -0.02249
C_ C_ 0.208013 0.592582 0.288577 -0.11473
C_ C_ 0.460539 0.606554 0.293764 -0.11473
C_ C_ 0.194134 0.63487 0.214772 -0.11473
C_ C_ 0.438368 0.63765 0.21559 -0.11473
C_ C_ 0.187676 0.626267 0.289749 -0.11473
C_ C_ 0.445435 0.645042 0.292514 -0.11473
C_ C_ 0.221312 0.579699 0.252875 -0.02249
C_ C_ 0.465848 0.583912 0.255898 -0.02249
C_ C_ 0.163857 0.688341 0.253263 0.6875
C_ C_ 0.412611 0.69372 0.251329 0.6875
C_ C_ 0.215617 0.601948 0.21521 -0.11473
C_ C_ 0.454264 0.59919 0.217741 -0.11473
C_ C_ 0.0661725 0.653522 0.245247 -0.02249
C_ C_ 0.31989 0.65381 0.249081 -0.02249
C_ C_ 0.0125837 0.540488 0.24618 -0.02249
C_ C_ 0.26949 0.54047 0.252392 -0.02249
C_ C_ 0.0422038 0.595207 0.206587 -0.11473
C_ C_ 0.305212 0.585833 0.220146 -0.11473
C_ C_ 0.0521834 0.639677 0.281637 -0.11473
C_ C_ 0.300519 0.647375 0.28408 -0.11473
C_ C_ 0.0611888 0.631155 0.208191 -0.11473
C_ C_ 0.322504 0.621722 0.219065 -0.11473
C_ C_ 0.0323879 0.57836 0.246005 -0.02249
C_ C_ 0.285976 0.580951 0.252692 -0.02249
C_ C_ 0.0875722 0.69066 0.248433 0.6875
C_ C_ 0.336506 0.692658 0.246662 0.6875
C_ C_ 0.0360306 0.602209 0.282077 -0.11473
C_ C_ 0.286013 0.608506 0.287892 -0.11473
C_ C_ 0.124476 0.775564 0.378597 0.17695
C_ C_ 0.377702 0.715035 0.375999 0.17695
C_ C_ 0.11794 0.70433 0.372061 0.17695
C_ C_ 0.370357 0.787748 0.376083 0.17695
C_ C_ 0.11783 0.698813 0.416547 -0.11473
C_ C_ 0.370535 0.787912 0.418906 -0.11473
C_ C_ 0.120738 0.73444 0.440811 0.23465
C_ C_ 0.375771 0.750972 0.442696 0.23465
C_ C_ 0.119684 0.773444 0.422221 -0.11473
C_ C_ 0.377807 0.713836 0.420122 -0.11473
C_ C_ 0.155437 0.770825 0.127291 0.17695
C_ C_ 0.371185 0.715652 0.12631 0.17695
C_ C_ 0.108254 0.739573 0.12092 0.17695
C_ C_ 0.382961 0.784493 0.119526 0.17695
C_ C_ 0.110905 0.736333 0.0767879 -0.11473
C_ C_ 0.385099 0.780349 0.0741795 -0.11473
C_ C_ 0.137392 0.753401 0.0568679 0.23465
C_ C_ 0.376342 0.743385 0.0558134 0.23465
C_ C_ 0.159028 0.772164 0.0835993 -0.11473
C_ C_ 0.371956 0.709713 0.0831941 -0.11473
C_ C_ 0.033157 1.00181874 0.246321 0.05793
C_ C_ 0.279548 1.00462261 0.252308 0.05793
C_ C_ 0.221502 0.500505 0.238904 0.05793
C_ C_ 0.468978 0.506542 0.262597 0.05793
Br Br 0.0762885 0.00197391 0.230377 -0.17191
Br Br 0.321394 1.00890479 0.257599 -0.17191
Br Br 0.181172 0.50543 0.214575 -0.17191
Br Br 0.425749 0.506501 0.268186 -0.17191
N_ N_ 0.123808 0.740925 0.354615 -0.272
N_ N_ 0.374829 0.751268 0.354296 -0.272
N_ N_ 0.116619 0.731361 0.486392 -0.12501
N_ N_ 0.383097 0.754375 0.48611 -0.12501
N_ N_ 0.13011 0.755858 0.144203 -0.272
N_ N_ 0.37683 0.752656 0.144957 -0.272
N_ N_ 0.138122 0.759158 0.0118495 -0.12501
N_ N_ 0.37554 0.737494 0.0114273 -0.12501
O_ O_ 0.0976055 0.79662 0.213229 -0.60745
O_ O_ 0.346881 0.803589 0.21909 -0.60745
O_ O_ 0.0964501 0.792814 0.282046 -0.60745
O_ O_ 0.339104 0.795356 0.284755 -0.60745
O_ O_ 0.155811 0.795349 0.286764 -0.60745
O_ O_ 0.402804 0.803027 0.284481 -0.60745
O_ O_ 0.156839 0.79448 0.220213 -0.60745
O_ O_ 0.40529 0.79645 0.215993 -0.60745
O_ O_ 0.153446 0.700842 0.287544 -0.60745
O_ O_ 0.407081 0.714339 0.284136 -0.60745
O_ O_ 0.156326 0.706302 0.218292 -0.60745
O_ O_ 0.401702 0.705624 0.216801 -0.60745
O_ O_ 0.0935401 0.70918 0.21484 -0.60745
O_ O_ 0.341835 0.710712 0.211763 -0.60745
O_ O_ 0.0940089 0.705869 0.2846 -0.60745
O_ O_ 0.348318 0.705607 0.280459 -0.60745
Zn Zn 0.125382 0.744058 0.783934 0.9476
Zn Zn 0.376068 0.745796 0.782146 0.9476
Zn Zn 0.124103 0.744724 0.713118 0.9476
Zn Zn 0.372464 0.749393 0.715122 0.9476
H_ H_ 0.0299916 0.905288 0.677664 0.10932
H_ H_ 0.283505 0.914567 0.677243 0.10932
H_ H_ 0.0664218 0.851841 0.815384 0.10932
H_ H_ 0.321821 0.855125 0.813631 0.10932
H_ H_ 0.0632014 0.843823 0.68216 0.10932
H_ H_ 0.306477 0.846507 0.680326 0.10932
H_ H_ 0.0366588 0.91691 0.811821 0.10932
H_ H_ 0.295729 0.919246 0.812973 0.10932
H_ H_ 0.21935 0.914669 0.820383 0.10932
H_ H_ 0.457535 0.91465 0.821409 0.10932
H_ H_ 0.176006 0.855825 0.68635 0.10932
H_ H_ 0.438338 0.850669 0.682499 0.10932
H_ H_ 0.177384 0.859572 0.823068 0.10932
H_ H_ 0.430787 0.846462 0.816096 0.10932
H_ H_ 0.206617 0.921039 0.685575 0.10932
H_ H_ 0.464298 0.919056 0.68687 0.10932
H_ H_ 0.223225 0.590322 0.817847 0.10932
H_ H_ 0.465128 0.576285 0.811435 0.10932
H_ H_ 0.1758 0.63475 0.680496 0.10932
H_ H_ 0.442378 0.658332 0.680845 0.10932
H_ H_ 0.198745 0.652281 0.813756 0.10932
H_ H_ 0.439898 0.646045 0.815992 0.10932
H_ H_ 0.205976 0.57457 0.681902 0.10932
H_ H_ 0.462562 0.58915 0.678119 0.10932
H_ H_ 0.0155199 0.589165 0.69513 0.10932
H_ H_ 0.287302 0.572403 0.68615 0.10932
H_ H_ 0.0780199 0.631851 0.819395 0.10932
H_ H_ 0.303752 0.648384 0.820483 0.10932
H_ H_ 0.0475121 0.650597 0.689163 0.10932
H_ H_ 0.310864 0.643109 0.687395 0.10932
H_ H_ 0.0415609 0.570269 0.824996 0.10932
H_ H_ 0.277988 0.577035 0.818969 0.10932
H_ H_ 0.119158 0.804971 0.859856 0.10932
H_ H_ 0.36767 0.814992 0.849968 0.10932
H_ H_ 0.133053 0.67745 0.855322 0.10932
H_ H_ 0.382152 0.68594 0.864058 0.10932
H_ H_ 0.13163 0.67027 0.932633 0.10932
H_ H_ 0.382208 0.692725 0.940848 0.10932
H_ H_ 0.121447 0.802978 0.936981 0.10932
H_ H_ 0.370371 0.823939 0.926879 0.10932
H_ H_ 0.171151 0.746573 0.642576 0.10932
H_ H_ 0.411338 0.790784 0.637644 0.10932
H_ H_ 0.0757106 0.750838 0.639061 0.10932
H_ H_ 0.350692 0.69062 0.645316 0.10932
H_ H_ 0.0774207 0.754923 0.561009 0.10932
H_ H_ 0.347042 0.690851 0.567256 0.10932
H_ H_ 0.172993 0.753358 0.56346 0.10932
H_ H_ 0.408015 0.788958 0.560413 0.10932
C_ C_ 0.0675594 0.842802 0.748874 -0.02249
C_ C_ 0.316468 0.844988 0.746815 -0.02249
C_ C_ 0.0176599 0.957603 0.744627 -0.02249
C_ C_ 0.266383 0.958746 0.748742 -0.02249
C_ C_ 0.0396428 0.895128 0.707516 -0.11473
C_ C_ 0.289273 0.899791 0.707878 -0.11473
C_ C_ 0.0603202 0.863132 0.784912 -0.11473
C_ C_ 0.313024 0.866736 0.784761 -0.11473
C_ C_ 0.0590084 0.860028 0.710396 -0.11473
C_ C_ 0.303566 0.86084 0.708927 -0.11473
C_ C_ 0.0349787 0.917715 0.744599 -0.02249
C_ C_ 0.2824 0.918572 0.74611 -0.02249
C_ C_ 0.0848662 0.802027 0.749476 0.6875
C_ C_ 0.335127 0.807722 0.745212 0.6875
C_ C_ 0.0427849 0.900299 0.783636 -0.11473
C_ C_ 0.297389 0.905022 0.783673 -0.11473
C_ C_ 0.178826 0.848026 0.754003 -0.02249
C_ C_ 0.430524 0.845679 0.749019 -0.02249
C_ C_ 0.234016 0.957554 0.752999 -0.02249
C_ C_ 0.481835 0.958617 0.756505 -0.02249
C_ C_ 0.211226 0.899716 0.790824 -0.11473
C_ C_ 0.453092 0.900983 0.790859 -0.11473
C_ C_ 0.184352 0.868072 0.715744 -0.11473
C_ C_ 0.442685 0.863682 0.712651 -0.11473
C_ C_ 0.188105 0.868132 0.792441 -0.11473
C_ C_ 0.436313 0.863665 0.788293 -0.11473
C_ C_ 0.216882 0.919298 0.75273 -0.02249
C_ C_ 0.465072 0.91882 0.755215 -0.02249
C_ C_ 0.160093 0.809267 0.75264 0.6875
C_ C_ 0.411583 0.80713 0.748154 0.6875
C_ C_ 0.203382 0.902746 0.71542 -0.11473
C_ C_ 0.457024 0.902342 0.715073 -0.11473
C_ C_ 0.182792 0.648063 0.748531 -0.02249
C_ C_ 0.441051 0.656824 0.750359 -0.02249
C_ C_ 0.231668 0.534204 0.750707 -0.02249
C_ C_ 0.483305 0.537541 0.741348 -0.02249
C_ C_ 0.213113 0.598525 0.788043 -0.11473
C_ C_ 0.461019 0.594579 0.784291 -0.11473
C_ C_ 0.18863 0.626429 0.710296 -0.11473
C_ C_ 0.45069 0.643104 0.71118 -0.11473
C_ C_ 0.19799 0.634786 0.786582 -0.11473
C_ C_ 0.449818 0.635382 0.787025 -0.11473
C_ C_ 0.216159 0.575645 0.749257 -0.02249
C_ C_ 0.467425 0.578008 0.745319 -0.02249
C_ C_ 0.162488 0.683517 0.747952 0.6875
C_ C_ 0.415889 0.68896 0.755634 0.6875
C_ C_ 0.204335 0.590811 0.711204 -0.11473
C_ C_ 0.463296 0.602865 0.709302 -0.11473
C_ C_ 0.0666658 0.646356 0.75233 -0.02249
C_ C_ 0.3137 0.647184 0.753858 -0.02249
C_ C_ 0.0138971 0.533547 0.759883 -0.02249
C_ C_ 0.263903 0.532512 0.751899 -0.02249
C_ C_ 0.0320789 0.595606 0.719328 -0.11473
C_ C_ 0.289356 0.589619 0.714904 -0.11473
C_ C_ 0.0640407 0.623154 0.790643 -0.11473
C_ C_ 0.302229 0.631013 0.791434 -0.11473
C_ C_ 0.0486139 0.63234 0.717539 -0.11473
C_ C_ 0.305715 0.627392 0.715417 -0.11473
C_ C_ 0.0300899 0.572825 0.757115 -0.02249
C_ C_ 0.280539 0.572782 0.751443 -0.02249
C_ C_ 0.0853155 0.684874 0.751942 0.6875
C_ C_ 0.330343 0.686661 0.75285 0.6875
C_ C_ 0.0438464 0.58873 0.794282 -0.11473
C_ C_ 0.288082 0.591168 0.790638 -0.11473
C_ C_ 0.122934 0.775965 0.876915 0.17695
C_ C_ 0.372368 0.787836 0.868954 0.17695
C_ C_ 0.13196 0.704146 0.874445 0.17695
C_ C_ 0.379528 0.716478 0.878658 0.17695
C_ C_ 0.129838 0.70019 0.917275 -0.11473
C_ C_ 0.379034 0.720337 0.921719 -0.11473
C_ C_ 0.125465 0.736295 0.942387 0.23465
C_ C_ 0.375514 0.759591 0.940963 0.23465
C_ C_ 0.122803 0.774002 0.920191 -0.11473
C_ C_ 0.373944 0.794207 0.913273 -0.11473
C_ C_ 0.150587 0.750642 0.62521 0.17695
C_ C_ 0.39345 0.772536 0.621662 0.17695
C_ C_ 0.0988838 0.752213 0.622465 0.17695
C_ C_ 0.361338 0.71456 0.626699 0.17695
C_ C_ 0.0984248 0.755894 0.578104 -0.11473
C_ C_ 0.359392 0.71454 0.582943 -0.11473
C_ C_ 0.125851 0.755687 0.555558 0.23465
C_ C_ 0.3714 0.744581 0.557709 0.23465
C_ C_ 0.151882 0.756067 0.579984 -0.11473
C_ C_ 0.392484 0.770484 0.577498 -0.11473
C_ C_ 0.0342512 -0.005700000000000038 0.742718 0.05793
C_ C_ 0.281215 -0.004082999999999948 0.745058 0.05793
C_ C_ 0.215598 0.496064 0.752919 0.05793
C_ C_ 0.466593 0.500154 0.738261 0.05793
Br Br 0.0746592 -0.004472999999999949 0.766514 -0.17191
Br Br 0.32468 -0.0036519999999999886 0.747926 -0.17191
Br Br 0.170953 0.496353 0.750294 -0.17191
Br Br 0.422565 0.499347 0.724116 -0.17191
N_ N_ 0.126702 0.741167 0.855021 -0.272
N_ N_ 0.376994 0.750976 0.852667 -0.272
N_ N_ 0.12442 0.734505 0.987472 -0.12501
N_ N_ 0.37959 0.765358 0.984645 -0.12501
N_ N_ 0.123865 0.751736 0.645854 -0.272
N_ N_ 0.378261 0.744457 0.645207 -0.272
N_ N_ 0.126302 0.758546 0.51087 -0.12501
N_ N_ 0.36421 0.744829 0.51292 -0.12501
O_ O_ 0.0889915 0.78366 0.714543 -0.60745
O_ O_ 0.342569 0.792698 0.708983 -0.60745
O_ O_ 0.092436 0.784724 0.78297 -0.60745
O_ O_ 0.344791 0.789406 0.777166 -0.60745
O_ O_ 0.154462 0.791344 0.785876 -0.60745
O_ O_ 0.404967 0.789204 0.781759 -0.60745
O_ O_ 0.15299 0.793735 0.716925 -0.60745
O_ O_ 0.401411 0.794501 0.714322 -0.60745
O_ O_ 0.155325 0.697628 0.782807 -0.60745
O_ O_ 0.407335 0.701864 0.791208 -0.60745
O_ O_ 0.154918 0.70165 0.713792 -0.60745
O_ O_ 0.406075 0.707135 0.722957 -0.60745
O_ O_ 0.0918365 0.702238 0.716647 -0.60745
O_ O_ 0.339986 0.70395 0.719699 -0.60745
O_ O_ 0.0965104 0.699015 0.785067 -0.60745
O_ O_ 0.343157 0.69966 0.78657 -0.60745
Zn Zn 0.622986 0.256851 0.281159 0.9476
Zn Zn 0.875712 0.251787 0.28793 0.9476
Zn Zn 0.623203 0.255555 0.215875 0.9476
Zn Zn 0.874487 0.25196 0.217292 0.9476
H_ H_ 0.527857 0.41931 0.18427 0.10932
H_ H_ 0.80181 0.43806 0.195767 0.10932
H_ H_ 0.571967 0.365116 0.314673 0.10932
H_ H_ 0.810486 0.340626 0.31723 0.10932
H_ H_ 0.554866 0.355885 0.181009 0.10932
H_ H_ 0.826812 0.37302 0.186995 0.10932
H_ H_ 0.543025 0.429903 0.315908 0.10932
H_ H_ 0.777785 0.407229 0.321578 0.10932
H_ H_ 0.708257 0.425082 0.318399 0.10932
H_ H_ 0.957523 0.430094 0.317394 0.10932
H_ H_ 0.692708 0.349811 0.182841 0.10932
H_ H_ 0.943671 0.344561 0.187768 0.10932
H_ H_ 0.678237 0.361448 0.319573 0.10932
H_ H_ 0.930079 0.362755 0.32066 0.10932
H_ H_ 0.718624 0.41876 0.185698 0.10932
H_ H_ 0.968967 0.415188 0.18524 0.10932
H_ H_ 0.717227 0.0924282 0.316785 0.10932
H_ H_ 0.977509 0.0880357 0.321657 0.10932
H_ H_ 0.673577 0.141587 0.183838 0.10932
H_ H_ 0.923558 0.143206 0.19533 0.10932
H_ H_ 0.692643 0.16259 0.316909 0.10932
H_ H_ 0.95054 0.15252 0.3262 0.10932
H_ H_ 0.703397 0.0782826 0.186212 0.10932
H_ H_ 0.95417 0.0764302 0.191017 0.10932
H_ H_ 0.518442 0.105568 0.177252 0.10932
H_ H_ 0.786063 0.0826648 0.185217 0.10932
H_ H_ 0.584245 0.132253 0.304224 0.10932
H_ H_ 0.813905 0.150591 0.317331 0.10932
H_ H_ 0.556616 0.162719 0.174713 0.10932
H_ H_ 0.80947 0.152057 0.181722 0.10932
H_ H_ 0.559145 0.0635732 0.295079 0.10932
H_ H_ 0.782494 0.0858782 0.32081 0.10932
H_ H_ 0.646787 0.191906 0.349228 0.10932
H_ H_ 0.863685 0.188298 0.362917 0.10932
H_ H_ 0.5974 0.301361 0.365154 0.10932
H_ H_ 0.885623 0.317904 0.361547 0.10932
H_ H_ 0.600015 0.2991 0.437334 0.10932
H_ H_ 0.894199 0.316541 0.439695 0.10932
H_ H_ 0.658435 0.191856 0.428425 0.10932
H_ H_ 0.858984 0.194636 0.441837 0.10932
H_ H_ 0.612581 0.191492 0.1415 0.10932
H_ H_ 0.828396 0.241704 0.135933 0.10932
H_ H_ 0.637088 0.317093 0.141035 0.10932
H_ H_ 0.921929 0.250586 0.154081 0.10932
H_ H_ 0.643583 0.311142 0.0629941 0.10932
H_ H_ 0.92849 0.248022 0.0742083 0.10932
H_ H_ 0.608847 0.187936 0.0657777 0.10932
H_ H_ 0.834551 0.237791 0.0586122 0.10932
C_ C_ 0.561947 0.351415 0.248843 -0.02249
C_ C_ 0.819038 0.351707 0.251165 -0.02249
C_ C_ 0.516293 0.469747 0.250047 -0.02249
C_ C_ 0.769561 0.465504 0.257564 -0.02249
C_ C_ 0.53757 0.409078 0.212307 -0.11473
C_ C_ 0.801958 0.4173 0.221518 -0.11473
C_ C_ 0.563155 0.377845 0.284972 -0.11473
C_ C_ 0.806968 0.362669 0.288505 -0.11473
C_ C_ 0.552889 0.371099 0.2107 -0.11473
C_ C_ 0.818158 0.381045 0.217169 -0.11473
C_ C_ 0.534069 0.431169 0.250553 -0.02249
C_ C_ 0.787043 0.42613 0.257389 -0.02249
C_ C_ 0.580016 0.312493 0.249456 0.6875
C_ C_ 0.838799 0.313622 0.250178 0.6875
C_ C_ 0.546242 0.414714 0.285904 -0.11473
C_ C_ 0.788383 0.399497 0.291414 -0.11473
C_ C_ 0.683728 0.350261 0.25169 -0.02249
C_ C_ 0.932373 0.349284 0.253763 -0.02249
C_ C_ 0.737014 0.464291 0.255604 -0.02249
C_ C_ 0.980201 0.465988 0.251409 -0.02249
C_ C_ 0.707152 0.407489 0.289648 -0.11473
C_ C_ 0.953096 0.411365 0.289882 -0.11473
C_ C_ 0.696441 0.366352 0.214293 -0.11473
C_ C_ 0.94361 0.366311 0.215673 -0.11473
C_ C_ 0.688275 0.371976 0.29045 -0.11473
C_ C_ 0.939927 0.371443 0.29097 -0.11473
C_ C_ 0.718477 0.425557 0.250788 -0.02249
C_ C_ 0.963101 0.42772 0.252584 -0.02249
C_ C_ 0.662206 0.314003 0.250213 0.6875
C_ C_ 0.915977 0.308743 0.254233 0.6875
C_ C_ 0.713337 0.402867 0.214735 -0.11473
C_ C_ 0.958011 0.405426 0.213908 -0.11473
C_ C_ 0.684656 0.160919 0.248251 -0.02249
C_ C_ 0.934297 0.152845 0.259037 -0.02249
C_ C_ 0.730435 0.0415887 0.251158 -0.02249
C_ C_ 0.986969 0.0404354 0.253066 -0.02249
C_ C_ 0.706337 0.102541 0.288235 -0.11473
C_ C_ 0.967231 0.101592 0.293982 -0.11473
C_ C_ 0.688273 0.136164 0.211896 -0.11473
C_ C_ 0.935722 0.130475 0.222233 -0.11473
C_ C_ 0.694644 0.143666 0.286439 -0.11473
C_ C_ 0.951288 0.138567 0.296124 -0.11473
C_ C_ 0.711172 0.0802845 0.251319 -0.02249
C_ C_ 0.9703 0.0813207 0.254537 -0.02249
C_ C_ 0.665903 0.199703 0.246708 0.6875
C_ C_ 0.913229 0.190753 0.259321 0.6875
C_ C_ 0.703328 0.0990437 0.212897 -0.11473
C_ C_ 0.955665 0.0960585 0.218228 -0.11473
C_ C_ 0.571737 0.153125 0.241994 -0.02249
C_ C_ 0.812918 0.158164 0.250234 -0.02249
C_ C_ 0.518872 0.0408642 0.234004 -0.02249
C_ C_ 0.761422 0.0449284 0.252133 -0.02249
C_ C_ 0.536294 0.108295 0.201462 -0.11473
C_ C_ 0.788272 0.100716 0.213245 -0.11473
C_ C_ 0.574595 0.122932 0.273678 -0.11473
C_ C_ 0.803514 0.139236 0.287595 -0.11473
C_ C_ 0.555373 0.143091 0.203075 -0.11473
C_ C_ 0.805032 0.137731 0.213318 -0.11473
C_ C_ 0.537345 0.0794098 0.235702 -0.02249
C_ C_ 0.776725 0.0850965 0.252167 -0.02249
C_ C_ 0.587949 0.192482 0.247653 0.6875
C_ C_ 0.83362 0.19516 0.252598 0.6875
C_ C_ 0.557225 0.087421 0.269664 -0.11473
C_ C_ 0.787579 0.101921 0.289317 -0.11473
C_ C_ 0.637783 0.215608 0.37042 0.17695
C_ C_ 0.866713 0.218738 0.381574 0.17695
C_ C_ 0.608401 0.275338 0.377678 0.17695
C_ C_ 0.880274 0.288926 0.379346 0.17695
C_ C_ 0.611799 0.274575 0.420576 -0.11473
C_ C_ 0.884589 0.290363 0.423646 -0.11473
C_ C_ 0.627378 0.241429 0.441214 0.23465
C_ C_ 0.878367 0.254938 0.446872 0.23465
C_ C_ 0.641157 0.21284 0.415108 -0.11473
C_ C_ 0.867908 0.218958 0.426304 -0.11473
C_ C_ 0.617189 0.219427 0.124637 0.17695
C_ C_ 0.850224 0.246447 0.121497 0.17695
C_ C_ 0.632194 0.288971 0.123446 0.17695
C_ C_ 0.903533 0.251233 0.131514 0.17695
C_ C_ 0.632128 0.28804 0.0799896 -0.11473
C_ C_ 0.907286 0.253363 0.0877379 -0.11473
C_ C_ 0.624981 0.252102 0.0577204 0.23465
C_ C_ 0.88183 0.249657 0.0608293 0.23465
C_ C_ 0.615984 0.217539 0.0808717 -0.11473
C_ C_ 0.853093 0.249386 0.0775825 -0.11473
C_ C_ 0.531808 0.506592 0.250558 0.05793
C_ C_ 0.783847 0.504009 0.265494 0.05793
C_ C_ 0.715903 1.00260247 0.252934 0.05793
C_ C_ 0.969616 1.00369619 0.257073 0.05793
Br Br 0.574133 0.512981 0.246301 -0.17191
Br Br 0.826135 0.504311 0.288385 -0.17191
Br Br 0.673288 -1.60503e-05 0.261546 -0.17191
Br Br 0.927085 0.00520304 0.250743 -0.17191
N_ N_ 0.623075 0.247075 0.353235 -0.272
N_ N_ 0.874959 0.252468 0.359071 -0.272
N_ N_ 0.632254 0.237392 0.485289 -0.12501
N_ N_ 0.887371 0.253816 0.490574 -0.12501
N_ N_ 0.623408 0.254901 0.145113 -0.272
N_ N_ 0.875372 0.248733 0.147794 -0.272
N_ N_ 0.619155 0.256027 0.0145276 -0.12501
N_ N_ 0.885986 0.255007 0.0159882 -0.12501
O_ O_ 0.593388 0.30226 0.214388 -0.60745
O_ O_ 0.845826 0.298743 0.214069 -0.60745
O_ O_ 0.588151 0.295839 0.283483 -0.60745
O_ O_ 0.843651 0.293347 0.28389 -0.60745
O_ O_ 0.651247 0.303012 0.285423 -0.60745
O_ O_ 0.90652 0.295267 0.288346 -0.60745
O_ O_ 0.654785 0.294954 0.216606 -0.60745
O_ O_ 0.907572 0.292354 0.22001 -0.60745
O_ O_ 0.659717 0.218983 0.280286 -0.60745
O_ O_ 0.90675 0.207944 0.294363 -0.60745
O_ O_ 0.651964 0.210246 0.213226 -0.60745
O_ O_ 0.904323 0.208159 0.224002 -0.60745
O_ O_ 0.590733 0.215816 0.216029 -0.60745
O_ O_ 0.843452 0.210652 0.218421 -0.60745
O_ O_ 0.595918 0.205377 0.282717 -0.60745
O_ O_ 0.846025 0.208343 0.285863 -0.60745
Zn Zn 0.626915 0.246092 0.782066 0.9476
Zn Zn 0.876408 0.245981 0.787442 0.9476
Zn Zn 0.623636 0.24668 0.712807 0.9476
Zn Zn 0.87903 0.248808 0.717703 0.9476
H_ H_ 0.532126 0.409407 0.674565 0.10932
H_ H_ 0.792304 0.422889 0.684891 0.10932
H_ H_ 0.550258 0.342282 0.81104 0.10932
H_ H_ 0.790733 0.326347 0.803203 0.10932
H_ H_ 0.565565 0.352794 0.679641 0.10932
H_ H_ 0.82944 0.365102 0.689017 0.10932
H_ H_ 0.523731 0.408868 0.811558 0.10932
H_ H_ 0.772739 0.396295 0.817247 0.10932
H_ H_ 0.699901 0.426817 0.816029 0.10932
H_ H_ 0.967823 0.410142 0.821326 0.10932
H_ H_ 0.703729 0.339104 0.687798 0.10932
H_ H_ 0.94145 0.343982 0.684739 0.10932
H_ H_ 0.671263 0.360681 0.8146 0.10932
H_ H_ 0.933936 0.347958 0.820345 0.10932
H_ H_ 0.72568 0.406015 0.687924 0.10932
H_ H_ 0.970789 0.40887 0.687877 0.10932
H_ H_ 0.731228 0.0963724 0.814589 0.10932
H_ H_ 0.972501 0.0806978 0.808372 0.10932
H_ H_ 0.674066 0.133758 0.686506 0.10932
H_ H_ 0.926302 0.139463 0.67993 0.10932
H_ H_ 0.707242 0.163244 0.80845 0.10932
H_ H_ 0.940837 0.141528 0.815864 0.10932
H_ H_ 0.703546 0.0681606 0.68501 0.10932
H_ H_ 0.957026 0.0715153 0.678732 0.10932
H_ H_ 0.5572 0.0585197 0.705014 0.10932
H_ H_ 0.768268 0.096558 0.680583 0.10932
H_ H_ 0.543042 0.17254 0.802032 0.10932
H_ H_ 0.821188 0.13346 0.809885 0.10932
H_ H_ 0.585554 0.119687 0.694001 0.10932
H_ H_ 0.805398 0.156209 0.678824 0.10932
H_ H_ 0.519669 0.104628 0.818655 0.10932
H_ H_ 0.798135 0.0663684 0.803338 0.10932
H_ H_ 0.609114 0.307544 0.857469 0.10932
H_ H_ 0.824326 0.245181 0.855365 0.10932
H_ H_ 0.648341 0.188787 0.857935 0.10932
H_ H_ 0.920437 0.246675 0.869087 0.10932
H_ H_ 0.643677 0.185758 0.936352 0.10932
H_ H_ 0.91707 0.248733 0.942751 0.10932
H_ H_ 0.618537 0.31349 0.934396 0.10932
H_ H_ 0.820929 0.241195 0.931564 0.10932
H_ H_ 0.636531 0.189076 0.634298 0.10932
H_ H_ 0.923682 0.240808 0.644407 0.10932
H_ H_ 0.611733 0.314061 0.645129 0.10932
H_ H_ 0.826907 0.25329 0.651008 0.10932
H_ H_ 0.611949 0.321946 0.570942 0.10932
H_ H_ 0.824317 0.259043 0.572559 0.10932
H_ H_ 0.628111 0.194077 0.552299 0.10932
H_ H_ 0.918718 0.235159 0.562892 0.10932
C_ C_ 0.564694 0.343967 0.745823 -0.02249
C_ C_ 0.813823 0.342476 0.75044 -0.02249
C_ C_ 0.511904 0.457334 0.74293 -0.02249
C_ C_ 0.765423 0.45809 0.752886 -0.02249
C_ C_ 0.537008 0.396574 0.706835 -0.11473
C_ C_ 0.793457 0.404168 0.713891 -0.11473
C_ C_ 0.551435 0.362075 0.783261 -0.11473
C_ C_ 0.79422 0.350904 0.782144 -0.11473
C_ C_ 0.55741 0.363704 0.708677 -0.11473
C_ C_ 0.813182 0.369349 0.714811 -0.11473
C_ C_ 0.524685 0.414881 0.743135 -0.02249
C_ C_ 0.780077 0.416902 0.749765 -0.02249
C_ C_ 0.586914 0.308319 0.745099 0.6875
C_ C_ 0.837264 0.307263 0.750862 0.6875
C_ C_ 0.535633 0.399069 0.782162 -0.11473
C_ C_ 0.780127 0.388492 0.785445 -0.11473
C_ C_ 0.688568 0.343694 0.750309 -0.02249
C_ C_ 0.935751 0.339926 0.751563 -0.02249
C_ C_ 0.733097 0.458761 0.752862 -0.02249
C_ C_ 0.985527 0.455349 0.756982 -0.02249
C_ C_ 0.702385 0.405426 0.788812 -0.11473
C_ C_ 0.960862 0.393435 0.792404 -0.11473
C_ C_ 0.703068 0.35853 0.7164 -0.11473
C_ C_ 0.947514 0.355185 0.714838 -0.11473
C_ C_ 0.686269 0.369328 0.78668 -0.11473
C_ C_ 0.941715 0.359758 0.790499 -0.11473
C_ C_ 0.716539 0.41917 0.752486 -0.02249
C_ C_ 0.96792 0.414011 0.755776 -0.02249
C_ C_ 0.668427 0.306326 0.7493 0.6875
C_ C_ 0.919976 0.299782 0.755008 0.6875
C_ C_ 0.718468 0.395251 0.717445 -0.11473
C_ C_ 0.962497 0.394117 0.716352 -0.11473
C_ C_ 0.683923 0.1482 0.748048 -0.02249
C_ C_ 0.934738 0.148979 0.746889 -0.02249
C_ C_ 0.735861 0.0366445 0.752196 -0.02249
C_ C_ 0.985268 0.0313241 0.740785 -0.02249
C_ C_ 0.718925 0.101701 0.786068 -0.11473
C_ C_ 0.960609 0.0908426 0.781656 -0.11473
C_ C_ 0.684391 0.122605 0.713742 -0.11473
C_ C_ 0.936365 0.126678 0.708043 -0.11473
C_ C_ 0.701765 0.138144 0.784729 -0.11473
C_ C_ 0.946397 0.129762 0.78423 -0.11473
C_ C_ 0.718335 0.075504 0.751066 -0.02249
C_ C_ 0.967765 0.0724111 0.742738 -0.02249
C_ C_ 0.665902 0.187332 0.747923 0.6875
C_ C_ 0.915076 0.185632 0.750139 0.6875
C_ C_ 0.701752 0.0871307 0.714453 -0.11473
C_ C_ 0.955387 0.0907506 0.705766 -0.11473
C_ C_ 0.566023 0.151835 0.748045 -0.02249
C_ C_ 0.816832 0.151885 0.74511 -0.02249
C_ C_ 0.515449 0.0352033 0.76138 -0.02249
C_ C_ 0.766658 0.0378191 0.740634 -0.02249
C_ C_ 0.55492 0.0809688 0.728105 -0.11473
C_ C_ 0.783195 0.103768 0.704885 -0.11473
C_ C_ 0.544119 0.147014 0.779933 -0.11473
C_ C_ 0.812897 0.125243 0.78087 -0.11473
C_ C_ 0.571042 0.118001 0.720474 -0.11473
C_ C_ 0.803351 0.138212 0.705861 -0.11473
C_ C_ 0.532545 0.0756467 0.758497 -0.02249
C_ C_ 0.784546 0.0753145 0.738898 -0.02249
C_ C_ 0.586407 0.189781 0.748371 0.6875
C_ C_ 0.837943 0.186932 0.74938 0.6875
C_ C_ 0.529207 0.107894 0.786613 -0.11473
C_ C_ 0.801644 0.0860139 0.775068 -0.11473
C_ C_ 0.619728 0.282587 0.874977 0.17695
C_ C_ 0.845173 0.240609 0.873499 0.17695
C_ C_ 0.639848 0.215225 0.875591 0.17695
C_ C_ 0.898066 0.241223 0.882934 0.17695
C_ C_ 0.641034 0.215279 0.920113 -0.11473
C_ C_ 0.896018 0.249073 0.924594 -0.11473
C_ C_ 0.632858 0.250116 0.943572 0.23465
C_ C_ 0.868922 0.246281 0.944463 0.23465
C_ C_ 0.624647 0.285782 0.919008 -0.11473
C_ C_ 0.842667 0.242727 0.917441 -0.11473
C_ C_ 0.629235 0.216723 0.618645 0.17695
C_ C_ 0.902757 0.246266 0.626425 0.17695
C_ C_ 0.616536 0.286875 0.624927 0.17695
C_ C_ 0.848371 0.253924 0.631812 0.17695
C_ C_ 0.619571 0.293248 0.581915 -0.11473
C_ C_ 0.845243 0.253834 0.587554 -0.11473
C_ C_ 0.625205 0.258293 0.556015 0.23465
C_ C_ 0.871259 0.248071 0.562868 0.23465
C_ C_ 0.629162 0.219945 0.57449 -0.11473
C_ C_ 0.899605 0.246229 0.582327 -0.11473
C_ C_ 0.53065 0.493548 0.74017 0.05793
C_ C_ 0.781754 0.496035 0.749283 0.05793
C_ C_ 0.721529 -0.0034570000000000434 0.7563 0.05793
C_ C_ 0.97048 -0.007140999999999953 0.739707 0.05793
Br Br 0.572941 0.486048 0.744964 -0.17191
Br Br 0.824912 0.492726 0.751733 -0.17191
Br Br 0.678511 -0.002322999999999964 0.765852 -0.17191
Br Br 0.928508 -0.008145999999999987 0.751211 -0.17191
N_ N_ 0.629526 0.248102 0.853828 -0.272
N_ N_ 0.873054 0.237906 0.856862 -0.272
N_ N_ 0.639474 0.24932 0.987596 -0.12501
N_ N_ 0.864842 0.250932 0.989152 -0.12501
N_ N_ 0.62196 0.250042 0.641963 -0.272
N_ N_ 0.877074 0.249257 0.64855 -0.272
N_ N_ 0.623326 0.264309 0.510367 -0.12501
N_ N_ 0.867851 0.242951 0.516863 -0.12501
O_ O_ 0.589582 0.286419 0.713914 -0.60745
O_ O_ 0.852192 0.296719 0.717832 -0.60745
O_ O_ 0.598181 0.294816 0.778354 -0.60745
O_ O_ 0.84372 0.290453 0.785005 -0.60745
O_ O_ 0.659772 0.288753 0.78333 -0.60745
O_ O_ 0.906733 0.288755 0.788408 -0.60745
O_ O_ 0.657244 0.292984 0.713944 -0.60745
O_ O_ 0.913464 0.284037 0.719658 -0.60745
O_ O_ 0.655933 0.20012 0.782289 -0.60745
O_ O_ 0.902472 0.19607 0.784519 -0.60745
O_ O_ 0.65601 0.203829 0.713574 -0.60745
O_ O_ 0.907467 0.202704 0.716568 -0.60745
O_ O_ 0.59271 0.207522 0.71407 -0.60745
O_ O_ 0.843516 0.207688 0.716252 -0.60745
O_ O_ 0.594611 0.206358 0.783791 -0.60745
O_ O_ 0.846467 0.198964 0.785105 -0.60745
Zn Zn 0.626246 0.753735 0.281525 0.9476
Zn Zn 0.876417 0.755546 0.286772 0.9476
Zn Zn 0.628222 0.749923 0.214128 0.9476
Zn Zn 0.872242 0.754348 0.216353 0.9476
H_ H_ 0.526904 0.908767 0.168252 0.10932
H_ H_ 0.803414 0.941766 0.188697 0.10932
H_ H_ 0.574531 0.864056 0.301358 0.10932
H_ H_ 0.805173 0.852444 0.314624 0.10932
H_ H_ 0.551585 0.844495 0.170476 0.10932
H_ H_ 0.833662 0.877947 0.190206 0.10932
H_ H_ 0.545617 0.930795 0.298038 0.10932
H_ H_ 0.776371 0.919549 0.315086 0.10932
H_ H_ 0.721075 0.91554 0.316932 0.10932
H_ H_ 0.947055 0.934479 0.319276 0.10932
H_ H_ 0.673599 0.865683 0.187901 0.10932
H_ H_ 0.947849 0.847286 0.190461 0.10932
H_ H_ 0.691075 0.85239 0.319969 0.10932
H_ H_ 0.913778 0.87141 0.312971 0.10932
H_ H_ 0.707469 0.925522 0.184457 0.10932
H_ H_ 0.9826 0.905195 0.198012 0.10932
H_ H_ 0.712005 0.582562 0.32602 0.10932
H_ H_ 0.940166 0.564161 0.304173 0.10932
H_ H_ 0.699997 0.660711 0.189605 0.10932
H_ H_ 0.941636 0.65758 0.18244 0.10932
H_ H_ 0.679168 0.643894 0.320916 0.10932
H_ H_ 0.920763 0.636717 0.313199 0.10932
H_ H_ 0.732228 0.597304 0.191617 0.10932
H_ H_ 0.975962 0.600043 0.185478 0.10932
H_ H_ 0.53651 0.580362 0.184227 0.10932
H_ H_ 0.79883 0.573659 0.192478 0.10932
H_ H_ 0.561806 0.657514 0.31686 0.10932
H_ H_ 0.819656 0.650411 0.322225 0.10932
H_ H_ 0.561172 0.651261 0.179525 0.10932
H_ H_ 0.824587 0.639142 0.189447 0.10932
H_ H_ 0.525333 0.599545 0.315024 0.10932
H_ H_ 0.786511 0.589923 0.32388 0.10932
H_ H_ 0.622508 0.698815 0.363577 0.10932
H_ H_ 0.827629 0.767154 0.357269 0.10932
H_ H_ 0.627341 0.827409 0.348918 0.10932
H_ H_ 0.916221 0.729835 0.361491 0.10932
H_ H_ 0.63184 0.836214 0.429162 0.10932
H_ H_ 0.917033 0.727134 0.440363 0.10932
H_ H_ 0.61985 0.705637 0.441385 0.10932
H_ H_ 0.82942 0.779007 0.437845 0.10932
H_ H_ 0.61869 0.81586 0.136208 0.10932
H_ H_ 0.858162 0.692201 0.142244 0.10932
H_ H_ 0.644145 0.687473 0.141015 0.10932
H_ H_ 0.876465 0.820894 0.144703 0.10932
H_ H_ 0.638733 0.686689 0.0622945 0.10932
H_ H_ 0.878165 0.821263 0.0651229 0.10932
H_ H_ 0.620107 0.815241 0.0582101 0.10932
H_ H_ 0.850486 0.695544 0.0670013 0.10932
C_ C_ 0.56784 0.849959 0.236045 -0.02249
C_ C_ 0.81916 0.858139 0.251141 -0.02249
C_ C_ 0.518117 0.964785 0.230603 -0.02249
C_ C_ 0.764608 0.968628 0.249039 -0.02249
C_ C_ 0.538384 0.90086 0.196016 -0.11473
C_ C_ 0.799973 0.919588 0.214564 -0.11473
C_ C_ 0.563142 0.872043 0.273004 -0.11473
C_ C_ 0.800565 0.869409 0.284993 -0.11473
C_ C_ 0.554011 0.863205 0.198232 -0.11473
C_ C_ 0.819057 0.885256 0.217934 -0.11473
C_ C_ 0.534768 0.924328 0.232344 -0.02249
C_ C_ 0.783469 0.930635 0.250393 -0.02249
C_ C_ 0.587565 0.812009 0.236545 0.6875
C_ C_ 0.835969 0.817333 0.251462 0.6875
C_ C_ 0.548435 0.910228 0.27045 -0.11473
C_ C_ 0.785194 0.907588 0.285676 -0.11473
C_ C_ 0.683341 0.850836 0.251721 -0.02249
C_ C_ 0.933016 0.850421 0.25599 -0.02249
C_ C_ 0.732632 0.965509 0.250623 -0.02249
C_ C_ 0.984264 0.965702 0.25897 -0.02249
C_ C_ 0.712552 0.903435 0.288085 -0.11473
C_ C_ 0.949556 0.913045 0.292901 -0.11473
C_ C_ 0.687714 0.872939 0.213755 -0.11473
C_ C_ 0.948941 0.864693 0.219729 -0.11473
C_ C_ 0.695925 0.866554 0.289489 -0.11473
C_ C_ 0.932118 0.876281 0.290814 -0.11473
C_ C_ 0.717273 0.924524 0.251487 -0.02249
C_ C_ 0.964837 0.926817 0.25829 -0.02249
C_ C_ 0.664445 0.813329 0.252899 0.6875
C_ C_ 0.914049 0.811792 0.254426 0.6875
C_ C_ 0.705313 0.909584 0.214199 -0.11473
C_ C_ 0.966934 0.899847 0.222608 -0.11473
C_ C_ 0.687743 0.657986 0.256992 -0.02249
C_ C_ 0.92734 0.653007 0.247358 -0.02249
C_ C_ 0.737685 0.540632 0.256642 -0.02249
C_ C_ 0.980578 0.541827 0.24682 -0.02249
C_ C_ 0.708056 0.597014 0.294024 -0.11473
C_ C_ 0.94411 0.589492 0.280337 -0.11473
C_ C_ 0.702592 0.643528 0.219718 -0.11473
C_ C_ 0.945878 0.64334 0.212334 -0.11473
C_ C_ 0.68976 0.632703 0.292026 -0.11473
C_ C_ 0.927777 0.62634 0.282248 -0.11473
C_ C_ 0.721221 0.580648 0.256675 -0.02249
C_ C_ 0.964116 0.582541 0.246769 -0.02249
C_ C_ 0.669079 0.69669 0.255764 0.6875
C_ C_ 0.909283 0.691467 0.248961 0.6875
C_ C_ 0.718083 0.604579 0.218257 -0.11473
C_ C_ 0.965313 0.610035 0.212764 -0.11473
C_ C_ 0.56731 0.657513 0.247199 -0.02249
C_ C_ 0.819233 0.652925 0.253853 -0.02249
C_ C_ 0.514936 0.54459 0.249456 -0.02249
C_ C_ 0.769568 0.541394 0.262069 -0.02249
C_ C_ 0.540199 0.60005 0.212901 -0.11473
C_ C_ 0.803195 0.588373 0.221852 -0.11473
C_ C_ 0.55597 0.642691 0.286078 -0.11473
C_ C_ 0.811655 0.636657 0.291706 -0.11473
C_ C_ 0.556484 0.638947 0.211476 -0.11473
C_ C_ 0.814079 0.629242 0.218703 -0.11473
C_ C_ 0.531156 0.584737 0.249763 -0.02249
C_ C_ 0.787599 0.577783 0.258673 -0.02249
C_ C_ 0.587371 0.695226 0.245783 0.6875
C_ C_ 0.837921 0.692989 0.251736 0.6875
C_ C_ 0.537598 0.605531 0.286995 -0.11473
C_ C_ 0.794137 0.600939 0.293825 -0.11473
C_ C_ 0.621747 0.728135 0.377572 0.17695
C_ C_ 0.848114 0.764645 0.377136 0.17695
C_ C_ 0.624948 0.80258 0.370747 0.17695
C_ C_ 0.896916 0.736201 0.378732 0.17695
C_ C_ 0.624958 0.80696 0.414878 -0.11473
C_ C_ 0.897638 0.736694 0.422033 -0.11473
C_ C_ 0.622935 0.771413 0.4414 0.23465
C_ C_ 0.873981 0.754036 0.444085 0.23465
C_ C_ 0.624504 0.732785 0.422664 -0.11473
C_ C_ 0.847926 0.766499 0.421982 -0.11473
C_ C_ 0.623136 0.786848 0.121574 0.17695
C_ C_ 0.866364 0.720163 0.124428 0.17695
C_ C_ 0.638542 0.716298 0.123397 0.17695
C_ C_ 0.876801 0.791489 0.127463 0.17695
C_ C_ 0.638541 0.716478 0.078912 -0.11473
C_ C_ 0.87322 0.793436 0.0825571 -0.11473
C_ C_ 0.631272 0.751526 0.0572064 0.23465
C_ C_ 0.86405 0.757955 0.0601266 0.23465
C_ C_ 0.62792 0.788539 0.0781041 -0.11473
C_ C_ 0.861657 0.721356 0.0812612 -0.11473
C_ C_ 0.533266 1.00322107 0.226778 0.05793
C_ C_ 0.778582 1.00743754 0.256233 0.05793
C_ C_ 0.722204 0.503709 0.248399 0.05793
C_ C_ 0.964636 0.504694 0.248038 0.05793
Br Br 0.575504 1.00319471 0.210061 -0.17191
Br Br 0.821538 1.0120771 0.263404 -0.17191
Br Br 0.680782 0.505947 0.231409 -0.17191
Br Br 0.923378 0.500613 0.228504 -0.17191
N_ N_ 0.621714 0.763515 0.353219 -0.272
N_ N_ 0.872999 0.750338 0.357273 -0.272
N_ N_ 0.627507 0.776434 0.484343 -0.12501
N_ N_ 0.87609 0.761696 0.488822 -0.12501
N_ N_ 0.629553 0.750035 0.144083 -0.272
N_ N_ 0.873627 0.755003 0.145958 -0.272
N_ N_ 0.635317 0.748853 0.0124859 -0.12501
N_ N_ 0.859624 0.761514 0.0141443 -0.12501
O_ O_ 0.59176 0.789081 0.205075 -0.60745
O_ O_ 0.84198 0.799652 0.217803 -0.60745
O_ O_ 0.596197 0.799331 0.272237 -0.60745
O_ O_ 0.846346 0.803793 0.285839 -0.60745
O_ O_ 0.657796 0.795423 0.285655 -0.60745
O_ O_ 0.909672 0.793279 0.288796 -0.60745
O_ O_ 0.654788 0.796048 0.218746 -0.60745
O_ O_ 0.899806 0.802483 0.221661 -0.60745
O_ O_ 0.654933 0.707694 0.288632 -0.60745
O_ O_ 0.902095 0.706879 0.284427 -0.60745
O_ O_ 0.6638 0.71453 0.220329 -0.60745
O_ O_ 0.904196 0.711919 0.216094 -0.60745
O_ O_ 0.601768 0.704284 0.212888 -0.60745
O_ O_ 0.84544 0.706188 0.217163 -0.60745
O_ O_ 0.594689 0.714516 0.278998 -0.60745
O_ O_ 0.84372 0.712237 0.285184 -0.60745
Zn Zn 0.626523 0.745369 0.784861 0.9476
Zn Zn 0.875022 0.749081 0.783589 0.9476
Zn Zn 0.623772 0.749365 0.715348 0.9476
Zn Zn 0.876132 0.742409 0.715864 0.9476
H_ H_ 0.527582 0.911882 0.691553 0.10932
H_ H_ 0.787618 0.916427 0.675176 0.10932
H_ H_ 0.561226 0.844229 0.824842 0.10932
H_ H_ 0.810773 0.853002 0.812575 0.10932
H_ H_ 0.559841 0.849567 0.689758 0.10932
H_ H_ 0.812273 0.845882 0.681228 0.10932
H_ H_ 0.526732 0.902984 0.826612 0.10932
H_ H_ 0.781509 0.915541 0.806843 0.10932
H_ H_ 0.717777 0.913875 0.814307 0.10932
H_ H_ 0.982927 0.901916 0.8056 0.10932
H_ H_ 0.678253 0.860186 0.678288 0.10932
H_ H_ 0.921372 0.857808 0.683896 0.10932
H_ H_ 0.680253 0.857768 0.81064 0.10932
H_ H_ 0.946381 0.848071 0.813808 0.10932
H_ H_ 0.709967 0.923134 0.678056 0.10932
H_ H_ 0.95013 0.922871 0.682225 0.10932
H_ H_ 0.716543 0.580396 0.811924 0.10932
H_ H_ 0.97564 0.588471 0.817469 0.10932
H_ H_ 0.681203 0.64051 0.678206 0.10932
H_ H_ 0.918615 0.624743 0.690895 0.10932
H_ H_ 0.68997 0.643896 0.812761 0.10932
H_ H_ 0.942199 0.647218 0.820479 0.10932
H_ H_ 0.711435 0.576777 0.677036 0.10932
H_ H_ 0.942205 0.558308 0.697351 0.10932
H_ H_ 0.526391 0.590765 0.676556 0.10932
H_ H_ 0.787401 0.575102 0.680868 0.10932
H_ H_ 0.575419 0.623981 0.815303 0.10932
H_ H_ 0.820605 0.637224 0.816867 0.10932
H_ H_ 0.559828 0.653985 0.683218 0.10932
H_ H_ 0.810377 0.642019 0.678754 0.10932
H_ H_ 0.542608 0.560591 0.804755 0.10932
H_ H_ 0.787982 0.577732 0.816236 0.10932
H_ H_ 0.576901 0.748116 0.853225 0.10932
H_ H_ 0.884174 0.686995 0.855102 0.10932
H_ H_ 0.672315 0.754568 0.868732 0.10932
H_ H_ 0.856551 0.808329 0.869214 0.10932
H_ H_ 0.666591 0.753566 0.944352 0.10932
H_ H_ 0.853862 0.803875 0.942324 0.10932
H_ H_ 0.570638 0.755511 0.926256 0.10932
H_ H_ 0.884953 0.677725 0.933653 0.10932
H_ H_ 0.624611 0.681941 0.642704 0.10932
H_ H_ 0.871928 0.805506 0.636752 0.10932
H_ H_ 0.628683 0.811171 0.640792 0.10932
H_ H_ 0.879315 0.677594 0.644251 0.10932
H_ H_ 0.629199 0.813586 0.565867 0.10932
H_ H_ 0.86915 0.674112 0.567191 0.10932
H_ H_ 0.619669 0.682208 0.563775 0.10932
H_ H_ 0.868027 0.804234 0.560316 0.10932
C_ C_ 0.56333 0.842921 0.757339 -0.02249
C_ C_ 0.819685 0.847769 0.746642 -0.02249
C_ C_ 0.513925 0.957384 0.760596 -0.02249
C_ C_ 0.767045 0.960171 0.738772 -0.02249
C_ C_ 0.538992 0.902165 0.720372 -0.11473
C_ C_ 0.79246 0.901144 0.704877 -0.11473
C_ C_ 0.554197 0.85813 0.796003 -0.11473
C_ C_ 0.811577 0.869266 0.782829 -0.11473
C_ C_ 0.553304 0.864069 0.719494 -0.11473
C_ C_ 0.809014 0.863629 0.708857 -0.11473
C_ C_ 0.529077 0.916476 0.759361 -0.02249
C_ C_ 0.784888 0.921292 0.741552 -0.02249
C_ C_ 0.586242 0.80764 0.755762 0.6875
C_ C_ 0.836176 0.80747 0.747253 0.6875
C_ C_ 0.536071 0.893557 0.796766 -0.11473
C_ C_ 0.795271 0.905791 0.780198 -0.11473
C_ C_ 0.677487 0.853625 0.745277 -0.02249
C_ C_ 0.93452 0.840971 0.746459 -0.02249
C_ C_ 0.735581 0.95875 0.747307 -0.02249
C_ C_ 0.986205 0.956135 0.739605 -0.02249
C_ C_ 0.710164 0.901451 0.783947 -0.11473
C_ C_ 0.969036 0.890792 0.778998 -0.11473
C_ C_ 0.683629 0.875159 0.707977 -0.11473
C_ C_ 0.936836 0.86408 0.708918 -0.11473
C_ C_ 0.689372 0.86901 0.782705 -0.11473
C_ C_ 0.949858 0.857369 0.782583 -0.11473
C_ C_ 0.716461 0.922507 0.746423 -0.02249
C_ C_ 0.970074 0.915632 0.741391 -0.02249
C_ C_ 0.660723 0.813687 0.745403 0.6875
C_ C_ 0.914185 0.803457 0.746095 0.6875
C_ C_ 0.701402 0.910154 0.708361 -0.11473
C_ C_ 0.953962 0.902305 0.70696 -0.11473
C_ C_ 0.682647 0.650018 0.744706 -0.02249
C_ C_ 0.92867 0.644005 0.753512 -0.02249
C_ C_ 0.733739 0.534833 0.74528 -0.02249
C_ C_ 0.982208 0.532461 0.75814 -0.02249
C_ C_ 0.710074 0.593933 0.782036 -0.11473
C_ C_ 0.96433 0.597813 0.788746 -0.11473
C_ C_ 0.68956 0.629376 0.70724 -0.11473
C_ C_ 0.928004 0.617144 0.719849 -0.11473
C_ C_ 0.692484 0.629875 0.782514 -0.11473
C_ C_ 0.943593 0.630413 0.790652 -0.11473
C_ C_ 0.719857 0.576012 0.744507 -0.02249
C_ C_ 0.964484 0.570491 0.755443 -0.02249
C_ C_ 0.663437 0.687619 0.74752 0.6875
C_ C_ 0.914799 0.686155 0.750136 0.6875
C_ C_ 0.708091 0.593095 0.706607 -0.11473
C_ C_ 0.943616 0.579873 0.722835 -0.11473
C_ C_ 0.570273 0.644454 0.74848 -0.02249
C_ C_ 0.815229 0.650852 0.748275 -0.02249
C_ C_ 0.515208 0.534029 0.737935 -0.02249
C_ C_ 0.76573 0.53412 0.747554 -0.02249
C_ C_ 0.537448 0.599275 0.706079 -0.11473
C_ C_ 0.791722 0.592169 0.711253 -0.11473
C_ C_ 0.565236 0.616268 0.78444 -0.11473
C_ C_ 0.809899 0.627091 0.786735 -0.11473
C_ C_ 0.555676 0.635157 0.710251 -0.11473
C_ C_ 0.80583 0.630714 0.710917 -0.11473
C_ C_ 0.533363 0.571182 0.740248 -0.02249
C_ C_ 0.783481 0.573192 0.749496 -0.02249
C_ C_ 0.587557 0.684091 0.752052 0.6875
C_ C_ 0.836509 0.686461 0.747784 0.6875
C_ C_ 0.546629 0.580981 0.778611 -0.11473
C_ C_ 0.791709 0.591413 0.786664 -0.11473
C_ C_ 0.597725 0.750933 0.87192 0.17695
C_ C_ 0.881332 0.71356 0.874095 0.17695
C_ C_ 0.650498 0.751789 0.882003 0.17695
C_ C_ 0.866618 0.78249 0.88191 0.17695
C_ C_ 0.647015 0.750425 0.924552 -0.11473
C_ C_ 0.865468 0.778889 0.925553 -0.11473
C_ C_ 0.618282 0.751626 0.943641 0.23465
C_ C_ 0.872453 0.741272 0.945351 0.23465
C_ C_ 0.593332 0.753926 0.915088 -0.11473
C_ C_ 0.881884 0.70855 0.918836 -0.11473
C_ C_ 0.622939 0.711167 0.624461 0.17695
C_ C_ 0.874962 0.778365 0.622145 0.17695
C_ C_ 0.623007 0.784148 0.623029 0.17695
C_ C_ 0.878684 0.705189 0.625433 0.17695
C_ C_ 0.623565 0.78533 0.579256 -0.11473
C_ C_ 0.876846 0.702571 0.582696 -0.11473
C_ C_ 0.623052 0.749027 0.555643 0.23465
C_ C_ 0.8755 0.737726 0.558149 0.23465
C_ C_ 0.621988 0.711395 0.579299 -0.11473
C_ C_ 0.872678 0.775618 0.579231 -0.11473
C_ C_ 0.531196 -0.004819000000000018 0.763577 0.05793
C_ C_ 0.782038 -0.0009930000000000216 0.734041 0.05793
C_ C_ 0.717718 0.497225 0.748522 0.05793
C_ C_ 0.969142 0.493568 0.761982 0.05793
Br Br 0.572622 -0.006793000000000049 0.783915 -0.17191
Br Br 0.820604 0.995763 0.709392 -0.17191
Br Br 0.676127 0.501896 0.741205 -0.17191
Br Br 0.926314 0.492146 0.775481 -0.17191
N_ N_ 0.626449 0.754417 0.854815 -0.272
N_ N_ 0.87621 0.750458 0.857726 -0.272
N_ N_ 0.615308 0.760978 0.987116 -0.12501
N_ N_ 0.872021 0.736832 0.989483 -0.12501
N_ N_ 0.620083 0.747894 0.643982 -0.272
N_ N_ 0.877607 0.743021 0.644893 -0.272
N_ N_ 0.621462 0.747162 0.509798 -0.12501
N_ N_ 0.873114 0.732545 0.514063 -0.12501
O_ O_ 0.592041 0.791757 0.720698 -0.60745
O_ O_ 0.846619 0.791517 0.71378 -0.60745
O_ O_ 0.59794 0.792484 0.788894 -0.60745
O_ O_ 0.846143 0.79511 0.782158 -0.60745
O_ O_ 0.654846 0.7958 0.779655 -0.60745
O_ O_ 0.906893 0.787726 0.781372 -0.60745
O_ O_ 0.653464 0.795723 0.710865 -0.60745
O_ O_ 0.905587 0.788242 0.711334 -0.60745
O_ O_ 0.656943 0.702995 0.782727 -0.60745
O_ O_ 0.903888 0.701921 0.784395 -0.60745
O_ O_ 0.655561 0.705364 0.714324 -0.60745
O_ O_ 0.906023 0.700497 0.714084 -0.60745
O_ O_ 0.59479 0.70289 0.718004 -0.60745
O_ O_ 0.846892 0.698307 0.71416 -0.60745
O_ O_ 0.597287 0.696078 0.7873 -0.60745
O_ O_ 0.843651 0.704842 0.781398 -0.60745
