_cell_length_a 44.444
_cell_length_b 32.3360000049186
_cell_length_c 31.843999878906452
_cell_angle_alpha 89.99799923859553
_cell_angle_beta 91.13600050494348
_cell_angle_gamma 89.9990006550086
_symmetry_space_group_name_H-M         'P 1'
_symmetry_Int_Tables_number            1
loop_
_symmetry_equiv_pos_as_xyz
   'x, y, z'
                         
loop_
_atom_site_label
_atom_site_type_symbol
_atom_site_fract_x 
_atom_site_fract_y
_atom_site_fract_z
_atom_site_charge
Zn Zn 0.124117 0.241945 0.285294 0.9476
Zn Zn 0.372145 0.251978 0.284232 0.9476
Zn Zn 0.123714 0.247803 0.21829 0.9476
Zn Zn 0.371964 0.246802 0.214096 0.9476
H_ H_ 0.0359401 0.414929 0.180017 0.10932
H_ H_ 0.26921 0.405621 0.191336 0.10932
H_ H_ 0.0634773 0.352144 0.316409 0.10932
H_ H_ 0.334188 0.370886 0.315268 0.10932
H_ H_ 0.0623 0.349929 0.181384 0.10932
H_ H_ 0.299439 0.341459 0.19257 0.10932
H_ H_ 0.0280552 0.408221 0.312433 0.10932
H_ H_ 0.305625 0.435984 0.314211 0.10932
H_ H_ 0.223761 0.402818 0.324115 0.10932
H_ H_ 0.465081 0.414721 0.315705 0.10932
H_ H_ 0.165997 0.363089 0.199386 0.10932
H_ H_ 0.428364 0.353381 0.180511 0.10932
H_ H_ 0.198283 0.335391 0.319373 0.10932
H_ H_ 0.437263 0.349807 0.315683 0.10932
H_ H_ 0.201733 0.426337 0.194294 0.10932
H_ H_ 0.447565 0.424435 0.183183 0.10932
H_ H_ 0.216861 0.0814092 0.312207 0.10932
H_ H_ 0.453797 0.0824616 0.316721 0.10932
H_ H_ 0.177704 0.143767 0.179728 0.10932
H_ H_ 0.438756 0.147744 0.178786 0.10932
H_ H_ 0.196845 0.15312 0.313055 0.10932
H_ H_ 0.436339 0.155086 0.315109 0.10932
H_ H_ 0.208276 0.080363 0.177611 0.10932
H_ H_ 0.478253 0.0950643 0.186684 0.10932
H_ H_ 0.0276317 0.0804331 0.176845 0.10932
H_ H_ 0.285325 0.078431 0.176381 0.10932
H_ H_ 0.0656804 0.138386 0.313301 0.10932
H_ H_ 0.297716 0.153478 0.308151 0.10932
H_ H_ 0.0641582 0.140905 0.176055 0.10932
H_ H_ 0.322677 0.136917 0.177605 0.10932
H_ H_ 0.0402127 0.0714853 0.309344 0.10932
H_ H_ 0.283181 0.0779844 0.307373 0.10932
H_ H_ 0.131591 0.311195 0.348754 0.10932
H_ H_ 0.379883 0.311661 0.363159 0.10932
H_ H_ 0.121458 0.179163 0.363797 0.10932
H_ H_ 0.367962 0.181148 0.352379 0.10932
H_ H_ 0.128236 0.184113 0.443435 0.10932
H_ H_ 0.367176 0.176305 0.431525 0.10932
H_ H_ 0.132662 0.315549 0.428611 0.10932
H_ H_ 0.370775 0.307923 0.438002 0.10932
H_ H_ 0.114554 0.314716 0.142724 0.10932
H_ H_ 0.366135 0.320054 0.143417 0.10932
H_ H_ 0.125 0.186161 0.147509 0.10932
H_ H_ 0.375161 0.190439 0.132943 0.10932
H_ H_ 0.123432 0.178261 0.0691545 0.10932
H_ H_ 0.377678 0.1932 0.0580536 0.10932
H_ H_ 0.103866 0.309883 0.0612794 0.10932
H_ H_ 0.371431 0.327756 0.0673333 0.10932
C_ C_ 0.0667066 0.345333 0.249838 -0.02249
C_ C_ 0.321296 0.353374 0.252128 -0.02249
C_ C_ 0.0139015 0.457149 0.248389 -0.02249
C_ C_ 0.264244 0.462086 0.255007 -0.02249
C_ C_ 0.0422712 0.401208 0.210837 -0.11473
C_ C_ 0.283472 0.397634 0.219643 -0.11473
C_ C_ 0.0553348 0.361871 0.28541 -0.11473
C_ C_ 0.32244 0.380962 0.287016 -0.11473
C_ C_ 0.0597711 0.365389 0.210533 -0.11473
C_ C_ 0.300921 0.360526 0.220477 -0.11473
C_ C_ 0.0302238 0.416788 0.247706 -0.02249
C_ C_ 0.282551 0.423411 0.256822 -0.02249
C_ C_ 0.0843761 0.306447 0.249493 0.6875
C_ C_ 0.336022 0.312074 0.253577 0.6875
C_ C_ 0.0361882 0.395847 0.283751 -0.11473
C_ C_ 0.302566 0.414281 0.28937 -0.11473
C_ C_ 0.181178 0.344073 0.255223 -0.02249
C_ C_ 0.43227 0.345624 0.248195 -0.02249
C_ C_ 0.23275 0.460947 0.259836 -0.02249
C_ C_ 0.483786 0.460702 0.248553 -0.02249
C_ C_ 0.213119 0.394023 0.294474 -0.11473
C_ C_ 0.460493 0.399603 0.284806 -0.11473
C_ C_ 0.181058 0.372057 0.222586 -0.11473
C_ C_ 0.436691 0.366665 0.209461 -0.11473
C_ C_ 0.199249 0.354613 0.291161 -0.11473
C_ C_ 0.443947 0.362968 0.285703 -0.11473
C_ C_ 0.216034 0.421153 0.258758 -0.02249
C_ C_ 0.467025 0.420646 0.24683 -0.02249
C_ C_ 0.160327 0.307544 0.252462 0.6875
C_ C_ 0.412642 0.308111 0.251469 0.6875
C_ C_ 0.198849 0.408416 0.223009 -0.11473
C_ C_ 0.454007 0.403698 0.209146 -0.11473
C_ C_ 0.186916 0.154721 0.247057 -0.02249
C_ C_ 0.437651 0.160036 0.247347 -0.02249
C_ C_ 0.232326 0.0364937 0.243766 -0.02249
C_ C_ 0.481625 0.042389 0.25569 -0.02249
C_ C_ 0.211742 0.0979175 0.282894 -0.11473
C_ C_ 0.456718 0.101379 0.287826 -0.11473
C_ C_ 0.188975 0.132116 0.20801 -0.11473
C_ C_ 0.448532 0.14239 0.209791 -0.11473
C_ C_ 0.200287 0.137765 0.283903 -0.11473
C_ C_ 0.445657 0.141141 0.285819 -0.11473
C_ C_ 0.217444 0.077944 0.244834 -0.02249
C_ C_ 0.465039 0.0831862 0.250262 -0.02249
C_ C_ 0.166141 0.190442 0.250398 0.6875
C_ C_ 0.412448 0.190466 0.247719 0.6875
C_ C_ 0.207723 0.0969684 0.206783 -0.11473
C_ C_ 0.465803 0.105627 0.213056 -0.11473
C_ C_ 0.0663112 0.146905 0.24474 -0.02249
C_ C_ 0.313878 0.151432 0.244416 -0.02249
C_ C_ 0.00980931 0.0374516 0.243608 -0.02249
C_ C_ 0.265061 0.0346466 0.238017 -0.02249
C_ C_ 0.0352515 0.0955963 0.204457 -0.11473
C_ C_ 0.290992 0.0944278 0.203623 -0.11473
C_ C_ 0.0572618 0.12819 0.283026 -0.11473
C_ C_ 0.300111 0.135113 0.280507 -0.11473
C_ C_ 0.0569899 0.128324 0.205702 -0.11473
C_ C_ 0.309989 0.128579 0.205517 -0.11473
C_ C_ 0.028022 0.0760074 0.242909 -0.02249
C_ C_ 0.281463 0.0752594 0.240554 -0.02249
C_ C_ 0.0864074 0.183895 0.247318 0.6875
C_ C_ 0.331905 0.191954 0.244274 0.6875
C_ C_ 0.0405942 0.091061 0.281951 -0.11473
C_ C_ 0.286431 0.095293 0.280006 -0.11473
C_ C_ 0.131711 0.282802 0.370713 0.17695
C_ C_ 0.375449 0.281403 0.376053 0.17695
C_ C_ 0.126132 0.209606 0.378203 0.17695
C_ C_ 0.36629 0.208841 0.37168 0.17695
C_ C_ 0.129931 0.21022 0.423342 -0.11473
C_ C_ 0.368036 0.204618 0.414668 -0.11473
C_ C_ 0.134894 0.248554 0.441285 0.23465
C_ C_ 0.370661 0.240219 0.440767 0.23465
C_ C_ 0.134969 0.285586 0.415293 -0.11473
C_ C_ 0.373563 0.279076 0.420682 -0.11473
C_ C_ 0.118375 0.285735 0.124273 0.17695
C_ C_ 0.370912 0.292384 0.123997 0.17695
C_ C_ 0.123826 0.214291 0.128106 0.17695
C_ C_ 0.368958 0.218374 0.118938 0.17695
C_ C_ 0.122868 0.209594 0.0842207 -0.11473
C_ C_ 0.370553 0.221386 0.0739039 -0.11473
C_ C_ 0.116685 0.244795 0.0596533 0.23465
C_ C_ 0.372797 0.260353 0.0541315 0.23465
C_ C_ 0.112595 0.283337 0.0795607 -0.11473
C_ C_ 0.369355 0.296309 0.0805018 -0.11473
C_ C_ 0.0295575 0.494873 0.246846 0.05793
C_ C_ 0.278714 0.501472 0.247392 0.05793
C_ C_ 0.216536 -0.0009730000000000016 0.240228 0.05793
C_ C_ 0.464948 1.00506562 0.246602 0.05793
Br Br 0.0712326 0.493321 0.266093 -0.17191
Br Br 0.322932 0.500558 0.24285 -0.17191
Br Br 0.173321 -0.0011200000000000099 0.234181 -0.17191
Br Br 0.425448 1.0089472 0.217775 -0.17191
N_ N_ 0.127484 0.244498 0.355115 -0.272
N_ N_ 0.371599 0.245747 0.353178 -0.272
N_ N_ 0.138134 0.256659 0.486153 -0.12501
N_ N_ 0.366492 0.236848 0.486338 -0.12501
N_ N_ 0.12373 0.251493 0.147366 -0.272
N_ N_ 0.370114 0.254179 0.141783 -0.272
N_ N_ 0.114143 0.240778 0.0143958 -0.12501
N_ N_ 0.381099 0.262831 0.0106811 -0.12501
O_ O_ 0.0885382 0.288302 0.215979 -0.60745
O_ O_ 0.344954 0.295027 0.2185 -0.60745
O_ O_ 0.0905702 0.286547 0.282827 -0.60745
O_ O_ 0.338801 0.291432 0.286747 -0.60745
O_ O_ 0.153881 0.287575 0.284598 -0.60745
O_ O_ 0.400844 0.298899 0.28548 -0.60745
O_ O_ 0.14748 0.298506 0.217794 -0.60745
O_ O_ 0.404285 0.290319 0.218317 -0.60745
O_ O_ 0.154585 0.199448 0.284605 -0.60745
O_ O_ 0.408704 0.21293 0.28062 -0.60745
O_ O_ 0.158196 0.209156 0.218081 -0.60745
O_ O_ 0.400506 0.200389 0.212507 -0.60745
O_ O_ 0.0988937 0.196717 0.214372 -0.60745
O_ O_ 0.340224 0.207911 0.209759 -0.60745
O_ O_ 0.0944519 0.199158 0.282159 -0.60745
O_ O_ 0.344888 0.204879 0.277324 -0.60745
Zn Zn 0.127842 0.254099 0.78945 0.9476
Zn Zn 0.374802 0.25109 0.783049 0.9476
Zn Zn 0.126615 0.251564 0.716311 0.9476
Zn Zn 0.374968 0.250684 0.710133 0.9476
H_ H_ 0.0320226 0.413757 0.669613 0.10932
H_ H_ 0.301938 0.433147 0.683672 0.10932
H_ H_ 0.062261 0.353315 0.805257 0.10932
H_ H_ 0.295259 0.340281 0.804663 0.10932
H_ H_ 0.0710013 0.356399 0.671407 0.10932
H_ H_ 0.318378 0.361799 0.678945 0.10932
H_ H_ 0.0379628 0.423124 0.802824 0.10932
H_ H_ 0.271871 0.407248 0.806516 0.10932
H_ H_ 0.20476 0.440898 0.811188 0.10932
H_ H_ 0.462084 0.416187 0.821914 0.10932
H_ H_ 0.193637 0.346652 0.685355 0.10932
H_ H_ 0.442845 0.352589 0.679005 0.10932
H_ H_ 0.173424 0.376663 0.816978 0.10932
H_ H_ 0.429785 0.354853 0.816019 0.10932
H_ H_ 0.219401 0.410158 0.680581 0.10932
H_ H_ 0.471257 0.420325 0.688701 0.10932
H_ H_ 0.20067 0.0667083 0.81741 0.10932
H_ H_ 0.481574 0.0911761 0.806281 0.10932
H_ H_ 0.200884 0.16172 0.695472 0.10932
H_ H_ 0.426811 0.140222 0.678206 0.10932
H_ H_ 0.182996 0.139916 0.829174 0.10932
H_ H_ 0.453786 0.160468 0.80685 0.10932
H_ H_ 0.220741 0.0953006 0.689219 0.10932
H_ H_ 0.454502 0.0768898 0.675339 0.10932
H_ H_ 0.0239843 0.0946593 0.684539 0.10932
H_ H_ 0.294405 0.0719555 0.685893 0.10932
H_ H_ 0.078459 0.139329 0.816244 0.10932
H_ H_ 0.303119 0.15682 0.813659 0.10932
H_ H_ 0.0524422 0.16042 0.685676 0.10932
H_ H_ 0.324779 0.135824 0.68412 0.10932
H_ H_ 0.0522266 0.0726747 0.810129 0.10932
H_ H_ 0.277153 0.0897054 0.817923 0.10932
H_ H_ 0.123128 0.325298 0.857239 0.10932
H_ H_ 0.383206 0.311888 0.855565 0.10932
H_ H_ 0.113864 0.196689 0.86278 0.10932
H_ H_ 0.362305 0.185004 0.854414 0.10932
H_ H_ 0.109473 0.199703 0.939542 0.10932
H_ H_ 0.358642 0.18521 0.931498 0.10932
H_ H_ 0.118438 0.330801 0.933956 0.10932
H_ H_ 0.379573 0.315699 0.932281 0.10932
H_ H_ 0.154402 0.181185 0.647195 0.10932
H_ H_ 0.370589 0.183749 0.632334 0.10932
H_ H_ 0.106234 0.292899 0.63297 0.10932
H_ H_ 0.376401 0.313014 0.642977 0.10932
H_ H_ 0.11384 0.292355 0.556578 0.10932
H_ H_ 0.380463 0.320139 0.568042 0.10932
H_ H_ 0.162756 0.175461 0.572182 0.10932
H_ H_ 0.367287 0.190351 0.554465 0.10932
C_ C_ 0.0672883 0.349011 0.740291 -0.02249
C_ C_ 0.313625 0.346465 0.746198 -0.02249
C_ C_ 0.0149338 0.461193 0.733527 -0.02249
C_ C_ 0.266066 0.465183 0.744845 -0.02249
C_ C_ 0.0394763 0.400082 0.699451 -0.11473
C_ C_ 0.296602 0.409394 0.708161 -0.11473
C_ C_ 0.0562929 0.366442 0.775691 -0.11473
C_ C_ 0.296285 0.359616 0.779959 -0.11473
C_ C_ 0.0596834 0.367683 0.700331 -0.11473
C_ C_ 0.310702 0.371882 0.70979 -0.11473
C_ C_ 0.0327105 0.421871 0.73613 -0.02249
C_ C_ 0.282149 0.423865 0.742776 -0.02249
C_ C_ 0.0896067 0.313192 0.743494 0.6875
C_ C_ 0.336215 0.310263 0.746671 0.6875
C_ C_ 0.0427899 0.405294 0.774151 -0.11473
C_ C_ 0.283551 0.397844 0.779569 -0.11473
C_ C_ 0.183874 0.353753 0.753972 -0.02249
C_ C_ 0.433231 0.349399 0.747032 -0.02249
C_ C_ 0.234117 0.465828 0.744355 -0.02249
C_ C_ 0.486217 0.462705 0.763575 -0.02249
C_ C_ 0.204186 0.416561 0.785564 -0.11473
C_ C_ 0.457 0.404574 0.791144 -0.11473
C_ C_ 0.195923 0.365519 0.715365 -0.11473
C_ C_ 0.44712 0.367221 0.71102 -0.11473
C_ C_ 0.186494 0.379768 0.788961 -0.11473
C_ C_ 0.440833 0.366429 0.787408 -0.11473
C_ C_ 0.216814 0.426814 0.747381 -0.02249
C_ C_ 0.470312 0.422399 0.755696 -0.02249
C_ C_ 0.16488 0.315562 0.757512 0.6875
C_ C_ 0.413952 0.311613 0.744647 0.6875
C_ C_ 0.209891 0.403339 0.711287 -0.11473
C_ C_ 0.465303 0.403445 0.715411 -0.11473
C_ C_ 0.186733 0.154111 0.760275 -0.02249
C_ C_ 0.43472 0.152228 0.742543 -0.02249
C_ C_ 0.236101 0.0370477 0.755342 -0.02249
C_ C_ 0.488 0.0382159 0.737769 -0.02249
C_ C_ 0.205833 0.0922162 0.795843 -0.11473
C_ C_ 0.469938 0.102648 0.777271 -0.11473
C_ C_ 0.200564 0.142186 0.723223 -0.11473
C_ C_ 0.439773 0.131652 0.704838 -0.11473
C_ C_ 0.191462 0.130583 0.797529 -0.11473
C_ C_ 0.450891 0.13942 0.779412 -0.11473
C_ C_ 0.219899 0.0779755 0.757684 -0.02249
C_ C_ 0.470036 0.0787201 0.740417 -0.02249
C_ C_ 0.164588 0.189014 0.760117 0.6875
C_ C_ 0.413655 0.190225 0.745329 0.6875
C_ C_ 0.215957 0.104783 0.721101 -0.11473
C_ C_ 0.453227 0.0929438 0.705083 -0.11473
C_ C_ 0.0677696 0.15528 0.750665 -0.02249
C_ C_ 0.318038 0.151191 0.748988 -0.02249
C_ C_ 0.0200968 0.0398808 0.746818 -0.02249
C_ C_ 0.26805 0.0374122 0.753073 -0.02249
C_ C_ 0.0378951 0.103521 0.712285 -0.11473
C_ C_ 0.297701 0.0888647 0.71423 -0.11473
C_ C_ 0.068708 0.12964 0.785572 -0.11473
C_ C_ 0.304455 0.136349 0.786778 -0.11473
C_ C_ 0.0531675 0.141736 0.712478 -0.11473
C_ C_ 0.313201 0.127952 0.712194 -0.11473
C_ C_ 0.0361436 0.0804991 0.747837 -0.02249
C_ C_ 0.285056 0.0755038 0.752426 -0.02249
C_ C_ 0.0881963 0.192864 0.750451 0.6875
C_ C_ 0.337908 0.189875 0.748779 0.6875
C_ C_ 0.0526725 0.0912303 0.784484 -0.11473
C_ C_ 0.289268 0.0972199 0.789205 -0.11473
C_ C_ 0.122254 0.296546 0.876258 0.17695
C_ C_ 0.377553 0.284891 0.87259 0.17695
C_ C_ 0.113389 0.225363 0.879403 0.17695
C_ C_ 0.367571 0.213924 0.871447 0.17695
C_ C_ 0.112496 0.227679 0.922921 -0.11473
C_ C_ 0.36441 0.212684 0.916214 -0.11473
C_ C_ 0.118296 0.265296 0.944633 0.23465
C_ C_ 0.369947 0.249759 0.939302 0.23465
C_ C_ 0.120625 0.299974 0.918839 -0.11473
C_ C_ 0.376138 0.285616 0.916917 -0.11473
C_ C_ 0.148855 0.207991 0.628734 0.17695
C_ C_ 0.372349 0.214059 0.617428 0.17695
C_ C_ 0.118367 0.268711 0.618274 0.17695
C_ C_ 0.373983 0.285998 0.624748 0.17695
C_ C_ 0.1237 0.267927 0.575406 -0.11473
C_ C_ 0.376533 0.289413 0.581221 -0.11473
C_ C_ 0.138323 0.232989 0.557749 0.23465
C_ C_ 0.374136 0.256065 0.555906 0.23465
C_ C_ 0.150604 0.202443 0.584884 -0.11473
C_ C_ 0.374352 0.216966 0.574283 -0.11473
C_ C_ 0.0306738 0.499755 0.731149 0.05793
C_ C_ 0.283098 0.502524 0.747158 0.05793
C_ C_ 0.220902 -0.0009550000000000392 0.748676 0.05793
C_ C_ 0.472574 0.999624 0.737646 0.05793
Br Br 0.0738885 0.496298 0.73883 -0.17191
Br Br 0.326901 0.500685 0.738373 -0.17191
Br Br 0.178234 0.000217406 0.745901 -0.17191
Br Br 0.428805 1.00191421 0.741949 -0.17191
N_ N_ 0.120151 0.25892 0.857212 -0.272
N_ N_ 0.374388 0.248688 0.851073 -0.272
N_ N_ 0.1171 0.269958 0.989959 -0.12501
N_ N_ 0.362333 0.252495 0.982129 -0.12501
N_ N_ 0.133284 0.241007 0.643989 -0.272
N_ N_ 0.372155 0.248018 0.642142 -0.272
N_ N_ 0.14102 0.227592 0.51304 -0.12501
N_ N_ 0.377622 0.262373 0.51247 -0.12501
O_ O_ 0.0942697 0.293228 0.708309 -0.60745
O_ O_ 0.341327 0.290668 0.711723 -0.60745
O_ O_ 0.100508 0.300848 0.778479 -0.60745
O_ O_ 0.342315 0.294651 0.782201 -0.60745
O_ O_ 0.163326 0.293883 0.79213 -0.60745
O_ O_ 0.407215 0.296233 0.778866 -0.60745
O_ O_ 0.155724 0.29856 0.723685 -0.60745
O_ O_ 0.400159 0.302397 0.709242 -0.60745
O_ O_ 0.153312 0.20289 0.794055 -0.60745
O_ O_ 0.402977 0.199864 0.779285 -0.60745
O_ O_ 0.157749 0.206376 0.725512 -0.60745
O_ O_ 0.409656 0.213306 0.713243 -0.60745
O_ O_ 0.100436 0.201456 0.71572 -0.60745
O_ O_ 0.346777 0.205271 0.713936 -0.60745
O_ O_ 0.092447 0.216105 0.782464 -0.60745
O_ O_ 0.343102 0.209449 0.782779 -0.60745
Zn Zn 0.12199 0.752041 0.279648 0.9476
Zn Zn 0.374979 0.751646 0.28745 0.9476
Zn Zn 0.122688 0.749198 0.212069 0.9476
Zn Zn 0.374365 0.744861 0.21615 0.9476
H_ H_ 0.0302451 0.917684 0.179034 0.10932
H_ H_ 0.292736 0.916306 0.176946 0.10932
H_ H_ 0.0464488 0.844434 0.311895 0.10932
H_ H_ 0.298394 0.844388 0.311241 0.10932
H_ H_ 0.0680108 0.862906 0.182079 0.10932
H_ H_ 0.324988 0.856607 0.183872 0.10932
H_ H_ 0.018373 0.911631 0.310594 0.10932
H_ H_ 0.266914 0.908324 0.305738 0.10932
H_ H_ 0.206852 0.926679 0.303411 0.10932
H_ H_ 0.445482 0.933395 0.312714 0.10932
H_ H_ 0.190639 0.843675 0.171613 0.10932
H_ H_ 0.441729 0.849144 0.185149 0.10932
H_ H_ 0.177529 0.861165 0.307277 0.10932
H_ H_ 0.426549 0.863292 0.317935 0.10932
H_ H_ 0.216976 0.911403 0.171459 0.10932
H_ H_ 0.466835 0.916027 0.184462 0.10932
H_ H_ 0.224096 0.594515 0.311522 0.10932
H_ H_ 0.465358 0.580506 0.316188 0.10932
H_ H_ 0.166409 0.626388 0.185673 0.10932
H_ H_ 0.437609 0.647703 0.182838 0.10932
H_ H_ 0.195617 0.661426 0.313828 0.10932
H_ H_ 0.43758 0.646456 0.320011 0.10932
H_ H_ 0.199293 0.568568 0.188024 0.10932
H_ H_ 0.46552 0.583465 0.182526 0.10932
H_ H_ 0.0390762 0.574277 0.175238 0.10932
H_ H_ 0.286 0.575887 0.186266 0.10932
H_ H_ 0.060091 0.64439 0.312572 0.10932
H_ H_ 0.313889 0.646983 0.31924 0.10932
H_ H_ 0.0628683 0.642283 0.175532 0.10932
H_ H_ 0.317671 0.638158 0.186601 0.10932
H_ H_ 0.0347523 0.577439 0.311466 0.10932
H_ H_ 0.28121 0.588352 0.318741 0.10932
H_ H_ 0.112054 0.818843 0.350676 0.10932
H_ H_ 0.376833 0.685041 0.363935 0.10932
H_ H_ 0.130213 0.686458 0.357994 0.10932
H_ H_ 0.382662 0.816719 0.357048 0.10932
H_ H_ 0.135974 0.687779 0.433289 0.10932
H_ H_ 0.391104 0.820606 0.434381 0.10932
H_ H_ 0.113224 0.819481 0.433977 0.10932
H_ H_ 0.36647 0.692372 0.437228 0.10932
H_ H_ 0.162787 0.758502 0.145087 0.10932
H_ H_ 0.373347 0.683962 0.141932 0.10932
H_ H_ 0.0723709 0.727356 0.130411 0.10932
H_ H_ 0.384295 0.812872 0.141024 0.10932
H_ H_ 0.0731258 0.73378 0.0521046 0.10932
H_ H_ 0.384233 0.810556 0.0642488 0.10932
H_ H_ 0.167123 0.772307 0.067429 0.10932
H_ H_ 0.358296 0.683587 0.0645983 0.10932
C_ C_ 0.0594757 0.846398 0.246837 -0.02249
C_ C_ 0.314454 0.845345 0.249518 -0.02249
C_ C_ 0.00676977 0.961737 0.245626 -0.02249
C_ C_ 0.264369 0.959216 0.236411 -0.02249
C_ C_ 0.0342484 0.90359 0.207574 -0.11473
C_ C_ 0.291892 0.89801 0.205655 -0.11473
C_ C_ 0.0437379 0.861853 0.2831 -0.11473
C_ C_ 0.299588 0.862732 0.28378 -0.11473
C_ C_ 0.0542592 0.869547 0.210448 -0.11473
C_ C_ 0.313787 0.86824 0.212355 -0.11473
C_ C_ 0.022606 0.919771 0.245263 -0.02249
C_ C_ 0.280906 0.917834 0.241604 -0.02249
C_ C_ 0.0818431 0.809505 0.247869 0.6875
C_ C_ 0.333331 0.807445 0.25243 0.6875
C_ C_ 0.0291723 0.899844 0.28307 -0.11473
C_ C_ 0.283581 0.899085 0.280281 -0.11473
C_ C_ 0.18121 0.846354 0.24093 -0.02249
C_ C_ 0.431726 0.848141 0.251818 -0.02249
C_ C_ 0.232608 0.960946 0.23512 -0.02249
C_ C_ 0.477721 0.966258 0.253145 -0.02249
C_ C_ 0.204416 0.908109 0.274843 -0.11473
C_ C_ 0.446127 0.913158 0.285994 -0.11473
C_ C_ 0.192956 0.860346 0.202333 -0.11473
C_ C_ 0.443393 0.864764 0.213299 -0.11473
C_ C_ 0.187482 0.870589 0.276797 -0.11473
C_ C_ 0.435404 0.873157 0.286986 -0.11473
C_ C_ 0.216008 0.920689 0.236449 -0.02249
C_ C_ 0.459553 0.928366 0.248832 -0.02249
C_ C_ 0.160785 0.809973 0.243462 0.6875
C_ C_ 0.416564 0.806097 0.253184 0.6875
C_ C_ 0.210595 0.896652 0.200877 -0.11473
C_ C_ 0.456798 0.904701 0.21245 -0.11473
C_ C_ 0.179499 0.650972 0.24666 -0.02249
C_ C_ 0.434788 0.650551 0.250369 -0.02249
C_ C_ 0.231644 0.537157 0.255578 -0.02249
C_ C_ 0.485381 0.5373 0.24985 -0.02249
C_ C_ 0.213997 0.604898 0.285024 -0.11473
C_ C_ 0.458251 0.594745 0.288071 -0.11473
C_ C_ 0.181823 0.623634 0.212925 -0.11473
C_ C_ 0.445998 0.635617 0.212885 -0.11473
C_ C_ 0.195384 0.640876 0.28509 -0.11473
C_ C_ 0.443445 0.633288 0.289035 -0.11473
C_ C_ 0.213024 0.574973 0.25322 -0.02249
C_ C_ 0.46822 0.577492 0.250136 -0.02249
C_ C_ 0.160395 0.688548 0.242974 0.6875
C_ C_ 0.414192 0.688439 0.2494 0.6875
C_ C_ 0.197691 0.585764 0.216319 -0.11473
C_ C_ 0.460913 0.597542 0.212608 -0.11473
C_ C_ 0.0665154 0.648123 0.243994 -0.02249
C_ C_ 0.315415 0.651437 0.251077 -0.02249
C_ C_ 0.0140226 0.532144 0.24643 -0.02249
C_ C_ 0.263144 0.539138 0.251728 -0.02249
C_ C_ 0.0442106 0.58913 0.205593 -0.11473
C_ C_ 0.288402 0.594974 0.215349 -0.11473
C_ C_ 0.0549363 0.630925 0.282259 -0.11473
C_ C_ 0.304929 0.636482 0.288861 -0.11473
C_ C_ 0.0579414 0.628962 0.204931 -0.11473
C_ C_ 0.307981 0.628317 0.213684 -0.11473
C_ C_ 0.032805 0.572013 0.243241 -0.02249
C_ C_ 0.278864 0.579592 0.252429 -0.02249
C_ C_ 0.0865177 0.686334 0.245116 0.6875
C_ C_ 0.335484 0.688237 0.250691 0.6875
C_ C_ 0.0393296 0.592683 0.281897 -0.11473
C_ C_ 0.288585 0.599667 0.289068 -0.11473
C_ C_ 0.115563 0.78945 0.370386 0.17695
C_ C_ 0.378633 0.716572 0.378472 0.17695
C_ C_ 0.128773 0.717814 0.373386 0.17695
C_ C_ 0.380091 0.789596 0.376883 0.17695
C_ C_ 0.129043 0.717126 0.417081 -0.11473
C_ C_ 0.384353 0.792855 0.420239 -0.11473
C_ C_ 0.121871 0.752092 0.438252 0.23465
C_ C_ 0.381869 0.756829 0.444366 0.23465
C_ C_ 0.117361 0.790974 0.416068 -0.11473
C_ C_ 0.377078 0.718216 0.421791 -0.11473
C_ C_ 0.145306 0.754944 0.122869 0.17695
C_ C_ 0.368201 0.712066 0.124617 0.17695
C_ C_ 0.092874 0.737842 0.115825 0.17695
C_ C_ 0.380156 0.783143 0.122861 0.17695
C_ C_ 0.0944598 0.740075 0.0716459 -0.11473
C_ C_ 0.378265 0.782595 0.0798014 -0.11473
C_ C_ 0.121599 0.752685 0.0533166 0.23465
C_ C_ 0.373189 0.74645 0.0578634 0.23465
C_ C_ 0.148045 0.757151 0.0793003 -0.11473
C_ C_ 0.366931 0.710423 0.0805984 -0.11473
C_ C_ 0.0243187 0.998225 0.247021 0.05793
C_ C_ 0.281029 0.996526 0.237846 0.05793
C_ C_ 0.215852 0.499083 0.259238 0.05793
C_ C_ 0.468733 0.500063 0.24834 0.05793
Br Br 0.0672536 -0.0037000000000000366 0.256188 -0.17191
Br Br 0.325689 0.995529 0.244176 -0.17191
Br Br 0.171338 0.495561 0.25851 -0.17191
Br Br 0.426591 0.499751 0.231023 -0.17191
N_ N_ 0.124246 0.75378 0.351642 -0.272
N_ N_ 0.379723 0.752487 0.356708 -0.272
N_ N_ 0.116046 0.750597 0.483485 -0.12501
N_ N_ 0.380818 0.758965 0.488165 -0.12501
N_ N_ 0.118963 0.744399 0.140302 -0.272
N_ N_ 0.374503 0.74767 0.145223 -0.272
N_ N_ 0.123594 0.758884 0.00994781 -0.12501
N_ N_ 0.372979 0.740358 0.0130899 -0.12501
O_ O_ 0.0925775 0.79462 0.214937 -0.60745
O_ O_ 0.343485 0.792857 0.219129 -0.60745
O_ O_ 0.0883368 0.791399 0.282999 -0.60745
O_ O_ 0.342112 0.792825 0.288609 -0.60745
O_ O_ 0.148971 0.800627 0.278804 -0.60745
O_ O_ 0.40642 0.79234 0.287459 -0.60745
O_ O_ 0.154475 0.78956 0.211309 -0.60745
O_ O_ 0.406497 0.790614 0.2182 -0.60745
O_ O_ 0.154854 0.710073 0.274439 -0.60745
O_ O_ 0.405434 0.705787 0.283612 -0.60745
O_ O_ 0.149842 0.699719 0.207495 -0.60745
O_ O_ 0.405299 0.701584 0.212786 -0.60745
O_ O_ 0.0892835 0.708998 0.211693 -0.60745
O_ O_ 0.34488 0.702406 0.216425 -0.60745
O_ O_ 0.0968099 0.699369 0.2802 -0.60745
O_ O_ 0.343421 0.70546 0.286416 -0.60745
Zn Zn 0.123835 0.752236 0.781755 0.9476
Zn Zn 0.377144 0.752075 0.7839 0.9476
Zn Zn 0.126768 0.750097 0.714754 0.9476
Zn Zn 0.375025 0.750066 0.712656 0.9476
H_ H_ 0.0288353 0.910922 0.683522 0.10932
H_ H_ 0.292352 0.928156 0.681576 0.10932
H_ H_ 0.0802834 0.86288 0.813284 0.10932
H_ H_ 0.3092 0.846261 0.810633 0.10932
H_ H_ 0.0497536 0.839706 0.685576 0.10932
H_ H_ 0.325481 0.867758 0.674531 0.10932
H_ H_ 0.0595936 0.930375 0.810321 0.10932
H_ H_ 0.280574 0.909814 0.813296 0.10932
H_ H_ 0.218719 0.918321 0.813269 0.10932
H_ H_ 0.483806 0.901507 0.802166 0.10932
H_ H_ 0.186357 0.850061 0.682219 0.10932
H_ H_ 0.420559 0.864985 0.678034 0.10932
H_ H_ 0.189864 0.854974 0.817021 0.10932
H_ H_ 0.451292 0.839921 0.804452 0.10932
H_ H_ 0.216503 0.914114 0.68315 0.10932
H_ H_ 0.45065 0.930695 0.678409 0.10932
H_ H_ 0.229101 0.599014 0.819096 0.10932
H_ H_ 0.468963 0.588353 0.824571 0.10932
H_ H_ 0.180891 0.643509 0.684247 0.10932
H_ H_ 0.424056 0.637428 0.689318 0.10932
H_ H_ 0.194388 0.662423 0.814467 0.10932
H_ H_ 0.438774 0.645721 0.823267 0.10932
H_ H_ 0.213604 0.580485 0.685961 0.10932
H_ H_ 0.455444 0.573864 0.689213 0.10932
H_ H_ 0.0307789 0.58605 0.6745 0.10932
H_ H_ 0.273764 0.592476 0.687647 0.10932
H_ H_ 0.0630446 0.646012 0.809167 0.10932
H_ H_ 0.329151 0.637081 0.81501 0.10932
H_ H_ 0.0555692 0.652984 0.674408 0.10932
H_ H_ 0.296814 0.663995 0.68966 0.10932
H_ H_ 0.0440649 0.577399 0.803926 0.10932
H_ H_ 0.301498 0.574504 0.814909 0.10932
H_ H_ 0.131684 0.814596 0.864755 0.10932
H_ H_ 0.378266 0.819837 0.853015 0.10932
H_ H_ 0.120141 0.683482 0.847425 0.10932
H_ H_ 0.373938 0.689882 0.86275 0.10932
H_ H_ 0.10244 0.681391 0.921541 0.10932
H_ H_ 0.377486 0.694656 0.939339 0.10932
H_ H_ 0.127854 0.8066 0.940115 0.10932
H_ H_ 0.383844 0.824991 0.929969 0.10932
H_ H_ 0.177565 0.746547 0.64265 0.10932
H_ H_ 0.379256 0.81014 0.634779 0.10932
H_ H_ 0.0814564 0.744856 0.631035 0.10932
H_ H_ 0.365421 0.680824 0.648237 0.10932
H_ H_ 0.0848069 0.740418 0.55535 0.10932
H_ H_ 0.364459 0.671042 0.569338 0.10932
H_ H_ 0.181279 0.737136 0.568319 0.10932
H_ H_ 0.382519 0.803444 0.556603 0.10932
C_ C_ 0.0651377 0.844835 0.75139 -0.02249
C_ C_ 0.319016 0.850704 0.742143 -0.02249
C_ C_ 0.0207524 0.964791 0.750914 -0.02249
C_ C_ 0.268246 0.960644 0.750324 -0.02249
C_ C_ 0.0362619 0.898173 0.713772 -0.11473
C_ C_ 0.298082 0.911696 0.709937 -0.11473
C_ C_ 0.067474 0.871773 0.78591 -0.11473
C_ C_ 0.307663 0.865747 0.781269 -0.11473
C_ C_ 0.0495215 0.85776 0.716 -0.11473
C_ C_ 0.314668 0.87481 0.705863 -0.11473
C_ C_ 0.0379322 0.92427 0.748934 -0.02249
C_ C_ 0.284214 0.92201 0.746889 -0.02249
C_ C_ 0.0842773 0.807233 0.750668 0.6875
C_ C_ 0.337497 0.811838 0.741658 0.6875
C_ C_ 0.0540577 0.910517 0.784565 -0.11473
C_ C_ 0.291502 0.902093 0.78294 -0.11473
C_ C_ 0.187313 0.843298 0.750833 -0.02249
C_ C_ 0.436377 0.846411 0.739746 -0.02249
C_ C_ 0.236545 0.960282 0.74859 -0.02249
C_ C_ 0.487846 0.960752 0.740447 -0.02249
C_ C_ 0.211996 0.902441 0.785651 -0.11473
C_ C_ 0.472615 0.891916 0.774773 -0.11473
C_ C_ 0.195592 0.861354 0.71224 -0.11473
C_ C_ 0.435596 0.872498 0.704688 -0.11473
C_ C_ 0.19681 0.865391 0.787681 -0.11473
C_ C_ 0.456514 0.854495 0.774496 -0.11473
C_ C_ 0.219362 0.920712 0.747832 -0.02249
C_ C_ 0.470071 0.920274 0.742139 -0.02249
C_ C_ 0.166092 0.807477 0.751581 0.6875
C_ C_ 0.414922 0.812023 0.742294 0.6875
C_ C_ 0.210462 0.900013 0.711197 -0.11473
C_ C_ 0.450636 0.910252 0.706037 -0.11473
C_ C_ 0.187647 0.659437 0.748077 -0.02249
C_ C_ 0.430983 0.650694 0.75436 -0.02249
C_ C_ 0.23679 0.542214 0.755548 -0.02249
C_ C_ 0.48698 0.540717 0.759137 -0.02249
C_ C_ 0.219085 0.609792 0.788923 -0.11473
C_ C_ 0.461967 0.599648 0.792886 -0.11473
C_ C_ 0.190273 0.63363 0.712781 -0.11473
C_ C_ 0.433746 0.627061 0.717863 -0.11473
C_ C_ 0.202191 0.648136 0.785359 -0.11473
C_ C_ 0.444039 0.634277 0.792037 -0.11473
C_ C_ 0.2212 0.584014 0.754369 -0.02249
C_ C_ 0.469773 0.580618 0.756286 -0.02249
C_ C_ 0.16875 0.696017 0.746402 0.6875
C_ C_ 0.41339 0.690086 0.752656 0.6875
C_ C_ 0.208801 0.597449 0.715267 -0.11473
C_ C_ 0.454651 0.593742 0.717493 -0.11473
C_ C_ 0.0623355 0.655242 0.743517 -0.02249
C_ C_ 0.316716 0.654285 0.753118 -0.02249
C_ C_ 0.0149351 0.538018 0.735263 -0.02249
C_ C_ 0.268324 0.53996 0.752739 -0.02249
C_ C_ 0.0366702 0.59982 0.70483 -0.11473
C_ C_ 0.285965 0.602758 0.715757 -0.11473
C_ C_ 0.0577939 0.632447 0.778979 -0.11473
C_ C_ 0.315287 0.62984 0.788405 -0.11473
C_ C_ 0.0516026 0.637916 0.704616 -0.11473
C_ C_ 0.299825 0.641485 0.716482 -0.11473
C_ C_ 0.0315183 0.578292 0.739989 -0.02249
C_ C_ 0.286489 0.578312 0.751025 -0.02249
C_ C_ 0.084561 0.690053 0.743207 0.6875
C_ C_ 0.338481 0.691252 0.752209 0.6875
C_ C_ 0.0415833 0.596476 0.778536 -0.11473
C_ C_ 0.301086 0.591753 0.78616 -0.11473
C_ C_ 0.123911 0.784469 0.877199 0.17695
C_ C_ 0.37751 0.793273 0.872978 0.17695
C_ C_ 0.117765 0.713406 0.867985 0.17695
C_ C_ 0.373342 0.719344 0.87726 0.17695
C_ C_ 0.112486 0.709112 0.911104 -0.11473
C_ C_ 0.370918 0.721986 0.92106 -0.11473
C_ C_ 0.115847 0.741609 0.938914 0.23465
C_ C_ 0.374877 0.760042 0.941402 0.23465
C_ C_ 0.121354 0.780966 0.92094 -0.11473
C_ C_ 0.379711 0.794611 0.915807 -0.11473
C_ C_ 0.156364 0.743294 0.62545 0.17695
C_ C_ 0.37975 0.779984 0.618858 0.17695
C_ C_ 0.103094 0.744978 0.618349 0.17695
C_ C_ 0.370859 0.707302 0.62848 0.17695
C_ C_ 0.105725 0.743272 0.573196 -0.11473
C_ C_ 0.369667 0.700832 0.584653 -0.11473
C_ C_ 0.133195 0.74568 0.553783 0.23465
C_ C_ 0.375105 0.73574 0.557033 0.23465
C_ C_ 0.159232 0.745014 0.581096 -0.11473
C_ C_ 0.376905 0.775663 0.574834 -0.11473
C_ C_ 0.0364211 0.00234975 0.752026 0.05793
C_ C_ 0.284054 0.00038999999999989043 0.748724 0.05793
C_ C_ 0.220181 0.505112 0.752323 0.05793
C_ C_ 0.471314 0.501407 0.758961 0.05793
Br Br 0.0789596 0.000693164 0.745935 -0.17191
Br Br 0.327781 -6.60000000000105e-05 0.747674 -0.17191
Br Br 0.177776 0.509638 0.754942 -0.17191
Br Br 0.428975 0.501708 0.768553 -0.17191
N_ N_ 0.123265 0.750743 0.851519 -0.272
N_ N_ 0.372514 0.755586 0.854294 -0.272
N_ N_ 0.109172 0.737666 0.983521 -0.12501
N_ N_ 0.376853 0.767924 0.98625 -0.12501
N_ N_ 0.128648 0.747884 0.642796 -0.272
N_ N_ 0.374313 0.746295 0.643692 -0.272
N_ N_ 0.137062 0.746581 0.510041 -0.12501
N_ N_ 0.375578 0.729618 0.511958 -0.12501
O_ O_ 0.0929254 0.792289 0.717158 -0.60745
O_ O_ 0.346294 0.795407 0.707532 -0.60745
O_ O_ 0.0897371 0.790099 0.785187 -0.60745
O_ O_ 0.346585 0.796558 0.77753 -0.60745
O_ O_ 0.154558 0.795911 0.785593 -0.60745
O_ O_ 0.408301 0.795967 0.778384 -0.60745
O_ O_ 0.157763 0.790852 0.716578 -0.60745
O_ O_ 0.404996 0.794805 0.708557 -0.60745
O_ O_ 0.159014 0.711625 0.780847 -0.60745
O_ O_ 0.406365 0.708694 0.786435 -0.60745
O_ O_ 0.158228 0.70827 0.711593 -0.60745
O_ O_ 0.406683 0.706391 0.718038 -0.60745
O_ O_ 0.0912413 0.70757 0.709437 -0.60745
O_ O_ 0.34657 0.704049 0.716208 -0.60745
O_ O_ 0.0941062 0.704111 0.777245 -0.60745
O_ O_ 0.347153 0.709513 0.786902 -0.60745
Zn Zn 0.627407 0.250495 0.292928 0.9476
Zn Zn 0.868304 0.247469 0.280806 0.9476
Zn Zn 0.625257 0.248097 0.2229 0.9476
Zn Zn 0.868223 0.247961 0.211688 0.9476
H_ H_ 0.525051 0.402579 0.187525 0.10932
H_ H_ 0.774706 0.413802 0.183234 0.10932
H_ H_ 0.572032 0.358066 0.323511 0.10932
H_ H_ 0.816985 0.357951 0.315692 0.10932
H_ H_ 0.555885 0.337441 0.191387 0.10932
H_ H_ 0.797718 0.344232 0.183993 0.10932
H_ H_ 0.541939 0.424705 0.317455 0.10932
H_ H_ 0.791364 0.419021 0.318848 0.10932
H_ H_ 0.717415 0.419579 0.324362 0.10932
H_ H_ 0.974372 0.40029 0.310967 0.10932
H_ H_ 0.684619 0.356898 0.190344 0.10932
H_ H_ 0.920604 0.359241 0.182207 0.10932
H_ H_ 0.692756 0.350816 0.3255 0.10932
H_ H_ 0.940228 0.339706 0.31095 0.10932
H_ H_ 0.714773 0.421264 0.194751 0.10932
H_ H_ 0.951325 0.424308 0.182656 0.10932
H_ H_ 0.723142 0.0834973 0.312823 0.10932
H_ H_ 0.977704 0.0979242 0.304409 0.10932
H_ H_ 0.676174 0.142022 0.188958 0.10932
H_ H_ 0.914202 0.131315 0.179062 0.10932
H_ H_ 0.691452 0.145328 0.315301 0.10932
H_ H_ 0.945531 0.164311 0.304724 0.10932
H_ H_ 0.70592 0.0800907 0.177622 0.10932
H_ H_ 0.945454 0.0716756 0.18212 0.10932
H_ H_ 0.550476 0.0624388 0.204872 0.10932
H_ H_ 0.764851 0.0891159 0.183776 0.10932
H_ H_ 0.554137 0.162025 0.323325 0.10932
H_ H_ 0.817802 0.137396 0.311709 0.10932
H_ H_ 0.587356 0.12108 0.20426 0.10932
H_ H_ 0.797358 0.152533 0.180052 0.10932
H_ H_ 0.518535 0.101101 0.322077 0.10932
H_ H_ 0.785585 0.0762084 0.310736 0.10932
H_ H_ 0.63473 0.188225 0.357586 0.10932
H_ H_ 0.875638 0.183297 0.358694 0.10932
H_ H_ 0.625236 0.315387 0.370607 0.10932
H_ H_ 0.868309 0.314039 0.35547 0.10932
H_ H_ 0.62011 0.303099 0.450551 0.10932
H_ H_ 0.870293 0.316678 0.433971 0.10932
H_ H_ 0.635389 0.173964 0.43231 0.10932
H_ H_ 0.877925 0.183299 0.435084 0.10932
H_ H_ 0.631357 0.185915 0.14441 0.10932
H_ H_ 0.823005 0.24275 0.138735 0.10932
H_ H_ 0.614073 0.311337 0.157904 0.10932
H_ H_ 0.916044 0.235125 0.138313 0.10932
H_ H_ 0.609997 0.32238 0.0821486 0.10932
H_ H_ 0.917123 0.230061 0.060704 0.10932
H_ H_ 0.626304 0.191804 0.0665773 0.10932
H_ H_ 0.818865 0.245604 0.0606567 0.10932
C_ C_ 0.565399 0.343501 0.256416 -0.02249
C_ C_ 0.812546 0.346333 0.247993 -0.02249
C_ C_ 0.515189 0.459695 0.250381 -0.02249
C_ C_ 0.767167 0.464788 0.253836 -0.02249
C_ C_ 0.536566 0.394656 0.216996 -0.11473
C_ C_ 0.786564 0.404027 0.212488 -0.11473
C_ C_ 0.560945 0.367962 0.293349 -0.11473
C_ C_ 0.808997 0.369313 0.287379 -0.11473
C_ C_ 0.553432 0.356927 0.21845 -0.11473
C_ C_ 0.799574 0.362893 0.21215 -0.11473
C_ C_ 0.531755 0.419345 0.251946 -0.02249
C_ C_ 0.784449 0.426382 0.250508 -0.02249
C_ C_ 0.585729 0.306964 0.258478 0.6875
C_ C_ 0.832592 0.311504 0.244521 0.6875
C_ C_ 0.54512 0.405806 0.289788 -0.11473
C_ C_ 0.794313 0.40681 0.288235 -0.11473
C_ C_ 0.684377 0.348051 0.258705 -0.02249
C_ C_ 0.927051 0.345299 0.245643 -0.02249
C_ C_ 0.734769 0.4638 0.258266 -0.02249
C_ C_ 0.981715 0.4573 0.250819 -0.02249
C_ C_ 0.712638 0.401512 0.295237 -0.11473
C_ C_ 0.961026 0.391803 0.28365 -0.11473
C_ C_ 0.691542 0.368201 0.219339 -0.11473
C_ C_ 0.933127 0.366441 0.208398 -0.11473
C_ C_ 0.694571 0.366799 0.295743 -0.11473
C_ C_ 0.940404 0.358758 0.283173 -0.11473
C_ C_ 0.718387 0.422111 0.257682 -0.02249
C_ C_ 0.963204 0.41823 0.249082 -0.02249
C_ C_ 0.66414 0.31098 0.257991 0.6875
C_ C_ 0.908636 0.307537 0.245218 0.6875
C_ C_ 0.710369 0.403062 0.220629 -0.11473
C_ C_ 0.949573 0.403857 0.209785 -0.11473
C_ C_ 0.679251 0.145671 0.253326 -0.02249
C_ C_ 0.926413 0.153004 0.242925 -0.02249
C_ C_ 0.731435 0.0328995 0.243366 -0.02249
C_ C_ 0.977922 0.0396016 0.244508 -0.02249
C_ C_ 0.712098 0.0949554 0.285562 -0.11473
C_ C_ 0.960359 0.103293 0.279943 -0.11473
C_ C_ 0.680681 0.123736 0.215549 -0.11473
C_ C_ 0.930041 0.12925 0.205503 -0.11473
C_ C_ 0.697239 0.132409 0.287004 -0.11473
C_ C_ 0.944275 0.14211 0.278185 -0.11473
C_ C_ 0.713553 0.0723529 0.247108 -0.02249
C_ C_ 0.962208 0.0802533 0.244024 -0.02249
C_ C_ 0.661793 0.187032 0.255562 0.6875
C_ C_ 0.904867 0.187615 0.244393 0.6875
C_ C_ 0.700478 0.0901643 0.210164 -0.11473
C_ C_ 0.948598 0.0939771 0.20595 -0.11473
C_ C_ 0.573137 0.14726 0.262683 -0.02249
C_ C_ 0.80891 0.151994 0.245375 -0.02249
C_ C_ 0.513343 0.0412621 0.26403 -0.02249
C_ C_ 0.762951 0.0340064 0.245352 -0.02249
C_ C_ 0.551531 0.0847636 0.229541 -0.11473
C_ C_ 0.778303 0.100212 0.210832 -0.11473
C_ C_ 0.552635 0.14169 0.296308 -0.11473
C_ C_ 0.804712 0.129333 0.284135 -0.11473
C_ C_ 0.572121 0.11815 0.229697 -0.11473
C_ C_ 0.795541 0.136583 0.208029 -0.11473
C_ C_ 0.532432 0.0789675 0.262089 -0.02249
C_ C_ 0.779575 0.0743956 0.24588 -0.02249
C_ C_ 0.590551 0.184747 0.260657 0.6875
C_ C_ 0.826419 0.191876 0.245578 0.6875
C_ C_ 0.532655 0.106866 0.297054 -0.11473
C_ C_ 0.790108 0.0911886 0.283188 -0.11473
C_ C_ 0.63275 0.21195 0.379949 0.17695
C_ C_ 0.869842 0.211503 0.37494 0.17695
C_ C_ 0.627562 0.284112 0.386155 0.17695
C_ C_ 0.866629 0.284027 0.372193 0.17695
C_ C_ 0.623556 0.278519 0.430676 -0.11473
C_ C_ 0.868313 0.285994 0.417865 -0.11473
C_ C_ 0.630088 0.239952 0.450376 0.23465
C_ C_ 0.867488 0.24885 0.440983 0.23465
C_ C_ 0.635042 0.2061 0.4231 -0.11473
C_ C_ 0.870999 0.212317 0.417746 -0.11473
C_ C_ 0.627267 0.214956 0.130407 0.17695
C_ C_ 0.842932 0.246638 0.120056 0.17695
C_ C_ 0.61718 0.285831 0.137792 0.17695
C_ C_ 0.896129 0.242798 0.119574 0.17695
C_ C_ 0.614969 0.291386 0.0942806 -0.11473
C_ C_ 0.895381 0.238614 0.0758401 -0.11473
C_ C_ 0.621272 0.257347 0.0676347 0.23465
C_ C_ 0.86759 0.24271 0.0534271 0.23465
C_ C_ 0.62786 0.218377 0.0860647 -0.11473
C_ C_ 0.841018 0.246073 0.0763876 -0.11473
C_ C_ 0.532489 0.495282 0.253157 0.05793
C_ C_ 0.779837 0.502286 0.239752 0.05793
C_ C_ 0.717067 0.993439 0.24318 0.05793
C_ C_ 0.960769 1.00331215 0.2477 0.05793
Br Br 0.575999 0.489313 0.248534 -0.17191
Br Br 0.820904 0.500849 0.214419 -0.17191
Br Br 0.673802 -0.01017800000000002 0.242112 -0.17191
Br Br 0.917559 0.00475218 0.254148 -0.17191
N_ N_ 0.631868 0.250299 0.362352 -0.272
N_ N_ 0.869064 0.247421 0.351603 -0.272
N_ N_ 0.631744 0.234446 0.493889 -0.12501
N_ N_ 0.8737 0.247416 0.48505 -0.12501
N_ N_ 0.623516 0.249015 0.155192 -0.272
N_ N_ 0.869813 0.24757 0.139394 -0.272
N_ N_ 0.621806 0.265056 0.0228512 -0.12501
N_ N_ 0.86678 0.239076 0.00756068 -0.12501
O_ O_ 0.592372 0.28843 0.223938 -0.60745
O_ O_ 0.837697 0.294495 0.209492 -0.60745
O_ O_ 0.59811 0.294254 0.293237 -0.60745
O_ O_ 0.840761 0.293512 0.277955 -0.60745
O_ O_ 0.658599 0.295285 0.292041 -0.60745
O_ O_ 0.904293 0.287681 0.279841 -0.60745
O_ O_ 0.652488 0.296067 0.222688 -0.60745
O_ O_ 0.897519 0.295052 0.211787 -0.60745
O_ O_ 0.654916 0.203315 0.29025 -0.60745
O_ O_ 0.894199 0.200056 0.279183 -0.60745
O_ O_ 0.655576 0.204066 0.221336 -0.60745
O_ O_ 0.898085 0.205395 0.211467 -0.60745
O_ O_ 0.597203 0.201038 0.224974 -0.60745
O_ O_ 0.837876 0.205501 0.211906 -0.60745
O_ O_ 0.599244 0.202572 0.293871 -0.60745
O_ O_ 0.833967 0.208293 0.280467 -0.60745
Zn Zn 0.62726 0.254585 0.793234 0.9476
Zn Zn 0.882427 0.250118 0.78135 0.9476
Zn Zn 0.62447 0.251829 0.722075 0.9476
Zn Zn 0.876671 0.248407 0.712644 0.9476
H_ H_ 0.530424 0.416502 0.694307 0.10932
H_ H_ 0.796242 0.428851 0.688371 0.10932
H_ H_ 0.563433 0.350409 0.827604 0.10932
H_ H_ 0.801752 0.337791 0.812541 0.10932
H_ H_ 0.555609 0.345837 0.692408 0.10932
H_ H_ 0.833386 0.37351 0.694351 0.10932
H_ H_ 0.545482 0.42158 0.825574 0.10932
H_ H_ 0.771871 0.404756 0.815429 0.10932
H_ H_ 0.709757 0.433036 0.82085 0.10932
H_ H_ 0.962784 0.42519 0.803406 0.10932
H_ H_ 0.691793 0.346876 0.696021 0.10932
H_ H_ 0.942604 0.34393 0.67625 0.10932
H_ H_ 0.687367 0.368475 0.82511 0.10932
H_ H_ 0.925881 0.37073 0.807097 0.10932
H_ H_ 0.725264 0.405038 0.690523 0.10932
H_ H_ 0.967604 0.41331 0.671905 0.10932
H_ H_ 0.730302 0.0949886 0.819515 0.10932
H_ H_ 0.985286 0.097905 0.811922 0.10932
H_ H_ 0.672906 0.14037 0.688459 0.10932
H_ H_ 0.928702 0.136757 0.681743 0.10932
H_ H_ 0.70304 0.163086 0.817166 0.10932
H_ H_ 0.950223 0.159142 0.812639 0.10932
H_ H_ 0.708049 0.0808023 0.688375 0.10932
H_ H_ 0.961813 0.0771814 0.684167 0.10932
H_ H_ 0.538488 0.0863972 0.676107 0.10932
H_ H_ 0.794182 0.0711747 0.689847 0.10932
H_ H_ 0.562824 0.149386 0.813615 0.10932
H_ H_ 0.8104 0.161371 0.81714 0.10932
H_ H_ 0.573489 0.146524 0.680121 0.10932
H_ H_ 0.829127 0.129837 0.685934 0.10932
H_ H_ 0.536847 0.0826937 0.811305 0.10932
H_ H_ 0.784942 0.0903288 0.818988 0.10932
H_ H_ 0.602125 0.305904 0.86836 0.10932
H_ H_ 0.934609 0.264214 0.85647 0.10932
H_ H_ 0.635517 0.188099 0.860201 0.10932
H_ H_ 0.84009 0.251462 0.856409 0.10932
H_ H_ 0.647047 0.184081 0.938366 0.10932
H_ H_ 0.839939 0.246996 0.934098 0.10932
H_ H_ 0.606453 0.305513 0.947147 0.10932
H_ H_ 0.934277 0.273555 0.933726 0.10932
H_ H_ 0.632598 0.191502 0.643595 0.10932
H_ H_ 0.917435 0.231126 0.627558 0.10932
H_ H_ 0.619443 0.319068 0.653263 0.10932
H_ H_ 0.827497 0.260576 0.652752 0.10932
H_ H_ 0.619881 0.325755 0.572363 0.10932
H_ H_ 0.820256 0.272813 0.574304 0.10932
H_ H_ 0.639487 0.194237 0.569622 0.10932
H_ H_ 0.908574 0.241707 0.552996 0.10932
C_ C_ 0.565127 0.347738 0.758479 -0.02249
C_ C_ 0.819131 0.347474 0.750178 -0.02249
C_ C_ 0.518976 0.46514 0.761046 -0.02249
C_ C_ 0.768536 0.464322 0.755094 -0.02249
C_ C_ 0.537267 0.402302 0.722408 -0.11473
C_ C_ 0.799334 0.411397 0.717027 -0.11473
C_ C_ 0.557405 0.364756 0.798108 -0.11473
C_ C_ 0.802663 0.358578 0.785952 -0.11473
C_ C_ 0.554902 0.366431 0.720188 -0.11473
C_ C_ 0.81818 0.376182 0.71813 -0.11473
C_ C_ 0.53661 0.425846 0.760449 -0.02249
C_ C_ 0.783814 0.422707 0.753643 -0.02249
C_ C_ 0.585257 0.310729 0.756633 0.6875
C_ C_ 0.840022 0.311568 0.747516 0.6875
C_ C_ 0.54742 0.406656 0.798161 -0.11473
C_ C_ 0.786674 0.396799 0.788651 -0.11473
C_ C_ 0.682028 0.355148 0.761729 -0.02249
C_ C_ 0.933179 0.349937 0.742935 -0.02249
C_ C_ 0.737168 0.465778 0.751182 -0.02249
C_ C_ 0.983591 0.461758 0.73459 -0.02249
C_ C_ 0.708163 0.415814 0.791975 -0.11473
C_ C_ 0.955191 0.411094 0.775271 -0.11473
C_ C_ 0.694503 0.366534 0.722404 -0.11473
C_ C_ 0.945723 0.361676 0.705696 -0.11473
C_ C_ 0.690306 0.380041 0.795466 -0.11473
C_ C_ 0.935349 0.377605 0.777154 -0.11473
C_ C_ 0.720002 0.427051 0.754618 -0.02249
C_ C_ 0.968141 0.422235 0.737844 -0.02249
C_ C_ 0.664043 0.31443 0.763493 0.6875
C_ C_ 0.918354 0.309098 0.745981 0.6875
C_ C_ 0.713542 0.401535 0.720024 -0.11473
C_ C_ 0.95932 0.400005 0.700693 -0.11473
C_ C_ 0.686204 0.157619 0.754606 -0.02249
C_ C_ 0.937504 0.154283 0.747148 -0.02249
C_ C_ 0.735588 0.0406734 0.754951 -0.02249
C_ C_ 0.988024 0.0404285 0.752153 -0.02249
C_ C_ 0.715054 0.10387 0.792019 -0.11473
C_ C_ 0.968658 0.104306 0.786047 -0.11473
C_ C_ 0.685768 0.131173 0.71811 -0.11473
C_ C_ 0.939433 0.128707 0.711271 -0.11473
C_ C_ 0.700599 0.142308 0.792151 -0.11473
C_ C_ 0.950587 0.139647 0.78546 -0.11473
C_ C_ 0.71816 0.0813749 0.754705 -0.02249
C_ C_ 0.971625 0.0805163 0.750194 -0.02249
C_ C_ 0.667783 0.196602 0.755194 0.6875
C_ C_ 0.917713 0.190807 0.745685 0.6875
C_ C_ 0.705553 0.0955553 0.716749 -0.11473
C_ C_ 0.955878 0.0916671 0.714257 -0.11473
C_ C_ 0.569342 0.153715 0.747585 -0.02249
C_ C_ 0.82362 0.150418 0.752126 -0.02249
C_ C_ 0.519274 0.0383441 0.737223 -0.02249
C_ C_ 0.768224 0.0406263 0.758149 -0.02249
C_ C_ 0.542897 0.100459 0.706885 -0.11473
C_ C_ 0.798974 0.0921464 0.717255 -0.11473
C_ C_ 0.557873 0.133265 0.784054 -0.11473
C_ C_ 0.805877 0.142875 0.788359 -0.11473
C_ C_ 0.562314 0.136227 0.707948 -0.11473
C_ C_ 0.817835 0.125547 0.715454 -0.11473
C_ C_ 0.5347 0.079338 0.742506 -0.02249
C_ C_ 0.786848 0.0806525 0.755693 -0.02249
C_ C_ 0.590122 0.189709 0.75056 0.6875
C_ C_ 0.842 0.18822 0.749256 0.6875
C_ C_ 0.543134 0.0952062 0.782537 -0.11473
C_ C_ 0.793818 0.103224 0.79196 -0.11473
C_ C_ 0.612975 0.280329 0.88596 0.17695
C_ C_ 0.913986 0.256545 0.872887 0.17695
C_ C_ 0.634487 0.215316 0.879674 0.17695
C_ C_ 0.860883 0.248601 0.873592 0.17695
C_ C_ 0.638363 0.21218 0.924599 -0.11473
C_ C_ 0.860924 0.247142 0.918278 -0.11473
C_ C_ 0.629162 0.244081 0.95097 0.23465
C_ C_ 0.887602 0.251525 0.941164 0.23465
C_ C_ 0.615669 0.279349 0.930492 -0.11473
C_ C_ 0.914853 0.257447 0.919233 -0.11473
C_ C_ 0.632105 0.220243 0.629789 0.17695
C_ C_ 0.89511 0.236193 0.618221 0.17695
C_ C_ 0.622722 0.292025 0.633926 0.17695
C_ C_ 0.845895 0.257485 0.630084 0.17695
C_ C_ 0.623 0.294655 0.587624 -0.11473
C_ C_ 0.840764 0.259258 0.585885 -0.11473
C_ C_ 0.629781 0.259535 0.563198 0.23465
C_ C_ 0.86298 0.254588 0.55773 0.23465
C_ C_ 0.633306 0.222318 0.585966 -0.11473
C_ C_ 0.890215 0.241407 0.574494 -0.11473
C_ C_ 0.535294 0.503023 0.762781 0.05793
C_ C_ 0.784558 0.501657 0.759437 0.05793
C_ C_ 0.720555 0.00267108 0.755836 0.05793
C_ C_ 0.973573 0.00289816 0.751 0.05793
Br Br 0.578298 0.50092 0.762368 -0.17191
Br Br 0.828263 0.500025 0.769889 -0.17191
Br Br 0.678605 0.000561714 0.741054 -0.17191
Br Br 0.92949 0.00485859 0.753579 -0.17191
N_ N_ 0.623952 0.249239 0.862903 -0.272
N_ N_ 0.887294 0.249566 0.852665 -0.272
N_ N_ 0.632098 0.23959 0.996884 -0.12501
N_ N_ 0.888509 0.249959 0.985433 -0.12501
N_ N_ 0.627665 0.255229 0.653483 -0.272
N_ N_ 0.873579 0.245892 0.644306 -0.272
N_ N_ 0.629737 0.264383 0.518541 -0.12501
N_ N_ 0.854877 0.256071 0.512551 -0.12501
O_ O_ 0.592097 0.292295 0.722723 -0.60745
O_ O_ 0.849424 0.297884 0.712939 -0.60745
O_ O_ 0.594396 0.294753 0.790758 -0.60745
O_ O_ 0.847392 0.291709 0.780614 -0.60745
O_ O_ 0.658653 0.297893 0.797299 -0.60745
O_ O_ 0.91044 0.297563 0.780735 -0.60745
O_ O_ 0.652732 0.300135 0.729868 -0.60745
O_ O_ 0.909685 0.290371 0.713107 -0.60745
O_ O_ 0.66386 0.215341 0.790067 -0.60745
O_ O_ 0.917299 0.213211 0.777951 -0.60745
O_ O_ 0.656541 0.21096 0.721113 -0.60745
O_ O_ 0.906697 0.204516 0.711935 -0.60745
O_ O_ 0.59606 0.209443 0.717532 -0.60745
O_ O_ 0.843562 0.207257 0.715331 -0.60745
O_ O_ 0.59715 0.206088 0.785748 -0.60745
O_ O_ 0.854848 0.202084 0.782429 -0.60745
Zn Zn 0.622259 0.750989 0.294419 0.9476
Zn Zn 0.877111 0.747352 0.287306 0.9476
Zn Zn 0.621552 0.751982 0.22236 0.9476
Zn Zn 0.877852 0.747523 0.215599 0.9476
H_ H_ 0.544983 0.939619 0.207271 0.10932
H_ H_ 0.781212 0.909458 0.177567 0.10932
H_ H_ 0.540568 0.834819 0.322361 0.10932
H_ H_ 0.812438 0.851229 0.316099 0.10932
H_ H_ 0.576871 0.873895 0.208686 0.10932
H_ H_ 0.807192 0.844815 0.181436 0.10932
H_ H_ 0.505641 0.895606 0.321546 0.10932
H_ H_ 0.782151 0.914216 0.312786 0.10932
H_ H_ 0.709112 0.92381 0.313291 0.10932
H_ H_ 0.95864 0.925571 0.314318 0.10932
H_ H_ 0.694231 0.837168 0.184979 0.10932
H_ H_ 0.9326 0.847169 0.185703 0.10932
H_ H_ 0.675154 0.86261 0.316558 0.10932
H_ H_ 0.946771 0.849336 0.318496 0.10932
H_ H_ 0.719237 0.905065 0.178727 0.10932
H_ H_ 0.952712 0.920967 0.180884 0.10932
H_ H_ 0.723767 0.594919 0.319336 0.10932
H_ H_ 0.952931 0.566631 0.305719 0.10932
H_ H_ 0.67293 0.640531 0.187525 0.10932
H_ H_ 0.940294 0.64775 0.181777 0.10932
H_ H_ 0.694892 0.660301 0.315253 0.10932
H_ H_ 0.929161 0.632404 0.313382 0.10932
H_ H_ 0.703766 0.574668 0.189467 0.10932
H_ H_ 0.977226 0.588637 0.183937 0.10932
H_ H_ 0.543872 0.577385 0.189371 0.10932
H_ H_ 0.776869 0.587799 0.176874 0.10932
H_ H_ 0.560842 0.645044 0.327165 0.10932
H_ H_ 0.816563 0.639332 0.312723 0.10932
H_ H_ 0.570135 0.637936 0.190683 0.10932
H_ H_ 0.804292 0.655476 0.18176 0.10932
H_ H_ 0.533405 0.579796 0.321707 0.10932
H_ H_ 0.793724 0.574108 0.308217 0.10932
H_ H_ 0.634294 0.692754 0.371357 0.10932
H_ H_ 0.827496 0.759462 0.346534 0.10932
H_ H_ 0.628197 0.818315 0.361057 0.10932
H_ H_ 0.919564 0.73013 0.368253 0.10932
H_ H_ 0.627422 0.825411 0.43925 0.10932
H_ H_ 0.909098 0.723285 0.446985 0.10932
H_ H_ 0.635937 0.693486 0.448274 0.10932
H_ H_ 0.815871 0.753313 0.425405 0.10932
H_ H_ 0.577243 0.726518 0.144733 0.10932
H_ H_ 0.868801 0.686595 0.133043 0.10932
H_ H_ 0.669716 0.752172 0.151275 0.10932
H_ H_ 0.887028 0.814609 0.1509 0.10932
H_ H_ 0.669988 0.758763 0.0746479 0.10932
H_ H_ 0.888912 0.826496 0.0715051 0.10932
H_ H_ 0.580015 0.718223 0.0642709 0.10932
H_ H_ 0.877032 0.69427 0.0558078 0.10932
C_ C_ 0.558711 0.846669 0.262281 -0.02249
C_ C_ 0.816245 0.845359 0.247761 -0.02249
C_ C_ 0.508756 0.963974 0.267187 -0.02249
C_ C_ 0.765279 0.958465 0.243262 -0.02249
C_ C_ 0.543604 0.914804 0.231508 -0.11473
C_ C_ 0.790026 0.898714 0.208044 -0.11473
C_ C_ 0.539923 0.856112 0.295175 -0.11473
C_ C_ 0.807572 0.865693 0.286156 -0.11473
C_ C_ 0.559313 0.877027 0.230348 -0.11473
C_ C_ 0.804854 0.860881 0.209517 -0.11473
C_ C_ 0.524516 0.923385 0.265877 -0.02249
C_ C_ 0.784549 0.920177 0.247186 -0.02249
C_ C_ 0.581222 0.812629 0.262235 0.6875
C_ C_ 0.835959 0.805897 0.249748 0.6875
C_ C_ 0.522148 0.892985 0.297899 -0.11473
C_ C_ 0.790573 0.901623 0.284618 -0.11473
C_ C_ 0.683251 0.843872 0.251787 -0.02249
C_ C_ 0.932824 0.846794 0.251321 -0.02249
C_ C_ 0.73435 0.956883 0.24677 -0.02249
C_ C_ 0.97523 0.964932 0.244997 -0.02249
C_ C_ 0.705601 0.904386 0.285159 -0.11473
C_ C_ 0.953493 0.907399 0.286003 -0.11473
C_ C_ 0.697269 0.855606 0.214059 -0.11473
C_ C_ 0.938633 0.863795 0.212685 -0.11473
C_ C_ 0.687052 0.869246 0.287122 -0.11473
C_ C_ 0.94398 0.866065 0.288516 -0.11473
C_ C_ 0.718568 0.917047 0.247524 -0.02249
C_ C_ 0.956999 0.926374 0.247645 -0.02249
C_ C_ 0.660415 0.810879 0.252801 0.6875
C_ C_ 0.916516 0.806036 0.253823 0.6875
C_ C_ 0.71087 0.895556 0.211126 -0.11473
C_ C_ 0.950614 0.904841 0.210119 -0.11473
C_ C_ 0.679468 0.651665 0.252283 -0.02249
C_ C_ 0.933414 0.649106 0.248278 -0.02249
C_ C_ 0.733806 0.539687 0.257904 -0.02249
C_ C_ 0.982242 0.532149 0.242914 -0.02249
C_ C_ 0.712608 0.603217 0.290772 -0.11473
C_ C_ 0.951662 0.58574 0.279986 -0.11473
C_ C_ 0.682972 0.627895 0.21638 -0.11473
C_ C_ 0.948408 0.63618 0.211835 -0.11473
C_ C_ 0.69528 0.639761 0.288063 -0.11473
C_ C_ 0.938095 0.624597 0.283164 -0.11473
C_ C_ 0.7159 0.577794 0.254416 -0.02249
C_ C_ 0.964608 0.571944 0.244994 -0.02249
C_ C_ 0.65799 0.689724 0.254304 0.6875
C_ C_ 0.914888 0.686649 0.250103 0.6875
C_ C_ 0.69949 0.58927 0.218784 -0.11473
C_ C_ 0.964636 0.598542 0.211016 -0.11473
C_ C_ 0.566993 0.649364 0.259713 -0.02249
C_ C_ 0.814199 0.652934 0.246738 -0.02249
C_ C_ 0.516803 0.532381 0.250897 -0.02249
C_ C_ 0.764429 0.540411 0.241554 -0.02249
C_ C_ 0.54639 0.591424 0.219392 -0.11473
C_ C_ 0.785741 0.60176 0.206135 -0.11473
C_ C_ 0.554753 0.632338 0.296937 -0.11473
C_ C_ 0.807496 0.631214 0.283398 -0.11473
C_ C_ 0.562551 0.627396 0.2205 -0.11473
C_ C_ 0.799019 0.640494 0.209651 -0.11473
C_ C_ 0.534009 0.573392 0.254966 -0.02249
C_ C_ 0.781146 0.577921 0.242433 -0.02249
C_ C_ 0.582175 0.690898 0.25985 0.6875
C_ C_ 0.836377 0.688939 0.247997 0.6875
C_ C_ 0.537612 0.59515 0.29299 -0.11473
C_ C_ 0.791269 0.594394 0.280993 -0.11473
C_ C_ 0.636041 0.721519 0.388437 0.17695
C_ C_ 0.844305 0.748861 0.369411 0.17695
C_ C_ 0.629725 0.792381 0.382926 0.17695
C_ C_ 0.896183 0.737423 0.381461 0.17695
C_ C_ 0.625402 0.795412 0.426577 -0.11473
C_ C_ 0.891257 0.735428 0.426371 -0.11473
C_ C_ 0.625965 0.758786 0.451824 0.23465
C_ C_ 0.861296 0.737834 0.442686 0.23465
C_ C_ 0.634747 0.722115 0.431759 -0.11473
C_ C_ 0.838465 0.746376 0.413712 -0.11473
C_ C_ 0.597949 0.731014 0.129298 0.17695
C_ C_ 0.874066 0.716113 0.119958 0.17695
C_ C_ 0.648586 0.749788 0.132283 0.17695
C_ C_ 0.88339 0.788586 0.129591 0.17695
C_ C_ 0.649893 0.748489 0.0879607 -0.11473
C_ C_ 0.88696 0.794762 0.0847862 -0.11473
C_ C_ 0.625173 0.739023 0.063727 0.23465
C_ C_ 0.883345 0.760133 0.0598281 0.23465
C_ C_ 0.598683 0.728192 0.0840144 -0.11473
C_ C_ 0.87787 0.72113 0.0757749 -0.11473
C_ C_ 0.526767 1.000447286 0.267488 0.05793
C_ C_ 0.780036 0.99731 0.242691 0.05793
C_ C_ 0.718652 0.501282 0.260655 0.05793
C_ C_ 0.966287 0.493904 0.244897 0.05793
Br Br 0.566661 0.995251 0.289672 -0.17191
Br Br 0.819906 1.00368677 0.219755 -0.17191
Br Br 0.674958 0.497937 0.266392 -0.17191
Br Br 0.921696 0.496781 0.243429 -0.17191
N_ N_ 0.631069 0.754665 0.365483 -0.272
N_ N_ 0.872293 0.742895 0.354433 -0.272
N_ N_ 0.616722 0.760026 0.495058 -0.12501
N_ N_ 0.854966 0.738924 0.486309 -0.12501
N_ N_ 0.621912 0.745929 0.15139 -0.272
N_ N_ 0.876757 0.749582 0.145283 -0.272
N_ N_ 0.628192 0.73133 0.0182189 -0.12501
N_ N_ 0.886376 0.766709 0.0151241 -0.12501
O_ O_ 0.591975 0.800195 0.227827 -0.60745
O_ O_ 0.843879 0.789362 0.215722 -0.60745
O_ O_ 0.587897 0.791872 0.294492 -0.60745
O_ O_ 0.848273 0.794136 0.28355 -0.60745
O_ O_ 0.652068 0.795477 0.287869 -0.60745
O_ O_ 0.910066 0.790536 0.289461 -0.60745
O_ O_ 0.654947 0.792176 0.217884 -0.60745
O_ O_ 0.907628 0.789233 0.220203 -0.60745
O_ O_ 0.650984 0.705715 0.289689 -0.60745
O_ O_ 0.907793 0.70096 0.285839 -0.60745
O_ O_ 0.648274 0.705533 0.220348 -0.60745
O_ O_ 0.905309 0.702268 0.216068 -0.60745
O_ O_ 0.589284 0.708897 0.225395 -0.60745
O_ O_ 0.84583 0.703965 0.213461 -0.60745
O_ O_ 0.590652 0.705112 0.295409 -0.60745
O_ O_ 0.841618 0.706444 0.28176 -0.60745
Zn Zn 0.629472 0.753229 0.790214 0.9476
Zn Zn 0.879672 0.749 0.787467 0.9476
Zn Zn 0.629566 0.749241 0.720409 0.9476
Zn Zn 0.873594 0.752978 0.717542 0.9476
H_ H_ 0.529735 0.901267 0.676902 0.10932
H_ H_ 0.798529 0.940431 0.701346 0.10932
H_ H_ 0.578711 0.866035 0.814035 0.10932
H_ H_ 0.815357 0.848206 0.823751 0.10932
H_ H_ 0.552636 0.833322 0.688288 0.10932
H_ H_ 0.82555 0.874408 0.692548 0.10932
H_ H_ 0.559775 0.936785 0.801373 0.10932
H_ H_ 0.777458 0.904884 0.827811 0.10932
H_ H_ 0.715406 0.916686 0.826409 0.10932
H_ H_ 0.983088 0.908513 0.812521 0.10932
H_ H_ 0.701748 0.84965 0.688771 0.10932
H_ H_ 0.929024 0.862492 0.684158 0.10932
H_ H_ 0.681236 0.859512 0.820976 0.10932
H_ H_ 0.949668 0.845651 0.815895 0.10932
H_ H_ 0.728884 0.914455 0.697261 0.10932
H_ H_ 0.958122 0.929093 0.683273 0.10932
H_ H_ 0.716035 0.577338 0.822597 0.10932
H_ H_ 0.976845 0.58839 0.80607 0.10932
H_ H_ 0.70277 0.666398 0.693588 0.10932
H_ H_ 0.930862 0.650964 0.675519 0.10932
H_ H_ 0.689836 0.64707 0.826808 0.10932
H_ H_ 0.947678 0.652546 0.810471 0.10932
H_ H_ 0.724922 0.595572 0.689532 0.10932
H_ H_ 0.952772 0.580153 0.67352 0.10932
H_ H_ 0.529804 0.594107 0.694039 0.10932
H_ H_ 0.785309 0.586937 0.68744 0.10932
H_ H_ 0.578468 0.638721 0.827064 0.10932
H_ H_ 0.810937 0.654578 0.822335 0.10932
H_ H_ 0.555351 0.663012 0.700138 0.10932
H_ H_ 0.81461 0.649896 0.686924 0.10932
H_ H_ 0.550116 0.576402 0.824488 0.10932
H_ H_ 0.782045 0.590246 0.822565 0.10932
H_ H_ 0.588293 0.768163 0.869441 0.10932
H_ H_ 0.892194 0.6907 0.85701 0.10932
H_ H_ 0.681867 0.756597 0.862726 0.10932
H_ H_ 0.874184 0.82048 0.864422 0.10932
H_ H_ 0.686527 0.7504 0.938911 0.10932
H_ H_ 0.872774 0.815089 0.941409 0.10932
H_ H_ 0.591267 0.763455 0.949024 0.10932
H_ H_ 0.885903 0.681409 0.931835 0.10932
H_ H_ 0.6259 0.681028 0.65526 0.10932
H_ H_ 0.895984 0.80943 0.63919 0.10932
H_ H_ 0.618912 0.810071 0.643004 0.10932
H_ H_ 0.84203 0.701799 0.644175 0.10932
H_ H_ 0.611676 0.804041 0.565339 0.10932
H_ H_ 0.845097 0.692968 0.566606 0.10932
H_ H_ 0.625207 0.673623 0.578234 0.10932
H_ H_ 0.894561 0.802923 0.561717 0.10932
C_ C_ 0.570187 0.846084 0.749782 -0.02249
C_ C_ 0.822064 0.854319 0.757437 -0.02249
C_ C_ 0.519703 0.96231 0.736433 -0.02249
C_ C_ 0.767846 0.964462 0.769261 -0.02249
C_ C_ 0.53782 0.892836 0.708666 -0.11473
C_ C_ 0.80222 0.918308 0.727234 -0.11473
C_ C_ 0.566691 0.873605 0.784037 -0.11473
C_ C_ 0.808143 0.863854 0.795158 -0.11473
C_ C_ 0.552688 0.853824 0.71385 -0.11473
C_ C_ 0.816655 0.880757 0.722901 -0.11473
C_ C_ 0.537974 0.923175 0.739403 -0.02249
C_ C_ 0.785005 0.924844 0.764453 -0.02249
C_ C_ 0.588956 0.808414 0.751986 0.6875
C_ C_ 0.839483 0.814361 0.7555 0.6875
C_ C_ 0.554797 0.91364 0.777924 -0.11473
C_ C_ 0.788216 0.897513 0.798944 -0.11473
C_ C_ 0.686671 0.850502 0.754426 -0.02249
C_ C_ 0.93431 0.852213 0.750199 -0.02249
C_ C_ 0.736401 0.965229 0.762485 -0.02249
C_ C_ 0.988802 0.964324 0.751953 -0.02249
C_ C_ 0.706441 0.908242 0.795469 -0.11473
C_ C_ 0.968579 0.900389 0.786272 -0.11473
C_ C_ 0.701909 0.86553 0.719101 -0.11473
C_ C_ 0.93935 0.874484 0.71349 -0.11473
C_ C_ 0.691053 0.871451 0.791878 -0.11473
C_ C_ 0.949753 0.863404 0.786052 -0.11473
C_ C_ 0.720109 0.925914 0.760451 -0.02249
C_ C_ 0.971759 0.924292 0.749706 -0.02249
C_ C_ 0.66659 0.812772 0.752324 0.6875
C_ C_ 0.91561 0.812898 0.749996 0.6875
C_ C_ 0.717882 0.902953 0.723333 -0.11473
C_ C_ 0.957504 0.909054 0.711567 -0.11473
C_ C_ 0.691005 0.658078 0.757918 -0.02249
C_ C_ 0.937864 0.65738 0.744316 -0.02249
C_ C_ 0.737193 0.540924 0.753002 -0.02249
C_ C_ 0.982153 0.538488 0.736266 -0.02249
C_ C_ 0.710678 0.596727 0.794478 -0.11473
C_ C_ 0.964051 0.600123 0.778471 -0.11473
C_ C_ 0.70414 0.645278 0.720507 -0.11473
C_ C_ 0.942899 0.638457 0.704762 -0.11473
C_ C_ 0.697765 0.636237 0.795236 -0.11473
C_ C_ 0.950995 0.639275 0.779674 -0.11473
C_ C_ 0.719681 0.580282 0.755457 -0.02249
C_ C_ 0.965851 0.578333 0.739384 -0.02249
C_ C_ 0.672119 0.695802 0.75768 0.6875
C_ C_ 0.915102 0.691389 0.748803 0.6875
C_ C_ 0.717469 0.606049 0.718936 -0.11473
C_ C_ 0.952699 0.596752 0.703924 -0.11473
C_ C_ 0.568515 0.655359 0.764152 -0.02249
C_ C_ 0.819103 0.655197 0.753897 -0.02249
C_ C_ 0.518695 0.541767 0.760652 -0.02249
C_ C_ 0.769214 0.540443 0.757447 -0.02249
C_ C_ 0.536541 0.606739 0.724932 -0.11473
C_ C_ 0.79261 0.599545 0.717302 -0.11473
C_ C_ 0.566681 0.630264 0.798231 -0.11473
C_ C_ 0.808701 0.638285 0.792782 -0.11473
C_ C_ 0.552654 0.644326 0.728289 -0.11473
C_ C_ 0.809175 0.637082 0.716641 -0.11473
C_ C_ 0.534428 0.582012 0.761017 -0.02249
C_ C_ 0.786278 0.580071 0.756891 -0.02249
C_ C_ 0.589097 0.69134 0.763444 0.6875
C_ C_ 0.836912 0.693171 0.755457 0.6875
C_ C_ 0.549302 0.595067 0.797216 -0.11473
C_ C_ 0.791541 0.60197 0.793495 -0.11473
C_ C_ 0.609103 0.761003 0.885026 0.17695
C_ C_ 0.891238 0.718565 0.874787 0.17695
C_ C_ 0.661516 0.756792 0.879742 0.17695
C_ C_ 0.878459 0.788354 0.880253 0.17695
C_ C_ 0.664244 0.752424 0.924286 -0.11473
C_ C_ 0.877818 0.786683 0.925163 -0.11473
C_ C_ 0.638889 0.755746 0.950742 0.23465
C_ C_ 0.881161 0.747152 0.944801 0.23465
C_ C_ 0.610607 0.759582 0.92881 -0.11473
C_ C_ 0.885275 0.711362 0.918394 -0.11473
C_ C_ 0.625253 0.708374 0.636216 0.17695
C_ C_ 0.885434 0.781996 0.623425 0.17695
C_ C_ 0.622032 0.780272 0.63036 0.17695
C_ C_ 0.853914 0.723615 0.625428 0.17695
C_ C_ 0.618244 0.776733 0.585702 -0.11473
C_ C_ 0.852927 0.720421 0.581331 -0.11473
C_ C_ 0.622541 0.739225 0.565536 0.23465
C_ C_ 0.86598 0.750769 0.556482 0.23465
C_ C_ 0.624884 0.703876 0.592206 -0.11473
C_ C_ 0.881821 0.782173 0.578777 -0.11473
C_ C_ 0.535358 0.00163134 0.737361 0.05793
C_ C_ 0.783965 0.00256392 0.764405 0.05793
C_ C_ 0.721257 0.504703 0.747428 0.05793
C_ C_ 0.967454 0.499901 0.732857 0.05793
Br Br 0.57663 0.00462813 0.723016 -0.17191
Br Br 0.825704 1.00211385 0.783123 -0.17191
Br Br 0.679282 0.506239 0.730226 -0.17191
Br Br 0.923783 0.500973 0.729517 -0.17191
N_ N_ 0.634082 0.75762 0.860179 -0.272
N_ N_ 0.8821 0.754224 0.857534 -0.272
N_ N_ 0.642065 0.755941 0.995895 -0.12501
N_ N_ 0.875488 0.741794 0.98839 -0.12501
N_ N_ 0.625087 0.746151 0.653769 -0.272
N_ N_ 0.872425 0.751792 0.645822 -0.272
N_ N_ 0.624227 0.733663 0.521671 -0.12501
N_ N_ 0.874322 0.742294 0.513912 -0.12501
O_ O_ 0.594353 0.786929 0.720191 -0.60745
O_ O_ 0.841879 0.796137 0.720924 -0.60745
O_ O_ 0.599333 0.798705 0.788236 -0.60745
O_ O_ 0.847678 0.795311 0.788616 -0.60745
O_ O_ 0.659518 0.795496 0.786639 -0.60745
O_ O_ 0.911052 0.793949 0.784904 -0.60745
O_ O_ 0.658266 0.798231 0.717859 -0.60745
O_ O_ 0.903202 0.799188 0.716981 -0.60745
O_ O_ 0.662113 0.710832 0.791632 -0.60745
O_ O_ 0.909138 0.704594 0.784097 -0.60745
O_ O_ 0.665818 0.712392 0.722332 -0.60745
O_ O_ 0.908102 0.712574 0.71678 -0.60745
O_ O_ 0.603026 0.698693 0.730738 -0.60745
O_ O_ 0.845329 0.708271 0.721357 -0.60745
O_ O_ 0.597742 0.709833 0.797795 -0.60745
O_ O_ 0.846022 0.707589 0.789209 -0.60745
_cell_length_a 44.444
_cell_length_b 32.3360000049186
_cell_length_c 31.843999878906452
_cell_angle_alpha 89.99799923859553
_cell_angle_beta 91.13600050494348
_cell_angle_gamma 89.9990006550086
_symmetry_space_group_name_H-M         'P 1'
_symmetry_Int_Tables_number            1
loop_
_symmetry_equiv_pos_as_xyz
   'x, y, z'
                         
loop_
_atom_site_label
_atom_site_type_symbol
_atom_site_fract_x 
_atom_site_fract_y
_atom_site_fract_z
_atom_site_charge
Zn Zn 0.124117 0.241945 0.285294 0.9476
Zn Zn 0.372145 0.251978 0.284232 0.9476
Zn Zn 0.123714 0.247803 0.21829 0.9476
Zn Zn 0.371964 0.246802 0.214096 0.9476
H_ H_ 0.0359401 0.414929 0.180017 0.10932
H_ H_ 0.26921 0.405621 0.191336 0.10932
H_ H_ 0.0634773 0.352144 0.316409 0.10932
H_ H_ 0.334188 0.370886 0.315268 0.10932
H_ H_ 0.0623 0.349929 0.181384 0.10932
H_ H_ 0.299439 0.341459 0.19257 0.10932
H_ H_ 0.0280552 0.408221 0.312433 0.10932
H_ H_ 0.305625 0.435984 0.314211 0.10932
H_ H_ 0.223761 0.402818 0.324115 0.10932
H_ H_ 0.465081 0.414721 0.315705 0.10932
H_ H_ 0.165997 0.363089 0.199386 0.10932
H_ H_ 0.428364 0.353381 0.180511 0.10932
H_ H_ 0.198283 0.335391 0.319373 0.10932
H_ H_ 0.437263 0.349807 0.315683 0.10932
H_ H_ 0.201733 0.426337 0.194294 0.10932
H_ H_ 0.447565 0.424435 0.183183 0.10932
H_ H_ 0.216861 0.0814092 0.312207 0.10932
H_ H_ 0.453797 0.0824616 0.316721 0.10932
H_ H_ 0.177704 0.143767 0.179728 0.10932
H_ H_ 0.438756 0.147744 0.178786 0.10932
H_ H_ 0.196845 0.15312 0.313055 0.10932
H_ H_ 0.436339 0.155086 0.315109 0.10932
H_ H_ 0.208276 0.080363 0.177611 0.10932
H_ H_ 0.478253 0.0950643 0.186684 0.10932
H_ H_ 0.0276317 0.0804331 0.176845 0.10932
H_ H_ 0.285325 0.078431 0.176381 0.10932
H_ H_ 0.0656804 0.138386 0.313301 0.10932
H_ H_ 0.297716 0.153478 0.308151 0.10932
H_ H_ 0.0641582 0.140905 0.176055 0.10932
H_ H_ 0.322677 0.136917 0.177605 0.10932
H_ H_ 0.0402127 0.0714853 0.309344 0.10932
H_ H_ 0.283181 0.0779844 0.307373 0.10932
H_ H_ 0.131591 0.311195 0.348754 0.10932
H_ H_ 0.379883 0.311661 0.363159 0.10932
H_ H_ 0.121458 0.179163 0.363797 0.10932
H_ H_ 0.367962 0.181148 0.352379 0.10932
H_ H_ 0.128236 0.184113 0.443435 0.10932
H_ H_ 0.367176 0.176305 0.431525 0.10932
H_ H_ 0.132662 0.315549 0.428611 0.10932
H_ H_ 0.370775 0.307923 0.438002 0.10932
H_ H_ 0.114554 0.314716 0.142724 0.10932
H_ H_ 0.366135 0.320054 0.143417 0.10932
H_ H_ 0.125 0.186161 0.147509 0.10932
H_ H_ 0.375161 0.190439 0.132943 0.10932
H_ H_ 0.123432 0.178261 0.0691545 0.10932
H_ H_ 0.377678 0.1932 0.0580536 0.10932
H_ H_ 0.103866 0.309883 0.0612794 0.10932
H_ H_ 0.371431 0.327756 0.0673333 0.10932
C_ C_ 0.0667066 0.345333 0.249838 -0.02249
C_ C_ 0.321296 0.353374 0.252128 -0.02249
C_ C_ 0.0139015 0.457149 0.248389 -0.02249
C_ C_ 0.264244 0.462086 0.255007 -0.02249
C_ C_ 0.0422712 0.401208 0.210837 -0.11473
C_ C_ 0.283472 0.397634 0.219643 -0.11473
C_ C_ 0.0553348 0.361871 0.28541 -0.11473
C_ C_ 0.32244 0.380962 0.287016 -0.11473
C_ C_ 0.0597711 0.365389 0.210533 -0.11473
C_ C_ 0.300921 0.360526 0.220477 -0.11473
C_ C_ 0.0302238 0.416788 0.247706 -0.02249
C_ C_ 0.282551 0.423411 0.256822 -0.02249
C_ C_ 0.0843761 0.306447 0.249493 0.6875
C_ C_ 0.336022 0.312074 0.253577 0.6875
C_ C_ 0.0361882 0.395847 0.283751 -0.11473
C_ C_ 0.302566 0.414281 0.28937 -0.11473
C_ C_ 0.181178 0.344073 0.255223 -0.02249
C_ C_ 0.43227 0.345624 0.248195 -0.02249
C_ C_ 0.23275 0.460947 0.259836 -0.02249
C_ C_ 0.483786 0.460702 0.248553 -0.02249
C_ C_ 0.213119 0.394023 0.294474 -0.11473
C_ C_ 0.460493 0.399603 0.284806 -0.11473
C_ C_ 0.181058 0.372057 0.222586 -0.11473
C_ C_ 0.436691 0.366665 0.209461 -0.11473
C_ C_ 0.199249 0.354613 0.291161 -0.11473
C_ C_ 0.443947 0.362968 0.285703 -0.11473
C_ C_ 0.216034 0.421153 0.258758 -0.02249
C_ C_ 0.467025 0.420646 0.24683 -0.02249
C_ C_ 0.160327 0.307544 0.252462 0.6875
C_ C_ 0.412642 0.308111 0.251469 0.6875
C_ C_ 0.198849 0.408416 0.223009 -0.11473
C_ C_ 0.454007 0.403698 0.209146 -0.11473
C_ C_ 0.186916 0.154721 0.247057 -0.02249
C_ C_ 0.437651 0.160036 0.247347 -0.02249
C_ C_ 0.232326 0.0364937 0.243766 -0.02249
C_ C_ 0.481625 0.042389 0.25569 -0.02249
C_ C_ 0.211742 0.0979175 0.282894 -0.11473
C_ C_ 0.456718 0.101379 0.287826 -0.11473
C_ C_ 0.188975 0.132116 0.20801 -0.11473
C_ C_ 0.448532 0.14239 0.209791 -0.11473
C_ C_ 0.200287 0.137765 0.283903 -0.11473
C_ C_ 0.445657 0.141141 0.285819 -0.11473
C_ C_ 0.217444 0.077944 0.244834 -0.02249
C_ C_ 0.465039 0.0831862 0.250262 -0.02249
C_ C_ 0.166141 0.190442 0.250398 0.6875
C_ C_ 0.412448 0.190466 0.247719 0.6875
C_ C_ 0.207723 0.0969684 0.206783 -0.11473
C_ C_ 0.465803 0.105627 0.213056 -0.11473
C_ C_ 0.0663112 0.146905 0.24474 -0.02249
C_ C_ 0.313878 0.151432 0.244416 -0.02249
C_ C_ 0.00980931 0.0374516 0.243608 -0.02249
C_ C_ 0.265061 0.0346466 0.238017 -0.02249
C_ C_ 0.0352515 0.0955963 0.204457 -0.11473
C_ C_ 0.290992 0.0944278 0.203623 -0.11473
C_ C_ 0.0572618 0.12819 0.283026 -0.11473
C_ C_ 0.300111 0.135113 0.280507 -0.11473
C_ C_ 0.0569899 0.128324 0.205702 -0.11473
C_ C_ 0.309989 0.128579 0.205517 -0.11473
C_ C_ 0.028022 0.0760074 0.242909 -0.02249
C_ C_ 0.281463 0.0752594 0.240554 -0.02249
C_ C_ 0.0864074 0.183895 0.247318 0.6875
C_ C_ 0.331905 0.191954 0.244274 0.6875
C_ C_ 0.0405942 0.091061 0.281951 -0.11473
C_ C_ 0.286431 0.095293 0.280006 -0.11473
C_ C_ 0.131711 0.282802 0.370713 0.17695
C_ C_ 0.375449 0.281403 0.376053 0.17695
C_ C_ 0.126132 0.209606 0.378203 0.17695
C_ C_ 0.36629 0.208841 0.37168 0.17695
C_ C_ 0.129931 0.21022 0.423342 -0.11473
C_ C_ 0.368036 0.204618 0.414668 -0.11473
C_ C_ 0.134894 0.248554 0.441285 0.23465
C_ C_ 0.370661 0.240219 0.440767 0.23465
C_ C_ 0.134969 0.285586 0.415293 -0.11473
C_ C_ 0.373563 0.279076 0.420682 -0.11473
C_ C_ 0.118375 0.285735 0.124273 0.17695
C_ C_ 0.370912 0.292384 0.123997 0.17695
C_ C_ 0.123826 0.214291 0.128106 0.17695
C_ C_ 0.368958 0.218374 0.118938 0.17695
C_ C_ 0.122868 0.209594 0.0842207 -0.11473
C_ C_ 0.370553 0.221386 0.0739039 -0.11473
C_ C_ 0.116685 0.244795 0.0596533 0.23465
C_ C_ 0.372797 0.260353 0.0541315 0.23465
C_ C_ 0.112595 0.283337 0.0795607 -0.11473
C_ C_ 0.369355 0.296309 0.0805018 -0.11473
C_ C_ 0.0295575 0.494873 0.246846 0.05793
C_ C_ 0.278714 0.501472 0.247392 0.05793
C_ C_ 0.216536 -0.0009730000000000016 0.240228 0.05793
C_ C_ 0.464948 1.00506562 0.246602 0.05793
Br Br 0.0712326 0.493321 0.266093 -0.17191
Br Br 0.322932 0.500558 0.24285 -0.17191
Br Br 0.173321 -0.0011200000000000099 0.234181 -0.17191
Br Br 0.425448 1.0089472 0.217775 -0.17191
N_ N_ 0.127484 0.244498 0.355115 -0.272
N_ N_ 0.371599 0.245747 0.353178 -0.272
N_ N_ 0.138134 0.256659 0.486153 -0.12501
N_ N_ 0.366492 0.236848 0.486338 -0.12501
N_ N_ 0.12373 0.251493 0.147366 -0.272
N_ N_ 0.370114 0.254179 0.141783 -0.272
N_ N_ 0.114143 0.240778 0.0143958 -0.12501
N_ N_ 0.381099 0.262831 0.0106811 -0.12501
O_ O_ 0.0885382 0.288302 0.215979 -0.60745
O_ O_ 0.344954 0.295027 0.2185 -0.60745
O_ O_ 0.0905702 0.286547 0.282827 -0.60745
O_ O_ 0.338801 0.291432 0.286747 -0.60745
O_ O_ 0.153881 0.287575 0.284598 -0.60745
O_ O_ 0.400844 0.298899 0.28548 -0.60745
O_ O_ 0.14748 0.298506 0.217794 -0.60745
O_ O_ 0.404285 0.290319 0.218317 -0.60745
O_ O_ 0.154585 0.199448 0.284605 -0.60745
O_ O_ 0.408704 0.21293 0.28062 -0.60745
O_ O_ 0.158196 0.209156 0.218081 -0.60745
O_ O_ 0.400506 0.200389 0.212507 -0.60745
O_ O_ 0.0988937 0.196717 0.214372 -0.60745
O_ O_ 0.340224 0.207911 0.209759 -0.60745
O_ O_ 0.0944519 0.199158 0.282159 -0.60745
O_ O_ 0.344888 0.204879 0.277324 -0.60745
Zn Zn 0.127842 0.254099 0.78945 0.9476
Zn Zn 0.374802 0.25109 0.783049 0.9476
Zn Zn 0.126615 0.251564 0.716311 0.9476
Zn Zn 0.374968 0.250684 0.710133 0.9476
H_ H_ 0.0320226 0.413757 0.669613 0.10932
H_ H_ 0.301938 0.433147 0.683672 0.10932
H_ H_ 0.062261 0.353315 0.805257 0.10932
H_ H_ 0.295259 0.340281 0.804663 0.10932
H_ H_ 0.0710013 0.356399 0.671407 0.10932
H_ H_ 0.318378 0.361799 0.678945 0.10932
H_ H_ 0.0379628 0.423124 0.802824 0.10932
H_ H_ 0.271871 0.407248 0.806516 0.10932
H_ H_ 0.20476 0.440898 0.811188 0.10932
H_ H_ 0.462084 0.416187 0.821914 0.10932
H_ H_ 0.193637 0.346652 0.685355 0.10932
H_ H_ 0.442845 0.352589 0.679005 0.10932
H_ H_ 0.173424 0.376663 0.816978 0.10932
H_ H_ 0.429785 0.354853 0.816019 0.10932
H_ H_ 0.219401 0.410158 0.680581 0.10932
H_ H_ 0.471257 0.420325 0.688701 0.10932
H_ H_ 0.20067 0.0667083 0.81741 0.10932
H_ H_ 0.481574 0.0911761 0.806281 0.10932
H_ H_ 0.200884 0.16172 0.695472 0.10932
H_ H_ 0.426811 0.140222 0.678206 0.10932
H_ H_ 0.182996 0.139916 0.829174 0.10932
H_ H_ 0.453786 0.160468 0.80685 0.10932
H_ H_ 0.220741 0.0953006 0.689219 0.10932
H_ H_ 0.454502 0.0768898 0.675339 0.10932
H_ H_ 0.0239843 0.0946593 0.684539 0.10932
H_ H_ 0.294405 0.0719555 0.685893 0.10932
H_ H_ 0.078459 0.139329 0.816244 0.10932
H_ H_ 0.303119 0.15682 0.813659 0.10932
H_ H_ 0.0524422 0.16042 0.685676 0.10932
H_ H_ 0.324779 0.135824 0.68412 0.10932
H_ H_ 0.0522266 0.0726747 0.810129 0.10932
H_ H_ 0.277153 0.0897054 0.817923 0.10932
H_ H_ 0.123128 0.325298 0.857239 0.10932
H_ H_ 0.383206 0.311888 0.855565 0.10932
H_ H_ 0.113864 0.196689 0.86278 0.10932
H_ H_ 0.362305 0.185004 0.854414 0.10932
H_ H_ 0.109473 0.199703 0.939542 0.10932
H_ H_ 0.358642 0.18521 0.931498 0.10932
H_ H_ 0.118438 0.330801 0.933956 0.10932
H_ H_ 0.379573 0.315699 0.932281 0.10932
H_ H_ 0.154402 0.181185 0.647195 0.10932
H_ H_ 0.370589 0.183749 0.632334 0.10932
H_ H_ 0.106234 0.292899 0.63297 0.10932
H_ H_ 0.376401 0.313014 0.642977 0.10932
H_ H_ 0.11384 0.292355 0.556578 0.10932
H_ H_ 0.380463 0.320139 0.568042 0.10932
H_ H_ 0.162756 0.175461 0.572182 0.10932
H_ H_ 0.367287 0.190351 0.554465 0.10932
C_ C_ 0.0672883 0.349011 0.740291 -0.02249
C_ C_ 0.313625 0.346465 0.746198 -0.02249
C_ C_ 0.0149338 0.461193 0.733527 -0.02249
C_ C_ 0.266066 0.465183 0.744845 -0.02249
C_ C_ 0.0394763 0.400082 0.699451 -0.11473
C_ C_ 0.296602 0.409394 0.708161 -0.11473
C_ C_ 0.0562929 0.366442 0.775691 -0.11473
C_ C_ 0.296285 0.359616 0.779959 -0.11473
C_ C_ 0.0596834 0.367683 0.700331 -0.11473
C_ C_ 0.310702 0.371882 0.70979 -0.11473
C_ C_ 0.0327105 0.421871 0.73613 -0.02249
C_ C_ 0.282149 0.423865 0.742776 -0.02249
C_ C_ 0.0896067 0.313192 0.743494 0.6875
C_ C_ 0.336215 0.310263 0.746671 0.6875
C_ C_ 0.0427899 0.405294 0.774151 -0.11473
C_ C_ 0.283551 0.397844 0.779569 -0.11473
C_ C_ 0.183874 0.353753 0.753972 -0.02249
C_ C_ 0.433231 0.349399 0.747032 -0.02249
C_ C_ 0.234117 0.465828 0.744355 -0.02249
C_ C_ 0.486217 0.462705 0.763575 -0.02249
C_ C_ 0.204186 0.416561 0.785564 -0.11473
C_ C_ 0.457 0.404574 0.791144 -0.11473
C_ C_ 0.195923 0.365519 0.715365 -0.11473
C_ C_ 0.44712 0.367221 0.71102 -0.11473
C_ C_ 0.186494 0.379768 0.788961 -0.11473
C_ C_ 0.440833 0.366429 0.787408 -0.11473
C_ C_ 0.216814 0.426814 0.747381 -0.02249
C_ C_ 0.470312 0.422399 0.755696 -0.02249
C_ C_ 0.16488 0.315562 0.757512 0.6875
C_ C_ 0.413952 0.311613 0.744647 0.6875
C_ C_ 0.209891 0.403339 0.711287 -0.11473
C_ C_ 0.465303 0.403445 0.715411 -0.11473
C_ C_ 0.186733 0.154111 0.760275 -0.02249
C_ C_ 0.43472 0.152228 0.742543 -0.02249
C_ C_ 0.236101 0.0370477 0.755342 -0.02249
C_ C_ 0.488 0.0382159 0.737769 -0.02249
C_ C_ 0.205833 0.0922162 0.795843 -0.11473
C_ C_ 0.469938 0.102648 0.777271 -0.11473
C_ C_ 0.200564 0.142186 0.723223 -0.11473
C_ C_ 0.439773 0.131652 0.704838 -0.11473
C_ C_ 0.191462 0.130583 0.797529 -0.11473
C_ C_ 0.450891 0.13942 0.779412 -0.11473
C_ C_ 0.219899 0.0779755 0.757684 -0.02249
C_ C_ 0.470036 0.0787201 0.740417 -0.02249
C_ C_ 0.164588 0.189014 0.760117 0.6875
C_ C_ 0.413655 0.190225 0.745329 0.6875
C_ C_ 0.215957 0.104783 0.721101 -0.11473
C_ C_ 0.453227 0.0929438 0.705083 -0.11473
C_ C_ 0.0677696 0.15528 0.750665 -0.02249
C_ C_ 0.318038 0.151191 0.748988 -0.02249
C_ C_ 0.0200968 0.0398808 0.746818 -0.02249
C_ C_ 0.26805 0.0374122 0.753073 -0.02249
C_ C_ 0.0378951 0.103521 0.712285 -0.11473
C_ C_ 0.297701 0.0888647 0.71423 -0.11473
C_ C_ 0.068708 0.12964 0.785572 -0.11473
C_ C_ 0.304455 0.136349 0.786778 -0.11473
C_ C_ 0.0531675 0.141736 0.712478 -0.11473
C_ C_ 0.313201 0.127952 0.712194 -0.11473
C_ C_ 0.0361436 0.0804991 0.747837 -0.02249
C_ C_ 0.285056 0.0755038 0.752426 -0.02249
C_ C_ 0.0881963 0.192864 0.750451 0.6875
C_ C_ 0.337908 0.189875 0.748779 0.6875
C_ C_ 0.0526725 0.0912303 0.784484 -0.11473
C_ C_ 0.289268 0.0972199 0.789205 -0.11473
C_ C_ 0.122254 0.296546 0.876258 0.17695
C_ C_ 0.377553 0.284891 0.87259 0.17695
C_ C_ 0.113389 0.225363 0.879403 0.17695
C_ C_ 0.367571 0.213924 0.871447 0.17695
C_ C_ 0.112496 0.227679 0.922921 -0.11473
C_ C_ 0.36441 0.212684 0.916214 -0.11473
C_ C_ 0.118296 0.265296 0.944633 0.23465
C_ C_ 0.369947 0.249759 0.939302 0.23465
C_ C_ 0.120625 0.299974 0.918839 -0.11473
C_ C_ 0.376138 0.285616 0.916917 -0.11473
C_ C_ 0.148855 0.207991 0.628734 0.17695
C_ C_ 0.372349 0.214059 0.617428 0.17695
C_ C_ 0.118367 0.268711 0.618274 0.17695
C_ C_ 0.373983 0.285998 0.624748 0.17695
C_ C_ 0.1237 0.267927 0.575406 -0.11473
C_ C_ 0.376533 0.289413 0.581221 -0.11473
C_ C_ 0.138323 0.232989 0.557749 0.23465
C_ C_ 0.374136 0.256065 0.555906 0.23465
C_ C_ 0.150604 0.202443 0.584884 -0.11473
C_ C_ 0.374352 0.216966 0.574283 -0.11473
C_ C_ 0.0306738 0.499755 0.731149 0.05793
C_ C_ 0.283098 0.502524 0.747158 0.05793
C_ C_ 0.220902 -0.0009550000000000392 0.748676 0.05793
C_ C_ 0.472574 0.999624 0.737646 0.05793
Br Br 0.0738885 0.496298 0.73883 -0.17191
Br Br 0.326901 0.500685 0.738373 -0.17191
Br Br 0.178234 0.000217406 0.745901 -0.17191
Br Br 0.428805 1.00191421 0.741949 -0.17191
N_ N_ 0.120151 0.25892 0.857212 -0.272
N_ N_ 0.374388 0.248688 0.851073 -0.272
N_ N_ 0.1171 0.269958 0.989959 -0.12501
N_ N_ 0.362333 0.252495 0.982129 -0.12501
N_ N_ 0.133284 0.241007 0.643989 -0.272
N_ N_ 0.372155 0.248018 0.642142 -0.272
N_ N_ 0.14102 0.227592 0.51304 -0.12501
N_ N_ 0.377622 0.262373 0.51247 -0.12501
O_ O_ 0.0942697 0.293228 0.708309 -0.60745
O_ O_ 0.341327 0.290668 0.711723 -0.60745
O_ O_ 0.100508 0.300848 0.778479 -0.60745
O_ O_ 0.342315 0.294651 0.782201 -0.60745
O_ O_ 0.163326 0.293883 0.79213 -0.60745
O_ O_ 0.407215 0.296233 0.778866 -0.60745
O_ O_ 0.155724 0.29856 0.723685 -0.60745
O_ O_ 0.400159 0.302397 0.709242 -0.60745
O_ O_ 0.153312 0.20289 0.794055 -0.60745
O_ O_ 0.402977 0.199864 0.779285 -0.60745
O_ O_ 0.157749 0.206376 0.725512 -0.60745
O_ O_ 0.409656 0.213306 0.713243 -0.60745
O_ O_ 0.100436 0.201456 0.71572 -0.60745
O_ O_ 0.346777 0.205271 0.713936 -0.60745
O_ O_ 0.092447 0.216105 0.782464 -0.60745
O_ O_ 0.343102 0.209449 0.782779 -0.60745
Zn Zn 0.12199 0.752041 0.279648 0.9476
Zn Zn 0.374979 0.751646 0.28745 0.9476
Zn Zn 0.122688 0.749198 0.212069 0.9476
Zn Zn 0.374365 0.744861 0.21615 0.9476
H_ H_ 0.0302451 0.917684 0.179034 0.10932
H_ H_ 0.292736 0.916306 0.176946 0.10932
H_ H_ 0.0464488 0.844434 0.311895 0.10932
H_ H_ 0.298394 0.844388 0.311241 0.10932
H_ H_ 0.0680108 0.862906 0.182079 0.10932
H_ H_ 0.324988 0.856607 0.183872 0.10932
H_ H_ 0.018373 0.911631 0.310594 0.10932
H_ H_ 0.266914 0.908324 0.305738 0.10932
H_ H_ 0.206852 0.926679 0.303411 0.10932
H_ H_ 0.445482 0.933395 0.312714 0.10932
H_ H_ 0.190639 0.843675 0.171613 0.10932
H_ H_ 0.441729 0.849144 0.185149 0.10932
H_ H_ 0.177529 0.861165 0.307277 0.10932
H_ H_ 0.426549 0.863292 0.317935 0.10932
H_ H_ 0.216976 0.911403 0.171459 0.10932
H_ H_ 0.466835 0.916027 0.184462 0.10932
H_ H_ 0.224096 0.594515 0.311522 0.10932
H_ H_ 0.465358 0.580506 0.316188 0.10932
H_ H_ 0.166409 0.626388 0.185673 0.10932
H_ H_ 0.437609 0.647703 0.182838 0.10932
H_ H_ 0.195617 0.661426 0.313828 0.10932
H_ H_ 0.43758 0.646456 0.320011 0.10932
H_ H_ 0.199293 0.568568 0.188024 0.10932
H_ H_ 0.46552 0.583465 0.182526 0.10932
H_ H_ 0.0390762 0.574277 0.175238 0.10932
H_ H_ 0.286 0.575887 0.186266 0.10932
H_ H_ 0.060091 0.64439 0.312572 0.10932
H_ H_ 0.313889 0.646983 0.31924 0.10932
H_ H_ 0.0628683 0.642283 0.175532 0.10932
H_ H_ 0.317671 0.638158 0.186601 0.10932
H_ H_ 0.0347523 0.577439 0.311466 0.10932
H_ H_ 0.28121 0.588352 0.318741 0.10932
H_ H_ 0.112054 0.818843 0.350676 0.10932
H_ H_ 0.376833 0.685041 0.363935 0.10932
H_ H_ 0.130213 0.686458 0.357994 0.10932
H_ H_ 0.382662 0.816719 0.357048 0.10932
H_ H_ 0.135974 0.687779 0.433289 0.10932
H_ H_ 0.391104 0.820606 0.434381 0.10932
H_ H_ 0.113224 0.819481 0.433977 0.10932
H_ H_ 0.36647 0.692372 0.437228 0.10932
H_ H_ 0.162787 0.758502 0.145087 0.10932
H_ H_ 0.373347 0.683962 0.141932 0.10932
H_ H_ 0.0723709 0.727356 0.130411 0.10932
H_ H_ 0.384295 0.812872 0.141024 0.10932
H_ H_ 0.0731258 0.73378 0.0521046 0.10932
H_ H_ 0.384233 0.810556 0.0642488 0.10932
H_ H_ 0.167123 0.772307 0.067429 0.10932
H_ H_ 0.358296 0.683587 0.0645983 0.10932
C_ C_ 0.0594757 0.846398 0.246837 -0.02249
C_ C_ 0.314454 0.845345 0.249518 -0.02249
C_ C_ 0.00676977 0.961737 0.245626 -0.02249
C_ C_ 0.264369 0.959216 0.236411 -0.02249
C_ C_ 0.0342484 0.90359 0.207574 -0.11473
C_ C_ 0.291892 0.89801 0.205655 -0.11473
C_ C_ 0.0437379 0.861853 0.2831 -0.11473
C_ C_ 0.299588 0.862732 0.28378 -0.11473
C_ C_ 0.0542592 0.869547 0.210448 -0.11473
C_ C_ 0.313787 0.86824 0.212355 -0.11473
C_ C_ 0.022606 0.919771 0.245263 -0.02249
C_ C_ 0.280906 0.917834 0.241604 -0.02249
C_ C_ 0.0818431 0.809505 0.247869 0.6875
C_ C_ 0.333331 0.807445 0.25243 0.6875
C_ C_ 0.0291723 0.899844 0.28307 -0.11473
C_ C_ 0.283581 0.899085 0.280281 -0.11473
C_ C_ 0.18121 0.846354 0.24093 -0.02249
C_ C_ 0.431726 0.848141 0.251818 -0.02249
C_ C_ 0.232608 0.960946 0.23512 -0.02249
C_ C_ 0.477721 0.966258 0.253145 -0.02249
C_ C_ 0.204416 0.908109 0.274843 -0.11473
C_ C_ 0.446127 0.913158 0.285994 -0.11473
C_ C_ 0.192956 0.860346 0.202333 -0.11473
C_ C_ 0.443393 0.864764 0.213299 -0.11473
C_ C_ 0.187482 0.870589 0.276797 -0.11473
C_ C_ 0.435404 0.873157 0.286986 -0.11473
C_ C_ 0.216008 0.920689 0.236449 -0.02249
C_ C_ 0.459553 0.928366 0.248832 -0.02249
C_ C_ 0.160785 0.809973 0.243462 0.6875
C_ C_ 0.416564 0.806097 0.253184 0.6875
C_ C_ 0.210595 0.896652 0.200877 -0.11473
C_ C_ 0.456798 0.904701 0.21245 -0.11473
C_ C_ 0.179499 0.650972 0.24666 -0.02249
C_ C_ 0.434788 0.650551 0.250369 -0.02249
C_ C_ 0.231644 0.537157 0.255578 -0.02249
C_ C_ 0.485381 0.5373 0.24985 -0.02249
C_ C_ 0.213997 0.604898 0.285024 -0.11473
C_ C_ 0.458251 0.594745 0.288071 -0.11473
C_ C_ 0.181823 0.623634 0.212925 -0.11473
C_ C_ 0.445998 0.635617 0.212885 -0.11473
C_ C_ 0.195384 0.640876 0.28509 -0.11473
C_ C_ 0.443445 0.633288 0.289035 -0.11473
C_ C_ 0.213024 0.574973 0.25322 -0.02249
C_ C_ 0.46822 0.577492 0.250136 -0.02249
C_ C_ 0.160395 0.688548 0.242974 0.6875
C_ C_ 0.414192 0.688439 0.2494 0.6875
C_ C_ 0.197691 0.585764 0.216319 -0.11473
C_ C_ 0.460913 0.597542 0.212608 -0.11473
C_ C_ 0.0665154 0.648123 0.243994 -0.02249
C_ C_ 0.315415 0.651437 0.251077 -0.02249
C_ C_ 0.0140226 0.532144 0.24643 -0.02249
C_ C_ 0.263144 0.539138 0.251728 -0.02249
C_ C_ 0.0442106 0.58913 0.205593 -0.11473
C_ C_ 0.288402 0.594974 0.215349 -0.11473
C_ C_ 0.0549363 0.630925 0.282259 -0.11473
C_ C_ 0.304929 0.636482 0.288861 -0.11473
C_ C_ 0.0579414 0.628962 0.204931 -0.11473
C_ C_ 0.307981 0.628317 0.213684 -0.11473
C_ C_ 0.032805 0.572013 0.243241 -0.02249
C_ C_ 0.278864 0.579592 0.252429 -0.02249
C_ C_ 0.0865177 0.686334 0.245116 0.6875
C_ C_ 0.335484 0.688237 0.250691 0.6875
C_ C_ 0.0393296 0.592683 0.281897 -0.11473
C_ C_ 0.288585 0.599667 0.289068 -0.11473
C_ C_ 0.115563 0.78945 0.370386 0.17695
C_ C_ 0.378633 0.716572 0.378472 0.17695
C_ C_ 0.128773 0.717814 0.373386 0.17695
C_ C_ 0.380091 0.789596 0.376883 0.17695
C_ C_ 0.129043 0.717126 0.417081 -0.11473
C_ C_ 0.384353 0.792855 0.420239 -0.11473
C_ C_ 0.121871 0.752092 0.438252 0.23465
C_ C_ 0.381869 0.756829 0.444366 0.23465
C_ C_ 0.117361 0.790974 0.416068 -0.11473
C_ C_ 0.377078 0.718216 0.421791 -0.11473
C_ C_ 0.145306 0.754944 0.122869 0.17695
C_ C_ 0.368201 0.712066 0.124617 0.17695
C_ C_ 0.092874 0.737842 0.115825 0.17695
C_ C_ 0.380156 0.783143 0.122861 0.17695
C_ C_ 0.0944598 0.740075 0.0716459 -0.11473
C_ C_ 0.378265 0.782595 0.0798014 -0.11473
C_ C_ 0.121599 0.752685 0.0533166 0.23465
C_ C_ 0.373189 0.74645 0.0578634 0.23465
C_ C_ 0.148045 0.757151 0.0793003 -0.11473
C_ C_ 0.366931 0.710423 0.0805984 -0.11473
C_ C_ 0.0243187 0.998225 0.247021 0.05793
C_ C_ 0.281029 0.996526 0.237846 0.05793
C_ C_ 0.215852 0.499083 0.259238 0.05793
C_ C_ 0.468733 0.500063 0.24834 0.05793
Br Br 0.0672536 -0.0037000000000000366 0.256188 -0.17191
Br Br 0.325689 0.995529 0.244176 -0.17191
Br Br 0.171338 0.495561 0.25851 -0.17191
Br Br 0.426591 0.499751 0.231023 -0.17191
N_ N_ 0.124246 0.75378 0.351642 -0.272
N_ N_ 0.379723 0.752487 0.356708 -0.272
N_ N_ 0.116046 0.750597 0.483485 -0.12501
N_ N_ 0.380818 0.758965 0.488165 -0.12501
N_ N_ 0.118963 0.744399 0.140302 -0.272
N_ N_ 0.374503 0.74767 0.145223 -0.272
N_ N_ 0.123594 0.758884 0.00994781 -0.12501
N_ N_ 0.372979 0.740358 0.0130899 -0.12501
O_ O_ 0.0925775 0.79462 0.214937 -0.60745
O_ O_ 0.343485 0.792857 0.219129 -0.60745
O_ O_ 0.0883368 0.791399 0.282999 -0.60745
O_ O_ 0.342112 0.792825 0.288609 -0.60745
O_ O_ 0.148971 0.800627 0.278804 -0.60745
O_ O_ 0.40642 0.79234 0.287459 -0.60745
O_ O_ 0.154475 0.78956 0.211309 -0.60745
O_ O_ 0.406497 0.790614 0.2182 -0.60745
O_ O_ 0.154854 0.710073 0.274439 -0.60745
O_ O_ 0.405434 0.705787 0.283612 -0.60745
O_ O_ 0.149842 0.699719 0.207495 -0.60745
O_ O_ 0.405299 0.701584 0.212786 -0.60745
O_ O_ 0.0892835 0.708998 0.211693 -0.60745
O_ O_ 0.34488 0.702406 0.216425 -0.60745
O_ O_ 0.0968099 0.699369 0.2802 -0.60745
O_ O_ 0.343421 0.70546 0.286416 -0.60745
Zn Zn 0.123835 0.752236 0.781755 0.9476
Zn Zn 0.377144 0.752075 0.7839 0.9476
Zn Zn 0.126768 0.750097 0.714754 0.9476
Zn Zn 0.375025 0.750066 0.712656 0.9476
H_ H_ 0.0288353 0.910922 0.683522 0.10932
H_ H_ 0.292352 0.928156 0.681576 0.10932
H_ H_ 0.0802834 0.86288 0.813284 0.10932
H_ H_ 0.3092 0.846261 0.810633 0.10932
H_ H_ 0.0497536 0.839706 0.685576 0.10932
H_ H_ 0.325481 0.867758 0.674531 0.10932
H_ H_ 0.0595936 0.930375 0.810321 0.10932
H_ H_ 0.280574 0.909814 0.813296 0.10932
H_ H_ 0.218719 0.918321 0.813269 0.10932
H_ H_ 0.483806 0.901507 0.802166 0.10932
H_ H_ 0.186357 0.850061 0.682219 0.10932
H_ H_ 0.420559 0.864985 0.678034 0.10932
H_ H_ 0.189864 0.854974 0.817021 0.10932
H_ H_ 0.451292 0.839921 0.804452 0.10932
H_ H_ 0.216503 0.914114 0.68315 0.10932
H_ H_ 0.45065 0.930695 0.678409 0.10932
H_ H_ 0.229101 0.599014 0.819096 0.10932
H_ H_ 0.468963 0.588353 0.824571 0.10932
H_ H_ 0.180891 0.643509 0.684247 0.10932
H_ H_ 0.424056 0.637428 0.689318 0.10932
H_ H_ 0.194388 0.662423 0.814467 0.10932
H_ H_ 0.438774 0.645721 0.823267 0.10932
H_ H_ 0.213604 0.580485 0.685961 0.10932
H_ H_ 0.455444 0.573864 0.689213 0.10932
H_ H_ 0.0307789 0.58605 0.6745 0.10932
H_ H_ 0.273764 0.592476 0.687647 0.10932
H_ H_ 0.0630446 0.646012 0.809167 0.10932
H_ H_ 0.329151 0.637081 0.81501 0.10932
H_ H_ 0.0555692 0.652984 0.674408 0.10932
H_ H_ 0.296814 0.663995 0.68966 0.10932
H_ H_ 0.0440649 0.577399 0.803926 0.10932
H_ H_ 0.301498 0.574504 0.814909 0.10932
H_ H_ 0.131684 0.814596 0.864755 0.10932
H_ H_ 0.378266 0.819837 0.853015 0.10932
H_ H_ 0.120141 0.683482 0.847425 0.10932
H_ H_ 0.373938 0.689882 0.86275 0.10932
H_ H_ 0.10244 0.681391 0.921541 0.10932
H_ H_ 0.377486 0.694656 0.939339 0.10932
H_ H_ 0.127854 0.8066 0.940115 0.10932
H_ H_ 0.383844 0.824991 0.929969 0.10932
H_ H_ 0.177565 0.746547 0.64265 0.10932
H_ H_ 0.379256 0.81014 0.634779 0.10932
H_ H_ 0.0814564 0.744856 0.631035 0.10932
H_ H_ 0.365421 0.680824 0.648237 0.10932
H_ H_ 0.0848069 0.740418 0.55535 0.10932
H_ H_ 0.364459 0.671042 0.569338 0.10932
H_ H_ 0.181279 0.737136 0.568319 0.10932
H_ H_ 0.382519 0.803444 0.556603 0.10932
C_ C_ 0.0651377 0.844835 0.75139 -0.02249
C_ C_ 0.319016 0.850704 0.742143 -0.02249
C_ C_ 0.0207524 0.964791 0.750914 -0.02249
C_ C_ 0.268246 0.960644 0.750324 -0.02249
C_ C_ 0.0362619 0.898173 0.713772 -0.11473
C_ C_ 0.298082 0.911696 0.709937 -0.11473
C_ C_ 0.067474 0.871773 0.78591 -0.11473
C_ C_ 0.307663 0.865747 0.781269 -0.11473
C_ C_ 0.0495215 0.85776 0.716 -0.11473
C_ C_ 0.314668 0.87481 0.705863 -0.11473
C_ C_ 0.0379322 0.92427 0.748934 -0.02249
C_ C_ 0.284214 0.92201 0.746889 -0.02249
C_ C_ 0.0842773 0.807233 0.750668 0.6875
C_ C_ 0.337497 0.811838 0.741658 0.6875
C_ C_ 0.0540577 0.910517 0.784565 -0.11473
C_ C_ 0.291502 0.902093 0.78294 -0.11473
C_ C_ 0.187313 0.843298 0.750833 -0.02249
C_ C_ 0.436377 0.846411 0.739746 -0.02249
C_ C_ 0.236545 0.960282 0.74859 -0.02249
C_ C_ 0.487846 0.960752 0.740447 -0.02249
C_ C_ 0.211996 0.902441 0.785651 -0.11473
C_ C_ 0.472615 0.891916 0.774773 -0.11473
C_ C_ 0.195592 0.861354 0.71224 -0.11473
C_ C_ 0.435596 0.872498 0.704688 -0.11473
C_ C_ 0.19681 0.865391 0.787681 -0.11473
C_ C_ 0.456514 0.854495 0.774496 -0.11473
C_ C_ 0.219362 0.920712 0.747832 -0.02249
C_ C_ 0.470071 0.920274 0.742139 -0.02249
C_ C_ 0.166092 0.807477 0.751581 0.6875
C_ C_ 0.414922 0.812023 0.742294 0.6875
C_ C_ 0.210462 0.900013 0.711197 -0.11473
C_ C_ 0.450636 0.910252 0.706037 -0.11473
C_ C_ 0.187647 0.659437 0.748077 -0.02249
C_ C_ 0.430983 0.650694 0.75436 -0.02249
C_ C_ 0.23679 0.542214 0.755548 -0.02249
C_ C_ 0.48698 0.540717 0.759137 -0.02249
C_ C_ 0.219085 0.609792 0.788923 -0.11473
C_ C_ 0.461967 0.599648 0.792886 -0.11473
C_ C_ 0.190273 0.63363 0.712781 -0.11473
C_ C_ 0.433746 0.627061 0.717863 -0.11473
C_ C_ 0.202191 0.648136 0.785359 -0.11473
C_ C_ 0.444039 0.634277 0.792037 -0.11473
C_ C_ 0.2212 0.584014 0.754369 -0.02249
C_ C_ 0.469773 0.580618 0.756286 -0.02249
C_ C_ 0.16875 0.696017 0.746402 0.6875
C_ C_ 0.41339 0.690086 0.752656 0.6875
C_ C_ 0.208801 0.597449 0.715267 -0.11473
C_ C_ 0.454651 0.593742 0.717493 -0.11473
C_ C_ 0.0623355 0.655242 0.743517 -0.02249
C_ C_ 0.316716 0.654285 0.753118 -0.02249
C_ C_ 0.0149351 0.538018 0.735263 -0.02249
C_ C_ 0.268324 0.53996 0.752739 -0.02249
C_ C_ 0.0366702 0.59982 0.70483 -0.11473
C_ C_ 0.285965 0.602758 0.715757 -0.11473
C_ C_ 0.0577939 0.632447 0.778979 -0.11473
C_ C_ 0.315287 0.62984 0.788405 -0.11473
C_ C_ 0.0516026 0.637916 0.704616 -0.11473
C_ C_ 0.299825 0.641485 0.716482 -0.11473
C_ C_ 0.0315183 0.578292 0.739989 -0.02249
C_ C_ 0.286489 0.578312 0.751025 -0.02249
C_ C_ 0.084561 0.690053 0.743207 0.6875
C_ C_ 0.338481 0.691252 0.752209 0.6875
C_ C_ 0.0415833 0.596476 0.778536 -0.11473
C_ C_ 0.301086 0.591753 0.78616 -0.11473
C_ C_ 0.123911 0.784469 0.877199 0.17695
C_ C_ 0.37751 0.793273 0.872978 0.17695
C_ C_ 0.117765 0.713406 0.867985 0.17695
C_ C_ 0.373342 0.719344 0.87726 0.17695
C_ C_ 0.112486 0.709112 0.911104 -0.11473
C_ C_ 0.370918 0.721986 0.92106 -0.11473
C_ C_ 0.115847 0.741609 0.938914 0.23465
C_ C_ 0.374877 0.760042 0.941402 0.23465
C_ C_ 0.121354 0.780966 0.92094 -0.11473
C_ C_ 0.379711 0.794611 0.915807 -0.11473
C_ C_ 0.156364 0.743294 0.62545 0.17695
C_ C_ 0.37975 0.779984 0.618858 0.17695
C_ C_ 0.103094 0.744978 0.618349 0.17695
C_ C_ 0.370859 0.707302 0.62848 0.17695
C_ C_ 0.105725 0.743272 0.573196 -0.11473
C_ C_ 0.369667 0.700832 0.584653 -0.11473
C_ C_ 0.133195 0.74568 0.553783 0.23465
C_ C_ 0.375105 0.73574 0.557033 0.23465
C_ C_ 0.159232 0.745014 0.581096 -0.11473
C_ C_ 0.376905 0.775663 0.574834 -0.11473
C_ C_ 0.0364211 0.00234975 0.752026 0.05793
C_ C_ 0.284054 0.00038999999999989043 0.748724 0.05793
C_ C_ 0.220181 0.505112 0.752323 0.05793
C_ C_ 0.471314 0.501407 0.758961 0.05793
Br Br 0.0789596 0.000693164 0.745935 -0.17191
Br Br 0.327781 -6.60000000000105e-05 0.747674 -0.17191
Br Br 0.177776 0.509638 0.754942 -0.17191
Br Br 0.428975 0.501708 0.768553 -0.17191
N_ N_ 0.123265 0.750743 0.851519 -0.272
N_ N_ 0.372514 0.755586 0.854294 -0.272
N_ N_ 0.109172 0.737666 0.983521 -0.12501
N_ N_ 0.376853 0.767924 0.98625 -0.12501
N_ N_ 0.128648 0.747884 0.642796 -0.272
N_ N_ 0.374313 0.746295 0.643692 -0.272
N_ N_ 0.137062 0.746581 0.510041 -0.12501
N_ N_ 0.375578 0.729618 0.511958 -0.12501
O_ O_ 0.0929254 0.792289 0.717158 -0.60745
O_ O_ 0.346294 0.795407 0.707532 -0.60745
O_ O_ 0.0897371 0.790099 0.785187 -0.60745
O_ O_ 0.346585 0.796558 0.77753 -0.60745
O_ O_ 0.154558 0.795911 0.785593 -0.60745
O_ O_ 0.408301 0.795967 0.778384 -0.60745
O_ O_ 0.157763 0.790852 0.716578 -0.60745
O_ O_ 0.404996 0.794805 0.708557 -0.60745
O_ O_ 0.159014 0.711625 0.780847 -0.60745
O_ O_ 0.406365 0.708694 0.786435 -0.60745
O_ O_ 0.158228 0.70827 0.711593 -0.60745
O_ O_ 0.406683 0.706391 0.718038 -0.60745
O_ O_ 0.0912413 0.70757 0.709437 -0.60745
O_ O_ 0.34657 0.704049 0.716208 -0.60745
O_ O_ 0.0941062 0.704111 0.777245 -0.60745
O_ O_ 0.347153 0.709513 0.786902 -0.60745
Zn Zn 0.627407 0.250495 0.292928 0.9476
Zn Zn 0.868304 0.247469 0.280806 0.9476
Zn Zn 0.625257 0.248097 0.2229 0.9476
Zn Zn 0.868223 0.247961 0.211688 0.9476
H_ H_ 0.525051 0.402579 0.187525 0.10932
H_ H_ 0.774706 0.413802 0.183234 0.10932
H_ H_ 0.572032 0.358066 0.323511 0.10932
H_ H_ 0.816985 0.357951 0.315692 0.10932
H_ H_ 0.555885 0.337441 0.191387 0.10932
H_ H_ 0.797718 0.344232 0.183993 0.10932
H_ H_ 0.541939 0.424705 0.317455 0.10932
H_ H_ 0.791364 0.419021 0.318848 0.10932
H_ H_ 0.717415 0.419579 0.324362 0.10932
H_ H_ 0.974372 0.40029 0.310967 0.10932
H_ H_ 0.684619 0.356898 0.190344 0.10932
H_ H_ 0.920604 0.359241 0.182207 0.10932
H_ H_ 0.692756 0.350816 0.3255 0.10932
H_ H_ 0.940228 0.339706 0.31095 0.10932
H_ H_ 0.714773 0.421264 0.194751 0.10932
H_ H_ 0.951325 0.424308 0.182656 0.10932
H_ H_ 0.723142 0.0834973 0.312823 0.10932
H_ H_ 0.977704 0.0979242 0.304409 0.10932
H_ H_ 0.676174 0.142022 0.188958 0.10932
H_ H_ 0.914202 0.131315 0.179062 0.10932
H_ H_ 0.691452 0.145328 0.315301 0.10932
H_ H_ 0.945531 0.164311 0.304724 0.10932
H_ H_ 0.70592 0.0800907 0.177622 0.10932
H_ H_ 0.945454 0.0716756 0.18212 0.10932
H_ H_ 0.550476 0.0624388 0.204872 0.10932
H_ H_ 0.764851 0.0891159 0.183776 0.10932
H_ H_ 0.554137 0.162025 0.323325 0.10932
H_ H_ 0.817802 0.137396 0.311709 0.10932
H_ H_ 0.587356 0.12108 0.20426 0.10932
H_ H_ 0.797358 0.152533 0.180052 0.10932
H_ H_ 0.518535 0.101101 0.322077 0.10932
H_ H_ 0.785585 0.0762084 0.310736 0.10932
H_ H_ 0.63473 0.188225 0.357586 0.10932
H_ H_ 0.875638 0.183297 0.358694 0.10932
H_ H_ 0.625236 0.315387 0.370607 0.10932
H_ H_ 0.868309 0.314039 0.35547 0.10932
H_ H_ 0.62011 0.303099 0.450551 0.10932
H_ H_ 0.870293 0.316678 0.433971 0.10932
H_ H_ 0.635389 0.173964 0.43231 0.10932
H_ H_ 0.877925 0.183299 0.435084 0.10932
H_ H_ 0.631357 0.185915 0.14441 0.10932
H_ H_ 0.823005 0.24275 0.138735 0.10932
H_ H_ 0.614073 0.311337 0.157904 0.10932
H_ H_ 0.916044 0.235125 0.138313 0.10932
H_ H_ 0.609997 0.32238 0.0821486 0.10932
H_ H_ 0.917123 0.230061 0.060704 0.10932
H_ H_ 0.626304 0.191804 0.0665773 0.10932
H_ H_ 0.818865 0.245604 0.0606567 0.10932
C_ C_ 0.565399 0.343501 0.256416 -0.02249
C_ C_ 0.812546 0.346333 0.247993 -0.02249
C_ C_ 0.515189 0.459695 0.250381 -0.02249
C_ C_ 0.767167 0.464788 0.253836 -0.02249
C_ C_ 0.536566 0.394656 0.216996 -0.11473
C_ C_ 0.786564 0.404027 0.212488 -0.11473
C_ C_ 0.560945 0.367962 0.293349 -0.11473
C_ C_ 0.808997 0.369313 0.287379 -0.11473
C_ C_ 0.553432 0.356927 0.21845 -0.11473
C_ C_ 0.799574 0.362893 0.21215 -0.11473
C_ C_ 0.531755 0.419345 0.251946 -0.02249
C_ C_ 0.784449 0.426382 0.250508 -0.02249
C_ C_ 0.585729 0.306964 0.258478 0.6875
C_ C_ 0.832592 0.311504 0.244521 0.6875
C_ C_ 0.54512 0.405806 0.289788 -0.11473
C_ C_ 0.794313 0.40681 0.288235 -0.11473
C_ C_ 0.684377 0.348051 0.258705 -0.02249
C_ C_ 0.927051 0.345299 0.245643 -0.02249
C_ C_ 0.734769 0.4638 0.258266 -0.02249
C_ C_ 0.981715 0.4573 0.250819 -0.02249
C_ C_ 0.712638 0.401512 0.295237 -0.11473
C_ C_ 0.961026 0.391803 0.28365 -0.11473
C_ C_ 0.691542 0.368201 0.219339 -0.11473
C_ C_ 0.933127 0.366441 0.208398 -0.11473
C_ C_ 0.694571 0.366799 0.295743 -0.11473
C_ C_ 0.940404 0.358758 0.283173 -0.11473
C_ C_ 0.718387 0.422111 0.257682 -0.02249
C_ C_ 0.963204 0.41823 0.249082 -0.02249
C_ C_ 0.66414 0.31098 0.257991 0.6875
C_ C_ 0.908636 0.307537 0.245218 0.6875
C_ C_ 0.710369 0.403062 0.220629 -0.11473
C_ C_ 0.949573 0.403857 0.209785 -0.11473
C_ C_ 0.679251 0.145671 0.253326 -0.02249
C_ C_ 0.926413 0.153004 0.242925 -0.02249
C_ C_ 0.731435 0.0328995 0.243366 -0.02249
C_ C_ 0.977922 0.0396016 0.244508 -0.02249
C_ C_ 0.712098 0.0949554 0.285562 -0.11473
C_ C_ 0.960359 0.103293 0.279943 -0.11473
C_ C_ 0.680681 0.123736 0.215549 -0.11473
C_ C_ 0.930041 0.12925 0.205503 -0.11473
C_ C_ 0.697239 0.132409 0.287004 -0.11473
C_ C_ 0.944275 0.14211 0.278185 -0.11473
C_ C_ 0.713553 0.0723529 0.247108 -0.02249
C_ C_ 0.962208 0.0802533 0.244024 -0.02249
C_ C_ 0.661793 0.187032 0.255562 0.6875
C_ C_ 0.904867 0.187615 0.244393 0.6875
C_ C_ 0.700478 0.0901643 0.210164 -0.11473
C_ C_ 0.948598 0.0939771 0.20595 -0.11473
C_ C_ 0.573137 0.14726 0.262683 -0.02249
C_ C_ 0.80891 0.151994 0.245375 -0.02249
C_ C_ 0.513343 0.0412621 0.26403 -0.02249
C_ C_ 0.762951 0.0340064 0.245352 -0.02249
C_ C_ 0.551531 0.0847636 0.229541 -0.11473
C_ C_ 0.778303 0.100212 0.210832 -0.11473
C_ C_ 0.552635 0.14169 0.296308 -0.11473
C_ C_ 0.804712 0.129333 0.284135 -0.11473
C_ C_ 0.572121 0.11815 0.229697 -0.11473
C_ C_ 0.795541 0.136583 0.208029 -0.11473
C_ C_ 0.532432 0.0789675 0.262089 -0.02249
C_ C_ 0.779575 0.0743956 0.24588 -0.02249
C_ C_ 0.590551 0.184747 0.260657 0.6875
C_ C_ 0.826419 0.191876 0.245578 0.6875
C_ C_ 0.532655 0.106866 0.297054 -0.11473
C_ C_ 0.790108 0.0911886 0.283188 -0.11473
C_ C_ 0.63275 0.21195 0.379949 0.17695
C_ C_ 0.869842 0.211503 0.37494 0.17695
C_ C_ 0.627562 0.284112 0.386155 0.17695
C_ C_ 0.866629 0.284027 0.372193 0.17695
C_ C_ 0.623556 0.278519 0.430676 -0.11473
C_ C_ 0.868313 0.285994 0.417865 -0.11473
C_ C_ 0.630088 0.239952 0.450376 0.23465
C_ C_ 0.867488 0.24885 0.440983 0.23465
C_ C_ 0.635042 0.2061 0.4231 -0.11473
C_ C_ 0.870999 0.212317 0.417746 -0.11473
C_ C_ 0.627267 0.214956 0.130407 0.17695
C_ C_ 0.842932 0.246638 0.120056 0.17695
C_ C_ 0.61718 0.285831 0.137792 0.17695
C_ C_ 0.896129 0.242798 0.119574 0.17695
C_ C_ 0.614969 0.291386 0.0942806 -0.11473
C_ C_ 0.895381 0.238614 0.0758401 -0.11473
C_ C_ 0.621272 0.257347 0.0676347 0.23465
C_ C_ 0.86759 0.24271 0.0534271 0.23465
C_ C_ 0.62786 0.218377 0.0860647 -0.11473
C_ C_ 0.841018 0.246073 0.0763876 -0.11473
C_ C_ 0.532489 0.495282 0.253157 0.05793
C_ C_ 0.779837 0.502286 0.239752 0.05793
C_ C_ 0.717067 0.993439 0.24318 0.05793
C_ C_ 0.960769 1.00331215 0.2477 0.05793
Br Br 0.575999 0.489313 0.248534 -0.17191
Br Br 0.820904 0.500849 0.214419 -0.17191
Br Br 0.673802 -0.01017800000000002 0.242112 -0.17191
Br Br 0.917559 0.00475218 0.254148 -0.17191
N_ N_ 0.631868 0.250299 0.362352 -0.272
N_ N_ 0.869064 0.247421 0.351603 -0.272
N_ N_ 0.631744 0.234446 0.493889 -0.12501
N_ N_ 0.8737 0.247416 0.48505 -0.12501
N_ N_ 0.623516 0.249015 0.155192 -0.272
N_ N_ 0.869813 0.24757 0.139394 -0.272
N_ N_ 0.621806 0.265056 0.0228512 -0.12501
N_ N_ 0.86678 0.239076 0.00756068 -0.12501
O_ O_ 0.592372 0.28843 0.223938 -0.60745
O_ O_ 0.837697 0.294495 0.209492 -0.60745
O_ O_ 0.59811 0.294254 0.293237 -0.60745
O_ O_ 0.840761 0.293512 0.277955 -0.60745
O_ O_ 0.658599 0.295285 0.292041 -0.60745
O_ O_ 0.904293 0.287681 0.279841 -0.60745
O_ O_ 0.652488 0.296067 0.222688 -0.60745
O_ O_ 0.897519 0.295052 0.211787 -0.60745
O_ O_ 0.654916 0.203315 0.29025 -0.60745
O_ O_ 0.894199 0.200056 0.279183 -0.60745
O_ O_ 0.655576 0.204066 0.221336 -0.60745
O_ O_ 0.898085 0.205395 0.211467 -0.60745
O_ O_ 0.597203 0.201038 0.224974 -0.60745
O_ O_ 0.837876 0.205501 0.211906 -0.60745
O_ O_ 0.599244 0.202572 0.293871 -0.60745
O_ O_ 0.833967 0.208293 0.280467 -0.60745
Zn Zn 0.62726 0.254585 0.793234 0.9476
Zn Zn 0.882427 0.250118 0.78135 0.9476
Zn Zn 0.62447 0.251829 0.722075 0.9476
Zn Zn 0.876671 0.248407 0.712644 0.9476
H_ H_ 0.530424 0.416502 0.694307 0.10932
H_ H_ 0.796242 0.428851 0.688371 0.10932
H_ H_ 0.563433 0.350409 0.827604 0.10932
H_ H_ 0.801752 0.337791 0.812541 0.10932
H_ H_ 0.555609 0.345837 0.692408 0.10932
H_ H_ 0.833386 0.37351 0.694351 0.10932
H_ H_ 0.545482 0.42158 0.825574 0.10932
H_ H_ 0.771871 0.404756 0.815429 0.10932
H_ H_ 0.709757 0.433036 0.82085 0.10932
H_ H_ 0.962784 0.42519 0.803406 0.10932
H_ H_ 0.691793 0.346876 0.696021 0.10932
H_ H_ 0.942604 0.34393 0.67625 0.10932
H_ H_ 0.687367 0.368475 0.82511 0.10932
H_ H_ 0.925881 0.37073 0.807097 0.10932
H_ H_ 0.725264 0.405038 0.690523 0.10932
H_ H_ 0.967604 0.41331 0.671905 0.10932
H_ H_ 0.730302 0.0949886 0.819515 0.10932
H_ H_ 0.985286 0.097905 0.811922 0.10932
H_ H_ 0.672906 0.14037 0.688459 0.10932
H_ H_ 0.928702 0.136757 0.681743 0.10932
H_ H_ 0.70304 0.163086 0.817166 0.10932
H_ H_ 0.950223 0.159142 0.812639 0.10932
H_ H_ 0.708049 0.0808023 0.688375 0.10932
H_ H_ 0.961813 0.0771814 0.684167 0.10932
H_ H_ 0.538488 0.0863972 0.676107 0.10932
H_ H_ 0.794182 0.0711747 0.689847 0.10932
H_ H_ 0.562824 0.149386 0.813615 0.10932
H_ H_ 0.8104 0.161371 0.81714 0.10932
H_ H_ 0.573489 0.146524 0.680121 0.10932
H_ H_ 0.829127 0.129837 0.685934 0.10932
H_ H_ 0.536847 0.0826937 0.811305 0.10932
H_ H_ 0.784942 0.0903288 0.818988 0.10932
H_ H_ 0.602125 0.305904 0.86836 0.10932
H_ H_ 0.934609 0.264214 0.85647 0.10932
H_ H_ 0.635517 0.188099 0.860201 0.10932
H_ H_ 0.84009 0.251462 0.856409 0.10932
H_ H_ 0.647047 0.184081 0.938366 0.10932
H_ H_ 0.839939 0.246996 0.934098 0.10932
H_ H_ 0.606453 0.305513 0.947147 0.10932
H_ H_ 0.934277 0.273555 0.933726 0.10932
H_ H_ 0.632598 0.191502 0.643595 0.10932
H_ H_ 0.917435 0.231126 0.627558 0.10932
H_ H_ 0.619443 0.319068 0.653263 0.10932
H_ H_ 0.827497 0.260576 0.652752 0.10932
H_ H_ 0.619881 0.325755 0.572363 0.10932
H_ H_ 0.820256 0.272813 0.574304 0.10932
H_ H_ 0.639487 0.194237 0.569622 0.10932
H_ H_ 0.908574 0.241707 0.552996 0.10932
C_ C_ 0.565127 0.347738 0.758479 -0.02249
C_ C_ 0.819131 0.347474 0.750178 -0.02249
C_ C_ 0.518976 0.46514 0.761046 -0.02249
C_ C_ 0.768536 0.464322 0.755094 -0.02249
C_ C_ 0.537267 0.402302 0.722408 -0.11473
C_ C_ 0.799334 0.411397 0.717027 -0.11473
C_ C_ 0.557405 0.364756 0.798108 -0.11473
C_ C_ 0.802663 0.358578 0.785952 -0.11473
C_ C_ 0.554902 0.366431 0.720188 -0.11473
C_ C_ 0.81818 0.376182 0.71813 -0.11473
C_ C_ 0.53661 0.425846 0.760449 -0.02249
C_ C_ 0.783814 0.422707 0.753643 -0.02249
C_ C_ 0.585257 0.310729 0.756633 0.6875
C_ C_ 0.840022 0.311568 0.747516 0.6875
C_ C_ 0.54742 0.406656 0.798161 -0.11473
C_ C_ 0.786674 0.396799 0.788651 -0.11473
C_ C_ 0.682028 0.355148 0.761729 -0.02249
C_ C_ 0.933179 0.349937 0.742935 -0.02249
C_ C_ 0.737168 0.465778 0.751182 -0.02249
C_ C_ 0.983591 0.461758 0.73459 -0.02249
C_ C_ 0.708163 0.415814 0.791975 -0.11473
C_ C_ 0.955191 0.411094 0.775271 -0.11473
C_ C_ 0.694503 0.366534 0.722404 -0.11473
C_ C_ 0.945723 0.361676 0.705696 -0.11473
C_ C_ 0.690306 0.380041 0.795466 -0.11473
C_ C_ 0.935349 0.377605 0.777154 -0.11473
C_ C_ 0.720002 0.427051 0.754618 -0.02249
C_ C_ 0.968141 0.422235 0.737844 -0.02249
C_ C_ 0.664043 0.31443 0.763493 0.6875
C_ C_ 0.918354 0.309098 0.745981 0.6875
C_ C_ 0.713542 0.401535 0.720024 -0.11473
C_ C_ 0.95932 0.400005 0.700693 -0.11473
C_ C_ 0.686204 0.157619 0.754606 -0.02249
C_ C_ 0.937504 0.154283 0.747148 -0.02249
C_ C_ 0.735588 0.0406734 0.754951 -0.02249
C_ C_ 0.988024 0.0404285 0.752153 -0.02249
C_ C_ 0.715054 0.10387 0.792019 -0.11473
C_ C_ 0.968658 0.104306 0.786047 -0.11473
C_ C_ 0.685768 0.131173 0.71811 -0.11473
C_ C_ 0.939433 0.128707 0.711271 -0.11473
C_ C_ 0.700599 0.142308 0.792151 -0.11473
C_ C_ 0.950587 0.139647 0.78546 -0.11473
C_ C_ 0.71816 0.0813749 0.754705 -0.02249
C_ C_ 0.971625 0.0805163 0.750194 -0.02249
C_ C_ 0.667783 0.196602 0.755194 0.6875
C_ C_ 0.917713 0.190807 0.745685 0.6875
C_ C_ 0.705553 0.0955553 0.716749 -0.11473
C_ C_ 0.955878 0.0916671 0.714257 -0.11473
C_ C_ 0.569342 0.153715 0.747585 -0.02249
C_ C_ 0.82362 0.150418 0.752126 -0.02249
C_ C_ 0.519274 0.0383441 0.737223 -0.02249
C_ C_ 0.768224 0.0406263 0.758149 -0.02249
C_ C_ 0.542897 0.100459 0.706885 -0.11473
C_ C_ 0.798974 0.0921464 0.717255 -0.11473
C_ C_ 0.557873 0.133265 0.784054 -0.11473
C_ C_ 0.805877 0.142875 0.788359 -0.11473
C_ C_ 0.562314 0.136227 0.707948 -0.11473
C_ C_ 0.817835 0.125547 0.715454 -0.11473
C_ C_ 0.5347 0.079338 0.742506 -0.02249
C_ C_ 0.786848 0.0806525 0.755693 -0.02249
C_ C_ 0.590122 0.189709 0.75056 0.6875
C_ C_ 0.842 0.18822 0.749256 0.6875
C_ C_ 0.543134 0.0952062 0.782537 -0.11473
C_ C_ 0.793818 0.103224 0.79196 -0.11473
C_ C_ 0.612975 0.280329 0.88596 0.17695
C_ C_ 0.913986 0.256545 0.872887 0.17695
C_ C_ 0.634487 0.215316 0.879674 0.17695
C_ C_ 0.860883 0.248601 0.873592 0.17695
C_ C_ 0.638363 0.21218 0.924599 -0.11473
C_ C_ 0.860924 0.247142 0.918278 -0.11473
C_ C_ 0.629162 0.244081 0.95097 0.23465
C_ C_ 0.887602 0.251525 0.941164 0.23465
C_ C_ 0.615669 0.279349 0.930492 -0.11473
C_ C_ 0.914853 0.257447 0.919233 -0.11473
C_ C_ 0.632105 0.220243 0.629789 0.17695
C_ C_ 0.89511 0.236193 0.618221 0.17695
C_ C_ 0.622722 0.292025 0.633926 0.17695
C_ C_ 0.845895 0.257485 0.630084 0.17695
C_ C_ 0.623 0.294655 0.587624 -0.11473
C_ C_ 0.840764 0.259258 0.585885 -0.11473
C_ C_ 0.629781 0.259535 0.563198 0.23465
C_ C_ 0.86298 0.254588 0.55773 0.23465
C_ C_ 0.633306 0.222318 0.585966 -0.11473
C_ C_ 0.890215 0.241407 0.574494 -0.11473
C_ C_ 0.535294 0.503023 0.762781 0.05793
C_ C_ 0.784558 0.501657 0.759437 0.05793
C_ C_ 0.720555 0.00267108 0.755836 0.05793
C_ C_ 0.973573 0.00289816 0.751 0.05793
Br Br 0.578298 0.50092 0.762368 -0.17191
Br Br 0.828263 0.500025 0.769889 -0.17191
Br Br 0.678605 0.000561714 0.741054 -0.17191
Br Br 0.92949 0.00485859 0.753579 -0.17191
N_ N_ 0.623952 0.249239 0.862903 -0.272
N_ N_ 0.887294 0.249566 0.852665 -0.272
N_ N_ 0.632098 0.23959 0.996884 -0.12501
N_ N_ 0.888509 0.249959 0.985433 -0.12501
N_ N_ 0.627665 0.255229 0.653483 -0.272
N_ N_ 0.873579 0.245892 0.644306 -0.272
N_ N_ 0.629737 0.264383 0.518541 -0.12501
N_ N_ 0.854877 0.256071 0.512551 -0.12501
O_ O_ 0.592097 0.292295 0.722723 -0.60745
O_ O_ 0.849424 0.297884 0.712939 -0.60745
O_ O_ 0.594396 0.294753 0.790758 -0.60745
O_ O_ 0.847392 0.291709 0.780614 -0.60745
O_ O_ 0.658653 0.297893 0.797299 -0.60745
O_ O_ 0.91044 0.297563 0.780735 -0.60745
O_ O_ 0.652732 0.300135 0.729868 -0.60745
O_ O_ 0.909685 0.290371 0.713107 -0.60745
O_ O_ 0.66386 0.215341 0.790067 -0.60745
O_ O_ 0.917299 0.213211 0.777951 -0.60745
O_ O_ 0.656541 0.21096 0.721113 -0.60745
O_ O_ 0.906697 0.204516 0.711935 -0.60745
O_ O_ 0.59606 0.209443 0.717532 -0.60745
O_ O_ 0.843562 0.207257 0.715331 -0.60745
O_ O_ 0.59715 0.206088 0.785748 -0.60745
O_ O_ 0.854848 0.202084 0.782429 -0.60745
Zn Zn 0.622259 0.750989 0.294419 0.9476
Zn Zn 0.877111 0.747352 0.287306 0.9476
Zn Zn 0.621552 0.751982 0.22236 0.9476
Zn Zn 0.877852 0.747523 0.215599 0.9476
H_ H_ 0.544983 0.939619 0.207271 0.10932
H_ H_ 0.781212 0.909458 0.177567 0.10932
H_ H_ 0.540568 0.834819 0.322361 0.10932
H_ H_ 0.812438 0.851229 0.316099 0.10932
H_ H_ 0.576871 0.873895 0.208686 0.10932
H_ H_ 0.807192 0.844815 0.181436 0.10932
H_ H_ 0.505641 0.895606 0.321546 0.10932
H_ H_ 0.782151 0.914216 0.312786 0.10932
H_ H_ 0.709112 0.92381 0.313291 0.10932
H_ H_ 0.95864 0.925571 0.314318 0.10932
H_ H_ 0.694231 0.837168 0.184979 0.10932
H_ H_ 0.9326 0.847169 0.185703 0.10932
H_ H_ 0.675154 0.86261 0.316558 0.10932
H_ H_ 0.946771 0.849336 0.318496 0.10932
H_ H_ 0.719237 0.905065 0.178727 0.10932
H_ H_ 0.952712 0.920967 0.180884 0.10932
H_ H_ 0.723767 0.594919 0.319336 0.10932
H_ H_ 0.952931 0.566631 0.305719 0.10932
H_ H_ 0.67293 0.640531 0.187525 0.10932
H_ H_ 0.940294 0.64775 0.181777 0.10932
H_ H_ 0.694892 0.660301 0.315253 0.10932
H_ H_ 0.929161 0.632404 0.313382 0.10932
H_ H_ 0.703766 0.574668 0.189467 0.10932
H_ H_ 0.977226 0.588637 0.183937 0.10932
H_ H_ 0.543872 0.577385 0.189371 0.10932
H_ H_ 0.776869 0.587799 0.176874 0.10932
H_ H_ 0.560842 0.645044 0.327165 0.10932
H_ H_ 0.816563 0.639332 0.312723 0.10932
H_ H_ 0.570135 0.637936 0.190683 0.10932
H_ H_ 0.804292 0.655476 0.18176 0.10932
H_ H_ 0.533405 0.579796 0.321707 0.10932
H_ H_ 0.793724 0.574108 0.308217 0.10932
H_ H_ 0.634294 0.692754 0.371357 0.10932
H_ H_ 0.827496 0.759462 0.346534 0.10932
H_ H_ 0.628197 0.818315 0.361057 0.10932
H_ H_ 0.919564 0.73013 0.368253 0.10932
H_ H_ 0.627422 0.825411 0.43925 0.10932
H_ H_ 0.909098 0.723285 0.446985 0.10932
H_ H_ 0.635937 0.693486 0.448274 0.10932
H_ H_ 0.815871 0.753313 0.425405 0.10932
H_ H_ 0.577243 0.726518 0.144733 0.10932
H_ H_ 0.868801 0.686595 0.133043 0.10932
H_ H_ 0.669716 0.752172 0.151275 0.10932
H_ H_ 0.887028 0.814609 0.1509 0.10932
H_ H_ 0.669988 0.758763 0.0746479 0.10932
H_ H_ 0.888912 0.826496 0.0715051 0.10932
H_ H_ 0.580015 0.718223 0.0642709 0.10932
H_ H_ 0.877032 0.69427 0.0558078 0.10932
C_ C_ 0.558711 0.846669 0.262281 -0.02249
C_ C_ 0.816245 0.845359 0.247761 -0.02249
C_ C_ 0.508756 0.963974 0.267187 -0.02249
C_ C_ 0.765279 0.958465 0.243262 -0.02249
C_ C_ 0.543604 0.914804 0.231508 -0.11473
C_ C_ 0.790026 0.898714 0.208044 -0.11473
C_ C_ 0.539923 0.856112 0.295175 -0.11473
C_ C_ 0.807572 0.865693 0.286156 -0.11473
C_ C_ 0.559313 0.877027 0.230348 -0.11473
C_ C_ 0.804854 0.860881 0.209517 -0.11473
C_ C_ 0.524516 0.923385 0.265877 -0.02249
C_ C_ 0.784549 0.920177 0.247186 -0.02249
C_ C_ 0.581222 0.812629 0.262235 0.6875
C_ C_ 0.835959 0.805897 0.249748 0.6875
C_ C_ 0.522148 0.892985 0.297899 -0.11473
C_ C_ 0.790573 0.901623 0.284618 -0.11473
C_ C_ 0.683251 0.843872 0.251787 -0.02249
C_ C_ 0.932824 0.846794 0.251321 -0.02249
C_ C_ 0.73435 0.956883 0.24677 -0.02249
C_ C_ 0.97523 0.964932 0.244997 -0.02249
C_ C_ 0.705601 0.904386 0.285159 -0.11473
C_ C_ 0.953493 0.907399 0.286003 -0.11473
C_ C_ 0.697269 0.855606 0.214059 -0.11473
C_ C_ 0.938633 0.863795 0.212685 -0.11473
C_ C_ 0.687052 0.869246 0.287122 -0.11473
C_ C_ 0.94398 0.866065 0.288516 -0.11473
C_ C_ 0.718568 0.917047 0.247524 -0.02249
C_ C_ 0.956999 0.926374 0.247645 -0.02249
C_ C_ 0.660415 0.810879 0.252801 0.6875
C_ C_ 0.916516 0.806036 0.253823 0.6875
C_ C_ 0.71087 0.895556 0.211126 -0.11473
C_ C_ 0.950614 0.904841 0.210119 -0.11473
C_ C_ 0.679468 0.651665 0.252283 -0.02249
C_ C_ 0.933414 0.649106 0.248278 -0.02249
C_ C_ 0.733806 0.539687 0.257904 -0.02249
C_ C_ 0.982242 0.532149 0.242914 -0.02249
C_ C_ 0.712608 0.603217 0.290772 -0.11473
C_ C_ 0.951662 0.58574 0.279986 -0.11473
C_ C_ 0.682972 0.627895 0.21638 -0.11473
C_ C_ 0.948408 0.63618 0.211835 -0.11473
C_ C_ 0.69528 0.639761 0.288063 -0.11473
C_ C_ 0.938095 0.624597 0.283164 -0.11473
C_ C_ 0.7159 0.577794 0.254416 -0.02249
C_ C_ 0.964608 0.571944 0.244994 -0.02249
C_ C_ 0.65799 0.689724 0.254304 0.6875
C_ C_ 0.914888 0.686649 0.250103 0.6875
C_ C_ 0.69949 0.58927 0.218784 -0.11473
C_ C_ 0.964636 0.598542 0.211016 -0.11473
C_ C_ 0.566993 0.649364 0.259713 -0.02249
C_ C_ 0.814199 0.652934 0.246738 -0.02249
C_ C_ 0.516803 0.532381 0.250897 -0.02249
C_ C_ 0.764429 0.540411 0.241554 -0.02249
C_ C_ 0.54639 0.591424 0.219392 -0.11473
C_ C_ 0.785741 0.60176 0.206135 -0.11473
C_ C_ 0.554753 0.632338 0.296937 -0.11473
C_ C_ 0.807496 0.631214 0.283398 -0.11473
C_ C_ 0.562551 0.627396 0.2205 -0.11473
C_ C_ 0.799019 0.640494 0.209651 -0.11473
C_ C_ 0.534009 0.573392 0.254966 -0.02249
C_ C_ 0.781146 0.577921 0.242433 -0.02249
C_ C_ 0.582175 0.690898 0.25985 0.6875
C_ C_ 0.836377 0.688939 0.247997 0.6875
C_ C_ 0.537612 0.59515 0.29299 -0.11473
C_ C_ 0.791269 0.594394 0.280993 -0.11473
C_ C_ 0.636041 0.721519 0.388437 0.17695
C_ C_ 0.844305 0.748861 0.369411 0.17695
C_ C_ 0.629725 0.792381 0.382926 0.17695
C_ C_ 0.896183 0.737423 0.381461 0.17695
C_ C_ 0.625402 0.795412 0.426577 -0.11473
C_ C_ 0.891257 0.735428 0.426371 -0.11473
C_ C_ 0.625965 0.758786 0.451824 0.23465
C_ C_ 0.861296 0.737834 0.442686 0.23465
C_ C_ 0.634747 0.722115 0.431759 -0.11473
C_ C_ 0.838465 0.746376 0.413712 -0.11473
C_ C_ 0.597949 0.731014 0.129298 0.17695
C_ C_ 0.874066 0.716113 0.119958 0.17695
C_ C_ 0.648586 0.749788 0.132283 0.17695
C_ C_ 0.88339 0.788586 0.129591 0.17695
C_ C_ 0.649893 0.748489 0.0879607 -0.11473
C_ C_ 0.88696 0.794762 0.0847862 -0.11473
C_ C_ 0.625173 0.739023 0.063727 0.23465
C_ C_ 0.883345 0.760133 0.0598281 0.23465
C_ C_ 0.598683 0.728192 0.0840144 -0.11473
C_ C_ 0.87787 0.72113 0.0757749 -0.11473
C_ C_ 0.526767 1.000447286 0.267488 0.05793
C_ C_ 0.780036 0.99731 0.242691 0.05793
C_ C_ 0.718652 0.501282 0.260655 0.05793
C_ C_ 0.966287 0.493904 0.244897 0.05793
Br Br 0.566661 0.995251 0.289672 -0.17191
Br Br 0.819906 1.00368677 0.219755 -0.17191
Br Br 0.674958 0.497937 0.266392 -0.17191
Br Br 0.921696 0.496781 0.243429 -0.17191
N_ N_ 0.631069 0.754665 0.365483 -0.272
N_ N_ 0.872293 0.742895 0.354433 -0.272
N_ N_ 0.616722 0.760026 0.495058 -0.12501
N_ N_ 0.854966 0.738924 0.486309 -0.12501
N_ N_ 0.621912 0.745929 0.15139 -0.272
N_ N_ 0.876757 0.749582 0.145283 -0.272
N_ N_ 0.628192 0.73133 0.0182189 -0.12501
N_ N_ 0.886376 0.766709 0.0151241 -0.12501
O_ O_ 0.591975 0.800195 0.227827 -0.60745
O_ O_ 0.843879 0.789362 0.215722 -0.60745
O_ O_ 0.587897 0.791872 0.294492 -0.60745
O_ O_ 0.848273 0.794136 0.28355 -0.60745
O_ O_ 0.652068 0.795477 0.287869 -0.60745
O_ O_ 0.910066 0.790536 0.289461 -0.60745
O_ O_ 0.654947 0.792176 0.217884 -0.60745
O_ O_ 0.907628 0.789233 0.220203 -0.60745
O_ O_ 0.650984 0.705715 0.289689 -0.60745
O_ O_ 0.907793 0.70096 0.285839 -0.60745
O_ O_ 0.648274 0.705533 0.220348 -0.60745
O_ O_ 0.905309 0.702268 0.216068 -0.60745
O_ O_ 0.589284 0.708897 0.225395 -0.60745
O_ O_ 0.84583 0.703965 0.213461 -0.60745
O_ O_ 0.590652 0.705112 0.295409 -0.60745
O_ O_ 0.841618 0.706444 0.28176 -0.60745
Zn Zn 0.629472 0.753229 0.790214 0.9476
Zn Zn 0.879672 0.749 0.787467 0.9476
Zn Zn 0.629566 0.749241 0.720409 0.9476
Zn Zn 0.873594 0.752978 0.717542 0.9476
H_ H_ 0.529735 0.901267 0.676902 0.10932
H_ H_ 0.798529 0.940431 0.701346 0.10932
H_ H_ 0.578711 0.866035 0.814035 0.10932
H_ H_ 0.815357 0.848206 0.823751 0.10932
H_ H_ 0.552636 0.833322 0.688288 0.10932
H_ H_ 0.82555 0.874408 0.692548 0.10932
H_ H_ 0.559775 0.936785 0.801373 0.10932
H_ H_ 0.777458 0.904884 0.827811 0.10932
H_ H_ 0.715406 0.916686 0.826409 0.10932
H_ H_ 0.983088 0.908513 0.812521 0.10932
H_ H_ 0.701748 0.84965 0.688771 0.10932
H_ H_ 0.929024 0.862492 0.684158 0.10932
H_ H_ 0.681236 0.859512 0.820976 0.10932
H_ H_ 0.949668 0.845651 0.815895 0.10932
H_ H_ 0.728884 0.914455 0.697261 0.10932
H_ H_ 0.958122 0.929093 0.683273 0.10932
H_ H_ 0.716035 0.577338 0.822597 0.10932
H_ H_ 0.976845 0.58839 0.80607 0.10932
H_ H_ 0.70277 0.666398 0.693588 0.10932
H_ H_ 0.930862 0.650964 0.675519 0.10932
H_ H_ 0.689836 0.64707 0.826808 0.10932
H_ H_ 0.947678 0.652546 0.810471 0.10932
H_ H_ 0.724922 0.595572 0.689532 0.10932
H_ H_ 0.952772 0.580153 0.67352 0.10932
H_ H_ 0.529804 0.594107 0.694039 0.10932
H_ H_ 0.785309 0.586937 0.68744 0.10932
H_ H_ 0.578468 0.638721 0.827064 0.10932
H_ H_ 0.810937 0.654578 0.822335 0.10932
H_ H_ 0.555351 0.663012 0.700138 0.10932
H_ H_ 0.81461 0.649896 0.686924 0.10932
H_ H_ 0.550116 0.576402 0.824488 0.10932
H_ H_ 0.782045 0.590246 0.822565 0.10932
H_ H_ 0.588293 0.768163 0.869441 0.10932
H_ H_ 0.892194 0.6907 0.85701 0.10932
H_ H_ 0.681867 0.756597 0.862726 0.10932
H_ H_ 0.874184 0.82048 0.864422 0.10932
H_ H_ 0.686527 0.7504 0.938911 0.10932
H_ H_ 0.872774 0.815089 0.941409 0.10932
H_ H_ 0.591267 0.763455 0.949024 0.10932
H_ H_ 0.885903 0.681409 0.931835 0.10932
H_ H_ 0.6259 0.681028 0.65526 0.10932
H_ H_ 0.895984 0.80943 0.63919 0.10932
H_ H_ 0.618912 0.810071 0.643004 0.10932
H_ H_ 0.84203 0.701799 0.644175 0.10932
H_ H_ 0.611676 0.804041 0.565339 0.10932
H_ H_ 0.845097 0.692968 0.566606 0.10932
H_ H_ 0.625207 0.673623 0.578234 0.10932
H_ H_ 0.894561 0.802923 0.561717 0.10932
C_ C_ 0.570187 0.846084 0.749782 -0.02249
C_ C_ 0.822064 0.854319 0.757437 -0.02249
C_ C_ 0.519703 0.96231 0.736433 -0.02249
C_ C_ 0.767846 0.964462 0.769261 -0.02249
C_ C_ 0.53782 0.892836 0.708666 -0.11473
C_ C_ 0.80222 0.918308 0.727234 -0.11473
C_ C_ 0.566691 0.873605 0.784037 -0.11473
C_ C_ 0.808143 0.863854 0.795158 -0.11473
C_ C_ 0.552688 0.853824 0.71385 -0.11473
C_ C_ 0.816655 0.880757 0.722901 -0.11473
C_ C_ 0.537974 0.923175 0.739403 -0.02249
C_ C_ 0.785005 0.924844 0.764453 -0.02249
C_ C_ 0.588956 0.808414 0.751986 0.6875
C_ C_ 0.839483 0.814361 0.7555 0.6875
C_ C_ 0.554797 0.91364 0.777924 -0.11473
C_ C_ 0.788216 0.897513 0.798944 -0.11473
C_ C_ 0.686671 0.850502 0.754426 -0.02249
C_ C_ 0.93431 0.852213 0.750199 -0.02249
C_ C_ 0.736401 0.965229 0.762485 -0.02249
C_ C_ 0.988802 0.964324 0.751953 -0.02249
C_ C_ 0.706441 0.908242 0.795469 -0.11473
C_ C_ 0.968579 0.900389 0.786272 -0.11473
C_ C_ 0.701909 0.86553 0.719101 -0.11473
C_ C_ 0.93935 0.874484 0.71349 -0.11473
C_ C_ 0.691053 0.871451 0.791878 -0.11473
C_ C_ 0.949753 0.863404 0.786052 -0.11473
C_ C_ 0.720109 0.925914 0.760451 -0.02249
C_ C_ 0.971759 0.924292 0.749706 -0.02249
C_ C_ 0.66659 0.812772 0.752324 0.6875
C_ C_ 0.91561 0.812898 0.749996 0.6875
C_ C_ 0.717882 0.902953 0.723333 -0.11473
C_ C_ 0.957504 0.909054 0.711567 -0.11473
C_ C_ 0.691005 0.658078 0.757918 -0.02249
C_ C_ 0.937864 0.65738 0.744316 -0.02249
C_ C_ 0.737193 0.540924 0.753002 -0.02249
C_ C_ 0.982153 0.538488 0.736266 -0.02249
C_ C_ 0.710678 0.596727 0.794478 -0.11473
C_ C_ 0.964051 0.600123 0.778471 -0.11473
C_ C_ 0.70414 0.645278 0.720507 -0.11473
C_ C_ 0.942899 0.638457 0.704762 -0.11473
C_ C_ 0.697765 0.636237 0.795236 -0.11473
C_ C_ 0.950995 0.639275 0.779674 -0.11473
C_ C_ 0.719681 0.580282 0.755457 -0.02249
C_ C_ 0.965851 0.578333 0.739384 -0.02249
C_ C_ 0.672119 0.695802 0.75768 0.6875
C_ C_ 0.915102 0.691389 0.748803 0.6875
C_ C_ 0.717469 0.606049 0.718936 -0.11473
C_ C_ 0.952699 0.596752 0.703924 -0.11473
C_ C_ 0.568515 0.655359 0.764152 -0.02249
C_ C_ 0.819103 0.655197 0.753897 -0.02249
C_ C_ 0.518695 0.541767 0.760652 -0.02249
C_ C_ 0.769214 0.540443 0.757447 -0.02249
C_ C_ 0.536541 0.606739 0.724932 -0.11473
C_ C_ 0.79261 0.599545 0.717302 -0.11473
C_ C_ 0.566681 0.630264 0.798231 -0.11473
C_ C_ 0.808701 0.638285 0.792782 -0.11473
C_ C_ 0.552654 0.644326 0.728289 -0.11473
C_ C_ 0.809175 0.637082 0.716641 -0.11473
C_ C_ 0.534428 0.582012 0.761017 -0.02249
C_ C_ 0.786278 0.580071 0.756891 -0.02249
C_ C_ 0.589097 0.69134 0.763444 0.6875
C_ C_ 0.836912 0.693171 0.755457 0.6875
C_ C_ 0.549302 0.595067 0.797216 -0.11473
C_ C_ 0.791541 0.60197 0.793495 -0.11473
C_ C_ 0.609103 0.761003 0.885026 0.17695
C_ C_ 0.891238 0.718565 0.874787 0.17695
C_ C_ 0.661516 0.756792 0.879742 0.17695
C_ C_ 0.878459 0.788354 0.880253 0.17695
C_ C_ 0.664244 0.752424 0.924286 -0.11473
C_ C_ 0.877818 0.786683 0.925163 -0.11473
C_ C_ 0.638889 0.755746 0.950742 0.23465
C_ C_ 0.881161 0.747152 0.944801 0.23465
C_ C_ 0.610607 0.759582 0.92881 -0.11473
C_ C_ 0.885275 0.711362 0.918394 -0.11473
C_ C_ 0.625253 0.708374 0.636216 0.17695
C_ C_ 0.885434 0.781996 0.623425 0.17695
C_ C_ 0.622032 0.780272 0.63036 0.17695
C_ C_ 0.853914 0.723615 0.625428 0.17695
C_ C_ 0.618244 0.776733 0.585702 -0.11473
C_ C_ 0.852927 0.720421 0.581331 -0.11473
C_ C_ 0.622541 0.739225 0.565536 0.23465
C_ C_ 0.86598 0.750769 0.556482 0.23465
C_ C_ 0.624884 0.703876 0.592206 -0.11473
C_ C_ 0.881821 0.782173 0.578777 -0.11473
C_ C_ 0.535358 0.00163134 0.737361 0.05793
C_ C_ 0.783965 0.00256392 0.764405 0.05793
C_ C_ 0.721257 0.504703 0.747428 0.05793
C_ C_ 0.967454 0.499901 0.732857 0.05793
Br Br 0.57663 0.00462813 0.723016 -0.17191
Br Br 0.825704 1.00211385 0.783123 -0.17191
Br Br 0.679282 0.506239 0.730226 -0.17191
Br Br 0.923783 0.500973 0.729517 -0.17191
N_ N_ 0.634082 0.75762 0.860179 -0.272
N_ N_ 0.8821 0.754224 0.857534 -0.272
N_ N_ 0.642065 0.755941 0.995895 -0.12501
N_ N_ 0.875488 0.741794 0.98839 -0.12501
N_ N_ 0.625087 0.746151 0.653769 -0.272
N_ N_ 0.872425 0.751792 0.645822 -0.272
N_ N_ 0.624227 0.733663 0.521671 -0.12501
N_ N_ 0.874322 0.742294 0.513912 -0.12501
O_ O_ 0.594353 0.786929 0.720191 -0.60745
O_ O_ 0.841879 0.796137 0.720924 -0.60745
O_ O_ 0.599333 0.798705 0.788236 -0.60745
O_ O_ 0.847678 0.795311 0.788616 -0.60745
O_ O_ 0.659518 0.795496 0.786639 -0.60745
O_ O_ 0.911052 0.793949 0.784904 -0.60745
O_ O_ 0.658266 0.798231 0.717859 -0.60745
O_ O_ 0.903202 0.799188 0.716981 -0.60745
O_ O_ 0.662113 0.710832 0.791632 -0.60745
O_ O_ 0.909138 0.704594 0.784097 -0.60745
O_ O_ 0.665818 0.712392 0.722332 -0.60745
O_ O_ 0.908102 0.712574 0.71678 -0.60745
O_ O_ 0.603026 0.698693 0.730738 -0.60745
O_ O_ 0.845329 0.708271 0.721357 -0.60745
O_ O_ 0.597742 0.709833 0.797795 -0.60745
O_ O_ 0.846022 0.707589 0.789209 -0.60745
