_cell_length_a 44.444
_cell_length_b 32.3360000049186
_cell_length_c 31.843999878906452
_cell_angle_alpha 89.99799923859553
_cell_angle_beta 91.13600050494348
_cell_angle_gamma 89.9990006550086
_symmetry_space_group_name_H-M         'P 1'
_symmetry_Int_Tables_number            1
loop_
_symmetry_equiv_pos_as_xyz
   'x, y, z'
                         
loop_
_atom_site_label
_atom_site_type_symbol
_atom_site_fract_x 
_atom_site_fract_y
_atom_site_fract_z
_atom_site_charge
Zn Zn 0.128694 0.249184 0.280289 0.9476
Zn Zn 0.381039 0.252861 0.285924 0.9476
Zn Zn 0.126385 0.245786 0.211993 0.9476
Zn Zn 0.375374 0.252163 0.217751 0.9476
H_ H_ 0.0148115 0.397364 0.184569 0.10932
H_ H_ 0.270724 0.404342 0.187905 0.10932
H_ H_ 0.0905588 0.377757 0.291608 0.10932
H_ H_ 0.335211 0.37502 0.309924 0.10932
H_ H_ 0.0369598 0.325509 0.191284 0.10932
H_ H_ 0.306884 0.349416 0.185075 0.10932
H_ H_ 0.0551722 0.435402 0.301194 0.10932
H_ H_ 0.297528 0.435048 0.311042 0.10932
H_ H_ 0.231867 0.406499 0.305876 0.10932
H_ H_ 0.478188 0.406169 0.324268 0.10932
H_ H_ 0.167954 0.362926 0.18194 0.10932
H_ H_ 0.426962 0.366759 0.189453 0.10932
H_ H_ 0.206018 0.334458 0.305103 0.10932
H_ H_ 0.44715 0.344271 0.321209 0.10932
H_ H_ 0.191997 0.432959 0.186146 0.10932
H_ H_ 0.454046 0.435299 0.195562 0.10932
H_ H_ 0.231357 0.0949573 0.321062 0.10932
H_ H_ 0.481004 0.0952524 0.306375 0.10932
H_ H_ 0.178913 0.131962 0.187571 0.10932
H_ H_ 0.420513 0.131525 0.182069 0.10932
H_ H_ 0.206803 0.160886 0.315554 0.10932
H_ H_ 0.452629 0.15443 0.308344 0.10932
H_ H_ 0.211447 0.069184 0.190989 0.10932
H_ H_ 0.451164 0.0667542 0.180005 0.10932
H_ H_ 0.0268888 0.0858752 0.182506 0.10932
H_ H_ 0.270466 0.0905025 0.19518 0.10932
H_ H_ 0.0756093 0.137445 0.314657 0.10932
H_ H_ 0.32704 0.144466 0.31557 0.10932
H_ H_ 0.0599889 0.145375 0.180081 0.10932
H_ H_ 0.299615 0.154888 0.188604 0.10932
H_ H_ 0.038886 0.0789309 0.317711 0.10932
H_ H_ 0.303939 0.0741794 0.319785 0.10932
H_ H_ 0.134976 0.312794 0.352865 0.10932
H_ H_ 0.375954 0.315537 0.365362 0.10932
H_ H_ 0.121294 0.183662 0.358538 0.10932
H_ H_ 0.372436 0.184414 0.355786 0.10932
H_ H_ 0.121072 0.185659 0.435588 0.10932
H_ H_ 0.374099 0.175305 0.43089 0.10932
H_ H_ 0.14237 0.316979 0.430553 0.10932
H_ H_ 0.382765 0.308652 0.444738 0.10932
H_ H_ 0.118689 0.307964 0.129606 0.10932
H_ H_ 0.375941 0.322415 0.145038 0.10932
H_ H_ 0.131828 0.182449 0.144057 0.10932
H_ H_ 0.358251 0.193003 0.135902 0.10932
H_ H_ 0.1245 0.171261 0.0681714 0.10932
H_ H_ 0.352265 0.203325 0.0600426 0.10932
H_ H_ 0.11558 0.30218 0.0517854 0.10932
H_ H_ 0.384857 0.32572 0.0699515 0.10932
C_ C_ 0.0672073 0.345363 0.242624 -0.02249
C_ C_ 0.320523 0.353503 0.2506 -0.02249
C_ C_ 0.016263 0.462497 0.239037 -0.02249
C_ C_ 0.263968 0.464315 0.246052 -0.02249
C_ C_ 0.0286847 0.390945 0.209535 -0.11473
C_ C_ 0.28602 0.400738 0.213468 -0.11473
C_ C_ 0.070791 0.377141 0.27252 -0.11473
C_ C_ 0.317712 0.37914 0.285232 -0.11473
C_ C_ 0.0437591 0.351177 0.212656 -0.11473
C_ C_ 0.304466 0.365369 0.214745 -0.11473
C_ C_ 0.0321621 0.420973 0.240954 -0.02249
C_ C_ 0.28218 0.425336 0.247919 -0.02249
C_ C_ 0.0875829 0.307254 0.243211 0.6875
C_ C_ 0.342492 0.317705 0.251206 0.6875
C_ C_ 0.0526519 0.413212 0.274783 -0.11473
C_ C_ 0.298423 0.414091 0.284382 -0.11473
C_ C_ 0.184932 0.345033 0.246031 -0.02249
C_ C_ 0.435834 0.350256 0.254748 -0.02249
C_ C_ 0.23215 0.463997 0.246789 -0.02249
C_ C_ 0.488949 0.464103 0.26036 -0.02249
C_ C_ 0.216478 0.396993 0.2812 -0.11473
C_ C_ 0.468795 0.399122 0.294731 -0.11473
C_ C_ 0.180716 0.374449 0.211568 -0.11473
C_ C_ 0.438344 0.375819 0.218624 -0.11473
C_ C_ 0.203081 0.356076 0.280229 -0.11473
C_ C_ 0.450622 0.362942 0.292637 -0.11473
C_ C_ 0.214318 0.423842 0.248285 -0.02249
C_ C_ 0.470935 0.424086 0.257793 -0.02249
C_ C_ 0.165766 0.307157 0.245509 0.6875
C_ C_ 0.417334 0.311515 0.252186 0.6875
C_ C_ 0.196793 0.411967 0.211652 -0.11473
C_ C_ 0.457601 0.410643 0.219762 -0.11473
C_ C_ 0.191636 0.153151 0.249374 -0.02249
C_ C_ 0.432931 0.149382 0.246238 -0.02249
C_ C_ 0.2406 0.0377295 0.258038 -0.02249
C_ C_ 0.48724 0.0373114 0.242408 -0.02249
C_ C_ 0.223846 0.10535 0.291268 -0.11473
C_ C_ 0.471988 0.105071 0.27756 -0.11473
C_ C_ 0.191963 0.125812 0.216231 -0.11473
C_ C_ 0.433891 0.123821 0.209597 -0.11473
C_ C_ 0.208872 0.142715 0.287331 -0.11473
C_ C_ 0.451935 0.138201 0.280227 -0.11473
C_ C_ 0.2246 0.079647 0.255925 -0.02249
C_ C_ 0.472014 0.0787997 0.24079 -0.02249
C_ C_ 0.171286 0.190815 0.248399 0.6875
C_ C_ 0.413227 0.186609 0.249548 0.6875
C_ C_ 0.207933 0.0886813 0.218529 -0.11473
C_ C_ 0.454188 0.0899008 0.206728 -0.11473
C_ C_ 0.0693073 0.147462 0.247153 -0.02249
C_ C_ 0.317586 0.154067 0.251161 -0.02249
C_ C_ 0.0128056 0.0386538 0.253451 -0.02249
C_ C_ 0.272498 0.0365873 0.259928 -0.02249
C_ C_ 0.0344071 0.10017 0.213624 -0.11473
C_ C_ 0.288154 0.0993147 0.217836 -0.11473
C_ C_ 0.0619805 0.129558 0.286513 -0.11473
C_ C_ 0.314364 0.132864 0.288838 -0.11473
C_ C_ 0.055975 0.131038 0.211016 -0.11473
C_ C_ 0.302487 0.136857 0.214975 -0.11473
C_ C_ 0.0293517 0.0791885 0.252033 -0.02249
C_ C_ 0.2908 0.0742474 0.253414 -0.02249
C_ C_ 0.0892712 0.185932 0.245649 0.6875
C_ C_ 0.336637 0.191885 0.248849 0.6875
C_ C_ 0.0423197 0.095586 0.288778 -0.11473
C_ C_ 0.306434 0.0906289 0.288928 -0.11473
C_ C_ 0.132133 0.284514 0.370589 0.17695
C_ C_ 0.377572 0.28542 0.380854 0.17695
C_ C_ 0.125633 0.212157 0.372568 0.17695
C_ C_ 0.377193 0.211966 0.373806 0.17695
C_ C_ 0.126226 0.214607 0.417133 -0.11473
C_ C_ 0.376404 0.207857 0.417727 -0.11473
C_ C_ 0.129949 0.252064 0.439009 0.23465
C_ C_ 0.379263 0.242759 0.443889 0.23465
C_ C_ 0.13512 0.287776 0.416119 -0.11473
C_ C_ 0.379984 0.283041 0.424805 -0.11473
C_ C_ 0.12167 0.279766 0.114752 0.17695
C_ C_ 0.3748 0.294752 0.126527 0.17695
C_ C_ 0.127979 0.208415 0.123441 0.17695
C_ C_ 0.364927 0.223238 0.120851 0.17695
C_ C_ 0.124761 0.201843 0.079986 -0.11473
C_ C_ 0.365036 0.226709 0.0769875 -0.11473
C_ C_ 0.123283 0.236545 0.0533012 0.23465
C_ C_ 0.373165 0.262828 0.0565629 0.23465
C_ C_ 0.121202 0.276536 0.0715076 -0.11473
C_ C_ 0.377192 0.298199 0.083658 -0.11473
C_ C_ 0.0331294 0.499084 0.23235 0.05793
C_ C_ 0.280048 0.502088 0.245267 0.05793
C_ C_ 0.22407 0.000364492 0.261883 0.05793
C_ C_ 0.470313 1.00128968 0.247787 0.05793
Br Br 0.0724797 0.495654 0.205717 -0.17191
Br Br 0.324037 0.50377 0.236462 -0.17191
Br Br 0.181489 0.00409034 0.272752 -0.17191
Br Br 0.429861 1.00643707 0.263903 -0.17191
N_ N_ 0.129885 0.247649 0.351049 -0.272
N_ N_ 0.376684 0.250264 0.356644 -0.272
N_ N_ 0.135476 0.249378 0.482973 -0.12501
N_ N_ 0.374619 0.239804 0.489914 -0.12501
N_ N_ 0.125124 0.246235 0.13952 -0.272
N_ N_ 0.371945 0.25683 0.144904 -0.272
N_ N_ 0.119072 0.232914 0.00841446 -0.12501
N_ N_ 0.374502 0.267361 0.011926 -0.12501
O_ O_ 0.0963923 0.29303 0.209263 -0.60745
O_ O_ 0.348199 0.301118 0.217278 -0.60745
O_ O_ 0.0958565 0.291 0.278163 -0.60745
O_ O_ 0.354706 0.303313 0.284307 -0.60745
O_ O_ 0.156583 0.293889 0.28071 -0.60745
O_ O_ 0.413018 0.292345 0.287122 -0.60745
O_ O_ 0.158442 0.288587 0.212022 -0.60745
O_ O_ 0.403096 0.300093 0.218955 -0.60745
O_ O_ 0.161414 0.206526 0.283202 -0.60745
O_ O_ 0.407208 0.202708 0.283768 -0.60745
O_ O_ 0.159665 0.201635 0.213213 -0.60745
O_ O_ 0.405957 0.206287 0.21655 -0.60745
O_ O_ 0.0951928 0.203169 0.209985 -0.60745
O_ O_ 0.345541 0.205709 0.214443 -0.60745
O_ O_ 0.102436 0.199288 0.279481 -0.60745
O_ O_ 0.342774 0.21159 0.282252 -0.60745
Zn Zn 0.119404 0.250385 0.781671 0.9476
Zn Zn 0.37288 0.249093 0.787566 0.9476
Zn Zn 0.11991 0.249056 0.710538 0.9476
Zn Zn 0.372785 0.249531 0.718266 0.9476
H_ H_ 0.04516 0.42822 0.686601 0.10932
H_ H_ 0.284539 0.419789 0.680606 0.10932
H_ H_ 0.0348921 0.328517 0.801156 0.10932
H_ H_ 0.300339 0.340398 0.81397 0.10932
H_ H_ 0.0802424 0.366225 0.692606 0.10932
H_ H_ 0.312802 0.354313 0.678745 0.10932
H_ H_ 0.0166488 0.402268 0.811489 0.10932
H_ H_ 0.278797 0.413088 0.812006 0.10932
H_ H_ 0.223809 0.407178 0.809686 0.10932
H_ H_ 0.451571 0.430894 0.817819 0.10932
H_ H_ 0.1703 0.359585 0.682496 0.10932
H_ H_ 0.446581 0.340826 0.696139 0.10932
H_ H_ 0.197778 0.343139 0.813211 0.10932
H_ H_ 0.424155 0.365621 0.823228 0.10932
H_ H_ 0.204017 0.421236 0.68185 0.10932
H_ H_ 0.467305 0.410487 0.685627 0.10932
H_ H_ 0.216783 0.0902224 0.81778 0.10932
H_ H_ 0.455651 0.0727007 0.823532 0.10932
H_ H_ 0.186388 0.146889 0.68225 0.10932
H_ H_ 0.436699 0.145328 0.688065 0.10932
H_ H_ 0.197708 0.163729 0.811273 0.10932
H_ H_ 0.422413 0.131655 0.822881 0.10932
H_ H_ 0.208948 0.0753547 0.686237 0.10932
H_ H_ 0.468335 0.0852323 0.691746 0.10932
H_ H_ 0.0461224 0.0688963 0.68181 0.10932
H_ H_ 0.264823 0.100106 0.68838 0.10932
H_ H_ 0.0519036 0.148975 0.813039 0.10932
H_ H_ 0.324423 0.141273 0.812633 0.10932
H_ H_ 0.0717852 0.135195 0.677842 0.10932
H_ H_ 0.299948 0.157197 0.681513 0.10932
H_ H_ 0.0317916 0.0819566 0.813019 0.10932
H_ H_ 0.30189 0.0753268 0.814875 0.10932
H_ H_ 0.11977 0.318476 0.854038 0.10932
H_ H_ 0.383233 0.305688 0.862598 0.10932
H_ H_ 0.120542 0.184683 0.857766 0.10932
H_ H_ 0.368848 0.175558 0.854273 0.10932
H_ H_ 0.128721 0.188793 0.937721 0.10932
H_ H_ 0.374904 0.167488 0.928546 0.10932
H_ H_ 0.124674 0.320396 0.93147 0.10932
H_ H_ 0.388031 0.30377 0.940759 0.10932
H_ H_ 0.0785444 0.275566 0.637267 0.10932
H_ H_ 0.36489 0.195608 0.638192 0.10932
H_ H_ 0.169433 0.241384 0.633466 0.10932
H_ H_ 0.390507 0.319736 0.648177 0.10932
H_ H_ 0.16561 0.239432 0.555171 0.10932
H_ H_ 0.398729 0.322069 0.571659 0.10932
H_ H_ 0.073945 0.270447 0.561615 0.10932
H_ H_ 0.366605 0.198067 0.561054 0.10932
C_ C_ 0.0626597 0.345707 0.748308 -0.02249
C_ C_ 0.312942 0.344427 0.747344 -0.02249
C_ C_ 0.0105661 0.461444 0.748991 -0.02249
C_ C_ 0.26431 0.458192 0.743707 -0.02249
C_ C_ 0.0458156 0.409058 0.714671 -0.11473
C_ C_ 0.289333 0.401891 0.707493 -0.11473
C_ C_ 0.0424157 0.353391 0.78143 -0.11473
C_ C_ 0.298922 0.358741 0.784385 -0.11473
C_ C_ 0.0634949 0.37251 0.715589 -0.11473
C_ C_ 0.306475 0.364273 0.708869 -0.11473
C_ C_ 0.0282394 0.42117 0.749488 -0.02249
C_ C_ 0.27955 0.418268 0.744778 -0.02249
C_ C_ 0.0806891 0.309057 0.747031 0.6875
C_ C_ 0.332979 0.307599 0.74921 0.6875
C_ C_ 0.026468 0.391317 0.782905 -0.11473
C_ C_ 0.284799 0.397897 0.782822 -0.11473
C_ C_ 0.179897 0.345586 0.749293 -0.02249
C_ C_ 0.430699 0.347986 0.758211 -0.02249
C_ C_ 0.23264 0.459636 0.744968 -0.02249
C_ C_ 0.479857 0.462649 0.750341 -0.02249
C_ C_ 0.214278 0.395141 0.781746 -0.11473
C_ C_ 0.44616 0.41311 0.789894 -0.11473
C_ C_ 0.183691 0.368044 0.710845 -0.11473
C_ C_ 0.443076 0.362147 0.718682 -0.11473
C_ C_ 0.196003 0.359978 0.783731 -0.11473
C_ C_ 0.433394 0.374061 0.793993 -0.11473
C_ C_ 0.21515 0.419515 0.745293 -0.02249
C_ C_ 0.461474 0.425285 0.751702 -0.02249
C_ C_ 0.161225 0.307945 0.748237 0.6875
C_ C_ 0.414628 0.306252 0.757617 0.6875
C_ C_ 0.202866 0.40324 0.709885 -0.11473
C_ C_ 0.458238 0.400484 0.716103 -0.11473
C_ C_ 0.183369 0.155404 0.748771 -0.02249
C_ C_ 0.429105 0.147401 0.757087 -0.02249
C_ C_ 0.2328 0.0396466 0.754116 -0.02249
C_ C_ 0.48242 0.0348689 0.75963 -0.02249
C_ C_ 0.211377 0.103376 0.787887 -0.11473
C_ C_ 0.452549 0.0903999 0.795148 -0.11473
C_ C_ 0.186975 0.130874 0.712248 -0.11473
C_ C_ 0.441206 0.132058 0.719373 -0.11473
C_ C_ 0.195795 0.142528 0.785955 -0.11473
C_ C_ 0.434732 0.125002 0.795374 -0.11473
C_ C_ 0.216318 0.079219 0.75327 -0.02249
C_ C_ 0.463567 0.0731431 0.757582 -0.02249
C_ C_ 0.161832 0.191367 0.746626 0.6875
C_ C_ 0.411036 0.186847 0.756478 0.6875
C_ C_ 0.203445 0.0927723 0.714485 -0.11473
C_ C_ 0.458068 0.0936895 0.72019 -0.11473
C_ C_ 0.0608925 0.151084 0.743823 -0.02249
C_ C_ 0.313439 0.154523 0.748894 -0.02249
C_ C_ 0.014714 0.034034 0.74598 -0.02249
C_ C_ 0.264173 0.0409849 0.751189 -0.02249
C_ C_ 0.0430607 0.08882 0.707306 -0.11473
C_ C_ 0.281273 0.104781 0.714887 -0.11473
C_ C_ 0.0474491 0.136642 0.78172 -0.11473
C_ C_ 0.312987 0.129225 0.784541 -0.11473
C_ C_ 0.0595156 0.126568 0.706904 -0.11473
C_ C_ 0.297569 0.141859 0.712692 -0.11473
C_ C_ 0.031367 0.0739874 0.745038 -0.02249
C_ C_ 0.281398 0.0802576 0.751532 -0.02249
C_ C_ 0.0800583 0.189762 0.744151 0.6875
C_ C_ 0.33141 0.192945 0.751058 0.6875
C_ C_ 0.0336139 0.0982069 0.781384 -0.11473
C_ C_ 0.300439 0.0910239 0.785046 -0.11473
C_ C_ 0.120572 0.289851 0.871751 0.17695
C_ C_ 0.380457 0.277181 0.878918 0.17695
C_ C_ 0.124173 0.215074 0.874594 0.17695
C_ C_ 0.370919 0.204748 0.874691 0.17695
C_ C_ 0.128834 0.216437 0.919147 -0.11473
C_ C_ 0.374272 0.200192 0.91771 -0.11473
C_ C_ 0.127074 0.254616 0.941247 0.23465
C_ C_ 0.376641 0.236371 0.943359 0.23465
C_ C_ 0.124031 0.291344 0.915413 -0.11473
C_ C_ 0.380972 0.275866 0.923259 -0.11473
C_ C_ 0.0974952 0.263127 0.621189 0.17695
C_ C_ 0.369395 0.223305 0.623016 0.17695
C_ C_ 0.147452 0.242148 0.617255 0.17695
C_ C_ 0.38824 0.290914 0.629486 0.17695
C_ C_ 0.145804 0.244129 0.573559 -0.11473
C_ C_ 0.390365 0.294229 0.585822 -0.11473
C_ C_ 0.119531 0.251475 0.552248 0.23465
C_ C_ 0.380303 0.262139 0.559299 0.23465
C_ C_ 0.09424 0.259988 0.576758 -0.11473
C_ C_ 0.371626 0.225612 0.577964 -0.11473
C_ C_ 0.0281173 0.500154 0.747784 0.05793
C_ C_ 0.280496 0.495321 0.744517 0.05793
C_ C_ 0.216489 0.000878234 0.749148 0.05793
C_ C_ 0.468312 0.99608 0.758101 0.05793
Br Br 0.0691935 0.502072 0.769688 -0.17191
Br Br 0.323473 0.491647 0.748693 -0.17191
Br Br 0.17302 0.000327307 0.75387 -0.17191
Br Br 0.42606 0.99472 0.761504 -0.17191
N_ N_ 0.121902 0.251474 0.851912 -0.272
N_ N_ 0.373903 0.242334 0.856693 -0.272
N_ N_ 0.130962 0.256892 0.984933 -0.12501
N_ N_ 0.376555 0.234588 0.988906 -0.12501
N_ N_ 0.122686 0.25177 0.640671 -0.272
N_ N_ 0.376372 0.257173 0.647934 -0.272
N_ N_ 0.114017 0.244252 0.507808 -0.12501
N_ N_ 0.38667 0.264912 0.515882 -0.12501
O_ O_ 0.0903197 0.293446 0.71272 -0.60745
O_ O_ 0.341377 0.288816 0.716218 -0.60745
O_ O_ 0.0876695 0.291834 0.782223 -0.60745
O_ O_ 0.341744 0.292815 0.7851 -0.60745
O_ O_ 0.151353 0.295622 0.782698 -0.60745
O_ O_ 0.404456 0.289752 0.791009 -0.60745
O_ O_ 0.152708 0.290794 0.71375 -0.60745
O_ O_ 0.403757 0.29401 0.721908 -0.60745
O_ O_ 0.15174 0.206558 0.78039 -0.60745
O_ O_ 0.405834 0.206032 0.789576 -0.60745
O_ O_ 0.149268 0.201765 0.712613 -0.60745
O_ O_ 0.403005 0.20264 0.722253 -0.60745
O_ O_ 0.0865474 0.207469 0.709582 -0.60745
O_ O_ 0.340403 0.206103 0.717025 -0.60745
O_ O_ 0.0925933 0.20244 0.778556 -0.60745
O_ O_ 0.340811 0.206605 0.786402 -0.60745
Zn Zn 0.123466 0.748302 0.285518 0.9476
Zn Zn 0.37671 0.747531 0.287632 0.9476
Zn Zn 0.124061 0.755571 0.216843 0.9476
Zn Zn 0.375231 0.748962 0.21781 0.9476
H_ H_ 0.0262631 0.917251 0.181573 0.10932
H_ H_ 0.281317 0.916475 0.186152 0.10932
H_ H_ 0.0671457 0.857564 0.319477 0.10932
H_ H_ 0.306649 0.839096 0.31432 0.10932
H_ H_ 0.06518 0.860373 0.184166 0.10932
H_ H_ 0.322085 0.860645 0.184114 0.10932
H_ H_ 0.0370553 0.92463 0.317483 0.10932
H_ H_ 0.280414 0.905437 0.319157 0.10932
H_ H_ 0.217163 0.918581 0.326279 0.10932
H_ H_ 0.466372 0.915435 0.318542 0.10932
H_ H_ 0.178939 0.85833 0.191436 0.10932
H_ H_ 0.440074 0.844486 0.183749 0.10932
H_ H_ 0.192124 0.849508 0.324676 0.10932
H_ H_ 0.435323 0.851154 0.315687 0.10932
H_ H_ 0.212579 0.919254 0.191315 0.10932
H_ H_ 0.470139 0.910579 0.18576 0.10932
H_ H_ 0.223939 0.589532 0.316081 0.10932
H_ H_ 0.471862 0.588 0.325271 0.10932
H_ H_ 0.171243 0.640956 0.18971 0.10932
H_ H_ 0.448243 0.653813 0.187353 0.10932
H_ H_ 0.19991 0.656483 0.316544 0.10932
H_ H_ 0.435033 0.643615 0.320939 0.10932
H_ H_ 0.18896 0.56985 0.190123 0.10932
H_ H_ 0.470151 0.583984 0.18628 0.10932
H_ H_ 0.0267234 0.594407 0.171988 0.10932
H_ H_ 0.2895 0.584555 0.183239 0.10932
H_ H_ 0.0787724 0.630602 0.305452 0.10932
H_ H_ 0.311064 0.64417 0.323603 0.10932
H_ H_ 0.0539581 0.664761 0.177828 0.10932
H_ H_ 0.322955 0.644268 0.18715 0.10932
H_ H_ 0.0542561 0.563683 0.296135 0.10932
H_ H_ 0.281668 0.578669 0.317061 0.10932
H_ H_ 0.13278 0.812178 0.358637 0.10932
H_ H_ 0.36524 0.695204 0.370919 0.10932
H_ H_ 0.107038 0.685974 0.367554 0.10932
H_ H_ 0.394769 0.823842 0.362437 0.10932
H_ H_ 0.0968967 0.694358 0.441773 0.10932
H_ H_ 0.377868 0.832383 0.436888 0.10932
H_ H_ 0.1338 0.81362 0.437575 0.10932
H_ H_ 0.368094 0.699927 0.44651 0.10932
H_ H_ 0.172453 0.771228 0.148087 0.10932
H_ H_ 0.38415 0.679927 0.147633 0.10932
H_ H_ 0.0820939 0.736453 0.135769 0.10932
H_ H_ 0.365076 0.804638 0.137748 0.10932
H_ H_ 0.0852881 0.739531 0.0585496 0.10932
H_ H_ 0.360387 0.80291 0.0607969 0.10932
H_ H_ 0.178864 0.760319 0.0701194 0.10932
H_ H_ 0.375535 0.67022 0.0725351 0.10932
C_ C_ 0.0665633 0.851229 0.250531 -0.02249
C_ C_ 0.315542 0.843609 0.248208 -0.02249
C_ C_ 0.0128614 0.963332 0.248632 -0.02249
C_ C_ 0.268986 0.96102 0.254993 -0.02249
C_ C_ 0.0356376 0.903393 0.212226 -0.11473
C_ C_ 0.291311 0.903497 0.213546 -0.11473
C_ C_ 0.0583197 0.870033 0.288499 -0.11473
C_ C_ 0.301488 0.856336 0.285713 -0.11473
C_ C_ 0.0574998 0.872267 0.21197 -0.11473
C_ C_ 0.309991 0.867464 0.212233 -0.11473
C_ C_ 0.0302457 0.924196 0.250568 -0.02249
C_ C_ 0.282337 0.919183 0.252979 -0.02249
C_ C_ 0.086773 0.813549 0.250634 0.6875
C_ C_ 0.336191 0.806701 0.249442 0.6875
C_ C_ 0.0406844 0.907512 0.288342 -0.11473
C_ C_ 0.288761 0.896426 0.290363 -0.11473
C_ C_ 0.183271 0.847766 0.258114 -0.02249
C_ C_ 0.431883 0.848414 0.251123 -0.02249
C_ C_ 0.237303 0.961294 0.257226 -0.02249
C_ C_ 0.483825 0.961825 0.247973 -0.02249
C_ C_ 0.211492 0.902455 0.297186 -0.11473
C_ C_ 0.456888 0.905428 0.287897 -0.11473
C_ C_ 0.188422 0.86965 0.220328 -0.11473
C_ C_ 0.441611 0.863448 0.213084 -0.11473
C_ C_ 0.193366 0.866287 0.297048 -0.11473
C_ C_ 0.441168 0.8671 0.287981 -0.11473
C_ C_ 0.21843 0.922228 0.259661 -0.02249
C_ C_ 0.465481 0.923121 0.249843 -0.02249
C_ C_ 0.16149 0.810271 0.257022 0.6875
C_ C_ 0.41114 0.811588 0.251614 0.6875
C_ C_ 0.207274 0.905714 0.221143 -0.11473
C_ C_ 0.459477 0.899229 0.213664 -0.11473
C_ C_ 0.182106 0.653489 0.253381 -0.02249
C_ C_ 0.439151 0.65437 0.253466 -0.02249
C_ C_ 0.231004 0.539885 0.246872 -0.02249
C_ C_ 0.490193 0.540977 0.256271 -0.02249
C_ C_ 0.217159 0.605221 0.284955 -0.11473
C_ C_ 0.466505 0.602447 0.29413 -0.11473
C_ C_ 0.183798 0.631018 0.215857 -0.11473
C_ C_ 0.44893 0.636417 0.215607 -0.11473
C_ C_ 0.200131 0.640669 0.287922 -0.11473
C_ C_ 0.443816 0.632777 0.291409 -0.11473
C_ C_ 0.215177 0.580225 0.249035 -0.02249
C_ C_ 0.474671 0.58109 0.256809 -0.02249
C_ C_ 0.16305 0.691086 0.256523 0.6875
C_ C_ 0.416753 0.690398 0.254478 0.6875
C_ C_ 0.195576 0.591303 0.215312 -0.11473
C_ C_ 0.465861 0.599218 0.216197 -0.11473
C_ C_ 0.0666142 0.653748 0.244775 -0.02249
C_ C_ 0.316396 0.650434 0.255269 -0.02249
C_ C_ 0.0187807 0.53803 0.234348 -0.02249
C_ C_ 0.26329 0.539884 0.246917 -0.02249
C_ C_ 0.036978 0.604377 0.201215 -0.11473
C_ C_ 0.292763 0.597704 0.213117 -0.11473
C_ C_ 0.0668044 0.625435 0.276065 -0.11473
C_ C_ 0.304854 0.631665 0.293459 -0.11473
C_ C_ 0.051759 0.64399 0.20644 -0.11473
C_ C_ 0.309937 0.633543 0.216011 -0.11473
C_ C_ 0.0384603 0.57547 0.233604 -0.02249
C_ C_ 0.280319 0.57842 0.249701 -0.02249
C_ C_ 0.0854621 0.692068 0.248138 0.6875
C_ C_ 0.336928 0.687629 0.255641 0.6875
C_ C_ 0.0527495 0.585802 0.270958 -0.11473
C_ C_ 0.288382 0.59517 0.289337 -0.11473
C_ C_ 0.126687 0.784749 0.377047 0.17695
C_ C_ 0.36987 0.725481 0.385475 0.17695
C_ C_ 0.11073 0.715061 0.380781 0.17695
C_ C_ 0.387169 0.794951 0.379416 0.17695
C_ C_ 0.108253 0.717483 0.42469 -0.11473
C_ C_ 0.381644 0.800319 0.422618 -0.11473
C_ C_ 0.113418 0.756244 0.443085 0.23465
C_ C_ 0.374549 0.766403 0.448335 0.23465
C_ C_ 0.125797 0.787845 0.420889 -0.11473
C_ C_ 0.368618 0.729043 0.429858 -0.11473
C_ C_ 0.153255 0.765851 0.126669 0.17695
C_ C_ 0.374373 0.703909 0.129276 0.17695
C_ C_ 0.101148 0.7458 0.119638 0.17695
C_ C_ 0.365282 0.775778 0.124164 0.17695
C_ C_ 0.104215 0.748077 0.0760146 -0.11473
C_ C_ 0.36351 0.773965 0.0801104 -0.11473
C_ C_ 0.13157 0.759795 0.0566433 0.23465
C_ C_ 0.37003 0.736107 0.0612873 0.23465
C_ C_ 0.156919 0.763865 0.0831853 -0.11473
C_ C_ 0.374104 0.701238 0.0867407 -0.11473
C_ C_ 0.0285002 1.000844618 0.249051 0.05793
C_ C_ 0.286078 0.997886 0.255732 0.05793
C_ C_ 0.215777 0.500458 0.246989 0.05793
C_ C_ 0.473194 0.502067 0.257195 0.05793
Br Br 0.0699887 0.00341763 0.235764 -0.17191
Br Br 0.32855 0.99446 0.247992 -0.17191
Br Br 0.17344 0.501297 0.262035 -0.17191
Br Br 0.431099 0.504654 0.270434 -0.17191
N_ N_ 0.121737 0.748527 0.358218 -0.272
N_ N_ 0.379848 0.75782 0.360712 -0.272
N_ N_ 0.109186 0.760321 0.488804 -0.12501
N_ N_ 0.373193 0.771034 0.491709 -0.12501
N_ N_ 0.126717 0.755323 0.144285 -0.272
N_ N_ 0.371616 0.741809 0.148907 -0.272
N_ N_ 0.134284 0.75394 0.0138403 -0.12501
N_ N_ 0.374661 0.733323 0.0172654 -0.12501
O_ O_ 0.0917095 0.795841 0.215756 -0.60745
O_ O_ 0.343035 0.788253 0.216141 -0.60745
O_ O_ 0.0935852 0.795216 0.28398 -0.60745
O_ O_ 0.346666 0.794004 0.283852 -0.60745
O_ O_ 0.153707 0.791507 0.289153 -0.60745
O_ O_ 0.407904 0.790701 0.284779 -0.60745
O_ O_ 0.153216 0.797259 0.221837 -0.60745
O_ O_ 0.402044 0.79784 0.215735 -0.60745
O_ O_ 0.155778 0.703605 0.292608 -0.60745
O_ O_ 0.406335 0.704106 0.289475 -0.60745
O_ O_ 0.156619 0.713486 0.223546 -0.60745
O_ O_ 0.411111 0.709653 0.220064 -0.60745
O_ O_ 0.0970632 0.706934 0.215894 -0.60745
O_ O_ 0.346974 0.702876 0.221833 -0.60745
O_ O_ 0.0915314 0.709227 0.283007 -0.60745
O_ O_ 0.342649 0.705929 0.290577 -0.60745
Zn Zn 0.123503 0.751175 0.784322 0.9476
Zn Zn 0.373344 0.752939 0.787273 0.9476
Zn Zn 0.12552 0.753263 0.71809 0.9476
Zn Zn 0.370965 0.751991 0.718438 0.9476
H_ H_ 0.0366766 0.922655 0.682461 0.10932
H_ H_ 0.281008 0.919138 0.683675 0.10932
H_ H_ 0.0447766 0.836283 0.809843 0.10932
H_ H_ 0.317273 0.864083 0.819821 0.10932
H_ H_ 0.0581427 0.8515 0.681626 0.10932
H_ H_ 0.304821 0.851289 0.685371 0.10932
H_ H_ 0.0205644 0.908554 0.811854 0.10932
H_ H_ 0.289633 0.928591 0.81558 0.10932
H_ H_ 0.205294 0.921223 0.818159 0.10932
H_ H_ 0.485873 0.900549 0.815133 0.10932
H_ H_ 0.191247 0.849564 0.682049 0.10932
H_ H_ 0.418783 0.866116 0.694398 0.10932
H_ H_ 0.177561 0.858197 0.817769 0.10932
H_ H_ 0.451918 0.839224 0.819233 0.10932
H_ H_ 0.224329 0.910029 0.683811 0.10932
H_ H_ 0.443406 0.931513 0.698749 0.10932
H_ H_ 0.226053 0.592981 0.812341 0.10932
H_ H_ 0.457445 0.575025 0.813869 0.10932
H_ H_ 0.178001 0.643142 0.682989 0.10932
H_ H_ 0.443384 0.656896 0.684473 0.10932
H_ H_ 0.194122 0.653523 0.815223 0.10932
H_ H_ 0.424317 0.639516 0.814731 0.10932
H_ H_ 0.196295 0.569813 0.686502 0.10932
H_ H_ 0.477403 0.598119 0.684846 0.10932
H_ H_ 0.042855 0.574349 0.68169 0.10932
H_ H_ 0.271496 0.595853 0.682572 0.10932
H_ H_ 0.0520251 0.655799 0.810473 0.10932
H_ H_ 0.329255 0.634939 0.811947 0.10932
H_ H_ 0.0743988 0.635867 0.682153 0.10932
H_ H_ 0.297107 0.660726 0.688836 0.10932
H_ H_ 0.0228368 0.590481 0.810682 0.10932
H_ H_ 0.30827 0.562748 0.804597 0.10932
H_ H_ 0.124273 0.8212 0.853228 0.10932
H_ H_ 0.396765 0.813383 0.863957 0.10932
H_ H_ 0.114264 0.688231 0.863219 0.10932
H_ H_ 0.362355 0.691594 0.862659 0.10932
H_ H_ 0.10882 0.699012 0.940909 0.10932
H_ H_ 0.36183 0.69311 0.942388 0.10932
H_ H_ 0.124934 0.82838 0.931629 0.10932
H_ H_ 0.385254 0.820378 0.93868 0.10932
H_ H_ 0.173878 0.757613 0.646076 0.10932
H_ H_ 0.362239 0.80823 0.64121 0.10932
H_ H_ 0.0779139 0.753 0.636514 0.10932
H_ H_ 0.379129 0.681523 0.650025 0.10932
H_ H_ 0.0792887 0.745542 0.562704 0.10932
H_ H_ 0.378314 0.677784 0.570141 0.10932
H_ H_ 0.175357 0.753564 0.569203 0.10932
H_ H_ 0.359779 0.806456 0.565294 0.10932
C_ C_ 0.059459 0.843595 0.746658 -0.02249
C_ C_ 0.313515 0.849888 0.752154 -0.02249
C_ C_ 0.0118931 0.958823 0.748398 -0.02249
C_ C_ 0.263178 0.963523 0.749293 -0.02249
C_ C_ 0.0400154 0.905133 0.71082 -0.11473
C_ C_ 0.285848 0.904536 0.713309 -0.11473
C_ C_ 0.0445226 0.857178 0.782459 -0.11473
C_ C_ 0.308691 0.873003 0.789498 -0.11473
C_ C_ 0.0539349 0.865749 0.709631 -0.11473
C_ C_ 0.301034 0.866872 0.713555 -0.11473
C_ C_ 0.0264414 0.919078 0.747461 -0.02249
C_ C_ 0.280572 0.925847 0.751419 -0.02249
C_ C_ 0.0827167 0.810385 0.748264 0.6875
C_ C_ 0.33482 0.815519 0.751685 0.6875
C_ C_ 0.0303737 0.896308 0.783708 -0.11473
C_ C_ 0.289483 0.907879 0.7891 -0.11473
C_ C_ 0.183258 0.845942 0.749252 -0.02249
C_ C_ 0.431968 0.846386 0.756624 -0.02249
C_ C_ 0.231891 0.963522 0.750871 -0.02249
C_ C_ 0.484965 0.958844 0.752033 -0.02249
C_ C_ 0.20088 0.906992 0.787427 -0.11473
C_ C_ 0.46883 0.893608 0.789241 -0.11473
C_ C_ 0.195644 0.863655 0.712512 -0.11473
C_ C_ 0.433527 0.870772 0.72064 -0.11473
C_ C_ 0.185229 0.869953 0.786703 -0.11473
C_ C_ 0.450709 0.858293 0.79173 -0.11473
C_ C_ 0.21587 0.923449 0.751328 -0.02249
C_ C_ 0.46816 0.919927 0.754008 -0.02249
C_ C_ 0.162929 0.810011 0.747002 0.6875
C_ C_ 0.41457 0.807633 0.756774 0.6875
C_ C_ 0.21289 0.899639 0.713587 -0.11473
C_ C_ 0.449947 0.908003 0.720417 -0.11473
C_ C_ 0.17859 0.650296 0.750829 -0.02249
C_ C_ 0.432709 0.65361 0.749837 -0.02249
C_ C_ 0.233654 0.537843 0.746383 -0.02249
C_ C_ 0.481876 0.538663 0.748568 -0.02249
C_ C_ 0.214482 0.602049 0.78399 -0.11473
C_ C_ 0.453577 0.593621 0.786646 -0.11473
C_ C_ 0.181797 0.626911 0.713682 -0.11473
C_ C_ 0.448062 0.640175 0.713607 -0.11473
C_ C_ 0.195297 0.635511 0.786267 -0.11473
C_ C_ 0.434101 0.629494 0.785729 -0.11473
C_ C_ 0.215594 0.576714 0.748255 -0.02249
C_ C_ 0.465015 0.578129 0.748945 -0.02249
C_ C_ 0.158339 0.688556 0.752362 0.6875
C_ C_ 0.413487 0.690504 0.749853 0.6875
C_ C_ 0.200131 0.590667 0.713146 -0.11473
C_ C_ 0.466033 0.604363 0.713332 -0.11473
C_ C_ 0.0693343 0.647547 0.747592 -0.02249
C_ C_ 0.313676 0.653436 0.74995 -0.02249
C_ C_ 0.0132852 0.538137 0.743602 -0.02249
C_ C_ 0.266183 0.535194 0.744474 -0.02249
C_ C_ 0.0451874 0.593003 0.70894 -0.11473
C_ C_ 0.281656 0.602775 0.713028 -0.11473
C_ C_ 0.0537758 0.634158 0.784009 -0.11473
C_ C_ 0.31547 0.625765 0.784568 -0.11473
C_ C_ 0.0626936 0.627823 0.709488 -0.11473
C_ C_ 0.295163 0.642666 0.715886 -0.11473
C_ C_ 0.0308368 0.577959 0.744188 -0.02249
C_ C_ 0.284819 0.573829 0.745837 -0.02249
C_ C_ 0.0867233 0.688689 0.748742 0.6875
C_ C_ 0.331886 0.692151 0.751574 0.6875
C_ C_ 0.0357307 0.598405 0.78222 -0.11473
C_ C_ 0.30258 0.585269 0.781014 -0.11473
C_ C_ 0.124068 0.79406 0.87213 0.17695
C_ C_ 0.386023 0.788384 0.880571 0.17695
C_ C_ 0.117939 0.720682 0.878922 0.17695
C_ C_ 0.36862 0.718802 0.880445 0.17695
C_ C_ 0.118496 0.723421 0.923929 -0.11473
C_ C_ 0.370422 0.718657 0.925529 -0.11473
C_ C_ 0.12117 0.76392 0.942646 0.23465
C_ C_ 0.377277 0.755236 0.948176 0.23465
C_ C_ 0.12454 0.797656 0.916195 -0.11473
C_ C_ 0.384968 0.79131 0.924203 -0.11473
C_ C_ 0.152643 0.756166 0.627272 0.17695
C_ C_ 0.365323 0.780376 0.625716 0.17695
C_ C_ 0.0995137 0.75162 0.623594 0.17695
C_ C_ 0.374265 0.708643 0.629992 0.17695
C_ C_ 0.100629 0.75178 0.579253 -0.11473
C_ C_ 0.378336 0.706769 0.585447 -0.11473
C_ C_ 0.127651 0.753706 0.559289 0.23465
C_ C_ 0.370994 0.740998 0.561349 0.23465
C_ C_ 0.154131 0.752488 0.583255 -0.11473
C_ C_ 0.366037 0.779246 0.582081 -0.11473
C_ C_ 0.0287775 -0.003750000000000031 0.753275 0.05793
C_ C_ 0.280086 0.00217795 0.74956 0.05793
C_ C_ 0.217513 0.498952 0.745718 0.05793
C_ C_ 0.466201 0.50142 0.748375 0.05793
Br Br 0.0683313 -0.0035760000000000236 0.776838 -0.17191
Br Br 0.322617 0.00464487 0.733214 -0.17191
Br Br 0.172533 0.498544 0.748658 -0.17191
Br Br 0.421167 0.502349 0.749938 -0.17191
N_ N_ 0.122571 0.755615 0.854036 -0.272
N_ N_ 0.379609 0.751441 0.859692 -0.272
N_ N_ 0.116901 0.770475 0.987302 -0.12501
N_ N_ 0.370468 0.760926 0.991862 -0.12501
N_ N_ 0.125673 0.754225 0.646708 -0.272
N_ N_ 0.371107 0.745672 0.647962 -0.272
N_ N_ 0.130515 0.75196 0.514836 -0.12501
N_ N_ 0.370565 0.740197 0.515496 -0.12501
O_ O_ 0.094229 0.795775 0.715247 -0.60745
O_ O_ 0.337322 0.793682 0.717765 -0.60745
O_ O_ 0.0922013 0.796197 0.782863 -0.60745
O_ O_ 0.345998 0.802681 0.786779 -0.60745
O_ O_ 0.155352 0.791315 0.781422 -0.60745
O_ O_ 0.407685 0.788668 0.78879 -0.60745
O_ O_ 0.151983 0.799012 0.712178 -0.60745
O_ O_ 0.403377 0.795319 0.722618 -0.60745
O_ O_ 0.152468 0.703242 0.788282 -0.60745
O_ O_ 0.400185 0.70174 0.783747 -0.60745
O_ O_ 0.158779 0.712293 0.720991 -0.60745
O_ O_ 0.404752 0.706737 0.715869 -0.60745
O_ O_ 0.0988447 0.703627 0.716518 -0.60745
O_ O_ 0.342326 0.706878 0.71783 -0.60745
O_ O_ 0.0917878 0.706073 0.783592 -0.60745
O_ O_ 0.337272 0.710513 0.786625 -0.60745
Zn Zn 0.629952 0.250858 0.282441 0.9476
Zn Zn 0.877518 0.250793 0.287005 0.9476
Zn Zn 0.625424 0.252233 0.212589 0.9476
Zn Zn 0.876065 0.253816 0.219022 0.9476
H_ H_ 0.544769 0.430326 0.189649 0.10932
H_ H_ 0.792565 0.420612 0.186487 0.10932
H_ H_ 0.561158 0.341832 0.31344 0.10932
H_ H_ 0.830025 0.362821 0.321831 0.10932
H_ H_ 0.573921 0.361786 0.183735 0.10932
H_ H_ 0.822677 0.356827 0.18491 0.10932
H_ H_ 0.534519 0.406836 0.32096 0.10932
H_ H_ 0.803864 0.430467 0.318878 0.10932
H_ H_ 0.728069 0.411465 0.318167 0.10932
H_ H_ 0.991879 0.401216 0.301134 0.10932
H_ H_ 0.686378 0.35827 0.182885 0.10932
H_ H_ 0.917378 0.37129 0.186203 0.10932
H_ H_ 0.699776 0.344298 0.318907 0.10932
H_ H_ 0.960923 0.339537 0.304514 0.10932
H_ H_ 0.711844 0.424464 0.185111 0.10932
H_ H_ 0.947172 0.43884 0.191614 0.10932
H_ H_ 0.721183 0.0855973 0.319381 0.10932
H_ H_ 0.96085 0.0759691 0.318001 0.10932
H_ H_ 0.678699 0.134402 0.185158 0.10932
H_ H_ 0.941295 0.155469 0.188255 0.10932
H_ H_ 0.69231 0.144998 0.319754 0.10932
H_ H_ 0.933197 0.13822 0.322287 0.10932
H_ H_ 0.705261 0.0720374 0.189385 0.10932
H_ H_ 0.961832 0.0853127 0.183884 0.10932
H_ H_ 0.53029 0.0868276 0.177566 0.10932
H_ H_ 0.781298 0.0914868 0.189557 0.10932
H_ H_ 0.574865 0.134927 0.310335 0.10932
H_ H_ 0.81472 0.152757 0.323777 0.10932
H_ H_ 0.569351 0.142605 0.17939 0.10932
H_ H_ 0.809363 0.158037 0.190739 0.10932
H_ H_ 0.53718 0.0810205 0.312131 0.10932
H_ H_ 0.787667 0.0825758 0.324456 0.10932
H_ H_ 0.622762 0.186145 0.360926 0.10932
H_ H_ 0.891707 0.189443 0.364019 0.10932
H_ H_ 0.622351 0.316435 0.353333 0.10932
H_ H_ 0.880879 0.316841 0.358831 0.10932
H_ H_ 0.640157 0.320391 0.427019 0.10932
H_ H_ 0.875314 0.321889 0.432005 0.10932
H_ H_ 0.629882 0.188178 0.440683 0.10932
H_ H_ 0.893045 0.190216 0.44173 0.10932
H_ H_ 0.650564 0.197746 0.132868 0.10932
H_ H_ 0.828211 0.257355 0.146962 0.10932
H_ H_ 0.609535 0.31485 0.139856 0.10932
H_ H_ 0.922451 0.248067 0.136275 0.10932
H_ H_ 0.605687 0.320874 0.0629186 0.10932
H_ H_ 0.917955 0.244029 0.0606932 0.10932
H_ H_ 0.644549 0.198798 0.054654 0.10932
H_ H_ 0.82322 0.246351 0.0697995 0.10932
C_ C_ 0.566385 0.346337 0.249295 -0.02249
C_ C_ 0.826651 0.35408 0.254076 -0.02249
C_ C_ 0.52021 0.464465 0.258376 -0.02249
C_ C_ 0.77072 0.464096 0.253803 -0.02249
C_ C_ 0.548551 0.410113 0.216833 -0.11473
C_ C_ 0.799587 0.407468 0.215759 -0.11473
C_ C_ 0.557497 0.360893 0.28774 -0.11473
C_ C_ 0.821141 0.375896 0.291802 -0.11473
C_ C_ 0.563316 0.372212 0.213303 -0.11473
C_ C_ 0.816484 0.371773 0.215245 -0.11473
C_ C_ 0.536274 0.423339 0.254377 -0.02249
C_ C_ 0.78998 0.42611 0.25293 -0.02249
C_ C_ 0.584311 0.30772 0.245644 0.6875
C_ C_ 0.841111 0.312793 0.254455 0.6875
C_ C_ 0.543741 0.400402 0.29133 -0.11473
C_ C_ 0.803502 0.411907 0.290608 -0.11473
C_ C_ 0.69222 0.343889 0.251309 -0.02249
C_ C_ 0.937384 0.348434 0.245658 -0.02249
C_ C_ 0.739792 0.463039 0.251644 -0.02249
C_ C_ 0.986146 0.4641 0.250536 -0.02249
C_ C_ 0.718338 0.399187 0.290446 -0.11473
C_ C_ 0.973728 0.395715 0.27857 -0.11473
C_ C_ 0.6942 0.36953 0.21366 -0.11473
C_ C_ 0.931373 0.37849 0.214272 -0.11473
C_ C_ 0.703236 0.36074 0.289445 -0.11473
C_ C_ 0.957269 0.359638 0.278254 -0.11473
C_ C_ 0.723005 0.421717 0.252566 -0.02249
C_ C_ 0.966416 0.427449 0.250598 -0.02249
C_ C_ 0.669128 0.311143 0.253213 0.6875
C_ C_ 0.919175 0.310947 0.249875 0.6875
C_ C_ 0.712096 0.404831 0.214206 -0.11473
C_ C_ 0.945115 0.418526 0.21793 -0.11473
C_ C_ 0.686025 0.152457 0.251513 -0.02249
C_ C_ 0.931674 0.152262 0.254755 -0.02249
C_ C_ 0.736558 0.0374702 0.256246 -0.02249
C_ C_ 0.98091 0.0379862 0.247635 -0.02249
C_ C_ 0.718528 0.1015 0.288694 -0.11473
C_ C_ 0.956397 0.0935486 0.289792 -0.11473
C_ C_ 0.686454 0.125812 0.215548 -0.11473
C_ C_ 0.940785 0.135799 0.216141 -0.11473
C_ C_ 0.699502 0.135316 0.290046 -0.11473
C_ C_ 0.941811 0.131139 0.291953 -0.11473
C_ C_ 0.719846 0.0777534 0.252754 -0.02249
C_ C_ 0.9639 0.0775763 0.252061 -0.02249
C_ C_ 0.666352 0.187935 0.253039 0.6875
C_ C_ 0.914029 0.191473 0.256415 0.6875
C_ C_ 0.703556 0.0897158 0.216486 -0.11473
C_ C_ 0.955202 0.098215 0.215514 -0.11473
C_ C_ 0.569013 0.151167 0.24605 -0.02249
C_ C_ 0.817229 0.155812 0.25828 -0.02249
C_ C_ 0.518023 0.0357055 0.241073 -0.02249
C_ C_ 0.768213 0.0374994 0.257132 -0.02249
C_ C_ 0.544264 0.0944513 0.206589 -0.11473
C_ C_ 0.791163 0.10094 0.218692 -0.11473
C_ C_ 0.562033 0.129136 0.282397 -0.11473
C_ C_ 0.811291 0.134231 0.29541 -0.11473
C_ C_ 0.559791 0.131776 0.207861 -0.11473
C_ C_ 0.803531 0.141351 0.22071 -0.11473
C_ C_ 0.537563 0.0745667 0.243356 -0.02249
C_ C_ 0.783836 0.0790817 0.256282 -0.02249
C_ C_ 0.589985 0.190075 0.24462 0.6875
C_ C_ 0.836738 0.192657 0.258565 0.6875
C_ C_ 0.543514 0.095713 0.280979 -0.11473
C_ C_ 0.793207 0.0977481 0.294971 -0.11473
C_ C_ 0.622848 0.215832 0.375102 0.17695
C_ C_ 0.887629 0.216041 0.380233 0.17695
C_ C_ 0.624522 0.287939 0.373638 0.17695
C_ C_ 0.882008 0.288855 0.375602 0.17695
C_ C_ 0.629097 0.291775 0.415442 -0.11473
C_ C_ 0.879877 0.292796 0.419556 -0.11473
C_ C_ 0.627323 0.256037 0.440423 0.23465
C_ C_ 0.886437 0.257219 0.445045 0.23465
C_ C_ 0.625451 0.217073 0.421584 -0.11473
C_ C_ 0.889313 0.217426 0.4246 -0.11473
C_ C_ 0.637241 0.222306 0.116199 0.17695
C_ C_ 0.848273 0.257627 0.127638 0.17695
C_ C_ 0.61838 0.290439 0.121917 0.17695
C_ C_ 0.899972 0.245338 0.123143 0.17695
C_ C_ 0.61242 0.291807 0.0776048 -0.11473
C_ C_ 0.898184 0.246562 0.0782747 -0.11473
C_ C_ 0.619403 0.258427 0.0531192 0.23465
C_ C_ 0.869752 0.249999 0.0581162 0.23465
C_ C_ 0.634819 0.224234 0.0724775 -0.11473
C_ C_ 0.844756 0.253224 0.08319 -0.11473
C_ C_ 0.537261 0.500609 0.259288 0.05793
C_ C_ 0.784798 0.504605 0.256274 0.05793
C_ C_ 0.721748 0.997777 0.255913 0.05793
C_ C_ 0.965487 1.000438035 0.243887 0.05793
Br Br 0.580905 0.500385 0.269301 -0.17191
Br Br 0.828621 0.509883 0.260758 -0.17191
Br Br 0.676888 -0.004952999999999985 0.254482 -0.17191
Br Br 0.922518 -0.004940999999999973 0.23525 -0.17191
N_ N_ 0.62428 0.251899 0.354195 -0.272
N_ N_ 0.881474 0.250984 0.357453 -0.272
N_ N_ 0.634715 0.258641 0.483915 -0.12501
N_ N_ 0.890238 0.260878 0.489453 -0.12501
N_ N_ 0.627029 0.254006 0.140068 -0.272
N_ N_ 0.875259 0.25155 0.146391 -0.272
N_ N_ 0.613451 0.261263 0.00855535 -0.12501
N_ N_ 0.865562 0.249569 0.0132863 -0.12501
O_ O_ 0.592551 0.295772 0.210811 -0.60745
O_ O_ 0.848813 0.295757 0.219722 -0.60745
O_ O_ 0.598471 0.29474 0.279479 -0.60745
O_ O_ 0.847907 0.294922 0.288558 -0.60745
O_ O_ 0.662626 0.29548 0.288169 -0.60745
O_ O_ 0.910227 0.297589 0.28663 -0.60745
O_ O_ 0.658885 0.296669 0.219072 -0.60745
O_ O_ 0.906925 0.29636 0.218206 -0.60745
O_ O_ 0.659509 0.203586 0.288201 -0.60745
O_ O_ 0.904876 0.204926 0.290493 -0.60745
O_ O_ 0.657191 0.207485 0.219682 -0.60745
O_ O_ 0.907157 0.21116 0.222489 -0.60745
O_ O_ 0.594654 0.208365 0.21029 -0.60745
O_ O_ 0.843423 0.210084 0.225051 -0.60745
O_ O_ 0.597837 0.207117 0.279146 -0.60745
O_ O_ 0.847003 0.207812 0.292184 -0.60745
Zn Zn 0.627215 0.246939 0.780707 0.9476
Zn Zn 0.874762 0.24556 0.787443 0.9476
Zn Zn 0.619471 0.250666 0.712384 0.9476
Zn Zn 0.873339 0.249732 0.717892 0.9476
H_ H_ 0.524401 0.412984 0.686251 0.10932
H_ H_ 0.760216 0.393787 0.691633 0.10932
H_ H_ 0.565026 0.351712 0.820498 0.10932
H_ H_ 0.820948 0.360116 0.818162 0.10932
H_ H_ 0.554263 0.350769 0.683403 0.10932
H_ H_ 0.788882 0.329357 0.692457 0.10932
H_ H_ 0.539154 0.422349 0.820444 0.10932
H_ H_ 0.79134 0.421349 0.815556 0.10932
H_ H_ 0.72258 0.40592 0.816898 0.10932
H_ H_ 0.951586 0.427741 0.81858 0.10932
H_ H_ 0.668521 0.366447 0.682249 0.10932
H_ H_ 0.961936 0.336027 0.701402 0.10932
H_ H_ 0.696694 0.33629 0.812642 0.10932
H_ H_ 0.917102 0.367217 0.816848 0.10932
H_ H_ 0.694536 0.430595 0.6876 0.10932
H_ H_ 0.972148 0.410319 0.686933 0.10932
H_ H_ 0.733804 0.0988833 0.797036 0.10932
H_ H_ 0.964658 0.0792545 0.807378 0.10932
H_ H_ 0.669298 0.137169 0.67948 0.10932
H_ H_ 0.929413 0.148937 0.679067 0.10932
H_ H_ 0.708975 0.161939 0.802027 0.10932
H_ H_ 0.937521 0.139897 0.813463 0.10932
H_ H_ 0.701993 0.0760531 0.670703 0.10932
H_ H_ 0.956458 0.0784836 0.675182 0.10932
H_ H_ 0.551054 0.065024 0.691337 0.10932
H_ H_ 0.781675 0.0825166 0.675834 0.10932
H_ H_ 0.550527 0.164163 0.810776 0.10932
H_ H_ 0.82811 0.127253 0.812878 0.10932
H_ H_ 0.577753 0.127924 0.689035 0.10932
H_ H_ 0.807157 0.150749 0.679138 0.10932
H_ H_ 0.512795 0.106143 0.811972 0.10932
H_ H_ 0.793475 0.0689494 0.809258 0.10932
H_ H_ 0.633767 0.308829 0.863019 0.10932
H_ H_ 0.923451 0.248518 0.856734 0.10932
H_ H_ 0.61139 0.184178 0.847202 0.10932
H_ H_ 0.831047 0.235902 0.869617 0.10932
H_ H_ 0.605622 0.17584 0.925712 0.10932
H_ H_ 0.834841 0.233519 0.944384 0.10932
H_ H_ 0.625689 0.303284 0.942084 0.10932
H_ H_ 0.93044 0.255698 0.934065 0.10932
H_ H_ 0.619657 0.183321 0.642396 0.10932
H_ H_ 0.917827 0.277951 0.643919 0.10932
H_ H_ 0.625237 0.312581 0.634771 0.10932
H_ H_ 0.832746 0.217327 0.63959 0.10932
H_ H_ 0.619291 0.311592 0.557145 0.10932
H_ H_ 0.83488 0.210359 0.560278 0.10932
H_ H_ 0.624604 0.180648 0.566435 0.10932
H_ H_ 0.919787 0.271806 0.565853 0.10932
C_ C_ 0.562577 0.347294 0.751009 -0.02249
C_ C_ 0.812506 0.342929 0.752296 -0.02249
C_ C_ 0.511497 0.460988 0.756204 -0.02249
C_ C_ 0.762028 0.458458 0.747015 -0.02249
C_ C_ 0.530219 0.398319 0.716155 -0.11473
C_ C_ 0.776283 0.389344 0.716551 -0.11473
C_ C_ 0.556951 0.365987 0.790345 -0.11473
C_ C_ 0.809007 0.368122 0.788835 -0.11473
C_ C_ 0.547676 0.362974 0.712876 -0.11473
C_ C_ 0.79176 0.351217 0.718936 -0.11473
C_ C_ 0.528656 0.420474 0.753095 -0.02249
C_ C_ 0.777901 0.417037 0.750442 -0.02249
C_ C_ 0.583591 0.310036 0.750247 0.6875
C_ C_ 0.832777 0.306147 0.75223 0.6875
C_ C_ 0.54051 0.402687 0.790048 -0.11473
C_ C_ 0.793417 0.405991 0.787064 -0.11473
C_ C_ 0.682494 0.343492 0.746999 -0.02249
C_ C_ 0.932895 0.347486 0.755115 -0.02249
C_ C_ 0.729786 0.460432 0.750407 -0.02249
C_ C_ 0.978754 0.463043 0.753192 -0.02249
C_ C_ 0.712534 0.395716 0.787201 -0.11473
C_ C_ 0.949697 0.409141 0.789301 -0.11473
C_ C_ 0.68094 0.372219 0.712227 -0.11473
C_ C_ 0.950129 0.358872 0.720383 -0.11473
C_ C_ 0.699119 0.355737 0.784617 -0.11473
C_ C_ 0.9304 0.375423 0.788732 -0.11473
C_ C_ 0.711529 0.420848 0.750939 -0.02249
C_ C_ 0.960598 0.425988 0.750591 -0.02249
C_ C_ 0.664976 0.305728 0.745242 0.6875
C_ C_ 0.915907 0.306839 0.753197 0.6875
C_ C_ 0.697995 0.407795 0.713646 -0.11473
C_ C_ 0.962378 0.399443 0.716525 -0.11473
C_ C_ 0.682692 0.152164 0.741283 -0.02249
C_ C_ 0.93584 0.155395 0.746057 -0.02249
C_ C_ 0.733139 0.0347957 0.737049 -0.02249
C_ C_ 0.982733 0.0366364 0.739836 -0.02249
C_ C_ 0.717264 0.101513 0.773898 -0.11473
C_ C_ 0.959769 0.0955235 0.779103 -0.11473
C_ C_ 0.683025 0.127347 0.704368 -0.11473
C_ C_ 0.94263 0.136444 0.705737 -0.11473
C_ C_ 0.703404 0.141172 0.775024 -0.11473
C_ C_ 0.945012 0.13325 0.781722 -0.11473
C_ C_ 0.716856 0.0773384 0.737792 -0.02249
C_ C_ 0.966164 0.0771916 0.740033 -0.02249
C_ C_ 0.665442 0.191138 0.743675 0.6875
C_ C_ 0.914846 0.191754 0.749991 0.6875
C_ C_ 0.700459 0.0921729 0.702696 -0.11473
C_ C_ 0.955682 0.0958283 0.703379 -0.11473
C_ C_ 0.565877 0.149317 0.749442 -0.02249
C_ C_ 0.819536 0.145639 0.74755 -0.02249
C_ C_ 0.515231 0.0350181 0.759644 -0.02249
C_ C_ 0.764954 0.033576 0.741483 -0.02249
C_ C_ 0.545589 0.0870783 0.716778 -0.11473
C_ C_ 0.789619 0.0945213 0.705359 -0.11473
C_ C_ 0.549255 0.140576 0.78538 -0.11473
C_ C_ 0.81564 0.120326 0.783202 -0.11473
C_ C_ 0.562847 0.122192 0.716179 -0.11473
C_ C_ 0.806339 0.131992 0.708652 -0.11473
C_ C_ 0.532221 0.0760923 0.755377 -0.02249
C_ C_ 0.781624 0.0739797 0.743165 -0.02249
C_ C_ 0.58317 0.188322 0.746505 0.6875
C_ C_ 0.834455 0.186548 0.749652 0.6875
C_ C_ 0.531585 0.104484 0.788202 -0.11473
C_ C_ 0.798705 0.0850056 0.779556 -0.11473
C_ C_ 0.629628 0.27921 0.877426 0.17695
C_ C_ 0.905206 0.244018 0.876363 0.17695
C_ C_ 0.619516 0.207983 0.86846 0.17695
C_ C_ 0.853126 0.238379 0.883751 0.17695
C_ C_ 0.614549 0.20463 0.913766 -0.11473
C_ C_ 0.855375 0.240427 0.927338 -0.11473
C_ C_ 0.616934 0.2383 0.939476 0.23465
C_ C_ 0.883495 0.240559 0.946068 0.23465
C_ C_ 0.624961 0.275965 0.921262 -0.11473
C_ C_ 0.908624 0.247407 0.920814 -0.11473
C_ C_ 0.619469 0.21284 0.623194 0.17695
C_ C_ 0.899574 0.261308 0.626118 0.17695
C_ C_ 0.619015 0.285374 0.618451 0.17695
C_ C_ 0.851582 0.228677 0.624624 0.17695
C_ C_ 0.617417 0.284487 0.575235 -0.11473
C_ C_ 0.852701 0.224208 0.580415 -0.11473
C_ C_ 0.621011 0.246921 0.555415 0.23465
C_ C_ 0.877692 0.238739 0.559077 0.23465
C_ C_ 0.622304 0.210079 0.580179 -0.11473
C_ C_ 0.90039 0.260376 0.581303 -0.11473
C_ C_ 0.527938 0.498666 0.74503 0.05793
C_ C_ 0.778732 0.49534 0.744025 0.05793
C_ C_ 0.71743 -0.0017759999999999998 0.739655 0.05793
C_ C_ 0.965408 -0.000137627 0.740175 0.05793
Br Br 0.570644 0.494492 0.73951 -0.17191
Br Br 0.818953 0.492366 0.720527 -0.17191
Br Br 0.67364 0.00234981 0.733839 -0.17191
Br Br 0.922697 0.00476299 0.734729 -0.17191
N_ N_ 0.625697 0.244866 0.851919 -0.272
N_ N_ 0.877598 0.23955 0.860015 -0.272
N_ N_ 0.619706 0.233205 0.983526 -0.12501
N_ N_ 0.886036 0.23757 0.990399 -0.12501
N_ N_ 0.618662 0.250585 0.641381 -0.272
N_ N_ 0.873966 0.249597 0.646766 -0.272
N_ N_ 0.616872 0.243711 0.510339 -0.12501
N_ N_ 0.878258 0.235587 0.514346 -0.12501
O_ O_ 0.590335 0.295227 0.716281 -0.60745
O_ O_ 0.83846 0.291231 0.717144 -0.60745
O_ O_ 0.593922 0.293192 0.783535 -0.60745
O_ O_ 0.842911 0.291965 0.787186 -0.60745
O_ O_ 0.658553 0.290286 0.780696 -0.60745
O_ O_ 0.908529 0.289602 0.787107 -0.60745
O_ O_ 0.650665 0.294682 0.713517 -0.60745
O_ O_ 0.905077 0.29434 0.718816 -0.60745
O_ O_ 0.656718 0.200097 0.77898 -0.60745
O_ O_ 0.903762 0.200805 0.785421 -0.60745
O_ O_ 0.652814 0.206365 0.711457 -0.60745
O_ O_ 0.906641 0.209939 0.717177 -0.60745
O_ O_ 0.590137 0.202372 0.711457 -0.60745
O_ O_ 0.842122 0.205581 0.716697 -0.60745
O_ O_ 0.592805 0.205438 0.779074 -0.60745
O_ O_ 0.841882 0.20242 0.785401 -0.60745
Zn Zn 0.625285 0.752387 0.283647 0.9476
Zn Zn 0.879227 0.74988 0.284763 0.9476
Zn Zn 0.62786 0.749841 0.214938 0.9476
Zn Zn 0.87517 0.750828 0.21627 0.9476
H_ H_ 0.534208 0.915714 0.178212 0.10932
H_ H_ 0.799266 0.928531 0.193834 0.10932
H_ H_ 0.554022 0.84654 0.31455 0.10932
H_ H_ 0.816769 0.848069 0.324553 0.10932
H_ H_ 0.563642 0.851708 0.176592 0.10932
H_ H_ 0.836198 0.873274 0.194265 0.10932
H_ H_ 0.522369 0.911427 0.310174 0.10932
H_ H_ 0.782248 0.908771 0.326896 0.10932
H_ H_ 0.7172 0.914554 0.321164 0.10932
H_ H_ 0.961152 0.924903 0.317886 0.10932
H_ H_ 0.688358 0.854851 0.183265 0.10932
H_ H_ 0.941382 0.846774 0.185415 0.10932
H_ H_ 0.686503 0.854296 0.317821 0.10932
H_ H_ 0.9377 0.855918 0.321616 0.10932
H_ H_ 0.711306 0.927834 0.192831 0.10932
H_ H_ 0.961558 0.91643 0.182463 0.10932
H_ H_ 0.729701 0.599399 0.318661 0.10932
H_ H_ 0.990065 0.600655 0.302595 0.10932
H_ H_ 0.678241 0.637331 0.18362 0.10932
H_ H_ 0.917112 0.63067 0.183866 0.10932
H_ H_ 0.697072 0.661032 0.315861 0.10932
H_ H_ 0.964801 0.673704 0.2931 0.10932
H_ H_ 0.702964 0.569341 0.192108 0.10932
H_ H_ 0.950145 0.56827 0.180579 0.10932
H_ H_ 0.544575 0.574272 0.186333 0.10932
H_ H_ 0.790415 0.581021 0.185491 0.10932
H_ H_ 0.558654 0.661221 0.314733 0.10932
H_ H_ 0.822246 0.648377 0.316741 0.10932
H_ H_ 0.57505 0.641157 0.185583 0.10932
H_ H_ 0.812895 0.647719 0.180096 0.10932
H_ H_ 0.545049 0.587054 0.31987 0.10932
H_ H_ 0.794751 0.581634 0.316316 0.10932
H_ H_ 0.642353 0.688413 0.356326 0.10932
H_ H_ 0.836068 0.747357 0.358529 0.10932
H_ H_ 0.622538 0.815574 0.349942 0.10932
H_ H_ 0.929066 0.735845 0.350561 0.10932
H_ H_ 0.625431 0.822805 0.42722 0.10932
H_ H_ 0.932841 0.725052 0.425856 0.10932
H_ H_ 0.628821 0.688878 0.435512 0.10932
H_ H_ 0.836507 0.743355 0.437207 0.10932
H_ H_ 0.584661 0.726832 0.137702 0.10932
H_ H_ 0.874698 0.692937 0.139584 0.10932
H_ H_ 0.67423 0.77357 0.140692 0.10932
H_ H_ 0.870124 0.820125 0.141983 0.10932
H_ H_ 0.676549 0.772766 0.0646183 0.10932
H_ H_ 0.873163 0.820646 0.0627668 0.10932
H_ H_ 0.58817 0.713895 0.0615121 0.10932
H_ H_ 0.884487 0.691549 0.0634521 0.10932
C_ C_ 0.564393 0.84512 0.246806 -0.02249
C_ C_ 0.826318 0.854953 0.25699 -0.02249
C_ C_ 0.515327 0.960727 0.242547 -0.02249
C_ C_ 0.769844 0.962499 0.261163 -0.02249
C_ C_ 0.540103 0.902069 0.207786 -0.11473
C_ C_ 0.80129 0.910959 0.221812 -0.11473
C_ C_ 0.551886 0.862996 0.285017 -0.11473
C_ C_ 0.812246 0.865947 0.295244 -0.11473
C_ C_ 0.553722 0.863148 0.208029 -0.11473
C_ C_ 0.822211 0.879847 0.221305 -0.11473
C_ C_ 0.531749 0.921878 0.244598 -0.02249
C_ C_ 0.78694 0.922123 0.259197 -0.02249
C_ C_ 0.586215 0.808254 0.249174 0.6875
C_ C_ 0.843649 0.816419 0.254678 0.6875
C_ C_ 0.534671 0.899808 0.28339 -0.11473
C_ C_ 0.793561 0.900391 0.29622 -0.11473
C_ C_ 0.683397 0.850677 0.251188 -0.02249
C_ C_ 0.937955 0.844907 0.253647 -0.02249
C_ C_ 0.738443 0.960658 0.258362 -0.02249
C_ C_ 0.980754 0.963541 0.24973 -0.02249
C_ C_ 0.711992 0.903258 0.291344 -0.11473
C_ C_ 0.956504 0.907352 0.290226 -0.11473
C_ C_ 0.692975 0.869668 0.213829 -0.11473
C_ C_ 0.944964 0.86384 0.216342 -0.11473
C_ C_ 0.694241 0.867947 0.289248 -0.11473
C_ C_ 0.944554 0.867106 0.29205 -0.11473
C_ C_ 0.722025 0.921416 0.254535 -0.02249
C_ C_ 0.964077 0.924056 0.252008 -0.02249
C_ C_ 0.664613 0.812407 0.252075 0.6875
C_ C_ 0.917957 0.808392 0.254281 0.6875
C_ C_ 0.710364 0.907111 0.216078 -0.11473
C_ C_ 0.957736 0.902453 0.214241 -0.11473
C_ C_ 0.680817 0.652946 0.251461 -0.02249
C_ C_ 0.936041 0.652904 0.241887 -0.02249
C_ C_ 0.73691 0.539708 0.254587 -0.02249
C_ C_ 0.987688 0.539108 0.245065 -0.02249
C_ C_ 0.717095 0.606981 0.289114 -0.11473
C_ C_ 0.975958 0.61042 0.274337 -0.11473
C_ C_ 0.686044 0.628247 0.214847 -0.11473
C_ C_ 0.933502 0.625025 0.208993 -0.11473
C_ C_ 0.696006 0.640859 0.289217 -0.11473
C_ C_ 0.960201 0.647833 0.271572 -0.11473
C_ C_ 0.719717 0.580631 0.254241 -0.02249
C_ C_ 0.970657 0.579814 0.243346 -0.02249
C_ C_ 0.664952 0.692397 0.24962 0.6875
C_ C_ 0.916053 0.691152 0.244711 0.6875
C_ C_ 0.702938 0.591509 0.218479 -0.11473
C_ C_ 0.950543 0.588249 0.20894 -0.11473
C_ C_ 0.567086 0.65739 0.248642 -0.02249
C_ C_ 0.816703 0.657814 0.249572 -0.02249
C_ C_ 0.522039 0.539391 0.256204 -0.02249
C_ C_ 0.768325 0.542207 0.250924 -0.02249
C_ C_ 0.546535 0.593996 0.214377 -0.11473
C_ C_ 0.794026 0.59953 0.213934 -0.11473
C_ C_ 0.555378 0.64363 0.28719 -0.11473
C_ C_ 0.810146 0.638369 0.28759 -0.11473
C_ C_ 0.562319 0.633096 0.212456 -0.11473
C_ C_ 0.806815 0.637723 0.212458 -0.11473
C_ C_ 0.54055 0.578354 0.253538 -0.02249
C_ C_ 0.783592 0.5834 0.251175 -0.02249
C_ C_ 0.586917 0.694958 0.246927 0.6875
C_ C_ 0.834045 0.696575 0.249556 0.6875
C_ C_ 0.543595 0.603285 0.289214 -0.11473
C_ C_ 0.794123 0.601884 0.289605 -0.11473
C_ C_ 0.636387 0.716482 0.374488 0.17695
C_ C_ 0.85662 0.74813 0.376345 0.17695
C_ C_ 0.628459 0.787609 0.369545 0.17695
C_ C_ 0.908794 0.737078 0.370506 0.17695
C_ C_ 0.628447 0.79072 0.414087 -0.11473
C_ C_ 0.911954 0.73474 0.41428 -0.11473
C_ C_ 0.632458 0.75506 0.439311 0.23465
C_ C_ 0.886052 0.738205 0.439834 0.23465
C_ C_ 0.63426 0.716968 0.419145 -0.11473
C_ C_ 0.857848 0.742296 0.419657 -0.11473
C_ C_ 0.605387 0.735923 0.121863 0.17695
C_ C_ 0.876963 0.720931 0.122764 0.17695
C_ C_ 0.653971 0.762587 0.123809 0.17695
C_ C_ 0.873659 0.793765 0.123995 0.17695
C_ C_ 0.654767 0.762581 0.0792397 -0.11473
C_ C_ 0.875802 0.794025 0.0810332 -0.11473
C_ C_ 0.632082 0.74281 0.0567715 0.23465
C_ C_ 0.876907 0.759147 0.0583365 0.23465
C_ C_ 0.607341 0.729009 0.0777194 -0.11473
C_ C_ 0.879677 0.721322 0.078568 -0.11473
C_ C_ 0.531862 0.996941 0.235317 0.05793
C_ C_ 0.785303 1.00227887 0.261629 0.05793
C_ C_ 0.723664 0.501652 0.252853 0.05793
C_ C_ 0.971633 0.502578 0.251268 0.05793
Br Br 0.572057 0.994486 0.211634 -0.17191
Br Br 0.828612 1.00161878 0.270487 -0.17191
Br Br 0.681326 0.502846 0.260053 -0.17191
Br Br 0.931356 0.504835 0.273972 -0.17191
N_ N_ 0.627898 0.750281 0.352687 -0.272
N_ N_ 0.881232 0.745152 0.353889 -0.272
N_ N_ 0.624258 0.75819 0.482815 -0.12501
N_ N_ 0.889489 0.741462 0.484708 -0.12501
N_ N_ 0.627578 0.754831 0.144187 -0.272
N_ N_ 0.874827 0.756528 0.143827 -0.272
N_ N_ 0.633781 0.734337 0.0118439 -0.12501
N_ N_ 0.877367 0.762948 0.0140124 -0.12501
O_ O_ 0.595537 0.791077 0.216286 -0.60745
O_ O_ 0.846206 0.796391 0.220703 -0.60745
O_ O_ 0.594515 0.795067 0.284469 -0.60745
O_ O_ 0.854945 0.801513 0.288534 -0.60745
O_ O_ 0.655736 0.798435 0.286777 -0.60745
O_ O_ 0.909966 0.792196 0.289004 -0.60745
O_ O_ 0.656917 0.796984 0.217821 -0.60745
O_ O_ 0.909058 0.792268 0.219521 -0.60745
O_ O_ 0.657871 0.709073 0.283808 -0.60745
O_ O_ 0.908282 0.704905 0.279473 -0.60745
O_ O_ 0.660128 0.708823 0.214668 -0.60745
O_ O_ 0.904868 0.7057 0.210805 -0.60745
O_ O_ 0.598475 0.705698 0.21369 -0.60745
O_ O_ 0.843595 0.710705 0.214159 -0.60745
O_ O_ 0.59701 0.70833 0.28108 -0.60745
O_ O_ 0.843177 0.712705 0.283979 -0.60745
Zn Zn 0.62383 0.747285 0.78117 0.9476
Zn Zn 0.872522 0.74796 0.784341 0.9476
Zn Zn 0.623969 0.750245 0.71327 0.9476
Zn Zn 0.869658 0.747381 0.713058 0.9476
H_ H_ 0.523907 0.906894 0.688327 0.10932
H_ H_ 0.774274 0.909372 0.680511 0.10932
H_ H_ 0.582573 0.85933 0.811654 0.10932
H_ H_ 0.821426 0.858185 0.81202 0.10932
H_ H_ 0.564835 0.855464 0.679692 0.10932
H_ H_ 0.803587 0.84308 0.678375 0.10932
H_ H_ 0.54833 0.920081 0.819646 0.10932
H_ H_ 0.788876 0.918863 0.813069 0.10932
H_ H_ 0.705703 0.928669 0.80735 0.10932
H_ H_ 0.952958 0.928353 0.811213 0.10932
H_ H_ 0.694848 0.839764 0.678713 0.10932
H_ H_ 0.934347 0.84666 0.68127 0.10932
H_ H_ 0.678148 0.864273 0.81341 0.10932
H_ H_ 0.928778 0.860776 0.815594 0.10932
H_ H_ 0.721137 0.906884 0.676406 0.10932
H_ H_ 0.962098 0.91408 0.678202 0.10932
H_ H_ 0.726466 0.591007 0.809044 0.10932
H_ H_ 0.972949 0.596608 0.817209 0.10932
H_ H_ 0.6576 0.625897 0.693779 0.10932
H_ H_ 0.937497 0.645892 0.680088 0.10932
H_ H_ 0.698835 0.655772 0.80932 0.10932
H_ H_ 0.939532 0.657669 0.813182 0.10932
H_ H_ 0.69726 0.573372 0.682006 0.10932
H_ H_ 0.968866 0.582528 0.687257 0.10932
H_ H_ 0.539606 0.581223 0.678453 0.10932
H_ H_ 0.76047 0.598283 0.68986 0.10932
H_ H_ 0.567801 0.643252 0.812221 0.10932
H_ H_ 0.836065 0.623709 0.802788 0.10932
H_ H_ 0.560785 0.648965 0.677363 0.10932
H_ H_ 0.789661 0.664246 0.691798 0.10932
H_ H_ 0.538524 0.578798 0.814187 0.10932
H_ H_ 0.808366 0.555331 0.797593 0.10932
H_ H_ 0.582721 0.775448 0.853094 0.10932
H_ H_ 0.868281 0.679571 0.85726 0.10932
H_ H_ 0.673053 0.727035 0.859533 0.10932
H_ H_ 0.889612 0.806616 0.864892 0.10932
H_ H_ 0.67176 0.728995 0.936581 0.10932
H_ H_ 0.88249 0.805487 0.943193 0.10932
H_ H_ 0.583018 0.781705 0.930917 0.10932
H_ H_ 0.878139 0.669469 0.932728 0.10932
H_ H_ 0.630099 0.681597 0.646537 0.10932
H_ H_ 0.848945 0.811298 0.639763 0.10932
H_ H_ 0.622605 0.813231 0.634373 0.10932
H_ H_ 0.896692 0.697902 0.640365 0.10932
H_ H_ 0.630613 0.808695 0.559814 0.10932
H_ H_ 0.89802 0.698876 0.56146 0.10932
H_ H_ 0.633021 0.674933 0.56891 0.10932
H_ H_ 0.848119 0.813459 0.560153 0.10932
C_ C_ 0.57044 0.848002 0.748104 -0.02249
C_ C_ 0.816749 0.846977 0.745341 -0.02249
C_ C_ 0.517139 0.958492 0.75546 -0.02249
C_ C_ 0.76368 0.958939 0.745658 -0.02249
C_ C_ 0.537206 0.897969 0.71477 -0.11473
C_ C_ 0.784998 0.896862 0.707657 -0.11473
C_ C_ 0.569139 0.870092 0.78575 -0.11473
C_ C_ 0.811007 0.867564 0.783299 -0.11473
C_ C_ 0.559662 0.86781 0.711559 -0.11473
C_ C_ 0.799946 0.857602 0.708293 -0.11473
C_ C_ 0.535506 0.92024 0.753932 -0.02249
C_ C_ 0.779833 0.91784 0.746323 -0.02249
C_ C_ 0.587045 0.810102 0.746916 0.6875
C_ C_ 0.83582 0.80938 0.74809 0.6875
C_ C_ 0.551898 0.906418 0.788652 -0.11473
C_ C_ 0.793696 0.902653 0.784097 -0.11473
C_ C_ 0.682146 0.847757 0.744986 -0.02249
C_ C_ 0.926921 0.849135 0.748359 -0.02249
C_ C_ 0.731947 0.960768 0.739895 -0.02249
C_ C_ 0.979704 0.961277 0.742648 -0.02249
C_ C_ 0.701711 0.908913 0.780334 -0.11473
C_ C_ 0.950648 0.908145 0.783426 -0.11473
C_ C_ 0.694931 0.859539 0.705419 -0.11473
C_ C_ 0.938742 0.862654 0.71027 -0.11473
C_ C_ 0.685611 0.871658 0.782255 -0.11473
C_ C_ 0.934747 0.871685 0.785285 -0.11473
C_ C_ 0.712029 0.921968 0.740644 -0.02249
C_ C_ 0.96145 0.924802 0.74453 -0.02249
C_ C_ 0.664992 0.806896 0.747326 0.6875
C_ C_ 0.909212 0.80852 0.749096 0.6875
C_ C_ 0.708745 0.897512 0.704385 -0.11473
C_ C_ 0.954394 0.902766 0.70802 -0.11473
C_ C_ 0.679284 0.647462 0.751104 -0.02249
C_ C_ 0.935592 0.65828 0.747692 -0.02249
C_ C_ 0.731651 0.536384 0.743722 -0.02249
C_ C_ 0.982858 0.539868 0.752564 -0.02249
C_ C_ 0.712776 0.597899 0.782913 -0.11473
C_ C_ 0.963278 0.605813 0.787826 -0.11473
C_ C_ 0.675455 0.62132 0.717223 -0.11473
C_ C_ 0.943862 0.636189 0.710273 -0.11473
C_ C_ 0.696393 0.635017 0.78492 -0.11473
C_ C_ 0.946432 0.643331 0.785277 -0.11473
C_ C_ 0.71321 0.574996 0.74652 -0.02249
C_ C_ 0.965933 0.580614 0.751304 -0.02249
C_ C_ 0.66229 0.686635 0.751334 0.6875
C_ C_ 0.915436 0.695754 0.747259 0.6875
C_ C_ 0.695825 0.589813 0.712723 -0.11473
C_ C_ 0.959669 0.597998 0.713993 -0.11473
C_ C_ 0.564287 0.652537 0.744759 -0.02249
C_ C_ 0.815318 0.647869 0.74544 -0.02249
C_ C_ 0.513787 0.537773 0.745672 -0.02249
C_ C_ 0.764077 0.534674 0.743404 -0.02249
C_ C_ 0.540487 0.596289 0.708283 -0.11473
C_ C_ 0.776866 0.60389 0.714044 -0.11473
C_ C_ 0.557048 0.633639 0.783097 -0.11473
C_ C_ 0.819245 0.619241 0.776949 -0.11473
C_ C_ 0.554095 0.634548 0.707022 -0.11473
C_ C_ 0.795194 0.638794 0.712703 -0.11473
C_ C_ 0.531474 0.577329 0.746782 -0.02249
C_ C_ 0.780832 0.574781 0.746611 -0.02249
C_ C_ 0.584392 0.69085 0.746404 0.6875
C_ C_ 0.833163 0.686416 0.746048 0.6875
C_ C_ 0.540124 0.596807 0.784565 -0.11473
C_ C_ 0.803798 0.581044 0.775479 -0.11473
C_ C_ 0.602088 0.764738 0.872576 0.17695
C_ C_ 0.871339 0.706912 0.877069 0.17695
C_ C_ 0.650745 0.734524 0.873871 0.17695
C_ C_ 0.881588 0.778871 0.881184 0.17695
C_ C_ 0.650614 0.734446 0.919038 -0.11473
C_ C_ 0.88147 0.776897 0.925899 -0.11473
C_ C_ 0.625197 0.753336 0.941126 0.23465
C_ C_ 0.878158 0.737936 0.946259 0.23465
C_ C_ 0.600622 0.765491 0.916497 -0.11473
C_ C_ 0.877258 0.703048 0.920956 -0.11473
C_ C_ 0.628983 0.709356 0.626096 0.17695
C_ C_ 0.860547 0.786222 0.622728 0.17695
C_ C_ 0.626074 0.782558 0.619611 0.17695
C_ C_ 0.887236 0.723129 0.622104 0.17695
C_ C_ 0.628822 0.780864 0.575454 -0.11473
C_ C_ 0.885883 0.723092 0.578369 -0.11473
C_ C_ 0.628811 0.741454 0.553967 0.23465
C_ C_ 0.871935 0.755644 0.555157 0.23465
C_ C_ 0.628794 0.705227 0.582341 -0.11473
C_ C_ 0.860335 0.788261 0.577725 -0.11473
C_ C_ 0.530994 -0.0033119999999999816 0.755994 0.05793
C_ C_ 0.780531 -0.004885999999999946 0.742747 0.05793
C_ C_ 0.714811 0.497581 0.747394 0.05793
C_ C_ 0.966215 0.503152 0.756763 0.05793
Br Br 0.574335 -0.0021529999999999605 0.763731 -0.17191
Br Br 0.822736 0.995052 0.728781 -0.17191
Br Br 0.673492 0.500764 0.763457 -0.17191
Br Br 0.921434 0.507831 0.763038 -0.17191
N_ N_ 0.62605 0.748615 0.852113 -0.272
N_ N_ 0.87627 0.744394 0.85705 -0.272
N_ N_ 0.626215 0.762027 0.98558 -0.12501
N_ N_ 0.879105 0.732878 0.990386 -0.12501
N_ N_ 0.627248 0.74801 0.642264 -0.272
N_ N_ 0.871974 0.752747 0.643305 -0.272
N_ N_ 0.637446 0.738229 0.511024 -0.12501
N_ N_ 0.870408 0.756106 0.508919 -0.12501
O_ O_ 0.595586 0.796095 0.712207 -0.60745
O_ O_ 0.843305 0.795617 0.713056 -0.60745
O_ O_ 0.592518 0.790265 0.779725 -0.60745
O_ O_ 0.841274 0.790326 0.783673 -0.60745
O_ O_ 0.654621 0.793801 0.783254 -0.60745
O_ O_ 0.899889 0.79536 0.784326 -0.60745
O_ O_ 0.65598 0.790392 0.712362 -0.60745
O_ O_ 0.903636 0.7884 0.716334 -0.60745
O_ O_ 0.65813 0.705377 0.785546 -0.60745
O_ O_ 0.908272 0.712466 0.781667 -0.60745
O_ O_ 0.653907 0.702972 0.717302 -0.60745
O_ O_ 0.899876 0.702137 0.715363 -0.60745
O_ O_ 0.591415 0.707229 0.713221 -0.60745
O_ O_ 0.83469 0.707602 0.71139 -0.60745
O_ O_ 0.59525 0.704484 0.780482 -0.60745
O_ O_ 0.843335 0.702149 0.781349 -0.60745
_cell_length_a 44.444
_cell_length_b 32.3360000049186
_cell_length_c 31.843999878906452
_cell_angle_alpha 89.99799923859553
_cell_angle_beta 91.13600050494348
_cell_angle_gamma 89.9990006550086
_symmetry_space_group_name_H-M         'P 1'
_symmetry_Int_Tables_number            1
loop_
_symmetry_equiv_pos_as_xyz
   'x, y, z'
                         
loop_
_atom_site_label
_atom_site_type_symbol
_atom_site_fract_x 
_atom_site_fract_y
_atom_site_fract_z
_atom_site_charge
Zn Zn 0.128694 0.249184 0.280289 0.9476
Zn Zn 0.381039 0.252861 0.285924 0.9476
Zn Zn 0.126385 0.245786 0.211993 0.9476
Zn Zn 0.375374 0.252163 0.217751 0.9476
H_ H_ 0.0148115 0.397364 0.184569 0.10932
H_ H_ 0.270724 0.404342 0.187905 0.10932
H_ H_ 0.0905588 0.377757 0.291608 0.10932
H_ H_ 0.335211 0.37502 0.309924 0.10932
H_ H_ 0.0369598 0.325509 0.191284 0.10932
H_ H_ 0.306884 0.349416 0.185075 0.10932
H_ H_ 0.0551722 0.435402 0.301194 0.10932
H_ H_ 0.297528 0.435048 0.311042 0.10932
H_ H_ 0.231867 0.406499 0.305876 0.10932
H_ H_ 0.478188 0.406169 0.324268 0.10932
H_ H_ 0.167954 0.362926 0.18194 0.10932
H_ H_ 0.426962 0.366759 0.189453 0.10932
H_ H_ 0.206018 0.334458 0.305103 0.10932
H_ H_ 0.44715 0.344271 0.321209 0.10932
H_ H_ 0.191997 0.432959 0.186146 0.10932
H_ H_ 0.454046 0.435299 0.195562 0.10932
H_ H_ 0.231357 0.0949573 0.321062 0.10932
H_ H_ 0.481004 0.0952524 0.306375 0.10932
H_ H_ 0.178913 0.131962 0.187571 0.10932
H_ H_ 0.420513 0.131525 0.182069 0.10932
H_ H_ 0.206803 0.160886 0.315554 0.10932
H_ H_ 0.452629 0.15443 0.308344 0.10932
H_ H_ 0.211447 0.069184 0.190989 0.10932
H_ H_ 0.451164 0.0667542 0.180005 0.10932
H_ H_ 0.0268888 0.0858752 0.182506 0.10932
H_ H_ 0.270466 0.0905025 0.19518 0.10932
H_ H_ 0.0756093 0.137445 0.314657 0.10932
H_ H_ 0.32704 0.144466 0.31557 0.10932
H_ H_ 0.0599889 0.145375 0.180081 0.10932
H_ H_ 0.299615 0.154888 0.188604 0.10932
H_ H_ 0.038886 0.0789309 0.317711 0.10932
H_ H_ 0.303939 0.0741794 0.319785 0.10932
H_ H_ 0.134976 0.312794 0.352865 0.10932
H_ H_ 0.375954 0.315537 0.365362 0.10932
H_ H_ 0.121294 0.183662 0.358538 0.10932
H_ H_ 0.372436 0.184414 0.355786 0.10932
H_ H_ 0.121072 0.185659 0.435588 0.10932
H_ H_ 0.374099 0.175305 0.43089 0.10932
H_ H_ 0.14237 0.316979 0.430553 0.10932
H_ H_ 0.382765 0.308652 0.444738 0.10932
H_ H_ 0.118689 0.307964 0.129606 0.10932
H_ H_ 0.375941 0.322415 0.145038 0.10932
H_ H_ 0.131828 0.182449 0.144057 0.10932
H_ H_ 0.358251 0.193003 0.135902 0.10932
H_ H_ 0.1245 0.171261 0.0681714 0.10932
H_ H_ 0.352265 0.203325 0.0600426 0.10932
H_ H_ 0.11558 0.30218 0.0517854 0.10932
H_ H_ 0.384857 0.32572 0.0699515 0.10932
C_ C_ 0.0672073 0.345363 0.242624 -0.02249
C_ C_ 0.320523 0.353503 0.2506 -0.02249
C_ C_ 0.016263 0.462497 0.239037 -0.02249
C_ C_ 0.263968 0.464315 0.246052 -0.02249
C_ C_ 0.0286847 0.390945 0.209535 -0.11473
C_ C_ 0.28602 0.400738 0.213468 -0.11473
C_ C_ 0.070791 0.377141 0.27252 -0.11473
C_ C_ 0.317712 0.37914 0.285232 -0.11473
C_ C_ 0.0437591 0.351177 0.212656 -0.11473
C_ C_ 0.304466 0.365369 0.214745 -0.11473
C_ C_ 0.0321621 0.420973 0.240954 -0.02249
C_ C_ 0.28218 0.425336 0.247919 -0.02249
C_ C_ 0.0875829 0.307254 0.243211 0.6875
C_ C_ 0.342492 0.317705 0.251206 0.6875
C_ C_ 0.0526519 0.413212 0.274783 -0.11473
C_ C_ 0.298423 0.414091 0.284382 -0.11473
C_ C_ 0.184932 0.345033 0.246031 -0.02249
C_ C_ 0.435834 0.350256 0.254748 -0.02249
C_ C_ 0.23215 0.463997 0.246789 -0.02249
C_ C_ 0.488949 0.464103 0.26036 -0.02249
C_ C_ 0.216478 0.396993 0.2812 -0.11473
C_ C_ 0.468795 0.399122 0.294731 -0.11473
C_ C_ 0.180716 0.374449 0.211568 -0.11473
C_ C_ 0.438344 0.375819 0.218624 -0.11473
C_ C_ 0.203081 0.356076 0.280229 -0.11473
C_ C_ 0.450622 0.362942 0.292637 -0.11473
C_ C_ 0.214318 0.423842 0.248285 -0.02249
C_ C_ 0.470935 0.424086 0.257793 -0.02249
C_ C_ 0.165766 0.307157 0.245509 0.6875
C_ C_ 0.417334 0.311515 0.252186 0.6875
C_ C_ 0.196793 0.411967 0.211652 -0.11473
C_ C_ 0.457601 0.410643 0.219762 -0.11473
C_ C_ 0.191636 0.153151 0.249374 -0.02249
C_ C_ 0.432931 0.149382 0.246238 -0.02249
C_ C_ 0.2406 0.0377295 0.258038 -0.02249
C_ C_ 0.48724 0.0373114 0.242408 -0.02249
C_ C_ 0.223846 0.10535 0.291268 -0.11473
C_ C_ 0.471988 0.105071 0.27756 -0.11473
C_ C_ 0.191963 0.125812 0.216231 -0.11473
C_ C_ 0.433891 0.123821 0.209597 -0.11473
C_ C_ 0.208872 0.142715 0.287331 -0.11473
C_ C_ 0.451935 0.138201 0.280227 -0.11473
C_ C_ 0.2246 0.079647 0.255925 -0.02249
C_ C_ 0.472014 0.0787997 0.24079 -0.02249
C_ C_ 0.171286 0.190815 0.248399 0.6875
C_ C_ 0.413227 0.186609 0.249548 0.6875
C_ C_ 0.207933 0.0886813 0.218529 -0.11473
C_ C_ 0.454188 0.0899008 0.206728 -0.11473
C_ C_ 0.0693073 0.147462 0.247153 -0.02249
C_ C_ 0.317586 0.154067 0.251161 -0.02249
C_ C_ 0.0128056 0.0386538 0.253451 -0.02249
C_ C_ 0.272498 0.0365873 0.259928 -0.02249
C_ C_ 0.0344071 0.10017 0.213624 -0.11473
C_ C_ 0.288154 0.0993147 0.217836 -0.11473
C_ C_ 0.0619805 0.129558 0.286513 -0.11473
C_ C_ 0.314364 0.132864 0.288838 -0.11473
C_ C_ 0.055975 0.131038 0.211016 -0.11473
C_ C_ 0.302487 0.136857 0.214975 -0.11473
C_ C_ 0.0293517 0.0791885 0.252033 -0.02249
C_ C_ 0.2908 0.0742474 0.253414 -0.02249
C_ C_ 0.0892712 0.185932 0.245649 0.6875
C_ C_ 0.336637 0.191885 0.248849 0.6875
C_ C_ 0.0423197 0.095586 0.288778 -0.11473
C_ C_ 0.306434 0.0906289 0.288928 -0.11473
C_ C_ 0.132133 0.284514 0.370589 0.17695
C_ C_ 0.377572 0.28542 0.380854 0.17695
C_ C_ 0.125633 0.212157 0.372568 0.17695
C_ C_ 0.377193 0.211966 0.373806 0.17695
C_ C_ 0.126226 0.214607 0.417133 -0.11473
C_ C_ 0.376404 0.207857 0.417727 -0.11473
C_ C_ 0.129949 0.252064 0.439009 0.23465
C_ C_ 0.379263 0.242759 0.443889 0.23465
C_ C_ 0.13512 0.287776 0.416119 -0.11473
C_ C_ 0.379984 0.283041 0.424805 -0.11473
C_ C_ 0.12167 0.279766 0.114752 0.17695
C_ C_ 0.3748 0.294752 0.126527 0.17695
C_ C_ 0.127979 0.208415 0.123441 0.17695
C_ C_ 0.364927 0.223238 0.120851 0.17695
C_ C_ 0.124761 0.201843 0.079986 -0.11473
C_ C_ 0.365036 0.226709 0.0769875 -0.11473
C_ C_ 0.123283 0.236545 0.0533012 0.23465
C_ C_ 0.373165 0.262828 0.0565629 0.23465
C_ C_ 0.121202 0.276536 0.0715076 -0.11473
C_ C_ 0.377192 0.298199 0.083658 -0.11473
C_ C_ 0.0331294 0.499084 0.23235 0.05793
C_ C_ 0.280048 0.502088 0.245267 0.05793
C_ C_ 0.22407 0.000364492 0.261883 0.05793
C_ C_ 0.470313 1.00128968 0.247787 0.05793
Br Br 0.0724797 0.495654 0.205717 -0.17191
Br Br 0.324037 0.50377 0.236462 -0.17191
Br Br 0.181489 0.00409034 0.272752 -0.17191
Br Br 0.429861 1.00643707 0.263903 -0.17191
N_ N_ 0.129885 0.247649 0.351049 -0.272
N_ N_ 0.376684 0.250264 0.356644 -0.272
N_ N_ 0.135476 0.249378 0.482973 -0.12501
N_ N_ 0.374619 0.239804 0.489914 -0.12501
N_ N_ 0.125124 0.246235 0.13952 -0.272
N_ N_ 0.371945 0.25683 0.144904 -0.272
N_ N_ 0.119072 0.232914 0.00841446 -0.12501
N_ N_ 0.374502 0.267361 0.011926 -0.12501
O_ O_ 0.0963923 0.29303 0.209263 -0.60745
O_ O_ 0.348199 0.301118 0.217278 -0.60745
O_ O_ 0.0958565 0.291 0.278163 -0.60745
O_ O_ 0.354706 0.303313 0.284307 -0.60745
O_ O_ 0.156583 0.293889 0.28071 -0.60745
O_ O_ 0.413018 0.292345 0.287122 -0.60745
O_ O_ 0.158442 0.288587 0.212022 -0.60745
O_ O_ 0.403096 0.300093 0.218955 -0.60745
O_ O_ 0.161414 0.206526 0.283202 -0.60745
O_ O_ 0.407208 0.202708 0.283768 -0.60745
O_ O_ 0.159665 0.201635 0.213213 -0.60745
O_ O_ 0.405957 0.206287 0.21655 -0.60745
O_ O_ 0.0951928 0.203169 0.209985 -0.60745
O_ O_ 0.345541 0.205709 0.214443 -0.60745
O_ O_ 0.102436 0.199288 0.279481 -0.60745
O_ O_ 0.342774 0.21159 0.282252 -0.60745
Zn Zn 0.119404 0.250385 0.781671 0.9476
Zn Zn 0.37288 0.249093 0.787566 0.9476
Zn Zn 0.11991 0.249056 0.710538 0.9476
Zn Zn 0.372785 0.249531 0.718266 0.9476
H_ H_ 0.04516 0.42822 0.686601 0.10932
H_ H_ 0.284539 0.419789 0.680606 0.10932
H_ H_ 0.0348921 0.328517 0.801156 0.10932
H_ H_ 0.300339 0.340398 0.81397 0.10932
H_ H_ 0.0802424 0.366225 0.692606 0.10932
H_ H_ 0.312802 0.354313 0.678745 0.10932
H_ H_ 0.0166488 0.402268 0.811489 0.10932
H_ H_ 0.278797 0.413088 0.812006 0.10932
H_ H_ 0.223809 0.407178 0.809686 0.10932
H_ H_ 0.451571 0.430894 0.817819 0.10932
H_ H_ 0.1703 0.359585 0.682496 0.10932
H_ H_ 0.446581 0.340826 0.696139 0.10932
H_ H_ 0.197778 0.343139 0.813211 0.10932
H_ H_ 0.424155 0.365621 0.823228 0.10932
H_ H_ 0.204017 0.421236 0.68185 0.10932
H_ H_ 0.467305 0.410487 0.685627 0.10932
H_ H_ 0.216783 0.0902224 0.81778 0.10932
H_ H_ 0.455651 0.0727007 0.823532 0.10932
H_ H_ 0.186388 0.146889 0.68225 0.10932
H_ H_ 0.436699 0.145328 0.688065 0.10932
H_ H_ 0.197708 0.163729 0.811273 0.10932
H_ H_ 0.422413 0.131655 0.822881 0.10932
H_ H_ 0.208948 0.0753547 0.686237 0.10932
H_ H_ 0.468335 0.0852323 0.691746 0.10932
H_ H_ 0.0461224 0.0688963 0.68181 0.10932
H_ H_ 0.264823 0.100106 0.68838 0.10932
H_ H_ 0.0519036 0.148975 0.813039 0.10932
H_ H_ 0.324423 0.141273 0.812633 0.10932
H_ H_ 0.0717852 0.135195 0.677842 0.10932
H_ H_ 0.299948 0.157197 0.681513 0.10932
H_ H_ 0.0317916 0.0819566 0.813019 0.10932
H_ H_ 0.30189 0.0753268 0.814875 0.10932
H_ H_ 0.11977 0.318476 0.854038 0.10932
H_ H_ 0.383233 0.305688 0.862598 0.10932
H_ H_ 0.120542 0.184683 0.857766 0.10932
H_ H_ 0.368848 0.175558 0.854273 0.10932
H_ H_ 0.128721 0.188793 0.937721 0.10932
H_ H_ 0.374904 0.167488 0.928546 0.10932
H_ H_ 0.124674 0.320396 0.93147 0.10932
H_ H_ 0.388031 0.30377 0.940759 0.10932
H_ H_ 0.0785444 0.275566 0.637267 0.10932
H_ H_ 0.36489 0.195608 0.638192 0.10932
H_ H_ 0.169433 0.241384 0.633466 0.10932
H_ H_ 0.390507 0.319736 0.648177 0.10932
H_ H_ 0.16561 0.239432 0.555171 0.10932
H_ H_ 0.398729 0.322069 0.571659 0.10932
H_ H_ 0.073945 0.270447 0.561615 0.10932
H_ H_ 0.366605 0.198067 0.561054 0.10932
C_ C_ 0.0626597 0.345707 0.748308 -0.02249
C_ C_ 0.312942 0.344427 0.747344 -0.02249
C_ C_ 0.0105661 0.461444 0.748991 -0.02249
C_ C_ 0.26431 0.458192 0.743707 -0.02249
C_ C_ 0.0458156 0.409058 0.714671 -0.11473
C_ C_ 0.289333 0.401891 0.707493 -0.11473
C_ C_ 0.0424157 0.353391 0.78143 -0.11473
C_ C_ 0.298922 0.358741 0.784385 -0.11473
C_ C_ 0.0634949 0.37251 0.715589 -0.11473
C_ C_ 0.306475 0.364273 0.708869 -0.11473
C_ C_ 0.0282394 0.42117 0.749488 -0.02249
C_ C_ 0.27955 0.418268 0.744778 -0.02249
C_ C_ 0.0806891 0.309057 0.747031 0.6875
C_ C_ 0.332979 0.307599 0.74921 0.6875
C_ C_ 0.026468 0.391317 0.782905 -0.11473
C_ C_ 0.284799 0.397897 0.782822 -0.11473
C_ C_ 0.179897 0.345586 0.749293 -0.02249
C_ C_ 0.430699 0.347986 0.758211 -0.02249
C_ C_ 0.23264 0.459636 0.744968 -0.02249
C_ C_ 0.479857 0.462649 0.750341 -0.02249
C_ C_ 0.214278 0.395141 0.781746 -0.11473
C_ C_ 0.44616 0.41311 0.789894 -0.11473
C_ C_ 0.183691 0.368044 0.710845 -0.11473
C_ C_ 0.443076 0.362147 0.718682 -0.11473
C_ C_ 0.196003 0.359978 0.783731 -0.11473
C_ C_ 0.433394 0.374061 0.793993 -0.11473
C_ C_ 0.21515 0.419515 0.745293 -0.02249
C_ C_ 0.461474 0.425285 0.751702 -0.02249
C_ C_ 0.161225 0.307945 0.748237 0.6875
C_ C_ 0.414628 0.306252 0.757617 0.6875
C_ C_ 0.202866 0.40324 0.709885 -0.11473
C_ C_ 0.458238 0.400484 0.716103 -0.11473
C_ C_ 0.183369 0.155404 0.748771 -0.02249
C_ C_ 0.429105 0.147401 0.757087 -0.02249
C_ C_ 0.2328 0.0396466 0.754116 -0.02249
C_ C_ 0.48242 0.0348689 0.75963 -0.02249
C_ C_ 0.211377 0.103376 0.787887 -0.11473
C_ C_ 0.452549 0.0903999 0.795148 -0.11473
C_ C_ 0.186975 0.130874 0.712248 -0.11473
C_ C_ 0.441206 0.132058 0.719373 -0.11473
C_ C_ 0.195795 0.142528 0.785955 -0.11473
C_ C_ 0.434732 0.125002 0.795374 -0.11473
C_ C_ 0.216318 0.079219 0.75327 -0.02249
C_ C_ 0.463567 0.0731431 0.757582 -0.02249
C_ C_ 0.161832 0.191367 0.746626 0.6875
C_ C_ 0.411036 0.186847 0.756478 0.6875
C_ C_ 0.203445 0.0927723 0.714485 -0.11473
C_ C_ 0.458068 0.0936895 0.72019 -0.11473
C_ C_ 0.0608925 0.151084 0.743823 -0.02249
C_ C_ 0.313439 0.154523 0.748894 -0.02249
C_ C_ 0.014714 0.034034 0.74598 -0.02249
C_ C_ 0.264173 0.0409849 0.751189 -0.02249
C_ C_ 0.0430607 0.08882 0.707306 -0.11473
C_ C_ 0.281273 0.104781 0.714887 -0.11473
C_ C_ 0.0474491 0.136642 0.78172 -0.11473
C_ C_ 0.312987 0.129225 0.784541 -0.11473
C_ C_ 0.0595156 0.126568 0.706904 -0.11473
C_ C_ 0.297569 0.141859 0.712692 -0.11473
C_ C_ 0.031367 0.0739874 0.745038 -0.02249
C_ C_ 0.281398 0.0802576 0.751532 -0.02249
C_ C_ 0.0800583 0.189762 0.744151 0.6875
C_ C_ 0.33141 0.192945 0.751058 0.6875
C_ C_ 0.0336139 0.0982069 0.781384 -0.11473
C_ C_ 0.300439 0.0910239 0.785046 -0.11473
C_ C_ 0.120572 0.289851 0.871751 0.17695
C_ C_ 0.380457 0.277181 0.878918 0.17695
C_ C_ 0.124173 0.215074 0.874594 0.17695
C_ C_ 0.370919 0.204748 0.874691 0.17695
C_ C_ 0.128834 0.216437 0.919147 -0.11473
C_ C_ 0.374272 0.200192 0.91771 -0.11473
C_ C_ 0.127074 0.254616 0.941247 0.23465
C_ C_ 0.376641 0.236371 0.943359 0.23465
C_ C_ 0.124031 0.291344 0.915413 -0.11473
C_ C_ 0.380972 0.275866 0.923259 -0.11473
C_ C_ 0.0974952 0.263127 0.621189 0.17695
C_ C_ 0.369395 0.223305 0.623016 0.17695
C_ C_ 0.147452 0.242148 0.617255 0.17695
C_ C_ 0.38824 0.290914 0.629486 0.17695
C_ C_ 0.145804 0.244129 0.573559 -0.11473
C_ C_ 0.390365 0.294229 0.585822 -0.11473
C_ C_ 0.119531 0.251475 0.552248 0.23465
C_ C_ 0.380303 0.262139 0.559299 0.23465
C_ C_ 0.09424 0.259988 0.576758 -0.11473
C_ C_ 0.371626 0.225612 0.577964 -0.11473
C_ C_ 0.0281173 0.500154 0.747784 0.05793
C_ C_ 0.280496 0.495321 0.744517 0.05793
C_ C_ 0.216489 0.000878234 0.749148 0.05793
C_ C_ 0.468312 0.99608 0.758101 0.05793
Br Br 0.0691935 0.502072 0.769688 -0.17191
Br Br 0.323473 0.491647 0.748693 -0.17191
Br Br 0.17302 0.000327307 0.75387 -0.17191
Br Br 0.42606 0.99472 0.761504 -0.17191
N_ N_ 0.121902 0.251474 0.851912 -0.272
N_ N_ 0.373903 0.242334 0.856693 -0.272
N_ N_ 0.130962 0.256892 0.984933 -0.12501
N_ N_ 0.376555 0.234588 0.988906 -0.12501
N_ N_ 0.122686 0.25177 0.640671 -0.272
N_ N_ 0.376372 0.257173 0.647934 -0.272
N_ N_ 0.114017 0.244252 0.507808 -0.12501
N_ N_ 0.38667 0.264912 0.515882 -0.12501
O_ O_ 0.0903197 0.293446 0.71272 -0.60745
O_ O_ 0.341377 0.288816 0.716218 -0.60745
O_ O_ 0.0876695 0.291834 0.782223 -0.60745
O_ O_ 0.341744 0.292815 0.7851 -0.60745
O_ O_ 0.151353 0.295622 0.782698 -0.60745
O_ O_ 0.404456 0.289752 0.791009 -0.60745
O_ O_ 0.152708 0.290794 0.71375 -0.60745
O_ O_ 0.403757 0.29401 0.721908 -0.60745
O_ O_ 0.15174 0.206558 0.78039 -0.60745
O_ O_ 0.405834 0.206032 0.789576 -0.60745
O_ O_ 0.149268 0.201765 0.712613 -0.60745
O_ O_ 0.403005 0.20264 0.722253 -0.60745
O_ O_ 0.0865474 0.207469 0.709582 -0.60745
O_ O_ 0.340403 0.206103 0.717025 -0.60745
O_ O_ 0.0925933 0.20244 0.778556 -0.60745
O_ O_ 0.340811 0.206605 0.786402 -0.60745
Zn Zn 0.123466 0.748302 0.285518 0.9476
Zn Zn 0.37671 0.747531 0.287632 0.9476
Zn Zn 0.124061 0.755571 0.216843 0.9476
Zn Zn 0.375231 0.748962 0.21781 0.9476
H_ H_ 0.0262631 0.917251 0.181573 0.10932
H_ H_ 0.281317 0.916475 0.186152 0.10932
H_ H_ 0.0671457 0.857564 0.319477 0.10932
H_ H_ 0.306649 0.839096 0.31432 0.10932
H_ H_ 0.06518 0.860373 0.184166 0.10932
H_ H_ 0.322085 0.860645 0.184114 0.10932
H_ H_ 0.0370553 0.92463 0.317483 0.10932
H_ H_ 0.280414 0.905437 0.319157 0.10932
H_ H_ 0.217163 0.918581 0.326279 0.10932
H_ H_ 0.466372 0.915435 0.318542 0.10932
H_ H_ 0.178939 0.85833 0.191436 0.10932
H_ H_ 0.440074 0.844486 0.183749 0.10932
H_ H_ 0.192124 0.849508 0.324676 0.10932
H_ H_ 0.435323 0.851154 0.315687 0.10932
H_ H_ 0.212579 0.919254 0.191315 0.10932
H_ H_ 0.470139 0.910579 0.18576 0.10932
H_ H_ 0.223939 0.589532 0.316081 0.10932
H_ H_ 0.471862 0.588 0.325271 0.10932
H_ H_ 0.171243 0.640956 0.18971 0.10932
H_ H_ 0.448243 0.653813 0.187353 0.10932
H_ H_ 0.19991 0.656483 0.316544 0.10932
H_ H_ 0.435033 0.643615 0.320939 0.10932
H_ H_ 0.18896 0.56985 0.190123 0.10932
H_ H_ 0.470151 0.583984 0.18628 0.10932
H_ H_ 0.0267234 0.594407 0.171988 0.10932
H_ H_ 0.2895 0.584555 0.183239 0.10932
H_ H_ 0.0787724 0.630602 0.305452 0.10932
H_ H_ 0.311064 0.64417 0.323603 0.10932
H_ H_ 0.0539581 0.664761 0.177828 0.10932
H_ H_ 0.322955 0.644268 0.18715 0.10932
H_ H_ 0.0542561 0.563683 0.296135 0.10932
H_ H_ 0.281668 0.578669 0.317061 0.10932
H_ H_ 0.13278 0.812178 0.358637 0.10932
H_ H_ 0.36524 0.695204 0.370919 0.10932
H_ H_ 0.107038 0.685974 0.367554 0.10932
H_ H_ 0.394769 0.823842 0.362437 0.10932
H_ H_ 0.0968967 0.694358 0.441773 0.10932
H_ H_ 0.377868 0.832383 0.436888 0.10932
H_ H_ 0.1338 0.81362 0.437575 0.10932
H_ H_ 0.368094 0.699927 0.44651 0.10932
H_ H_ 0.172453 0.771228 0.148087 0.10932
H_ H_ 0.38415 0.679927 0.147633 0.10932
H_ H_ 0.0820939 0.736453 0.135769 0.10932
H_ H_ 0.365076 0.804638 0.137748 0.10932
H_ H_ 0.0852881 0.739531 0.0585496 0.10932
H_ H_ 0.360387 0.80291 0.0607969 0.10932
H_ H_ 0.178864 0.760319 0.0701194 0.10932
H_ H_ 0.375535 0.67022 0.0725351 0.10932
C_ C_ 0.0665633 0.851229 0.250531 -0.02249
C_ C_ 0.315542 0.843609 0.248208 -0.02249
C_ C_ 0.0128614 0.963332 0.248632 -0.02249
C_ C_ 0.268986 0.96102 0.254993 -0.02249
C_ C_ 0.0356376 0.903393 0.212226 -0.11473
C_ C_ 0.291311 0.903497 0.213546 -0.11473
C_ C_ 0.0583197 0.870033 0.288499 -0.11473
C_ C_ 0.301488 0.856336 0.285713 -0.11473
C_ C_ 0.0574998 0.872267 0.21197 -0.11473
C_ C_ 0.309991 0.867464 0.212233 -0.11473
C_ C_ 0.0302457 0.924196 0.250568 -0.02249
C_ C_ 0.282337 0.919183 0.252979 -0.02249
C_ C_ 0.086773 0.813549 0.250634 0.6875
C_ C_ 0.336191 0.806701 0.249442 0.6875
C_ C_ 0.0406844 0.907512 0.288342 -0.11473
C_ C_ 0.288761 0.896426 0.290363 -0.11473
C_ C_ 0.183271 0.847766 0.258114 -0.02249
C_ C_ 0.431883 0.848414 0.251123 -0.02249
C_ C_ 0.237303 0.961294 0.257226 -0.02249
C_ C_ 0.483825 0.961825 0.247973 -0.02249
C_ C_ 0.211492 0.902455 0.297186 -0.11473
C_ C_ 0.456888 0.905428 0.287897 -0.11473
C_ C_ 0.188422 0.86965 0.220328 -0.11473
C_ C_ 0.441611 0.863448 0.213084 -0.11473
C_ C_ 0.193366 0.866287 0.297048 -0.11473
C_ C_ 0.441168 0.8671 0.287981 -0.11473
C_ C_ 0.21843 0.922228 0.259661 -0.02249
C_ C_ 0.465481 0.923121 0.249843 -0.02249
C_ C_ 0.16149 0.810271 0.257022 0.6875
C_ C_ 0.41114 0.811588 0.251614 0.6875
C_ C_ 0.207274 0.905714 0.221143 -0.11473
C_ C_ 0.459477 0.899229 0.213664 -0.11473
C_ C_ 0.182106 0.653489 0.253381 -0.02249
C_ C_ 0.439151 0.65437 0.253466 -0.02249
C_ C_ 0.231004 0.539885 0.246872 -0.02249
C_ C_ 0.490193 0.540977 0.256271 -0.02249
C_ C_ 0.217159 0.605221 0.284955 -0.11473
C_ C_ 0.466505 0.602447 0.29413 -0.11473
C_ C_ 0.183798 0.631018 0.215857 -0.11473
C_ C_ 0.44893 0.636417 0.215607 -0.11473
C_ C_ 0.200131 0.640669 0.287922 -0.11473
C_ C_ 0.443816 0.632777 0.291409 -0.11473
C_ C_ 0.215177 0.580225 0.249035 -0.02249
C_ C_ 0.474671 0.58109 0.256809 -0.02249
C_ C_ 0.16305 0.691086 0.256523 0.6875
C_ C_ 0.416753 0.690398 0.254478 0.6875
C_ C_ 0.195576 0.591303 0.215312 -0.11473
C_ C_ 0.465861 0.599218 0.216197 -0.11473
C_ C_ 0.0666142 0.653748 0.244775 -0.02249
C_ C_ 0.316396 0.650434 0.255269 -0.02249
C_ C_ 0.0187807 0.53803 0.234348 -0.02249
C_ C_ 0.26329 0.539884 0.246917 -0.02249
C_ C_ 0.036978 0.604377 0.201215 -0.11473
C_ C_ 0.292763 0.597704 0.213117 -0.11473
C_ C_ 0.0668044 0.625435 0.276065 -0.11473
C_ C_ 0.304854 0.631665 0.293459 -0.11473
C_ C_ 0.051759 0.64399 0.20644 -0.11473
C_ C_ 0.309937 0.633543 0.216011 -0.11473
C_ C_ 0.0384603 0.57547 0.233604 -0.02249
C_ C_ 0.280319 0.57842 0.249701 -0.02249
C_ C_ 0.0854621 0.692068 0.248138 0.6875
C_ C_ 0.336928 0.687629 0.255641 0.6875
C_ C_ 0.0527495 0.585802 0.270958 -0.11473
C_ C_ 0.288382 0.59517 0.289337 -0.11473
C_ C_ 0.126687 0.784749 0.377047 0.17695
C_ C_ 0.36987 0.725481 0.385475 0.17695
C_ C_ 0.11073 0.715061 0.380781 0.17695
C_ C_ 0.387169 0.794951 0.379416 0.17695
C_ C_ 0.108253 0.717483 0.42469 -0.11473
C_ C_ 0.381644 0.800319 0.422618 -0.11473
C_ C_ 0.113418 0.756244 0.443085 0.23465
C_ C_ 0.374549 0.766403 0.448335 0.23465
C_ C_ 0.125797 0.787845 0.420889 -0.11473
C_ C_ 0.368618 0.729043 0.429858 -0.11473
C_ C_ 0.153255 0.765851 0.126669 0.17695
C_ C_ 0.374373 0.703909 0.129276 0.17695
C_ C_ 0.101148 0.7458 0.119638 0.17695
C_ C_ 0.365282 0.775778 0.124164 0.17695
C_ C_ 0.104215 0.748077 0.0760146 -0.11473
C_ C_ 0.36351 0.773965 0.0801104 -0.11473
C_ C_ 0.13157 0.759795 0.0566433 0.23465
C_ C_ 0.37003 0.736107 0.0612873 0.23465
C_ C_ 0.156919 0.763865 0.0831853 -0.11473
C_ C_ 0.374104 0.701238 0.0867407 -0.11473
C_ C_ 0.0285002 1.000844618 0.249051 0.05793
C_ C_ 0.286078 0.997886 0.255732 0.05793
C_ C_ 0.215777 0.500458 0.246989 0.05793
C_ C_ 0.473194 0.502067 0.257195 0.05793
Br Br 0.0699887 0.00341763 0.235764 -0.17191
Br Br 0.32855 0.99446 0.247992 -0.17191
Br Br 0.17344 0.501297 0.262035 -0.17191
Br Br 0.431099 0.504654 0.270434 -0.17191
N_ N_ 0.121737 0.748527 0.358218 -0.272
N_ N_ 0.379848 0.75782 0.360712 -0.272
N_ N_ 0.109186 0.760321 0.488804 -0.12501
N_ N_ 0.373193 0.771034 0.491709 -0.12501
N_ N_ 0.126717 0.755323 0.144285 -0.272
N_ N_ 0.371616 0.741809 0.148907 -0.272
N_ N_ 0.134284 0.75394 0.0138403 -0.12501
N_ N_ 0.374661 0.733323 0.0172654 -0.12501
O_ O_ 0.0917095 0.795841 0.215756 -0.60745
O_ O_ 0.343035 0.788253 0.216141 -0.60745
O_ O_ 0.0935852 0.795216 0.28398 -0.60745
O_ O_ 0.346666 0.794004 0.283852 -0.60745
O_ O_ 0.153707 0.791507 0.289153 -0.60745
O_ O_ 0.407904 0.790701 0.284779 -0.60745
O_ O_ 0.153216 0.797259 0.221837 -0.60745
O_ O_ 0.402044 0.79784 0.215735 -0.60745
O_ O_ 0.155778 0.703605 0.292608 -0.60745
O_ O_ 0.406335 0.704106 0.289475 -0.60745
O_ O_ 0.156619 0.713486 0.223546 -0.60745
O_ O_ 0.411111 0.709653 0.220064 -0.60745
O_ O_ 0.0970632 0.706934 0.215894 -0.60745
O_ O_ 0.346974 0.702876 0.221833 -0.60745
O_ O_ 0.0915314 0.709227 0.283007 -0.60745
O_ O_ 0.342649 0.705929 0.290577 -0.60745
Zn Zn 0.123503 0.751175 0.784322 0.9476
Zn Zn 0.373344 0.752939 0.787273 0.9476
Zn Zn 0.12552 0.753263 0.71809 0.9476
Zn Zn 0.370965 0.751991 0.718438 0.9476
H_ H_ 0.0366766 0.922655 0.682461 0.10932
H_ H_ 0.281008 0.919138 0.683675 0.10932
H_ H_ 0.0447766 0.836283 0.809843 0.10932
H_ H_ 0.317273 0.864083 0.819821 0.10932
H_ H_ 0.0581427 0.8515 0.681626 0.10932
H_ H_ 0.304821 0.851289 0.685371 0.10932
H_ H_ 0.0205644 0.908554 0.811854 0.10932
H_ H_ 0.289633 0.928591 0.81558 0.10932
H_ H_ 0.205294 0.921223 0.818159 0.10932
H_ H_ 0.485873 0.900549 0.815133 0.10932
H_ H_ 0.191247 0.849564 0.682049 0.10932
H_ H_ 0.418783 0.866116 0.694398 0.10932
H_ H_ 0.177561 0.858197 0.817769 0.10932
H_ H_ 0.451918 0.839224 0.819233 0.10932
H_ H_ 0.224329 0.910029 0.683811 0.10932
H_ H_ 0.443406 0.931513 0.698749 0.10932
H_ H_ 0.226053 0.592981 0.812341 0.10932
H_ H_ 0.457445 0.575025 0.813869 0.10932
H_ H_ 0.178001 0.643142 0.682989 0.10932
H_ H_ 0.443384 0.656896 0.684473 0.10932
H_ H_ 0.194122 0.653523 0.815223 0.10932
H_ H_ 0.424317 0.639516 0.814731 0.10932
H_ H_ 0.196295 0.569813 0.686502 0.10932
H_ H_ 0.477403 0.598119 0.684846 0.10932
H_ H_ 0.042855 0.574349 0.68169 0.10932
H_ H_ 0.271496 0.595853 0.682572 0.10932
H_ H_ 0.0520251 0.655799 0.810473 0.10932
H_ H_ 0.329255 0.634939 0.811947 0.10932
H_ H_ 0.0743988 0.635867 0.682153 0.10932
H_ H_ 0.297107 0.660726 0.688836 0.10932
H_ H_ 0.0228368 0.590481 0.810682 0.10932
H_ H_ 0.30827 0.562748 0.804597 0.10932
H_ H_ 0.124273 0.8212 0.853228 0.10932
H_ H_ 0.396765 0.813383 0.863957 0.10932
H_ H_ 0.114264 0.688231 0.863219 0.10932
H_ H_ 0.362355 0.691594 0.862659 0.10932
H_ H_ 0.10882 0.699012 0.940909 0.10932
H_ H_ 0.36183 0.69311 0.942388 0.10932
H_ H_ 0.124934 0.82838 0.931629 0.10932
H_ H_ 0.385254 0.820378 0.93868 0.10932
H_ H_ 0.173878 0.757613 0.646076 0.10932
H_ H_ 0.362239 0.80823 0.64121 0.10932
H_ H_ 0.0779139 0.753 0.636514 0.10932
H_ H_ 0.379129 0.681523 0.650025 0.10932
H_ H_ 0.0792887 0.745542 0.562704 0.10932
H_ H_ 0.378314 0.677784 0.570141 0.10932
H_ H_ 0.175357 0.753564 0.569203 0.10932
H_ H_ 0.359779 0.806456 0.565294 0.10932
C_ C_ 0.059459 0.843595 0.746658 -0.02249
C_ C_ 0.313515 0.849888 0.752154 -0.02249
C_ C_ 0.0118931 0.958823 0.748398 -0.02249
C_ C_ 0.263178 0.963523 0.749293 -0.02249
C_ C_ 0.0400154 0.905133 0.71082 -0.11473
C_ C_ 0.285848 0.904536 0.713309 -0.11473
C_ C_ 0.0445226 0.857178 0.782459 -0.11473
C_ C_ 0.308691 0.873003 0.789498 -0.11473
C_ C_ 0.0539349 0.865749 0.709631 -0.11473
C_ C_ 0.301034 0.866872 0.713555 -0.11473
C_ C_ 0.0264414 0.919078 0.747461 -0.02249
C_ C_ 0.280572 0.925847 0.751419 -0.02249
C_ C_ 0.0827167 0.810385 0.748264 0.6875
C_ C_ 0.33482 0.815519 0.751685 0.6875
C_ C_ 0.0303737 0.896308 0.783708 -0.11473
C_ C_ 0.289483 0.907879 0.7891 -0.11473
C_ C_ 0.183258 0.845942 0.749252 -0.02249
C_ C_ 0.431968 0.846386 0.756624 -0.02249
C_ C_ 0.231891 0.963522 0.750871 -0.02249
C_ C_ 0.484965 0.958844 0.752033 -0.02249
C_ C_ 0.20088 0.906992 0.787427 -0.11473
C_ C_ 0.46883 0.893608 0.789241 -0.11473
C_ C_ 0.195644 0.863655 0.712512 -0.11473
C_ C_ 0.433527 0.870772 0.72064 -0.11473
C_ C_ 0.185229 0.869953 0.786703 -0.11473
C_ C_ 0.450709 0.858293 0.79173 -0.11473
C_ C_ 0.21587 0.923449 0.751328 -0.02249
C_ C_ 0.46816 0.919927 0.754008 -0.02249
C_ C_ 0.162929 0.810011 0.747002 0.6875
C_ C_ 0.41457 0.807633 0.756774 0.6875
C_ C_ 0.21289 0.899639 0.713587 -0.11473
C_ C_ 0.449947 0.908003 0.720417 -0.11473
C_ C_ 0.17859 0.650296 0.750829 -0.02249
C_ C_ 0.432709 0.65361 0.749837 -0.02249
C_ C_ 0.233654 0.537843 0.746383 -0.02249
C_ C_ 0.481876 0.538663 0.748568 -0.02249
C_ C_ 0.214482 0.602049 0.78399 -0.11473
C_ C_ 0.453577 0.593621 0.786646 -0.11473
C_ C_ 0.181797 0.626911 0.713682 -0.11473
C_ C_ 0.448062 0.640175 0.713607 -0.11473
C_ C_ 0.195297 0.635511 0.786267 -0.11473
C_ C_ 0.434101 0.629494 0.785729 -0.11473
C_ C_ 0.215594 0.576714 0.748255 -0.02249
C_ C_ 0.465015 0.578129 0.748945 -0.02249
C_ C_ 0.158339 0.688556 0.752362 0.6875
C_ C_ 0.413487 0.690504 0.749853 0.6875
C_ C_ 0.200131 0.590667 0.713146 -0.11473
C_ C_ 0.466033 0.604363 0.713332 -0.11473
C_ C_ 0.0693343 0.647547 0.747592 -0.02249
C_ C_ 0.313676 0.653436 0.74995 -0.02249
C_ C_ 0.0132852 0.538137 0.743602 -0.02249
C_ C_ 0.266183 0.535194 0.744474 -0.02249
C_ C_ 0.0451874 0.593003 0.70894 -0.11473
C_ C_ 0.281656 0.602775 0.713028 -0.11473
C_ C_ 0.0537758 0.634158 0.784009 -0.11473
C_ C_ 0.31547 0.625765 0.784568 -0.11473
C_ C_ 0.0626936 0.627823 0.709488 -0.11473
C_ C_ 0.295163 0.642666 0.715886 -0.11473
C_ C_ 0.0308368 0.577959 0.744188 -0.02249
C_ C_ 0.284819 0.573829 0.745837 -0.02249
C_ C_ 0.0867233 0.688689 0.748742 0.6875
C_ C_ 0.331886 0.692151 0.751574 0.6875
C_ C_ 0.0357307 0.598405 0.78222 -0.11473
C_ C_ 0.30258 0.585269 0.781014 -0.11473
C_ C_ 0.124068 0.79406 0.87213 0.17695
C_ C_ 0.386023 0.788384 0.880571 0.17695
C_ C_ 0.117939 0.720682 0.878922 0.17695
C_ C_ 0.36862 0.718802 0.880445 0.17695
C_ C_ 0.118496 0.723421 0.923929 -0.11473
C_ C_ 0.370422 0.718657 0.925529 -0.11473
C_ C_ 0.12117 0.76392 0.942646 0.23465
C_ C_ 0.377277 0.755236 0.948176 0.23465
C_ C_ 0.12454 0.797656 0.916195 -0.11473
C_ C_ 0.384968 0.79131 0.924203 -0.11473
C_ C_ 0.152643 0.756166 0.627272 0.17695
C_ C_ 0.365323 0.780376 0.625716 0.17695
C_ C_ 0.0995137 0.75162 0.623594 0.17695
C_ C_ 0.374265 0.708643 0.629992 0.17695
C_ C_ 0.100629 0.75178 0.579253 -0.11473
C_ C_ 0.378336 0.706769 0.585447 -0.11473
C_ C_ 0.127651 0.753706 0.559289 0.23465
C_ C_ 0.370994 0.740998 0.561349 0.23465
C_ C_ 0.154131 0.752488 0.583255 -0.11473
C_ C_ 0.366037 0.779246 0.582081 -0.11473
C_ C_ 0.0287775 -0.003750000000000031 0.753275 0.05793
C_ C_ 0.280086 0.00217795 0.74956 0.05793
C_ C_ 0.217513 0.498952 0.745718 0.05793
C_ C_ 0.466201 0.50142 0.748375 0.05793
Br Br 0.0683313 -0.0035760000000000236 0.776838 -0.17191
Br Br 0.322617 0.00464487 0.733214 -0.17191
Br Br 0.172533 0.498544 0.748658 -0.17191
Br Br 0.421167 0.502349 0.749938 -0.17191
N_ N_ 0.122571 0.755615 0.854036 -0.272
N_ N_ 0.379609 0.751441 0.859692 -0.272
N_ N_ 0.116901 0.770475 0.987302 -0.12501
N_ N_ 0.370468 0.760926 0.991862 -0.12501
N_ N_ 0.125673 0.754225 0.646708 -0.272
N_ N_ 0.371107 0.745672 0.647962 -0.272
N_ N_ 0.130515 0.75196 0.514836 -0.12501
N_ N_ 0.370565 0.740197 0.515496 -0.12501
O_ O_ 0.094229 0.795775 0.715247 -0.60745
O_ O_ 0.337322 0.793682 0.717765 -0.60745
O_ O_ 0.0922013 0.796197 0.782863 -0.60745
O_ O_ 0.345998 0.802681 0.786779 -0.60745
O_ O_ 0.155352 0.791315 0.781422 -0.60745
O_ O_ 0.407685 0.788668 0.78879 -0.60745
O_ O_ 0.151983 0.799012 0.712178 -0.60745
O_ O_ 0.403377 0.795319 0.722618 -0.60745
O_ O_ 0.152468 0.703242 0.788282 -0.60745
O_ O_ 0.400185 0.70174 0.783747 -0.60745
O_ O_ 0.158779 0.712293 0.720991 -0.60745
O_ O_ 0.404752 0.706737 0.715869 -0.60745
O_ O_ 0.0988447 0.703627 0.716518 -0.60745
O_ O_ 0.342326 0.706878 0.71783 -0.60745
O_ O_ 0.0917878 0.706073 0.783592 -0.60745
O_ O_ 0.337272 0.710513 0.786625 -0.60745
Zn Zn 0.629952 0.250858 0.282441 0.9476
Zn Zn 0.877518 0.250793 0.287005 0.9476
Zn Zn 0.625424 0.252233 0.212589 0.9476
Zn Zn 0.876065 0.253816 0.219022 0.9476
H_ H_ 0.544769 0.430326 0.189649 0.10932
H_ H_ 0.792565 0.420612 0.186487 0.10932
H_ H_ 0.561158 0.341832 0.31344 0.10932
H_ H_ 0.830025 0.362821 0.321831 0.10932
H_ H_ 0.573921 0.361786 0.183735 0.10932
H_ H_ 0.822677 0.356827 0.18491 0.10932
H_ H_ 0.534519 0.406836 0.32096 0.10932
H_ H_ 0.803864 0.430467 0.318878 0.10932
H_ H_ 0.728069 0.411465 0.318167 0.10932
H_ H_ 0.991879 0.401216 0.301134 0.10932
H_ H_ 0.686378 0.35827 0.182885 0.10932
H_ H_ 0.917378 0.37129 0.186203 0.10932
H_ H_ 0.699776 0.344298 0.318907 0.10932
H_ H_ 0.960923 0.339537 0.304514 0.10932
H_ H_ 0.711844 0.424464 0.185111 0.10932
H_ H_ 0.947172 0.43884 0.191614 0.10932
H_ H_ 0.721183 0.0855973 0.319381 0.10932
H_ H_ 0.96085 0.0759691 0.318001 0.10932
H_ H_ 0.678699 0.134402 0.185158 0.10932
H_ H_ 0.941295 0.155469 0.188255 0.10932
H_ H_ 0.69231 0.144998 0.319754 0.10932
H_ H_ 0.933197 0.13822 0.322287 0.10932
H_ H_ 0.705261 0.0720374 0.189385 0.10932
H_ H_ 0.961832 0.0853127 0.183884 0.10932
H_ H_ 0.53029 0.0868276 0.177566 0.10932
H_ H_ 0.781298 0.0914868 0.189557 0.10932
H_ H_ 0.574865 0.134927 0.310335 0.10932
H_ H_ 0.81472 0.152757 0.323777 0.10932
H_ H_ 0.569351 0.142605 0.17939 0.10932
H_ H_ 0.809363 0.158037 0.190739 0.10932
H_ H_ 0.53718 0.0810205 0.312131 0.10932
H_ H_ 0.787667 0.0825758 0.324456 0.10932
H_ H_ 0.622762 0.186145 0.360926 0.10932
H_ H_ 0.891707 0.189443 0.364019 0.10932
H_ H_ 0.622351 0.316435 0.353333 0.10932
H_ H_ 0.880879 0.316841 0.358831 0.10932
H_ H_ 0.640157 0.320391 0.427019 0.10932
H_ H_ 0.875314 0.321889 0.432005 0.10932
H_ H_ 0.629882 0.188178 0.440683 0.10932
H_ H_ 0.893045 0.190216 0.44173 0.10932
H_ H_ 0.650564 0.197746 0.132868 0.10932
H_ H_ 0.828211 0.257355 0.146962 0.10932
H_ H_ 0.609535 0.31485 0.139856 0.10932
H_ H_ 0.922451 0.248067 0.136275 0.10932
H_ H_ 0.605687 0.320874 0.0629186 0.10932
H_ H_ 0.917955 0.244029 0.0606932 0.10932
H_ H_ 0.644549 0.198798 0.054654 0.10932
H_ H_ 0.82322 0.246351 0.0697995 0.10932
C_ C_ 0.566385 0.346337 0.249295 -0.02249
C_ C_ 0.826651 0.35408 0.254076 -0.02249
C_ C_ 0.52021 0.464465 0.258376 -0.02249
C_ C_ 0.77072 0.464096 0.253803 -0.02249
C_ C_ 0.548551 0.410113 0.216833 -0.11473
C_ C_ 0.799587 0.407468 0.215759 -0.11473
C_ C_ 0.557497 0.360893 0.28774 -0.11473
C_ C_ 0.821141 0.375896 0.291802 -0.11473
C_ C_ 0.563316 0.372212 0.213303 -0.11473
C_ C_ 0.816484 0.371773 0.215245 -0.11473
C_ C_ 0.536274 0.423339 0.254377 -0.02249
C_ C_ 0.78998 0.42611 0.25293 -0.02249
C_ C_ 0.584311 0.30772 0.245644 0.6875
C_ C_ 0.841111 0.312793 0.254455 0.6875
C_ C_ 0.543741 0.400402 0.29133 -0.11473
C_ C_ 0.803502 0.411907 0.290608 -0.11473
C_ C_ 0.69222 0.343889 0.251309 -0.02249
C_ C_ 0.937384 0.348434 0.245658 -0.02249
C_ C_ 0.739792 0.463039 0.251644 -0.02249
C_ C_ 0.986146 0.4641 0.250536 -0.02249
C_ C_ 0.718338 0.399187 0.290446 -0.11473
C_ C_ 0.973728 0.395715 0.27857 -0.11473
C_ C_ 0.6942 0.36953 0.21366 -0.11473
C_ C_ 0.931373 0.37849 0.214272 -0.11473
C_ C_ 0.703236 0.36074 0.289445 -0.11473
C_ C_ 0.957269 0.359638 0.278254 -0.11473
C_ C_ 0.723005 0.421717 0.252566 -0.02249
C_ C_ 0.966416 0.427449 0.250598 -0.02249
C_ C_ 0.669128 0.311143 0.253213 0.6875
C_ C_ 0.919175 0.310947 0.249875 0.6875
C_ C_ 0.712096 0.404831 0.214206 -0.11473
C_ C_ 0.945115 0.418526 0.21793 -0.11473
C_ C_ 0.686025 0.152457 0.251513 -0.02249
C_ C_ 0.931674 0.152262 0.254755 -0.02249
C_ C_ 0.736558 0.0374702 0.256246 -0.02249
C_ C_ 0.98091 0.0379862 0.247635 -0.02249
C_ C_ 0.718528 0.1015 0.288694 -0.11473
C_ C_ 0.956397 0.0935486 0.289792 -0.11473
C_ C_ 0.686454 0.125812 0.215548 -0.11473
C_ C_ 0.940785 0.135799 0.216141 -0.11473
C_ C_ 0.699502 0.135316 0.290046 -0.11473
C_ C_ 0.941811 0.131139 0.291953 -0.11473
C_ C_ 0.719846 0.0777534 0.252754 -0.02249
C_ C_ 0.9639 0.0775763 0.252061 -0.02249
C_ C_ 0.666352 0.187935 0.253039 0.6875
C_ C_ 0.914029 0.191473 0.256415 0.6875
C_ C_ 0.703556 0.0897158 0.216486 -0.11473
C_ C_ 0.955202 0.098215 0.215514 -0.11473
C_ C_ 0.569013 0.151167 0.24605 -0.02249
C_ C_ 0.817229 0.155812 0.25828 -0.02249
C_ C_ 0.518023 0.0357055 0.241073 -0.02249
C_ C_ 0.768213 0.0374994 0.257132 -0.02249
C_ C_ 0.544264 0.0944513 0.206589 -0.11473
C_ C_ 0.791163 0.10094 0.218692 -0.11473
C_ C_ 0.562033 0.129136 0.282397 -0.11473
C_ C_ 0.811291 0.134231 0.29541 -0.11473
C_ C_ 0.559791 0.131776 0.207861 -0.11473
C_ C_ 0.803531 0.141351 0.22071 -0.11473
C_ C_ 0.537563 0.0745667 0.243356 -0.02249
C_ C_ 0.783836 0.0790817 0.256282 -0.02249
C_ C_ 0.589985 0.190075 0.24462 0.6875
C_ C_ 0.836738 0.192657 0.258565 0.6875
C_ C_ 0.543514 0.095713 0.280979 -0.11473
C_ C_ 0.793207 0.0977481 0.294971 -0.11473
C_ C_ 0.622848 0.215832 0.375102 0.17695
C_ C_ 0.887629 0.216041 0.380233 0.17695
C_ C_ 0.624522 0.287939 0.373638 0.17695
C_ C_ 0.882008 0.288855 0.375602 0.17695
C_ C_ 0.629097 0.291775 0.415442 -0.11473
C_ C_ 0.879877 0.292796 0.419556 -0.11473
C_ C_ 0.627323 0.256037 0.440423 0.23465
C_ C_ 0.886437 0.257219 0.445045 0.23465
C_ C_ 0.625451 0.217073 0.421584 -0.11473
C_ C_ 0.889313 0.217426 0.4246 -0.11473
C_ C_ 0.637241 0.222306 0.116199 0.17695
C_ C_ 0.848273 0.257627 0.127638 0.17695
C_ C_ 0.61838 0.290439 0.121917 0.17695
C_ C_ 0.899972 0.245338 0.123143 0.17695
C_ C_ 0.61242 0.291807 0.0776048 -0.11473
C_ C_ 0.898184 0.246562 0.0782747 -0.11473
C_ C_ 0.619403 0.258427 0.0531192 0.23465
C_ C_ 0.869752 0.249999 0.0581162 0.23465
C_ C_ 0.634819 0.224234 0.0724775 -0.11473
C_ C_ 0.844756 0.253224 0.08319 -0.11473
C_ C_ 0.537261 0.500609 0.259288 0.05793
C_ C_ 0.784798 0.504605 0.256274 0.05793
C_ C_ 0.721748 0.997777 0.255913 0.05793
C_ C_ 0.965487 1.000438035 0.243887 0.05793
Br Br 0.580905 0.500385 0.269301 -0.17191
Br Br 0.828621 0.509883 0.260758 -0.17191
Br Br 0.676888 -0.004952999999999985 0.254482 -0.17191
Br Br 0.922518 -0.004940999999999973 0.23525 -0.17191
N_ N_ 0.62428 0.251899 0.354195 -0.272
N_ N_ 0.881474 0.250984 0.357453 -0.272
N_ N_ 0.634715 0.258641 0.483915 -0.12501
N_ N_ 0.890238 0.260878 0.489453 -0.12501
N_ N_ 0.627029 0.254006 0.140068 -0.272
N_ N_ 0.875259 0.25155 0.146391 -0.272
N_ N_ 0.613451 0.261263 0.00855535 -0.12501
N_ N_ 0.865562 0.249569 0.0132863 -0.12501
O_ O_ 0.592551 0.295772 0.210811 -0.60745
O_ O_ 0.848813 0.295757 0.219722 -0.60745
O_ O_ 0.598471 0.29474 0.279479 -0.60745
O_ O_ 0.847907 0.294922 0.288558 -0.60745
O_ O_ 0.662626 0.29548 0.288169 -0.60745
O_ O_ 0.910227 0.297589 0.28663 -0.60745
O_ O_ 0.658885 0.296669 0.219072 -0.60745
O_ O_ 0.906925 0.29636 0.218206 -0.60745
O_ O_ 0.659509 0.203586 0.288201 -0.60745
O_ O_ 0.904876 0.204926 0.290493 -0.60745
O_ O_ 0.657191 0.207485 0.219682 -0.60745
O_ O_ 0.907157 0.21116 0.222489 -0.60745
O_ O_ 0.594654 0.208365 0.21029 -0.60745
O_ O_ 0.843423 0.210084 0.225051 -0.60745
O_ O_ 0.597837 0.207117 0.279146 -0.60745
O_ O_ 0.847003 0.207812 0.292184 -0.60745
Zn Zn 0.627215 0.246939 0.780707 0.9476
Zn Zn 0.874762 0.24556 0.787443 0.9476
Zn Zn 0.619471 0.250666 0.712384 0.9476
Zn Zn 0.873339 0.249732 0.717892 0.9476
H_ H_ 0.524401 0.412984 0.686251 0.10932
H_ H_ 0.760216 0.393787 0.691633 0.10932
H_ H_ 0.565026 0.351712 0.820498 0.10932
H_ H_ 0.820948 0.360116 0.818162 0.10932
H_ H_ 0.554263 0.350769 0.683403 0.10932
H_ H_ 0.788882 0.329357 0.692457 0.10932
H_ H_ 0.539154 0.422349 0.820444 0.10932
H_ H_ 0.79134 0.421349 0.815556 0.10932
H_ H_ 0.72258 0.40592 0.816898 0.10932
H_ H_ 0.951586 0.427741 0.81858 0.10932
H_ H_ 0.668521 0.366447 0.682249 0.10932
H_ H_ 0.961936 0.336027 0.701402 0.10932
H_ H_ 0.696694 0.33629 0.812642 0.10932
H_ H_ 0.917102 0.367217 0.816848 0.10932
H_ H_ 0.694536 0.430595 0.6876 0.10932
H_ H_ 0.972148 0.410319 0.686933 0.10932
H_ H_ 0.733804 0.0988833 0.797036 0.10932
H_ H_ 0.964658 0.0792545 0.807378 0.10932
H_ H_ 0.669298 0.137169 0.67948 0.10932
H_ H_ 0.929413 0.148937 0.679067 0.10932
H_ H_ 0.708975 0.161939 0.802027 0.10932
H_ H_ 0.937521 0.139897 0.813463 0.10932
H_ H_ 0.701993 0.0760531 0.670703 0.10932
H_ H_ 0.956458 0.0784836 0.675182 0.10932
H_ H_ 0.551054 0.065024 0.691337 0.10932
H_ H_ 0.781675 0.0825166 0.675834 0.10932
H_ H_ 0.550527 0.164163 0.810776 0.10932
H_ H_ 0.82811 0.127253 0.812878 0.10932
H_ H_ 0.577753 0.127924 0.689035 0.10932
H_ H_ 0.807157 0.150749 0.679138 0.10932
H_ H_ 0.512795 0.106143 0.811972 0.10932
H_ H_ 0.793475 0.0689494 0.809258 0.10932
H_ H_ 0.633767 0.308829 0.863019 0.10932
H_ H_ 0.923451 0.248518 0.856734 0.10932
H_ H_ 0.61139 0.184178 0.847202 0.10932
H_ H_ 0.831047 0.235902 0.869617 0.10932
H_ H_ 0.605622 0.17584 0.925712 0.10932
H_ H_ 0.834841 0.233519 0.944384 0.10932
H_ H_ 0.625689 0.303284 0.942084 0.10932
H_ H_ 0.93044 0.255698 0.934065 0.10932
H_ H_ 0.619657 0.183321 0.642396 0.10932
H_ H_ 0.917827 0.277951 0.643919 0.10932
H_ H_ 0.625237 0.312581 0.634771 0.10932
H_ H_ 0.832746 0.217327 0.63959 0.10932
H_ H_ 0.619291 0.311592 0.557145 0.10932
H_ H_ 0.83488 0.210359 0.560278 0.10932
H_ H_ 0.624604 0.180648 0.566435 0.10932
H_ H_ 0.919787 0.271806 0.565853 0.10932
C_ C_ 0.562577 0.347294 0.751009 -0.02249
C_ C_ 0.812506 0.342929 0.752296 -0.02249
C_ C_ 0.511497 0.460988 0.756204 -0.02249
C_ C_ 0.762028 0.458458 0.747015 -0.02249
C_ C_ 0.530219 0.398319 0.716155 -0.11473
C_ C_ 0.776283 0.389344 0.716551 -0.11473
C_ C_ 0.556951 0.365987 0.790345 -0.11473
C_ C_ 0.809007 0.368122 0.788835 -0.11473
C_ C_ 0.547676 0.362974 0.712876 -0.11473
C_ C_ 0.79176 0.351217 0.718936 -0.11473
C_ C_ 0.528656 0.420474 0.753095 -0.02249
C_ C_ 0.777901 0.417037 0.750442 -0.02249
C_ C_ 0.583591 0.310036 0.750247 0.6875
C_ C_ 0.832777 0.306147 0.75223 0.6875
C_ C_ 0.54051 0.402687 0.790048 -0.11473
C_ C_ 0.793417 0.405991 0.787064 -0.11473
C_ C_ 0.682494 0.343492 0.746999 -0.02249
C_ C_ 0.932895 0.347486 0.755115 -0.02249
C_ C_ 0.729786 0.460432 0.750407 -0.02249
C_ C_ 0.978754 0.463043 0.753192 -0.02249
C_ C_ 0.712534 0.395716 0.787201 -0.11473
C_ C_ 0.949697 0.409141 0.789301 -0.11473
C_ C_ 0.68094 0.372219 0.712227 -0.11473
C_ C_ 0.950129 0.358872 0.720383 -0.11473
C_ C_ 0.699119 0.355737 0.784617 -0.11473
C_ C_ 0.9304 0.375423 0.788732 -0.11473
C_ C_ 0.711529 0.420848 0.750939 -0.02249
C_ C_ 0.960598 0.425988 0.750591 -0.02249
C_ C_ 0.664976 0.305728 0.745242 0.6875
C_ C_ 0.915907 0.306839 0.753197 0.6875
C_ C_ 0.697995 0.407795 0.713646 -0.11473
C_ C_ 0.962378 0.399443 0.716525 -0.11473
C_ C_ 0.682692 0.152164 0.741283 -0.02249
C_ C_ 0.93584 0.155395 0.746057 -0.02249
C_ C_ 0.733139 0.0347957 0.737049 -0.02249
C_ C_ 0.982733 0.0366364 0.739836 -0.02249
C_ C_ 0.717264 0.101513 0.773898 -0.11473
C_ C_ 0.959769 0.0955235 0.779103 -0.11473
C_ C_ 0.683025 0.127347 0.704368 -0.11473
C_ C_ 0.94263 0.136444 0.705737 -0.11473
C_ C_ 0.703404 0.141172 0.775024 -0.11473
C_ C_ 0.945012 0.13325 0.781722 -0.11473
C_ C_ 0.716856 0.0773384 0.737792 -0.02249
C_ C_ 0.966164 0.0771916 0.740033 -0.02249
C_ C_ 0.665442 0.191138 0.743675 0.6875
C_ C_ 0.914846 0.191754 0.749991 0.6875
C_ C_ 0.700459 0.0921729 0.702696 -0.11473
C_ C_ 0.955682 0.0958283 0.703379 -0.11473
C_ C_ 0.565877 0.149317 0.749442 -0.02249
C_ C_ 0.819536 0.145639 0.74755 -0.02249
C_ C_ 0.515231 0.0350181 0.759644 -0.02249
C_ C_ 0.764954 0.033576 0.741483 -0.02249
C_ C_ 0.545589 0.0870783 0.716778 -0.11473
C_ C_ 0.789619 0.0945213 0.705359 -0.11473
C_ C_ 0.549255 0.140576 0.78538 -0.11473
C_ C_ 0.81564 0.120326 0.783202 -0.11473
C_ C_ 0.562847 0.122192 0.716179 -0.11473
C_ C_ 0.806339 0.131992 0.708652 -0.11473
C_ C_ 0.532221 0.0760923 0.755377 -0.02249
C_ C_ 0.781624 0.0739797 0.743165 -0.02249
C_ C_ 0.58317 0.188322 0.746505 0.6875
C_ C_ 0.834455 0.186548 0.749652 0.6875
C_ C_ 0.531585 0.104484 0.788202 -0.11473
C_ C_ 0.798705 0.0850056 0.779556 -0.11473
C_ C_ 0.629628 0.27921 0.877426 0.17695
C_ C_ 0.905206 0.244018 0.876363 0.17695
C_ C_ 0.619516 0.207983 0.86846 0.17695
C_ C_ 0.853126 0.238379 0.883751 0.17695
C_ C_ 0.614549 0.20463 0.913766 -0.11473
C_ C_ 0.855375 0.240427 0.927338 -0.11473
C_ C_ 0.616934 0.2383 0.939476 0.23465
C_ C_ 0.883495 0.240559 0.946068 0.23465
C_ C_ 0.624961 0.275965 0.921262 -0.11473
C_ C_ 0.908624 0.247407 0.920814 -0.11473
C_ C_ 0.619469 0.21284 0.623194 0.17695
C_ C_ 0.899574 0.261308 0.626118 0.17695
C_ C_ 0.619015 0.285374 0.618451 0.17695
C_ C_ 0.851582 0.228677 0.624624 0.17695
C_ C_ 0.617417 0.284487 0.575235 -0.11473
C_ C_ 0.852701 0.224208 0.580415 -0.11473
C_ C_ 0.621011 0.246921 0.555415 0.23465
C_ C_ 0.877692 0.238739 0.559077 0.23465
C_ C_ 0.622304 0.210079 0.580179 -0.11473
C_ C_ 0.90039 0.260376 0.581303 -0.11473
C_ C_ 0.527938 0.498666 0.74503 0.05793
C_ C_ 0.778732 0.49534 0.744025 0.05793
C_ C_ 0.71743 -0.0017759999999999998 0.739655 0.05793
C_ C_ 0.965408 -0.000137627 0.740175 0.05793
Br Br 0.570644 0.494492 0.73951 -0.17191
Br Br 0.818953 0.492366 0.720527 -0.17191
Br Br 0.67364 0.00234981 0.733839 -0.17191
Br Br 0.922697 0.00476299 0.734729 -0.17191
N_ N_ 0.625697 0.244866 0.851919 -0.272
N_ N_ 0.877598 0.23955 0.860015 -0.272
N_ N_ 0.619706 0.233205 0.983526 -0.12501
N_ N_ 0.886036 0.23757 0.990399 -0.12501
N_ N_ 0.618662 0.250585 0.641381 -0.272
N_ N_ 0.873966 0.249597 0.646766 -0.272
N_ N_ 0.616872 0.243711 0.510339 -0.12501
N_ N_ 0.878258 0.235587 0.514346 -0.12501
O_ O_ 0.590335 0.295227 0.716281 -0.60745
O_ O_ 0.83846 0.291231 0.717144 -0.60745
O_ O_ 0.593922 0.293192 0.783535 -0.60745
O_ O_ 0.842911 0.291965 0.787186 -0.60745
O_ O_ 0.658553 0.290286 0.780696 -0.60745
O_ O_ 0.908529 0.289602 0.787107 -0.60745
O_ O_ 0.650665 0.294682 0.713517 -0.60745
O_ O_ 0.905077 0.29434 0.718816 -0.60745
O_ O_ 0.656718 0.200097 0.77898 -0.60745
O_ O_ 0.903762 0.200805 0.785421 -0.60745
O_ O_ 0.652814 0.206365 0.711457 -0.60745
O_ O_ 0.906641 0.209939 0.717177 -0.60745
O_ O_ 0.590137 0.202372 0.711457 -0.60745
O_ O_ 0.842122 0.205581 0.716697 -0.60745
O_ O_ 0.592805 0.205438 0.779074 -0.60745
O_ O_ 0.841882 0.20242 0.785401 -0.60745
Zn Zn 0.625285 0.752387 0.283647 0.9476
Zn Zn 0.879227 0.74988 0.284763 0.9476
Zn Zn 0.62786 0.749841 0.214938 0.9476
Zn Zn 0.87517 0.750828 0.21627 0.9476
H_ H_ 0.534208 0.915714 0.178212 0.10932
H_ H_ 0.799266 0.928531 0.193834 0.10932
H_ H_ 0.554022 0.84654 0.31455 0.10932
H_ H_ 0.816769 0.848069 0.324553 0.10932
H_ H_ 0.563642 0.851708 0.176592 0.10932
H_ H_ 0.836198 0.873274 0.194265 0.10932
H_ H_ 0.522369 0.911427 0.310174 0.10932
H_ H_ 0.782248 0.908771 0.326896 0.10932
H_ H_ 0.7172 0.914554 0.321164 0.10932
H_ H_ 0.961152 0.924903 0.317886 0.10932
H_ H_ 0.688358 0.854851 0.183265 0.10932
H_ H_ 0.941382 0.846774 0.185415 0.10932
H_ H_ 0.686503 0.854296 0.317821 0.10932
H_ H_ 0.9377 0.855918 0.321616 0.10932
H_ H_ 0.711306 0.927834 0.192831 0.10932
H_ H_ 0.961558 0.91643 0.182463 0.10932
H_ H_ 0.729701 0.599399 0.318661 0.10932
H_ H_ 0.990065 0.600655 0.302595 0.10932
H_ H_ 0.678241 0.637331 0.18362 0.10932
H_ H_ 0.917112 0.63067 0.183866 0.10932
H_ H_ 0.697072 0.661032 0.315861 0.10932
H_ H_ 0.964801 0.673704 0.2931 0.10932
H_ H_ 0.702964 0.569341 0.192108 0.10932
H_ H_ 0.950145 0.56827 0.180579 0.10932
H_ H_ 0.544575 0.574272 0.186333 0.10932
H_ H_ 0.790415 0.581021 0.185491 0.10932
H_ H_ 0.558654 0.661221 0.314733 0.10932
H_ H_ 0.822246 0.648377 0.316741 0.10932
H_ H_ 0.57505 0.641157 0.185583 0.10932
H_ H_ 0.812895 0.647719 0.180096 0.10932
H_ H_ 0.545049 0.587054 0.31987 0.10932
H_ H_ 0.794751 0.581634 0.316316 0.10932
H_ H_ 0.642353 0.688413 0.356326 0.10932
H_ H_ 0.836068 0.747357 0.358529 0.10932
H_ H_ 0.622538 0.815574 0.349942 0.10932
H_ H_ 0.929066 0.735845 0.350561 0.10932
H_ H_ 0.625431 0.822805 0.42722 0.10932
H_ H_ 0.932841 0.725052 0.425856 0.10932
H_ H_ 0.628821 0.688878 0.435512 0.10932
H_ H_ 0.836507 0.743355 0.437207 0.10932
H_ H_ 0.584661 0.726832 0.137702 0.10932
H_ H_ 0.874698 0.692937 0.139584 0.10932
H_ H_ 0.67423 0.77357 0.140692 0.10932
H_ H_ 0.870124 0.820125 0.141983 0.10932
H_ H_ 0.676549 0.772766 0.0646183 0.10932
H_ H_ 0.873163 0.820646 0.0627668 0.10932
H_ H_ 0.58817 0.713895 0.0615121 0.10932
H_ H_ 0.884487 0.691549 0.0634521 0.10932
C_ C_ 0.564393 0.84512 0.246806 -0.02249
C_ C_ 0.826318 0.854953 0.25699 -0.02249
C_ C_ 0.515327 0.960727 0.242547 -0.02249
C_ C_ 0.769844 0.962499 0.261163 -0.02249
C_ C_ 0.540103 0.902069 0.207786 -0.11473
C_ C_ 0.80129 0.910959 0.221812 -0.11473
C_ C_ 0.551886 0.862996 0.285017 -0.11473
C_ C_ 0.812246 0.865947 0.295244 -0.11473
C_ C_ 0.553722 0.863148 0.208029 -0.11473
C_ C_ 0.822211 0.879847 0.221305 -0.11473
C_ C_ 0.531749 0.921878 0.244598 -0.02249
C_ C_ 0.78694 0.922123 0.259197 -0.02249
C_ C_ 0.586215 0.808254 0.249174 0.6875
C_ C_ 0.843649 0.816419 0.254678 0.6875
C_ C_ 0.534671 0.899808 0.28339 -0.11473
C_ C_ 0.793561 0.900391 0.29622 -0.11473
C_ C_ 0.683397 0.850677 0.251188 -0.02249
C_ C_ 0.937955 0.844907 0.253647 -0.02249
C_ C_ 0.738443 0.960658 0.258362 -0.02249
C_ C_ 0.980754 0.963541 0.24973 -0.02249
C_ C_ 0.711992 0.903258 0.291344 -0.11473
C_ C_ 0.956504 0.907352 0.290226 -0.11473
C_ C_ 0.692975 0.869668 0.213829 -0.11473
C_ C_ 0.944964 0.86384 0.216342 -0.11473
C_ C_ 0.694241 0.867947 0.289248 -0.11473
C_ C_ 0.944554 0.867106 0.29205 -0.11473
C_ C_ 0.722025 0.921416 0.254535 -0.02249
C_ C_ 0.964077 0.924056 0.252008 -0.02249
C_ C_ 0.664613 0.812407 0.252075 0.6875
C_ C_ 0.917957 0.808392 0.254281 0.6875
C_ C_ 0.710364 0.907111 0.216078 -0.11473
C_ C_ 0.957736 0.902453 0.214241 -0.11473
C_ C_ 0.680817 0.652946 0.251461 -0.02249
C_ C_ 0.936041 0.652904 0.241887 -0.02249
C_ C_ 0.73691 0.539708 0.254587 -0.02249
C_ C_ 0.987688 0.539108 0.245065 -0.02249
C_ C_ 0.717095 0.606981 0.289114 -0.11473
C_ C_ 0.975958 0.61042 0.274337 -0.11473
C_ C_ 0.686044 0.628247 0.214847 -0.11473
C_ C_ 0.933502 0.625025 0.208993 -0.11473
C_ C_ 0.696006 0.640859 0.289217 -0.11473
C_ C_ 0.960201 0.647833 0.271572 -0.11473
C_ C_ 0.719717 0.580631 0.254241 -0.02249
C_ C_ 0.970657 0.579814 0.243346 -0.02249
C_ C_ 0.664952 0.692397 0.24962 0.6875
C_ C_ 0.916053 0.691152 0.244711 0.6875
C_ C_ 0.702938 0.591509 0.218479 -0.11473
C_ C_ 0.950543 0.588249 0.20894 -0.11473
C_ C_ 0.567086 0.65739 0.248642 -0.02249
C_ C_ 0.816703 0.657814 0.249572 -0.02249
C_ C_ 0.522039 0.539391 0.256204 -0.02249
C_ C_ 0.768325 0.542207 0.250924 -0.02249
C_ C_ 0.546535 0.593996 0.214377 -0.11473
C_ C_ 0.794026 0.59953 0.213934 -0.11473
C_ C_ 0.555378 0.64363 0.28719 -0.11473
C_ C_ 0.810146 0.638369 0.28759 -0.11473
C_ C_ 0.562319 0.633096 0.212456 -0.11473
C_ C_ 0.806815 0.637723 0.212458 -0.11473
C_ C_ 0.54055 0.578354 0.253538 -0.02249
C_ C_ 0.783592 0.5834 0.251175 -0.02249
C_ C_ 0.586917 0.694958 0.246927 0.6875
C_ C_ 0.834045 0.696575 0.249556 0.6875
C_ C_ 0.543595 0.603285 0.289214 -0.11473
C_ C_ 0.794123 0.601884 0.289605 -0.11473
C_ C_ 0.636387 0.716482 0.374488 0.17695
C_ C_ 0.85662 0.74813 0.376345 0.17695
C_ C_ 0.628459 0.787609 0.369545 0.17695
C_ C_ 0.908794 0.737078 0.370506 0.17695
C_ C_ 0.628447 0.79072 0.414087 -0.11473
C_ C_ 0.911954 0.73474 0.41428 -0.11473
C_ C_ 0.632458 0.75506 0.439311 0.23465
C_ C_ 0.886052 0.738205 0.439834 0.23465
C_ C_ 0.63426 0.716968 0.419145 -0.11473
C_ C_ 0.857848 0.742296 0.419657 -0.11473
C_ C_ 0.605387 0.735923 0.121863 0.17695
C_ C_ 0.876963 0.720931 0.122764 0.17695
C_ C_ 0.653971 0.762587 0.123809 0.17695
C_ C_ 0.873659 0.793765 0.123995 0.17695
C_ C_ 0.654767 0.762581 0.0792397 -0.11473
C_ C_ 0.875802 0.794025 0.0810332 -0.11473
C_ C_ 0.632082 0.74281 0.0567715 0.23465
C_ C_ 0.876907 0.759147 0.0583365 0.23465
C_ C_ 0.607341 0.729009 0.0777194 -0.11473
C_ C_ 0.879677 0.721322 0.078568 -0.11473
C_ C_ 0.531862 0.996941 0.235317 0.05793
C_ C_ 0.785303 1.00227887 0.261629 0.05793
C_ C_ 0.723664 0.501652 0.252853 0.05793
C_ C_ 0.971633 0.502578 0.251268 0.05793
Br Br 0.572057 0.994486 0.211634 -0.17191
Br Br 0.828612 1.00161878 0.270487 -0.17191
Br Br 0.681326 0.502846 0.260053 -0.17191
Br Br 0.931356 0.504835 0.273972 -0.17191
N_ N_ 0.627898 0.750281 0.352687 -0.272
N_ N_ 0.881232 0.745152 0.353889 -0.272
N_ N_ 0.624258 0.75819 0.482815 -0.12501
N_ N_ 0.889489 0.741462 0.484708 -0.12501
N_ N_ 0.627578 0.754831 0.144187 -0.272
N_ N_ 0.874827 0.756528 0.143827 -0.272
N_ N_ 0.633781 0.734337 0.0118439 -0.12501
N_ N_ 0.877367 0.762948 0.0140124 -0.12501
O_ O_ 0.595537 0.791077 0.216286 -0.60745
O_ O_ 0.846206 0.796391 0.220703 -0.60745
O_ O_ 0.594515 0.795067 0.284469 -0.60745
O_ O_ 0.854945 0.801513 0.288534 -0.60745
O_ O_ 0.655736 0.798435 0.286777 -0.60745
O_ O_ 0.909966 0.792196 0.289004 -0.60745
O_ O_ 0.656917 0.796984 0.217821 -0.60745
O_ O_ 0.909058 0.792268 0.219521 -0.60745
O_ O_ 0.657871 0.709073 0.283808 -0.60745
O_ O_ 0.908282 0.704905 0.279473 -0.60745
O_ O_ 0.660128 0.708823 0.214668 -0.60745
O_ O_ 0.904868 0.7057 0.210805 -0.60745
O_ O_ 0.598475 0.705698 0.21369 -0.60745
O_ O_ 0.843595 0.710705 0.214159 -0.60745
O_ O_ 0.59701 0.70833 0.28108 -0.60745
O_ O_ 0.843177 0.712705 0.283979 -0.60745
Zn Zn 0.62383 0.747285 0.78117 0.9476
Zn Zn 0.872522 0.74796 0.784341 0.9476
Zn Zn 0.623969 0.750245 0.71327 0.9476
Zn Zn 0.869658 0.747381 0.713058 0.9476
H_ H_ 0.523907 0.906894 0.688327 0.10932
H_ H_ 0.774274 0.909372 0.680511 0.10932
H_ H_ 0.582573 0.85933 0.811654 0.10932
H_ H_ 0.821426 0.858185 0.81202 0.10932
H_ H_ 0.564835 0.855464 0.679692 0.10932
H_ H_ 0.803587 0.84308 0.678375 0.10932
H_ H_ 0.54833 0.920081 0.819646 0.10932
H_ H_ 0.788876 0.918863 0.813069 0.10932
H_ H_ 0.705703 0.928669 0.80735 0.10932
H_ H_ 0.952958 0.928353 0.811213 0.10932
H_ H_ 0.694848 0.839764 0.678713 0.10932
H_ H_ 0.934347 0.84666 0.68127 0.10932
H_ H_ 0.678148 0.864273 0.81341 0.10932
H_ H_ 0.928778 0.860776 0.815594 0.10932
H_ H_ 0.721137 0.906884 0.676406 0.10932
H_ H_ 0.962098 0.91408 0.678202 0.10932
H_ H_ 0.726466 0.591007 0.809044 0.10932
H_ H_ 0.972949 0.596608 0.817209 0.10932
H_ H_ 0.6576 0.625897 0.693779 0.10932
H_ H_ 0.937497 0.645892 0.680088 0.10932
H_ H_ 0.698835 0.655772 0.80932 0.10932
H_ H_ 0.939532 0.657669 0.813182 0.10932
H_ H_ 0.69726 0.573372 0.682006 0.10932
H_ H_ 0.968866 0.582528 0.687257 0.10932
H_ H_ 0.539606 0.581223 0.678453 0.10932
H_ H_ 0.76047 0.598283 0.68986 0.10932
H_ H_ 0.567801 0.643252 0.812221 0.10932
H_ H_ 0.836065 0.623709 0.802788 0.10932
H_ H_ 0.560785 0.648965 0.677363 0.10932
H_ H_ 0.789661 0.664246 0.691798 0.10932
H_ H_ 0.538524 0.578798 0.814187 0.10932
H_ H_ 0.808366 0.555331 0.797593 0.10932
H_ H_ 0.582721 0.775448 0.853094 0.10932
H_ H_ 0.868281 0.679571 0.85726 0.10932
H_ H_ 0.673053 0.727035 0.859533 0.10932
H_ H_ 0.889612 0.806616 0.864892 0.10932
H_ H_ 0.67176 0.728995 0.936581 0.10932
H_ H_ 0.88249 0.805487 0.943193 0.10932
H_ H_ 0.583018 0.781705 0.930917 0.10932
H_ H_ 0.878139 0.669469 0.932728 0.10932
H_ H_ 0.630099 0.681597 0.646537 0.10932
H_ H_ 0.848945 0.811298 0.639763 0.10932
H_ H_ 0.622605 0.813231 0.634373 0.10932
H_ H_ 0.896692 0.697902 0.640365 0.10932
H_ H_ 0.630613 0.808695 0.559814 0.10932
H_ H_ 0.89802 0.698876 0.56146 0.10932
H_ H_ 0.633021 0.674933 0.56891 0.10932
H_ H_ 0.848119 0.813459 0.560153 0.10932
C_ C_ 0.57044 0.848002 0.748104 -0.02249
C_ C_ 0.816749 0.846977 0.745341 -0.02249
C_ C_ 0.517139 0.958492 0.75546 -0.02249
C_ C_ 0.76368 0.958939 0.745658 -0.02249
C_ C_ 0.537206 0.897969 0.71477 -0.11473
C_ C_ 0.784998 0.896862 0.707657 -0.11473
C_ C_ 0.569139 0.870092 0.78575 -0.11473
C_ C_ 0.811007 0.867564 0.783299 -0.11473
C_ C_ 0.559662 0.86781 0.711559 -0.11473
C_ C_ 0.799946 0.857602 0.708293 -0.11473
C_ C_ 0.535506 0.92024 0.753932 -0.02249
C_ C_ 0.779833 0.91784 0.746323 -0.02249
C_ C_ 0.587045 0.810102 0.746916 0.6875
C_ C_ 0.83582 0.80938 0.74809 0.6875
C_ C_ 0.551898 0.906418 0.788652 -0.11473
C_ C_ 0.793696 0.902653 0.784097 -0.11473
C_ C_ 0.682146 0.847757 0.744986 -0.02249
C_ C_ 0.926921 0.849135 0.748359 -0.02249
C_ C_ 0.731947 0.960768 0.739895 -0.02249
C_ C_ 0.979704 0.961277 0.742648 -0.02249
C_ C_ 0.701711 0.908913 0.780334 -0.11473
C_ C_ 0.950648 0.908145 0.783426 -0.11473
C_ C_ 0.694931 0.859539 0.705419 -0.11473
C_ C_ 0.938742 0.862654 0.71027 -0.11473
C_ C_ 0.685611 0.871658 0.782255 -0.11473
C_ C_ 0.934747 0.871685 0.785285 -0.11473
C_ C_ 0.712029 0.921968 0.740644 -0.02249
C_ C_ 0.96145 0.924802 0.74453 -0.02249
C_ C_ 0.664992 0.806896 0.747326 0.6875
C_ C_ 0.909212 0.80852 0.749096 0.6875
C_ C_ 0.708745 0.897512 0.704385 -0.11473
C_ C_ 0.954394 0.902766 0.70802 -0.11473
C_ C_ 0.679284 0.647462 0.751104 -0.02249
C_ C_ 0.935592 0.65828 0.747692 -0.02249
C_ C_ 0.731651 0.536384 0.743722 -0.02249
C_ C_ 0.982858 0.539868 0.752564 -0.02249
C_ C_ 0.712776 0.597899 0.782913 -0.11473
C_ C_ 0.963278 0.605813 0.787826 -0.11473
C_ C_ 0.675455 0.62132 0.717223 -0.11473
C_ C_ 0.943862 0.636189 0.710273 -0.11473
C_ C_ 0.696393 0.635017 0.78492 -0.11473
C_ C_ 0.946432 0.643331 0.785277 -0.11473
C_ C_ 0.71321 0.574996 0.74652 -0.02249
C_ C_ 0.965933 0.580614 0.751304 -0.02249
C_ C_ 0.66229 0.686635 0.751334 0.6875
C_ C_ 0.915436 0.695754 0.747259 0.6875
C_ C_ 0.695825 0.589813 0.712723 -0.11473
C_ C_ 0.959669 0.597998 0.713993 -0.11473
C_ C_ 0.564287 0.652537 0.744759 -0.02249
C_ C_ 0.815318 0.647869 0.74544 -0.02249
C_ C_ 0.513787 0.537773 0.745672 -0.02249
C_ C_ 0.764077 0.534674 0.743404 -0.02249
C_ C_ 0.540487 0.596289 0.708283 -0.11473
C_ C_ 0.776866 0.60389 0.714044 -0.11473
C_ C_ 0.557048 0.633639 0.783097 -0.11473
C_ C_ 0.819245 0.619241 0.776949 -0.11473
C_ C_ 0.554095 0.634548 0.707022 -0.11473
C_ C_ 0.795194 0.638794 0.712703 -0.11473
C_ C_ 0.531474 0.577329 0.746782 -0.02249
C_ C_ 0.780832 0.574781 0.746611 -0.02249
C_ C_ 0.584392 0.69085 0.746404 0.6875
C_ C_ 0.833163 0.686416 0.746048 0.6875
C_ C_ 0.540124 0.596807 0.784565 -0.11473
C_ C_ 0.803798 0.581044 0.775479 -0.11473
C_ C_ 0.602088 0.764738 0.872576 0.17695
C_ C_ 0.871339 0.706912 0.877069 0.17695
C_ C_ 0.650745 0.734524 0.873871 0.17695
C_ C_ 0.881588 0.778871 0.881184 0.17695
C_ C_ 0.650614 0.734446 0.919038 -0.11473
C_ C_ 0.88147 0.776897 0.925899 -0.11473
C_ C_ 0.625197 0.753336 0.941126 0.23465
C_ C_ 0.878158 0.737936 0.946259 0.23465
C_ C_ 0.600622 0.765491 0.916497 -0.11473
C_ C_ 0.877258 0.703048 0.920956 -0.11473
C_ C_ 0.628983 0.709356 0.626096 0.17695
C_ C_ 0.860547 0.786222 0.622728 0.17695
C_ C_ 0.626074 0.782558 0.619611 0.17695
C_ C_ 0.887236 0.723129 0.622104 0.17695
C_ C_ 0.628822 0.780864 0.575454 -0.11473
C_ C_ 0.885883 0.723092 0.578369 -0.11473
C_ C_ 0.628811 0.741454 0.553967 0.23465
C_ C_ 0.871935 0.755644 0.555157 0.23465
C_ C_ 0.628794 0.705227 0.582341 -0.11473
C_ C_ 0.860335 0.788261 0.577725 -0.11473
C_ C_ 0.530994 -0.0033119999999999816 0.755994 0.05793
C_ C_ 0.780531 -0.004885999999999946 0.742747 0.05793
C_ C_ 0.714811 0.497581 0.747394 0.05793
C_ C_ 0.966215 0.503152 0.756763 0.05793
Br Br 0.574335 -0.0021529999999999605 0.763731 -0.17191
Br Br 0.822736 0.995052 0.728781 -0.17191
Br Br 0.673492 0.500764 0.763457 -0.17191
Br Br 0.921434 0.507831 0.763038 -0.17191
N_ N_ 0.62605 0.748615 0.852113 -0.272
N_ N_ 0.87627 0.744394 0.85705 -0.272
N_ N_ 0.626215 0.762027 0.98558 -0.12501
N_ N_ 0.879105 0.732878 0.990386 -0.12501
N_ N_ 0.627248 0.74801 0.642264 -0.272
N_ N_ 0.871974 0.752747 0.643305 -0.272
N_ N_ 0.637446 0.738229 0.511024 -0.12501
N_ N_ 0.870408 0.756106 0.508919 -0.12501
O_ O_ 0.595586 0.796095 0.712207 -0.60745
O_ O_ 0.843305 0.795617 0.713056 -0.60745
O_ O_ 0.592518 0.790265 0.779725 -0.60745
O_ O_ 0.841274 0.790326 0.783673 -0.60745
O_ O_ 0.654621 0.793801 0.783254 -0.60745
O_ O_ 0.899889 0.79536 0.784326 -0.60745
O_ O_ 0.65598 0.790392 0.712362 -0.60745
O_ O_ 0.903636 0.7884 0.716334 -0.60745
O_ O_ 0.65813 0.705377 0.785546 -0.60745
O_ O_ 0.908272 0.712466 0.781667 -0.60745
O_ O_ 0.653907 0.702972 0.717302 -0.60745
O_ O_ 0.899876 0.702137 0.715363 -0.60745
O_ O_ 0.591415 0.707229 0.713221 -0.60745
O_ O_ 0.83469 0.707602 0.71139 -0.60745
O_ O_ 0.59525 0.704484 0.780482 -0.60745
O_ O_ 0.843335 0.702149 0.781349 -0.60745
