_cell_length_a 44.444
_cell_length_b 32.3360000049186
_cell_length_c 31.843999878906452
_cell_angle_alpha 89.99799923859553
_cell_angle_beta 91.13600050494348
_cell_angle_gamma 89.9990006550086
_symmetry_space_group_name_H-M         'P 1'
_symmetry_Int_Tables_number            1
loop_
_symmetry_equiv_pos_as_xyz
   'x, y, z'
                         
loop_
_atom_site_label
_atom_site_type_symbol
_atom_site_fract_x 
_atom_site_fract_y
_atom_site_fract_z
_atom_site_charge
Zn Zn 0.125871 0.254337 0.288543 0.9476
Zn Zn 0.379086 0.251911 0.284042 0.9476
Zn Zn 0.123274 0.253655 0.218248 0.9476
Zn Zn 0.372933 0.250128 0.216311 0.9476
H_ H_ 0.0541986 0.444177 0.203516 0.10932
H_ H_ 0.295683 0.431748 0.195081 0.10932
H_ H_ 0.0460814 0.340893 0.317023 0.10932
H_ H_ 0.296674 0.339869 0.320253 0.10932
H_ H_ 0.0865847 0.381482 0.202419 0.10932
H_ H_ 0.327856 0.367786 0.193297 0.10932
H_ H_ 0.0153916 0.403495 0.319072 0.10932
H_ H_ 0.273107 0.403174 0.322967 0.10932
H_ H_ 0.211278 0.417405 0.319205 0.10932
H_ H_ 0.464335 0.426934 0.318985 0.10932
H_ H_ 0.190755 0.349857 0.182674 0.10932
H_ H_ 0.435337 0.355336 0.186908 0.10932
H_ H_ 0.184401 0.356857 0.318037 0.10932
H_ H_ 0.439036 0.358247 0.317997 0.10932
H_ H_ 0.219744 0.415171 0.183293 0.10932
H_ H_ 0.455551 0.425477 0.186411 0.10932
H_ H_ 0.231038 0.0956249 0.314866 0.10932
H_ H_ 0.476642 0.0954565 0.325365 0.10932
H_ H_ 0.177934 0.14877 0.184113 0.10932
H_ H_ 0.425283 0.134164 0.187384 0.10932
H_ H_ 0.205677 0.16621 0.313794 0.10932
H_ H_ 0.445295 0.162893 0.319971 0.10932
H_ H_ 0.204441 0.0829554 0.183535 0.10932
H_ H_ 0.453629 0.0731674 0.195601 0.10932
H_ H_ 0.024602 0.0927038 0.192688 0.10932
H_ H_ 0.276137 0.0885905 0.178311 0.10932
H_ H_ 0.0803395 0.138529 0.318036 0.10932
H_ H_ 0.318659 0.146947 0.311294 0.10932
H_ H_ 0.0498001 0.159717 0.191098 0.10932
H_ H_ 0.304995 0.156786 0.175128 0.10932
H_ H_ 0.0509112 0.0767312 0.322084 0.10932
H_ H_ 0.299035 0.0759553 0.305931 0.10932
H_ H_ 0.134721 0.322765 0.354198 0.10932
H_ H_ 0.366862 0.31049 0.361767 0.10932
H_ H_ 0.127486 0.194373 0.370526 0.10932
H_ H_ 0.381673 0.180686 0.356153 0.10932
H_ H_ 0.124912 0.202601 0.445041 0.10932
H_ H_ 0.382413 0.178759 0.43331 0.10932
H_ H_ 0.131683 0.335454 0.431881 0.10932
H_ H_ 0.370942 0.308213 0.440469 0.10932
H_ H_ 0.136465 0.307874 0.139455 0.10932
H_ H_ 0.364637 0.315672 0.140057 0.10932
H_ H_ 0.0988551 0.189327 0.148396 0.10932
H_ H_ 0.376797 0.184437 0.143835 0.10932
H_ H_ 0.0973379 0.179617 0.0729397 0.10932
H_ H_ 0.381817 0.185615 0.0632162 0.10932
H_ H_ 0.135507 0.301538 0.0591827 0.10932
H_ H_ 0.372276 0.317742 0.0670507 0.10932
C_ C_ 0.0666079 0.353587 0.257608 -0.02249
C_ C_ 0.317623 0.348663 0.256417 -0.02249
C_ C_ 0.0166554 0.466891 0.264199 -0.02249
C_ C_ 0.268192 0.46297 0.264022 -0.02249
C_ C_ 0.0534884 0.42165 0.229298 -0.11473
C_ C_ 0.29822 0.411605 0.2227 -0.11473
C_ C_ 0.0487245 0.362576 0.292138 -0.11473
C_ C_ 0.299657 0.358676 0.293414 -0.11473
C_ C_ 0.0714722 0.386196 0.228077 -0.11473
C_ C_ 0.314634 0.375226 0.220016 -0.11473
C_ C_ 0.0340969 0.427781 0.262309 -0.02249
C_ C_ 0.28464 0.42403 0.261429 -0.02249
C_ C_ 0.0846762 0.314594 0.255334 0.6875
C_ C_ 0.336588 0.309851 0.253507 0.6875
C_ C_ 0.0289059 0.397236 0.292581 -0.11473
C_ C_ 0.288941 0.39878 0.297625 -0.11473
C_ C_ 0.188963 0.344883 0.248657 -0.02249
C_ C_ 0.433724 0.352307 0.254442 -0.02249
C_ C_ 0.237442 0.461906 0.252167 -0.02249
C_ C_ 0.480954 0.468826 0.249027 -0.02249
C_ C_ 0.209808 0.40393 0.288123 -0.11473
C_ C_ 0.457883 0.41132 0.288694 -0.11473
C_ C_ 0.197459 0.363175 0.211942 -0.11473
C_ C_ 0.438711 0.373041 0.21519 -0.11473
C_ C_ 0.193396 0.367225 0.287002 -0.11473
C_ C_ 0.443777 0.372266 0.289722 -0.11473
C_ C_ 0.220914 0.421324 0.250907 -0.02249
C_ C_ 0.463775 0.429967 0.250665 -0.02249
C_ C_ 0.167574 0.309461 0.249166 0.6875
C_ C_ 0.416425 0.312754 0.257592 0.6875
C_ C_ 0.214166 0.400758 0.213414 -0.11473
C_ C_ 0.456002 0.410019 0.213964 -0.11473
C_ C_ 0.186215 0.16221 0.250796 -0.02249
C_ C_ 0.432775 0.153438 0.254294 -0.02249
C_ C_ 0.232608 0.0424966 0.250904 -0.02249
C_ C_ 0.484455 0.0408356 0.263328 -0.02249
C_ C_ 0.216071 0.105627 0.287383 -0.11473
C_ C_ 0.462728 0.103975 0.29633 -0.11473
C_ C_ 0.18877 0.13947 0.212851 -0.11473
C_ C_ 0.434754 0.125777 0.219477 -0.11473
C_ C_ 0.201468 0.14568 0.286741 -0.11473
C_ C_ 0.446865 0.141464 0.293002 -0.11473
C_ C_ 0.219133 0.0848796 0.249461 -0.02249
C_ C_ 0.46621 0.0789412 0.260924 -0.02249
C_ C_ 0.163387 0.19616 0.252255 0.6875
C_ C_ 0.414175 0.192665 0.251615 0.6875
C_ C_ 0.205811 0.102114 0.212005 -0.11473
C_ C_ 0.4511 0.0898478 0.223601 -0.11473
C_ C_ 0.0648553 0.157124 0.255775 -0.02249
C_ C_ 0.313619 0.157694 0.243748 -0.02249
C_ C_ 0.0190351 0.0400476 0.258602 -0.02249
C_ C_ 0.263994 0.0399451 0.247303 -0.02249
C_ C_ 0.0363664 0.10266 0.218835 -0.11473
C_ C_ 0.285693 0.101565 0.206915 -0.11473
C_ C_ 0.0641555 0.132335 0.293165 -0.11473
C_ C_ 0.309324 0.135839 0.281987 -0.11473
C_ C_ 0.0493221 0.142697 0.219548 -0.11473
C_ C_ 0.302051 0.138817 0.206403 -0.11473
C_ C_ 0.0360981 0.0789683 0.257635 -0.02249
C_ C_ 0.282865 0.0784609 0.244983 -0.02249
C_ C_ 0.084837 0.194096 0.254671 0.6875
C_ C_ 0.334483 0.194324 0.243035 0.6875
C_ C_ 0.0520907 0.0927565 0.291974 -0.11473
C_ C_ 0.296598 0.0965396 0.281651 -0.11473
C_ C_ 0.132971 0.297196 0.374937 0.17695
C_ C_ 0.373738 0.281829 0.379289 0.17695
C_ C_ 0.127965 0.225384 0.384406 0.17695
C_ C_ 0.379451 0.208192 0.373241 0.17695
C_ C_ 0.126222 0.229936 0.427855 -0.11473
C_ C_ 0.381599 0.206929 0.417628 -0.11473
C_ C_ 0.125845 0.269823 0.445986 0.23465
C_ C_ 0.380638 0.242848 0.442493 0.23465
C_ C_ 0.130088 0.304974 0.419137 -0.11473
C_ C_ 0.376537 0.280182 0.42269 -0.11473
C_ C_ 0.128499 0.279834 0.12392 0.17695
C_ C_ 0.369024 0.286369 0.125142 0.17695
C_ C_ 0.10732 0.214011 0.12972 0.17695
C_ C_ 0.377163 0.213642 0.125609 0.17695
C_ C_ 0.105659 0.208786 0.087524 -0.11473
C_ C_ 0.375273 0.212059 0.081321 -0.11473
C_ C_ 0.114033 0.242232 0.0610894 0.23465
C_ C_ 0.372208 0.249425 0.0577319 0.23465
C_ C_ 0.127301 0.277229 0.0802919 -0.11473
C_ C_ 0.36912 0.286074 0.0814752 -0.11473
C_ C_ 0.0309377 0.50587 0.273301 0.05793
C_ C_ 0.282514 0.501916 0.266483 0.05793
C_ C_ 0.213775 0.00716207 0.249399 0.05793
C_ C_ 0.470383 1.0000285406 0.261149 0.05793
Br Br 0.0714264 0.506921 0.294493 -0.17191
Br Br 0.322162 0.503266 0.288422 -0.17191
Br Br 0.17146 0.0118052 0.232431 -0.17191
Br Br 0.427936 0.996199 0.262591 -0.17191
N_ N_ 0.127718 0.259337 0.358678 -0.272
N_ N_ 0.376089 0.246265 0.354603 -0.272
N_ N_ 0.124647 0.273817 0.490683 -0.12501
N_ N_ 0.379856 0.239443 0.488582 -0.12501
N_ N_ 0.119886 0.247727 0.147651 -0.272
N_ N_ 0.372175 0.249984 0.146495 -0.272
N_ N_ 0.116468 0.234606 0.0157479 -0.12501
N_ N_ 0.379007 0.250731 0.012913 -0.12501
O_ O_ 0.089736 0.300072 0.218313 -0.60745
O_ O_ 0.345562 0.297429 0.21793 -0.60745
O_ O_ 0.0971504 0.297497 0.288412 -0.60745
O_ O_ 0.343802 0.289961 0.286499 -0.60745
O_ O_ 0.161022 0.291822 0.283519 -0.60745
O_ O_ 0.409718 0.297942 0.293846 -0.60745
O_ O_ 0.156587 0.294195 0.216971 -0.60745
O_ O_ 0.406872 0.292907 0.223546 -0.60745
O_ O_ 0.155889 0.211016 0.286839 -0.60745
O_ O_ 0.411867 0.217267 0.282762 -0.60745
O_ O_ 0.154055 0.21175 0.217674 -0.60745
O_ O_ 0.40141 0.201767 0.216084 -0.60745
O_ O_ 0.0925177 0.208988 0.221411 -0.60745
O_ O_ 0.338087 0.214899 0.210185 -0.60745
O_ O_ 0.0940754 0.209155 0.288478 -0.60745
O_ O_ 0.351504 0.201987 0.275112 -0.60745
Zn Zn 0.123033 0.248295 0.788495 0.9476
Zn Zn 0.373358 0.247539 0.785634 0.9476
Zn Zn 0.124957 0.24745 0.720244 0.9476
Zn Zn 0.370735 0.245506 0.715329 0.9476
H_ H_ 0.0366338 0.41532 0.678172 0.10932
H_ H_ 0.287068 0.421206 0.689454 0.10932
H_ H_ 0.0662967 0.353583 0.817242 0.10932
H_ H_ 0.309489 0.348445 0.822875 0.10932
H_ H_ 0.0675794 0.351732 0.678954 0.10932
H_ H_ 0.318939 0.360325 0.686355 0.10932
H_ H_ 0.0340145 0.416932 0.810575 0.10932
H_ H_ 0.28451 0.41361 0.82483 0.10932
H_ H_ 0.216757 0.418871 0.824257 0.10932
H_ H_ 0.472226 0.407196 0.816829 0.10932
H_ H_ 0.18722 0.351495 0.692382 0.10932
H_ H_ 0.416662 0.360971 0.688191 0.10932
H_ H_ 0.18062 0.356787 0.82549 0.10932
H_ H_ 0.448729 0.338181 0.81646 0.10932
H_ H_ 0.212845 0.419631 0.690413 0.10932
H_ H_ 0.45314 0.419799 0.685969 0.10932
H_ H_ 0.21278 0.0779425 0.819723 0.10932
H_ H_ 0.447033 0.0613738 0.804251 0.10932
H_ H_ 0.187166 0.144122 0.684205 0.10932
H_ H_ 0.442815 0.157127 0.682652 0.10932
H_ H_ 0.185575 0.13866 0.820739 0.10932
H_ H_ 0.412486 0.123205 0.805374 0.10932
H_ H_ 0.215892 0.0806778 0.682595 0.10932
H_ H_ 0.474104 0.0935487 0.679977 0.10932
H_ H_ 0.0307767 0.0812138 0.688005 0.10932
H_ H_ 0.284767 0.0794686 0.677156 0.10932
H_ H_ 0.0713247 0.13914 0.822097 0.10932
H_ H_ 0.305863 0.148925 0.809804 0.10932
H_ H_ 0.0630554 0.141325 0.687542 0.10932
H_ H_ 0.308703 0.147467 0.67622 0.10932
H_ H_ 0.0396981 0.0779928 0.821393 0.10932
H_ H_ 0.275284 0.0865369 0.808006 0.10932
H_ H_ 0.107083 0.310824 0.854577 0.10932
H_ H_ 0.355509 0.301209 0.863911 0.10932
H_ H_ 0.136968 0.188273 0.871889 0.10932
H_ H_ 0.392146 0.181135 0.85457 0.10932
H_ H_ 0.132715 0.196602 0.949609 0.10932
H_ H_ 0.383848 0.169403 0.930442 0.10932
H_ H_ 0.100642 0.31765 0.933121 0.10932
H_ H_ 0.36077 0.297718 0.940283 0.10932
H_ H_ 0.0751212 0.252975 0.644164 0.10932
H_ H_ 0.382166 0.192713 0.635428 0.10932
H_ H_ 0.171003 0.254936 0.646686 0.10932
H_ H_ 0.364849 0.321014 0.64463 0.10932
H_ H_ 0.171075 0.249194 0.564639 0.10932
H_ H_ 0.37803 0.329145 0.574575 0.10932
H_ H_ 0.0747977 0.245799 0.563704 0.10932
H_ H_ 0.385222 0.19941 0.556357 0.10932
C_ C_ 0.0711903 0.348151 0.74969 -0.02249
C_ C_ 0.314995 0.348334 0.755452 -0.02249
C_ C_ 0.013964 0.458433 0.744139 -0.02249
C_ C_ 0.266094 0.462808 0.759968 -0.02249
C_ C_ 0.0414447 0.399483 0.706631 -0.11473
C_ C_ 0.29518 0.408281 0.72007 -0.11473
C_ C_ 0.0591168 0.366066 0.785561 -0.11473
C_ C_ 0.306514 0.365295 0.793456 -0.11473
C_ C_ 0.0606448 0.365712 0.708378 -0.11473
C_ C_ 0.311801 0.370655 0.717949 -0.11473
C_ C_ 0.0314122 0.418477 0.743826 -0.02249
C_ C_ 0.284364 0.424577 0.758165 -0.02249
C_ C_ 0.0884453 0.309904 0.749734 0.6875
C_ C_ 0.335738 0.309502 0.754507 0.6875
C_ C_ 0.0388548 0.399714 0.782655 -0.11473
C_ C_ 0.290835 0.402252 0.794794 -0.11473
C_ C_ 0.184211 0.347312 0.758613 -0.02249
C_ C_ 0.430071 0.344998 0.754614 -0.02249
C_ C_ 0.23428 0.461164 0.759777 -0.02249
C_ C_ 0.482964 0.45816 0.753142 -0.02249
C_ C_ 0.211956 0.401556 0.796135 -0.11473
C_ C_ 0.462017 0.396693 0.787825 -0.11473
C_ C_ 0.192239 0.366864 0.720382 -0.11473
C_ C_ 0.433924 0.366659 0.715604 -0.11473
C_ C_ 0.190692 0.367868 0.796859 -0.11473
C_ C_ 0.446495 0.358262 0.787801 -0.11473
C_ C_ 0.219057 0.42132 0.758871 -0.02249
C_ C_ 0.46672 0.417117 0.750988 -0.02249
C_ C_ 0.165134 0.308692 0.75491 0.6875
C_ C_ 0.412697 0.304607 0.756181 0.6875
C_ C_ 0.208276 0.404054 0.720141 -0.11473
C_ C_ 0.451728 0.401792 0.714608 -0.11473
C_ C_ 0.184127 0.147906 0.752919 -0.02249
C_ C_ 0.429114 0.14663 0.746284 -0.02249
C_ C_ 0.234482 0.0369965 0.749862 -0.02249
C_ C_ 0.482696 0.034275 0.740528 -0.02249
C_ C_ 0.211 0.0934216 0.789313 -0.11473
C_ C_ 0.446932 0.0821223 0.778629 -0.11473
C_ C_ 0.195009 0.131751 0.714452 -0.11473
C_ C_ 0.446787 0.138754 0.711661 -0.11473
C_ C_ 0.191816 0.126277 0.79028 -0.11473
C_ C_ 0.42901 0.118957 0.780255 -0.11473
C_ C_ 0.218068 0.0759804 0.749409 -0.02249
C_ C_ 0.464414 0.0731044 0.743111 -0.02249
C_ C_ 0.162506 0.184288 0.752916 0.6875
C_ C_ 0.41188 0.185916 0.747978 0.6875
C_ C_ 0.211854 0.0970363 0.712134 -0.11473
C_ C_ 0.464647 0.10397 0.710397 -0.11473
C_ C_ 0.0696261 0.146315 0.755017 -0.02249
C_ C_ 0.311231 0.154113 0.742044 -0.02249
C_ C_ 0.0163217 0.0345173 0.754727 -0.02249
C_ C_ 0.265043 0.0366411 0.742637 -0.02249
C_ C_ 0.0409917 0.0923658 0.717615 -0.11473
C_ C_ 0.290201 0.0940319 0.706243 -0.11473
C_ C_ 0.0651887 0.125413 0.792709 -0.11473
C_ C_ 0.302143 0.134888 0.779606 -0.11473
C_ C_ 0.0602359 0.126878 0.717181 -0.11473
C_ C_ 0.303162 0.134207 0.704791 -0.11473
C_ C_ 0.0345003 0.0721904 0.755653 -0.02249
C_ C_ 0.283202 0.0738392 0.743573 -0.02249
C_ C_ 0.086445 0.186737 0.756113 0.6875
C_ C_ 0.331565 0.18938 0.7424 0.6875
C_ C_ 0.0465792 0.0887625 0.792597 -0.11473
C_ C_ 0.285719 0.0963915 0.779137 -0.11473
C_ C_ 0.114355 0.286939 0.8753 0.17695
C_ C_ 0.362348 0.270792 0.877871 0.17695
C_ C_ 0.129273 0.216703 0.883947 0.17695
C_ C_ 0.379567 0.202691 0.872272 0.17695
C_ C_ 0.12549 0.220098 0.92593 -0.11473
C_ C_ 0.3785 0.19755 0.915284 -0.11473
C_ C_ 0.115007 0.256458 0.945449 0.23465
C_ C_ 0.371667 0.232511 0.941163 0.23465
C_ C_ 0.110564 0.290556 0.919607 -0.11473
C_ C_ 0.364771 0.269415 0.922377 -0.11473
C_ C_ 0.0961451 0.251874 0.626524 0.17695
C_ C_ 0.377375 0.221657 0.620031 0.17695
C_ C_ 0.150058 0.25083 0.627017 0.17695
C_ C_ 0.371989 0.293482 0.627208 0.17695
C_ C_ 0.150701 0.248706 0.582279 -0.11473
C_ C_ 0.375655 0.298324 0.584306 -0.11473
C_ C_ 0.123672 0.250142 0.56061 0.23465
C_ C_ 0.379624 0.265594 0.558377 0.23465
C_ C_ 0.0961273 0.251944 0.582063 -0.11473
C_ C_ 0.380396 0.226533 0.576968 -0.11473
C_ C_ 0.0311855 0.494704 0.742372 0.05793
C_ C_ 0.28096 0.501139 0.762019 0.05793
C_ C_ 0.218757 -0.0009160000000000279 0.751598 0.05793
C_ C_ 0.467961 0.994944 0.736114 0.05793
Br Br 0.0710065 0.494167 0.718517 -0.17191
Br Br 0.324179 0.507073 0.763751 -0.17191
Br Br 0.1776 -0.0023900000000000032 0.762928 -0.17191
Br Br 0.423936 0.993972 0.735751 -0.17191
N_ N_ 0.124631 0.250738 0.859268 -0.272
N_ N_ 0.37325 0.239501 0.854323 -0.272
N_ N_ 0.107926 0.260005 0.988688 -0.12501
N_ N_ 0.366571 0.226768 0.985808 -0.12501
N_ N_ 0.122584 0.24996 0.647996 -0.272
N_ N_ 0.374779 0.255496 0.645309 -0.272
N_ N_ 0.12481 0.243799 0.515136 -0.12501
N_ N_ 0.381448 0.269459 0.513391 -0.12501
O_ O_ 0.0966387 0.293956 0.71589 -0.60745
O_ O_ 0.346205 0.297279 0.719541 -0.60745
O_ O_ 0.0932173 0.290941 0.783512 -0.60745
O_ O_ 0.341475 0.290497 0.788066 -0.60745
O_ O_ 0.154876 0.293376 0.786839 -0.60745
O_ O_ 0.404708 0.290033 0.79145 -0.60745
O_ O_ 0.159652 0.289631 0.720759 -0.60745
O_ O_ 0.406293 0.284775 0.722579 -0.60745
O_ O_ 0.154139 0.200988 0.787226 -0.60745
O_ O_ 0.403096 0.200797 0.782476 -0.60745
O_ O_ 0.155784 0.202247 0.719021 -0.60745
O_ O_ 0.397992 0.197176 0.715371 -0.60745
O_ O_ 0.0905623 0.207615 0.723121 -0.60745
O_ O_ 0.338283 0.207332 0.708496 -0.60745
O_ O_ 0.0951068 0.202202 0.791808 -0.60745
O_ O_ 0.341034 0.206019 0.776513 -0.60745
Zn Zn 0.125378 0.750184 0.288987 0.9476
Zn Zn 0.369615 0.757264 0.283479 0.9476
Zn Zn 0.125733 0.75059 0.216063 0.9476
Zn Zn 0.372185 0.756334 0.21094 0.9476
H_ H_ 0.0376942 0.919202 0.195519 0.10932
H_ H_ 0.275625 0.922993 0.172345 0.10932
H_ H_ 0.0631602 0.850324 0.325763 0.10932
H_ H_ 0.292289 0.838029 0.303957 0.10932
H_ H_ 0.0687181 0.86035 0.189168 0.10932
H_ H_ 0.313581 0.862082 0.173498 0.10932
H_ H_ 0.0410139 0.917262 0.329433 0.10932
H_ H_ 0.264355 0.904411 0.304902 0.10932
H_ H_ 0.208541 0.928125 0.316166 0.10932
H_ H_ 0.468289 0.911245 0.320753 0.10932
H_ H_ 0.174901 0.860365 0.185576 0.10932
H_ H_ 0.437099 0.86234 0.182588 0.10932
H_ H_ 0.185062 0.857125 0.320519 0.10932
H_ H_ 0.441725 0.848048 0.316967 0.10932
H_ H_ 0.204262 0.924848 0.180426 0.10932
H_ H_ 0.470492 0.916707 0.187125 0.10932
H_ H_ 0.208767 0.574481 0.312968 0.10932
H_ H_ 0.457697 0.579826 0.314439 0.10932
H_ H_ 0.188758 0.65201 0.180725 0.10932
H_ H_ 0.442167 0.665018 0.188298 0.10932
H_ H_ 0.180605 0.640507 0.316021 0.10932
H_ H_ 0.429721 0.645385 0.320316 0.10932
H_ H_ 0.215922 0.584105 0.180608 0.10932
H_ H_ 0.469898 0.595939 0.185277 0.10932
H_ H_ 0.0609835 0.56214 0.204532 0.10932
H_ H_ 0.306715 0.557583 0.19857 0.10932
H_ H_ 0.0425595 0.672183 0.310517 0.10932
H_ H_ 0.295398 0.670241 0.305927 0.10932
H_ H_ 0.0872504 0.629384 0.201393 0.10932
H_ H_ 0.338427 0.623337 0.19773 0.10932
H_ H_ 0.0141675 0.605514 0.312467 0.10932
H_ H_ 0.273191 0.599974 0.317919 0.10932
H_ H_ 0.118715 0.817673 0.359718 0.10932
H_ H_ 0.36644 0.692928 0.348741 0.10932
H_ H_ 0.126458 0.686332 0.367642 0.10932
H_ H_ 0.380531 0.824758 0.361408 0.10932
H_ H_ 0.129873 0.688236 0.444853 0.10932
H_ H_ 0.387775 0.81372 0.439748 0.10932
H_ H_ 0.120902 0.821553 0.43863 0.10932
H_ H_ 0.369652 0.687038 0.426508 0.10932
H_ H_ 0.162837 0.75228 0.141656 0.10932
H_ H_ 0.378992 0.691065 0.128613 0.10932
H_ H_ 0.0683247 0.746824 0.148732 0.10932
H_ H_ 0.3735 0.823102 0.137012 0.10932
H_ H_ 0.0615417 0.745486 0.0736044 0.10932
H_ H_ 0.385216 0.828781 0.0660611 0.10932
H_ H_ 0.160486 0.748213 0.0644845 0.10932
H_ H_ 0.384656 0.698444 0.0536233 0.10932
C_ C_ 0.067419 0.847138 0.257082 -0.02249
C_ C_ 0.303325 0.843612 0.236837 -0.02249
C_ C_ 0.0183904 0.96382 0.263049 -0.02249
C_ C_ 0.258615 0.963503 0.246278 -0.02249
C_ C_ 0.0425921 0.905397 0.223574 -0.11473
C_ C_ 0.283591 0.906968 0.201987 -0.11473
C_ C_ 0.0565905 0.863912 0.296542 -0.11473
C_ C_ 0.290805 0.856734 0.275294 -0.11473
C_ C_ 0.0613805 0.870152 0.221414 -0.11473
C_ C_ 0.299947 0.869257 0.200396 -0.11473
C_ C_ 0.0348402 0.924309 0.262287 -0.02249
C_ C_ 0.274208 0.920924 0.241381 -0.02249
C_ C_ 0.0883616 0.810648 0.254798 0.6875
C_ C_ 0.326276 0.808865 0.241125 0.6875
C_ C_ 0.0439566 0.903541 0.298686 -0.11473
C_ C_ 0.276335 0.894163 0.276581 -0.11473
C_ C_ 0.176619 0.855063 0.251694 -0.02249
C_ C_ 0.431544 0.852904 0.250024 -0.02249
C_ C_ 0.226691 0.968453 0.247905 -0.02249
C_ C_ 0.487387 0.963503 0.257792 -0.02249
C_ C_ 0.202852 0.911016 0.288283 -0.11473
C_ C_ 0.462821 0.900081 0.290623 -0.11473
C_ C_ 0.182091 0.876241 0.214096 -0.11473
C_ C_ 0.441744 0.872829 0.213133 -0.11473
C_ C_ 0.187855 0.873089 0.288987 -0.11473
C_ C_ 0.442905 0.86827 0.289101 -0.11473
C_ C_ 0.208226 0.930407 0.249748 -0.02249
C_ C_ 0.472564 0.920408 0.254333 -0.02249
C_ C_ 0.162272 0.813327 0.252112 0.6875
C_ C_ 0.411174 0.814965 0.247439 0.6875
C_ C_ 0.198936 0.911278 0.211159 -0.11473
C_ C_ 0.462808 0.904165 0.216648 -0.11473
C_ C_ 0.182976 0.652831 0.248635 -0.02249
C_ C_ 0.430788 0.657347 0.254161 -0.02249
C_ C_ 0.235058 0.5375 0.245289 -0.02249
C_ C_ 0.482403 0.545114 0.249453 -0.02249
C_ C_ 0.206703 0.59132 0.285848 -0.11473
C_ C_ 0.455107 0.5991 0.28845 -0.11473
C_ C_ 0.194647 0.63731 0.212138 -0.11473
C_ C_ 0.443392 0.64502 0.215821 -0.11473
C_ C_ 0.188331 0.627726 0.285352 -0.11473
C_ C_ 0.437945 0.634753 0.290621 -0.11473
C_ C_ 0.214419 0.574766 0.247472 -0.02249
C_ C_ 0.467372 0.586174 0.250462 -0.02249
C_ C_ 0.163363 0.690551 0.248886 0.6875
C_ C_ 0.412175 0.696603 0.255497 0.6875
C_ C_ 0.208275 0.597393 0.210757 -0.11473
C_ C_ 0.461454 0.608424 0.213464 -0.11473
C_ C_ 0.0676006 0.654805 0.255641 -0.02249
C_ C_ 0.317629 0.651588 0.249111 -0.02249
C_ C_ 0.0164143 0.542123 0.257446 -0.02249
C_ C_ 0.266064 0.538944 0.260804 -0.02249
C_ C_ 0.0543344 0.587933 0.2236 -0.11473
C_ C_ 0.303991 0.583052 0.222099 -0.11473
C_ C_ 0.0464328 0.64835 0.287262 -0.11473
C_ C_ 0.296486 0.646229 0.281976 -0.11473
C_ C_ 0.0704009 0.626362 0.222768 -0.11473
C_ C_ 0.32078 0.620834 0.219265 -0.11473
C_ C_ 0.0320844 0.582495 0.254352 -0.02249
C_ C_ 0.28366 0.577274 0.256316 -0.02249
C_ C_ 0.0859899 0.694141 0.256485 0.6875
C_ C_ 0.337011 0.69099 0.248603 0.6875
C_ C_ 0.0294143 0.612045 0.286685 -0.11473
C_ C_ 0.282176 0.607862 0.286583 -0.11473
C_ C_ 0.123474 0.790041 0.378139 0.17695
C_ C_ 0.368996 0.720343 0.369774 0.17695
C_ C_ 0.127459 0.716026 0.381159 0.17695
C_ C_ 0.377027 0.794171 0.376244 0.17695
C_ C_ 0.128391 0.717712 0.425708 -0.11473
C_ C_ 0.379661 0.791093 0.419841 -0.11473
C_ C_ 0.125745 0.75414 0.446273 0.23465
C_ C_ 0.372353 0.752693 0.43853 0.23465
C_ C_ 0.122498 0.791759 0.422532 -0.11473
C_ C_ 0.367293 0.717555 0.413139 -0.11473
C_ C_ 0.140969 0.751533 0.124583 0.17695
C_ C_ 0.375797 0.72203 0.11538 0.17695
C_ C_ 0.0884366 0.752377 0.129745 0.17695
C_ C_ 0.372856 0.795226 0.119613 0.17695
C_ C_ 0.0845047 0.752941 0.086291 -0.11473
C_ C_ 0.378122 0.799365 0.0763968 -0.11473
C_ C_ 0.109202 0.751111 0.0601394 0.23465
C_ C_ 0.382474 0.763535 0.0522746 0.23465
C_ C_ 0.138487 0.750811 0.0799394 -0.11473
C_ C_ 0.381902 0.724696 0.0721274 -0.11473
C_ C_ 0.0342748 1.00207143 0.25946 0.05793
C_ C_ 0.276612 0.99999306463 0.24574 0.05793
C_ C_ 0.22127 0.499545 0.242844 0.05793
C_ C_ 0.465572 0.508098 0.249374 0.05793
Br Br 0.0764694 0.00215105 0.246525 -0.17191
Br Br 0.320343 0.993624 0.250632 -0.17191
Br Br 0.178133 0.496238 0.23053 -0.17191
Br Br 0.422357 0.503931 0.25553 -0.17191
N_ N_ 0.127669 0.752016 0.35913 -0.272
N_ N_ 0.37137 0.759758 0.352552 -0.272
N_ N_ 0.119795 0.755093 0.490889 -0.12501
N_ N_ 0.377112 0.7475 0.481911 -0.12501
N_ N_ 0.116401 0.752919 0.148062 -0.272
N_ N_ 0.374767 0.757406 0.13916 -0.272
N_ N_ 0.10476 0.747643 0.0166645 -0.12501
N_ N_ 0.389291 0.766658 0.00858428 -0.12501
O_ O_ 0.0977356 0.796674 0.220892 -0.60745
O_ O_ 0.334475 0.79037 0.209271 -0.60745
O_ O_ 0.0953403 0.793866 0.289384 -0.60745
O_ O_ 0.341573 0.805659 0.273803 -0.60745
O_ O_ 0.155137 0.796781 0.285944 -0.60745
O_ O_ 0.402777 0.799205 0.281441 -0.60745
O_ O_ 0.157815 0.795261 0.2172 -0.60745
O_ O_ 0.399705 0.803689 0.212879 -0.60745
O_ O_ 0.156973 0.708434 0.283973 -0.60745
O_ O_ 0.399384 0.708081 0.289641 -0.60745
O_ O_ 0.153995 0.705872 0.215404 -0.60745
O_ O_ 0.408127 0.718075 0.223034 -0.60745
O_ O_ 0.092461 0.709453 0.22296 -0.60745
O_ O_ 0.348409 0.702358 0.214415 -0.60745
O_ O_ 0.0979175 0.70457 0.291172 -0.60745
O_ O_ 0.338856 0.715492 0.278955 -0.60745
Zn Zn 0.126449 0.74759 0.788759 0.9476
Zn Zn 0.37769 0.751569 0.783029 0.9476
Zn Zn 0.124527 0.748553 0.719396 0.9476
Zn Zn 0.373928 0.745784 0.712928 0.9476
H_ H_ 0.0238208 0.902711 0.688566 0.10932
H_ H_ 0.293587 0.933204 0.683658 0.10932
H_ H_ 0.0674687 0.853248 0.82231 0.10932
H_ H_ 0.309732 0.841975 0.809401 0.10932
H_ H_ 0.0600827 0.845424 0.686116 0.10932
H_ H_ 0.323621 0.867732 0.679068 0.10932
H_ H_ 0.0356891 0.91506 0.82367 0.10932
H_ H_ 0.28605 0.911482 0.815184 0.10932
H_ H_ 0.211263 0.922116 0.819878 0.10932
H_ H_ 0.469376 0.91252 0.808134 0.10932
H_ H_ 0.198485 0.842138 0.691102 0.10932
H_ H_ 0.433795 0.846869 0.676165 0.10932
H_ H_ 0.180752 0.858556 0.821874 0.10932
H_ H_ 0.431328 0.861393 0.809463 0.10932
H_ H_ 0.220292 0.912565 0.691923 0.10932
H_ H_ 0.461085 0.912848 0.674518 0.10932
H_ H_ 0.216405 0.585427 0.822649 0.10932
H_ H_ 0.452578 0.568605 0.810673 0.10932
H_ H_ 0.184459 0.649035 0.686603 0.10932
H_ H_ 0.453692 0.663203 0.693195 0.10932
H_ H_ 0.188659 0.649941 0.821978 0.10932
H_ H_ 0.424925 0.630615 0.813674 0.10932
H_ H_ 0.202672 0.577064 0.687595 0.10932
H_ H_ 0.472635 0.590991 0.679485 0.10932
H_ H_ 0.0329083 0.579797 0.679213 0.10932
H_ H_ 0.268163 0.591708 0.69367 0.10932
H_ H_ 0.0755736 0.637612 0.811925 0.10932
H_ H_ 0.324074 0.640136 0.821444 0.10932
H_ H_ 0.0643129 0.643785 0.678177 0.10932
H_ H_ 0.295079 0.657738 0.691737 0.10932
H_ H_ 0.0492475 0.570101 0.810829 0.10932
H_ H_ 0.296369 0.576538 0.824343 0.10932
H_ H_ 0.124317 0.802378 0.866234 0.10932
H_ H_ 0.38851 0.817255 0.854335 0.10932
H_ H_ 0.13513 0.675544 0.862147 0.10932
H_ H_ 0.375442 0.688003 0.853018 0.10932
H_ H_ 0.141422 0.678959 0.941781 0.10932
H_ H_ 0.375513 0.688582 0.930569 0.10932
H_ H_ 0.110791 0.806027 0.942212 0.10932
H_ H_ 0.386546 0.819765 0.932649 0.10932
H_ H_ 0.17707 0.755318 0.658865 0.10932
H_ H_ 0.356869 0.809306 0.645393 0.10932
H_ H_ 0.0803279 0.741105 0.637229 0.10932
H_ H_ 0.384049 0.686513 0.624907 0.10932
H_ H_ 0.0874322 0.741373 0.561884 0.10932
H_ H_ 0.378791 0.698845 0.54649 0.10932
H_ H_ 0.183929 0.762412 0.581633 0.10932
H_ H_ 0.357414 0.824527 0.567911 0.10932
C_ C_ 0.0658727 0.844195 0.754562 -0.02249
C_ C_ 0.317406 0.848982 0.742822 -0.02249
C_ C_ 0.0136944 0.957362 0.753431 -0.02249
C_ C_ 0.266338 0.961002 0.751307 -0.02249
C_ C_ 0.0360856 0.895244 0.716733 -0.11473
C_ C_ 0.295825 0.910599 0.709879 -0.11473
C_ C_ 0.0607609 0.865796 0.792818 -0.11473
C_ C_ 0.306359 0.862168 0.781758 -0.11473
C_ C_ 0.0525295 0.859115 0.717076 -0.11473
C_ C_ 0.312547 0.87462 0.708252 -0.11473
C_ C_ 0.0293735 0.915942 0.754717 -0.02249
C_ C_ 0.283037 0.922256 0.748722 -0.02249
C_ C_ 0.0869507 0.807806 0.754085 0.6875
C_ C_ 0.336837 0.81131 0.744422 0.6875
C_ C_ 0.0425035 0.899853 0.793663 -0.11473
C_ C_ 0.293434 0.900759 0.785547 -0.11473
C_ C_ 0.18614 0.84445 0.756304 -0.02249
C_ C_ 0.433825 0.843871 0.744855 -0.02249
C_ C_ 0.234951 0.96005 0.752794 -0.02249
C_ C_ 0.485272 0.957925 0.737793 -0.02249
C_ C_ 0.206243 0.905088 0.792024 -0.11473
C_ C_ 0.463723 0.897591 0.779999 -0.11473
C_ C_ 0.196504 0.86099 0.719062 -0.11473
C_ C_ 0.441964 0.860504 0.705396 -0.11473
C_ C_ 0.190544 0.867567 0.792881 -0.11473
C_ C_ 0.444895 0.864562 0.781784 -0.11473
C_ C_ 0.217394 0.920299 0.756024 -0.02249
C_ C_ 0.47046 0.916287 0.741198 -0.02249
C_ C_ 0.165243 0.806993 0.757662 0.6875
C_ C_ 0.41488 0.807006 0.746678 0.6875
C_ C_ 0.210436 0.90043 0.718804 -0.11473
C_ C_ 0.459769 0.896032 0.704189 -0.11473
C_ C_ 0.187181 0.654846 0.754288 -0.02249
C_ C_ 0.433003 0.648652 0.750052 -0.02249
C_ C_ 0.231943 0.53808 0.754895 -0.02249
C_ C_ 0.482878 0.534079 0.747639 -0.02249
C_ C_ 0.208807 0.597142 0.792303 -0.11473
C_ C_ 0.451675 0.586985 0.782269 -0.11473
C_ C_ 0.190549 0.633997 0.715511 -0.11473
C_ C_ 0.4487 0.637736 0.714528 -0.11473
C_ C_ 0.196431 0.63715 0.793062 -0.11473
C_ C_ 0.434615 0.622034 0.784319 -0.11473
C_ C_ 0.21458 0.576964 0.754907 -0.02249
C_ C_ 0.465261 0.573369 0.746368 -0.02249
C_ C_ 0.169761 0.69449 0.756234 0.6875
C_ C_ 0.415318 0.688984 0.750657 0.6875
C_ C_ 0.203177 0.59417 0.715576 -0.11473
C_ C_ 0.461078 0.598736 0.709678 -0.11473
C_ C_ 0.0689162 0.647687 0.74681 -0.02249
C_ C_ 0.312787 0.65671 0.757096 -0.02249
C_ C_ 0.0161586 0.534548 0.744175 -0.02249
C_ C_ 0.263896 0.538418 0.760343 -0.02249
C_ C_ 0.0390225 0.594284 0.708992 -0.11473
C_ C_ 0.279825 0.603629 0.721208 -0.11473
C_ C_ 0.0638572 0.627899 0.783224 -0.11473
C_ C_ 0.309636 0.632473 0.794499 -0.11473
C_ C_ 0.0563234 0.632702 0.708377 -0.11473
C_ C_ 0.296386 0.640819 0.721105 -0.11473
C_ C_ 0.0353869 0.572195 0.745047 -0.02249
C_ C_ 0.280453 0.579555 0.758542 -0.02249
C_ C_ 0.0897876 0.684147 0.747714 0.6875
C_ C_ 0.334201 0.690911 0.752496 0.6875
C_ C_ 0.0485294 0.58908 0.782946 -0.11473
C_ C_ 0.293467 0.595888 0.795625 -0.11473
C_ C_ 0.118466 0.776086 0.8809 0.17695
C_ C_ 0.384343 0.787756 0.870507 0.17695
C_ C_ 0.129971 0.704421 0.880334 0.17695
C_ C_ 0.37404 0.717203 0.869321 0.17695
C_ C_ 0.132644 0.705177 0.925336 -0.11473
C_ C_ 0.371251 0.717774 0.914311 -0.11473
C_ C_ 0.122486 0.740326 0.947096 0.23465
C_ C_ 0.377525 0.753981 0.937721 0.23465
C_ C_ 0.116337 0.777019 0.924626 -0.11473
C_ C_ 0.385088 0.789687 0.914199 -0.11473
C_ C_ 0.157309 0.754838 0.635529 0.17695
C_ C_ 0.367685 0.786963 0.626146 0.17695
C_ C_ 0.104173 0.74507 0.625484 0.17695
C_ C_ 0.379421 0.717153 0.611648 0.17695
C_ C_ 0.108021 0.743627 0.58139 -0.11473
C_ C_ 0.381584 0.72495 0.56719 -0.11473
C_ C_ 0.135676 0.749107 0.562881 0.23465
C_ C_ 0.371658 0.763031 0.553055 0.23465
C_ C_ 0.161393 0.751895 0.590847 -0.11473
C_ C_ 0.366647 0.795521 0.582467 -0.11473
C_ C_ 0.0306707 -0.005606 0.754841 0.05793
C_ C_ 0.281551 5.999999999994898e-05 0.747694 0.05793
C_ C_ 0.216965 0.498807 0.757026 0.05793
C_ C_ 0.467342 0.496172 0.752584 0.05793
Br Br 0.0737741 -0.00954200000000005 0.753346 -0.17191
Br Br 0.324993 -0.000692857 0.758106 -0.17191
Br Br 0.174131 0.493606 0.761124 -0.17191
Br Br 0.423646 0.494503 0.756196 -0.17191
N_ N_ 0.123416 0.740497 0.858808 -0.272
N_ N_ 0.378643 0.752952 0.849136 -0.272
N_ N_ 0.126254 0.742677 0.992199 -0.12501
N_ N_ 0.37006 0.755686 0.980153 -0.12501
N_ N_ 0.128399 0.752516 0.651863 -0.272
N_ N_ 0.373051 0.74732 0.639669 -0.272
N_ N_ 0.139592 0.745128 0.518912 -0.12501
N_ N_ 0.364289 0.76912 0.508982 -0.12501
O_ O_ 0.0919573 0.788966 0.71941 -0.60745
O_ O_ 0.338582 0.785704 0.714854 -0.60745
O_ O_ 0.0943292 0.790028 0.788136 -0.60745
O_ O_ 0.350809 0.802916 0.778714 -0.60745
O_ O_ 0.155327 0.794818 0.792503 -0.60745
O_ O_ 0.412051 0.789062 0.781666 -0.60745
O_ O_ 0.155522 0.791045 0.722445 -0.60745
O_ O_ 0.402753 0.794188 0.712014 -0.60745
O_ O_ 0.161583 0.71063 0.790567 -0.60745
O_ O_ 0.403304 0.703267 0.783031 -0.60745
O_ O_ 0.159905 0.709934 0.72121 -0.60745
O_ O_ 0.407136 0.704032 0.715922 -0.60745
O_ O_ 0.0965945 0.703058 0.71401 -0.60745
O_ O_ 0.343928 0.699167 0.715244 -0.60745
O_ O_ 0.0991721 0.69913 0.782561 -0.60745
O_ O_ 0.343465 0.713555 0.784018 -0.60745
Zn Zn 0.626952 0.256275 0.279583 0.9476
Zn Zn 0.877613 0.252575 0.285472 0.9476
Zn Zn 0.621994 0.25731 0.210022 0.9476
Zn Zn 0.878319 0.254612 0.216642 0.9476
H_ H_ 0.525296 0.413733 0.17602 0.10932
H_ H_ 0.787581 0.418547 0.177528 0.10932
H_ H_ 0.56041 0.365147 0.315865 0.10932
H_ H_ 0.815894 0.355234 0.313297 0.10932
H_ H_ 0.561828 0.357288 0.178406 0.10932
H_ H_ 0.813971 0.352977 0.179689 0.10932
H_ H_ 0.529495 0.428593 0.309308 0.10932
H_ H_ 0.78956 0.42529 0.312458 0.10932
H_ H_ 0.731016 0.414999 0.30652 0.10932
H_ H_ 0.95718 0.435323 0.312027 0.10932
H_ H_ 0.683354 0.361386 0.176051 0.10932
H_ H_ 0.943985 0.350192 0.181639 0.10932
H_ H_ 0.698637 0.355679 0.307646 0.10932
H_ H_ 0.930698 0.365267 0.316149 0.10932
H_ H_ 0.703422 0.433723 0.178408 0.10932
H_ H_ 0.965868 0.422474 0.182255 0.10932
H_ H_ 0.731522 0.102265 0.303796 0.10932
H_ H_ 0.988912 0.103595 0.311245 0.10932
H_ H_ 0.667472 0.14144 0.179695 0.10932
H_ H_ 0.920505 0.13037 0.189046 0.10932
H_ H_ 0.698522 0.163821 0.307181 0.10932
H_ H_ 0.957812 0.167194 0.308185 0.10932
H_ H_ 0.698736 0.0727502 0.179578 0.10932
H_ H_ 0.951334 0.0684329 0.191496 0.10932
H_ H_ 0.545377 0.0734192 0.192795 0.10932
H_ H_ 0.777397 0.0994574 0.174632 0.10932
H_ H_ 0.552432 0.171554 0.312324 0.10932
H_ H_ 0.837656 0.127495 0.300936 0.10932
H_ H_ 0.581951 0.133543 0.187862 0.10932
H_ H_ 0.804498 0.166242 0.183222 0.10932
H_ H_ 0.527098 0.103415 0.318595 0.10932
H_ H_ 0.803889 0.0698913 0.301854 0.10932
H_ H_ 0.627745 0.193039 0.355141 0.10932
H_ H_ 0.886504 0.195813 0.367234 0.10932
H_ H_ 0.632555 0.323023 0.353714 0.10932
H_ H_ 0.87425 0.326488 0.348368 0.10932
H_ H_ 0.629961 0.325816 0.433078 0.10932
H_ H_ 0.878753 0.337141 0.428086 0.10932
H_ H_ 0.621758 0.194428 0.435345 0.10932
H_ H_ 0.88458 0.20353 0.443385 0.10932
H_ H_ 0.628785 0.193278 0.142604 0.10932
H_ H_ 0.826993 0.25262 0.147195 0.10932
H_ H_ 0.621954 0.324401 0.132812 0.10932
H_ H_ 0.923777 0.251985 0.135037 0.10932
H_ H_ 0.628389 0.321704 0.0559209 0.10932
H_ H_ 0.919747 0.251294 0.0578344 0.10932
H_ H_ 0.641435 0.190639 0.0646822 0.10932
H_ H_ 0.821626 0.249617 0.0675151 0.10932
C_ C_ 0.566443 0.356618 0.246891 -0.02249
C_ C_ 0.818206 0.348918 0.246534 -0.02249
C_ C_ 0.511483 0.466965 0.239043 -0.02249
C_ C_ 0.769548 0.466751 0.241785 -0.02249
C_ C_ 0.53646 0.406243 0.203953 -0.11473
C_ C_ 0.792964 0.404951 0.207037 -0.11473
C_ C_ 0.552334 0.373938 0.28343 -0.11473
C_ C_ 0.812266 0.371216 0.283117 -0.11473
C_ C_ 0.557287 0.373849 0.205821 -0.11473
C_ C_ 0.80883 0.367033 0.20741 -0.11473
C_ C_ 0.52979 0.42785 0.241217 -0.02249
C_ C_ 0.786102 0.425614 0.244536 -0.02249
C_ C_ 0.585083 0.318936 0.245825 0.6875
C_ C_ 0.840184 0.31398 0.246534 0.6875
C_ C_ 0.534877 0.409972 0.281054 -0.11473
C_ C_ 0.794458 0.407457 0.282641 -0.11473
C_ C_ 0.68557 0.352595 0.241882 -0.02249
C_ C_ 0.935447 0.352638 0.249052 -0.02249
C_ C_ 0.737027 0.467193 0.23966 -0.02249
C_ C_ 0.986262 0.46685 0.24682 -0.02249
C_ C_ 0.716374 0.408124 0.279157 -0.11473
C_ C_ 0.955701 0.413831 0.285231 -0.11473
C_ C_ 0.690859 0.374037 0.205504 -0.11473
C_ C_ 0.946957 0.367467 0.210798 -0.11473
C_ C_ 0.699957 0.370498 0.278124 -0.11473
C_ C_ 0.939082 0.376607 0.285768 -0.11473
C_ C_ 0.718927 0.428973 0.241253 -0.02249
C_ C_ 0.968288 0.427792 0.247917 -0.02249
C_ C_ 0.668001 0.313717 0.244221 0.6875
C_ C_ 0.91744 0.312812 0.249467 0.6875
C_ C_ 0.704295 0.413983 0.204559 -0.11473
C_ C_ 0.96168 0.405806 0.211919 -0.11473
C_ C_ 0.679494 0.155399 0.245407 -0.02249
C_ C_ 0.935672 0.152095 0.248796 -0.02249
C_ C_ 0.73289 0.0442743 0.242563 -0.02249
C_ C_ 0.987016 0.0406768 0.256732 -0.02249
C_ C_ 0.715062 0.107665 0.279563 -0.11473
C_ C_ 0.972783 0.109294 0.286139 -0.11473
C_ C_ 0.681725 0.13051 0.207442 -0.11473
C_ C_ 0.93498 0.124806 0.216014 -0.11473
C_ C_ 0.694385 0.140249 0.281677 -0.11473
C_ C_ 0.95418 0.143386 0.28501 -0.11473
C_ C_ 0.716865 0.0840345 0.24302 -0.02249
C_ C_ 0.970421 0.0805677 0.252528 -0.02249
C_ C_ 0.660791 0.194599 0.247698 0.6875
C_ C_ 0.917491 0.190287 0.251335 0.6875
C_ C_ 0.700472 0.0948146 0.206924 -0.11473
C_ C_ 0.954499 0.0908243 0.215597 -0.11473
C_ C_ 0.568632 0.155807 0.249269 -0.02249
C_ C_ 0.819637 0.155218 0.245065 -0.02249
C_ C_ 0.516264 0.041579 0.260961 -0.02249
C_ C_ 0.765711 0.0434431 0.236216 -0.02249
C_ C_ 0.549774 0.0917484 0.219551 -0.11473
C_ C_ 0.78682 0.107069 0.205748 -0.11473
C_ C_ 0.550841 0.149285 0.285341 -0.11473
C_ C_ 0.820566 0.125558 0.276667 -0.11473
C_ C_ 0.566856 0.128288 0.21528 -0.11473
C_ C_ 0.803886 0.143546 0.207932 -0.11473
C_ C_ 0.533175 0.0830425 0.256053 -0.02249
C_ C_ 0.784048 0.0815103 0.238909 -0.02249
C_ C_ 0.585544 0.196712 0.246563 0.6875
C_ C_ 0.838901 0.191572 0.247057 0.6875
C_ C_ 0.533822 0.112857 0.289095 -0.11473
C_ C_ 0.800546 0.0927741 0.276465 -0.11473
C_ C_ 0.62761 0.222279 0.37447 0.17695
C_ C_ 0.879689 0.226339 0.379842 0.17695
C_ C_ 0.630432 0.295465 0.372261 0.17695
C_ C_ 0.875562 0.299296 0.370417 0.17695
C_ C_ 0.628695 0.296725 0.41861 -0.11473
C_ C_ 0.878231 0.305397 0.413826 -0.11473
C_ C_ 0.626563 0.26002 0.441895 0.23465
C_ C_ 0.875864 0.270624 0.440716 0.23465
C_ C_ 0.625631 0.222054 0.418415 -0.11473
C_ C_ 0.880296 0.231357 0.423701 -0.11473
C_ C_ 0.629996 0.220961 0.121791 0.17695
C_ C_ 0.84736 0.255515 0.128292 0.17695
C_ C_ 0.623029 0.294028 0.117513 0.17695
C_ C_ 0.901028 0.255254 0.121184 0.17695
C_ C_ 0.626244 0.292603 0.0732768 -0.11473
C_ C_ 0.899072 0.252334 0.0771954 -0.11473
C_ C_ 0.630845 0.255457 0.0540848 0.23465
C_ C_ 0.870639 0.249187 0.0575276 0.23465
C_ C_ 0.633967 0.218909 0.0782479 -0.11473
C_ C_ 0.844021 0.250776 0.0833031 -0.11473
C_ C_ 0.527315 0.505131 0.2359 0.05793
C_ C_ 0.786686 0.503087 0.248678 0.05793
C_ C_ 0.717017 1.00558299 0.246286 0.05793
C_ C_ 0.971188 1.00291484 0.25967 0.05793
Br Br 0.568917 0.501442 0.214737 -0.17191
Br Br 0.828481 0.500431 0.262239 -0.17191
Br Br 0.674889 0.00672427 0.261189 -0.17191
Br Br 0.927853 0.00226439 0.260859 -0.17191
N_ N_ 0.630074 0.258088 0.352185 -0.272
N_ N_ 0.875217 0.259444 0.355567 -0.272
N_ N_ 0.628874 0.263136 0.486596 -0.12501
N_ N_ 0.876991 0.276291 0.486303 -0.12501
N_ N_ 0.623659 0.258951 0.140325 -0.272
N_ N_ 0.876129 0.253577 0.145698 -0.272
N_ N_ 0.635505 0.25661 0.00827194 -0.12501
N_ N_ 0.867047 0.247022 0.0138513 -0.12501
O_ O_ 0.593958 0.303959 0.211627 -0.60745
O_ O_ 0.846914 0.296293 0.212528 -0.60745
O_ O_ 0.598052 0.306883 0.280127 -0.60745
O_ O_ 0.846517 0.297267 0.28069 -0.60745
O_ O_ 0.661742 0.296124 0.279086 -0.60745
O_ O_ 0.907613 0.298755 0.283376 -0.60745
O_ O_ 0.654809 0.299874 0.211701 -0.60745
O_ O_ 0.909776 0.294809 0.214406 -0.60745
O_ O_ 0.654627 0.209483 0.283478 -0.60745
O_ O_ 0.907405 0.201721 0.287163 -0.60745
O_ O_ 0.653206 0.212543 0.213035 -0.60745
O_ O_ 0.910788 0.210974 0.218043 -0.60745
O_ O_ 0.592746 0.211834 0.21137 -0.60745
O_ O_ 0.846343 0.210397 0.213094 -0.60745
O_ O_ 0.594356 0.214665 0.280502 -0.60745
O_ O_ 0.848179 0.205227 0.282834 -0.60745
Zn Zn 0.62483 0.240224 0.780518 0.9476
Zn Zn 0.876029 0.246321 0.7861 0.9476
Zn Zn 0.623272 0.243951 0.713111 0.9476
Zn Zn 0.87621 0.241944 0.715759 0.9476
H_ H_ 0.51899 0.400588 0.687466 0.10932
H_ H_ 0.786097 0.410183 0.687943 0.10932
H_ H_ 0.569359 0.352981 0.819279 0.10932
H_ H_ 0.803586 0.334189 0.820312 0.10932
H_ H_ 0.542927 0.330122 0.69238 0.10932
H_ H_ 0.818029 0.350041 0.68686 0.10932
H_ H_ 0.541659 0.414082 0.819984 0.10932
H_ H_ 0.77446 0.397772 0.823245 0.10932
H_ H_ 0.703372 0.422944 0.8176 0.10932
H_ H_ 0.966084 0.414046 0.818975 0.10932
H_ H_ 0.688154 0.344142 0.689536 0.10932
H_ H_ 0.942852 0.346757 0.683547 0.10932
H_ H_ 0.675927 0.355677 0.820548 0.10932
H_ H_ 0.931471 0.35049 0.815344 0.10932
H_ H_ 0.722011 0.407407 0.690973 0.10932
H_ H_ 0.955388 0.419938 0.683738 0.10932
H_ H_ 0.726921 0.0871735 0.81879 0.10932
H_ H_ 0.970616 0.0849307 0.817184 0.10932
H_ H_ 0.676573 0.132723 0.684208 0.10932
H_ H_ 0.941872 0.147124 0.6798 0.10932
H_ H_ 0.698526 0.155184 0.814013 0.10932
H_ H_ 0.939613 0.149578 0.814447 0.10932
H_ H_ 0.707161 0.0703521 0.687532 0.10932
H_ H_ 0.964128 0.0824869 0.677128 0.10932
H_ H_ 0.540463 0.0716812 0.672415 0.10932
H_ H_ 0.796525 0.0594742 0.692764 0.10932
H_ H_ 0.562132 0.141702 0.807007 0.10932
H_ H_ 0.81154 0.149269 0.817407 0.10932
H_ H_ 0.57322 0.132057 0.674531 0.10932
H_ H_ 0.819592 0.128053 0.685408 0.10932
H_ H_ 0.529272 0.0857195 0.803826 0.10932
H_ H_ 0.780915 0.087113 0.821906 0.10932
H_ H_ 0.625603 0.30258 0.856131 0.10932
H_ H_ 0.923665 0.258616 0.85209 0.10932
H_ H_ 0.624816 0.173016 0.851776 0.10932
H_ H_ 0.829771 0.237789 0.863558 0.10932
H_ H_ 0.621935 0.171904 0.933232 0.10932
H_ H_ 0.832738 0.233494 0.939448 0.10932
H_ H_ 0.61806 0.302198 0.933304 0.10932
H_ H_ 0.930005 0.258127 0.931254 0.10932
H_ H_ 0.623676 0.176811 0.640573 0.10932
H_ H_ 0.905643 0.292235 0.642302 0.10932
H_ H_ 0.62429 0.31138 0.639166 0.10932
H_ H_ 0.845217 0.192485 0.638395 0.10932
H_ H_ 0.624703 0.309956 0.559317 0.10932
H_ H_ 0.838077 0.198868 0.562122 0.10932
H_ H_ 0.606872 0.180049 0.568065 0.10932
H_ H_ 0.904378 0.290545 0.562036 0.10932
C_ C_ 0.562025 0.338882 0.753534 -0.02249
C_ C_ 0.813096 0.336893 0.754107 -0.02249
C_ C_ 0.51381 0.456863 0.750071 -0.02249
C_ C_ 0.765842 0.453953 0.758837 -0.02249
C_ C_ 0.530469 0.390661 0.715731 -0.11473
C_ C_ 0.792131 0.397534 0.719383 -0.11473
C_ C_ 0.560296 0.363348 0.789831 -0.11473
C_ C_ 0.802308 0.352455 0.792549 -0.11473
C_ C_ 0.543635 0.35036 0.719133 -0.11473
C_ C_ 0.809047 0.360133 0.717625 -0.11473
C_ C_ 0.530792 0.415529 0.751121 -0.02249
C_ C_ 0.783079 0.414088 0.757448 -0.02249
C_ C_ 0.582531 0.300629 0.750927 0.6875
C_ C_ 0.834178 0.299883 0.755169 0.6875
C_ C_ 0.544157 0.400857 0.790327 -0.11473
C_ C_ 0.786497 0.390269 0.793106 -0.11473
C_ C_ 0.68126 0.345307 0.753467 -0.02249
C_ C_ 0.934753 0.342531 0.750609 -0.02249
C_ C_ 0.733592 0.455974 0.751891 -0.02249
C_ C_ 0.982495 0.460876 0.75022 -0.02249
C_ C_ 0.701934 0.403594 0.78957 -0.11473
C_ C_ 0.96046 0.399945 0.789455 -0.11473
C_ C_ 0.693241 0.36101 0.717227 -0.11473
C_ C_ 0.940905 0.363276 0.712471 -0.11473
C_ C_ 0.684784 0.367438 0.791133 -0.11473
C_ C_ 0.94367 0.361827 0.788453 -0.11473
C_ C_ 0.716439 0.417034 0.755195 -0.02249
C_ C_ 0.963991 0.421164 0.751633 -0.02249
C_ C_ 0.661417 0.306632 0.750771 0.6875
C_ C_ 0.914822 0.30369 0.751884 0.6875
C_ C_ 0.711811 0.396786 0.717701 -0.11473
C_ C_ 0.954006 0.40451 0.714569 -0.11473
C_ C_ 0.682516 0.14684 0.750547 -0.02249
C_ C_ 0.9409 0.152929 0.748294 -0.02249
C_ C_ 0.733124 0.0323253 0.754069 -0.02249
C_ C_ 0.985179 0.0365845 0.751234 -0.02249
C_ C_ 0.716674 0.0989355 0.788293 -0.11473
C_ C_ 0.962213 0.0972138 0.787023 -0.11473
C_ C_ 0.683734 0.120518 0.715456 -0.11473
C_ C_ 0.946466 0.133451 0.709839 -0.11473
C_ C_ 0.700265 0.135057 0.787274 -0.11473
C_ C_ 0.94797 0.135126 0.785924 -0.11473
C_ C_ 0.716209 0.0732518 0.752863 -0.02249
C_ C_ 0.968128 0.0765622 0.749069 -0.02249
C_ C_ 0.663532 0.183619 0.749517 0.6875
C_ C_ 0.916491 0.184251 0.747005 0.6875
C_ C_ 0.704246 0.0869447 0.715256 -0.11473
C_ C_ 0.960074 0.0955219 0.709168 -0.11473
C_ C_ 0.567235 0.145795 0.739622 -0.02249
C_ C_ 0.81967 0.141955 0.751162 -0.02249
C_ C_ 0.514209 0.0356651 0.740055 -0.02249
C_ C_ 0.765231 0.0333712 0.757695 -0.02249
C_ C_ 0.542071 0.0881316 0.700656 -0.11473
C_ C_ 0.797009 0.0812318 0.718446 -0.11473
C_ C_ 0.553975 0.130994 0.776543 -0.11473
C_ C_ 0.806544 0.132697 0.789737 -0.11473
C_ C_ 0.56141 0.122289 0.702033 -0.11473
C_ C_ 0.810844 0.118653 0.714516 -0.11473
C_ C_ 0.529908 0.0758793 0.738158 -0.02249
C_ C_ 0.781452 0.0730247 0.755091 -0.02249
C_ C_ 0.5876 0.181724 0.742244 0.6875
C_ C_ 0.840108 0.180536 0.749317 0.6875
C_ C_ 0.534454 0.0981809 0.774126 -0.11473
C_ C_ 0.787605 0.0975648 0.791837 -0.11473
C_ C_ 0.622747 0.274036 0.872549 0.17695
C_ C_ 0.905161 0.247071 0.87274 0.17695
C_ C_ 0.625102 0.20144 0.870983 0.17695
C_ C_ 0.852322 0.238505 0.878681 0.17695
C_ C_ 0.622463 0.200338 0.914912 -0.11473
C_ C_ 0.854022 0.234238 0.922671 -0.11473
C_ C_ 0.621824 0.237125 0.937396 0.23465
C_ C_ 0.883136 0.244867 0.942473 0.23465
C_ C_ 0.618146 0.274151 0.916225 -0.11473
C_ C_ 0.908673 0.249573 0.916664 -0.11473
C_ C_ 0.621118 0.207658 0.623197 0.17695
C_ C_ 0.888152 0.274545 0.623196 0.17695
C_ C_ 0.624806 0.280765 0.623069 0.17695
C_ C_ 0.854982 0.218371 0.622823 0.17695
C_ C_ 0.625268 0.279846 0.577483 -0.11473
C_ C_ 0.850424 0.222341 0.579568 -0.11473
C_ C_ 0.618222 0.242811 0.555144 0.23465
C_ C_ 0.867654 0.250326 0.556644 0.23465
C_ C_ 0.614701 0.20952 0.579821 -0.11473
C_ C_ 0.88682 0.276103 0.57966 -0.11473
C_ C_ 0.529728 0.494223 0.744305 0.05793
C_ C_ 0.781547 0.491029 0.759665 0.05793
C_ C_ 0.718245 -0.004149999999999987 0.760699 0.05793
C_ C_ 0.968218 -0.0012240000000000029 0.749627 0.05793
Br Br 0.572477 0.489613 0.749277 -0.17191
Br Br 0.823957 0.488303 0.773801 -0.17191
Br Br 0.678483 -0.004143000000000008 0.781577 -0.17191
Br Br 0.924674 0.000982572 0.757045 -0.17191
N_ N_ 0.622606 0.23867 0.850413 -0.272
N_ N_ 0.877323 0.243051 0.854854 -0.272
N_ N_ 0.62279 0.232507 0.982849 -0.12501
N_ N_ 0.888052 0.25044 0.988102 -0.12501
N_ N_ 0.623659 0.24316 0.644007 -0.272
N_ N_ 0.874391 0.244415 0.643854 -0.272
N_ N_ 0.613742 0.240622 0.510548 -0.12501
N_ N_ 0.867008 0.248143 0.509203 -0.12501
O_ O_ 0.588237 0.285777 0.715113 -0.60745
O_ O_ 0.842899 0.283949 0.720068 -0.60745
O_ O_ 0.593473 0.28447 0.783753 -0.60745
O_ O_ 0.842543 0.283118 0.790505 -0.60745
O_ O_ 0.653646 0.28697 0.783875 -0.60745
O_ O_ 0.903506 0.292494 0.786962 -0.60745
O_ O_ 0.654591 0.291693 0.713749 -0.60745
O_ O_ 0.90812 0.283191 0.718088 -0.60745
O_ O_ 0.657032 0.200137 0.784932 -0.60745
O_ O_ 0.91011 0.204089 0.77958 -0.60745
O_ O_ 0.653986 0.199143 0.714616 -0.60745
O_ O_ 0.907299 0.199002 0.712148 -0.60745
O_ O_ 0.593303 0.200847 0.708876 -0.60745
O_ O_ 0.845585 0.196027 0.714466 -0.60745
O_ O_ 0.596125 0.19508 0.775802 -0.60745
O_ O_ 0.849601 0.197096 0.783265 -0.60745
Zn Zn 0.630646 0.753488 0.280442 0.9476
Zn Zn 0.874475 0.755496 0.283659 0.9476
Zn Zn 0.625393 0.748989 0.209397 0.9476
Zn Zn 0.87434 0.75503 0.214726 0.9476
H_ H_ 0.545331 0.928944 0.191605 0.10932
H_ H_ 0.782718 0.916043 0.172931 0.10932
H_ H_ 0.570322 0.852896 0.319798 0.10932
H_ H_ 0.819631 0.872418 0.315119 0.10932
H_ H_ 0.564454 0.857046 0.190464 0.10932
H_ H_ 0.817419 0.853884 0.181122 0.10932
H_ H_ 0.542153 0.917205 0.323759 0.10932
H_ H_ 0.789948 0.934032 0.304585 0.10932
H_ H_ 0.735423 0.903005 0.304177 0.10932
H_ H_ 0.97838 0.907261 0.322651 0.10932
H_ H_ 0.661549 0.87518 0.188658 0.10932
H_ H_ 0.924929 0.870375 0.190996 0.10932
H_ H_ 0.702632 0.840328 0.308077 0.10932
H_ H_ 0.946631 0.846649 0.322346 0.10932
H_ H_ 0.691398 0.93778 0.185559 0.10932
H_ H_ 0.957033 0.931408 0.193028 0.10932
H_ H_ 0.735422 0.600142 0.301478 0.10932
H_ H_ 0.946733 0.56342 0.304745 0.10932
H_ H_ 0.688215 0.650145 0.172734 0.10932
H_ H_ 0.950684 0.667211 0.190284 0.10932
H_ H_ 0.705845 0.662843 0.305634 0.10932
H_ H_ 0.916484 0.627372 0.308692 0.10932
H_ H_ 0.708743 0.581122 0.174907 0.10932
H_ H_ 0.979084 0.601234 0.188554 0.10932
H_ H_ 0.536209 0.582178 0.173027 0.10932
H_ H_ 0.791839 0.582556 0.179309 0.10932
H_ H_ 0.564849 0.655244 0.308785 0.10932
H_ H_ 0.824437 0.648126 0.311716 0.10932
H_ H_ 0.563107 0.652326 0.172131 0.10932
H_ H_ 0.811584 0.651638 0.178304 0.10932
H_ H_ 0.531322 0.59138 0.307709 0.10932
H_ H_ 0.793868 0.58497 0.314793 0.10932
H_ H_ 0.638109 0.681839 0.349217 0.10932
H_ H_ 0.827683 0.767939 0.360306 0.10932
H_ H_ 0.620953 0.807486 0.357546 0.10932
H_ H_ 0.921505 0.743623 0.360835 0.10932
H_ H_ 0.623258 0.803395 0.437186 0.10932
H_ H_ 0.924395 0.741307 0.438037 0.10932
H_ H_ 0.641849 0.675194 0.425968 0.10932
H_ H_ 0.828325 0.767299 0.433669 0.10932
H_ H_ 0.580096 0.75252 0.13432 0.10932
H_ H_ 0.874601 0.685092 0.13525 0.10932
H_ H_ 0.675208 0.765192 0.138012 0.10932
H_ H_ 0.873656 0.816524 0.144942 0.10932
H_ H_ 0.677741 0.762065 0.0653454 0.10932
H_ H_ 0.885808 0.822176 0.0663692 0.10932
H_ H_ 0.581212 0.748779 0.0587684 0.10932
H_ H_ 0.869452 0.692398 0.0562988 0.10932
C_ C_ 0.570247 0.848523 0.253401 -0.02249
C_ C_ 0.820208 0.856634 0.249049 -0.02249
C_ C_ 0.519309 0.965319 0.260984 -0.02249
C_ C_ 0.763771 0.966487 0.235208 -0.02249
C_ C_ 0.547288 0.909674 0.219789 -0.11473
C_ C_ 0.790717 0.905183 0.204394 -0.11473
C_ C_ 0.563826 0.867527 0.291466 -0.11473
C_ C_ 0.811299 0.879568 0.284256 -0.11473
C_ C_ 0.561111 0.870116 0.217884 -0.11473
C_ C_ 0.809978 0.871336 0.208351 -0.11473
C_ C_ 0.537528 0.925362 0.258397 -0.02249
C_ C_ 0.781396 0.926412 0.239232 -0.02249
C_ C_ 0.58656 0.806004 0.250267 0.6875
C_ C_ 0.838985 0.8197 0.249899 0.6875
C_ C_ 0.545641 0.902827 0.293273 -0.11473
C_ C_ 0.793026 0.914477 0.280024 -0.11473
C_ C_ 0.680111 0.85139 0.24798 -0.02249
C_ C_ 0.934012 0.851601 0.255017 -0.02249
C_ C_ 0.732448 0.966251 0.241852 -0.02249
C_ C_ 0.986042 0.964012 0.261852 -0.02249
C_ C_ 0.720335 0.894584 0.277301 -0.11473
C_ C_ 0.967295 0.89861 0.293421 -0.11473
C_ C_ 0.675755 0.881203 0.215106 -0.11473
C_ C_ 0.938113 0.875724 0.217846 -0.11473
C_ C_ 0.700978 0.860531 0.281203 -0.11473
C_ C_ 0.949 0.864078 0.293053 -0.11473
C_ C_ 0.714482 0.925787 0.246123 -0.02249
C_ C_ 0.969748 0.923696 0.258145 -0.02249
C_ C_ 0.660891 0.814487 0.250708 0.6875
C_ C_ 0.915019 0.814854 0.252827 0.6875
C_ C_ 0.694854 0.914882 0.21361 -0.11473
C_ C_ 0.955067 0.912261 0.219901 -0.11473
C_ C_ 0.693323 0.661708 0.238443 -0.02249
C_ C_ 0.930169 0.654422 0.249422 -0.02249
C_ C_ 0.739387 0.543707 0.240672 -0.02249
C_ C_ 0.986085 0.541842 0.244106 -0.02249
C_ C_ 0.724228 0.612057 0.274779 -0.11473
C_ C_ 0.949248 0.587582 0.281796 -0.11473
C_ C_ 0.695832 0.638517 0.202003 -0.11473
C_ C_ 0.948717 0.645928 0.215481 -0.11473
C_ C_ 0.706329 0.64607 0.27663 -0.11473
C_ C_ 0.93081 0.623292 0.282524 -0.11473
C_ C_ 0.723492 0.586316 0.239672 -0.02249
C_ C_ 0.968777 0.581886 0.247659 -0.02249
C_ C_ 0.671347 0.698023 0.237509 0.6875
C_ C_ 0.911045 0.691957 0.249919 0.6875
C_ C_ 0.711133 0.600975 0.200854 -0.11473
C_ C_ 0.967749 0.610711 0.215086 -0.11473
C_ C_ 0.567146 0.655343 0.238842 -0.02249
C_ C_ 0.818647 0.658329 0.244809 -0.02249
C_ C_ 0.513993 0.543906 0.244719 -0.02249
C_ C_ 0.770562 0.541686 0.246864 -0.02249
C_ C_ 0.54109 0.598551 0.202254 -0.11473
C_ C_ 0.798629 0.597643 0.207981 -0.11473
C_ C_ 0.557352 0.640261 0.277691 -0.11473
C_ C_ 0.81385 0.636666 0.283734 -0.11473
C_ C_ 0.556587 0.636396 0.202118 -0.11473
C_ C_ 0.812712 0.636485 0.207577 -0.11473
C_ C_ 0.531892 0.583177 0.241607 -0.02249
C_ C_ 0.788906 0.579827 0.247513 -0.02249
C_ C_ 0.587245 0.692757 0.237853 0.6875
C_ C_ 0.832686 0.700145 0.245586 0.6875
C_ C_ 0.540358 0.603125 0.279474 -0.11473
C_ C_ 0.79873 0.599333 0.284492 -0.11473
C_ C_ 0.631416 0.708159 0.368011 0.17695
C_ C_ 0.84944 0.764522 0.375132 0.17695
C_ C_ 0.626795 0.780461 0.374294 0.17695
C_ C_ 0.900977 0.747314 0.376344 0.17695
C_ C_ 0.626887 0.777369 0.419145 -0.11473
C_ C_ 0.902213 0.745719 0.420836 -0.11473
C_ C_ 0.631209 0.739943 0.436623 0.23465
C_ C_ 0.875493 0.751429 0.443075 0.23465
C_ C_ 0.634901 0.704588 0.412009 -0.11473
C_ C_ 0.849376 0.762274 0.419412 -0.11473
C_ C_ 0.602043 0.751609 0.118482 0.17695
C_ C_ 0.879183 0.714937 0.119627 0.17695
C_ C_ 0.655357 0.757991 0.122255 0.17695
C_ C_ 0.87745 0.78872 0.124189 0.17695
C_ C_ 0.65697 0.757106 0.0793438 -0.11473
C_ C_ 0.879443 0.792321 0.079831 -0.11473
C_ C_ 0.630094 0.750226 0.0550627 0.23465
C_ C_ 0.87992 0.756302 0.0553596 0.23465
C_ C_ 0.602322 0.751119 0.074765 -0.11473
C_ C_ 0.87709 0.717566 0.0765632 -0.11473
C_ C_ 0.53385 1.00472853 0.26214 0.05793
C_ C_ 0.780829 1.0036903 0.23496 0.05793
C_ C_ 0.72189 0.506281 0.236534 0.05793
C_ C_ 0.971112 0.503889 0.238053 0.05793
Br Br 0.578119 1.00742135 0.257531 -0.17191
Br Br 0.823969 1.0028435 0.224053 -0.17191
Br Br 0.679444 0.507109 0.235711 -0.17191
Br Br 0.933782 0.50224 0.211388 -0.17191
N_ N_ 0.631433 0.745586 0.351612 -0.272
N_ N_ 0.874474 0.757001 0.354534 -0.272
N_ N_ 0.636703 0.737017 0.482133 -0.12501
N_ N_ 0.875526 0.744135 0.486679 -0.12501
N_ N_ 0.628314 0.754539 0.14146 -0.272
N_ N_ 0.875451 0.75109 0.142584 -0.272
N_ N_ 0.630979 0.739324 0.0115834 -0.12501
N_ N_ 0.88135 0.7591 0.0107877 -0.12501
O_ O_ 0.589951 0.78852 0.21471 -0.60745
O_ O_ 0.844167 0.797836 0.216855 -0.60745
O_ O_ 0.598627 0.794475 0.283254 -0.60745
O_ O_ 0.847864 0.805448 0.285373 -0.60745
O_ O_ 0.656254 0.799154 0.286636 -0.60745
O_ O_ 0.907476 0.796388 0.285872 -0.60745
O_ O_ 0.656716 0.794207 0.217807 -0.60745
O_ O_ 0.906199 0.80024 0.218242 -0.60745
O_ O_ 0.663147 0.710652 0.272189 -0.60745
O_ O_ 0.903288 0.707846 0.285038 -0.60745
O_ O_ 0.65724 0.708362 0.205044 -0.60745
O_ O_ 0.905121 0.712146 0.215496 -0.60745
O_ O_ 0.597795 0.703564 0.203026 -0.60745
O_ O_ 0.843827 0.712036 0.212429 -0.60745
O_ O_ 0.59826 0.708881 0.27052 -0.60745
O_ O_ 0.84289 0.713665 0.2799 -0.60745
Zn Zn 0.627104 0.746494 0.77786 0.9476
Zn Zn 0.872911 0.746668 0.784589 0.9476
Zn Zn 0.627493 0.743343 0.708207 0.9476
Zn Zn 0.871931 0.742728 0.712864 0.9476
H_ H_ 0.53872 0.916801 0.672197 0.10932
H_ H_ 0.775428 0.906774 0.690925 0.10932
H_ H_ 0.550084 0.834199 0.799691 0.10932
H_ H_ 0.825428 0.857554 0.821722 0.10932
H_ H_ 0.572549 0.856722 0.675625 0.10932
H_ H_ 0.797606 0.837948 0.688958 0.10932
H_ H_ 0.530078 0.904393 0.807451 0.10932
H_ H_ 0.803538 0.924417 0.817842 0.10932
H_ H_ 0.711508 0.914322 0.827116 0.10932
H_ H_ 0.976215 0.90174 0.810958 0.10932
H_ H_ 0.695549 0.845719 0.686304 0.10932
H_ H_ 0.913306 0.871191 0.685338 0.10932
H_ H_ 0.687664 0.846233 0.824282 0.10932
H_ H_ 0.945318 0.838508 0.812458 0.10932
H_ H_ 0.708802 0.920256 0.692964 0.10932
H_ H_ 0.947526 0.929126 0.686785 0.10932
H_ H_ 0.713753 0.579451 0.819352 0.10932
H_ H_ 0.964366 0.574416 0.814359 0.10932
H_ H_ 0.693546 0.640373 0.678339 0.10932
H_ H_ 0.93945 0.651318 0.679509 0.10932
H_ H_ 0.684076 0.64289 0.814938 0.10932
H_ H_ 0.931237 0.637728 0.816867 0.10932
H_ H_ 0.724738 0.5827 0.685437 0.10932
H_ H_ 0.967224 0.5852 0.676492 0.10932
H_ H_ 0.538625 0.570436 0.67342 0.10932
H_ H_ 0.782082 0.572258 0.685342 0.10932
H_ H_ 0.568895 0.639041 0.806588 0.10932
H_ H_ 0.809759 0.643745 0.816659 0.10932
H_ H_ 0.577215 0.633138 0.674227 0.10932
H_ H_ 0.816768 0.63455 0.684183 0.10932
H_ H_ 0.531608 0.58285 0.808316 0.10932
H_ H_ 0.785872 0.57722 0.817963 0.10932
H_ H_ 0.578937 0.777209 0.84794 0.10932
H_ H_ 0.895702 0.685252 0.85466 0.10932
H_ H_ 0.659271 0.7082 0.862626 0.10932
H_ H_ 0.861071 0.801835 0.861058 0.10932
H_ H_ 0.654738 0.706576 0.940112 0.10932
H_ H_ 0.863026 0.801971 0.937037 0.10932
H_ H_ 0.579281 0.788933 0.922402 0.10932
H_ H_ 0.893947 0.677499 0.926702 0.10932
H_ H_ 0.635158 0.688297 0.63136 0.10932
H_ H_ 0.860755 0.81664 0.64785 0.10932
H_ H_ 0.63021 0.817467 0.641438 0.10932
H_ H_ 0.864182 0.686836 0.632797 0.10932
H_ H_ 0.63413 0.822628 0.562561 0.10932
H_ H_ 0.86106 0.695963 0.552479 0.10932
H_ H_ 0.632044 0.692645 0.553211 0.10932
H_ H_ 0.856465 0.823665 0.56876 0.10932
C_ C_ 0.570574 0.847336 0.741075 -0.02249
C_ C_ 0.812871 0.839493 0.756224 -0.02249
C_ C_ 0.516746 0.960238 0.741777 -0.02249
C_ C_ 0.766275 0.957862 0.759755 -0.02249
C_ C_ 0.545944 0.904071 0.703467 -0.11473
C_ C_ 0.786638 0.894597 0.719691 -0.11473
C_ C_ 0.553616 0.858586 0.776067 -0.11473
C_ C_ 0.81098 0.863384 0.793703 -0.11473
C_ C_ 0.564235 0.869017 0.70389 -0.11473
C_ C_ 0.800441 0.856046 0.717989 -0.11473
C_ C_ 0.534479 0.919526 0.74191 -0.02249
C_ C_ 0.783393 0.918184 0.758007 -0.02249
C_ C_ 0.588617 0.80758 0.743738 0.6875
C_ C_ 0.833017 0.802387 0.756212 0.6875
C_ C_ 0.538867 0.895258 0.778131 -0.11473
C_ C_ 0.79522 0.90067 0.795277 -0.11473
C_ C_ 0.686493 0.840855 0.754005 -0.02249
C_ C_ 0.931691 0.844534 0.746123 -0.02249
C_ C_ 0.734163 0.958206 0.760918 -0.02249
C_ C_ 0.982713 0.959428 0.750816 -0.02249
C_ C_ 0.708061 0.898546 0.797113 -0.11473
C_ C_ 0.96198 0.895306 0.784484 -0.11473
C_ C_ 0.695848 0.861093 0.717629 -0.11473
C_ C_ 0.930123 0.872986 0.710699 -0.11473
C_ C_ 0.693927 0.85862 0.793422 -0.11473
C_ C_ 0.945292 0.856881 0.783727 -0.11473
C_ C_ 0.717082 0.918447 0.761208 -0.02249
C_ C_ 0.963787 0.920081 0.749561 -0.02249
C_ C_ 0.667886 0.801722 0.750576 0.6875
C_ C_ 0.910335 0.80929 0.748565 0.6875
C_ C_ 0.707446 0.902085 0.72134 -0.11473
C_ C_ 0.946501 0.908364 0.713297 -0.11473
C_ C_ 0.682296 0.645227 0.746715 -0.02249
C_ C_ 0.933306 0.648979 0.748285 -0.02249
C_ C_ 0.735747 0.532379 0.750114 -0.02249
C_ C_ 0.984367 0.536937 0.742949 -0.02249
C_ C_ 0.708455 0.591677 0.787997 -0.11473
C_ C_ 0.959793 0.592228 0.784609 -0.11473
C_ C_ 0.69633 0.628706 0.710144 -0.11473
C_ C_ 0.944243 0.634036 0.709032 -0.11473
C_ C_ 0.69199 0.627886 0.785598 -0.11473
C_ C_ 0.940804 0.627606 0.78584 -0.11473
C_ C_ 0.720652 0.574815 0.750279 -0.02249
C_ C_ 0.969365 0.576599 0.746372 -0.02249
C_ C_ 0.664895 0.683923 0.746639 0.6875
C_ C_ 0.913333 0.686244 0.747684 0.6875
C_ C_ 0.715544 0.594641 0.713313 -0.11473
C_ C_ 0.963815 0.599215 0.707966 -0.11473
C_ C_ 0.570701 0.644464 0.737442 -0.02249
C_ C_ 0.819479 0.641709 0.75194 -0.02249
C_ C_ 0.514315 0.534412 0.744039 -0.02249
C_ C_ 0.766915 0.52892 0.75544 -0.02249
C_ C_ 0.545042 0.586181 0.703039 -0.11473
C_ C_ 0.789795 0.587544 0.714861 -0.11473
C_ C_ 0.560206 0.627652 0.776102 -0.11473
C_ C_ 0.809576 0.626249 0.788843 -0.11473
C_ C_ 0.564878 0.622649 0.700793 -0.11473
C_ C_ 0.807138 0.624501 0.713626 -0.11473
C_ C_ 0.532178 0.573408 0.74275 -0.02249
C_ C_ 0.78663 0.566556 0.752698 -0.02249
C_ C_ 0.589516 0.682883 0.738516 0.6875
C_ C_ 0.836142 0.681479 0.749024 0.6875
C_ C_ 0.539502 0.593929 0.778651 -0.11473
C_ C_ 0.796427 0.587083 0.790143 -0.11473
C_ C_ 0.594789 0.759683 0.868686 0.17695
C_ C_ 0.8877 0.709469 0.874417 0.17695
C_ C_ 0.638948 0.719372 0.87531 0.17695
C_ C_ 0.86586 0.775644 0.878254 0.17695
C_ C_ 0.637491 0.720783 0.920672 -0.11473
C_ C_ 0.86894 0.77405 0.921674 -0.11473
C_ C_ 0.616337 0.74806 0.938373 0.23465
C_ C_ 0.875389 0.734937 0.941261 0.23465
C_ C_ 0.593788 0.76368 0.912209 -0.11473
C_ C_ 0.884987 0.70383 0.915351 -0.11473
C_ C_ 0.634021 0.717736 0.616521 0.17695
C_ C_ 0.863849 0.789216 0.626848 0.17695
C_ C_ 0.627657 0.789637 0.621845 0.17695
C_ C_ 0.863958 0.717479 0.617753 0.17695
C_ C_ 0.628832 0.793347 0.578341 -0.11473
C_ C_ 0.863526 0.72192 0.574197 -0.11473
C_ C_ 0.628711 0.75854 0.551726 0.23465
C_ C_ 0.86167 0.761081 0.555805 0.23465
C_ C_ 0.633726 0.721031 0.571413 -0.11473
C_ C_ 0.86098 0.795334 0.582875 -0.11473
C_ C_ 0.531129 -0.0011759999999999549 0.743148 0.05793
C_ C_ 0.781732 -0.0039010000000000433 0.755879 0.05793
C_ C_ 0.719079 0.495915 0.750142 0.05793
C_ C_ 0.967932 0.499613 0.746999 0.05793
Br Br 0.576128 -0.00039199999999994795 0.7406 -0.17191
Br Br 0.824206 0.994374 0.762607 -0.17191
Br Br 0.676776 0.495733 0.742605 -0.17191
Br Br 0.924755 0.503467 0.745242 -0.17191
N_ N_ 0.618701 0.739589 0.851011 -0.272
N_ N_ 0.874915 0.742865 0.855358 -0.272
N_ N_ 0.616325 0.759088 0.983926 -0.12501
N_ N_ 0.87584 0.730023 0.985439 -0.12501
N_ N_ 0.630664 0.752511 0.639363 -0.272
N_ N_ 0.866075 0.750924 0.643064 -0.272
N_ N_ 0.624198 0.761375 0.507719 -0.12501
N_ N_ 0.860964 0.766349 0.511256 -0.12501
O_ O_ 0.594482 0.788268 0.710097 -0.60745
O_ O_ 0.840422 0.787611 0.721179 -0.60745
O_ O_ 0.598896 0.793824 0.777362 -0.60745
O_ O_ 0.839464 0.782984 0.789605 -0.60745
O_ O_ 0.658265 0.786027 0.783806 -0.60745
O_ O_ 0.902273 0.795149 0.783231 -0.60745
O_ O_ 0.657102 0.791369 0.714734 -0.60745
O_ O_ 0.903819 0.788465 0.714841 -0.60745
O_ O_ 0.653357 0.698153 0.779574 -0.60745
O_ O_ 0.90849 0.705991 0.781263 -0.60745
O_ O_ 0.6572 0.699761 0.711992 -0.60745
O_ O_ 0.903032 0.699736 0.713013 -0.60745
O_ O_ 0.598399 0.699008 0.705023 -0.60745
O_ O_ 0.84453 0.694887 0.714314 -0.60745
O_ O_ 0.592878 0.703621 0.772663 -0.60745
O_ O_ 0.845688 0.69636 0.783624 -0.60745
_cell_length_a 44.444
_cell_length_b 32.3360000049186
_cell_length_c 31.843999878906452
_cell_angle_alpha 89.99799923859553
_cell_angle_beta 91.13600050494348
_cell_angle_gamma 89.9990006550086
_symmetry_space_group_name_H-M         'P 1'
_symmetry_Int_Tables_number            1
loop_
_symmetry_equiv_pos_as_xyz
   'x, y, z'
                         
loop_
_atom_site_label
_atom_site_type_symbol
_atom_site_fract_x 
_atom_site_fract_y
_atom_site_fract_z
_atom_site_charge
Zn Zn 0.125871 0.254337 0.288543 0.9476
Zn Zn 0.379086 0.251911 0.284042 0.9476
Zn Zn 0.123274 0.253655 0.218248 0.9476
Zn Zn 0.372933 0.250128 0.216311 0.9476
H_ H_ 0.0541986 0.444177 0.203516 0.10932
H_ H_ 0.295683 0.431748 0.195081 0.10932
H_ H_ 0.0460814 0.340893 0.317023 0.10932
H_ H_ 0.296674 0.339869 0.320253 0.10932
H_ H_ 0.0865847 0.381482 0.202419 0.10932
H_ H_ 0.327856 0.367786 0.193297 0.10932
H_ H_ 0.0153916 0.403495 0.319072 0.10932
H_ H_ 0.273107 0.403174 0.322967 0.10932
H_ H_ 0.211278 0.417405 0.319205 0.10932
H_ H_ 0.464335 0.426934 0.318985 0.10932
H_ H_ 0.190755 0.349857 0.182674 0.10932
H_ H_ 0.435337 0.355336 0.186908 0.10932
H_ H_ 0.184401 0.356857 0.318037 0.10932
H_ H_ 0.439036 0.358247 0.317997 0.10932
H_ H_ 0.219744 0.415171 0.183293 0.10932
H_ H_ 0.455551 0.425477 0.186411 0.10932
H_ H_ 0.231038 0.0956249 0.314866 0.10932
H_ H_ 0.476642 0.0954565 0.325365 0.10932
H_ H_ 0.177934 0.14877 0.184113 0.10932
H_ H_ 0.425283 0.134164 0.187384 0.10932
H_ H_ 0.205677 0.16621 0.313794 0.10932
H_ H_ 0.445295 0.162893 0.319971 0.10932
H_ H_ 0.204441 0.0829554 0.183535 0.10932
H_ H_ 0.453629 0.0731674 0.195601 0.10932
H_ H_ 0.024602 0.0927038 0.192688 0.10932
H_ H_ 0.276137 0.0885905 0.178311 0.10932
H_ H_ 0.0803395 0.138529 0.318036 0.10932
H_ H_ 0.318659 0.146947 0.311294 0.10932
H_ H_ 0.0498001 0.159717 0.191098 0.10932
H_ H_ 0.304995 0.156786 0.175128 0.10932
H_ H_ 0.0509112 0.0767312 0.322084 0.10932
H_ H_ 0.299035 0.0759553 0.305931 0.10932
H_ H_ 0.134721 0.322765 0.354198 0.10932
H_ H_ 0.366862 0.31049 0.361767 0.10932
H_ H_ 0.127486 0.194373 0.370526 0.10932
H_ H_ 0.381673 0.180686 0.356153 0.10932
H_ H_ 0.124912 0.202601 0.445041 0.10932
H_ H_ 0.382413 0.178759 0.43331 0.10932
H_ H_ 0.131683 0.335454 0.431881 0.10932
H_ H_ 0.370942 0.308213 0.440469 0.10932
H_ H_ 0.136465 0.307874 0.139455 0.10932
H_ H_ 0.364637 0.315672 0.140057 0.10932
H_ H_ 0.0988551 0.189327 0.148396 0.10932
H_ H_ 0.376797 0.184437 0.143835 0.10932
H_ H_ 0.0973379 0.179617 0.0729397 0.10932
H_ H_ 0.381817 0.185615 0.0632162 0.10932
H_ H_ 0.135507 0.301538 0.0591827 0.10932
H_ H_ 0.372276 0.317742 0.0670507 0.10932
C_ C_ 0.0666079 0.353587 0.257608 -0.02249
C_ C_ 0.317623 0.348663 0.256417 -0.02249
C_ C_ 0.0166554 0.466891 0.264199 -0.02249
C_ C_ 0.268192 0.46297 0.264022 -0.02249
C_ C_ 0.0534884 0.42165 0.229298 -0.11473
C_ C_ 0.29822 0.411605 0.2227 -0.11473
C_ C_ 0.0487245 0.362576 0.292138 -0.11473
C_ C_ 0.299657 0.358676 0.293414 -0.11473
C_ C_ 0.0714722 0.386196 0.228077 -0.11473
C_ C_ 0.314634 0.375226 0.220016 -0.11473
C_ C_ 0.0340969 0.427781 0.262309 -0.02249
C_ C_ 0.28464 0.42403 0.261429 -0.02249
C_ C_ 0.0846762 0.314594 0.255334 0.6875
C_ C_ 0.336588 0.309851 0.253507 0.6875
C_ C_ 0.0289059 0.397236 0.292581 -0.11473
C_ C_ 0.288941 0.39878 0.297625 -0.11473
C_ C_ 0.188963 0.344883 0.248657 -0.02249
C_ C_ 0.433724 0.352307 0.254442 -0.02249
C_ C_ 0.237442 0.461906 0.252167 -0.02249
C_ C_ 0.480954 0.468826 0.249027 -0.02249
C_ C_ 0.209808 0.40393 0.288123 -0.11473
C_ C_ 0.457883 0.41132 0.288694 -0.11473
C_ C_ 0.197459 0.363175 0.211942 -0.11473
C_ C_ 0.438711 0.373041 0.21519 -0.11473
C_ C_ 0.193396 0.367225 0.287002 -0.11473
C_ C_ 0.443777 0.372266 0.289722 -0.11473
C_ C_ 0.220914 0.421324 0.250907 -0.02249
C_ C_ 0.463775 0.429967 0.250665 -0.02249
C_ C_ 0.167574 0.309461 0.249166 0.6875
C_ C_ 0.416425 0.312754 0.257592 0.6875
C_ C_ 0.214166 0.400758 0.213414 -0.11473
C_ C_ 0.456002 0.410019 0.213964 -0.11473
C_ C_ 0.186215 0.16221 0.250796 -0.02249
C_ C_ 0.432775 0.153438 0.254294 -0.02249
C_ C_ 0.232608 0.0424966 0.250904 -0.02249
C_ C_ 0.484455 0.0408356 0.263328 -0.02249
C_ C_ 0.216071 0.105627 0.287383 -0.11473
C_ C_ 0.462728 0.103975 0.29633 -0.11473
C_ C_ 0.18877 0.13947 0.212851 -0.11473
C_ C_ 0.434754 0.125777 0.219477 -0.11473
C_ C_ 0.201468 0.14568 0.286741 -0.11473
C_ C_ 0.446865 0.141464 0.293002 -0.11473
C_ C_ 0.219133 0.0848796 0.249461 -0.02249
C_ C_ 0.46621 0.0789412 0.260924 -0.02249
C_ C_ 0.163387 0.19616 0.252255 0.6875
C_ C_ 0.414175 0.192665 0.251615 0.6875
C_ C_ 0.205811 0.102114 0.212005 -0.11473
C_ C_ 0.4511 0.0898478 0.223601 -0.11473
C_ C_ 0.0648553 0.157124 0.255775 -0.02249
C_ C_ 0.313619 0.157694 0.243748 -0.02249
C_ C_ 0.0190351 0.0400476 0.258602 -0.02249
C_ C_ 0.263994 0.0399451 0.247303 -0.02249
C_ C_ 0.0363664 0.10266 0.218835 -0.11473
C_ C_ 0.285693 0.101565 0.206915 -0.11473
C_ C_ 0.0641555 0.132335 0.293165 -0.11473
C_ C_ 0.309324 0.135839 0.281987 -0.11473
C_ C_ 0.0493221 0.142697 0.219548 -0.11473
C_ C_ 0.302051 0.138817 0.206403 -0.11473
C_ C_ 0.0360981 0.0789683 0.257635 -0.02249
C_ C_ 0.282865 0.0784609 0.244983 -0.02249
C_ C_ 0.084837 0.194096 0.254671 0.6875
C_ C_ 0.334483 0.194324 0.243035 0.6875
C_ C_ 0.0520907 0.0927565 0.291974 -0.11473
C_ C_ 0.296598 0.0965396 0.281651 -0.11473
C_ C_ 0.132971 0.297196 0.374937 0.17695
C_ C_ 0.373738 0.281829 0.379289 0.17695
C_ C_ 0.127965 0.225384 0.384406 0.17695
C_ C_ 0.379451 0.208192 0.373241 0.17695
C_ C_ 0.126222 0.229936 0.427855 -0.11473
C_ C_ 0.381599 0.206929 0.417628 -0.11473
C_ C_ 0.125845 0.269823 0.445986 0.23465
C_ C_ 0.380638 0.242848 0.442493 0.23465
C_ C_ 0.130088 0.304974 0.419137 -0.11473
C_ C_ 0.376537 0.280182 0.42269 -0.11473
C_ C_ 0.128499 0.279834 0.12392 0.17695
C_ C_ 0.369024 0.286369 0.125142 0.17695
C_ C_ 0.10732 0.214011 0.12972 0.17695
C_ C_ 0.377163 0.213642 0.125609 0.17695
C_ C_ 0.105659 0.208786 0.087524 -0.11473
C_ C_ 0.375273 0.212059 0.081321 -0.11473
C_ C_ 0.114033 0.242232 0.0610894 0.23465
C_ C_ 0.372208 0.249425 0.0577319 0.23465
C_ C_ 0.127301 0.277229 0.0802919 -0.11473
C_ C_ 0.36912 0.286074 0.0814752 -0.11473
C_ C_ 0.0309377 0.50587 0.273301 0.05793
C_ C_ 0.282514 0.501916 0.266483 0.05793
C_ C_ 0.213775 0.00716207 0.249399 0.05793
C_ C_ 0.470383 1.0000285406 0.261149 0.05793
Br Br 0.0714264 0.506921 0.294493 -0.17191
Br Br 0.322162 0.503266 0.288422 -0.17191
Br Br 0.17146 0.0118052 0.232431 -0.17191
Br Br 0.427936 0.996199 0.262591 -0.17191
N_ N_ 0.127718 0.259337 0.358678 -0.272
N_ N_ 0.376089 0.246265 0.354603 -0.272
N_ N_ 0.124647 0.273817 0.490683 -0.12501
N_ N_ 0.379856 0.239443 0.488582 -0.12501
N_ N_ 0.119886 0.247727 0.147651 -0.272
N_ N_ 0.372175 0.249984 0.146495 -0.272
N_ N_ 0.116468 0.234606 0.0157479 -0.12501
N_ N_ 0.379007 0.250731 0.012913 -0.12501
O_ O_ 0.089736 0.300072 0.218313 -0.60745
O_ O_ 0.345562 0.297429 0.21793 -0.60745
O_ O_ 0.0971504 0.297497 0.288412 -0.60745
O_ O_ 0.343802 0.289961 0.286499 -0.60745
O_ O_ 0.161022 0.291822 0.283519 -0.60745
O_ O_ 0.409718 0.297942 0.293846 -0.60745
O_ O_ 0.156587 0.294195 0.216971 -0.60745
O_ O_ 0.406872 0.292907 0.223546 -0.60745
O_ O_ 0.155889 0.211016 0.286839 -0.60745
O_ O_ 0.411867 0.217267 0.282762 -0.60745
O_ O_ 0.154055 0.21175 0.217674 -0.60745
O_ O_ 0.40141 0.201767 0.216084 -0.60745
O_ O_ 0.0925177 0.208988 0.221411 -0.60745
O_ O_ 0.338087 0.214899 0.210185 -0.60745
O_ O_ 0.0940754 0.209155 0.288478 -0.60745
O_ O_ 0.351504 0.201987 0.275112 -0.60745
Zn Zn 0.123033 0.248295 0.788495 0.9476
Zn Zn 0.373358 0.247539 0.785634 0.9476
Zn Zn 0.124957 0.24745 0.720244 0.9476
Zn Zn 0.370735 0.245506 0.715329 0.9476
H_ H_ 0.0366338 0.41532 0.678172 0.10932
H_ H_ 0.287068 0.421206 0.689454 0.10932
H_ H_ 0.0662967 0.353583 0.817242 0.10932
H_ H_ 0.309489 0.348445 0.822875 0.10932
H_ H_ 0.0675794 0.351732 0.678954 0.10932
H_ H_ 0.318939 0.360325 0.686355 0.10932
H_ H_ 0.0340145 0.416932 0.810575 0.10932
H_ H_ 0.28451 0.41361 0.82483 0.10932
H_ H_ 0.216757 0.418871 0.824257 0.10932
H_ H_ 0.472226 0.407196 0.816829 0.10932
H_ H_ 0.18722 0.351495 0.692382 0.10932
H_ H_ 0.416662 0.360971 0.688191 0.10932
H_ H_ 0.18062 0.356787 0.82549 0.10932
H_ H_ 0.448729 0.338181 0.81646 0.10932
H_ H_ 0.212845 0.419631 0.690413 0.10932
H_ H_ 0.45314 0.419799 0.685969 0.10932
H_ H_ 0.21278 0.0779425 0.819723 0.10932
H_ H_ 0.447033 0.0613738 0.804251 0.10932
H_ H_ 0.187166 0.144122 0.684205 0.10932
H_ H_ 0.442815 0.157127 0.682652 0.10932
H_ H_ 0.185575 0.13866 0.820739 0.10932
H_ H_ 0.412486 0.123205 0.805374 0.10932
H_ H_ 0.215892 0.0806778 0.682595 0.10932
H_ H_ 0.474104 0.0935487 0.679977 0.10932
H_ H_ 0.0307767 0.0812138 0.688005 0.10932
H_ H_ 0.284767 0.0794686 0.677156 0.10932
H_ H_ 0.0713247 0.13914 0.822097 0.10932
H_ H_ 0.305863 0.148925 0.809804 0.10932
H_ H_ 0.0630554 0.141325 0.687542 0.10932
H_ H_ 0.308703 0.147467 0.67622 0.10932
H_ H_ 0.0396981 0.0779928 0.821393 0.10932
H_ H_ 0.275284 0.0865369 0.808006 0.10932
H_ H_ 0.107083 0.310824 0.854577 0.10932
H_ H_ 0.355509 0.301209 0.863911 0.10932
H_ H_ 0.136968 0.188273 0.871889 0.10932
H_ H_ 0.392146 0.181135 0.85457 0.10932
H_ H_ 0.132715 0.196602 0.949609 0.10932
H_ H_ 0.383848 0.169403 0.930442 0.10932
H_ H_ 0.100642 0.31765 0.933121 0.10932
H_ H_ 0.36077 0.297718 0.940283 0.10932
H_ H_ 0.0751212 0.252975 0.644164 0.10932
H_ H_ 0.382166 0.192713 0.635428 0.10932
H_ H_ 0.171003 0.254936 0.646686 0.10932
H_ H_ 0.364849 0.321014 0.64463 0.10932
H_ H_ 0.171075 0.249194 0.564639 0.10932
H_ H_ 0.37803 0.329145 0.574575 0.10932
H_ H_ 0.0747977 0.245799 0.563704 0.10932
H_ H_ 0.385222 0.19941 0.556357 0.10932
C_ C_ 0.0711903 0.348151 0.74969 -0.02249
C_ C_ 0.314995 0.348334 0.755452 -0.02249
C_ C_ 0.013964 0.458433 0.744139 -0.02249
C_ C_ 0.266094 0.462808 0.759968 -0.02249
C_ C_ 0.0414447 0.399483 0.706631 -0.11473
C_ C_ 0.29518 0.408281 0.72007 -0.11473
C_ C_ 0.0591168 0.366066 0.785561 -0.11473
C_ C_ 0.306514 0.365295 0.793456 -0.11473
C_ C_ 0.0606448 0.365712 0.708378 -0.11473
C_ C_ 0.311801 0.370655 0.717949 -0.11473
C_ C_ 0.0314122 0.418477 0.743826 -0.02249
C_ C_ 0.284364 0.424577 0.758165 -0.02249
C_ C_ 0.0884453 0.309904 0.749734 0.6875
C_ C_ 0.335738 0.309502 0.754507 0.6875
C_ C_ 0.0388548 0.399714 0.782655 -0.11473
C_ C_ 0.290835 0.402252 0.794794 -0.11473
C_ C_ 0.184211 0.347312 0.758613 -0.02249
C_ C_ 0.430071 0.344998 0.754614 -0.02249
C_ C_ 0.23428 0.461164 0.759777 -0.02249
C_ C_ 0.482964 0.45816 0.753142 -0.02249
C_ C_ 0.211956 0.401556 0.796135 -0.11473
C_ C_ 0.462017 0.396693 0.787825 -0.11473
C_ C_ 0.192239 0.366864 0.720382 -0.11473
C_ C_ 0.433924 0.366659 0.715604 -0.11473
C_ C_ 0.190692 0.367868 0.796859 -0.11473
C_ C_ 0.446495 0.358262 0.787801 -0.11473
C_ C_ 0.219057 0.42132 0.758871 -0.02249
C_ C_ 0.46672 0.417117 0.750988 -0.02249
C_ C_ 0.165134 0.308692 0.75491 0.6875
C_ C_ 0.412697 0.304607 0.756181 0.6875
C_ C_ 0.208276 0.404054 0.720141 -0.11473
C_ C_ 0.451728 0.401792 0.714608 -0.11473
C_ C_ 0.184127 0.147906 0.752919 -0.02249
C_ C_ 0.429114 0.14663 0.746284 -0.02249
C_ C_ 0.234482 0.0369965 0.749862 -0.02249
C_ C_ 0.482696 0.034275 0.740528 -0.02249
C_ C_ 0.211 0.0934216 0.789313 -0.11473
C_ C_ 0.446932 0.0821223 0.778629 -0.11473
C_ C_ 0.195009 0.131751 0.714452 -0.11473
C_ C_ 0.446787 0.138754 0.711661 -0.11473
C_ C_ 0.191816 0.126277 0.79028 -0.11473
C_ C_ 0.42901 0.118957 0.780255 -0.11473
C_ C_ 0.218068 0.0759804 0.749409 -0.02249
C_ C_ 0.464414 0.0731044 0.743111 -0.02249
C_ C_ 0.162506 0.184288 0.752916 0.6875
C_ C_ 0.41188 0.185916 0.747978 0.6875
C_ C_ 0.211854 0.0970363 0.712134 -0.11473
C_ C_ 0.464647 0.10397 0.710397 -0.11473
C_ C_ 0.0696261 0.146315 0.755017 -0.02249
C_ C_ 0.311231 0.154113 0.742044 -0.02249
C_ C_ 0.0163217 0.0345173 0.754727 -0.02249
C_ C_ 0.265043 0.0366411 0.742637 -0.02249
C_ C_ 0.0409917 0.0923658 0.717615 -0.11473
C_ C_ 0.290201 0.0940319 0.706243 -0.11473
C_ C_ 0.0651887 0.125413 0.792709 -0.11473
C_ C_ 0.302143 0.134888 0.779606 -0.11473
C_ C_ 0.0602359 0.126878 0.717181 -0.11473
C_ C_ 0.303162 0.134207 0.704791 -0.11473
C_ C_ 0.0345003 0.0721904 0.755653 -0.02249
C_ C_ 0.283202 0.0738392 0.743573 -0.02249
C_ C_ 0.086445 0.186737 0.756113 0.6875
C_ C_ 0.331565 0.18938 0.7424 0.6875
C_ C_ 0.0465792 0.0887625 0.792597 -0.11473
C_ C_ 0.285719 0.0963915 0.779137 -0.11473
C_ C_ 0.114355 0.286939 0.8753 0.17695
C_ C_ 0.362348 0.270792 0.877871 0.17695
C_ C_ 0.129273 0.216703 0.883947 0.17695
C_ C_ 0.379567 0.202691 0.872272 0.17695
C_ C_ 0.12549 0.220098 0.92593 -0.11473
C_ C_ 0.3785 0.19755 0.915284 -0.11473
C_ C_ 0.115007 0.256458 0.945449 0.23465
C_ C_ 0.371667 0.232511 0.941163 0.23465
C_ C_ 0.110564 0.290556 0.919607 -0.11473
C_ C_ 0.364771 0.269415 0.922377 -0.11473
C_ C_ 0.0961451 0.251874 0.626524 0.17695
C_ C_ 0.377375 0.221657 0.620031 0.17695
C_ C_ 0.150058 0.25083 0.627017 0.17695
C_ C_ 0.371989 0.293482 0.627208 0.17695
C_ C_ 0.150701 0.248706 0.582279 -0.11473
C_ C_ 0.375655 0.298324 0.584306 -0.11473
C_ C_ 0.123672 0.250142 0.56061 0.23465
C_ C_ 0.379624 0.265594 0.558377 0.23465
C_ C_ 0.0961273 0.251944 0.582063 -0.11473
C_ C_ 0.380396 0.226533 0.576968 -0.11473
C_ C_ 0.0311855 0.494704 0.742372 0.05793
C_ C_ 0.28096 0.501139 0.762019 0.05793
C_ C_ 0.218757 -0.0009160000000000279 0.751598 0.05793
C_ C_ 0.467961 0.994944 0.736114 0.05793
Br Br 0.0710065 0.494167 0.718517 -0.17191
Br Br 0.324179 0.507073 0.763751 -0.17191
Br Br 0.1776 -0.0023900000000000032 0.762928 -0.17191
Br Br 0.423936 0.993972 0.735751 -0.17191
N_ N_ 0.124631 0.250738 0.859268 -0.272
N_ N_ 0.37325 0.239501 0.854323 -0.272
N_ N_ 0.107926 0.260005 0.988688 -0.12501
N_ N_ 0.366571 0.226768 0.985808 -0.12501
N_ N_ 0.122584 0.24996 0.647996 -0.272
N_ N_ 0.374779 0.255496 0.645309 -0.272
N_ N_ 0.12481 0.243799 0.515136 -0.12501
N_ N_ 0.381448 0.269459 0.513391 -0.12501
O_ O_ 0.0966387 0.293956 0.71589 -0.60745
O_ O_ 0.346205 0.297279 0.719541 -0.60745
O_ O_ 0.0932173 0.290941 0.783512 -0.60745
O_ O_ 0.341475 0.290497 0.788066 -0.60745
O_ O_ 0.154876 0.293376 0.786839 -0.60745
O_ O_ 0.404708 0.290033 0.79145 -0.60745
O_ O_ 0.159652 0.289631 0.720759 -0.60745
O_ O_ 0.406293 0.284775 0.722579 -0.60745
O_ O_ 0.154139 0.200988 0.787226 -0.60745
O_ O_ 0.403096 0.200797 0.782476 -0.60745
O_ O_ 0.155784 0.202247 0.719021 -0.60745
O_ O_ 0.397992 0.197176 0.715371 -0.60745
O_ O_ 0.0905623 0.207615 0.723121 -0.60745
O_ O_ 0.338283 0.207332 0.708496 -0.60745
O_ O_ 0.0951068 0.202202 0.791808 -0.60745
O_ O_ 0.341034 0.206019 0.776513 -0.60745
Zn Zn 0.125378 0.750184 0.288987 0.9476
Zn Zn 0.369615 0.757264 0.283479 0.9476
Zn Zn 0.125733 0.75059 0.216063 0.9476
Zn Zn 0.372185 0.756334 0.21094 0.9476
H_ H_ 0.0376942 0.919202 0.195519 0.10932
H_ H_ 0.275625 0.922993 0.172345 0.10932
H_ H_ 0.0631602 0.850324 0.325763 0.10932
H_ H_ 0.292289 0.838029 0.303957 0.10932
H_ H_ 0.0687181 0.86035 0.189168 0.10932
H_ H_ 0.313581 0.862082 0.173498 0.10932
H_ H_ 0.0410139 0.917262 0.329433 0.10932
H_ H_ 0.264355 0.904411 0.304902 0.10932
H_ H_ 0.208541 0.928125 0.316166 0.10932
H_ H_ 0.468289 0.911245 0.320753 0.10932
H_ H_ 0.174901 0.860365 0.185576 0.10932
H_ H_ 0.437099 0.86234 0.182588 0.10932
H_ H_ 0.185062 0.857125 0.320519 0.10932
H_ H_ 0.441725 0.848048 0.316967 0.10932
H_ H_ 0.204262 0.924848 0.180426 0.10932
H_ H_ 0.470492 0.916707 0.187125 0.10932
H_ H_ 0.208767 0.574481 0.312968 0.10932
H_ H_ 0.457697 0.579826 0.314439 0.10932
H_ H_ 0.188758 0.65201 0.180725 0.10932
H_ H_ 0.442167 0.665018 0.188298 0.10932
H_ H_ 0.180605 0.640507 0.316021 0.10932
H_ H_ 0.429721 0.645385 0.320316 0.10932
H_ H_ 0.215922 0.584105 0.180608 0.10932
H_ H_ 0.469898 0.595939 0.185277 0.10932
H_ H_ 0.0609835 0.56214 0.204532 0.10932
H_ H_ 0.306715 0.557583 0.19857 0.10932
H_ H_ 0.0425595 0.672183 0.310517 0.10932
H_ H_ 0.295398 0.670241 0.305927 0.10932
H_ H_ 0.0872504 0.629384 0.201393 0.10932
H_ H_ 0.338427 0.623337 0.19773 0.10932
H_ H_ 0.0141675 0.605514 0.312467 0.10932
H_ H_ 0.273191 0.599974 0.317919 0.10932
H_ H_ 0.118715 0.817673 0.359718 0.10932
H_ H_ 0.36644 0.692928 0.348741 0.10932
H_ H_ 0.126458 0.686332 0.367642 0.10932
H_ H_ 0.380531 0.824758 0.361408 0.10932
H_ H_ 0.129873 0.688236 0.444853 0.10932
H_ H_ 0.387775 0.81372 0.439748 0.10932
H_ H_ 0.120902 0.821553 0.43863 0.10932
H_ H_ 0.369652 0.687038 0.426508 0.10932
H_ H_ 0.162837 0.75228 0.141656 0.10932
H_ H_ 0.378992 0.691065 0.128613 0.10932
H_ H_ 0.0683247 0.746824 0.148732 0.10932
H_ H_ 0.3735 0.823102 0.137012 0.10932
H_ H_ 0.0615417 0.745486 0.0736044 0.10932
H_ H_ 0.385216 0.828781 0.0660611 0.10932
H_ H_ 0.160486 0.748213 0.0644845 0.10932
H_ H_ 0.384656 0.698444 0.0536233 0.10932
C_ C_ 0.067419 0.847138 0.257082 -0.02249
C_ C_ 0.303325 0.843612 0.236837 -0.02249
C_ C_ 0.0183904 0.96382 0.263049 -0.02249
C_ C_ 0.258615 0.963503 0.246278 -0.02249
C_ C_ 0.0425921 0.905397 0.223574 -0.11473
C_ C_ 0.283591 0.906968 0.201987 -0.11473
C_ C_ 0.0565905 0.863912 0.296542 -0.11473
C_ C_ 0.290805 0.856734 0.275294 -0.11473
C_ C_ 0.0613805 0.870152 0.221414 -0.11473
C_ C_ 0.299947 0.869257 0.200396 -0.11473
C_ C_ 0.0348402 0.924309 0.262287 -0.02249
C_ C_ 0.274208 0.920924 0.241381 -0.02249
C_ C_ 0.0883616 0.810648 0.254798 0.6875
C_ C_ 0.326276 0.808865 0.241125 0.6875
C_ C_ 0.0439566 0.903541 0.298686 -0.11473
C_ C_ 0.276335 0.894163 0.276581 -0.11473
C_ C_ 0.176619 0.855063 0.251694 -0.02249
C_ C_ 0.431544 0.852904 0.250024 -0.02249
C_ C_ 0.226691 0.968453 0.247905 -0.02249
C_ C_ 0.487387 0.963503 0.257792 -0.02249
C_ C_ 0.202852 0.911016 0.288283 -0.11473
C_ C_ 0.462821 0.900081 0.290623 -0.11473
C_ C_ 0.182091 0.876241 0.214096 -0.11473
C_ C_ 0.441744 0.872829 0.213133 -0.11473
C_ C_ 0.187855 0.873089 0.288987 -0.11473
C_ C_ 0.442905 0.86827 0.289101 -0.11473
C_ C_ 0.208226 0.930407 0.249748 -0.02249
C_ C_ 0.472564 0.920408 0.254333 -0.02249
C_ C_ 0.162272 0.813327 0.252112 0.6875
C_ C_ 0.411174 0.814965 0.247439 0.6875
C_ C_ 0.198936 0.911278 0.211159 -0.11473
C_ C_ 0.462808 0.904165 0.216648 -0.11473
C_ C_ 0.182976 0.652831 0.248635 -0.02249
C_ C_ 0.430788 0.657347 0.254161 -0.02249
C_ C_ 0.235058 0.5375 0.245289 -0.02249
C_ C_ 0.482403 0.545114 0.249453 -0.02249
C_ C_ 0.206703 0.59132 0.285848 -0.11473
C_ C_ 0.455107 0.5991 0.28845 -0.11473
C_ C_ 0.194647 0.63731 0.212138 -0.11473
C_ C_ 0.443392 0.64502 0.215821 -0.11473
C_ C_ 0.188331 0.627726 0.285352 -0.11473
C_ C_ 0.437945 0.634753 0.290621 -0.11473
C_ C_ 0.214419 0.574766 0.247472 -0.02249
C_ C_ 0.467372 0.586174 0.250462 -0.02249
C_ C_ 0.163363 0.690551 0.248886 0.6875
C_ C_ 0.412175 0.696603 0.255497 0.6875
C_ C_ 0.208275 0.597393 0.210757 -0.11473
C_ C_ 0.461454 0.608424 0.213464 -0.11473
C_ C_ 0.0676006 0.654805 0.255641 -0.02249
C_ C_ 0.317629 0.651588 0.249111 -0.02249
C_ C_ 0.0164143 0.542123 0.257446 -0.02249
C_ C_ 0.266064 0.538944 0.260804 -0.02249
C_ C_ 0.0543344 0.587933 0.2236 -0.11473
C_ C_ 0.303991 0.583052 0.222099 -0.11473
C_ C_ 0.0464328 0.64835 0.287262 -0.11473
C_ C_ 0.296486 0.646229 0.281976 -0.11473
C_ C_ 0.0704009 0.626362 0.222768 -0.11473
C_ C_ 0.32078 0.620834 0.219265 -0.11473
C_ C_ 0.0320844 0.582495 0.254352 -0.02249
C_ C_ 0.28366 0.577274 0.256316 -0.02249
C_ C_ 0.0859899 0.694141 0.256485 0.6875
C_ C_ 0.337011 0.69099 0.248603 0.6875
C_ C_ 0.0294143 0.612045 0.286685 -0.11473
C_ C_ 0.282176 0.607862 0.286583 -0.11473
C_ C_ 0.123474 0.790041 0.378139 0.17695
C_ C_ 0.368996 0.720343 0.369774 0.17695
C_ C_ 0.127459 0.716026 0.381159 0.17695
C_ C_ 0.377027 0.794171 0.376244 0.17695
C_ C_ 0.128391 0.717712 0.425708 -0.11473
C_ C_ 0.379661 0.791093 0.419841 -0.11473
C_ C_ 0.125745 0.75414 0.446273 0.23465
C_ C_ 0.372353 0.752693 0.43853 0.23465
C_ C_ 0.122498 0.791759 0.422532 -0.11473
C_ C_ 0.367293 0.717555 0.413139 -0.11473
C_ C_ 0.140969 0.751533 0.124583 0.17695
C_ C_ 0.375797 0.72203 0.11538 0.17695
C_ C_ 0.0884366 0.752377 0.129745 0.17695
C_ C_ 0.372856 0.795226 0.119613 0.17695
C_ C_ 0.0845047 0.752941 0.086291 -0.11473
C_ C_ 0.378122 0.799365 0.0763968 -0.11473
C_ C_ 0.109202 0.751111 0.0601394 0.23465
C_ C_ 0.382474 0.763535 0.0522746 0.23465
C_ C_ 0.138487 0.750811 0.0799394 -0.11473
C_ C_ 0.381902 0.724696 0.0721274 -0.11473
C_ C_ 0.0342748 1.00207143 0.25946 0.05793
C_ C_ 0.276612 0.99999306463 0.24574 0.05793
C_ C_ 0.22127 0.499545 0.242844 0.05793
C_ C_ 0.465572 0.508098 0.249374 0.05793
Br Br 0.0764694 0.00215105 0.246525 -0.17191
Br Br 0.320343 0.993624 0.250632 -0.17191
Br Br 0.178133 0.496238 0.23053 -0.17191
Br Br 0.422357 0.503931 0.25553 -0.17191
N_ N_ 0.127669 0.752016 0.35913 -0.272
N_ N_ 0.37137 0.759758 0.352552 -0.272
N_ N_ 0.119795 0.755093 0.490889 -0.12501
N_ N_ 0.377112 0.7475 0.481911 -0.12501
N_ N_ 0.116401 0.752919 0.148062 -0.272
N_ N_ 0.374767 0.757406 0.13916 -0.272
N_ N_ 0.10476 0.747643 0.0166645 -0.12501
N_ N_ 0.389291 0.766658 0.00858428 -0.12501
O_ O_ 0.0977356 0.796674 0.220892 -0.60745
O_ O_ 0.334475 0.79037 0.209271 -0.60745
O_ O_ 0.0953403 0.793866 0.289384 -0.60745
O_ O_ 0.341573 0.805659 0.273803 -0.60745
O_ O_ 0.155137 0.796781 0.285944 -0.60745
O_ O_ 0.402777 0.799205 0.281441 -0.60745
O_ O_ 0.157815 0.795261 0.2172 -0.60745
O_ O_ 0.399705 0.803689 0.212879 -0.60745
O_ O_ 0.156973 0.708434 0.283973 -0.60745
O_ O_ 0.399384 0.708081 0.289641 -0.60745
O_ O_ 0.153995 0.705872 0.215404 -0.60745
O_ O_ 0.408127 0.718075 0.223034 -0.60745
O_ O_ 0.092461 0.709453 0.22296 -0.60745
O_ O_ 0.348409 0.702358 0.214415 -0.60745
O_ O_ 0.0979175 0.70457 0.291172 -0.60745
O_ O_ 0.338856 0.715492 0.278955 -0.60745
Zn Zn 0.126449 0.74759 0.788759 0.9476
Zn Zn 0.37769 0.751569 0.783029 0.9476
Zn Zn 0.124527 0.748553 0.719396 0.9476
Zn Zn 0.373928 0.745784 0.712928 0.9476
H_ H_ 0.0238208 0.902711 0.688566 0.10932
H_ H_ 0.293587 0.933204 0.683658 0.10932
H_ H_ 0.0674687 0.853248 0.82231 0.10932
H_ H_ 0.309732 0.841975 0.809401 0.10932
H_ H_ 0.0600827 0.845424 0.686116 0.10932
H_ H_ 0.323621 0.867732 0.679068 0.10932
H_ H_ 0.0356891 0.91506 0.82367 0.10932
H_ H_ 0.28605 0.911482 0.815184 0.10932
H_ H_ 0.211263 0.922116 0.819878 0.10932
H_ H_ 0.469376 0.91252 0.808134 0.10932
H_ H_ 0.198485 0.842138 0.691102 0.10932
H_ H_ 0.433795 0.846869 0.676165 0.10932
H_ H_ 0.180752 0.858556 0.821874 0.10932
H_ H_ 0.431328 0.861393 0.809463 0.10932
H_ H_ 0.220292 0.912565 0.691923 0.10932
H_ H_ 0.461085 0.912848 0.674518 0.10932
H_ H_ 0.216405 0.585427 0.822649 0.10932
H_ H_ 0.452578 0.568605 0.810673 0.10932
H_ H_ 0.184459 0.649035 0.686603 0.10932
H_ H_ 0.453692 0.663203 0.693195 0.10932
H_ H_ 0.188659 0.649941 0.821978 0.10932
H_ H_ 0.424925 0.630615 0.813674 0.10932
H_ H_ 0.202672 0.577064 0.687595 0.10932
H_ H_ 0.472635 0.590991 0.679485 0.10932
H_ H_ 0.0329083 0.579797 0.679213 0.10932
H_ H_ 0.268163 0.591708 0.69367 0.10932
H_ H_ 0.0755736 0.637612 0.811925 0.10932
H_ H_ 0.324074 0.640136 0.821444 0.10932
H_ H_ 0.0643129 0.643785 0.678177 0.10932
H_ H_ 0.295079 0.657738 0.691737 0.10932
H_ H_ 0.0492475 0.570101 0.810829 0.10932
H_ H_ 0.296369 0.576538 0.824343 0.10932
H_ H_ 0.124317 0.802378 0.866234 0.10932
H_ H_ 0.38851 0.817255 0.854335 0.10932
H_ H_ 0.13513 0.675544 0.862147 0.10932
H_ H_ 0.375442 0.688003 0.853018 0.10932
H_ H_ 0.141422 0.678959 0.941781 0.10932
H_ H_ 0.375513 0.688582 0.930569 0.10932
H_ H_ 0.110791 0.806027 0.942212 0.10932
H_ H_ 0.386546 0.819765 0.932649 0.10932
H_ H_ 0.17707 0.755318 0.658865 0.10932
H_ H_ 0.356869 0.809306 0.645393 0.10932
H_ H_ 0.0803279 0.741105 0.637229 0.10932
H_ H_ 0.384049 0.686513 0.624907 0.10932
H_ H_ 0.0874322 0.741373 0.561884 0.10932
H_ H_ 0.378791 0.698845 0.54649 0.10932
H_ H_ 0.183929 0.762412 0.581633 0.10932
H_ H_ 0.357414 0.824527 0.567911 0.10932
C_ C_ 0.0658727 0.844195 0.754562 -0.02249
C_ C_ 0.317406 0.848982 0.742822 -0.02249
C_ C_ 0.0136944 0.957362 0.753431 -0.02249
C_ C_ 0.266338 0.961002 0.751307 -0.02249
C_ C_ 0.0360856 0.895244 0.716733 -0.11473
C_ C_ 0.295825 0.910599 0.709879 -0.11473
C_ C_ 0.0607609 0.865796 0.792818 -0.11473
C_ C_ 0.306359 0.862168 0.781758 -0.11473
C_ C_ 0.0525295 0.859115 0.717076 -0.11473
C_ C_ 0.312547 0.87462 0.708252 -0.11473
C_ C_ 0.0293735 0.915942 0.754717 -0.02249
C_ C_ 0.283037 0.922256 0.748722 -0.02249
C_ C_ 0.0869507 0.807806 0.754085 0.6875
C_ C_ 0.336837 0.81131 0.744422 0.6875
C_ C_ 0.0425035 0.899853 0.793663 -0.11473
C_ C_ 0.293434 0.900759 0.785547 -0.11473
C_ C_ 0.18614 0.84445 0.756304 -0.02249
C_ C_ 0.433825 0.843871 0.744855 -0.02249
C_ C_ 0.234951 0.96005 0.752794 -0.02249
C_ C_ 0.485272 0.957925 0.737793 -0.02249
C_ C_ 0.206243 0.905088 0.792024 -0.11473
C_ C_ 0.463723 0.897591 0.779999 -0.11473
C_ C_ 0.196504 0.86099 0.719062 -0.11473
C_ C_ 0.441964 0.860504 0.705396 -0.11473
C_ C_ 0.190544 0.867567 0.792881 -0.11473
C_ C_ 0.444895 0.864562 0.781784 -0.11473
C_ C_ 0.217394 0.920299 0.756024 -0.02249
C_ C_ 0.47046 0.916287 0.741198 -0.02249
C_ C_ 0.165243 0.806993 0.757662 0.6875
C_ C_ 0.41488 0.807006 0.746678 0.6875
C_ C_ 0.210436 0.90043 0.718804 -0.11473
C_ C_ 0.459769 0.896032 0.704189 -0.11473
C_ C_ 0.187181 0.654846 0.754288 -0.02249
C_ C_ 0.433003 0.648652 0.750052 -0.02249
C_ C_ 0.231943 0.53808 0.754895 -0.02249
C_ C_ 0.482878 0.534079 0.747639 -0.02249
C_ C_ 0.208807 0.597142 0.792303 -0.11473
C_ C_ 0.451675 0.586985 0.782269 -0.11473
C_ C_ 0.190549 0.633997 0.715511 -0.11473
C_ C_ 0.4487 0.637736 0.714528 -0.11473
C_ C_ 0.196431 0.63715 0.793062 -0.11473
C_ C_ 0.434615 0.622034 0.784319 -0.11473
C_ C_ 0.21458 0.576964 0.754907 -0.02249
C_ C_ 0.465261 0.573369 0.746368 -0.02249
C_ C_ 0.169761 0.69449 0.756234 0.6875
C_ C_ 0.415318 0.688984 0.750657 0.6875
C_ C_ 0.203177 0.59417 0.715576 -0.11473
C_ C_ 0.461078 0.598736 0.709678 -0.11473
C_ C_ 0.0689162 0.647687 0.74681 -0.02249
C_ C_ 0.312787 0.65671 0.757096 -0.02249
C_ C_ 0.0161586 0.534548 0.744175 -0.02249
C_ C_ 0.263896 0.538418 0.760343 -0.02249
C_ C_ 0.0390225 0.594284 0.708992 -0.11473
C_ C_ 0.279825 0.603629 0.721208 -0.11473
C_ C_ 0.0638572 0.627899 0.783224 -0.11473
C_ C_ 0.309636 0.632473 0.794499 -0.11473
C_ C_ 0.0563234 0.632702 0.708377 -0.11473
C_ C_ 0.296386 0.640819 0.721105 -0.11473
C_ C_ 0.0353869 0.572195 0.745047 -0.02249
C_ C_ 0.280453 0.579555 0.758542 -0.02249
C_ C_ 0.0897876 0.684147 0.747714 0.6875
C_ C_ 0.334201 0.690911 0.752496 0.6875
C_ C_ 0.0485294 0.58908 0.782946 -0.11473
C_ C_ 0.293467 0.595888 0.795625 -0.11473
C_ C_ 0.118466 0.776086 0.8809 0.17695
C_ C_ 0.384343 0.787756 0.870507 0.17695
C_ C_ 0.129971 0.704421 0.880334 0.17695
C_ C_ 0.37404 0.717203 0.869321 0.17695
C_ C_ 0.132644 0.705177 0.925336 -0.11473
C_ C_ 0.371251 0.717774 0.914311 -0.11473
C_ C_ 0.122486 0.740326 0.947096 0.23465
C_ C_ 0.377525 0.753981 0.937721 0.23465
C_ C_ 0.116337 0.777019 0.924626 -0.11473
C_ C_ 0.385088 0.789687 0.914199 -0.11473
C_ C_ 0.157309 0.754838 0.635529 0.17695
C_ C_ 0.367685 0.786963 0.626146 0.17695
C_ C_ 0.104173 0.74507 0.625484 0.17695
C_ C_ 0.379421 0.717153 0.611648 0.17695
C_ C_ 0.108021 0.743627 0.58139 -0.11473
C_ C_ 0.381584 0.72495 0.56719 -0.11473
C_ C_ 0.135676 0.749107 0.562881 0.23465
C_ C_ 0.371658 0.763031 0.553055 0.23465
C_ C_ 0.161393 0.751895 0.590847 -0.11473
C_ C_ 0.366647 0.795521 0.582467 -0.11473
C_ C_ 0.0306707 -0.005606 0.754841 0.05793
C_ C_ 0.281551 5.999999999994898e-05 0.747694 0.05793
C_ C_ 0.216965 0.498807 0.757026 0.05793
C_ C_ 0.467342 0.496172 0.752584 0.05793
Br Br 0.0737741 -0.00954200000000005 0.753346 -0.17191
Br Br 0.324993 -0.000692857 0.758106 -0.17191
Br Br 0.174131 0.493606 0.761124 -0.17191
Br Br 0.423646 0.494503 0.756196 -0.17191
N_ N_ 0.123416 0.740497 0.858808 -0.272
N_ N_ 0.378643 0.752952 0.849136 -0.272
N_ N_ 0.126254 0.742677 0.992199 -0.12501
N_ N_ 0.37006 0.755686 0.980153 -0.12501
N_ N_ 0.128399 0.752516 0.651863 -0.272
N_ N_ 0.373051 0.74732 0.639669 -0.272
N_ N_ 0.139592 0.745128 0.518912 -0.12501
N_ N_ 0.364289 0.76912 0.508982 -0.12501
O_ O_ 0.0919573 0.788966 0.71941 -0.60745
O_ O_ 0.338582 0.785704 0.714854 -0.60745
O_ O_ 0.0943292 0.790028 0.788136 -0.60745
O_ O_ 0.350809 0.802916 0.778714 -0.60745
O_ O_ 0.155327 0.794818 0.792503 -0.60745
O_ O_ 0.412051 0.789062 0.781666 -0.60745
O_ O_ 0.155522 0.791045 0.722445 -0.60745
O_ O_ 0.402753 0.794188 0.712014 -0.60745
O_ O_ 0.161583 0.71063 0.790567 -0.60745
O_ O_ 0.403304 0.703267 0.783031 -0.60745
O_ O_ 0.159905 0.709934 0.72121 -0.60745
O_ O_ 0.407136 0.704032 0.715922 -0.60745
O_ O_ 0.0965945 0.703058 0.71401 -0.60745
O_ O_ 0.343928 0.699167 0.715244 -0.60745
O_ O_ 0.0991721 0.69913 0.782561 -0.60745
O_ O_ 0.343465 0.713555 0.784018 -0.60745
Zn Zn 0.626952 0.256275 0.279583 0.9476
Zn Zn 0.877613 0.252575 0.285472 0.9476
Zn Zn 0.621994 0.25731 0.210022 0.9476
Zn Zn 0.878319 0.254612 0.216642 0.9476
H_ H_ 0.525296 0.413733 0.17602 0.10932
H_ H_ 0.787581 0.418547 0.177528 0.10932
H_ H_ 0.56041 0.365147 0.315865 0.10932
H_ H_ 0.815894 0.355234 0.313297 0.10932
H_ H_ 0.561828 0.357288 0.178406 0.10932
H_ H_ 0.813971 0.352977 0.179689 0.10932
H_ H_ 0.529495 0.428593 0.309308 0.10932
H_ H_ 0.78956 0.42529 0.312458 0.10932
H_ H_ 0.731016 0.414999 0.30652 0.10932
H_ H_ 0.95718 0.435323 0.312027 0.10932
H_ H_ 0.683354 0.361386 0.176051 0.10932
H_ H_ 0.943985 0.350192 0.181639 0.10932
H_ H_ 0.698637 0.355679 0.307646 0.10932
H_ H_ 0.930698 0.365267 0.316149 0.10932
H_ H_ 0.703422 0.433723 0.178408 0.10932
H_ H_ 0.965868 0.422474 0.182255 0.10932
H_ H_ 0.731522 0.102265 0.303796 0.10932
H_ H_ 0.988912 0.103595 0.311245 0.10932
H_ H_ 0.667472 0.14144 0.179695 0.10932
H_ H_ 0.920505 0.13037 0.189046 0.10932
H_ H_ 0.698522 0.163821 0.307181 0.10932
H_ H_ 0.957812 0.167194 0.308185 0.10932
H_ H_ 0.698736 0.0727502 0.179578 0.10932
H_ H_ 0.951334 0.0684329 0.191496 0.10932
H_ H_ 0.545377 0.0734192 0.192795 0.10932
H_ H_ 0.777397 0.0994574 0.174632 0.10932
H_ H_ 0.552432 0.171554 0.312324 0.10932
H_ H_ 0.837656 0.127495 0.300936 0.10932
H_ H_ 0.581951 0.133543 0.187862 0.10932
H_ H_ 0.804498 0.166242 0.183222 0.10932
H_ H_ 0.527098 0.103415 0.318595 0.10932
H_ H_ 0.803889 0.0698913 0.301854 0.10932
H_ H_ 0.627745 0.193039 0.355141 0.10932
H_ H_ 0.886504 0.195813 0.367234 0.10932
H_ H_ 0.632555 0.323023 0.353714 0.10932
H_ H_ 0.87425 0.326488 0.348368 0.10932
H_ H_ 0.629961 0.325816 0.433078 0.10932
H_ H_ 0.878753 0.337141 0.428086 0.10932
H_ H_ 0.621758 0.194428 0.435345 0.10932
H_ H_ 0.88458 0.20353 0.443385 0.10932
H_ H_ 0.628785 0.193278 0.142604 0.10932
H_ H_ 0.826993 0.25262 0.147195 0.10932
H_ H_ 0.621954 0.324401 0.132812 0.10932
H_ H_ 0.923777 0.251985 0.135037 0.10932
H_ H_ 0.628389 0.321704 0.0559209 0.10932
H_ H_ 0.919747 0.251294 0.0578344 0.10932
H_ H_ 0.641435 0.190639 0.0646822 0.10932
H_ H_ 0.821626 0.249617 0.0675151 0.10932
C_ C_ 0.566443 0.356618 0.246891 -0.02249
C_ C_ 0.818206 0.348918 0.246534 -0.02249
C_ C_ 0.511483 0.466965 0.239043 -0.02249
C_ C_ 0.769548 0.466751 0.241785 -0.02249
C_ C_ 0.53646 0.406243 0.203953 -0.11473
C_ C_ 0.792964 0.404951 0.207037 -0.11473
C_ C_ 0.552334 0.373938 0.28343 -0.11473
C_ C_ 0.812266 0.371216 0.283117 -0.11473
C_ C_ 0.557287 0.373849 0.205821 -0.11473
C_ C_ 0.80883 0.367033 0.20741 -0.11473
C_ C_ 0.52979 0.42785 0.241217 -0.02249
C_ C_ 0.786102 0.425614 0.244536 -0.02249
C_ C_ 0.585083 0.318936 0.245825 0.6875
C_ C_ 0.840184 0.31398 0.246534 0.6875
C_ C_ 0.534877 0.409972 0.281054 -0.11473
C_ C_ 0.794458 0.407457 0.282641 -0.11473
C_ C_ 0.68557 0.352595 0.241882 -0.02249
C_ C_ 0.935447 0.352638 0.249052 -0.02249
C_ C_ 0.737027 0.467193 0.23966 -0.02249
C_ C_ 0.986262 0.46685 0.24682 -0.02249
C_ C_ 0.716374 0.408124 0.279157 -0.11473
C_ C_ 0.955701 0.413831 0.285231 -0.11473
C_ C_ 0.690859 0.374037 0.205504 -0.11473
C_ C_ 0.946957 0.367467 0.210798 -0.11473
C_ C_ 0.699957 0.370498 0.278124 -0.11473
C_ C_ 0.939082 0.376607 0.285768 -0.11473
C_ C_ 0.718927 0.428973 0.241253 -0.02249
C_ C_ 0.968288 0.427792 0.247917 -0.02249
C_ C_ 0.668001 0.313717 0.244221 0.6875
C_ C_ 0.91744 0.312812 0.249467 0.6875
C_ C_ 0.704295 0.413983 0.204559 -0.11473
C_ C_ 0.96168 0.405806 0.211919 -0.11473
C_ C_ 0.679494 0.155399 0.245407 -0.02249
C_ C_ 0.935672 0.152095 0.248796 -0.02249
C_ C_ 0.73289 0.0442743 0.242563 -0.02249
C_ C_ 0.987016 0.0406768 0.256732 -0.02249
C_ C_ 0.715062 0.107665 0.279563 -0.11473
C_ C_ 0.972783 0.109294 0.286139 -0.11473
C_ C_ 0.681725 0.13051 0.207442 -0.11473
C_ C_ 0.93498 0.124806 0.216014 -0.11473
C_ C_ 0.694385 0.140249 0.281677 -0.11473
C_ C_ 0.95418 0.143386 0.28501 -0.11473
C_ C_ 0.716865 0.0840345 0.24302 -0.02249
C_ C_ 0.970421 0.0805677 0.252528 -0.02249
C_ C_ 0.660791 0.194599 0.247698 0.6875
C_ C_ 0.917491 0.190287 0.251335 0.6875
C_ C_ 0.700472 0.0948146 0.206924 -0.11473
C_ C_ 0.954499 0.0908243 0.215597 -0.11473
C_ C_ 0.568632 0.155807 0.249269 -0.02249
C_ C_ 0.819637 0.155218 0.245065 -0.02249
C_ C_ 0.516264 0.041579 0.260961 -0.02249
C_ C_ 0.765711 0.0434431 0.236216 -0.02249
C_ C_ 0.549774 0.0917484 0.219551 -0.11473
C_ C_ 0.78682 0.107069 0.205748 -0.11473
C_ C_ 0.550841 0.149285 0.285341 -0.11473
C_ C_ 0.820566 0.125558 0.276667 -0.11473
C_ C_ 0.566856 0.128288 0.21528 -0.11473
C_ C_ 0.803886 0.143546 0.207932 -0.11473
C_ C_ 0.533175 0.0830425 0.256053 -0.02249
C_ C_ 0.784048 0.0815103 0.238909 -0.02249
C_ C_ 0.585544 0.196712 0.246563 0.6875
C_ C_ 0.838901 0.191572 0.247057 0.6875
C_ C_ 0.533822 0.112857 0.289095 -0.11473
C_ C_ 0.800546 0.0927741 0.276465 -0.11473
C_ C_ 0.62761 0.222279 0.37447 0.17695
C_ C_ 0.879689 0.226339 0.379842 0.17695
C_ C_ 0.630432 0.295465 0.372261 0.17695
C_ C_ 0.875562 0.299296 0.370417 0.17695
C_ C_ 0.628695 0.296725 0.41861 -0.11473
C_ C_ 0.878231 0.305397 0.413826 -0.11473
C_ C_ 0.626563 0.26002 0.441895 0.23465
C_ C_ 0.875864 0.270624 0.440716 0.23465
C_ C_ 0.625631 0.222054 0.418415 -0.11473
C_ C_ 0.880296 0.231357 0.423701 -0.11473
C_ C_ 0.629996 0.220961 0.121791 0.17695
C_ C_ 0.84736 0.255515 0.128292 0.17695
C_ C_ 0.623029 0.294028 0.117513 0.17695
C_ C_ 0.901028 0.255254 0.121184 0.17695
C_ C_ 0.626244 0.292603 0.0732768 -0.11473
C_ C_ 0.899072 0.252334 0.0771954 -0.11473
C_ C_ 0.630845 0.255457 0.0540848 0.23465
C_ C_ 0.870639 0.249187 0.0575276 0.23465
C_ C_ 0.633967 0.218909 0.0782479 -0.11473
C_ C_ 0.844021 0.250776 0.0833031 -0.11473
C_ C_ 0.527315 0.505131 0.2359 0.05793
C_ C_ 0.786686 0.503087 0.248678 0.05793
C_ C_ 0.717017 1.00558299 0.246286 0.05793
C_ C_ 0.971188 1.00291484 0.25967 0.05793
Br Br 0.568917 0.501442 0.214737 -0.17191
Br Br 0.828481 0.500431 0.262239 -0.17191
Br Br 0.674889 0.00672427 0.261189 -0.17191
Br Br 0.927853 0.00226439 0.260859 -0.17191
N_ N_ 0.630074 0.258088 0.352185 -0.272
N_ N_ 0.875217 0.259444 0.355567 -0.272
N_ N_ 0.628874 0.263136 0.486596 -0.12501
N_ N_ 0.876991 0.276291 0.486303 -0.12501
N_ N_ 0.623659 0.258951 0.140325 -0.272
N_ N_ 0.876129 0.253577 0.145698 -0.272
N_ N_ 0.635505 0.25661 0.00827194 -0.12501
N_ N_ 0.867047 0.247022 0.0138513 -0.12501
O_ O_ 0.593958 0.303959 0.211627 -0.60745
O_ O_ 0.846914 0.296293 0.212528 -0.60745
O_ O_ 0.598052 0.306883 0.280127 -0.60745
O_ O_ 0.846517 0.297267 0.28069 -0.60745
O_ O_ 0.661742 0.296124 0.279086 -0.60745
O_ O_ 0.907613 0.298755 0.283376 -0.60745
O_ O_ 0.654809 0.299874 0.211701 -0.60745
O_ O_ 0.909776 0.294809 0.214406 -0.60745
O_ O_ 0.654627 0.209483 0.283478 -0.60745
O_ O_ 0.907405 0.201721 0.287163 -0.60745
O_ O_ 0.653206 0.212543 0.213035 -0.60745
O_ O_ 0.910788 0.210974 0.218043 -0.60745
O_ O_ 0.592746 0.211834 0.21137 -0.60745
O_ O_ 0.846343 0.210397 0.213094 -0.60745
O_ O_ 0.594356 0.214665 0.280502 -0.60745
O_ O_ 0.848179 0.205227 0.282834 -0.60745
Zn Zn 0.62483 0.240224 0.780518 0.9476
Zn Zn 0.876029 0.246321 0.7861 0.9476
Zn Zn 0.623272 0.243951 0.713111 0.9476
Zn Zn 0.87621 0.241944 0.715759 0.9476
H_ H_ 0.51899 0.400588 0.687466 0.10932
H_ H_ 0.786097 0.410183 0.687943 0.10932
H_ H_ 0.569359 0.352981 0.819279 0.10932
H_ H_ 0.803586 0.334189 0.820312 0.10932
H_ H_ 0.542927 0.330122 0.69238 0.10932
H_ H_ 0.818029 0.350041 0.68686 0.10932
H_ H_ 0.541659 0.414082 0.819984 0.10932
H_ H_ 0.77446 0.397772 0.823245 0.10932
H_ H_ 0.703372 0.422944 0.8176 0.10932
H_ H_ 0.966084 0.414046 0.818975 0.10932
H_ H_ 0.688154 0.344142 0.689536 0.10932
H_ H_ 0.942852 0.346757 0.683547 0.10932
H_ H_ 0.675927 0.355677 0.820548 0.10932
H_ H_ 0.931471 0.35049 0.815344 0.10932
H_ H_ 0.722011 0.407407 0.690973 0.10932
H_ H_ 0.955388 0.419938 0.683738 0.10932
H_ H_ 0.726921 0.0871735 0.81879 0.10932
H_ H_ 0.970616 0.0849307 0.817184 0.10932
H_ H_ 0.676573 0.132723 0.684208 0.10932
H_ H_ 0.941872 0.147124 0.6798 0.10932
H_ H_ 0.698526 0.155184 0.814013 0.10932
H_ H_ 0.939613 0.149578 0.814447 0.10932
H_ H_ 0.707161 0.0703521 0.687532 0.10932
H_ H_ 0.964128 0.0824869 0.677128 0.10932
H_ H_ 0.540463 0.0716812 0.672415 0.10932
H_ H_ 0.796525 0.0594742 0.692764 0.10932
H_ H_ 0.562132 0.141702 0.807007 0.10932
H_ H_ 0.81154 0.149269 0.817407 0.10932
H_ H_ 0.57322 0.132057 0.674531 0.10932
H_ H_ 0.819592 0.128053 0.685408 0.10932
H_ H_ 0.529272 0.0857195 0.803826 0.10932
H_ H_ 0.780915 0.087113 0.821906 0.10932
H_ H_ 0.625603 0.30258 0.856131 0.10932
H_ H_ 0.923665 0.258616 0.85209 0.10932
H_ H_ 0.624816 0.173016 0.851776 0.10932
H_ H_ 0.829771 0.237789 0.863558 0.10932
H_ H_ 0.621935 0.171904 0.933232 0.10932
H_ H_ 0.832738 0.233494 0.939448 0.10932
H_ H_ 0.61806 0.302198 0.933304 0.10932
H_ H_ 0.930005 0.258127 0.931254 0.10932
H_ H_ 0.623676 0.176811 0.640573 0.10932
H_ H_ 0.905643 0.292235 0.642302 0.10932
H_ H_ 0.62429 0.31138 0.639166 0.10932
H_ H_ 0.845217 0.192485 0.638395 0.10932
H_ H_ 0.624703 0.309956 0.559317 0.10932
H_ H_ 0.838077 0.198868 0.562122 0.10932
H_ H_ 0.606872 0.180049 0.568065 0.10932
H_ H_ 0.904378 0.290545 0.562036 0.10932
C_ C_ 0.562025 0.338882 0.753534 -0.02249
C_ C_ 0.813096 0.336893 0.754107 -0.02249
C_ C_ 0.51381 0.456863 0.750071 -0.02249
C_ C_ 0.765842 0.453953 0.758837 -0.02249
C_ C_ 0.530469 0.390661 0.715731 -0.11473
C_ C_ 0.792131 0.397534 0.719383 -0.11473
C_ C_ 0.560296 0.363348 0.789831 -0.11473
C_ C_ 0.802308 0.352455 0.792549 -0.11473
C_ C_ 0.543635 0.35036 0.719133 -0.11473
C_ C_ 0.809047 0.360133 0.717625 -0.11473
C_ C_ 0.530792 0.415529 0.751121 -0.02249
C_ C_ 0.783079 0.414088 0.757448 -0.02249
C_ C_ 0.582531 0.300629 0.750927 0.6875
C_ C_ 0.834178 0.299883 0.755169 0.6875
C_ C_ 0.544157 0.400857 0.790327 -0.11473
C_ C_ 0.786497 0.390269 0.793106 -0.11473
C_ C_ 0.68126 0.345307 0.753467 -0.02249
C_ C_ 0.934753 0.342531 0.750609 -0.02249
C_ C_ 0.733592 0.455974 0.751891 -0.02249
C_ C_ 0.982495 0.460876 0.75022 -0.02249
C_ C_ 0.701934 0.403594 0.78957 -0.11473
C_ C_ 0.96046 0.399945 0.789455 -0.11473
C_ C_ 0.693241 0.36101 0.717227 -0.11473
C_ C_ 0.940905 0.363276 0.712471 -0.11473
C_ C_ 0.684784 0.367438 0.791133 -0.11473
C_ C_ 0.94367 0.361827 0.788453 -0.11473
C_ C_ 0.716439 0.417034 0.755195 -0.02249
C_ C_ 0.963991 0.421164 0.751633 -0.02249
C_ C_ 0.661417 0.306632 0.750771 0.6875
C_ C_ 0.914822 0.30369 0.751884 0.6875
C_ C_ 0.711811 0.396786 0.717701 -0.11473
C_ C_ 0.954006 0.40451 0.714569 -0.11473
C_ C_ 0.682516 0.14684 0.750547 -0.02249
C_ C_ 0.9409 0.152929 0.748294 -0.02249
C_ C_ 0.733124 0.0323253 0.754069 -0.02249
C_ C_ 0.985179 0.0365845 0.751234 -0.02249
C_ C_ 0.716674 0.0989355 0.788293 -0.11473
C_ C_ 0.962213 0.0972138 0.787023 -0.11473
C_ C_ 0.683734 0.120518 0.715456 -0.11473
C_ C_ 0.946466 0.133451 0.709839 -0.11473
C_ C_ 0.700265 0.135057 0.787274 -0.11473
C_ C_ 0.94797 0.135126 0.785924 -0.11473
C_ C_ 0.716209 0.0732518 0.752863 -0.02249
C_ C_ 0.968128 0.0765622 0.749069 -0.02249
C_ C_ 0.663532 0.183619 0.749517 0.6875
C_ C_ 0.916491 0.184251 0.747005 0.6875
C_ C_ 0.704246 0.0869447 0.715256 -0.11473
C_ C_ 0.960074 0.0955219 0.709168 -0.11473
C_ C_ 0.567235 0.145795 0.739622 -0.02249
C_ C_ 0.81967 0.141955 0.751162 -0.02249
C_ C_ 0.514209 0.0356651 0.740055 -0.02249
C_ C_ 0.765231 0.0333712 0.757695 -0.02249
C_ C_ 0.542071 0.0881316 0.700656 -0.11473
C_ C_ 0.797009 0.0812318 0.718446 -0.11473
C_ C_ 0.553975 0.130994 0.776543 -0.11473
C_ C_ 0.806544 0.132697 0.789737 -0.11473
C_ C_ 0.56141 0.122289 0.702033 -0.11473
C_ C_ 0.810844 0.118653 0.714516 -0.11473
C_ C_ 0.529908 0.0758793 0.738158 -0.02249
C_ C_ 0.781452 0.0730247 0.755091 -0.02249
C_ C_ 0.5876 0.181724 0.742244 0.6875
C_ C_ 0.840108 0.180536 0.749317 0.6875
C_ C_ 0.534454 0.0981809 0.774126 -0.11473
C_ C_ 0.787605 0.0975648 0.791837 -0.11473
C_ C_ 0.622747 0.274036 0.872549 0.17695
C_ C_ 0.905161 0.247071 0.87274 0.17695
C_ C_ 0.625102 0.20144 0.870983 0.17695
C_ C_ 0.852322 0.238505 0.878681 0.17695
C_ C_ 0.622463 0.200338 0.914912 -0.11473
C_ C_ 0.854022 0.234238 0.922671 -0.11473
C_ C_ 0.621824 0.237125 0.937396 0.23465
C_ C_ 0.883136 0.244867 0.942473 0.23465
C_ C_ 0.618146 0.274151 0.916225 -0.11473
C_ C_ 0.908673 0.249573 0.916664 -0.11473
C_ C_ 0.621118 0.207658 0.623197 0.17695
C_ C_ 0.888152 0.274545 0.623196 0.17695
C_ C_ 0.624806 0.280765 0.623069 0.17695
C_ C_ 0.854982 0.218371 0.622823 0.17695
C_ C_ 0.625268 0.279846 0.577483 -0.11473
C_ C_ 0.850424 0.222341 0.579568 -0.11473
C_ C_ 0.618222 0.242811 0.555144 0.23465
C_ C_ 0.867654 0.250326 0.556644 0.23465
C_ C_ 0.614701 0.20952 0.579821 -0.11473
C_ C_ 0.88682 0.276103 0.57966 -0.11473
C_ C_ 0.529728 0.494223 0.744305 0.05793
C_ C_ 0.781547 0.491029 0.759665 0.05793
C_ C_ 0.718245 -0.004149999999999987 0.760699 0.05793
C_ C_ 0.968218 -0.0012240000000000029 0.749627 0.05793
Br Br 0.572477 0.489613 0.749277 -0.17191
Br Br 0.823957 0.488303 0.773801 -0.17191
Br Br 0.678483 -0.004143000000000008 0.781577 -0.17191
Br Br 0.924674 0.000982572 0.757045 -0.17191
N_ N_ 0.622606 0.23867 0.850413 -0.272
N_ N_ 0.877323 0.243051 0.854854 -0.272
N_ N_ 0.62279 0.232507 0.982849 -0.12501
N_ N_ 0.888052 0.25044 0.988102 -0.12501
N_ N_ 0.623659 0.24316 0.644007 -0.272
N_ N_ 0.874391 0.244415 0.643854 -0.272
N_ N_ 0.613742 0.240622 0.510548 -0.12501
N_ N_ 0.867008 0.248143 0.509203 -0.12501
O_ O_ 0.588237 0.285777 0.715113 -0.60745
O_ O_ 0.842899 0.283949 0.720068 -0.60745
O_ O_ 0.593473 0.28447 0.783753 -0.60745
O_ O_ 0.842543 0.283118 0.790505 -0.60745
O_ O_ 0.653646 0.28697 0.783875 -0.60745
O_ O_ 0.903506 0.292494 0.786962 -0.60745
O_ O_ 0.654591 0.291693 0.713749 -0.60745
O_ O_ 0.90812 0.283191 0.718088 -0.60745
O_ O_ 0.657032 0.200137 0.784932 -0.60745
O_ O_ 0.91011 0.204089 0.77958 -0.60745
O_ O_ 0.653986 0.199143 0.714616 -0.60745
O_ O_ 0.907299 0.199002 0.712148 -0.60745
O_ O_ 0.593303 0.200847 0.708876 -0.60745
O_ O_ 0.845585 0.196027 0.714466 -0.60745
O_ O_ 0.596125 0.19508 0.775802 -0.60745
O_ O_ 0.849601 0.197096 0.783265 -0.60745
Zn Zn 0.630646 0.753488 0.280442 0.9476
Zn Zn 0.874475 0.755496 0.283659 0.9476
Zn Zn 0.625393 0.748989 0.209397 0.9476
Zn Zn 0.87434 0.75503 0.214726 0.9476
H_ H_ 0.545331 0.928944 0.191605 0.10932
H_ H_ 0.782718 0.916043 0.172931 0.10932
H_ H_ 0.570322 0.852896 0.319798 0.10932
H_ H_ 0.819631 0.872418 0.315119 0.10932
H_ H_ 0.564454 0.857046 0.190464 0.10932
H_ H_ 0.817419 0.853884 0.181122 0.10932
H_ H_ 0.542153 0.917205 0.323759 0.10932
H_ H_ 0.789948 0.934032 0.304585 0.10932
H_ H_ 0.735423 0.903005 0.304177 0.10932
H_ H_ 0.97838 0.907261 0.322651 0.10932
H_ H_ 0.661549 0.87518 0.188658 0.10932
H_ H_ 0.924929 0.870375 0.190996 0.10932
H_ H_ 0.702632 0.840328 0.308077 0.10932
H_ H_ 0.946631 0.846649 0.322346 0.10932
H_ H_ 0.691398 0.93778 0.185559 0.10932
H_ H_ 0.957033 0.931408 0.193028 0.10932
H_ H_ 0.735422 0.600142 0.301478 0.10932
H_ H_ 0.946733 0.56342 0.304745 0.10932
H_ H_ 0.688215 0.650145 0.172734 0.10932
H_ H_ 0.950684 0.667211 0.190284 0.10932
H_ H_ 0.705845 0.662843 0.305634 0.10932
H_ H_ 0.916484 0.627372 0.308692 0.10932
H_ H_ 0.708743 0.581122 0.174907 0.10932
H_ H_ 0.979084 0.601234 0.188554 0.10932
H_ H_ 0.536209 0.582178 0.173027 0.10932
H_ H_ 0.791839 0.582556 0.179309 0.10932
H_ H_ 0.564849 0.655244 0.308785 0.10932
H_ H_ 0.824437 0.648126 0.311716 0.10932
H_ H_ 0.563107 0.652326 0.172131 0.10932
H_ H_ 0.811584 0.651638 0.178304 0.10932
H_ H_ 0.531322 0.59138 0.307709 0.10932
H_ H_ 0.793868 0.58497 0.314793 0.10932
H_ H_ 0.638109 0.681839 0.349217 0.10932
H_ H_ 0.827683 0.767939 0.360306 0.10932
H_ H_ 0.620953 0.807486 0.357546 0.10932
H_ H_ 0.921505 0.743623 0.360835 0.10932
H_ H_ 0.623258 0.803395 0.437186 0.10932
H_ H_ 0.924395 0.741307 0.438037 0.10932
H_ H_ 0.641849 0.675194 0.425968 0.10932
H_ H_ 0.828325 0.767299 0.433669 0.10932
H_ H_ 0.580096 0.75252 0.13432 0.10932
H_ H_ 0.874601 0.685092 0.13525 0.10932
H_ H_ 0.675208 0.765192 0.138012 0.10932
H_ H_ 0.873656 0.816524 0.144942 0.10932
H_ H_ 0.677741 0.762065 0.0653454 0.10932
H_ H_ 0.885808 0.822176 0.0663692 0.10932
H_ H_ 0.581212 0.748779 0.0587684 0.10932
H_ H_ 0.869452 0.692398 0.0562988 0.10932
C_ C_ 0.570247 0.848523 0.253401 -0.02249
C_ C_ 0.820208 0.856634 0.249049 -0.02249
C_ C_ 0.519309 0.965319 0.260984 -0.02249
C_ C_ 0.763771 0.966487 0.235208 -0.02249
C_ C_ 0.547288 0.909674 0.219789 -0.11473
C_ C_ 0.790717 0.905183 0.204394 -0.11473
C_ C_ 0.563826 0.867527 0.291466 -0.11473
C_ C_ 0.811299 0.879568 0.284256 -0.11473
C_ C_ 0.561111 0.870116 0.217884 -0.11473
C_ C_ 0.809978 0.871336 0.208351 -0.11473
C_ C_ 0.537528 0.925362 0.258397 -0.02249
C_ C_ 0.781396 0.926412 0.239232 -0.02249
C_ C_ 0.58656 0.806004 0.250267 0.6875
C_ C_ 0.838985 0.8197 0.249899 0.6875
C_ C_ 0.545641 0.902827 0.293273 -0.11473
C_ C_ 0.793026 0.914477 0.280024 -0.11473
C_ C_ 0.680111 0.85139 0.24798 -0.02249
C_ C_ 0.934012 0.851601 0.255017 -0.02249
C_ C_ 0.732448 0.966251 0.241852 -0.02249
C_ C_ 0.986042 0.964012 0.261852 -0.02249
C_ C_ 0.720335 0.894584 0.277301 -0.11473
C_ C_ 0.967295 0.89861 0.293421 -0.11473
C_ C_ 0.675755 0.881203 0.215106 -0.11473
C_ C_ 0.938113 0.875724 0.217846 -0.11473
C_ C_ 0.700978 0.860531 0.281203 -0.11473
C_ C_ 0.949 0.864078 0.293053 -0.11473
C_ C_ 0.714482 0.925787 0.246123 -0.02249
C_ C_ 0.969748 0.923696 0.258145 -0.02249
C_ C_ 0.660891 0.814487 0.250708 0.6875
C_ C_ 0.915019 0.814854 0.252827 0.6875
C_ C_ 0.694854 0.914882 0.21361 -0.11473
C_ C_ 0.955067 0.912261 0.219901 -0.11473
C_ C_ 0.693323 0.661708 0.238443 -0.02249
C_ C_ 0.930169 0.654422 0.249422 -0.02249
C_ C_ 0.739387 0.543707 0.240672 -0.02249
C_ C_ 0.986085 0.541842 0.244106 -0.02249
C_ C_ 0.724228 0.612057 0.274779 -0.11473
C_ C_ 0.949248 0.587582 0.281796 -0.11473
C_ C_ 0.695832 0.638517 0.202003 -0.11473
C_ C_ 0.948717 0.645928 0.215481 -0.11473
C_ C_ 0.706329 0.64607 0.27663 -0.11473
C_ C_ 0.93081 0.623292 0.282524 -0.11473
C_ C_ 0.723492 0.586316 0.239672 -0.02249
C_ C_ 0.968777 0.581886 0.247659 -0.02249
C_ C_ 0.671347 0.698023 0.237509 0.6875
C_ C_ 0.911045 0.691957 0.249919 0.6875
C_ C_ 0.711133 0.600975 0.200854 -0.11473
C_ C_ 0.967749 0.610711 0.215086 -0.11473
C_ C_ 0.567146 0.655343 0.238842 -0.02249
C_ C_ 0.818647 0.658329 0.244809 -0.02249
C_ C_ 0.513993 0.543906 0.244719 -0.02249
C_ C_ 0.770562 0.541686 0.246864 -0.02249
C_ C_ 0.54109 0.598551 0.202254 -0.11473
C_ C_ 0.798629 0.597643 0.207981 -0.11473
C_ C_ 0.557352 0.640261 0.277691 -0.11473
C_ C_ 0.81385 0.636666 0.283734 -0.11473
C_ C_ 0.556587 0.636396 0.202118 -0.11473
C_ C_ 0.812712 0.636485 0.207577 -0.11473
C_ C_ 0.531892 0.583177 0.241607 -0.02249
C_ C_ 0.788906 0.579827 0.247513 -0.02249
C_ C_ 0.587245 0.692757 0.237853 0.6875
C_ C_ 0.832686 0.700145 0.245586 0.6875
C_ C_ 0.540358 0.603125 0.279474 -0.11473
C_ C_ 0.79873 0.599333 0.284492 -0.11473
C_ C_ 0.631416 0.708159 0.368011 0.17695
C_ C_ 0.84944 0.764522 0.375132 0.17695
C_ C_ 0.626795 0.780461 0.374294 0.17695
C_ C_ 0.900977 0.747314 0.376344 0.17695
C_ C_ 0.626887 0.777369 0.419145 -0.11473
C_ C_ 0.902213 0.745719 0.420836 -0.11473
C_ C_ 0.631209 0.739943 0.436623 0.23465
C_ C_ 0.875493 0.751429 0.443075 0.23465
C_ C_ 0.634901 0.704588 0.412009 -0.11473
C_ C_ 0.849376 0.762274 0.419412 -0.11473
C_ C_ 0.602043 0.751609 0.118482 0.17695
C_ C_ 0.879183 0.714937 0.119627 0.17695
C_ C_ 0.655357 0.757991 0.122255 0.17695
C_ C_ 0.87745 0.78872 0.124189 0.17695
C_ C_ 0.65697 0.757106 0.0793438 -0.11473
C_ C_ 0.879443 0.792321 0.079831 -0.11473
C_ C_ 0.630094 0.750226 0.0550627 0.23465
C_ C_ 0.87992 0.756302 0.0553596 0.23465
C_ C_ 0.602322 0.751119 0.074765 -0.11473
C_ C_ 0.87709 0.717566 0.0765632 -0.11473
C_ C_ 0.53385 1.00472853 0.26214 0.05793
C_ C_ 0.780829 1.0036903 0.23496 0.05793
C_ C_ 0.72189 0.506281 0.236534 0.05793
C_ C_ 0.971112 0.503889 0.238053 0.05793
Br Br 0.578119 1.00742135 0.257531 -0.17191
Br Br 0.823969 1.0028435 0.224053 -0.17191
Br Br 0.679444 0.507109 0.235711 -0.17191
Br Br 0.933782 0.50224 0.211388 -0.17191
N_ N_ 0.631433 0.745586 0.351612 -0.272
N_ N_ 0.874474 0.757001 0.354534 -0.272
N_ N_ 0.636703 0.737017 0.482133 -0.12501
N_ N_ 0.875526 0.744135 0.486679 -0.12501
N_ N_ 0.628314 0.754539 0.14146 -0.272
N_ N_ 0.875451 0.75109 0.142584 -0.272
N_ N_ 0.630979 0.739324 0.0115834 -0.12501
N_ N_ 0.88135 0.7591 0.0107877 -0.12501
O_ O_ 0.589951 0.78852 0.21471 -0.60745
O_ O_ 0.844167 0.797836 0.216855 -0.60745
O_ O_ 0.598627 0.794475 0.283254 -0.60745
O_ O_ 0.847864 0.805448 0.285373 -0.60745
O_ O_ 0.656254 0.799154 0.286636 -0.60745
O_ O_ 0.907476 0.796388 0.285872 -0.60745
O_ O_ 0.656716 0.794207 0.217807 -0.60745
O_ O_ 0.906199 0.80024 0.218242 -0.60745
O_ O_ 0.663147 0.710652 0.272189 -0.60745
O_ O_ 0.903288 0.707846 0.285038 -0.60745
O_ O_ 0.65724 0.708362 0.205044 -0.60745
O_ O_ 0.905121 0.712146 0.215496 -0.60745
O_ O_ 0.597795 0.703564 0.203026 -0.60745
O_ O_ 0.843827 0.712036 0.212429 -0.60745
O_ O_ 0.59826 0.708881 0.27052 -0.60745
O_ O_ 0.84289 0.713665 0.2799 -0.60745
Zn Zn 0.627104 0.746494 0.77786 0.9476
Zn Zn 0.872911 0.746668 0.784589 0.9476
Zn Zn 0.627493 0.743343 0.708207 0.9476
Zn Zn 0.871931 0.742728 0.712864 0.9476
H_ H_ 0.53872 0.916801 0.672197 0.10932
H_ H_ 0.775428 0.906774 0.690925 0.10932
H_ H_ 0.550084 0.834199 0.799691 0.10932
H_ H_ 0.825428 0.857554 0.821722 0.10932
H_ H_ 0.572549 0.856722 0.675625 0.10932
H_ H_ 0.797606 0.837948 0.688958 0.10932
H_ H_ 0.530078 0.904393 0.807451 0.10932
H_ H_ 0.803538 0.924417 0.817842 0.10932
H_ H_ 0.711508 0.914322 0.827116 0.10932
H_ H_ 0.976215 0.90174 0.810958 0.10932
H_ H_ 0.695549 0.845719 0.686304 0.10932
H_ H_ 0.913306 0.871191 0.685338 0.10932
H_ H_ 0.687664 0.846233 0.824282 0.10932
H_ H_ 0.945318 0.838508 0.812458 0.10932
H_ H_ 0.708802 0.920256 0.692964 0.10932
H_ H_ 0.947526 0.929126 0.686785 0.10932
H_ H_ 0.713753 0.579451 0.819352 0.10932
H_ H_ 0.964366 0.574416 0.814359 0.10932
H_ H_ 0.693546 0.640373 0.678339 0.10932
H_ H_ 0.93945 0.651318 0.679509 0.10932
H_ H_ 0.684076 0.64289 0.814938 0.10932
H_ H_ 0.931237 0.637728 0.816867 0.10932
H_ H_ 0.724738 0.5827 0.685437 0.10932
H_ H_ 0.967224 0.5852 0.676492 0.10932
H_ H_ 0.538625 0.570436 0.67342 0.10932
H_ H_ 0.782082 0.572258 0.685342 0.10932
H_ H_ 0.568895 0.639041 0.806588 0.10932
H_ H_ 0.809759 0.643745 0.816659 0.10932
H_ H_ 0.577215 0.633138 0.674227 0.10932
H_ H_ 0.816768 0.63455 0.684183 0.10932
H_ H_ 0.531608 0.58285 0.808316 0.10932
H_ H_ 0.785872 0.57722 0.817963 0.10932
H_ H_ 0.578937 0.777209 0.84794 0.10932
H_ H_ 0.895702 0.685252 0.85466 0.10932
H_ H_ 0.659271 0.7082 0.862626 0.10932
H_ H_ 0.861071 0.801835 0.861058 0.10932
H_ H_ 0.654738 0.706576 0.940112 0.10932
H_ H_ 0.863026 0.801971 0.937037 0.10932
H_ H_ 0.579281 0.788933 0.922402 0.10932
H_ H_ 0.893947 0.677499 0.926702 0.10932
H_ H_ 0.635158 0.688297 0.63136 0.10932
H_ H_ 0.860755 0.81664 0.64785 0.10932
H_ H_ 0.63021 0.817467 0.641438 0.10932
H_ H_ 0.864182 0.686836 0.632797 0.10932
H_ H_ 0.63413 0.822628 0.562561 0.10932
H_ H_ 0.86106 0.695963 0.552479 0.10932
H_ H_ 0.632044 0.692645 0.553211 0.10932
H_ H_ 0.856465 0.823665 0.56876 0.10932
C_ C_ 0.570574 0.847336 0.741075 -0.02249
C_ C_ 0.812871 0.839493 0.756224 -0.02249
C_ C_ 0.516746 0.960238 0.741777 -0.02249
C_ C_ 0.766275 0.957862 0.759755 -0.02249
C_ C_ 0.545944 0.904071 0.703467 -0.11473
C_ C_ 0.786638 0.894597 0.719691 -0.11473
C_ C_ 0.553616 0.858586 0.776067 -0.11473
C_ C_ 0.81098 0.863384 0.793703 -0.11473
C_ C_ 0.564235 0.869017 0.70389 -0.11473
C_ C_ 0.800441 0.856046 0.717989 -0.11473
C_ C_ 0.534479 0.919526 0.74191 -0.02249
C_ C_ 0.783393 0.918184 0.758007 -0.02249
C_ C_ 0.588617 0.80758 0.743738 0.6875
C_ C_ 0.833017 0.802387 0.756212 0.6875
C_ C_ 0.538867 0.895258 0.778131 -0.11473
C_ C_ 0.79522 0.90067 0.795277 -0.11473
C_ C_ 0.686493 0.840855 0.754005 -0.02249
C_ C_ 0.931691 0.844534 0.746123 -0.02249
C_ C_ 0.734163 0.958206 0.760918 -0.02249
C_ C_ 0.982713 0.959428 0.750816 -0.02249
C_ C_ 0.708061 0.898546 0.797113 -0.11473
C_ C_ 0.96198 0.895306 0.784484 -0.11473
C_ C_ 0.695848 0.861093 0.717629 -0.11473
C_ C_ 0.930123 0.872986 0.710699 -0.11473
C_ C_ 0.693927 0.85862 0.793422 -0.11473
C_ C_ 0.945292 0.856881 0.783727 -0.11473
C_ C_ 0.717082 0.918447 0.761208 -0.02249
C_ C_ 0.963787 0.920081 0.749561 -0.02249
C_ C_ 0.667886 0.801722 0.750576 0.6875
C_ C_ 0.910335 0.80929 0.748565 0.6875
C_ C_ 0.707446 0.902085 0.72134 -0.11473
C_ C_ 0.946501 0.908364 0.713297 -0.11473
C_ C_ 0.682296 0.645227 0.746715 -0.02249
C_ C_ 0.933306 0.648979 0.748285 -0.02249
C_ C_ 0.735747 0.532379 0.750114 -0.02249
C_ C_ 0.984367 0.536937 0.742949 -0.02249
C_ C_ 0.708455 0.591677 0.787997 -0.11473
C_ C_ 0.959793 0.592228 0.784609 -0.11473
C_ C_ 0.69633 0.628706 0.710144 -0.11473
C_ C_ 0.944243 0.634036 0.709032 -0.11473
C_ C_ 0.69199 0.627886 0.785598 -0.11473
C_ C_ 0.940804 0.627606 0.78584 -0.11473
C_ C_ 0.720652 0.574815 0.750279 -0.02249
C_ C_ 0.969365 0.576599 0.746372 -0.02249
C_ C_ 0.664895 0.683923 0.746639 0.6875
C_ C_ 0.913333 0.686244 0.747684 0.6875
C_ C_ 0.715544 0.594641 0.713313 -0.11473
C_ C_ 0.963815 0.599215 0.707966 -0.11473
C_ C_ 0.570701 0.644464 0.737442 -0.02249
C_ C_ 0.819479 0.641709 0.75194 -0.02249
C_ C_ 0.514315 0.534412 0.744039 -0.02249
C_ C_ 0.766915 0.52892 0.75544 -0.02249
C_ C_ 0.545042 0.586181 0.703039 -0.11473
C_ C_ 0.789795 0.587544 0.714861 -0.11473
C_ C_ 0.560206 0.627652 0.776102 -0.11473
C_ C_ 0.809576 0.626249 0.788843 -0.11473
C_ C_ 0.564878 0.622649 0.700793 -0.11473
C_ C_ 0.807138 0.624501 0.713626 -0.11473
C_ C_ 0.532178 0.573408 0.74275 -0.02249
C_ C_ 0.78663 0.566556 0.752698 -0.02249
C_ C_ 0.589516 0.682883 0.738516 0.6875
C_ C_ 0.836142 0.681479 0.749024 0.6875
C_ C_ 0.539502 0.593929 0.778651 -0.11473
C_ C_ 0.796427 0.587083 0.790143 -0.11473
C_ C_ 0.594789 0.759683 0.868686 0.17695
C_ C_ 0.8877 0.709469 0.874417 0.17695
C_ C_ 0.638948 0.719372 0.87531 0.17695
C_ C_ 0.86586 0.775644 0.878254 0.17695
C_ C_ 0.637491 0.720783 0.920672 -0.11473
C_ C_ 0.86894 0.77405 0.921674 -0.11473
C_ C_ 0.616337 0.74806 0.938373 0.23465
C_ C_ 0.875389 0.734937 0.941261 0.23465
C_ C_ 0.593788 0.76368 0.912209 -0.11473
C_ C_ 0.884987 0.70383 0.915351 -0.11473
C_ C_ 0.634021 0.717736 0.616521 0.17695
C_ C_ 0.863849 0.789216 0.626848 0.17695
C_ C_ 0.627657 0.789637 0.621845 0.17695
C_ C_ 0.863958 0.717479 0.617753 0.17695
C_ C_ 0.628832 0.793347 0.578341 -0.11473
C_ C_ 0.863526 0.72192 0.574197 -0.11473
C_ C_ 0.628711 0.75854 0.551726 0.23465
C_ C_ 0.86167 0.761081 0.555805 0.23465
C_ C_ 0.633726 0.721031 0.571413 -0.11473
C_ C_ 0.86098 0.795334 0.582875 -0.11473
C_ C_ 0.531129 -0.0011759999999999549 0.743148 0.05793
C_ C_ 0.781732 -0.0039010000000000433 0.755879 0.05793
C_ C_ 0.719079 0.495915 0.750142 0.05793
C_ C_ 0.967932 0.499613 0.746999 0.05793
Br Br 0.576128 -0.00039199999999994795 0.7406 -0.17191
Br Br 0.824206 0.994374 0.762607 -0.17191
Br Br 0.676776 0.495733 0.742605 -0.17191
Br Br 0.924755 0.503467 0.745242 -0.17191
N_ N_ 0.618701 0.739589 0.851011 -0.272
N_ N_ 0.874915 0.742865 0.855358 -0.272
N_ N_ 0.616325 0.759088 0.983926 -0.12501
N_ N_ 0.87584 0.730023 0.985439 -0.12501
N_ N_ 0.630664 0.752511 0.639363 -0.272
N_ N_ 0.866075 0.750924 0.643064 -0.272
N_ N_ 0.624198 0.761375 0.507719 -0.12501
N_ N_ 0.860964 0.766349 0.511256 -0.12501
O_ O_ 0.594482 0.788268 0.710097 -0.60745
O_ O_ 0.840422 0.787611 0.721179 -0.60745
O_ O_ 0.598896 0.793824 0.777362 -0.60745
O_ O_ 0.839464 0.782984 0.789605 -0.60745
O_ O_ 0.658265 0.786027 0.783806 -0.60745
O_ O_ 0.902273 0.795149 0.783231 -0.60745
O_ O_ 0.657102 0.791369 0.714734 -0.60745
O_ O_ 0.903819 0.788465 0.714841 -0.60745
O_ O_ 0.653357 0.698153 0.779574 -0.60745
O_ O_ 0.90849 0.705991 0.781263 -0.60745
O_ O_ 0.6572 0.699761 0.711992 -0.60745
O_ O_ 0.903032 0.699736 0.713013 -0.60745
O_ O_ 0.598399 0.699008 0.705023 -0.60745
O_ O_ 0.84453 0.694887 0.714314 -0.60745
O_ O_ 0.592878 0.703621 0.772663 -0.60745
O_ O_ 0.845688 0.69636 0.783624 -0.60745
