#======================================================================

# CRYSTAL DATA

#----------------------------------------------------------------------

data_VESTA_phase_1


_chemical_name_common                  'CIF file'
_cell_length_a                         23.68994
_cell_length_b                         23.68994
_cell_length_c                         30.80587
_cell_angle_alpha                      90
_cell_angle_beta                       90
_cell_angle_gamma                      120
_space_group_name_H-M_alt              'P 1'
_space_group_IT_number                 1

loop_
_space_group_symop_operation_xyz
   'x, y, z'

loop_
   _atom_site_label
   _atom_site_occupancy
   _atom_site_fract_x
   _atom_site_fract_y
   _atom_site_fract_z
   _atom_site_adp_type
   _atom_site_B_iso_or_equiv
   _atom_site_type_symbol
   Zn1        1.0     0.000000      0.000000      0.246531     Biso  1.000000 Zn
   Zn2        1.0    -0.043495     -0.087015      0.159242     Biso  1.000000 Zn
   O1F        1.0    -0.066660     -0.091940      0.256030     Biso  1.000000 O
   O2F        1.0    -0.083017     -0.156970      0.202040     Biso  1.000000 O
   O3F        1.0    -0.183010     -0.382070      0.270080     Biso  1.000000 O
   O4F        1.0    -0.222370     -0.548140      0.457230     Biso  1.000000 O
   O5F        1.0    -0.313040     -0.541760      0.461940     Biso  1.000000 O
   O6F        1.0    -0.079730     -0.348430      0.369420     Biso  1.000000 O
   C1F        1.0    -0.084350     -0.146250      0.241440     Biso  1.000000 C
   C2F        1.0    -0.110760     -0.203650      0.271540     Biso  1.000000 C
   C3F        1.0    -0.134070     -0.265760      0.255140     Biso  1.000000 C
   H3F        1.0    -0.133300     -0.272000      0.224700     Biso  1.000000 H
   C4F        1.0    -0.158460     -0.318450      0.282840     Biso  1.000000 C
   C5F        1.0    -0.159560     -0.309050      0.327330     Biso  1.000000 C
   C6F        1.0    -0.135770     -0.247260      0.342940     Biso  1.000000 C
   H6F        1.0    -0.135400     -0.240400      0.373300     Biso  1.000000 H
   C7F        1.0    -0.112080     -0.194660      0.315140     Biso  1.000000 C
   H7F        1.0    -0.096600     -0.152000      0.326400     Biso  1.000000 H
   C8F        1.0    -0.196500     -0.394200      0.224010     Biso  1.000000 C
   H8F1       1.0    -0.207700     -0.439600      0.217600     Biso  1.000000 H
   H8F2       1.0    -0.156600     -0.364800      0.207500     Biso  1.000000 H
   H8F3       1.0    -0.231700     -0.387400      0.215600     Biso  1.000000 H
   C9F        1.0    -0.257960     -0.524550      0.447140     Biso  1.000000 C
   C10F       1.0    -0.233260     -0.468550      0.416340     Biso  1.000000 C
   C11F       1.0    -0.168160     -0.433450      0.407540     Biso  1.000000 C
   H11F       1.0    -0.139100     -0.444500      0.421300     Biso  1.000000 H
   C12F       1.0    -0.143860     -0.381740      0.378430     Biso  1.000000 C
   C13F       1.0    -0.185550     -0.365450      0.358130     Biso  1.000000 C
   C14F       1.0    -0.250760     -0.398950      0.368340     Biso  1.000000 C
   H14F       1.0    -0.279300     -0.386400      0.355500     Biso  1.000000 H
   C15F       1.0    -0.274960     -0.450460      0.397140     Biso  1.000000 C
   H15F       1.0    -0.320100     -0.473500      0.403900     Biso  1.000000 H
   C16F       1.0    -0.035550     -0.363770      0.393050     Biso  1.000000 C
   H16D       1.0     0.009000     -0.336300      0.382300     Biso  1.000000 H
   H16E       1.0    -0.048900     -0.409700      0.388600     Biso  1.000000 H
   H16F       1.0    -0.037100     -0.355500      0.424100     Biso  1.000000 H
   O7         1.0     0.000000      0.000000      0.181908     Biso  1.000000 O
   O8         1.0     0.000000      0.000000      0.317120     Biso  1.000000 O
   Zn2        1.0     0.087015      0.043520      0.159242     Biso  1.000000 Zn
   O1F        1.0     0.091940      0.025280      0.256030     Biso  1.000000 O
   O2F        1.0     0.156970      0.073953      0.202040     Biso  1.000000 O
   O3F        1.0     0.382070      0.199060      0.270080     Biso  1.000000 O
   O4F        1.0     0.548140      0.325770      0.457230     Biso  1.000000 O
   O5F        1.0     0.541760      0.228720      0.461940     Biso  1.000000 O
   O6F        1.0     0.348430      0.268700      0.369420     Biso  1.000000 O
   C1F        1.0     0.146250      0.061900      0.241440     Biso  1.000000 C
   C2F        1.0     0.203650      0.092890      0.271540     Biso  1.000000 C
   C3F        1.0     0.265760      0.131690      0.255140     Biso  1.000000 C
   H3F        1.0     0.272000      0.138700      0.224700     Biso  1.000000 H
   C4F        1.0     0.318450      0.159990      0.282840     Biso  1.000000 C
   C5F        1.0     0.309050      0.149490      0.327330     Biso  1.000000 C
   C6F        1.0     0.247260      0.111490      0.342940     Biso  1.000000 C
   H6F        1.0     0.240400      0.105000      0.373300     Biso  1.000000 H
   C7F        1.0     0.194660      0.082580      0.315140     Biso  1.000000 C
   H7F        1.0     0.152000      0.055400      0.326400     Biso  1.000000 H
   C8F        1.0     0.394200      0.197700      0.224010     Biso  1.000000 C
   H8F1       1.0     0.439600      0.231900      0.217600     Biso  1.000000 H
   H8F2       1.0     0.364800      0.208200      0.207500     Biso  1.000000 H
   H8F3       1.0     0.387400      0.155700      0.215600     Biso  1.000000 H
   C9F        1.0     0.524550      0.266590      0.447140     Biso  1.000000 C
   C10F       1.0     0.468550      0.235290      0.416340     Biso  1.000000 C
   C11F       1.0     0.433450      0.265290      0.407540     Biso  1.000000 C
   H11F       1.0     0.444500      0.305400      0.421300     Biso  1.000000 H
   C12F       1.0     0.381740      0.237880      0.378430     Biso  1.000000 C
   C13F       1.0     0.365450      0.179900      0.358130     Biso  1.000000 C
   C14F       1.0     0.398950      0.148190      0.368340     Biso  1.000000 C
   H14F       1.0     0.386400      0.107100      0.355500     Biso  1.000000 H
   C15F       1.0     0.450460      0.175500      0.397140     Biso  1.000000 C
   H15F       1.0     0.473500      0.153400      0.403900     Biso  1.000000 H
   C16F       1.0     0.363770      0.328220      0.393050     Biso  1.000000 C
   H16D       1.0     0.336300      0.345300      0.382300     Biso  1.000000 H
   H16E       1.0     0.409700      0.360800      0.388600     Biso  1.000000 H
   H16F       1.0     0.355500      0.318400      0.424100     Biso  1.000000 H
   Zn2        1.0    -0.043520      0.043495      0.159242     Biso  1.000000 Zn
   O1F        1.0    -0.025280      0.066660      0.256030     Biso  1.000000 O
   O2F        1.0    -0.073953      0.083017      0.202040     Biso  1.000000 O
   O3F        1.0    -0.199060      0.183010      0.270080     Biso  1.000000 O
   O4F        1.0    -0.325770      0.222370      0.457230     Biso  1.000000 O
   O5F        1.0    -0.228720      0.313040      0.461940     Biso  1.000000 O
   O6F        1.0    -0.268700      0.079730      0.369420     Biso  1.000000 O
   C1F        1.0    -0.061900      0.084350      0.241440     Biso  1.000000 C
   C2F        1.0    -0.092890      0.110760      0.271540     Biso  1.000000 C
   C3F        1.0    -0.131690      0.134070      0.255140     Biso  1.000000 C
   H3F        1.0    -0.138700      0.133300      0.224700     Biso  1.000000 H
   C4F        1.0    -0.159990      0.158460      0.282840     Biso  1.000000 C
   C5F        1.0    -0.149490      0.159560      0.327330     Biso  1.000000 C
   C6F        1.0    -0.111490      0.135770      0.342940     Biso  1.000000 C
   H6F        1.0    -0.105000      0.135400      0.373300     Biso  1.000000 H
   C7F        1.0    -0.082580      0.112080      0.315140     Biso  1.000000 C
   H7F        1.0    -0.055400      0.096600      0.326400     Biso  1.000000 H
   C8F        1.0    -0.197700      0.196500      0.224010     Biso  1.000000 C
   H8F1       1.0    -0.231900      0.207700      0.217600     Biso  1.000000 H
   H8F2       1.0    -0.208200      0.156600      0.207500     Biso  1.000000 H
   H8F3       1.0    -0.155700      0.231700      0.215600     Biso  1.000000 H
   C9F        1.0    -0.266590      0.257960      0.447140     Biso  1.000000 C
   C10F       1.0    -0.235290      0.233260      0.416340     Biso  1.000000 C
   C11F       1.0    -0.265290      0.168160      0.407540     Biso  1.000000 C
   H11F       1.0    -0.305400      0.139100      0.421300     Biso  1.000000 H
   C12F       1.0    -0.237880      0.143860      0.378430     Biso  1.000000 C
   C13F       1.0    -0.179900      0.185550      0.358130     Biso  1.000000 C
   C14F       1.0    -0.148190      0.250760      0.368340     Biso  1.000000 C
   H14F       1.0    -0.107100      0.279300      0.355500     Biso  1.000000 H
   C15F       1.0    -0.175500      0.274960      0.397140     Biso  1.000000 C
   H15F       1.0    -0.153400      0.320100      0.403900     Biso  1.000000 H
   C16F       1.0    -0.328220      0.035550      0.393050     Biso  1.000000 C
   H16D       1.0    -0.345300     -0.009000      0.382300     Biso  1.000000 H
   H16E       1.0    -0.360800      0.048900      0.388600     Biso  1.000000 H
   H16F       1.0    -0.318400      0.037100      0.424100     Biso  1.000000 H
   Zn1        1.0     0.666667      0.333333      0.579865     Biso  1.000000 Zn
   Zn2        1.0     0.623172      0.246318      0.492575     Biso  1.000000 Zn
   O1F        1.0     0.600007      0.241393      0.589363     Biso  1.000000 O
   O2F        1.0     0.583650      0.176363      0.535373     Biso  1.000000 O
   O3F        1.0     0.483657     -0.048737      0.603413     Biso  1.000000 O
   O4F        1.0     0.444297     -0.214807      0.790563     Biso  1.000000 O
   O5F        1.0     0.353627     -0.208427      0.795273     Biso  1.000000 O
   O6F        1.0     0.586937     -0.015097      0.702753     Biso  1.000000 O
   C1F        1.0     0.582317      0.187083      0.574773     Biso  1.000000 C
   C2F        1.0     0.555907      0.129683      0.604873     Biso  1.000000 C
   C3F        1.0     0.532597      0.067573      0.588473     Biso  1.000000 C
   H3F        1.0     0.533367      0.061333      0.558033     Biso  1.000000 H
   C4F        1.0     0.508207      0.014883      0.616173     Biso  1.000000 C
   C5F        1.0     0.507107      0.024283      0.660663     Biso  1.000000 C
   C6F        1.0     0.530897      0.086073      0.676273     Biso  1.000000 C
   H6F        1.0     0.531267      0.092933      0.706633     Biso  1.000000 H
   C7F        1.0     0.554587      0.138673      0.648473     Biso  1.000000 C
   H7F        1.0     0.570067      0.181333      0.659733     Biso  1.000000 H
   C8F        1.0     0.470167     -0.060867      0.557343     Biso  1.000000 C
   H8F1       1.0     0.458967     -0.106267      0.550933     Biso  1.000000 H
   H8F2       1.0     0.510067     -0.031467      0.540833     Biso  1.000000 H
   H8F3       1.0     0.434967     -0.054067      0.548933     Biso  1.000000 H
   C9F        1.0     0.408707     -0.191217      0.780473     Biso  1.000000 C
   C10F       1.0     0.433407     -0.135217      0.749673     Biso  1.000000 C
   C11F       1.0     0.498507     -0.100117      0.740873     Biso  1.000000 C
   H11F       1.0     0.527567     -0.111167      0.754633     Biso  1.000000 H
   C12F       1.0     0.522807     -0.048407      0.711763     Biso  1.000000 C
   C13F       1.0     0.481117     -0.032117      0.691463     Biso  1.000000 C
   C14F       1.0     0.415907     -0.065617      0.701673     Biso  1.000000 C
   H14F       1.0     0.387367     -0.053067      0.688833     Biso  1.000000 H
   C15F       1.0     0.391707     -0.117127      0.730473     Biso  1.000000 C
   H15F       1.0     0.346567     -0.140167      0.737233     Biso  1.000000 H
   C16F       1.0     0.631117     -0.030437      0.726383     Biso  1.000000 C
   H16D       1.0     0.675667     -0.002967      0.715633     Biso  1.000000 H
   H16E       1.0     0.617767     -0.076367      0.721933     Biso  1.000000 H
   H16F       1.0     0.629567     -0.022167      0.757433     Biso  1.000000 H
   O7         1.0     0.666667      0.333333      0.515241     Biso  1.000000 O
   O8         1.0     0.666667      0.333333      0.650453     Biso  1.000000 O
   Zn2        1.0     0.753682      0.376853      0.492575     Biso  1.000000 Zn
   O1F        1.0     0.758607      0.358613      0.589363     Biso  1.000000 O
   O2F        1.0     0.823637      0.407286      0.535373     Biso  1.000000 O
   O3F        1.0     1.048737      0.532393      0.603413     Biso  1.000000 O
   O4F        1.0     1.214807      0.659103      0.790563     Biso  1.000000 O
   O5F        1.0     1.208427      0.562053      0.795273     Biso  1.000000 O
   O6F        1.0     1.015097      0.602033      0.702753     Biso  1.000000 O
   C1F        1.0     0.812917      0.395233      0.574773     Biso  1.000000 C
   C2F        1.0     0.870317      0.426223      0.604873     Biso  1.000000 C
   C3F        1.0     0.932427      0.465023      0.588473     Biso  1.000000 C
   H3F        1.0     0.938667      0.472033      0.558033     Biso  1.000000 H
   C4F        1.0     0.985117      0.493323      0.616173     Biso  1.000000 C
   C5F        1.0     0.975717      0.482823      0.660663     Biso  1.000000 C
   C6F        1.0     0.913927      0.444823      0.676273     Biso  1.000000 C
   H6F        1.0     0.907067      0.438333      0.706633     Biso  1.000000 H
   C7F        1.0     0.861327      0.415913      0.648473     Biso  1.000000 C
   H7F        1.0     0.818667      0.388733      0.659733     Biso  1.000000 H
   C8F        1.0     1.060867      0.531033      0.557343     Biso  1.000000 C
   H8F1       1.0     1.106267      0.565233      0.550933     Biso  1.000000 H
   H8F2       1.0     1.031467      0.541533      0.540833     Biso  1.000000 H
   H8F3       1.0     1.054067      0.489033      0.548933     Biso  1.000000 H
   C9F        1.0     1.191217      0.599923      0.780473     Biso  1.000000 C
   C10F       1.0     1.135217      0.568623      0.749673     Biso  1.000000 C
   C11F       1.0     1.100117      0.598623      0.740873     Biso  1.000000 C
   H11F       1.0     1.111167      0.638733      0.754633     Biso  1.000000 H
   C12F       1.0     1.048407      0.571213      0.711763     Biso  1.000000 C
   C13F       1.0     1.032117      0.513233      0.691463     Biso  1.000000 C
   C14F       1.0     1.065617      0.481523      0.701673     Biso  1.000000 C
   H14F       1.0     1.053067      0.440433      0.688833     Biso  1.000000 H
   C15F       1.0     1.117127      0.508833      0.730473     Biso  1.000000 C
   H15F       1.0     1.140167      0.486733      0.737233     Biso  1.000000 H
   C16F       1.0     1.030437      0.661553      0.726383     Biso  1.000000 C
   H16D       1.0     1.002967      0.678633      0.715633     Biso  1.000000 H
   H16E       1.0     1.076367      0.694133      0.721933     Biso  1.000000 H
   H16F       1.0     1.022167      0.651733      0.757433     Biso  1.000000 H
   Zn2        1.0     0.623147      0.376828      0.492575     Biso  1.000000 Zn
   O1F        1.0     0.641387      0.399993      0.589363     Biso  1.000000 O
   O2F        1.0     0.592714      0.416350      0.535373     Biso  1.000000 O
   O3F        1.0     0.467607      0.516343      0.603413     Biso  1.000000 O
   O4F        1.0     0.340897      0.555703      0.790563     Biso  1.000000 O
   O5F        1.0     0.437947      0.646373      0.795273     Biso  1.000000 O
   O6F        1.0     0.397967      0.413063      0.702753     Biso  1.000000 O
   C1F        1.0     0.604767      0.417683      0.574773     Biso  1.000000 C
   C2F        1.0     0.573777      0.444093      0.604873     Biso  1.000000 C
   C3F        1.0     0.534977      0.467403      0.588473     Biso  1.000000 C
   H3F        1.0     0.527967      0.466633      0.558033     Biso  1.000000 H
   C4F        1.0     0.506677      0.491793      0.616173     Biso  1.000000 C
   C5F        1.0     0.517177      0.492893      0.660663     Biso  1.000000 C
   C6F        1.0     0.555177      0.469103      0.676273     Biso  1.000000 C
   H6F        1.0     0.561667      0.468733      0.706633     Biso  1.000000 H
   C7F        1.0     0.584087      0.445413      0.648473     Biso  1.000000 C
   H7F        1.0     0.611267      0.429933      0.659733     Biso  1.000000 H
   C8F        1.0     0.468967      0.529833      0.557343     Biso  1.000000 C
   H8F1       1.0     0.434767      0.541033      0.550933     Biso  1.000000 H
   H8F2       1.0     0.458467      0.489933      0.540833     Biso  1.000000 H
   H8F3       1.0     0.510967      0.565033      0.548933     Biso  1.000000 H
   C9F        1.0     0.400077      0.591293      0.780473     Biso  1.000000 C
   C10F       1.0     0.431377      0.566593      0.749673     Biso  1.000000 C
   C11F       1.0     0.401377      0.501493      0.740873     Biso  1.000000 C
   H11F       1.0     0.361267      0.472433      0.754633     Biso  1.000000 H
   C12F       1.0     0.428787      0.477193      0.711763     Biso  1.000000 C
   C13F       1.0     0.486767      0.518883      0.691463     Biso  1.000000 C
   C14F       1.0     0.518477      0.584093      0.701673     Biso  1.000000 C
   H14F       1.0     0.559567      0.612633      0.688833     Biso  1.000000 H
   C15F       1.0     0.491167      0.608293      0.730473     Biso  1.000000 C
   H15F       1.0     0.513267      0.653433      0.737233     Biso  1.000000 H
   C16F       1.0     0.338447      0.368883      0.726383     Biso  1.000000 C
   H16D       1.0     0.321367      0.324333      0.715633     Biso  1.000000 H
   H16E       1.0     0.305867      0.382233      0.721933     Biso  1.000000 H
   H16F       1.0     0.348267      0.370433      0.757433     Biso  1.000000 H
   Zn1        1.0     0.333333      0.666667      0.913198     Biso  1.000000 Zn
   Zn2        1.0     0.289838      0.579652      0.825908     Biso  1.000000 Zn
   O1F        1.0     0.266673      0.574727      0.922697     Biso  1.000000 O
   O2F        1.0     0.250316      0.509697      0.868707     Biso  1.000000 O
   O3F        1.0     0.150323      0.284597      0.936747     Biso  1.000000 O
   O4F        1.0     0.110963      0.118527      1.123897     Biso  1.000000 O
   O5F        1.0     0.020293      0.124907      1.128607     Biso  1.000000 O
   O6F        1.0     0.253603      0.318237      1.036087     Biso  1.000000 O
   C1F        1.0     0.248983      0.520417      0.908107     Biso  1.000000 C
   C2F        1.0     0.222573      0.463017      0.938207     Biso  1.000000 C
   C3F        1.0     0.199263      0.400907      0.921807     Biso  1.000000 C
   H3F        1.0     0.200033      0.394667      0.891367     Biso  1.000000 H
   C4F        1.0     0.174873      0.348217      0.949507     Biso  1.000000 C
   C5F        1.0     0.173773      0.357617      0.993997     Biso  1.000000 C
   C6F        1.0     0.197563      0.419407      1.009607     Biso  1.000000 C
   H6F        1.0     0.197933      0.426267      1.039967     Biso  1.000000 H
   C7F        1.0     0.221253      0.472007      0.981807     Biso  1.000000 C
   H7F        1.0     0.236733      0.514667      0.993067     Biso  1.000000 H
   C8F        1.0     0.136833      0.272467      0.890677     Biso  1.000000 C
   H8F1       1.0     0.125633      0.227067      0.884267     Biso  1.000000 H
   H8F2       1.0     0.176733      0.301867      0.874167     Biso  1.000000 H
   H8F3       1.0     0.101633      0.279267      0.882267     Biso  1.000000 H
   C9F        1.0     0.075373      0.142117      1.113807     Biso  1.000000 C
   C10F       1.0     0.100073      0.198117      1.083007     Biso  1.000000 C
   C11F       1.0     0.165173      0.233217      1.074207     Biso  1.000000 C
   H11F       1.0     0.194233      0.222167      1.087967     Biso  1.000000 H
   C12F       1.0     0.189473      0.284927      1.045097     Biso  1.000000 C
   C13F       1.0     0.147783      0.301217      1.024797     Biso  1.000000 C
   C14F       1.0     0.082573      0.267717      1.035007     Biso  1.000000 C
   H14F       1.0     0.054033      0.280267      1.022167     Biso  1.000000 H
   C15F       1.0     0.058373      0.216207      1.063807     Biso  1.000000 C
   H15F       1.0     0.013233      0.193167      1.070567     Biso  1.000000 H
   C16F       1.0     0.297783      0.302897      1.059717     Biso  1.000000 C
   H16D       1.0     0.342333      0.330367      1.048967     Biso  1.000000 H
   H16E       1.0     0.284433      0.256967      1.055267     Biso  1.000000 H
   H16F       1.0     0.296233      0.311167      1.090767     Biso  1.000000 H
   O7         1.0     0.333333      0.666667      0.848575     Biso  1.000000 O
   O8         1.0     0.333333      0.666667      0.983787     Biso  1.000000 O
   Zn2        1.0     0.420348      0.710187      0.825908     Biso  1.000000 Zn
   O1F        1.0     0.425273      0.691947      0.922697     Biso  1.000000 O
   O2F        1.0     0.490303      0.740620      0.868707     Biso  1.000000 O
   O3F        1.0     0.715403      0.865727      0.936747     Biso  1.000000 O
   O4F        1.0     0.881473      0.992437      1.123897     Biso  1.000000 O
   O5F        1.0     0.875093      0.895387      1.128607     Biso  1.000000 O
   O6F        1.0     0.681763      0.935367      1.036087     Biso  1.000000 O
   C1F        1.0     0.479583      0.728567      0.908107     Biso  1.000000 C
   C2F        1.0     0.536983      0.759557      0.938207     Biso  1.000000 C
   C3F        1.0     0.599093      0.798357      0.921807     Biso  1.000000 C
   H3F        1.0     0.605333      0.805367      0.891367     Biso  1.000000 H
   C4F        1.0     0.651783      0.826657      0.949507     Biso  1.000000 C
   C5F        1.0     0.642383      0.816157      0.993997     Biso  1.000000 C
   C6F        1.0     0.580593      0.778157      1.009607     Biso  1.000000 C
   H6F        1.0     0.573733      0.771667      1.039967     Biso  1.000000 H
   C7F        1.0     0.527993      0.749247      0.981807     Biso  1.000000 C
   H7F        1.0     0.485333      0.722067      0.993067     Biso  1.000000 H
   C8F        1.0     0.727533      0.864367      0.890677     Biso  1.000000 C
   H8F1       1.0     0.772933      0.898567      0.884267     Biso  1.000000 H
   H8F2       1.0     0.698133      0.874867      0.874167     Biso  1.000000 H
   H8F3       1.0     0.720733      0.822367      0.882267     Biso  1.000000 H
   C9F        1.0     0.857883      0.933257      1.113807     Biso  1.000000 C
   C10F       1.0     0.801883      0.901957      1.083007     Biso  1.000000 C
   C11F       1.0     0.766783      0.931957      1.074207     Biso  1.000000 C
   H11F       1.0     0.777833      0.972067      1.087967     Biso  1.000000 H
   C12F       1.0     0.715073      0.904547      1.045097     Biso  1.000000 C
   C13F       1.0     0.698783      0.846567      1.024797     Biso  1.000000 C
   C14F       1.0     0.732283      0.814857      1.035007     Biso  1.000000 C
   H14F       1.0     0.719733      0.773767      1.022167     Biso  1.000000 H
   C15F       1.0     0.783793      0.842167      1.063807     Biso  1.000000 C
   H15F       1.0     0.806833      0.820067      1.070567     Biso  1.000000 H
   C16F       1.0     0.697103      0.994887      1.059717     Biso  1.000000 C
   H16D       1.0     0.669633      1.011967      1.048967     Biso  1.000000 H
   H16E       1.0     0.743033      1.027467      1.055267     Biso  1.000000 H
   H16F       1.0     0.688833      0.985067      1.090767     Biso  1.000000 H
   Zn2        1.0     0.289813      0.710162      0.825908     Biso  1.000000 Zn
   O1F        1.0     0.308053      0.733327      0.922697     Biso  1.000000 O
   O2F        1.0     0.259380      0.749684      0.868707     Biso  1.000000 O
   O3F        1.0     0.134273      0.849677      0.936747     Biso  1.000000 O
   O4F        1.0     0.007563      0.889037      1.123897     Biso  1.000000 O
   O5F        1.0     0.104613      0.979707      1.128607     Biso  1.000000 O
   O6F        1.0     0.064633      0.746397      1.036087     Biso  1.000000 O
   C1F        1.0     0.271433      0.751017      0.908107     Biso  1.000000 C
   C2F        1.0     0.240443      0.777427      0.938207     Biso  1.000000 C
   C3F        1.0     0.201643      0.800737      0.921807     Biso  1.000000 C
   H3F        1.0     0.194633      0.799967      0.891367     Biso  1.000000 H
   C4F        1.0     0.173343      0.825127      0.949507     Biso  1.000000 C
   C5F        1.0     0.183843      0.826227      0.993997     Biso  1.000000 C
   C6F        1.0     0.221843      0.802437      1.009607     Biso  1.000000 C
   H6F        1.0     0.228333      0.802067      1.039967     Biso  1.000000 H
   C7F        1.0     0.250753      0.778747      0.981807     Biso  1.000000 C
   H7F        1.0     0.277933      0.763267      0.993067     Biso  1.000000 H
   C8F        1.0     0.135633      0.863167      0.890677     Biso  1.000000 C
   H8F1       1.0     0.101433      0.874367      0.884267     Biso  1.000000 H
   H8F2       1.0     0.125133      0.823267      0.874167     Biso  1.000000 H
   H8F3       1.0     0.177633      0.898367      0.882267     Biso  1.000000 H
   C9F        1.0     0.066743      0.924627      1.113807     Biso  1.000000 C
   C10F       1.0     0.098043      0.899927      1.083007     Biso  1.000000 C
   C11F       1.0     0.068043      0.834827      1.074207     Biso  1.000000 C
   H11F       1.0     0.027933      0.805767      1.087967     Biso  1.000000 H
   C12F       1.0     0.095453      0.810527      1.045097     Biso  1.000000 C
   C13F       1.0     0.153433      0.852217      1.024797     Biso  1.000000 C
   C14F       1.0     0.185143      0.917427      1.035007     Biso  1.000000 C
   H14F       1.0     0.226233      0.945967      1.022167     Biso  1.000000 H
   C15F       1.0     0.157833      0.941627      1.063807     Biso  1.000000 C
   H15F       1.0     0.179933      0.986767      1.070567     Biso  1.000000 H
   C16F       1.0     0.005113      0.702217      1.059717     Biso  1.000000 C
   H16D       1.0    -0.011967      0.657667      1.048967     Biso  1.000000 H
   H16E       1.0    -0.027467      0.715567      1.055267     Biso  1.000000 H
   H16F       1.0     0.014933      0.703767      1.090767     Biso  1.000000 H
   Zn1        1.0    -0.000000     -0.000000     -0.246531     Biso  1.000000 Zn
   Zn2        1.0     0.043495      0.087015     -0.159242     Biso  1.000000 Zn
   O1F        1.0     0.066660      0.091940     -0.256030     Biso  1.000000 O
   O2F        1.0     0.083017      0.156970     -0.202040     Biso  1.000000 O
   O3F        1.0     0.183010      0.382070     -0.270080     Biso  1.000000 O
   O4F        1.0     0.222370      0.548140     -0.457230     Biso  1.000000 O
   O5F        1.0     0.313040      0.541760     -0.461940     Biso  1.000000 O
   O6F        1.0     0.079730      0.348430     -0.369420     Biso  1.000000 O
   C1F        1.0     0.084350      0.146250     -0.241440     Biso  1.000000 C
   C2F        1.0     0.110760      0.203650     -0.271540     Biso  1.000000 C
   C3F        1.0     0.134070      0.265760     -0.255140     Biso  1.000000 C
   H3F        1.0     0.133300      0.272000     -0.224700     Biso  1.000000 H
   C4F        1.0     0.158460      0.318450     -0.282840     Biso  1.000000 C
   C5F        1.0     0.159560      0.309050     -0.327330     Biso  1.000000 C
   C6F        1.0     0.135770      0.247260     -0.342940     Biso  1.000000 C
   H6F        1.0     0.135400      0.240400     -0.373300     Biso  1.000000 H
   C7F        1.0     0.112080      0.194660     -0.315140     Biso  1.000000 C
   H7F        1.0     0.096600      0.152000     -0.326400     Biso  1.000000 H
   C8F        1.0     0.196500      0.394200     -0.224010     Biso  1.000000 C
   H8F1       1.0     0.207700      0.439600     -0.217600     Biso  1.000000 H
   H8F2       1.0     0.156600      0.364800     -0.207500     Biso  1.000000 H
   H8F3       1.0     0.231700      0.387400     -0.215600     Biso  1.000000 H
   C9F        1.0     0.257960      0.524550     -0.447140     Biso  1.000000 C
   C10F       1.0     0.233260      0.468550     -0.416340     Biso  1.000000 C
   C11F       1.0     0.168160      0.433450     -0.407540     Biso  1.000000 C
   H11F       1.0     0.139100      0.444500     -0.421300     Biso  1.000000 H
   C12F       1.0     0.143860      0.381740     -0.378430     Biso  1.000000 C
   C13F       1.0     0.185550      0.365450     -0.358130     Biso  1.000000 C
   C14F       1.0     0.250760      0.398950     -0.368340     Biso  1.000000 C
   H14F       1.0     0.279300      0.386400     -0.355500     Biso  1.000000 H
   C15F       1.0     0.274960      0.450460     -0.397140     Biso  1.000000 C
   H15F       1.0     0.320100      0.473500     -0.403900     Biso  1.000000 H
   C16F       1.0     0.035550      0.363770     -0.393050     Biso  1.000000 C
   H16D       1.0    -0.009000      0.336300     -0.382300     Biso  1.000000 H
   H16E       1.0     0.048900      0.409700     -0.388600     Biso  1.000000 H
   H16F       1.0     0.037100      0.355500     -0.424100     Biso  1.000000 H
   O7         1.0    -0.000000     -0.000000     -0.181908     Biso  1.000000 O
   O8         1.0    -0.000000     -0.000000     -0.317120     Biso  1.000000 O
   Zn2        1.0    -0.087015     -0.043520     -0.159242     Biso  1.000000 Zn
   O1F        1.0    -0.091940     -0.025280     -0.256030     Biso  1.000000 O
   O2F        1.0    -0.156970     -0.073953     -0.202040     Biso  1.000000 O
   O3F        1.0    -0.382070     -0.199060     -0.270080     Biso  1.000000 O
   O4F        1.0    -0.548140     -0.325770     -0.457230     Biso  1.000000 O
   O5F        1.0    -0.541760     -0.228720     -0.461940     Biso  1.000000 O
   O6F        1.0    -0.348430     -0.268700     -0.369420     Biso  1.000000 O
   C1F        1.0    -0.146250     -0.061900     -0.241440     Biso  1.000000 C
   C2F        1.0    -0.203650     -0.092890     -0.271540     Biso  1.000000 C
   C3F        1.0    -0.265760     -0.131690     -0.255140     Biso  1.000000 C
   H3F        1.0    -0.272000     -0.138700     -0.224700     Biso  1.000000 H
   C4F        1.0    -0.318450     -0.159990     -0.282840     Biso  1.000000 C
   C5F        1.0    -0.309050     -0.149490     -0.327330     Biso  1.000000 C
   C6F        1.0    -0.247260     -0.111490     -0.342940     Biso  1.000000 C
   H6F        1.0    -0.240400     -0.105000     -0.373300     Biso  1.000000 H
   C7F        1.0    -0.194660     -0.082580     -0.315140     Biso  1.000000 C
   H7F        1.0    -0.152000     -0.055400     -0.326400     Biso  1.000000 H
   C8F        1.0    -0.394200     -0.197700     -0.224010     Biso  1.000000 C
   H8F1       1.0    -0.439600     -0.231900     -0.217600     Biso  1.000000 H
   H8F2       1.0    -0.364800     -0.208200     -0.207500     Biso  1.000000 H
   H8F3       1.0    -0.387400     -0.155700     -0.215600     Biso  1.000000 H
   C9F        1.0    -0.524550     -0.266590     -0.447140     Biso  1.000000 C
   C10F       1.0    -0.468550     -0.235290     -0.416340     Biso  1.000000 C
   C11F       1.0    -0.433450     -0.265290     -0.407540     Biso  1.000000 C
   H11F       1.0    -0.444500     -0.305400     -0.421300     Biso  1.000000 H
   C12F       1.0    -0.381740     -0.237880     -0.378430     Biso  1.000000 C
   C13F       1.0    -0.365450     -0.179900     -0.358130     Biso  1.000000 C
   C14F       1.0    -0.398950     -0.148190     -0.368340     Biso  1.000000 C
   H14F       1.0    -0.386400     -0.107100     -0.355500     Biso  1.000000 H
   C15F       1.0    -0.450460     -0.175500     -0.397140     Biso  1.000000 C
   H15F       1.0    -0.473500     -0.153400     -0.403900     Biso  1.000000 H
   C16F       1.0    -0.363770     -0.328220     -0.393050     Biso  1.000000 C
   H16D       1.0    -0.336300     -0.345300     -0.382300     Biso  1.000000 H
   H16E       1.0    -0.409700     -0.360800     -0.388600     Biso  1.000000 H
   H16F       1.0    -0.355500     -0.318400     -0.424100     Biso  1.000000 H
   Zn2        1.0     0.043520     -0.043495     -0.159242     Biso  1.000000 Zn
   O1F        1.0     0.025280     -0.066660     -0.256030     Biso  1.000000 O
   O2F        1.0     0.073953     -0.083017     -0.202040     Biso  1.000000 O
   O3F        1.0     0.199060     -0.183010     -0.270080     Biso  1.000000 O
   O4F        1.0     0.325770     -0.222370     -0.457230     Biso  1.000000 O
   O5F        1.0     0.228720     -0.313040     -0.461940     Biso  1.000000 O
   O6F        1.0     0.268700     -0.079730     -0.369420     Biso  1.000000 O
   C1F        1.0     0.061900     -0.084350     -0.241440     Biso  1.000000 C
   C2F        1.0     0.092890     -0.110760     -0.271540     Biso  1.000000 C
   C3F        1.0     0.131690     -0.134070     -0.255140     Biso  1.000000 C
   H3F        1.0     0.138700     -0.133300     -0.224700     Biso  1.000000 H
   C4F        1.0     0.159990     -0.158460     -0.282840     Biso  1.000000 C
   C5F        1.0     0.149490     -0.159560     -0.327330     Biso  1.000000 C
   C6F        1.0     0.111490     -0.135770     -0.342940     Biso  1.000000 C
   H6F        1.0     0.105000     -0.135400     -0.373300     Biso  1.000000 H
   C7F        1.0     0.082580     -0.112080     -0.315140     Biso  1.000000 C
   H7F        1.0     0.055400     -0.096600     -0.326400     Biso  1.000000 H
   C8F        1.0     0.197700     -0.196500     -0.224010     Biso  1.000000 C
   H8F1       1.0     0.231900     -0.207700     -0.217600     Biso  1.000000 H
   H8F2       1.0     0.208200     -0.156600     -0.207500     Biso  1.000000 H
   H8F3       1.0     0.155700     -0.231700     -0.215600     Biso  1.000000 H
   C9F        1.0     0.266590     -0.257960     -0.447140     Biso  1.000000 C
   C10F       1.0     0.235290     -0.233260     -0.416340     Biso  1.000000 C
   C11F       1.0     0.265290     -0.168160     -0.407540     Biso  1.000000 C
   H11F       1.0     0.305400     -0.139100     -0.421300     Biso  1.000000 H
   C12F       1.0     0.237880     -0.143860     -0.378430     Biso  1.000000 C
   C13F       1.0     0.179900     -0.185550     -0.358130     Biso  1.000000 C
   C14F       1.0     0.148190     -0.250760     -0.368340     Biso  1.000000 C
   H14F       1.0     0.107100     -0.279300     -0.355500     Biso  1.000000 H
   C15F       1.0     0.175500     -0.274960     -0.397140     Biso  1.000000 C
   H15F       1.0     0.153400     -0.320100     -0.403900     Biso  1.000000 H
   C16F       1.0     0.328220     -0.035550     -0.393050     Biso  1.000000 C
   H16D       1.0     0.345300      0.009000     -0.382300     Biso  1.000000 H
   H16E       1.0     0.360800     -0.048900     -0.388600     Biso  1.000000 H
   H16F       1.0     0.318400     -0.037100     -0.424100     Biso  1.000000 H
   Zn1        1.0     0.666667      0.333333      0.086802     Biso  1.000000 Zn
   Zn2        1.0     0.710162      0.420348      0.174092     Biso  1.000000 Zn
   O1F        1.0     0.733327      0.425273      0.077303     Biso  1.000000 O
   O2F        1.0     0.749684      0.490303      0.131293     Biso  1.000000 O
   O3F        1.0     0.849677      0.715403      0.063253     Biso  1.000000 O
   O4F        1.0     0.889037      0.881473     -0.123897     Biso  1.000000 O
   O5F        1.0     0.979707      0.875093     -0.128607     Biso  1.000000 O
   O6F        1.0     0.746397      0.681763     -0.036087     Biso  1.000000 O
   C1F        1.0     0.751017      0.479583      0.091893     Biso  1.000000 C
   C2F        1.0     0.777427      0.536983      0.061793     Biso  1.000000 C
   C3F        1.0     0.800737      0.599093      0.078193     Biso  1.000000 C
   H3F        1.0     0.799967      0.605333      0.108633     Biso  1.000000 H
   C4F        1.0     0.825127      0.651783      0.050493     Biso  1.000000 C
   C5F        1.0     0.826227      0.642383      0.006003     Biso  1.000000 C
   C6F        1.0     0.802437      0.580593     -0.009607     Biso  1.000000 C
   H6F        1.0     0.802067      0.573733     -0.039967     Biso  1.000000 H
   C7F        1.0     0.778747      0.527993      0.018193     Biso  1.000000 C
   H7F        1.0     0.763267      0.485333      0.006933     Biso  1.000000 H
   C8F        1.0     0.863167      0.727533      0.109323     Biso  1.000000 C
   H8F1       1.0     0.874367      0.772933      0.115733     Biso  1.000000 H
   H8F2       1.0     0.823267      0.698133      0.125833     Biso  1.000000 H
   H8F3       1.0     0.898367      0.720733      0.117733     Biso  1.000000 H
   C9F        1.0     0.924627      0.857883     -0.113807     Biso  1.000000 C
   C10F       1.0     0.899927      0.801883     -0.083007     Biso  1.000000 C
   C11F       1.0     0.834827      0.766783     -0.074207     Biso  1.000000 C
   H11F       1.0     0.805767      0.777833     -0.087967     Biso  1.000000 H
   C12F       1.0     0.810527      0.715073     -0.045097     Biso  1.000000 C
   C13F       1.0     0.852217      0.698783     -0.024797     Biso  1.000000 C
   C14F       1.0     0.917427      0.732283     -0.035007     Biso  1.000000 C
   H14F       1.0     0.945967      0.719733     -0.022167     Biso  1.000000 H
   C15F       1.0     0.941627      0.783793     -0.063807     Biso  1.000000 C
   H15F       1.0     0.986767      0.806833     -0.070567     Biso  1.000000 H
   C16F       1.0     0.702217      0.697103     -0.059717     Biso  1.000000 C
   H16D       1.0     0.657667      0.669633     -0.048967     Biso  1.000000 H
   H16E       1.0     0.715567      0.743033     -0.055267     Biso  1.000000 H
   H16F       1.0     0.703767      0.688833     -0.090767     Biso  1.000000 H
   O7         1.0     0.666667      0.333333      0.151425     Biso  1.000000 O
   O8         1.0     0.666667      0.333333      0.016213     Biso  1.000000 O
   Zn2        1.0     0.579652      0.289813      0.174092     Biso  1.000000 Zn
   O1F        1.0     0.574727      0.308053      0.077303     Biso  1.000000 O
   O2F        1.0     0.509697      0.259380      0.131293     Biso  1.000000 O
   O3F        1.0     0.284597      0.134273      0.063253     Biso  1.000000 O
   O4F        1.0     0.118527      0.007563     -0.123897     Biso  1.000000 O
   O5F        1.0     0.124907      0.104613     -0.128607     Biso  1.000000 O
   O6F        1.0     0.318237      0.064633     -0.036087     Biso  1.000000 O
   C1F        1.0     0.520417      0.271433      0.091893     Biso  1.000000 C
   C2F        1.0     0.463017      0.240443      0.061793     Biso  1.000000 C
   C3F        1.0     0.400907      0.201643      0.078193     Biso  1.000000 C
   H3F        1.0     0.394667      0.194633      0.108633     Biso  1.000000 H
   C4F        1.0     0.348217      0.173343      0.050493     Biso  1.000000 C
   C5F        1.0     0.357617      0.183843      0.006003     Biso  1.000000 C
   C6F        1.0     0.419407      0.221843     -0.009607     Biso  1.000000 C
   H6F        1.0     0.426267      0.228333     -0.039967     Biso  1.000000 H
   C7F        1.0     0.472007      0.250753      0.018193     Biso  1.000000 C
   H7F        1.0     0.514667      0.277933      0.006933     Biso  1.000000 H
   C8F        1.0     0.272467      0.135633      0.109323     Biso  1.000000 C
   H8F1       1.0     0.227067      0.101433      0.115733     Biso  1.000000 H
   H8F2       1.0     0.301867      0.125133      0.125833     Biso  1.000000 H
   H8F3       1.0     0.279267      0.177633      0.117733     Biso  1.000000 H
   C9F        1.0     0.142117      0.066743     -0.113807     Biso  1.000000 C
   C10F       1.0     0.198117      0.098043     -0.083007     Biso  1.000000 C
   C11F       1.0     0.233217      0.068043     -0.074207     Biso  1.000000 C
   H11F       1.0     0.222167      0.027933     -0.087967     Biso  1.000000 H
   C12F       1.0     0.284927      0.095453     -0.045097     Biso  1.000000 C
   C13F       1.0     0.301217      0.153433     -0.024797     Biso  1.000000 C
   C14F       1.0     0.267717      0.185143     -0.035007     Biso  1.000000 C
   H14F       1.0     0.280267      0.226233     -0.022167     Biso  1.000000 H
   C15F       1.0     0.216207      0.157833     -0.063807     Biso  1.000000 C
   H15F       1.0     0.193167      0.179933     -0.070567     Biso  1.000000 H
   C16F       1.0     0.302897      0.005113     -0.059717     Biso  1.000000 C
   H16D       1.0     0.330367     -0.011967     -0.048967     Biso  1.000000 H
   H16E       1.0     0.256967     -0.027467     -0.055267     Biso  1.000000 H
   H16F       1.0     0.311167      0.014933     -0.090767     Biso  1.000000 H
   Zn2        1.0     0.710187      0.289838      0.174092     Biso  1.000000 Zn
   O1F        1.0     0.691947      0.266673      0.077303     Biso  1.000000 O
   O2F        1.0     0.740620      0.250316      0.131293     Biso  1.000000 O
   O3F        1.0     0.865727      0.150323      0.063253     Biso  1.000000 O
   O4F        1.0     0.992437      0.110963     -0.123897     Biso  1.000000 O
   O5F        1.0     0.895387      0.020293     -0.128607     Biso  1.000000 O
   O6F        1.0     0.935367      0.253603     -0.036087     Biso  1.000000 O
   C1F        1.0     0.728567      0.248983      0.091893     Biso  1.000000 C
   C2F        1.0     0.759557      0.222573      0.061793     Biso  1.000000 C
   C3F        1.0     0.798357      0.199263      0.078193     Biso  1.000000 C
   H3F        1.0     0.805367      0.200033      0.108633     Biso  1.000000 H
   C4F        1.0     0.826657      0.174873      0.050493     Biso  1.000000 C
   C5F        1.0     0.816157      0.173773      0.006003     Biso  1.000000 C
   C6F        1.0     0.778157      0.197563     -0.009607     Biso  1.000000 C
   H6F        1.0     0.771667      0.197933     -0.039967     Biso  1.000000 H
   C7F        1.0     0.749247      0.221253      0.018193     Biso  1.000000 C
   H7F        1.0     0.722067      0.236733      0.006933     Biso  1.000000 H
   C8F        1.0     0.864367      0.136833      0.109323     Biso  1.000000 C
   H8F1       1.0     0.898567      0.125633      0.115733     Biso  1.000000 H
   H8F2       1.0     0.874867      0.176733      0.125833     Biso  1.000000 H
   H8F3       1.0     0.822367      0.101633      0.117733     Biso  1.000000 H
   C9F        1.0     0.933257      0.075373     -0.113807     Biso  1.000000 C
   C10F       1.0     0.901957      0.100073     -0.083007     Biso  1.000000 C
   C11F       1.0     0.931957      0.165173     -0.074207     Biso  1.000000 C
   H11F       1.0     0.972067      0.194233     -0.087967     Biso  1.000000 H
   C12F       1.0     0.904547      0.189473     -0.045097     Biso  1.000000 C
   C13F       1.0     0.846567      0.147783     -0.024797     Biso  1.000000 C
   C14F       1.0     0.814857      0.082573     -0.035007     Biso  1.000000 C
   H14F       1.0     0.773767      0.054033     -0.022167     Biso  1.000000 H
   C15F       1.0     0.842167      0.058373     -0.063807     Biso  1.000000 C
   H15F       1.0     0.820067      0.013233     -0.070567     Biso  1.000000 H
   C16F       1.0     0.994887      0.297783     -0.059717     Biso  1.000000 C
   H16D       1.0     1.011967      0.342333     -0.048967     Biso  1.000000 H
   H16E       1.0     1.027467      0.284433     -0.055267     Biso  1.000000 H
   H16F       1.0     0.985067      0.296233     -0.090767     Biso  1.000000 H
   Zn1        1.0     0.333333      0.666667      0.420135     Biso  1.000000 Zn
   Zn2        1.0     0.376828      0.753682      0.507425     Biso  1.000000 Zn
   O1F        1.0     0.399993      0.758607      0.410637     Biso  1.000000 O
   O2F        1.0     0.416350      0.823637      0.464627     Biso  1.000000 O
   O3F        1.0     0.516343      1.048737      0.396587     Biso  1.000000 O
   O4F        1.0     0.555703      1.214807      0.209437     Biso  1.000000 O
   O5F        1.0     0.646373      1.208427      0.204727     Biso  1.000000 O
   O6F        1.0     0.413063      1.015097      0.297247     Biso  1.000000 O
   C1F        1.0     0.417683      0.812917      0.425227     Biso  1.000000 C
   C2F        1.0     0.444093      0.870317      0.395127     Biso  1.000000 C
   C3F        1.0     0.467403      0.932427      0.411527     Biso  1.000000 C
   H3F        1.0     0.466633      0.938667      0.441967     Biso  1.000000 H
   C4F        1.0     0.491793      0.985117      0.383827     Biso  1.000000 C
   C5F        1.0     0.492893      0.975717      0.339337     Biso  1.000000 C
   C6F        1.0     0.469103      0.913927      0.323727     Biso  1.000000 C
   H6F        1.0     0.468733      0.907067      0.293367     Biso  1.000000 H
   C7F        1.0     0.445413      0.861327      0.351527     Biso  1.000000 C
   H7F        1.0     0.429933      0.818667      0.340267     Biso  1.000000 H
   C8F        1.0     0.529833      1.060867      0.442657     Biso  1.000000 C
   H8F1       1.0     0.541033      1.106267      0.449067     Biso  1.000000 H
   H8F2       1.0     0.489933      1.031467      0.459167     Biso  1.000000 H
   H8F3       1.0     0.565033      1.054067      0.451067     Biso  1.000000 H
   C9F        1.0     0.591293      1.191217      0.219527     Biso  1.000000 C
   C10F       1.0     0.566593      1.135217      0.250327     Biso  1.000000 C
   C11F       1.0     0.501493      1.100117      0.259127     Biso  1.000000 C
   H11F       1.0     0.472433      1.111167      0.245367     Biso  1.000000 H
   C12F       1.0     0.477193      1.048407      0.288237     Biso  1.000000 C
   C13F       1.0     0.518883      1.032117      0.308537     Biso  1.000000 C
   C14F       1.0     0.584093      1.065617      0.298327     Biso  1.000000 C
   H14F       1.0     0.612633      1.053067      0.311167     Biso  1.000000 H
   C15F       1.0     0.608293      1.117127      0.269527     Biso  1.000000 C
   H15F       1.0     0.653433      1.140167      0.262767     Biso  1.000000 H
   C16F       1.0     0.368883      1.030437      0.273617     Biso  1.000000 C
   H16D       1.0     0.324333      1.002967      0.284367     Biso  1.000000 H
   H16E       1.0     0.382233      1.076367      0.278067     Biso  1.000000 H
   H16F       1.0     0.370433      1.022167      0.242567     Biso  1.000000 H
   O7         1.0     0.333333      0.666667      0.484759     Biso  1.000000 O
   O8         1.0     0.333333      0.666667      0.349547     Biso  1.000000 O
   Zn2        1.0     0.246318      0.623147      0.507425     Biso  1.000000 Zn
   O1F        1.0     0.241393      0.641387      0.410637     Biso  1.000000 O
   O2F        1.0     0.176363      0.592714      0.464627     Biso  1.000000 O
   O3F        1.0    -0.048737      0.467607      0.396587     Biso  1.000000 O
   O4F        1.0    -0.214807      0.340897      0.209437     Biso  1.000000 O
   O5F        1.0    -0.208427      0.437947      0.204727     Biso  1.000000 O
   O6F        1.0    -0.015097      0.397967      0.297247     Biso  1.000000 O
   C1F        1.0     0.187083      0.604767      0.425227     Biso  1.000000 C
   C2F        1.0     0.129683      0.573777      0.395127     Biso  1.000000 C
   C3F        1.0     0.067573      0.534977      0.411527     Biso  1.000000 C
   H3F        1.0     0.061333      0.527967      0.441967     Biso  1.000000 H
   C4F        1.0     0.014883      0.506677      0.383827     Biso  1.000000 C
   C5F        1.0     0.024283      0.517177      0.339337     Biso  1.000000 C
   C6F        1.0     0.086073      0.555177      0.323727     Biso  1.000000 C
   H6F        1.0     0.092933      0.561667      0.293367     Biso  1.000000 H
   C7F        1.0     0.138673      0.584087      0.351527     Biso  1.000000 C
   H7F        1.0     0.181333      0.611267      0.340267     Biso  1.000000 H
   C8F        1.0    -0.060867      0.468967      0.442657     Biso  1.000000 C
   H8F1       1.0    -0.106267      0.434767      0.449067     Biso  1.000000 H
   H8F2       1.0    -0.031467      0.458467      0.459167     Biso  1.000000 H
   H8F3       1.0    -0.054067      0.510967      0.451067     Biso  1.000000 H
   C9F        1.0    -0.191217      0.400077      0.219527     Biso  1.000000 C
   C10F       1.0    -0.135217      0.431377      0.250327     Biso  1.000000 C
   C11F       1.0    -0.100117      0.401377      0.259127     Biso  1.000000 C
   H11F       1.0    -0.111167      0.361267      0.245367     Biso  1.000000 H
   C12F       1.0    -0.048407      0.428787      0.288237     Biso  1.000000 C
   C13F       1.0    -0.032117      0.486767      0.308537     Biso  1.000000 C
   C14F       1.0    -0.065617      0.518477      0.298327     Biso  1.000000 C
   H14F       1.0    -0.053067      0.559567      0.311167     Biso  1.000000 H
   C15F       1.0    -0.117127      0.491167      0.269527     Biso  1.000000 C
   H15F       1.0    -0.140167      0.513267      0.262767     Biso  1.000000 H
   C16F       1.0    -0.030437      0.338447      0.273617     Biso  1.000000 C
   H16D       1.0    -0.002967      0.321367      0.284367     Biso  1.000000 H
   H16E       1.0    -0.076367      0.305867      0.278067     Biso  1.000000 H
   H16F       1.0    -0.022167      0.348267      0.242567     Biso  1.000000 H
   Zn2        1.0     0.376853      0.623172      0.507425     Biso  1.000000 Zn
   O1F        1.0     0.358613      0.600007      0.410637     Biso  1.000000 O
   O2F        1.0     0.407286      0.583650      0.464627     Biso  1.000000 O
   O3F        1.0     0.532393      0.483657      0.396587     Biso  1.000000 O
   O4F        1.0     0.659103      0.444297      0.209437     Biso  1.000000 O
   O5F        1.0     0.562053      0.353627      0.204727     Biso  1.000000 O
   O6F        1.0     0.602033      0.586937      0.297247     Biso  1.000000 O
   C1F        1.0     0.395233      0.582317      0.425227     Biso  1.000000 C
   C2F        1.0     0.426223      0.555907      0.395127     Biso  1.000000 C
   C3F        1.0     0.465023      0.532597      0.411527     Biso  1.000000 C
   H3F        1.0     0.472033      0.533367      0.441967     Biso  1.000000 H
   C4F        1.0     0.493323      0.508207      0.383827     Biso  1.000000 C
   C5F        1.0     0.482823      0.507107      0.339337     Biso  1.000000 C
   C6F        1.0     0.444823      0.530897      0.323727     Biso  1.000000 C
   H6F        1.0     0.438333      0.531267      0.293367     Biso  1.000000 H
   C7F        1.0     0.415913      0.554587      0.351527     Biso  1.000000 C
   H7F        1.0     0.388733      0.570067      0.340267     Biso  1.000000 H
   C8F        1.0     0.531033      0.470167      0.442657     Biso  1.000000 C
   H8F1       1.0     0.565233      0.458967      0.449067     Biso  1.000000 H
   H8F2       1.0     0.541533      0.510067      0.459167     Biso  1.000000 H
   H8F3       1.0     0.489033      0.434967      0.451067     Biso  1.000000 H
   C9F        1.0     0.599923      0.408707      0.219527     Biso  1.000000 C
   C10F       1.0     0.568623      0.433407      0.250327     Biso  1.000000 C
   C11F       1.0     0.598623      0.498507      0.259127     Biso  1.000000 C
   H11F       1.0     0.638733      0.527567      0.245367     Biso  1.000000 H
   C12F       1.0     0.571213      0.522807      0.288237     Biso  1.000000 C
   C13F       1.0     0.513233      0.481117      0.308537     Biso  1.000000 C
   C14F       1.0     0.481523      0.415907      0.298327     Biso  1.000000 C
   H14F       1.0     0.440433      0.387367      0.311167     Biso  1.000000 H
   C15F       1.0     0.508833      0.391707      0.269527     Biso  1.000000 C
   H15F       1.0     0.486733      0.346567      0.262767     Biso  1.000000 H
   C16F       1.0     0.661553      0.631117      0.273617     Biso  1.000000 C
   H16D       1.0     0.678633      0.675667      0.284367     Biso  1.000000 H
   H16E       1.0     0.694133      0.617767      0.278067     Biso  1.000000 H
   H16F       1.0     0.651733      0.629567      0.242567     Biso  1.000000 H
