_cell_length_a 28.615999999999993
_cell_length_b 31.687999855138678
_cell_length_c 31.690000143002415
_cell_angle_alpha 78.29100036892471
_cell_angle_beta 63.22999966103078
_cell_angle_gamma 63.2289993205193
_symmetry_space_group_name_H-M         'P 1'
_symmetry_Int_Tables_number            1
loop_
_symmetry_equiv_pos_as_xyz
   'x, y, z'
                         
loop_
_atom_site_label
_atom_site_type_symbol
_atom_site_fract_x 
_atom_site_fract_y
_atom_site_fract_z
_atom_site_charge
Ca Ca 0.265854 0.489645 0.235338 1.67025
Ca Ca 0.496233 0.488908 0.272 1.67025
Ca Ca 0.00544603 0.236169 0.492668 1.67025
Ca Ca 0.233234 0.261343 0.513519 1.67025
Cd Cd 0.12734 0.0111067 0.2467 1.08508
Cd Cd 0.377494 0.480174 0.254305 1.08508
Cd Cd 0.123816 0.246108 0.500053 1.08508
Cd Cd 0.374719 0.253297 0.9983012 1.08508
H_ H_ 0.99833657 0.155804 0.162647 0.38772
H_ H_ 0.0892446 0.0913906 0.194573 0.11467
H_ H_ 0.0666206 0.217942 0.112661 0.11467
H_ H_ 0.233107 0.125324 0.108367 0.11467
H_ H_ 0.822882 0.346327 0.329958 0.38772
H_ H_ 0.89844 0.406523 0.285611 0.11467
H_ H_ 0.86899 0.310063 0.402462 0.11467
H_ H_ 0.494022 0.351883 0.371015 0.11467
H_ H_ 0.0862158 0.208442 0.272959 0.38772
H_ H_ 0.0844483 0.241407 0.366191 0.11467
H_ H_ 0.177296 0.128603 0.265702 0.11467
H_ H_ 0.205388 0.106133 0.392597 0.11467
H_ H_ 0.125397 0.266159 0.221479 0.38772
H_ H_ 0.205197 0.261434 0.129753 0.11467
H_ H_ 0.108016 0.367152 0.236374 0.11467
H_ H_ 0.196604 0.404771 0.0935989 0.11467
H_ H_ 0.189361 0.2687 0.289045 0.38772
H_ H_ 0.155144 0.27544 0.394745 0.11467
H_ H_ 0.199926 0.35958 0.274167 0.11467
H_ H_ 0.182149 0.398202 0.404386 0.11467
H_ H_ 0.75423 0.217336 0.222314 0.38772
H_ H_ 0.334975 0.234541 0.127328 0.11467
H_ H_ 0.84941 0.129729 0.238391 0.11467
H_ H_ 0.479367 0.0990058 0.1004 0.11467
H_ H_ 0.476863 0.235372 0.275283 0.38772
H_ H_ 0.525686 0.128569 0.271236 0.11467
H_ H_ 0.417568 0.234252 0.378304 0.11467
H_ H_ 0.433373 0.0906056 0.408807 0.11467
H_ H_ 0.318583 0.283098 0.219739 0.38772
H_ H_ 0.313896 0.370785 0.232006 0.11467
H_ H_ 0.438024 0.255517 0.137732 0.11467
H_ H_ 0.959432 0.392323 0.0976761 0.11467
C_ C_ 0.20134 0.0683584 0.184442 0.73666
C_ C_ 0.175148 0.203073 0.0550878 0.73666
C_ C_ 0.163787 0.108204 0.159989 -0.12398
C_ C_ 0.107455 0.117126 0.173742 -0.14019
C_ C_ 0.0712144 0.155375 0.15423 0.32882
C_ C_ 0.0962069 0.184683 0.120173 -0.14019
C_ C_ 0.15456 0.171932 0.0984187 -0.12398
C_ C_ 0.188053 0.133837 0.119429 -0.14019
C_ C_ 0.460297 0.418076 0.307316 0.73666
C_ C_ 0.449485 0.294655 0.444464 0.73666
C_ C_ 0.430338 0.386954 0.341411 -0.12398
C_ C_ 0.899662 0.393906 0.320998 -0.14019
C_ C_ 0.877274 0.359644 0.346273 0.32882
C_ C_ 0.888901 0.334628 0.38385 -0.14019
C_ C_ 0.423857 0.328563 0.41096 -0.12398
C_ C_ 0.453003 0.354893 0.374912 -0.14019
C_ C_ 0.118592 0.194021 0.43693 0.73666
C_ C_ 0.253095 0.0621147 0.302411 0.73666
C_ C_ 0.145132 0.178557 0.385325 -0.12398
C_ C_ 0.118638 0.205539 0.354884 -0.14019
C_ C_ 0.135343 0.186816 0.311377 0.32882
C_ C_ 0.178227 0.14198 0.295521 -0.14019
C_ C_ 0.205335 0.112042 0.322427 -0.12398
C_ C_ 0.186877 0.130775 0.368496 -0.14019
C_ C_ 0.251448 0.311966 0.0511949 0.73666
C_ C_ 0.12693 0.439643 0.185689 0.73666
C_ C_ 0.208607 0.329908 0.10373 -0.12398
C_ C_ 0.196558 0.296894 0.137298 -0.14019
C_ C_ 0.164243 0.310329 0.183979 0.32882
C_ C_ 0.137953 0.356894 0.199438 -0.14019
C_ C_ 0.148878 0.391935 0.165365 -0.12398
C_ C_ 0.186463 0.378191 0.117992 -0.14019
C_ C_ 0.181465 0.308418 0.452237 0.73666
C_ C_ 0.186774 0.435778 0.310423 0.73666
C_ C_ 0.178757 0.329105 0.405004 -0.12398
C_ C_ 0.167224 0.30502 0.379722 -0.14019
C_ C_ 0.183644 0.312065 0.331066 0.32882
C_ C_ 0.192869 0.3539 0.310246 -0.14019
C_ C_ 0.185338 0.388458 0.336345 -0.12398
C_ C_ 0.185439 0.373704 0.383091 -0.14019
C_ C_ 0.439528 0.188885 0.0580485 0.73666
C_ C_ 0.436708 0.0555869 0.188006 0.73666
C_ C_ 0.411868 0.17154 0.107989 -0.12398
C_ C_ 0.355893 0.199538 0.137781 -0.14019
C_ C_ 0.327485 0.179934 0.182969 0.32882
C_ C_ 0.355108 0.135349 0.198336 -0.14019
C_ C_ 0.41108 0.106217 0.167707 -0.12398
C_ C_ 0.439196 0.122517 0.122525 -0.14019
C_ C_ 0.00474244 0.0589653 0.312981 0.73666
C_ C_ 0.375186 0.188555 0.449964 0.73666
C_ C_ 0.481029 0.103826 0.335996 -0.12398
C_ C_ 0.499107 0.137753 0.306516 -0.14019
C_ C_ 0.473569 0.18418 0.320914 0.32882
C_ C_ 0.43936 0.197538 0.366323 -0.14019
C_ C_ 0.421064 0.167233 0.399754 -0.12398
C_ C_ 0.442465 0.11901 0.383709 -0.14019
C_ C_ 0.367713 0.43094 0.196348 0.73666
C_ C_ 1.00534088 0.304521 0.0600898 0.73666
C_ C_ 0.385605 0.384794 0.174225 -0.12398
C_ C_ 0.354657 0.357072 0.201226 -0.14019
C_ C_ 0.377899 0.309797 0.189301 0.32882
C_ C_ 0.421702 0.292481 0.146978 -0.14019
C_ C_ 0.449155 0.32101 0.112927 -0.12398
C_ C_ 0.433811 0.365665 0.129464 -0.14019
O_ O_ 0.18039 0.0475841 0.224473 -0.78662
O_ O_ 0.259053 0.0541616 0.162624 -0.56571
O_ O_ 0.164445 0.204593 0.0180737 -0.61745
O_ O_ 0.20097 0.228339 0.0558103 -0.76398
O_ O_ 0.020076 0.162708 0.168588 -0.50924
O_ O_ 0.447781 0.446609 0.272457 -0.78662
O_ O_ 0.508301 0.41207 0.307994 -0.56571
O_ O_ 0.439238 0.255756 0.458699 -0.61745
O_ O_ 0.48163 0.301393 0.456165 -0.76398
O_ O_ 0.851874 0.349362 0.329108 -0.50924
O_ O_ 0.0972843 0.238039 0.451252 -0.78662
O_ O_ 0.111357 0.163295 0.469036 -0.56571
O_ O_ 0.305613 0.0585558 0.271295 -0.61745
O_ O_ 0.242074 0.0266898 0.303926 -0.76398
O_ O_ 0.107134 0.209312 0.285862 -0.50924
O_ O_ 0.289118 0.266595 0.0406919 -0.78662
O_ O_ 0.245096 0.339061 0.0164276 -0.56571
O_ O_ 0.14887 0.442752 0.213382 -0.61745
O_ O_ 0.0756267 0.470501 0.189556 -0.76398
O_ O_ 0.148903 0.278988 0.211247 -0.50924
O_ O_ 0.193267 0.26428 0.463181 -0.78662
O_ O_ 0.19124 0.33265 0.473966 -0.56571
O_ O_ 0.142015 0.466487 0.30302 -0.61745
O_ O_ 0.234067 0.440696 0.287968 -0.76398
O_ O_ 0.198194 0.279697 0.305663 -0.50924
O_ O_ 0.418202 0.232811 0.0422684 -0.78662
O_ O_ 0.482755 0.157045 0.0256562 -0.56571
O_ O_ 0.415873 0.0253752 0.189873 -0.61745
O_ O_ 0.463649 0.0485669 0.215446 -0.76398
O_ O_ 0.791166 0.210319 0.211416 -0.50924
O_ O_ 0.0409945 0.0455678 0.267748 -0.78662
O_ O_ -0.020413000000000014 0.0304463 0.340934 -0.56571
O_ O_ 0.394298 0.191512 0.48011 -0.61745
O_ O_ 0.32068 0.214537 0.457285 -0.76398
O_ O_ 0.486716 0.214654 0.294239 -0.50924
O_ O_ 0.345368 0.437263 0.242305 -0.78662
O_ O_ 0.3739 0.466624 0.168592 -0.56571
O_ O_ 0.0598589 0.280662 0.052958 -0.61745
O_ O_ 0.983832 0.298413 0.032873 -0.76398
O_ O_ 0.347594 0.287956 0.21378 -0.50924
Ca Ca 0.253778 0.510829 0.731942 1.67025
Ca Ca 0.49259 0.503217 0.773544 1.67025
Ca Ca 0.0132128 0.22825 -0.0016620000000000523 1.67025
Ca Ca 0.240838 0.271752 0.996119 1.67025
Cd Cd 0.130298 0.00442238 0.754131 1.08508
Cd Cd 0.390144 0.497512 0.741834 1.08508
Cd Cd 0.12098 0.261509 0.986077 1.08508
Cd Cd 0.371015 0.250299 0.516372 1.08508
H_ H_ 0.000414524 0.143991 0.666823 0.38772
H_ H_ 0.0913298 0.0924587 0.710024 0.11467
H_ H_ 0.0721385 0.201392 0.608121 0.11467
H_ H_ 0.239565 0.113434 0.608664 0.11467
H_ H_ 0.0640252 0.261917 0.741594 0.38772
H_ H_ 0.00173516 0.360643 0.750758 0.11467
H_ H_ 1.012612 0.250662 0.856523 0.11467
H_ H_ 0.418099 0.396022 0.901496 0.11467
H_ H_ 0.164437 0.231696 0.759085 0.38772
H_ H_ 0.128528 0.237418 0.867507 0.11467
H_ H_ 0.233858 0.134972 0.762054 0.11467
H_ H_ 0.191395 0.089484 0.905984 0.11467
H_ H_ 0.368978 0.36731 0.591999 0.38772
H_ H_ 0.326951 0.307063 0.58463 0.11467
H_ H_ 0.238058 0.432681 0.666303 0.11467
H_ H_ 0.141919 0.361876 0.657978 0.11467
H_ H_ 0.339966 0.364972 0.887534 0.38772
H_ H_ 0.282031 0.299961 0.898584 0.11467
H_ H_ 0.275307 0.429838 0.834277 0.11467
H_ H_ 0.133061 0.390781 0.870247 0.11467
H_ H_ 0.776715 0.234181 0.723359 0.38772
H_ H_ 0.34144 0.202293 0.587572 0.11467
H_ H_ 0.83978 0.127043 0.727966 0.11467
H_ H_ 0.485184 0.118981 0.628263 0.11467
H_ H_ 0.345124 0.212525 0.777622 0.38772
H_ H_ 0.453693 0.12458 0.756282 0.11467
H_ H_ 0.372666 0.241621 0.847996 0.11467
H_ H_ 0.444268 0.102123 0.898135 0.11467
H_ H_ 0.371315 0.287204 0.752938 0.38772
H_ H_ 0.361327 0.37965 0.745298 0.11467
H_ H_ 0.462919 0.268173 0.648277 0.11467
H_ H_ 0.946697 0.405178 0.59434 0.11467
C_ C_ 0.201607 0.0607228 0.690221 0.73666
C_ C_ 0.180922 0.195647 0.564944 0.73666
C_ C_ 0.168706 0.0983017 0.663917 -0.12398
C_ C_ 0.110363 0.105519 0.67845 -0.14019
C_ C_ 0.0765857 0.141638 0.65818 0.32882
C_ C_ 0.0998567 0.171297 0.623776 -0.14019
C_ C_ 0.158993 0.161643 0.603243 -0.12398
C_ C_ 0.19346 0.122792 0.624315 -0.14019
C_ C_ 0.437264 0.440992 0.810885 0.73666
C_ C_ 0.434012 0.306552 0.93657 0.73666
C_ C_ 0.446033 0.389054 0.823829 -0.12398
C_ C_ 0.991536 0.352282 0.788709 -0.14019
C_ C_ 1.012364 0.30341 0.799973 0.32882
C_ C_ 0.993075 0.288618 0.847369 -0.14019
C_ C_ 0.441676 0.325471 0.886907 -0.12398
C_ C_ 0.430799 0.372731 0.874098 -0.14019
C_ C_ 0.12679 0.184903 0.94275 0.73666
C_ C_ 0.261422 0.0549535 0.809266 0.73666
C_ C_ 0.158474 0.167007 0.891848 -0.12398
C_ C_ 0.153895 0.2012 0.857003 -0.14019
C_ C_ 0.183186 0.190267 0.81067 0.32882
C_ C_ 0.219912 0.142299 0.797799 -0.14019
C_ C_ 0.224122 0.105025 0.829685 -0.12398
C_ C_ 0.193182 0.118287 0.878003 -0.14019
C_ C_ 0.237205 0.299582 0.579642 0.73666
C_ C_ 0.128325 0.441666 0.698609 0.73666
C_ C_ 0.235366 0.334306 0.611356 -0.12398
C_ C_ 0.287999 0.333123 0.604448 -0.14019
C_ C_ 0.287817 0.369132 0.624123 0.32882
C_ C_ 0.237672 0.404819 0.651983 -0.14019
C_ C_ 0.181311 0.402945 0.66768 -0.12398
C_ C_ 0.182906 0.365749 0.646711 -0.14019
C_ C_ 0.168116 0.313854 0.930585 0.73666
C_ C_ 0.186732 0.4524 0.809413 0.73666
C_ C_ 0.200783 0.341967 0.894255 -0.12398
C_ C_ 0.255743 0.332867 0.889395 -0.14019
C_ C_ 0.281599 0.365353 0.871519 0.32882
C_ C_ 0.25513 0.405634 0.849792 -0.14019
C_ C_ 0.204483 0.41435 0.84293 -0.12398
C_ C_ 0.173953 0.383576 0.870673 -0.14019
C_ C_ 0.451165 0.195237 0.570732 0.73666
C_ C_ 0.431158 0.0591434 0.698284 0.73666
C_ C_ 0.419113 0.16545 0.604493 -0.12398
C_ C_ 0.361412 0.179654 0.61216 -0.14019
C_ C_ 0.326482 0.159641 0.65065 0.32882
C_ C_ 0.351675 0.117714 0.673643 -0.14019
C_ C_ 0.407788 0.102696 0.667781 -0.12398
C_ C_ 0.442026 0.12742 0.632113 -0.14019
C_ C_ 0.0125437 0.0507855 0.817586 0.73666
C_ C_ 0.371099 0.196037 0.932535 0.73666
C_ C_ 0.465253 0.109531 0.821393 -0.12398
C_ C_ 0.444414 0.138754 0.789403 -0.14019
C_ C_ 0.406859 0.187821 0.801224 0.32882
C_ C_ 0.389929 0.204425 0.844796 -0.14019
C_ C_ 0.396568 0.175207 0.88339 -0.12398
C_ C_ 0.433993 0.125509 0.870304 -0.14019
C_ C_ 0.363086 0.453131 0.690725 0.73666
C_ C_ 1.00506874 0.304989 0.562363 0.73666
C_ C_ 0.398226 0.402666 0.675108 -0.12398
C_ C_ 0.391583 0.368602 0.709373 -0.14019
C_ C_ 0.416093 0.320471 0.698609 0.32882
C_ C_ 0.453724 0.303427 0.653163 -0.14019
C_ C_ 0.461565 0.335861 0.615011 -0.12398
C_ C_ 0.432842 0.385716 0.627769 -0.14019
O_ O_ 0.180773 0.0399866 0.728901 -0.78662
O_ O_ 0.254235 0.0578127 0.680641 -0.56571
O_ O_ 0.145218 0.234416 0.553501 -0.61745
O_ O_ 0.233933 0.190863 0.549351 -0.76398
O_ O_ 0.0252884 0.14939 0.671015 -0.50924
O_ O_ 0.453516 0.456121 0.765055 -0.78662
O_ O_ 0.439828 0.464509 0.839688 -0.56571
O_ O_ 0.382101 0.308925 0.965945 -0.61745
O_ O_ 0.47876 0.270426 0.941498 -0.76398
O_ O_ 0.0526007 0.274468 0.768455 -0.50924
O_ O_ 0.0999959 0.230895 0.949306 -0.78662
O_ O_ 0.106444 0.159299 0.977526 -0.56571
O_ O_ 0.310887 0.0477678 0.772022 -0.61745
O_ O_ 0.236263 0.0298363 0.811247 -0.76398
O_ O_ 0.177205 0.220239 0.779141 -0.50924
O_ O_ 0.282565 0.264454 0.551229 -0.78662
O_ O_ 0.187724 0.304257 0.582196 -0.56571
O_ O_ 0.123161 0.483914 0.69908 -0.61745
O_ O_ 0.0804601 0.433973 0.725878 -0.76398
O_ O_ 0.33616 0.368442 0.616395 -0.50924
O_ O_ 0.190638 0.274896 0.952115 -0.78662
O_ O_ 0.113149 0.330905 0.942692 -0.56571
O_ O_ 0.164548 0.448481 0.782673 -0.61745
O_ O_ 0.202465 0.486727 0.802101 -0.76398
O_ O_ 0.32818 0.356133 0.871209 -0.50924
O_ O_ 0.431548 0.231306 0.544576 -0.78662
O_ O_ 0.498042 0.190466 0.572029 -0.56571
O_ O_ 0.420199 0.0218573 0.702959 -0.61745
O_ O_ 0.46628 0.0565583 0.716406 -0.76398
O_ O_ 0.78902 0.212957 0.702734 -0.50924
O_ O_ 0.0437608 0.0408623 0.770613 -0.78662
O_ O_ 0.999065 0.017037 0.843544 -0.56571
O_ O_ 0.391922 0.221135 0.940044 -0.61745
O_ O_ 0.318394 0.19984 0.962997 -0.76398
O_ O_ 0.376038 0.209146 0.778627 -0.50924
O_ O_ 0.341781 0.46683 0.735896 -0.78662
O_ O_ 0.342615 0.484787 0.663583 -0.56571
O_ O_ 0.0549608 0.303033 0.537447 -0.61745
O_ O_ 0.987583 0.276713 0.553989 -0.76398
O_ O_ 0.399068 0.293058 0.731206 -0.50924
Ca Ca 0.271187 0.000862537 0.232483 1.67025
Ca Ca 0.499057 0.992648 0.266902 1.67025
Ca Ca 0.0107766 0.735642 0.495655 1.67025
Ca Ca 0.262888 0.761977 0.488827 1.67025
Cd Cd 0.125222 0.501877 0.244761 1.08508
Cd Cd 0.378129 0.995236 0.251337 1.08508
Cd Cd 0.141607 0.747409 0.487727 1.08508
Cd Cd 0.370274 0.755323 0.013065 1.08508
H_ H_ 0.0256013 0.720739 0.244045 0.38772
H_ H_ 0.116615 0.621001 0.244785 0.11467
H_ H_ 0.114251 0.735838 0.147489 0.11467
H_ H_ 0.222052 0.591807 0.0965707 0.11467
H_ H_ 0.757179 0.905752 0.383 0.38772
H_ H_ 0.852477 0.932713 0.317942 0.11467
H_ H_ 0.825182 0.845233 0.436139 0.11467
H_ H_ 0.417374 0.903334 0.398611 0.11467
H_ H_ 0.108107 0.71444 0.283227 0.38772
H_ H_ 0.114401 0.7343 0.366428 0.11467
H_ H_ 0.206725 0.620215 0.270059 0.11467
H_ H_ 0.204645 0.592272 0.407732 0.11467
H_ H_ 0.357904 0.889312 0.089196 0.38772
H_ H_ 0.328802 0.813953 0.0827444 0.11467
H_ H_ 0.236802 0.935735 0.164178 0.11467
H_ H_ 0.142716 0.876378 0.14575 0.11467
H_ H_ 0.102476 0.822162 0.319374 0.38772
H_ H_ 0.166538 0.782267 0.384159 0.11467
H_ H_ 0.151054 0.890754 0.28325 0.11467
H_ H_ 0.219213 0.889382 0.379071 0.11467
H_ H_ 0.738944 0.688121 0.16155 0.38772
H_ H_ 0.349845 0.737032 0.140306 0.11467
H_ H_ 0.820655 0.606755 0.204419 0.11467
H_ H_ 0.458839 0.593781 0.104669 0.11467
H_ H_ 0.369196 0.718478 0.283348 0.38772
H_ H_ 0.474016 0.625972 0.268343 0.11467
H_ H_ 0.36139 0.725266 0.37717 0.11467
H_ H_ 0.458654 0.583788 0.410601 0.11467
H_ H_ 0.448512 0.763019 0.243885 0.38772
H_ H_ 0.392734 0.862221 0.243391 0.11467
H_ H_ 0.481227 0.754608 0.140165 0.11467
H_ H_ 0.905164 0.894168 0.100011 0.11467
C_ C_ 0.195632 0.548448 0.185184 0.73666
C_ C_ 0.185985 0.689483 0.0614201 0.73666
C_ C_ 0.174105 0.600309 0.172937 -0.12398
C_ C_ 0.129348 0.632699 0.208995 -0.14019
C_ C_ 0.106736 0.680724 0.197817 0.32882
C_ C_ 0.12875 0.698136 0.152444 -0.14019
C_ C_ 0.171808 0.667894 0.113865 -0.12398
C_ C_ 0.192628 0.617447 0.124316 -0.14019
C_ C_ 0.436694 0.941043 0.307505 0.73666
C_ C_ 0.446825 0.80519 0.436941 0.73666
C_ C_ 0.456891 0.887926 0.323887 -0.12398
C_ C_ 0.87416 0.90487 0.338805 -0.14019
C_ C_ 0.839855 0.8851 0.373131 0.32882
C_ C_ 0.856788 0.85636 0.408105 -0.14019
C_ C_ 0.456477 0.825979 0.386255 -0.12398
C_ C_ 0.440328 0.876089 0.372779 -0.14019
C_ C_ 0.123244 0.68447 0.44619 0.73666
C_ C_ 0.258857 0.548779 0.315046 0.73666
C_ C_ 0.147933 0.665539 0.396931 -0.12398
C_ C_ 0.134975 0.69694 0.360789 -0.14019
C_ C_ 0.157792 0.67938 0.315136 0.32882
C_ C_ 0.193732 0.632166 0.303593 -0.14019
C_ C_ 0.215217 0.599962 0.333243 -0.12398
C_ C_ 0.187934 0.616165 0.38082 -0.14019
C_ C_ 0.235456 0.806656 0.0757284 0.73666
C_ C_ 0.125804 0.947348 0.194077 0.73666
C_ C_ 0.234645 0.838153 0.10749 -0.12398
C_ C_ 0.286662 0.840984 0.10203 -0.14019
C_ C_ 0.286232 0.876598 0.123946 0.32882
C_ C_ 0.232543 0.910151 0.152246 -0.14019
C_ C_ 0.18118 0.911151 0.158847 -0.12398
C_ C_ 0.182055 0.876457 0.136688 -0.14019
C_ C_ 0.195618 0.812602 0.4368 0.73666
C_ C_ 0.187919 0.945104 0.305066 0.73666
C_ C_ 0.191678 0.833841 0.38956 -0.12398
C_ C_ 0.169867 0.814888 0.370238 -0.14019
C_ C_ 0.156704 0.833051 0.332791 0.32882
C_ C_ 0.168561 0.871468 0.309846 -0.14019
C_ C_ 0.190039 0.895443 0.325362 -0.12398
C_ C_ 0.199718 0.875533 0.367036 -0.14019
C_ C_ 0.433019 0.685824 0.065879 0.73666
C_ C_ 0.423849 0.554561 0.201459 0.73666
C_ C_ 0.40703 0.667475 0.116087 -0.12398
C_ C_ 0.359871 0.69961 0.149509 -0.14019
C_ C_ 0.337748 0.686826 0.196772 0.32882
C_ C_ 0.356757 0.639404 0.211479 -0.14019
C_ C_ 0.403008 0.603008 0.179336 -0.12398
C_ C_ 0.428834 0.6189 0.132108 -0.14019
C_ C_ 0.00969534 0.562326 0.305022 0.73666
C_ C_ 0.377706 0.679524 0.451865 0.73666
C_ C_ 0.471475 0.595809 0.33695 -0.12398
C_ C_ 0.457069 0.630436 0.305213 -0.14019
C_ C_ 0.415915 0.674975 0.320599 0.32882
C_ C_ 0.394401 0.68925 0.366856 -0.14019
C_ C_ 0.404912 0.656667 0.401751 -0.12398
C_ C_ 0.445113 0.609213 0.386631 -0.14019
C_ C_ 0.384357 0.940904 0.187745 0.73666
C_ C_ 0.00966076 0.813918 0.0485761 0.73666
C_ C_ 0.415558 0.889361 0.169881 -0.12398
C_ C_ 0.409562 0.853592 0.206616 -0.14019
C_ C_ 0.436494 0.806076 0.194197 0.32882
C_ C_ 0.4661 0.791975 0.146332 -0.14019
C_ C_ 0.462844 0.824901 0.109957 -0.12398
C_ C_ 0.440523 0.873178 0.121197 -0.14019
O_ O_ 0.176173 0.537003 0.229405 -0.78662
O_ O_ 0.250649 0.521687 0.161739 -0.56571
O_ O_ 0.139957 0.717969 0.0531879 -0.61745
O_ O_ 0.233752 0.693727 0.0359554 -0.76398
O_ O_ 0.0633907 0.709227 0.229187 -0.50924
O_ O_ 0.451558 0.953194 0.262157 -0.78662
O_ O_ 0.418227 0.975376 0.336827 -0.56571
O_ O_ 0.399594 0.79955 0.461233 -0.61745
O_ O_ 0.493914 0.779922 0.444698 -0.76398
O_ O_ 0.794108 0.890135 0.373319 -0.50924
O_ O_ 0.103425 0.731021 0.452692 -0.78662
O_ O_ 0.102406 0.661604 0.484224 -0.56571
O_ O_ 0.315061 0.538333 0.292785 -0.61745
O_ O_ 0.241534 0.518932 0.308319 -0.76398
O_ O_ 0.139488 0.704856 0.28671 -0.50924
O_ O_ 0.282067 0.7734 0.0459436 -0.78662
O_ O_ 0.186558 0.80904 0.0818639 -0.56571
O_ O_ 0.125037 0.953453 0.235 -0.61745
O_ O_ 0.0764006 0.971575 0.189856 -0.76398
O_ O_ 0.331845 0.880578 0.111481 -0.50924
O_ O_ 0.207796 0.767162 0.446484 -0.78662
O_ O_ 0.20913 0.834014 0.45813 -0.56571
O_ O_ 0.138351 0.976608 0.304585 -0.61745
O_ O_ 0.237076 0.945684 0.270958 -0.76398
O_ O_ 0.136176 0.816374 0.317765 -0.50924
O_ O_ 0.412997 0.732023 0.0559867 -0.78662
O_ O_ 0.48981 0.660388 0.0399292 -0.56571
O_ O_ 0.398099 0.527435 0.20749 -0.61745
O_ O_ 0.452549 0.547646 0.227834 -0.76398
O_ O_ 0.76525 0.685936 0.170587 -0.50924
O_ O_ 0.0432733 0.549871 0.260788 -0.78662
O_ O_ 1.000646519 0.53027 0.335892 -0.56571
O_ O_ 0.386449 0.715824 0.452738 -0.61745
O_ O_ 0.324022 0.684552 0.481317 -0.76398
O_ O_ 0.398288 0.703621 0.2911 -0.50924
O_ O_ 0.358274 0.950569 0.232992 -0.78662
O_ O_ 0.362008 0.971353 0.16133 -0.56571
O_ O_ 0.0617324 0.805455 0.0140069 -0.61745
O_ O_ 0.980656 0.790948 0.0503938 -0.76398
O_ O_ 0.434656 0.778102 0.224831 -0.50924
Ca Ca 0.263703 0.995504 0.740723 1.67025
Ca Ca 0.494427 -0.003977000000000008 0.767234 1.67025
Ca Ca -0.0011929999999999996 0.741852 -0.006869000000000014 1.67025
Ca Ca 0.229588 0.76499 0.0086507 1.67025
Cd Cd 0.118397 0.509375 0.757684 1.08508
Cd Cd 0.379478 0.989591 0.757233 1.08508
Cd Cd 0.128911 0.742208 0.993376 1.08508
Cd Cd 0.383343 0.745685 0.50561 1.08508
H_ H_ 0.205127 0.711184 0.713379 0.38772
H_ H_ 0.158589 0.633159 0.736679 0.11467
H_ H_ 0.193422 0.730348 0.623933 0.11467
H_ H_ 0.192134 0.603141 0.593086 0.11467
H_ H_ 0.0404883 0.765108 0.755616 0.38772
H_ H_ 1.0123686 0.866788 0.753144 0.11467
H_ H_ 1.000973262 0.759529 0.858448 0.11467
H_ H_ 0.397201 0.90189 0.899366 0.11467
H_ H_ 0.337256 0.646915 0.880713 0.38772
H_ H_ 0.21048 0.697598 0.922238 0.11467
H_ H_ 0.334712 0.582548 0.826074 0.11467
H_ H_ 0.156964 0.61371 0.872894 0.11467
H_ H_ 0.263336 0.779979 0.734294 0.38772
H_ H_ 0.28465 0.75949 0.630502 0.11467
H_ H_ 0.17616 0.861093 0.742158 0.11467
H_ H_ 0.184474 0.902783 0.600985 0.11467
H_ H_ 0.346414 0.742625 0.782508 0.38772
H_ H_ 0.263593 0.756217 0.878591 0.11467
H_ H_ 0.263542 0.853798 0.762279 0.11467
H_ H_ 0.148871 0.901444 0.902932 0.11467
H_ H_ 0.984312 0.710353 0.6936 0.38772
H_ H_ 0.438925 0.737738 0.625867 0.11467
H_ H_ 0.945492 0.628701 0.718932 0.11467
H_ H_ 0.447268 0.604448 0.606336 0.11467
H_ H_ 0.512665 0.735082 0.773184 0.38772
H_ H_ 0.525422 0.634597 0.767455 0.11467
H_ H_ 0.422818 0.745943 0.868304 0.11467
H_ H_ 0.424899 0.603828 0.910987 0.11467
H_ H_ 0.564949 0.790784 0.708734 0.38772
H_ H_ 0.455346 0.869533 0.729893 0.11467
H_ H_ 0.561833 0.768828 0.621361 0.11467
H_ H_ 0.911463 0.873933 0.610956 0.11467
C_ C_ 0.183467 0.558646 0.685368 0.73666
C_ C_ 0.203772 0.687967 0.552311 0.73666
C_ C_ 0.184277 0.60606 0.665893 -0.12398
C_ C_ 0.176419 0.637266 0.697721 -0.14019
C_ C_ 0.184984 0.680238 0.680022 0.32882
C_ C_ 0.193726 0.694265 0.633894 -0.14019
C_ C_ 0.199545 0.66698 0.599517 -0.12398
C_ C_ 0.191499 0.623693 0.616534 -0.14019
C_ C_ 0.438706 0.937881 0.811281 0.73666
C_ C_ 0.441397 0.811617 0.951324 0.73666
C_ C_ 0.466223 0.888182 0.830095 -0.12398
C_ C_ 0.995442 0.858902 0.789945 -0.14019
C_ C_ 1.0164643 0.811875 0.803424 0.32882
C_ C_ 0.994965 0.79662 0.848894 -0.14019
C_ C_ 0.467429 0.829213 0.899114 -0.12398
C_ C_ 0.437978 0.874806 0.879055 -0.14019
C_ C_ 0.110458 0.694612 0.931735 0.73666
C_ C_ 0.267844 0.560085 0.805926 0.73666
C_ C_ 0.173002 0.662626 0.901229 -0.12398
C_ C_ 0.218518 0.673639 0.896336 -0.14019
C_ C_ 0.275783 0.647369 0.867187 0.32882
C_ C_ 0.289856 0.608337 0.842956 -0.14019
C_ C_ 0.248313 0.598354 0.839423 -0.12398
C_ C_ 0.188684 0.62653 0.86819 -0.14019
C_ C_ 0.26265 0.81098 0.556072 0.73666
C_ C_ 0.128104 0.939473 0.694121 0.73666
C_ C_ 0.237455 0.827489 0.609027 -0.12398
C_ C_ 0.255308 0.796828 0.641072 -0.14019
C_ C_ 0.228124 0.809037 0.689807 0.32882
C_ C_ 0.189717 0.855771 0.705071 -0.14019
C_ C_ 0.173551 0.889656 0.673052 -0.12398
C_ C_ 0.198217 0.876276 0.624617 -0.14019
C_ C_ 0.181966 0.811254 0.949167 0.73666
C_ C_ 0.196147 0.93604 0.80904 0.73666
C_ C_ 0.206504 0.826583 0.895797 -0.12398
C_ C_ 0.254669 0.792332 0.865255 -0.14019
C_ C_ 0.277253 0.801091 0.817433 0.32882
C_ C_ 0.254773 0.847965 0.799982 -0.14019
C_ C_ 0.211554 0.886393 0.831131 -0.12398
C_ C_ 0.183793 0.874529 0.878963 -0.14019
C_ C_ 0.443967 0.690674 0.561266 0.73666
C_ C_ 0.446781 0.56475 0.698252 0.73666
C_ C_ 0.440904 0.674673 0.610285 -0.12398
C_ C_ 0.440768 0.703715 0.638098 -0.14019
C_ C_ 0.452104 0.686418 0.678498 0.32882
C_ C_ 0.45849 0.640067 0.6943 -0.14019
C_ C_ 0.444414 0.612986 0.675278 -0.12398
C_ C_ 0.440886 0.62901 0.630666 -0.14019
C_ C_ 0.994742 0.553475 0.819846 0.73666
C_ C_ 0.375872 0.698816 0.94716 0.73666
C_ C_ 0.486102 0.609912 0.836348 -0.12398
C_ C_ 0.500566 0.644878 0.803619 -0.14019
C_ C_ 0.478073 0.690987 0.816035 0.32882
C_ C_ 0.437996 0.708029 0.86211 -0.14019
C_ C_ 0.420933 0.677349 0.896109 -0.12398
C_ C_ 0.444633 0.626919 0.884125 -0.14019
C_ C_ 0.375341 0.933294 0.693647 0.73666
C_ C_ 0.0182379 0.810272 0.545377 0.73666
C_ C_ 0.425779 0.885868 0.67233 -0.12398
C_ C_ 0.461652 0.859045 0.696611 -0.14019
C_ C_ 0.507985 0.815408 0.680041 0.32882
C_ C_ 0.521159 0.795955 0.637348 -0.14019
C_ C_ 0.489981 0.821779 0.60914 -0.12398
C_ C_ 0.441169 0.868079 0.627961 -0.14019
O_ O_ 0.161396 0.55114 0.731089 -0.78662
O_ O_ 0.225807 0.520299 0.659959 -0.56571
O_ O_ 0.155948 0.71181 0.544101 -0.61745
O_ O_ 0.249818 0.695746 0.525445 -0.76398
O_ O_ 0.183563 0.705376 0.705753 -0.50924
O_ O_ 0.453312 0.950457 0.767108 -0.78662
O_ O_ 0.41068 0.973962 0.840052 -0.56571
O_ O_ 0.422437 0.778074 0.95628 -0.61745
O_ O_ 0.461621 0.808738 0.981937 -0.76398
O_ O_ 0.0445423 0.780953 0.771148 -0.50924
O_ O_ 0.0936439 0.732453 0.956289 -0.78662
O_ O_ 0.0711786 0.689832 0.925358 -0.56571
O_ O_ 0.317992 0.522151 0.799811 -0.61745
O_ O_ 0.242509 0.566666 0.777489 -0.76398
O_ O_ 0.312608 0.656663 0.868408 -0.50924
O_ O_ 0.295824 0.765877 0.542506 -0.78662
O_ O_ 0.234148 0.83748 0.530065 -0.56571
O_ O_ 0.146606 0.968719 0.697824 -0.61745
O_ O_ 0.0750623 0.943952 0.718073 -0.76398
O_ O_ 0.24566 0.782153 0.718101 -0.50924
O_ O_ 0.190676 0.76611 0.958269 -0.78662
O_ O_ 0.164978 0.838462 0.983 -0.56571
O_ O_ 0.182407 0.941912 0.772148 -0.61745
O_ O_ 0.218219 0.963472 0.810356 -0.76398
O_ O_ 0.314345 0.766957 0.790224 -0.50924
O_ O_ 0.425196 0.734797 0.549765 -0.78662
O_ O_ 0.48551 0.660658 0.525875 -0.56571
O_ O_ 0.398857 0.560244 0.72513 -0.61745
O_ O_ 0.492855 0.537031 0.705088 -0.76398
O_ O_ 0.961833 0.703305 0.687918 -0.50924
O_ O_ 0.0316454 0.53985 0.776835 -0.78662
O_ O_ 0.96158 0.531611 0.84097 -0.56571
O_ O_ 0.395834 0.696858 0.978469 -0.61745
O_ O_ 0.324912 0.731021 0.952801 -0.76398
O_ O_ 0.492135 0.718657 0.785096 -0.50924
O_ O_ 0.356289 0.945111 0.737965 -0.78662
O_ O_ 0.346321 0.958676 0.669691 -0.56571
O_ O_ 0.0642118 0.802901 0.502267 -0.61745
O_ O_ 0.983446 0.79424 0.548964 -0.76398
O_ O_ 0.536923 0.794635 0.702688 -0.50924
Ca Ca 0.766262 0.501703 0.239292 1.67025
Ca Ca 1.00267657 0.505893 0.262092 1.67025
Ca Ca 0.520024 0.234595 0.496889 1.67025
Ca Ca 0.74475 0.267865 0.513136 1.67025
Cd Cd 0.624606 0.00469691 0.251374 1.08508
Cd Cd 0.882322 0.493276 0.257386 1.08508
Cd Cd 0.629082 0.249052 0.498586 1.08508
Cd Cd 0.871233 0.248426 0.00112565 1.08508
H_ H_ 0.504465 0.127736 0.175955 0.38772
H_ H_ 0.605507 0.0665383 0.191673 0.11467
H_ H_ 0.573143 0.17559 0.0933523 0.11467
H_ H_ 0.722738 0.133788 0.128706 0.11467
H_ H_ 0.263184 0.384221 0.395556 0.38772
H_ H_ 0.362569 0.408354 0.319391 0.11467
H_ H_ 0.347336 0.317592 0.4395 0.11467
H_ H_ 0.973358 0.382021 0.387262 0.11467
H_ H_ 0.584686 0.205211 0.296737 0.38772
H_ H_ 0.591139 0.23052 0.380528 0.11467
H_ H_ 0.686931 0.118315 0.281314 0.11467
H_ H_ 0.728068 0.100654 0.400676 0.11467
H_ H_ 0.613581 0.270893 0.235001 0.38772
H_ H_ 0.725199 0.256562 0.139391 0.11467
H_ H_ 0.606613 0.366653 0.239184 0.11467
H_ H_ 0.691163 0.398905 0.0965951 0.11467
H_ H_ 0.596292 0.315796 0.328758 0.38772
H_ H_ 0.659889 0.279322 0.392571 0.11467
H_ H_ 0.629636 0.399286 0.304576 0.11467
H_ H_ 0.717513 0.388081 0.384883 0.11467
H_ H_ 0.241909 0.20928 0.204817 0.38772
H_ H_ 0.845479 0.235884 0.125112 0.11467
H_ H_ 0.335812 0.122106 0.232149 0.11467
H_ H_ 0.973876 0.0910815 0.0960047 0.11467
H_ H_ 0.959799 0.240456 0.264807 0.38772
H_ H_ 0.00376009 0.13743 0.262103 0.11467
H_ H_ 0.923613 0.23762 0.37058 0.11467
H_ H_ 0.931302 0.0945278 0.402335 0.11467
H_ H_ 0.856813 0.27511 0.235674 0.38772
H_ H_ 0.860853 0.36723 0.242499 0.11467
H_ H_ 0.948568 0.262837 0.135627 0.11467
H_ H_ 0.451588 0.389589 0.108107 0.11467
C_ C_ 0.695798 0.0710505 0.201771 0.73666
C_ C_ 0.670124 0.194641 0.0628174 0.73666
C_ C_ 0.667101 0.0982617 0.166316 -0.12398
C_ C_ 0.619315 0.0928218 0.170336 -0.14019
C_ C_ 0.587194 0.120975 0.145935 0.32882
C_ C_ 0.601326 0.154994 0.111924 -0.14019
C_ C_ 0.652014 0.16052 0.102329 -0.12398
C_ C_ 0.683431 0.13266 0.13147 -0.14019
C_ C_ 0.958563 0.440073 0.3092 0.73666
C_ C_ 0.93622 0.30516 0.439378 0.73666
C_ C_ 0.933768 0.402986 0.335673 -0.12398
C_ C_ 0.376274 0.391338 0.347044 -0.14019
C_ C_ 0.34429 0.368694 0.385977 0.32882
C_ C_ 0.371627 0.33534 0.414275 -0.14019
C_ C_ 0.925712 0.338862 0.399633 -0.12398
C_ C_ 0.946722 0.375295 0.375911 -0.14019
C_ C_ 0.635921 0.18976 0.445792 0.73666
C_ C_ 0.754558 0.0518877 0.317791 0.73666
C_ C_ 0.652812 0.167197 0.400432 -0.12398
C_ C_ 0.623378 0.193438 0.371596 -0.14019
C_ C_ 0.634777 0.173452 0.332017 0.32882
C_ C_ 0.671466 0.12748 0.318298 -0.14019
C_ C_ 0.707113 0.0982076 0.34225 -0.12398
C_ C_ 0.696912 0.118814 0.384481 -0.14019
C_ C_ 0.754456 0.30852 0.0576239 0.73666
C_ C_ 0.620444 0.440873 0.188284 0.73666
C_ C_ 0.711774 0.325478 0.109583 -0.12398
C_ C_ 0.704749 0.293649 0.146539 -0.14019
C_ C_ 0.660197 0.308024 0.191633 0.32882
C_ C_ 0.639399 0.354621 0.20552 -0.14019
C_ C_ 0.649171 0.389796 0.172063 -0.12398
C_ C_ 0.682101 0.374438 0.123109 -0.14019
C_ C_ 0.703794 0.309745 0.440906 0.73666
C_ C_ 0.691972 0.438703 0.308358 0.73666
C_ C_ 0.689011 0.329711 0.396949 -0.12398
C_ C_ 0.660917 0.314253 0.381776 -0.14019
C_ C_ 0.643541 0.33827 0.345515 0.32882
C_ C_ 0.654715 0.377711 0.324633 -0.14019
C_ C_ 0.684951 0.393079 0.334655 -0.12398
C_ C_ 0.700162 0.370415 0.372924 -0.14019
C_ C_ 0.938002 0.182792 0.0501345 0.73666
C_ C_ 0.941883 0.0596746 0.192726 0.73666
C_ C_ 0.912859 0.166482 0.101331 -0.12398
C_ C_ 0.863936 0.199489 0.135811 -0.14019
C_ C_ 0.841161 0.185765 0.184069 0.32882
C_ C_ 0.871489 0.142991 0.201345 -0.14019
C_ C_ 0.919182 0.108359 0.170053 -0.12398
C_ C_ 0.940286 0.119038 0.119614 -0.14019
C_ C_ 0.503699 0.0550233 0.316987 0.73666
C_ C_ 0.874455 0.189879 0.44783 0.73666
C_ C_ 0.983556 0.10895 0.331202 -0.12398
C_ C_ -0.013704999999999967 0.144253 0.298602 -0.14019
C_ C_ 0.96646 0.189065 0.313615 0.32882
C_ C_ 0.935303 0.202178 0.361697 -0.14019
C_ C_ 0.920759 0.168303 0.396861 -0.12398
C_ C_ 0.947247 0.12065 0.380721 -0.14019
C_ C_ 0.883157 0.439922 0.187794 0.73666
C_ C_ 0.495929 0.300107 0.0629641 0.73666
C_ C_ 0.907327 0.389129 0.171957 -0.12398
C_ C_ 0.893036 0.355875 0.20594 -0.14019
C_ C_ 0.907855 0.308941 0.194462 0.32882
C_ C_ 0.939037 0.296597 0.145833 -0.14019
C_ C_ 0.963235 0.323327 0.110296 -0.12398
C_ C_ 0.944561 0.370739 0.125027 -0.14019
O_ O_ 0.672664 0.0450472 0.237268 -0.78662
O_ O_ 0.743415 0.0717423 0.194907 -0.56571
O_ O_ 0.660532 0.19732 0.0256616 -0.61745
O_ O_ 0.701742 0.214598 0.0626659 -0.76398
O_ O_ 0.541486 0.118117 0.156825 -0.50924
O_ O_ 0.954519 0.4639 0.269871 -0.78662
O_ O_ 0.000813806 0.436205 0.316088 -0.56571
O_ O_ 0.929245 0.265755 0.446076 -0.61745
O_ O_ 0.964308 0.308616 0.461451 -0.76398
O_ O_ 0.299531 0.371734 0.386458 -0.50924
O_ O_ 0.608217 0.235441 0.45196 -0.78662
O_ O_ 0.624454 0.167197 0.484842 -0.56571
O_ O_ 0.807103 0.0475074 0.287566 -0.61745
O_ O_ 0.73825 0.0221136 0.312806 -0.76398
O_ O_ 0.610696 0.198486 0.306245 -0.50924
O_ O_ 0.787909 0.262179 0.0469142 -0.78662
O_ O_ 0.742331 0.335944 0.0232348 -0.56571
O_ O_ 0.643322 0.449974 0.211662 -0.61745
O_ O_ 0.564437 0.463766 0.19973 -0.76398
O_ O_ 0.64256 0.279672 0.218746 -0.50924
O_ O_ 0.693656 0.273468 0.46869 -0.78662
O_ O_ 0.734386 0.324562 0.44817 -0.56571
O_ O_ 0.645578 0.471525 0.3031 -0.61745
O_ O_ 0.742559 0.441095 0.285201 -0.76398
O_ O_ 0.626717 0.318718 0.327139 -0.50924
O_ O_ 0.922353 0.228811 0.0379061 -0.78662
O_ O_ 0.987531 0.15162 0.019733 -0.56571
O_ O_ 0.922806 0.0263038 0.195624 -0.61745
O_ O_ 0.970787 0.053939 0.218249 -0.76398
O_ O_ 0.274682 0.199837 0.206851 -0.50924
O_ O_ 0.53657 0.0416089 0.272544 -0.78662
O_ O_ 0.492857 0.0214001 0.344881 -0.56571
O_ O_ 0.89401 0.187237 0.479359 -0.61745
O_ O_ 0.824769 0.223785 0.451366 -0.76398
O_ O_ 0.972807 0.220821 0.283119 -0.50924
O_ O_ 0.85779 0.45044 0.234308 -0.78662
O_ O_ 0.862792 0.473211 0.159498 -0.56571
O_ O_ 0.540961 0.262882 0.0625194 -0.61745
O_ O_ 0.476206 0.300442 0.0324753 -0.76398
O_ O_ 0.886053 0.281874 0.222383 -0.50924
Ca Ca 0.754932 0.500811 0.730767 1.67025
Ca Ca 0.98911 0.497577 0.762861 1.67025
Ca Ca 0.510095 0.228444 -0.00357023 1.67025
Ca Ca 0.740378 0.263597 1.0025718 1.67025
Cd Cd 0.623705 0.0115243 0.753662 1.08508
Cd Cd 0.880068 0.498657 0.74831 1.08508
Cd Cd 0.613173 0.255471 0.997687 1.08508
Cd Cd 0.866742 0.248889 0.50407 1.08508
H_ H_ 0.503227 0.176776 0.663379 0.38772
H_ H_ 0.577451 0.120898 0.714504 0.11467
H_ H_ 0.577277 0.229684 0.614263 0.11467
H_ H_ 0.736518 0.122213 0.610545 0.11467
H_ H_ 0.514925 0.255196 0.755332 0.38772
H_ H_ 0.485035 0.363356 0.753857 0.11467
H_ H_ 0.462156 0.257401 0.862378 0.11467
H_ H_ 0.897697 0.395825 0.895071 0.11467
H_ H_ 0.62141 0.239021 0.775187 0.38772
H_ H_ 0.589875 0.230906 0.873529 0.11467
H_ H_ 0.68819 0.128352 0.766195 0.11467
H_ H_ 0.706591 0.0904986 0.897169 0.11467
H_ H_ 0.545885 0.316508 0.685355 0.38772
H_ H_ 0.677484 0.278429 0.614197 0.11467
H_ H_ 0.547608 0.402371 0.692545 0.11467
H_ H_ 0.713635 0.398686 0.613491 0.11467
H_ H_ 0.872851 0.330015 0.84874 0.38772
H_ H_ 0.787601 0.297789 0.909056 0.11467
H_ H_ 0.797608 0.402765 0.811875 0.11467
H_ H_ 0.640137 0.385298 0.879109 0.11467
H_ H_ 0.250488 0.169868 0.654138 0.38772
H_ H_ 0.854345 0.233554 0.625942 0.11467
H_ H_ 0.325775 0.098453 0.701199 0.11467
H_ H_ 0.981549 0.0925273 0.589642 0.11467
H_ H_ 0.856634 0.208221 0.774295 0.38772
H_ H_ -0.03991100000000003 0.113592 0.770388 0.11467
H_ H_ 0.841 0.227408 0.869627 0.11467
H_ H_ 0.949419 0.0958055 0.913778 0.11467
H_ H_ 0.950361 0.262231 0.747325 0.38772
H_ H_ 0.902265 0.37375 0.74335 0.11467
H_ H_ 0.99705351 0.259004 0.647705 0.11467
H_ H_ 0.436725 0.410253 0.598415 0.11467
C_ C_ 0.689891 0.0638758 0.684589 0.73666
C_ C_ 0.69262 0.202496 0.557506 0.73666
C_ C_ 0.661235 0.112423 0.665806 -0.12398
C_ C_ 0.601756 0.132374 0.682452 -0.14019
C_ C_ 0.573368 0.174536 0.663257 0.32882
C_ C_ 0.602795 0.199012 0.627492 -0.14019
C_ C_ 0.662418 0.176594 0.602393 -0.12398
C_ C_ 0.691529 0.133427 0.623286 -0.14019
C_ C_ 0.931113 0.437849 0.806138 0.73666
C_ C_ 0.941959 0.300962 0.93215 0.73666
C_ C_ 0.953079 0.386882 0.823295 -0.12398
C_ C_ 0.466675 0.35524 0.789469 -0.14019
C_ C_ 0.471623 0.308583 0.803811 0.32882
C_ C_ 0.461439 0.293203 0.85105 -0.14019
C_ C_ 0.951984 0.320692 0.883819 -0.12398
C_ C_ 0.929954 0.369829 0.870724 -0.14019
C_ C_ 0.625559 0.181211 0.941282 0.73666
C_ C_ 0.748975 0.0530984 0.803602 0.73666
C_ C_ 0.647845 0.163094 0.892741 -0.12398
C_ C_ 0.62106 0.194369 0.863449 -0.14019
C_ C_ 0.638828 0.182841 0.81597 0.32882
C_ C_ 0.678617 0.137044 0.800311 -0.14019
C_ C_ 0.704072 0.101935 0.828455 -0.12398
C_ C_ 0.689656 0.116564 0.874235 -0.14019
C_ C_ 0.762219 0.308568 0.56627 0.73666
C_ C_ 0.61287 0.446717 0.690138 0.73666
C_ C_ 0.705156 0.333957 0.607345 -0.12398
C_ C_ 0.665727 0.313155 0.628795 -0.14019
C_ C_ 0.612753 0.334687 0.665986 0.32882
C_ C_ 0.592267 0.381564 0.678954 -0.14019
C_ C_ 0.630301 0.403748 0.663687 -0.12398
C_ C_ 0.685334 0.381224 0.625365 -0.14019
C_ C_ 0.670291 0.308739 0.940529 0.73666
C_ C_ 0.69265 0.444965 0.813939 0.73666
C_ C_ 0.707218 0.336051 0.903698 -0.12398
C_ C_ 0.767509 0.32082 0.887453 -0.14019
C_ C_ 0.79796 0.343698 0.852008 0.32882
C_ C_ 0.772721 0.383813 0.832401 -0.14019
C_ C_ 0.715638 0.400042 0.839635 -0.12398
C_ C_ 0.682292 0.376004 0.875594 -0.14019
C_ C_ 0.940718 0.186352 0.550275 0.73666
C_ C_ 0.940419 0.0547677 0.683029 0.73666
C_ C_ 0.914638 0.164608 0.598044 -0.12398
C_ C_ 0.862543 0.196338 0.631934 -0.14019
C_ C_ 0.835318 0.182937 0.677179 0.32882
C_ C_ 0.865779 0.139102 0.692092 -0.14019
C_ C_ 0.915321 0.103335 0.661905 -0.12398
C_ C_ 0.943772 0.118537 0.614378 -0.14019
C_ C_ 0.50335 0.0581756 0.809102 0.73666
C_ C_ 0.86492 0.19086 0.944801 0.73666
C_ C_ 0.96717 0.10122 0.835843 -0.12398
C_ C_ 0.942113 0.128728 0.803798 -0.14019
C_ C_ 0.897157 0.175905 0.816477 0.32882
C_ C_ 0.872451 0.192103 0.862774 -0.14019
C_ C_ 0.892182 0.165344 0.897469 -0.12398
C_ C_ 0.938443 0.118024 0.884695 -0.14019
C_ C_ 0.872325 0.445961 0.687539 0.73666
C_ C_ 0.501868 0.313926 0.565856 0.73666
C_ C_ 0.915706 0.39433 0.672387 -0.12398
C_ C_ 0.921885 0.360973 0.707914 -0.14019
C_ C_ 0.956501 0.311502 0.696762 0.32882
C_ C_ 0.975852 0.29536 0.652463 -0.14019
C_ C_ 0.973852 0.326223 0.61372 -0.12398
C_ C_ 0.948154 0.37771 0.62417 -0.14019
O_ O_ 0.667737 0.0533055 0.729478 -0.78662
O_ O_ 0.746135 0.0479667 0.663895 -0.56571
O_ O_ 0.660944 0.243702 0.546636 -0.61745
O_ O_ 0.745232 0.195593 0.546396 -0.76398
O_ O_ 0.522198 0.18581 0.671474 -0.50924
O_ O_ 0.945824 0.447725 0.76087 -0.78662
O_ O_ 0.919661 0.47088 0.832891 -0.56571
O_ O_ 0.888227 0.302275 0.962669 -0.61745
O_ O_ 0.988004 0.270348 0.939327 -0.76398
O_ O_ 0.486447 0.279694 0.772994 -0.50924
O_ O_ 0.601179 0.227033 0.950034 -0.78662
O_ O_ 0.605459 0.155594 0.975615 -0.56571
O_ O_ 0.797928 0.0521384 0.768548 -0.61745
O_ O_ 0.735397 0.0186983 0.803073 -0.76398
O_ O_ 0.618523 0.214366 0.791414 -0.50924
O_ O_ 0.789996 0.26289 0.563086 -0.78662
O_ O_ 0.772603 0.329143 0.525055 -0.56571
O_ O_ 0.633665 0.441845 0.72231 -0.61745
O_ O_ 0.562349 0.482111 0.696149 -0.76398
O_ O_ 0.576635 0.315724 0.684722 -0.50924
O_ O_ 0.691004 0.268171 0.956852 -0.78662
O_ O_ 0.615791 0.325171 0.951124 -0.56571
O_ O_ 0.664667 0.447393 0.789117 -0.61745
O_ O_ 0.713651 0.478019 0.807187 -0.76398
O_ O_ 0.847181 0.329611 0.84257 -0.50924
O_ O_ 0.91804 0.232827 0.541534 -0.78662
O_ O_ 0.994576 0.163873 0.523422 -0.56571
O_ O_ 0.915584 0.0268971 0.690663 -0.61745
O_ O_ 0.966514 0.0535021 0.711261 -0.76398
O_ O_ 0.274146 0.175554 0.65852 -0.50924
O_ O_ 0.53863 0.0429708 0.765805 -0.78662
O_ O_ 0.495892 0.0265115 0.840105 -0.56571
O_ O_ 0.875434 0.227342 0.943107 -0.61745
O_ O_ 0.814864 0.193556 0.972766 -0.76398
O_ O_ 0.880378 0.199863 0.787341 -0.50924
O_ O_ 0.847545 0.461263 0.729843 -0.78662
O_ O_ 0.845972 0.472473 0.660717 -0.56571
O_ O_ 0.558219 0.297939 0.547982 -0.61745
O_ O_ 0.482639 0.299263 0.543519 -0.76398
O_ O_ 0.960677 0.282711 0.728309 -0.50924
Ca Ca 0.761391 -0.0017209999999999726 0.240448 1.67025
Ca Ca 0.00473122 0.994324 0.264237 1.67025
Ca Ca 0.515492 0.732737 0.503216 1.67025
Ca Ca 0.753586 0.769642 0.492821 1.67025
Cd Cd 0.628211 0.505159 0.2476 1.08508
Cd Cd 0.881359 0.991693 0.250603 1.08508
Cd Cd 0.640909 0.746816 0.496638 1.08508
Cd Cd 0.861282 0.760393 0.0102305 1.08508
H_ H_ 0.502253 0.622713 0.171152 0.38772
H_ H_ 0.584886 0.595402 0.219273 0.11467
H_ H_ 0.568348 0.683847 0.100248 0.11467
H_ H_ 0.729073 0.623789 0.116195 0.11467
H_ H_ 0.563628 0.75315 0.259437 0.38772
H_ H_ 0.498638 0.859931 0.251989 0.11467
H_ H_ 0.497098 0.755613 0.360662 0.11467
H_ H_ 0.985615 0.861854 0.374387 0.11467
H_ H_ 0.640098 0.743648 0.267589 0.38772
H_ H_ 0.608526 0.740875 0.37235 0.11467
H_ H_ 0.725751 0.639867 0.258913 0.11467
H_ H_ 0.710992 0.59949 0.403634 0.11467
H_ H_ 0.855189 0.846483 0.131962 0.38772
H_ H_ 0.819652 0.803689 0.0871066 0.11467
H_ H_ 0.729095 0.902355 0.194371 0.11467
H_ H_ 0.642917 0.895936 0.118263 0.11467
H_ H_ 0.779279 0.774262 0.248175 0.38772
H_ H_ 0.754197 0.758869 0.356715 0.11467
H_ H_ 0.773742 0.865708 0.254262 0.11467
H_ H_ 0.664534 0.903901 0.400505 0.11467
H_ H_ 0.290216 0.739333 0.246332 0.38772
H_ H_ 0.826674 0.721095 0.109737 0.11467
H_ H_ 0.333162 0.63358 0.247723 0.11467
H_ H_ 0.981065 0.602887 0.104976 0.11467
H_ H_ 0.891353 0.739628 0.252761 0.38772
H_ H_ -0.01657200000000003 0.637911 0.249834 0.11467
H_ H_ 0.859978 0.745274 0.356558 0.11467
H_ H_ 0.94145 0.604481 0.401755 0.11467
H_ H_ 0.0877918 0.839322 0.165539 0.38772
H_ H_ 0.96446 0.902668 0.200034 0.11467
H_ H_ 0.0765105 0.80804 0.0876207 0.11467
H_ H_ 0.434869 0.898915 0.0963762 0.11467
C_ C_ 0.696675 0.571315 0.197169 0.73666
C_ C_ 0.672813 0.691356 0.0590794 0.73666
C_ C_ 0.66233 0.603795 0.168916 -0.12398
C_ C_ 0.605967 0.608156 0.182482 -0.14019
C_ C_ 0.575902 0.632241 0.152554 0.32882
C_ C_ 0.598758 0.659651 0.114063 -0.14019
C_ C_ 0.651761 0.659391 0.10151 -0.12398
C_ C_ 0.685054 0.629345 0.127558 -0.14019
C_ C_ 0.957278 0.930919 0.305292 0.73666
C_ C_ 0.923034 0.818004 0.450493 0.73666
C_ C_ 0.922965 0.904556 0.342024 -0.12398
C_ C_ 0.490712 0.853408 0.289486 -0.14019
C_ C_ 0.498658 0.806559 0.302124 0.32882
C_ C_ 0.486289 0.792724 0.350403 -0.14019
C_ C_ 0.907983 0.848503 0.410958 -0.12398
C_ C_ 0.942361 0.8718 0.374205 -0.14019
C_ C_ 0.633249 0.687922 0.445217 0.73666
C_ C_ 0.760168 0.560749 0.311056 0.73666
C_ C_ 0.658028 0.672851 0.395314 -0.12398
C_ C_ 0.642294 0.706591 0.361034 -0.14019
C_ C_ 0.661323 0.694058 0.314635 0.32882
C_ C_ 0.704077 0.647152 0.296232 -0.14019
C_ C_ 0.717323 0.610553 0.329396 -0.12398
C_ C_ 0.695168 0.623948 0.377879 -0.14019
C_ C_ 0.730631 0.814943 0.0664361 0.73666
C_ C_ 0.61805 0.937398 0.203967 0.73666
C_ C_ 0.731305 0.841831 0.10137 -0.12398
C_ C_ 0.778854 0.82574 0.112655 -0.14019
C_ C_ 0.777275 0.850844 0.145163 0.32882
C_ C_ 0.724989 0.886517 0.172812 -0.14019
C_ C_ 0.67362 0.89932 0.169899 -0.12398
C_ C_ 0.677811 0.878656 0.131015 -0.14019
C_ C_ 0.692716 0.808745 0.439516 0.73666
C_ C_ 0.697962 0.943787 0.305813 0.73666
C_ C_ 0.704359 0.827277 0.387916 -0.12398
C_ C_ 0.742217 0.795423 0.34867 -0.14019
C_ C_ 0.762965 0.810271 0.301805 0.32882
C_ C_ 0.752116 0.856559 0.291326 -0.14019
C_ C_ 0.711456 0.892915 0.325186 -0.12398
C_ C_ 0.69063 0.877305 0.3745 -0.14019
C_ C_ 0.939973 0.690152 0.0561149 0.73666
C_ C_ 0.930218 0.562199 0.194403 0.73666
C_ C_ 0.908647 0.66768 0.102048 -0.12398
C_ C_ 0.850135 0.689316 0.121448 -0.14019
C_ C_ 0.818798 0.667744 0.158897 0.32882
C_ C_ 0.844182 0.624924 0.180147 -0.14019
C_ C_ 0.903703 0.605601 0.167594 -0.12398
C_ C_ 0.935303 0.625892 0.126273 -0.14019
C_ C_ 0.509878 0.544928 0.319408 0.73666
C_ C_ 0.871463 0.698286 0.433722 0.73666
C_ C_ 0.968191 0.613322 0.321923 -0.12398
C_ C_ 0.959814 0.64785 0.286692 -0.14019
C_ C_ 0.916612 0.693041 0.300196 0.32882
C_ C_ 0.887469 0.707863 0.348046 -0.14019
C_ C_ 0.90125 0.677451 0.383879 -0.12398
C_ C_ 0.936048 0.629028 0.371784 -0.14019
C_ C_ 0.872158 0.944442 0.18297 0.73666
C_ C_ 0.492966 0.80622 0.0588888 0.73666
C_ C_ 0.927975 0.906018 0.154621 -0.12398
C_ C_ 0.970525 0.886837 0.170619 -0.14019
C_ C_ 0.0205894 0.850011 0.149367 0.32882
C_ C_ 0.0343129 0.832397 0.106252 -0.14019
C_ C_ 0.992642 0.844456 0.0896045 -0.12398
C_ C_ 0.937691 0.883664 0.113231 -0.14019
O_ O_ 0.679632 0.543068 0.232336 -0.78662
O_ O_ 0.740935 0.575057 0.192368 -0.56571
O_ O_ 0.658211 0.697484 0.0226504 -0.61745
O_ O_ 0.708577 0.709067 0.0549102 -0.76398
O_ O_ 0.527004 0.634131 0.165554 -0.50924
O_ O_ 0.945187 0.957439 0.271057 -0.78662
O_ O_ 0.00306571 0.924417 0.308948 -0.56571
O_ O_ 0.880943 0.808931 0.487169 -0.61745
O_ O_ 0.975501 0.787095 0.440986 -0.76398
O_ O_ 0.531611 0.775401 0.272284 -0.50924
O_ O_ 0.606374 0.732684 0.460307 -0.78662
O_ O_ 0.611148 0.660763 0.475913 -0.56571
O_ O_ 0.814412 0.554208 0.285903 -0.61745
O_ O_ 0.743792 0.529104 0.309626 -0.76398
O_ O_ 0.637075 0.722463 0.289748 -0.50924
O_ O_ 0.775315 0.77977 0.038361 -0.78662
O_ O_ 0.680625 0.818545 0.0737668 -0.56571
O_ O_ 0.615238 0.950393 0.241681 -0.61745
O_ O_ 0.571651 0.960009 0.19687 -0.76398
O_ O_ 0.821862 0.844428 0.146931 -0.50924
O_ O_ 0.708928 0.761984 0.45035 -0.78662
O_ O_ 0.677884 0.836729 0.472198 -0.56571
O_ O_ 0.692859 0.952766 0.265864 -0.61745
O_ O_ 0.723168 0.965571 0.312198 -0.76398
O_ O_ 0.785248 0.781701 0.268081 -0.50924
O_ O_ 0.91221 0.735238 0.0450797 -0.78662
O_ O_ 0.996186 0.667742 0.0320389 -0.56571
O_ O_ 0.917776 0.526077 0.198785 -0.61745
O_ O_ 0.955929 0.564444 0.217709 -0.76398
O_ O_ 0.299035 0.718787 0.227298 -0.50924
O_ O_ 0.538824 0.536509 0.273587 -0.78662
O_ O_ 0.495347 0.51175 0.345771 -0.56571
O_ O_ 0.877091 0.734924 0.440288 -0.61745
O_ O_ 0.821696 0.695657 0.459842 -0.76398
O_ O_ 0.911308 0.722759 0.268933 -0.50924
O_ O_ 0.855204 0.951595 0.228992 -0.78662
O_ O_ 0.83017 0.960674 0.168732 -0.56571
O_ O_ 0.542268 0.768629 0.0496755 -0.61745
O_ O_ 0.461899 0.808417 0.0380072 -0.76398
O_ O_ 0.0600276 0.836226 0.163581 -0.50924
Ca Ca 0.75847 1.00062 0.729969 1.67025
Ca Ca -0.0049559999999999604 1.00073 0.76793 1.67025
Ca Ca 0.500791 0.734026 1.00427756 1.67025
Ca Ca 0.730334 0.767305 1.00227 1.67025
Cd Cd 0.625937 0.499012 0.751841 1.08508
Cd Cd 0.876564 0.992826 0.746348 1.08508
Cd Cd 0.618278 0.757191 0.992531 1.08508
Cd Cd 0.884759 0.744878 0.496446 1.08508
H_ H_ 0.668702 0.715513 0.737461 0.38772
H_ H_ 0.659844 0.622864 0.739572 0.11467
H_ H_ 0.674741 0.732273 0.636802 0.11467
H_ H_ 0.721997 0.595118 0.589825 0.11467
H_ H_ 0.634058 0.77615 0.785377 0.38772
H_ H_ 0.537496 0.857804 0.76321 0.11467
H_ H_ 0.545756 0.769239 0.884229 0.11467
H_ H_ 0.908608 0.903177 0.902826 0.11467
H_ H_ 0.759737 0.736217 0.779562 0.38772
H_ H_ 0.666451 0.739218 0.875383 0.11467
H_ H_ 0.75756 0.645619 0.759876 0.11467
H_ H_ 0.685088 0.595906 0.900395 0.11467
H_ H_ 0.813706 0.772997 0.701127 0.38772
H_ H_ 0.796042 0.762517 0.618381 0.11467
H_ H_ 0.714759 0.869039 0.72166 0.11467
H_ H_ 0.671738 0.900738 0.602328 0.11467
H_ H_ 0.852979 0.762254 0.767278 0.38772
H_ H_ 0.757178 0.760684 0.867816 0.11467
H_ H_ 0.79102 0.864843 0.761309 0.11467
H_ H_ 0.643789 0.906322 0.894249 0.11467
H_ H_ 0.484743 0.720424 0.696397 0.38772
H_ H_ 0.952814 0.730609 0.607593 0.11467
H_ H_ 0.472338 0.627109 0.722442 0.11467
H_ H_ 0.953041 0.600062 0.588227 0.11467
H_ H_ 0.0794348 0.674346 0.821698 0.38772
H_ H_ 0.0598873 0.602484 0.787388 0.11467
H_ H_ 0.965825 0.70537 0.894957 0.11467
H_ H_ 0.902264 0.605673 0.897999 0.11467
H_ H_ 0.0998738 0.872946 0.634837 0.38772
H_ H_ 0.969452 0.915305 0.689609 0.11467
H_ H_ 0.0925568 0.828113 0.568908 0.11467
H_ H_ 0.420687 0.886161 0.604419 0.11467
C_ C_ 0.688688 0.55395 0.686571 0.73666
C_ C_ 0.702742 0.688969 0.556966 0.73666
C_ C_ 0.683845 0.603891 0.667925 -0.12398
C_ C_ 0.664734 0.636539 0.704674 -0.14019
C_ C_ 0.666968 0.679465 0.69266 0.32882
C_ C_ 0.673539 0.697412 0.646304 -0.14019
C_ C_ 0.687212 0.668807 0.608864 -0.12398
C_ C_ 0.695619 0.619953 0.620913 -0.14019
C_ C_ 0.937217 0.945039 0.807626 0.73666
C_ C_ 0.93366 0.806742 0.935483 0.73666
C_ C_ 0.953081 0.893624 0.825649 -0.12398
C_ C_ 0.518877 0.851767 0.800725 -0.14019
C_ C_ 0.548424 0.812357 0.821464 0.32882
C_ C_ 0.519923 0.797971 0.867833 -0.14019
C_ C_ 0.953321 0.826746 0.886501 -0.12398
C_ C_ 0.93345 0.878313 0.875236 -0.14019
C_ C_ 0.61472 0.689674 0.941798 0.73666
C_ C_ 0.755293 0.566882 0.804156 0.73666
C_ C_ 0.665751 0.671328 0.89479 -0.12398
C_ C_ 0.68239 0.70413 0.863279 -0.14019
C_ C_ 0.717897 0.693835 0.815826 0.32882
C_ C_ 0.733601 0.652591 0.796138 -0.14019
C_ C_ 0.726666 0.614425 0.826274 -0.12398
C_ C_ 0.69194 0.623954 0.876797 -0.14019
C_ C_ 0.762856 0.813452 0.550865 0.73666
C_ C_ 0.634741 0.936705 0.693419 0.73666
C_ C_ 0.738372 0.829321 0.601605 -0.12398
C_ C_ 0.767404 0.798747 0.62974 -0.14019
C_ C_ 0.754914 0.813759 0.674898 0.32882
C_ C_ 0.714731 0.857159 0.692313 -0.14019
C_ C_ 0.681657 0.889199 0.667859 -0.12398
C_ C_ 0.694363 0.875028 0.621692 -0.14019
C_ C_ 0.681023 0.811179 0.941763 0.73666
C_ C_ 0.69095 0.938523 0.800832 0.73666
C_ C_ 0.70081 0.828208 0.889419 -0.12398
C_ C_ 0.745552 0.796139 0.856497 -0.14019
C_ C_ 0.780952 0.808653 0.810774 0.32882
C_ C_ 0.764611 0.854878 0.794497 -0.14019
C_ C_ 0.712734 0.889564 0.823215 -0.12398
C_ C_ 0.682773 0.877359 0.87256 -0.14019
C_ C_ 0.945309 0.692994 0.547362 0.73666
C_ C_ 0.94191 0.561466 0.682823 0.73666
C_ C_ 0.947948 0.670083 0.594698 -0.12398
C_ C_ 0.948806 0.697616 0.623384 -0.14019
C_ C_ 0.95331 0.680064 0.666124 0.32882
C_ C_ 0.941653 0.639926 0.687037 -0.14019
C_ C_ 0.93932 0.61012 0.661693 -0.12398
C_ C_ 0.944469 0.626033 0.613488 -0.14019
C_ C_ 0.50769 0.559534 0.817405 0.73666
C_ C_ 0.870694 0.68928 0.94936 0.73666
C_ C_ 0.98378 0.598065 0.841159 -0.12398
C_ C_ 0.0239088 0.617907 0.819642 -0.14019
C_ C_ 0.0148958 0.658276 0.83731 0.32882
C_ C_ 0.965131 0.680837 0.877689 -0.14019
C_ C_ 0.924805 0.661924 0.902865 -0.12398
C_ C_ 0.933109 0.621695 0.882669 -0.14019
C_ C_ 0.867593 0.934584 0.685191 0.73666
C_ C_ 0.512134 0.798678 0.561107 0.73666
C_ C_ 0.93114 0.897934 0.654225 -0.12398
C_ C_ 0.977863 0.892569 0.663163 -0.14019
C_ C_ 0.0351571 0.865587 0.632506 0.32882
C_ C_ 0.0487206 0.838772 0.596229 -0.14019
C_ C_ 0.0042599999999999305 0.841924 0.585554 -0.12398
C_ C_ 0.945849 0.869183 0.617611 -0.14019
O_ O_ 0.668872 0.541778 0.73233 -0.78662
O_ O_ 0.726375 0.520954 0.656174 -0.56571
O_ O_ 0.671261 0.6933 0.533743 -0.61745
O_ O_ 0.735966 0.711129 0.542852 -0.76398
O_ O_ 0.659951 0.703604 0.722407 -0.50924
O_ O_ 0.953162 0.956117 0.762356 -0.78662
O_ O_ 0.911029 0.979663 0.837365 -0.56571
O_ O_ 0.907028 0.77856 0.945793 -0.61745
O_ O_ 0.94715 0.812758 0.968 -0.76398
O_ O_ 0.598635 0.783628 0.79457 -0.50924
O_ O_ 0.590358 0.734688 0.954282 -0.78662
O_ O_ 0.585826 0.664357 0.964784 -0.56571
O_ O_ 0.808157 0.542079 0.80014 -0.61745
O_ O_ 0.739282 0.560396 0.774125 -0.76398
O_ O_ 0.73432 0.724478 0.791507 -0.50924
O_ O_ 0.794372 0.769664 0.537484 -0.78662
O_ O_ 0.739182 0.841894 0.522627 -0.56571
O_ O_ 0.651111 0.964055 0.704818 -0.61745
O_ O_ 0.580973 0.943876 0.709636 -0.76398
O_ O_ 0.781625 0.788452 0.69702 -0.50924
O_ O_ 0.694493 0.765101 0.952651 -0.78662
O_ O_ 0.657817 0.83827 0.976993 -0.56571
O_ O_ 0.665189 0.944352 0.771607 -0.61745
O_ O_ 0.710238 0.969121 0.7982 -0.76398
O_ O_ 0.817732 0.776377 0.781108 -0.50924
O_ O_ 0.919886 0.739164 0.541867 -0.78662
O_ O_ 0.975279 0.666306 0.509109 -0.56571
O_ O_ 0.894168 0.556627 0.708592 -0.61745
O_ O_ 0.988076 0.531236 0.689724 -0.76398
O_ O_ 0.459911 0.710546 0.699343 -0.50924
O_ O_ 0.53837 0.54822 0.772513 -0.78662
O_ O_ 0.488037 0.530003 0.843498 -0.56571
O_ O_ 0.881931 0.697902 0.983207 -0.61745
O_ O_ 0.819616 0.709181 0.950308 -0.76398
O_ O_ 0.0520167 0.673174 0.817626 -0.50924
O_ O_ 0.849908 0.951174 0.727205 -0.78662
O_ O_ 0.828445 0.935073 0.67394 -0.56571
O_ O_ 0.560917 0.760381 0.548638 -0.61745
O_ O_ 0.477761 0.802803 0.542105 -0.76398
O_ O_ 0.0734218 0.86333 0.641092 -0.50924
_cell_length_a 28.615999999999993
_cell_length_b 31.687999855138678
_cell_length_c 31.690000143002415
_cell_angle_alpha 78.29100036892471
_cell_angle_beta 63.22999966103078
_cell_angle_gamma 63.2289993205193
_symmetry_space_group_name_H-M         'P 1'
_symmetry_Int_Tables_number            1
loop_
_symmetry_equiv_pos_as_xyz
   'x, y, z'
                         
loop_
_atom_site_label
_atom_site_type_symbol
_atom_site_fract_x 
_atom_site_fract_y
_atom_site_fract_z
_atom_site_charge
Ca Ca 0.265854 0.489645 0.235338 1.67025
Ca Ca 0.496233 0.488908 0.272 1.67025
Ca Ca 0.00544603 0.236169 0.492668 1.67025
Ca Ca 0.233234 0.261343 0.513519 1.67025
Cd Cd 0.12734 0.0111067 0.2467 1.08508
Cd Cd 0.377494 0.480174 0.254305 1.08508
Cd Cd 0.123816 0.246108 0.500053 1.08508
Cd Cd 0.374719 0.253297 0.9983012 1.08508
H_ H_ 0.99833657 0.155804 0.162647 0.38772
H_ H_ 0.0892446 0.0913906 0.194573 0.11467
H_ H_ 0.0666206 0.217942 0.112661 0.11467
H_ H_ 0.233107 0.125324 0.108367 0.11467
H_ H_ 0.822882 0.346327 0.329958 0.38772
H_ H_ 0.89844 0.406523 0.285611 0.11467
H_ H_ 0.86899 0.310063 0.402462 0.11467
H_ H_ 0.494022 0.351883 0.371015 0.11467
H_ H_ 0.0862158 0.208442 0.272959 0.38772
H_ H_ 0.0844483 0.241407 0.366191 0.11467
H_ H_ 0.177296 0.128603 0.265702 0.11467
H_ H_ 0.205388 0.106133 0.392597 0.11467
H_ H_ 0.125397 0.266159 0.221479 0.38772
H_ H_ 0.205197 0.261434 0.129753 0.11467
H_ H_ 0.108016 0.367152 0.236374 0.11467
H_ H_ 0.196604 0.404771 0.0935989 0.11467
H_ H_ 0.189361 0.2687 0.289045 0.38772
H_ H_ 0.155144 0.27544 0.394745 0.11467
H_ H_ 0.199926 0.35958 0.274167 0.11467
H_ H_ 0.182149 0.398202 0.404386 0.11467
H_ H_ 0.75423 0.217336 0.222314 0.38772
H_ H_ 0.334975 0.234541 0.127328 0.11467
H_ H_ 0.84941 0.129729 0.238391 0.11467
H_ H_ 0.479367 0.0990058 0.1004 0.11467
H_ H_ 0.476863 0.235372 0.275283 0.38772
H_ H_ 0.525686 0.128569 0.271236 0.11467
H_ H_ 0.417568 0.234252 0.378304 0.11467
H_ H_ 0.433373 0.0906056 0.408807 0.11467
H_ H_ 0.318583 0.283098 0.219739 0.38772
H_ H_ 0.313896 0.370785 0.232006 0.11467
H_ H_ 0.438024 0.255517 0.137732 0.11467
H_ H_ 0.959432 0.392323 0.0976761 0.11467
C_ C_ 0.20134 0.0683584 0.184442 0.73666
C_ C_ 0.175148 0.203073 0.0550878 0.73666
C_ C_ 0.163787 0.108204 0.159989 -0.12398
C_ C_ 0.107455 0.117126 0.173742 -0.14019
C_ C_ 0.0712144 0.155375 0.15423 0.32882
C_ C_ 0.0962069 0.184683 0.120173 -0.14019
C_ C_ 0.15456 0.171932 0.0984187 -0.12398
C_ C_ 0.188053 0.133837 0.119429 -0.14019
C_ C_ 0.460297 0.418076 0.307316 0.73666
C_ C_ 0.449485 0.294655 0.444464 0.73666
C_ C_ 0.430338 0.386954 0.341411 -0.12398
C_ C_ 0.899662 0.393906 0.320998 -0.14019
C_ C_ 0.877274 0.359644 0.346273 0.32882
C_ C_ 0.888901 0.334628 0.38385 -0.14019
C_ C_ 0.423857 0.328563 0.41096 -0.12398
C_ C_ 0.453003 0.354893 0.374912 -0.14019
C_ C_ 0.118592 0.194021 0.43693 0.73666
C_ C_ 0.253095 0.0621147 0.302411 0.73666
C_ C_ 0.145132 0.178557 0.385325 -0.12398
C_ C_ 0.118638 0.205539 0.354884 -0.14019
C_ C_ 0.135343 0.186816 0.311377 0.32882
C_ C_ 0.178227 0.14198 0.295521 -0.14019
C_ C_ 0.205335 0.112042 0.322427 -0.12398
C_ C_ 0.186877 0.130775 0.368496 -0.14019
C_ C_ 0.251448 0.311966 0.0511949 0.73666
C_ C_ 0.12693 0.439643 0.185689 0.73666
C_ C_ 0.208607 0.329908 0.10373 -0.12398
C_ C_ 0.196558 0.296894 0.137298 -0.14019
C_ C_ 0.164243 0.310329 0.183979 0.32882
C_ C_ 0.137953 0.356894 0.199438 -0.14019
C_ C_ 0.148878 0.391935 0.165365 -0.12398
C_ C_ 0.186463 0.378191 0.117992 -0.14019
C_ C_ 0.181465 0.308418 0.452237 0.73666
C_ C_ 0.186774 0.435778 0.310423 0.73666
C_ C_ 0.178757 0.329105 0.405004 -0.12398
C_ C_ 0.167224 0.30502 0.379722 -0.14019
C_ C_ 0.183644 0.312065 0.331066 0.32882
C_ C_ 0.192869 0.3539 0.310246 -0.14019
C_ C_ 0.185338 0.388458 0.336345 -0.12398
C_ C_ 0.185439 0.373704 0.383091 -0.14019
C_ C_ 0.439528 0.188885 0.0580485 0.73666
C_ C_ 0.436708 0.0555869 0.188006 0.73666
C_ C_ 0.411868 0.17154 0.107989 -0.12398
C_ C_ 0.355893 0.199538 0.137781 -0.14019
C_ C_ 0.327485 0.179934 0.182969 0.32882
C_ C_ 0.355108 0.135349 0.198336 -0.14019
C_ C_ 0.41108 0.106217 0.167707 -0.12398
C_ C_ 0.439196 0.122517 0.122525 -0.14019
C_ C_ 0.00474244 0.0589653 0.312981 0.73666
C_ C_ 0.375186 0.188555 0.449964 0.73666
C_ C_ 0.481029 0.103826 0.335996 -0.12398
C_ C_ 0.499107 0.137753 0.306516 -0.14019
C_ C_ 0.473569 0.18418 0.320914 0.32882
C_ C_ 0.43936 0.197538 0.366323 -0.14019
C_ C_ 0.421064 0.167233 0.399754 -0.12398
C_ C_ 0.442465 0.11901 0.383709 -0.14019
C_ C_ 0.367713 0.43094 0.196348 0.73666
C_ C_ 1.00534088 0.304521 0.0600898 0.73666
C_ C_ 0.385605 0.384794 0.174225 -0.12398
C_ C_ 0.354657 0.357072 0.201226 -0.14019
C_ C_ 0.377899 0.309797 0.189301 0.32882
C_ C_ 0.421702 0.292481 0.146978 -0.14019
C_ C_ 0.449155 0.32101 0.112927 -0.12398
C_ C_ 0.433811 0.365665 0.129464 -0.14019
O_ O_ 0.18039 0.0475841 0.224473 -0.78662
O_ O_ 0.259053 0.0541616 0.162624 -0.56571
O_ O_ 0.164445 0.204593 0.0180737 -0.61745
O_ O_ 0.20097 0.228339 0.0558103 -0.76398
O_ O_ 0.020076 0.162708 0.168588 -0.50924
O_ O_ 0.447781 0.446609 0.272457 -0.78662
O_ O_ 0.508301 0.41207 0.307994 -0.56571
O_ O_ 0.439238 0.255756 0.458699 -0.61745
O_ O_ 0.48163 0.301393 0.456165 -0.76398
O_ O_ 0.851874 0.349362 0.329108 -0.50924
O_ O_ 0.0972843 0.238039 0.451252 -0.78662
O_ O_ 0.111357 0.163295 0.469036 -0.56571
O_ O_ 0.305613 0.0585558 0.271295 -0.61745
O_ O_ 0.242074 0.0266898 0.303926 -0.76398
O_ O_ 0.107134 0.209312 0.285862 -0.50924
O_ O_ 0.289118 0.266595 0.0406919 -0.78662
O_ O_ 0.245096 0.339061 0.0164276 -0.56571
O_ O_ 0.14887 0.442752 0.213382 -0.61745
O_ O_ 0.0756267 0.470501 0.189556 -0.76398
O_ O_ 0.148903 0.278988 0.211247 -0.50924
O_ O_ 0.193267 0.26428 0.463181 -0.78662
O_ O_ 0.19124 0.33265 0.473966 -0.56571
O_ O_ 0.142015 0.466487 0.30302 -0.61745
O_ O_ 0.234067 0.440696 0.287968 -0.76398
O_ O_ 0.198194 0.279697 0.305663 -0.50924
O_ O_ 0.418202 0.232811 0.0422684 -0.78662
O_ O_ 0.482755 0.157045 0.0256562 -0.56571
O_ O_ 0.415873 0.0253752 0.189873 -0.61745
O_ O_ 0.463649 0.0485669 0.215446 -0.76398
O_ O_ 0.791166 0.210319 0.211416 -0.50924
O_ O_ 0.0409945 0.0455678 0.267748 -0.78662
O_ O_ -0.020413000000000014 0.0304463 0.340934 -0.56571
O_ O_ 0.394298 0.191512 0.48011 -0.61745
O_ O_ 0.32068 0.214537 0.457285 -0.76398
O_ O_ 0.486716 0.214654 0.294239 -0.50924
O_ O_ 0.345368 0.437263 0.242305 -0.78662
O_ O_ 0.3739 0.466624 0.168592 -0.56571
O_ O_ 0.0598589 0.280662 0.052958 -0.61745
O_ O_ 0.983832 0.298413 0.032873 -0.76398
O_ O_ 0.347594 0.287956 0.21378 -0.50924
Ca Ca 0.253778 0.510829 0.731942 1.67025
Ca Ca 0.49259 0.503217 0.773544 1.67025
Ca Ca 0.0132128 0.22825 -0.0016620000000000523 1.67025
Ca Ca 0.240838 0.271752 0.996119 1.67025
Cd Cd 0.130298 0.00442238 0.754131 1.08508
Cd Cd 0.390144 0.497512 0.741834 1.08508
Cd Cd 0.12098 0.261509 0.986077 1.08508
Cd Cd 0.371015 0.250299 0.516372 1.08508
H_ H_ 0.000414524 0.143991 0.666823 0.38772
H_ H_ 0.0913298 0.0924587 0.710024 0.11467
H_ H_ 0.0721385 0.201392 0.608121 0.11467
H_ H_ 0.239565 0.113434 0.608664 0.11467
H_ H_ 0.0640252 0.261917 0.741594 0.38772
H_ H_ 0.00173516 0.360643 0.750758 0.11467
H_ H_ 1.012612 0.250662 0.856523 0.11467
H_ H_ 0.418099 0.396022 0.901496 0.11467
H_ H_ 0.164437 0.231696 0.759085 0.38772
H_ H_ 0.128528 0.237418 0.867507 0.11467
H_ H_ 0.233858 0.134972 0.762054 0.11467
H_ H_ 0.191395 0.089484 0.905984 0.11467
H_ H_ 0.368978 0.36731 0.591999 0.38772
H_ H_ 0.326951 0.307063 0.58463 0.11467
H_ H_ 0.238058 0.432681 0.666303 0.11467
H_ H_ 0.141919 0.361876 0.657978 0.11467
H_ H_ 0.339966 0.364972 0.887534 0.38772
H_ H_ 0.282031 0.299961 0.898584 0.11467
H_ H_ 0.275307 0.429838 0.834277 0.11467
H_ H_ 0.133061 0.390781 0.870247 0.11467
H_ H_ 0.776715 0.234181 0.723359 0.38772
H_ H_ 0.34144 0.202293 0.587572 0.11467
H_ H_ 0.83978 0.127043 0.727966 0.11467
H_ H_ 0.485184 0.118981 0.628263 0.11467
H_ H_ 0.345124 0.212525 0.777622 0.38772
H_ H_ 0.453693 0.12458 0.756282 0.11467
H_ H_ 0.372666 0.241621 0.847996 0.11467
H_ H_ 0.444268 0.102123 0.898135 0.11467
H_ H_ 0.371315 0.287204 0.752938 0.38772
H_ H_ 0.361327 0.37965 0.745298 0.11467
H_ H_ 0.462919 0.268173 0.648277 0.11467
H_ H_ 0.946697 0.405178 0.59434 0.11467
C_ C_ 0.201607 0.0607228 0.690221 0.73666
C_ C_ 0.180922 0.195647 0.564944 0.73666
C_ C_ 0.168706 0.0983017 0.663917 -0.12398
C_ C_ 0.110363 0.105519 0.67845 -0.14019
C_ C_ 0.0765857 0.141638 0.65818 0.32882
C_ C_ 0.0998567 0.171297 0.623776 -0.14019
C_ C_ 0.158993 0.161643 0.603243 -0.12398
C_ C_ 0.19346 0.122792 0.624315 -0.14019
C_ C_ 0.437264 0.440992 0.810885 0.73666
C_ C_ 0.434012 0.306552 0.93657 0.73666
C_ C_ 0.446033 0.389054 0.823829 -0.12398
C_ C_ 0.991536 0.352282 0.788709 -0.14019
C_ C_ 1.012364 0.30341 0.799973 0.32882
C_ C_ 0.993075 0.288618 0.847369 -0.14019
C_ C_ 0.441676 0.325471 0.886907 -0.12398
C_ C_ 0.430799 0.372731 0.874098 -0.14019
C_ C_ 0.12679 0.184903 0.94275 0.73666
C_ C_ 0.261422 0.0549535 0.809266 0.73666
C_ C_ 0.158474 0.167007 0.891848 -0.12398
C_ C_ 0.153895 0.2012 0.857003 -0.14019
C_ C_ 0.183186 0.190267 0.81067 0.32882
C_ C_ 0.219912 0.142299 0.797799 -0.14019
C_ C_ 0.224122 0.105025 0.829685 -0.12398
C_ C_ 0.193182 0.118287 0.878003 -0.14019
C_ C_ 0.237205 0.299582 0.579642 0.73666
C_ C_ 0.128325 0.441666 0.698609 0.73666
C_ C_ 0.235366 0.334306 0.611356 -0.12398
C_ C_ 0.287999 0.333123 0.604448 -0.14019
C_ C_ 0.287817 0.369132 0.624123 0.32882
C_ C_ 0.237672 0.404819 0.651983 -0.14019
C_ C_ 0.181311 0.402945 0.66768 -0.12398
C_ C_ 0.182906 0.365749 0.646711 -0.14019
C_ C_ 0.168116 0.313854 0.930585 0.73666
C_ C_ 0.186732 0.4524 0.809413 0.73666
C_ C_ 0.200783 0.341967 0.894255 -0.12398
C_ C_ 0.255743 0.332867 0.889395 -0.14019
C_ C_ 0.281599 0.365353 0.871519 0.32882
C_ C_ 0.25513 0.405634 0.849792 -0.14019
C_ C_ 0.204483 0.41435 0.84293 -0.12398
C_ C_ 0.173953 0.383576 0.870673 -0.14019
C_ C_ 0.451165 0.195237 0.570732 0.73666
C_ C_ 0.431158 0.0591434 0.698284 0.73666
C_ C_ 0.419113 0.16545 0.604493 -0.12398
C_ C_ 0.361412 0.179654 0.61216 -0.14019
C_ C_ 0.326482 0.159641 0.65065 0.32882
C_ C_ 0.351675 0.117714 0.673643 -0.14019
C_ C_ 0.407788 0.102696 0.667781 -0.12398
C_ C_ 0.442026 0.12742 0.632113 -0.14019
C_ C_ 0.0125437 0.0507855 0.817586 0.73666
C_ C_ 0.371099 0.196037 0.932535 0.73666
C_ C_ 0.465253 0.109531 0.821393 -0.12398
C_ C_ 0.444414 0.138754 0.789403 -0.14019
C_ C_ 0.406859 0.187821 0.801224 0.32882
C_ C_ 0.389929 0.204425 0.844796 -0.14019
C_ C_ 0.396568 0.175207 0.88339 -0.12398
C_ C_ 0.433993 0.125509 0.870304 -0.14019
C_ C_ 0.363086 0.453131 0.690725 0.73666
C_ C_ 1.00506874 0.304989 0.562363 0.73666
C_ C_ 0.398226 0.402666 0.675108 -0.12398
C_ C_ 0.391583 0.368602 0.709373 -0.14019
C_ C_ 0.416093 0.320471 0.698609 0.32882
C_ C_ 0.453724 0.303427 0.653163 -0.14019
C_ C_ 0.461565 0.335861 0.615011 -0.12398
C_ C_ 0.432842 0.385716 0.627769 -0.14019
O_ O_ 0.180773 0.0399866 0.728901 -0.78662
O_ O_ 0.254235 0.0578127 0.680641 -0.56571
O_ O_ 0.145218 0.234416 0.553501 -0.61745
O_ O_ 0.233933 0.190863 0.549351 -0.76398
O_ O_ 0.0252884 0.14939 0.671015 -0.50924
O_ O_ 0.453516 0.456121 0.765055 -0.78662
O_ O_ 0.439828 0.464509 0.839688 -0.56571
O_ O_ 0.382101 0.308925 0.965945 -0.61745
O_ O_ 0.47876 0.270426 0.941498 -0.76398
O_ O_ 0.0526007 0.274468 0.768455 -0.50924
O_ O_ 0.0999959 0.230895 0.949306 -0.78662
O_ O_ 0.106444 0.159299 0.977526 -0.56571
O_ O_ 0.310887 0.0477678 0.772022 -0.61745
O_ O_ 0.236263 0.0298363 0.811247 -0.76398
O_ O_ 0.177205 0.220239 0.779141 -0.50924
O_ O_ 0.282565 0.264454 0.551229 -0.78662
O_ O_ 0.187724 0.304257 0.582196 -0.56571
O_ O_ 0.123161 0.483914 0.69908 -0.61745
O_ O_ 0.0804601 0.433973 0.725878 -0.76398
O_ O_ 0.33616 0.368442 0.616395 -0.50924
O_ O_ 0.190638 0.274896 0.952115 -0.78662
O_ O_ 0.113149 0.330905 0.942692 -0.56571
O_ O_ 0.164548 0.448481 0.782673 -0.61745
O_ O_ 0.202465 0.486727 0.802101 -0.76398
O_ O_ 0.32818 0.356133 0.871209 -0.50924
O_ O_ 0.431548 0.231306 0.544576 -0.78662
O_ O_ 0.498042 0.190466 0.572029 -0.56571
O_ O_ 0.420199 0.0218573 0.702959 -0.61745
O_ O_ 0.46628 0.0565583 0.716406 -0.76398
O_ O_ 0.78902 0.212957 0.702734 -0.50924
O_ O_ 0.0437608 0.0408623 0.770613 -0.78662
O_ O_ 0.999065 0.017037 0.843544 -0.56571
O_ O_ 0.391922 0.221135 0.940044 -0.61745
O_ O_ 0.318394 0.19984 0.962997 -0.76398
O_ O_ 0.376038 0.209146 0.778627 -0.50924
O_ O_ 0.341781 0.46683 0.735896 -0.78662
O_ O_ 0.342615 0.484787 0.663583 -0.56571
O_ O_ 0.0549608 0.303033 0.537447 -0.61745
O_ O_ 0.987583 0.276713 0.553989 -0.76398
O_ O_ 0.399068 0.293058 0.731206 -0.50924
Ca Ca 0.271187 0.000862537 0.232483 1.67025
Ca Ca 0.499057 0.992648 0.266902 1.67025
Ca Ca 0.0107766 0.735642 0.495655 1.67025
Ca Ca 0.262888 0.761977 0.488827 1.67025
Cd Cd 0.125222 0.501877 0.244761 1.08508
Cd Cd 0.378129 0.995236 0.251337 1.08508
Cd Cd 0.141607 0.747409 0.487727 1.08508
Cd Cd 0.370274 0.755323 0.013065 1.08508
H_ H_ 0.0256013 0.720739 0.244045 0.38772
H_ H_ 0.116615 0.621001 0.244785 0.11467
H_ H_ 0.114251 0.735838 0.147489 0.11467
H_ H_ 0.222052 0.591807 0.0965707 0.11467
H_ H_ 0.757179 0.905752 0.383 0.38772
H_ H_ 0.852477 0.932713 0.317942 0.11467
H_ H_ 0.825182 0.845233 0.436139 0.11467
H_ H_ 0.417374 0.903334 0.398611 0.11467
H_ H_ 0.108107 0.71444 0.283227 0.38772
H_ H_ 0.114401 0.7343 0.366428 0.11467
H_ H_ 0.206725 0.620215 0.270059 0.11467
H_ H_ 0.204645 0.592272 0.407732 0.11467
H_ H_ 0.357904 0.889312 0.089196 0.38772
H_ H_ 0.328802 0.813953 0.0827444 0.11467
H_ H_ 0.236802 0.935735 0.164178 0.11467
H_ H_ 0.142716 0.876378 0.14575 0.11467
H_ H_ 0.102476 0.822162 0.319374 0.38772
H_ H_ 0.166538 0.782267 0.384159 0.11467
H_ H_ 0.151054 0.890754 0.28325 0.11467
H_ H_ 0.219213 0.889382 0.379071 0.11467
H_ H_ 0.738944 0.688121 0.16155 0.38772
H_ H_ 0.349845 0.737032 0.140306 0.11467
H_ H_ 0.820655 0.606755 0.204419 0.11467
H_ H_ 0.458839 0.593781 0.104669 0.11467
H_ H_ 0.369196 0.718478 0.283348 0.38772
H_ H_ 0.474016 0.625972 0.268343 0.11467
H_ H_ 0.36139 0.725266 0.37717 0.11467
H_ H_ 0.458654 0.583788 0.410601 0.11467
H_ H_ 0.448512 0.763019 0.243885 0.38772
H_ H_ 0.392734 0.862221 0.243391 0.11467
H_ H_ 0.481227 0.754608 0.140165 0.11467
H_ H_ 0.905164 0.894168 0.100011 0.11467
C_ C_ 0.195632 0.548448 0.185184 0.73666
C_ C_ 0.185985 0.689483 0.0614201 0.73666
C_ C_ 0.174105 0.600309 0.172937 -0.12398
C_ C_ 0.129348 0.632699 0.208995 -0.14019
C_ C_ 0.106736 0.680724 0.197817 0.32882
C_ C_ 0.12875 0.698136 0.152444 -0.14019
C_ C_ 0.171808 0.667894 0.113865 -0.12398
C_ C_ 0.192628 0.617447 0.124316 -0.14019
C_ C_ 0.436694 0.941043 0.307505 0.73666
C_ C_ 0.446825 0.80519 0.436941 0.73666
C_ C_ 0.456891 0.887926 0.323887 -0.12398
C_ C_ 0.87416 0.90487 0.338805 -0.14019
C_ C_ 0.839855 0.8851 0.373131 0.32882
C_ C_ 0.856788 0.85636 0.408105 -0.14019
C_ C_ 0.456477 0.825979 0.386255 -0.12398
C_ C_ 0.440328 0.876089 0.372779 -0.14019
C_ C_ 0.123244 0.68447 0.44619 0.73666
C_ C_ 0.258857 0.548779 0.315046 0.73666
C_ C_ 0.147933 0.665539 0.396931 -0.12398
C_ C_ 0.134975 0.69694 0.360789 -0.14019
C_ C_ 0.157792 0.67938 0.315136 0.32882
C_ C_ 0.193732 0.632166 0.303593 -0.14019
C_ C_ 0.215217 0.599962 0.333243 -0.12398
C_ C_ 0.187934 0.616165 0.38082 -0.14019
C_ C_ 0.235456 0.806656 0.0757284 0.73666
C_ C_ 0.125804 0.947348 0.194077 0.73666
C_ C_ 0.234645 0.838153 0.10749 -0.12398
C_ C_ 0.286662 0.840984 0.10203 -0.14019
C_ C_ 0.286232 0.876598 0.123946 0.32882
C_ C_ 0.232543 0.910151 0.152246 -0.14019
C_ C_ 0.18118 0.911151 0.158847 -0.12398
C_ C_ 0.182055 0.876457 0.136688 -0.14019
C_ C_ 0.195618 0.812602 0.4368 0.73666
C_ C_ 0.187919 0.945104 0.305066 0.73666
C_ C_ 0.191678 0.833841 0.38956 -0.12398
C_ C_ 0.169867 0.814888 0.370238 -0.14019
C_ C_ 0.156704 0.833051 0.332791 0.32882
C_ C_ 0.168561 0.871468 0.309846 -0.14019
C_ C_ 0.190039 0.895443 0.325362 -0.12398
C_ C_ 0.199718 0.875533 0.367036 -0.14019
C_ C_ 0.433019 0.685824 0.065879 0.73666
C_ C_ 0.423849 0.554561 0.201459 0.73666
C_ C_ 0.40703 0.667475 0.116087 -0.12398
C_ C_ 0.359871 0.69961 0.149509 -0.14019
C_ C_ 0.337748 0.686826 0.196772 0.32882
C_ C_ 0.356757 0.639404 0.211479 -0.14019
C_ C_ 0.403008 0.603008 0.179336 -0.12398
C_ C_ 0.428834 0.6189 0.132108 -0.14019
C_ C_ 0.00969534 0.562326 0.305022 0.73666
C_ C_ 0.377706 0.679524 0.451865 0.73666
C_ C_ 0.471475 0.595809 0.33695 -0.12398
C_ C_ 0.457069 0.630436 0.305213 -0.14019
C_ C_ 0.415915 0.674975 0.320599 0.32882
C_ C_ 0.394401 0.68925 0.366856 -0.14019
C_ C_ 0.404912 0.656667 0.401751 -0.12398
C_ C_ 0.445113 0.609213 0.386631 -0.14019
C_ C_ 0.384357 0.940904 0.187745 0.73666
C_ C_ 0.00966076 0.813918 0.0485761 0.73666
C_ C_ 0.415558 0.889361 0.169881 -0.12398
C_ C_ 0.409562 0.853592 0.206616 -0.14019
C_ C_ 0.436494 0.806076 0.194197 0.32882
C_ C_ 0.4661 0.791975 0.146332 -0.14019
C_ C_ 0.462844 0.824901 0.109957 -0.12398
C_ C_ 0.440523 0.873178 0.121197 -0.14019
O_ O_ 0.176173 0.537003 0.229405 -0.78662
O_ O_ 0.250649 0.521687 0.161739 -0.56571
O_ O_ 0.139957 0.717969 0.0531879 -0.61745
O_ O_ 0.233752 0.693727 0.0359554 -0.76398
O_ O_ 0.0633907 0.709227 0.229187 -0.50924
O_ O_ 0.451558 0.953194 0.262157 -0.78662
O_ O_ 0.418227 0.975376 0.336827 -0.56571
O_ O_ 0.399594 0.79955 0.461233 -0.61745
O_ O_ 0.493914 0.779922 0.444698 -0.76398
O_ O_ 0.794108 0.890135 0.373319 -0.50924
O_ O_ 0.103425 0.731021 0.452692 -0.78662
O_ O_ 0.102406 0.661604 0.484224 -0.56571
O_ O_ 0.315061 0.538333 0.292785 -0.61745
O_ O_ 0.241534 0.518932 0.308319 -0.76398
O_ O_ 0.139488 0.704856 0.28671 -0.50924
O_ O_ 0.282067 0.7734 0.0459436 -0.78662
O_ O_ 0.186558 0.80904 0.0818639 -0.56571
O_ O_ 0.125037 0.953453 0.235 -0.61745
O_ O_ 0.0764006 0.971575 0.189856 -0.76398
O_ O_ 0.331845 0.880578 0.111481 -0.50924
O_ O_ 0.207796 0.767162 0.446484 -0.78662
O_ O_ 0.20913 0.834014 0.45813 -0.56571
O_ O_ 0.138351 0.976608 0.304585 -0.61745
O_ O_ 0.237076 0.945684 0.270958 -0.76398
O_ O_ 0.136176 0.816374 0.317765 -0.50924
O_ O_ 0.412997 0.732023 0.0559867 -0.78662
O_ O_ 0.48981 0.660388 0.0399292 -0.56571
O_ O_ 0.398099 0.527435 0.20749 -0.61745
O_ O_ 0.452549 0.547646 0.227834 -0.76398
O_ O_ 0.76525 0.685936 0.170587 -0.50924
O_ O_ 0.0432733 0.549871 0.260788 -0.78662
O_ O_ 1.000646519 0.53027 0.335892 -0.56571
O_ O_ 0.386449 0.715824 0.452738 -0.61745
O_ O_ 0.324022 0.684552 0.481317 -0.76398
O_ O_ 0.398288 0.703621 0.2911 -0.50924
O_ O_ 0.358274 0.950569 0.232992 -0.78662
O_ O_ 0.362008 0.971353 0.16133 -0.56571
O_ O_ 0.0617324 0.805455 0.0140069 -0.61745
O_ O_ 0.980656 0.790948 0.0503938 -0.76398
O_ O_ 0.434656 0.778102 0.224831 -0.50924
Ca Ca 0.263703 0.995504 0.740723 1.67025
Ca Ca 0.494427 -0.003977000000000008 0.767234 1.67025
Ca Ca -0.0011929999999999996 0.741852 -0.006869000000000014 1.67025
Ca Ca 0.229588 0.76499 0.0086507 1.67025
Cd Cd 0.118397 0.509375 0.757684 1.08508
Cd Cd 0.379478 0.989591 0.757233 1.08508
Cd Cd 0.128911 0.742208 0.993376 1.08508
Cd Cd 0.383343 0.745685 0.50561 1.08508
H_ H_ 0.205127 0.711184 0.713379 0.38772
H_ H_ 0.158589 0.633159 0.736679 0.11467
H_ H_ 0.193422 0.730348 0.623933 0.11467
H_ H_ 0.192134 0.603141 0.593086 0.11467
H_ H_ 0.0404883 0.765108 0.755616 0.38772
H_ H_ 1.0123686 0.866788 0.753144 0.11467
H_ H_ 1.000973262 0.759529 0.858448 0.11467
H_ H_ 0.397201 0.90189 0.899366 0.11467
H_ H_ 0.337256 0.646915 0.880713 0.38772
H_ H_ 0.21048 0.697598 0.922238 0.11467
H_ H_ 0.334712 0.582548 0.826074 0.11467
H_ H_ 0.156964 0.61371 0.872894 0.11467
H_ H_ 0.263336 0.779979 0.734294 0.38772
H_ H_ 0.28465 0.75949 0.630502 0.11467
H_ H_ 0.17616 0.861093 0.742158 0.11467
H_ H_ 0.184474 0.902783 0.600985 0.11467
H_ H_ 0.346414 0.742625 0.782508 0.38772
H_ H_ 0.263593 0.756217 0.878591 0.11467
H_ H_ 0.263542 0.853798 0.762279 0.11467
H_ H_ 0.148871 0.901444 0.902932 0.11467
H_ H_ 0.984312 0.710353 0.6936 0.38772
H_ H_ 0.438925 0.737738 0.625867 0.11467
H_ H_ 0.945492 0.628701 0.718932 0.11467
H_ H_ 0.447268 0.604448 0.606336 0.11467
H_ H_ 0.512665 0.735082 0.773184 0.38772
H_ H_ 0.525422 0.634597 0.767455 0.11467
H_ H_ 0.422818 0.745943 0.868304 0.11467
H_ H_ 0.424899 0.603828 0.910987 0.11467
H_ H_ 0.564949 0.790784 0.708734 0.38772
H_ H_ 0.455346 0.869533 0.729893 0.11467
H_ H_ 0.561833 0.768828 0.621361 0.11467
H_ H_ 0.911463 0.873933 0.610956 0.11467
C_ C_ 0.183467 0.558646 0.685368 0.73666
C_ C_ 0.203772 0.687967 0.552311 0.73666
C_ C_ 0.184277 0.60606 0.665893 -0.12398
C_ C_ 0.176419 0.637266 0.697721 -0.14019
C_ C_ 0.184984 0.680238 0.680022 0.32882
C_ C_ 0.193726 0.694265 0.633894 -0.14019
C_ C_ 0.199545 0.66698 0.599517 -0.12398
C_ C_ 0.191499 0.623693 0.616534 -0.14019
C_ C_ 0.438706 0.937881 0.811281 0.73666
C_ C_ 0.441397 0.811617 0.951324 0.73666
C_ C_ 0.466223 0.888182 0.830095 -0.12398
C_ C_ 0.995442 0.858902 0.789945 -0.14019
C_ C_ 1.0164643 0.811875 0.803424 0.32882
C_ C_ 0.994965 0.79662 0.848894 -0.14019
C_ C_ 0.467429 0.829213 0.899114 -0.12398
C_ C_ 0.437978 0.874806 0.879055 -0.14019
C_ C_ 0.110458 0.694612 0.931735 0.73666
C_ C_ 0.267844 0.560085 0.805926 0.73666
C_ C_ 0.173002 0.662626 0.901229 -0.12398
C_ C_ 0.218518 0.673639 0.896336 -0.14019
C_ C_ 0.275783 0.647369 0.867187 0.32882
C_ C_ 0.289856 0.608337 0.842956 -0.14019
C_ C_ 0.248313 0.598354 0.839423 -0.12398
C_ C_ 0.188684 0.62653 0.86819 -0.14019
C_ C_ 0.26265 0.81098 0.556072 0.73666
C_ C_ 0.128104 0.939473 0.694121 0.73666
C_ C_ 0.237455 0.827489 0.609027 -0.12398
C_ C_ 0.255308 0.796828 0.641072 -0.14019
C_ C_ 0.228124 0.809037 0.689807 0.32882
C_ C_ 0.189717 0.855771 0.705071 -0.14019
C_ C_ 0.173551 0.889656 0.673052 -0.12398
C_ C_ 0.198217 0.876276 0.624617 -0.14019
C_ C_ 0.181966 0.811254 0.949167 0.73666
C_ C_ 0.196147 0.93604 0.80904 0.73666
C_ C_ 0.206504 0.826583 0.895797 -0.12398
C_ C_ 0.254669 0.792332 0.865255 -0.14019
C_ C_ 0.277253 0.801091 0.817433 0.32882
C_ C_ 0.254773 0.847965 0.799982 -0.14019
C_ C_ 0.211554 0.886393 0.831131 -0.12398
C_ C_ 0.183793 0.874529 0.878963 -0.14019
C_ C_ 0.443967 0.690674 0.561266 0.73666
C_ C_ 0.446781 0.56475 0.698252 0.73666
C_ C_ 0.440904 0.674673 0.610285 -0.12398
C_ C_ 0.440768 0.703715 0.638098 -0.14019
C_ C_ 0.452104 0.686418 0.678498 0.32882
C_ C_ 0.45849 0.640067 0.6943 -0.14019
C_ C_ 0.444414 0.612986 0.675278 -0.12398
C_ C_ 0.440886 0.62901 0.630666 -0.14019
C_ C_ 0.994742 0.553475 0.819846 0.73666
C_ C_ 0.375872 0.698816 0.94716 0.73666
C_ C_ 0.486102 0.609912 0.836348 -0.12398
C_ C_ 0.500566 0.644878 0.803619 -0.14019
C_ C_ 0.478073 0.690987 0.816035 0.32882
C_ C_ 0.437996 0.708029 0.86211 -0.14019
C_ C_ 0.420933 0.677349 0.896109 -0.12398
C_ C_ 0.444633 0.626919 0.884125 -0.14019
C_ C_ 0.375341 0.933294 0.693647 0.73666
C_ C_ 0.0182379 0.810272 0.545377 0.73666
C_ C_ 0.425779 0.885868 0.67233 -0.12398
C_ C_ 0.461652 0.859045 0.696611 -0.14019
C_ C_ 0.507985 0.815408 0.680041 0.32882
C_ C_ 0.521159 0.795955 0.637348 -0.14019
C_ C_ 0.489981 0.821779 0.60914 -0.12398
C_ C_ 0.441169 0.868079 0.627961 -0.14019
O_ O_ 0.161396 0.55114 0.731089 -0.78662
O_ O_ 0.225807 0.520299 0.659959 -0.56571
O_ O_ 0.155948 0.71181 0.544101 -0.61745
O_ O_ 0.249818 0.695746 0.525445 -0.76398
O_ O_ 0.183563 0.705376 0.705753 -0.50924
O_ O_ 0.453312 0.950457 0.767108 -0.78662
O_ O_ 0.41068 0.973962 0.840052 -0.56571
O_ O_ 0.422437 0.778074 0.95628 -0.61745
O_ O_ 0.461621 0.808738 0.981937 -0.76398
O_ O_ 0.0445423 0.780953 0.771148 -0.50924
O_ O_ 0.0936439 0.732453 0.956289 -0.78662
O_ O_ 0.0711786 0.689832 0.925358 -0.56571
O_ O_ 0.317992 0.522151 0.799811 -0.61745
O_ O_ 0.242509 0.566666 0.777489 -0.76398
O_ O_ 0.312608 0.656663 0.868408 -0.50924
O_ O_ 0.295824 0.765877 0.542506 -0.78662
O_ O_ 0.234148 0.83748 0.530065 -0.56571
O_ O_ 0.146606 0.968719 0.697824 -0.61745
O_ O_ 0.0750623 0.943952 0.718073 -0.76398
O_ O_ 0.24566 0.782153 0.718101 -0.50924
O_ O_ 0.190676 0.76611 0.958269 -0.78662
O_ O_ 0.164978 0.838462 0.983 -0.56571
O_ O_ 0.182407 0.941912 0.772148 -0.61745
O_ O_ 0.218219 0.963472 0.810356 -0.76398
O_ O_ 0.314345 0.766957 0.790224 -0.50924
O_ O_ 0.425196 0.734797 0.549765 -0.78662
O_ O_ 0.48551 0.660658 0.525875 -0.56571
O_ O_ 0.398857 0.560244 0.72513 -0.61745
O_ O_ 0.492855 0.537031 0.705088 -0.76398
O_ O_ 0.961833 0.703305 0.687918 -0.50924
O_ O_ 0.0316454 0.53985 0.776835 -0.78662
O_ O_ 0.96158 0.531611 0.84097 -0.56571
O_ O_ 0.395834 0.696858 0.978469 -0.61745
O_ O_ 0.324912 0.731021 0.952801 -0.76398
O_ O_ 0.492135 0.718657 0.785096 -0.50924
O_ O_ 0.356289 0.945111 0.737965 -0.78662
O_ O_ 0.346321 0.958676 0.669691 -0.56571
O_ O_ 0.0642118 0.802901 0.502267 -0.61745
O_ O_ 0.983446 0.79424 0.548964 -0.76398
O_ O_ 0.536923 0.794635 0.702688 -0.50924
Ca Ca 0.766262 0.501703 0.239292 1.67025
Ca Ca 1.00267657 0.505893 0.262092 1.67025
Ca Ca 0.520024 0.234595 0.496889 1.67025
Ca Ca 0.74475 0.267865 0.513136 1.67025
Cd Cd 0.624606 0.00469691 0.251374 1.08508
Cd Cd 0.882322 0.493276 0.257386 1.08508
Cd Cd 0.629082 0.249052 0.498586 1.08508
Cd Cd 0.871233 0.248426 0.00112565 1.08508
H_ H_ 0.504465 0.127736 0.175955 0.38772
H_ H_ 0.605507 0.0665383 0.191673 0.11467
H_ H_ 0.573143 0.17559 0.0933523 0.11467
H_ H_ 0.722738 0.133788 0.128706 0.11467
H_ H_ 0.263184 0.384221 0.395556 0.38772
H_ H_ 0.362569 0.408354 0.319391 0.11467
H_ H_ 0.347336 0.317592 0.4395 0.11467
H_ H_ 0.973358 0.382021 0.387262 0.11467
H_ H_ 0.584686 0.205211 0.296737 0.38772
H_ H_ 0.591139 0.23052 0.380528 0.11467
H_ H_ 0.686931 0.118315 0.281314 0.11467
H_ H_ 0.728068 0.100654 0.400676 0.11467
H_ H_ 0.613581 0.270893 0.235001 0.38772
H_ H_ 0.725199 0.256562 0.139391 0.11467
H_ H_ 0.606613 0.366653 0.239184 0.11467
H_ H_ 0.691163 0.398905 0.0965951 0.11467
H_ H_ 0.596292 0.315796 0.328758 0.38772
H_ H_ 0.659889 0.279322 0.392571 0.11467
H_ H_ 0.629636 0.399286 0.304576 0.11467
H_ H_ 0.717513 0.388081 0.384883 0.11467
H_ H_ 0.241909 0.20928 0.204817 0.38772
H_ H_ 0.845479 0.235884 0.125112 0.11467
H_ H_ 0.335812 0.122106 0.232149 0.11467
H_ H_ 0.973876 0.0910815 0.0960047 0.11467
H_ H_ 0.959799 0.240456 0.264807 0.38772
H_ H_ 0.00376009 0.13743 0.262103 0.11467
H_ H_ 0.923613 0.23762 0.37058 0.11467
H_ H_ 0.931302 0.0945278 0.402335 0.11467
H_ H_ 0.856813 0.27511 0.235674 0.38772
H_ H_ 0.860853 0.36723 0.242499 0.11467
H_ H_ 0.948568 0.262837 0.135627 0.11467
H_ H_ 0.451588 0.389589 0.108107 0.11467
C_ C_ 0.695798 0.0710505 0.201771 0.73666
C_ C_ 0.670124 0.194641 0.0628174 0.73666
C_ C_ 0.667101 0.0982617 0.166316 -0.12398
C_ C_ 0.619315 0.0928218 0.170336 -0.14019
C_ C_ 0.587194 0.120975 0.145935 0.32882
C_ C_ 0.601326 0.154994 0.111924 -0.14019
C_ C_ 0.652014 0.16052 0.102329 -0.12398
C_ C_ 0.683431 0.13266 0.13147 -0.14019
C_ C_ 0.958563 0.440073 0.3092 0.73666
C_ C_ 0.93622 0.30516 0.439378 0.73666
C_ C_ 0.933768 0.402986 0.335673 -0.12398
C_ C_ 0.376274 0.391338 0.347044 -0.14019
C_ C_ 0.34429 0.368694 0.385977 0.32882
C_ C_ 0.371627 0.33534 0.414275 -0.14019
C_ C_ 0.925712 0.338862 0.399633 -0.12398
C_ C_ 0.946722 0.375295 0.375911 -0.14019
C_ C_ 0.635921 0.18976 0.445792 0.73666
C_ C_ 0.754558 0.0518877 0.317791 0.73666
C_ C_ 0.652812 0.167197 0.400432 -0.12398
C_ C_ 0.623378 0.193438 0.371596 -0.14019
C_ C_ 0.634777 0.173452 0.332017 0.32882
C_ C_ 0.671466 0.12748 0.318298 -0.14019
C_ C_ 0.707113 0.0982076 0.34225 -0.12398
C_ C_ 0.696912 0.118814 0.384481 -0.14019
C_ C_ 0.754456 0.30852 0.0576239 0.73666
C_ C_ 0.620444 0.440873 0.188284 0.73666
C_ C_ 0.711774 0.325478 0.109583 -0.12398
C_ C_ 0.704749 0.293649 0.146539 -0.14019
C_ C_ 0.660197 0.308024 0.191633 0.32882
C_ C_ 0.639399 0.354621 0.20552 -0.14019
C_ C_ 0.649171 0.389796 0.172063 -0.12398
C_ C_ 0.682101 0.374438 0.123109 -0.14019
C_ C_ 0.703794 0.309745 0.440906 0.73666
C_ C_ 0.691972 0.438703 0.308358 0.73666
C_ C_ 0.689011 0.329711 0.396949 -0.12398
C_ C_ 0.660917 0.314253 0.381776 -0.14019
C_ C_ 0.643541 0.33827 0.345515 0.32882
C_ C_ 0.654715 0.377711 0.324633 -0.14019
C_ C_ 0.684951 0.393079 0.334655 -0.12398
C_ C_ 0.700162 0.370415 0.372924 -0.14019
C_ C_ 0.938002 0.182792 0.0501345 0.73666
C_ C_ 0.941883 0.0596746 0.192726 0.73666
C_ C_ 0.912859 0.166482 0.101331 -0.12398
C_ C_ 0.863936 0.199489 0.135811 -0.14019
C_ C_ 0.841161 0.185765 0.184069 0.32882
C_ C_ 0.871489 0.142991 0.201345 -0.14019
C_ C_ 0.919182 0.108359 0.170053 -0.12398
C_ C_ 0.940286 0.119038 0.119614 -0.14019
C_ C_ 0.503699 0.0550233 0.316987 0.73666
C_ C_ 0.874455 0.189879 0.44783 0.73666
C_ C_ 0.983556 0.10895 0.331202 -0.12398
C_ C_ -0.013704999999999967 0.144253 0.298602 -0.14019
C_ C_ 0.96646 0.189065 0.313615 0.32882
C_ C_ 0.935303 0.202178 0.361697 -0.14019
C_ C_ 0.920759 0.168303 0.396861 -0.12398
C_ C_ 0.947247 0.12065 0.380721 -0.14019
C_ C_ 0.883157 0.439922 0.187794 0.73666
C_ C_ 0.495929 0.300107 0.0629641 0.73666
C_ C_ 0.907327 0.389129 0.171957 -0.12398
C_ C_ 0.893036 0.355875 0.20594 -0.14019
C_ C_ 0.907855 0.308941 0.194462 0.32882
C_ C_ 0.939037 0.296597 0.145833 -0.14019
C_ C_ 0.963235 0.323327 0.110296 -0.12398
C_ C_ 0.944561 0.370739 0.125027 -0.14019
O_ O_ 0.672664 0.0450472 0.237268 -0.78662
O_ O_ 0.743415 0.0717423 0.194907 -0.56571
O_ O_ 0.660532 0.19732 0.0256616 -0.61745
O_ O_ 0.701742 0.214598 0.0626659 -0.76398
O_ O_ 0.541486 0.118117 0.156825 -0.50924
O_ O_ 0.954519 0.4639 0.269871 -0.78662
O_ O_ 0.000813806 0.436205 0.316088 -0.56571
O_ O_ 0.929245 0.265755 0.446076 -0.61745
O_ O_ 0.964308 0.308616 0.461451 -0.76398
O_ O_ 0.299531 0.371734 0.386458 -0.50924
O_ O_ 0.608217 0.235441 0.45196 -0.78662
O_ O_ 0.624454 0.167197 0.484842 -0.56571
O_ O_ 0.807103 0.0475074 0.287566 -0.61745
O_ O_ 0.73825 0.0221136 0.312806 -0.76398
O_ O_ 0.610696 0.198486 0.306245 -0.50924
O_ O_ 0.787909 0.262179 0.0469142 -0.78662
O_ O_ 0.742331 0.335944 0.0232348 -0.56571
O_ O_ 0.643322 0.449974 0.211662 -0.61745
O_ O_ 0.564437 0.463766 0.19973 -0.76398
O_ O_ 0.64256 0.279672 0.218746 -0.50924
O_ O_ 0.693656 0.273468 0.46869 -0.78662
O_ O_ 0.734386 0.324562 0.44817 -0.56571
O_ O_ 0.645578 0.471525 0.3031 -0.61745
O_ O_ 0.742559 0.441095 0.285201 -0.76398
O_ O_ 0.626717 0.318718 0.327139 -0.50924
O_ O_ 0.922353 0.228811 0.0379061 -0.78662
O_ O_ 0.987531 0.15162 0.019733 -0.56571
O_ O_ 0.922806 0.0263038 0.195624 -0.61745
O_ O_ 0.970787 0.053939 0.218249 -0.76398
O_ O_ 0.274682 0.199837 0.206851 -0.50924
O_ O_ 0.53657 0.0416089 0.272544 -0.78662
O_ O_ 0.492857 0.0214001 0.344881 -0.56571
O_ O_ 0.89401 0.187237 0.479359 -0.61745
O_ O_ 0.824769 0.223785 0.451366 -0.76398
O_ O_ 0.972807 0.220821 0.283119 -0.50924
O_ O_ 0.85779 0.45044 0.234308 -0.78662
O_ O_ 0.862792 0.473211 0.159498 -0.56571
O_ O_ 0.540961 0.262882 0.0625194 -0.61745
O_ O_ 0.476206 0.300442 0.0324753 -0.76398
O_ O_ 0.886053 0.281874 0.222383 -0.50924
Ca Ca 0.754932 0.500811 0.730767 1.67025
Ca Ca 0.98911 0.497577 0.762861 1.67025
Ca Ca 0.510095 0.228444 -0.00357023 1.67025
Ca Ca 0.740378 0.263597 1.0025718 1.67025
Cd Cd 0.623705 0.0115243 0.753662 1.08508
Cd Cd 0.880068 0.498657 0.74831 1.08508
Cd Cd 0.613173 0.255471 0.997687 1.08508
Cd Cd 0.866742 0.248889 0.50407 1.08508
H_ H_ 0.503227 0.176776 0.663379 0.38772
H_ H_ 0.577451 0.120898 0.714504 0.11467
H_ H_ 0.577277 0.229684 0.614263 0.11467
H_ H_ 0.736518 0.122213 0.610545 0.11467
H_ H_ 0.514925 0.255196 0.755332 0.38772
H_ H_ 0.485035 0.363356 0.753857 0.11467
H_ H_ 0.462156 0.257401 0.862378 0.11467
H_ H_ 0.897697 0.395825 0.895071 0.11467
H_ H_ 0.62141 0.239021 0.775187 0.38772
H_ H_ 0.589875 0.230906 0.873529 0.11467
H_ H_ 0.68819 0.128352 0.766195 0.11467
H_ H_ 0.706591 0.0904986 0.897169 0.11467
H_ H_ 0.545885 0.316508 0.685355 0.38772
H_ H_ 0.677484 0.278429 0.614197 0.11467
H_ H_ 0.547608 0.402371 0.692545 0.11467
H_ H_ 0.713635 0.398686 0.613491 0.11467
H_ H_ 0.872851 0.330015 0.84874 0.38772
H_ H_ 0.787601 0.297789 0.909056 0.11467
H_ H_ 0.797608 0.402765 0.811875 0.11467
H_ H_ 0.640137 0.385298 0.879109 0.11467
H_ H_ 0.250488 0.169868 0.654138 0.38772
H_ H_ 0.854345 0.233554 0.625942 0.11467
H_ H_ 0.325775 0.098453 0.701199 0.11467
H_ H_ 0.981549 0.0925273 0.589642 0.11467
H_ H_ 0.856634 0.208221 0.774295 0.38772
H_ H_ -0.03991100000000003 0.113592 0.770388 0.11467
H_ H_ 0.841 0.227408 0.869627 0.11467
H_ H_ 0.949419 0.0958055 0.913778 0.11467
H_ H_ 0.950361 0.262231 0.747325 0.38772
H_ H_ 0.902265 0.37375 0.74335 0.11467
H_ H_ 0.99705351 0.259004 0.647705 0.11467
H_ H_ 0.436725 0.410253 0.598415 0.11467
C_ C_ 0.689891 0.0638758 0.684589 0.73666
C_ C_ 0.69262 0.202496 0.557506 0.73666
C_ C_ 0.661235 0.112423 0.665806 -0.12398
C_ C_ 0.601756 0.132374 0.682452 -0.14019
C_ C_ 0.573368 0.174536 0.663257 0.32882
C_ C_ 0.602795 0.199012 0.627492 -0.14019
C_ C_ 0.662418 0.176594 0.602393 -0.12398
C_ C_ 0.691529 0.133427 0.623286 -0.14019
C_ C_ 0.931113 0.437849 0.806138 0.73666
C_ C_ 0.941959 0.300962 0.93215 0.73666
C_ C_ 0.953079 0.386882 0.823295 -0.12398
C_ C_ 0.466675 0.35524 0.789469 -0.14019
C_ C_ 0.471623 0.308583 0.803811 0.32882
C_ C_ 0.461439 0.293203 0.85105 -0.14019
C_ C_ 0.951984 0.320692 0.883819 -0.12398
C_ C_ 0.929954 0.369829 0.870724 -0.14019
C_ C_ 0.625559 0.181211 0.941282 0.73666
C_ C_ 0.748975 0.0530984 0.803602 0.73666
C_ C_ 0.647845 0.163094 0.892741 -0.12398
C_ C_ 0.62106 0.194369 0.863449 -0.14019
C_ C_ 0.638828 0.182841 0.81597 0.32882
C_ C_ 0.678617 0.137044 0.800311 -0.14019
C_ C_ 0.704072 0.101935 0.828455 -0.12398
C_ C_ 0.689656 0.116564 0.874235 -0.14019
C_ C_ 0.762219 0.308568 0.56627 0.73666
C_ C_ 0.61287 0.446717 0.690138 0.73666
C_ C_ 0.705156 0.333957 0.607345 -0.12398
C_ C_ 0.665727 0.313155 0.628795 -0.14019
C_ C_ 0.612753 0.334687 0.665986 0.32882
C_ C_ 0.592267 0.381564 0.678954 -0.14019
C_ C_ 0.630301 0.403748 0.663687 -0.12398
C_ C_ 0.685334 0.381224 0.625365 -0.14019
C_ C_ 0.670291 0.308739 0.940529 0.73666
C_ C_ 0.69265 0.444965 0.813939 0.73666
C_ C_ 0.707218 0.336051 0.903698 -0.12398
C_ C_ 0.767509 0.32082 0.887453 -0.14019
C_ C_ 0.79796 0.343698 0.852008 0.32882
C_ C_ 0.772721 0.383813 0.832401 -0.14019
C_ C_ 0.715638 0.400042 0.839635 -0.12398
C_ C_ 0.682292 0.376004 0.875594 -0.14019
C_ C_ 0.940718 0.186352 0.550275 0.73666
C_ C_ 0.940419 0.0547677 0.683029 0.73666
C_ C_ 0.914638 0.164608 0.598044 -0.12398
C_ C_ 0.862543 0.196338 0.631934 -0.14019
C_ C_ 0.835318 0.182937 0.677179 0.32882
C_ C_ 0.865779 0.139102 0.692092 -0.14019
C_ C_ 0.915321 0.103335 0.661905 -0.12398
C_ C_ 0.943772 0.118537 0.614378 -0.14019
C_ C_ 0.50335 0.0581756 0.809102 0.73666
C_ C_ 0.86492 0.19086 0.944801 0.73666
C_ C_ 0.96717 0.10122 0.835843 -0.12398
C_ C_ 0.942113 0.128728 0.803798 -0.14019
C_ C_ 0.897157 0.175905 0.816477 0.32882
C_ C_ 0.872451 0.192103 0.862774 -0.14019
C_ C_ 0.892182 0.165344 0.897469 -0.12398
C_ C_ 0.938443 0.118024 0.884695 -0.14019
C_ C_ 0.872325 0.445961 0.687539 0.73666
C_ C_ 0.501868 0.313926 0.565856 0.73666
C_ C_ 0.915706 0.39433 0.672387 -0.12398
C_ C_ 0.921885 0.360973 0.707914 -0.14019
C_ C_ 0.956501 0.311502 0.696762 0.32882
C_ C_ 0.975852 0.29536 0.652463 -0.14019
C_ C_ 0.973852 0.326223 0.61372 -0.12398
C_ C_ 0.948154 0.37771 0.62417 -0.14019
O_ O_ 0.667737 0.0533055 0.729478 -0.78662
O_ O_ 0.746135 0.0479667 0.663895 -0.56571
O_ O_ 0.660944 0.243702 0.546636 -0.61745
O_ O_ 0.745232 0.195593 0.546396 -0.76398
O_ O_ 0.522198 0.18581 0.671474 -0.50924
O_ O_ 0.945824 0.447725 0.76087 -0.78662
O_ O_ 0.919661 0.47088 0.832891 -0.56571
O_ O_ 0.888227 0.302275 0.962669 -0.61745
O_ O_ 0.988004 0.270348 0.939327 -0.76398
O_ O_ 0.486447 0.279694 0.772994 -0.50924
O_ O_ 0.601179 0.227033 0.950034 -0.78662
O_ O_ 0.605459 0.155594 0.975615 -0.56571
O_ O_ 0.797928 0.0521384 0.768548 -0.61745
O_ O_ 0.735397 0.0186983 0.803073 -0.76398
O_ O_ 0.618523 0.214366 0.791414 -0.50924
O_ O_ 0.789996 0.26289 0.563086 -0.78662
O_ O_ 0.772603 0.329143 0.525055 -0.56571
O_ O_ 0.633665 0.441845 0.72231 -0.61745
O_ O_ 0.562349 0.482111 0.696149 -0.76398
O_ O_ 0.576635 0.315724 0.684722 -0.50924
O_ O_ 0.691004 0.268171 0.956852 -0.78662
O_ O_ 0.615791 0.325171 0.951124 -0.56571
O_ O_ 0.664667 0.447393 0.789117 -0.61745
O_ O_ 0.713651 0.478019 0.807187 -0.76398
O_ O_ 0.847181 0.329611 0.84257 -0.50924
O_ O_ 0.91804 0.232827 0.541534 -0.78662
O_ O_ 0.994576 0.163873 0.523422 -0.56571
O_ O_ 0.915584 0.0268971 0.690663 -0.61745
O_ O_ 0.966514 0.0535021 0.711261 -0.76398
O_ O_ 0.274146 0.175554 0.65852 -0.50924
O_ O_ 0.53863 0.0429708 0.765805 -0.78662
O_ O_ 0.495892 0.0265115 0.840105 -0.56571
O_ O_ 0.875434 0.227342 0.943107 -0.61745
O_ O_ 0.814864 0.193556 0.972766 -0.76398
O_ O_ 0.880378 0.199863 0.787341 -0.50924
O_ O_ 0.847545 0.461263 0.729843 -0.78662
O_ O_ 0.845972 0.472473 0.660717 -0.56571
O_ O_ 0.558219 0.297939 0.547982 -0.61745
O_ O_ 0.482639 0.299263 0.543519 -0.76398
O_ O_ 0.960677 0.282711 0.728309 -0.50924
Ca Ca 0.761391 -0.0017209999999999726 0.240448 1.67025
Ca Ca 0.00473122 0.994324 0.264237 1.67025
Ca Ca 0.515492 0.732737 0.503216 1.67025
Ca Ca 0.753586 0.769642 0.492821 1.67025
Cd Cd 0.628211 0.505159 0.2476 1.08508
Cd Cd 0.881359 0.991693 0.250603 1.08508
Cd Cd 0.640909 0.746816 0.496638 1.08508
Cd Cd 0.861282 0.760393 0.0102305 1.08508
H_ H_ 0.502253 0.622713 0.171152 0.38772
H_ H_ 0.584886 0.595402 0.219273 0.11467
H_ H_ 0.568348 0.683847 0.100248 0.11467
H_ H_ 0.729073 0.623789 0.116195 0.11467
H_ H_ 0.563628 0.75315 0.259437 0.38772
H_ H_ 0.498638 0.859931 0.251989 0.11467
H_ H_ 0.497098 0.755613 0.360662 0.11467
H_ H_ 0.985615 0.861854 0.374387 0.11467
H_ H_ 0.640098 0.743648 0.267589 0.38772
H_ H_ 0.608526 0.740875 0.37235 0.11467
H_ H_ 0.725751 0.639867 0.258913 0.11467
H_ H_ 0.710992 0.59949 0.403634 0.11467
H_ H_ 0.855189 0.846483 0.131962 0.38772
H_ H_ 0.819652 0.803689 0.0871066 0.11467
H_ H_ 0.729095 0.902355 0.194371 0.11467
H_ H_ 0.642917 0.895936 0.118263 0.11467
H_ H_ 0.779279 0.774262 0.248175 0.38772
H_ H_ 0.754197 0.758869 0.356715 0.11467
H_ H_ 0.773742 0.865708 0.254262 0.11467
H_ H_ 0.664534 0.903901 0.400505 0.11467
H_ H_ 0.290216 0.739333 0.246332 0.38772
H_ H_ 0.826674 0.721095 0.109737 0.11467
H_ H_ 0.333162 0.63358 0.247723 0.11467
H_ H_ 0.981065 0.602887 0.104976 0.11467
H_ H_ 0.891353 0.739628 0.252761 0.38772
H_ H_ -0.01657200000000003 0.637911 0.249834 0.11467
H_ H_ 0.859978 0.745274 0.356558 0.11467
H_ H_ 0.94145 0.604481 0.401755 0.11467
H_ H_ 0.0877918 0.839322 0.165539 0.38772
H_ H_ 0.96446 0.902668 0.200034 0.11467
H_ H_ 0.0765105 0.80804 0.0876207 0.11467
H_ H_ 0.434869 0.898915 0.0963762 0.11467
C_ C_ 0.696675 0.571315 0.197169 0.73666
C_ C_ 0.672813 0.691356 0.0590794 0.73666
C_ C_ 0.66233 0.603795 0.168916 -0.12398
C_ C_ 0.605967 0.608156 0.182482 -0.14019
C_ C_ 0.575902 0.632241 0.152554 0.32882
C_ C_ 0.598758 0.659651 0.114063 -0.14019
C_ C_ 0.651761 0.659391 0.10151 -0.12398
C_ C_ 0.685054 0.629345 0.127558 -0.14019
C_ C_ 0.957278 0.930919 0.305292 0.73666
C_ C_ 0.923034 0.818004 0.450493 0.73666
C_ C_ 0.922965 0.904556 0.342024 -0.12398
C_ C_ 0.490712 0.853408 0.289486 -0.14019
C_ C_ 0.498658 0.806559 0.302124 0.32882
C_ C_ 0.486289 0.792724 0.350403 -0.14019
C_ C_ 0.907983 0.848503 0.410958 -0.12398
C_ C_ 0.942361 0.8718 0.374205 -0.14019
C_ C_ 0.633249 0.687922 0.445217 0.73666
C_ C_ 0.760168 0.560749 0.311056 0.73666
C_ C_ 0.658028 0.672851 0.395314 -0.12398
C_ C_ 0.642294 0.706591 0.361034 -0.14019
C_ C_ 0.661323 0.694058 0.314635 0.32882
C_ C_ 0.704077 0.647152 0.296232 -0.14019
C_ C_ 0.717323 0.610553 0.329396 -0.12398
C_ C_ 0.695168 0.623948 0.377879 -0.14019
C_ C_ 0.730631 0.814943 0.0664361 0.73666
C_ C_ 0.61805 0.937398 0.203967 0.73666
C_ C_ 0.731305 0.841831 0.10137 -0.12398
C_ C_ 0.778854 0.82574 0.112655 -0.14019
C_ C_ 0.777275 0.850844 0.145163 0.32882
C_ C_ 0.724989 0.886517 0.172812 -0.14019
C_ C_ 0.67362 0.89932 0.169899 -0.12398
C_ C_ 0.677811 0.878656 0.131015 -0.14019
C_ C_ 0.692716 0.808745 0.439516 0.73666
C_ C_ 0.697962 0.943787 0.305813 0.73666
C_ C_ 0.704359 0.827277 0.387916 -0.12398
C_ C_ 0.742217 0.795423 0.34867 -0.14019
C_ C_ 0.762965 0.810271 0.301805 0.32882
C_ C_ 0.752116 0.856559 0.291326 -0.14019
C_ C_ 0.711456 0.892915 0.325186 -0.12398
C_ C_ 0.69063 0.877305 0.3745 -0.14019
C_ C_ 0.939973 0.690152 0.0561149 0.73666
C_ C_ 0.930218 0.562199 0.194403 0.73666
C_ C_ 0.908647 0.66768 0.102048 -0.12398
C_ C_ 0.850135 0.689316 0.121448 -0.14019
C_ C_ 0.818798 0.667744 0.158897 0.32882
C_ C_ 0.844182 0.624924 0.180147 -0.14019
C_ C_ 0.903703 0.605601 0.167594 -0.12398
C_ C_ 0.935303 0.625892 0.126273 -0.14019
C_ C_ 0.509878 0.544928 0.319408 0.73666
C_ C_ 0.871463 0.698286 0.433722 0.73666
C_ C_ 0.968191 0.613322 0.321923 -0.12398
C_ C_ 0.959814 0.64785 0.286692 -0.14019
C_ C_ 0.916612 0.693041 0.300196 0.32882
C_ C_ 0.887469 0.707863 0.348046 -0.14019
C_ C_ 0.90125 0.677451 0.383879 -0.12398
C_ C_ 0.936048 0.629028 0.371784 -0.14019
C_ C_ 0.872158 0.944442 0.18297 0.73666
C_ C_ 0.492966 0.80622 0.0588888 0.73666
C_ C_ 0.927975 0.906018 0.154621 -0.12398
C_ C_ 0.970525 0.886837 0.170619 -0.14019
C_ C_ 0.0205894 0.850011 0.149367 0.32882
C_ C_ 0.0343129 0.832397 0.106252 -0.14019
C_ C_ 0.992642 0.844456 0.0896045 -0.12398
C_ C_ 0.937691 0.883664 0.113231 -0.14019
O_ O_ 0.679632 0.543068 0.232336 -0.78662
O_ O_ 0.740935 0.575057 0.192368 -0.56571
O_ O_ 0.658211 0.697484 0.0226504 -0.61745
O_ O_ 0.708577 0.709067 0.0549102 -0.76398
O_ O_ 0.527004 0.634131 0.165554 -0.50924
O_ O_ 0.945187 0.957439 0.271057 -0.78662
O_ O_ 0.00306571 0.924417 0.308948 -0.56571
O_ O_ 0.880943 0.808931 0.487169 -0.61745
O_ O_ 0.975501 0.787095 0.440986 -0.76398
O_ O_ 0.531611 0.775401 0.272284 -0.50924
O_ O_ 0.606374 0.732684 0.460307 -0.78662
O_ O_ 0.611148 0.660763 0.475913 -0.56571
O_ O_ 0.814412 0.554208 0.285903 -0.61745
O_ O_ 0.743792 0.529104 0.309626 -0.76398
O_ O_ 0.637075 0.722463 0.289748 -0.50924
O_ O_ 0.775315 0.77977 0.038361 -0.78662
O_ O_ 0.680625 0.818545 0.0737668 -0.56571
O_ O_ 0.615238 0.950393 0.241681 -0.61745
O_ O_ 0.571651 0.960009 0.19687 -0.76398
O_ O_ 0.821862 0.844428 0.146931 -0.50924
O_ O_ 0.708928 0.761984 0.45035 -0.78662
O_ O_ 0.677884 0.836729 0.472198 -0.56571
O_ O_ 0.692859 0.952766 0.265864 -0.61745
O_ O_ 0.723168 0.965571 0.312198 -0.76398
O_ O_ 0.785248 0.781701 0.268081 -0.50924
O_ O_ 0.91221 0.735238 0.0450797 -0.78662
O_ O_ 0.996186 0.667742 0.0320389 -0.56571
O_ O_ 0.917776 0.526077 0.198785 -0.61745
O_ O_ 0.955929 0.564444 0.217709 -0.76398
O_ O_ 0.299035 0.718787 0.227298 -0.50924
O_ O_ 0.538824 0.536509 0.273587 -0.78662
O_ O_ 0.495347 0.51175 0.345771 -0.56571
O_ O_ 0.877091 0.734924 0.440288 -0.61745
O_ O_ 0.821696 0.695657 0.459842 -0.76398
O_ O_ 0.911308 0.722759 0.268933 -0.50924
O_ O_ 0.855204 0.951595 0.228992 -0.78662
O_ O_ 0.83017 0.960674 0.168732 -0.56571
O_ O_ 0.542268 0.768629 0.0496755 -0.61745
O_ O_ 0.461899 0.808417 0.0380072 -0.76398
O_ O_ 0.0600276 0.836226 0.163581 -0.50924
Ca Ca 0.75847 1.00062 0.729969 1.67025
Ca Ca -0.0049559999999999604 1.00073 0.76793 1.67025
Ca Ca 0.500791 0.734026 1.00427756 1.67025
Ca Ca 0.730334 0.767305 1.00227 1.67025
Cd Cd 0.625937 0.499012 0.751841 1.08508
Cd Cd 0.876564 0.992826 0.746348 1.08508
Cd Cd 0.618278 0.757191 0.992531 1.08508
Cd Cd 0.884759 0.744878 0.496446 1.08508
H_ H_ 0.668702 0.715513 0.737461 0.38772
H_ H_ 0.659844 0.622864 0.739572 0.11467
H_ H_ 0.674741 0.732273 0.636802 0.11467
H_ H_ 0.721997 0.595118 0.589825 0.11467
H_ H_ 0.634058 0.77615 0.785377 0.38772
H_ H_ 0.537496 0.857804 0.76321 0.11467
H_ H_ 0.545756 0.769239 0.884229 0.11467
H_ H_ 0.908608 0.903177 0.902826 0.11467
H_ H_ 0.759737 0.736217 0.779562 0.38772
H_ H_ 0.666451 0.739218 0.875383 0.11467
H_ H_ 0.75756 0.645619 0.759876 0.11467
H_ H_ 0.685088 0.595906 0.900395 0.11467
H_ H_ 0.813706 0.772997 0.701127 0.38772
H_ H_ 0.796042 0.762517 0.618381 0.11467
H_ H_ 0.714759 0.869039 0.72166 0.11467
H_ H_ 0.671738 0.900738 0.602328 0.11467
H_ H_ 0.852979 0.762254 0.767278 0.38772
H_ H_ 0.757178 0.760684 0.867816 0.11467
H_ H_ 0.79102 0.864843 0.761309 0.11467
H_ H_ 0.643789 0.906322 0.894249 0.11467
H_ H_ 0.484743 0.720424 0.696397 0.38772
H_ H_ 0.952814 0.730609 0.607593 0.11467
H_ H_ 0.472338 0.627109 0.722442 0.11467
H_ H_ 0.953041 0.600062 0.588227 0.11467
H_ H_ 0.0794348 0.674346 0.821698 0.38772
H_ H_ 0.0598873 0.602484 0.787388 0.11467
H_ H_ 0.965825 0.70537 0.894957 0.11467
H_ H_ 0.902264 0.605673 0.897999 0.11467
H_ H_ 0.0998738 0.872946 0.634837 0.38772
H_ H_ 0.969452 0.915305 0.689609 0.11467
H_ H_ 0.0925568 0.828113 0.568908 0.11467
H_ H_ 0.420687 0.886161 0.604419 0.11467
C_ C_ 0.688688 0.55395 0.686571 0.73666
C_ C_ 0.702742 0.688969 0.556966 0.73666
C_ C_ 0.683845 0.603891 0.667925 -0.12398
C_ C_ 0.664734 0.636539 0.704674 -0.14019
C_ C_ 0.666968 0.679465 0.69266 0.32882
C_ C_ 0.673539 0.697412 0.646304 -0.14019
C_ C_ 0.687212 0.668807 0.608864 -0.12398
C_ C_ 0.695619 0.619953 0.620913 -0.14019
C_ C_ 0.937217 0.945039 0.807626 0.73666
C_ C_ 0.93366 0.806742 0.935483 0.73666
C_ C_ 0.953081 0.893624 0.825649 -0.12398
C_ C_ 0.518877 0.851767 0.800725 -0.14019
C_ C_ 0.548424 0.812357 0.821464 0.32882
C_ C_ 0.519923 0.797971 0.867833 -0.14019
C_ C_ 0.953321 0.826746 0.886501 -0.12398
C_ C_ 0.93345 0.878313 0.875236 -0.14019
C_ C_ 0.61472 0.689674 0.941798 0.73666
C_ C_ 0.755293 0.566882 0.804156 0.73666
C_ C_ 0.665751 0.671328 0.89479 -0.12398
C_ C_ 0.68239 0.70413 0.863279 -0.14019
C_ C_ 0.717897 0.693835 0.815826 0.32882
C_ C_ 0.733601 0.652591 0.796138 -0.14019
C_ C_ 0.726666 0.614425 0.826274 -0.12398
C_ C_ 0.69194 0.623954 0.876797 -0.14019
C_ C_ 0.762856 0.813452 0.550865 0.73666
C_ C_ 0.634741 0.936705 0.693419 0.73666
C_ C_ 0.738372 0.829321 0.601605 -0.12398
C_ C_ 0.767404 0.798747 0.62974 -0.14019
C_ C_ 0.754914 0.813759 0.674898 0.32882
C_ C_ 0.714731 0.857159 0.692313 -0.14019
C_ C_ 0.681657 0.889199 0.667859 -0.12398
C_ C_ 0.694363 0.875028 0.621692 -0.14019
C_ C_ 0.681023 0.811179 0.941763 0.73666
C_ C_ 0.69095 0.938523 0.800832 0.73666
C_ C_ 0.70081 0.828208 0.889419 -0.12398
C_ C_ 0.745552 0.796139 0.856497 -0.14019
C_ C_ 0.780952 0.808653 0.810774 0.32882
C_ C_ 0.764611 0.854878 0.794497 -0.14019
C_ C_ 0.712734 0.889564 0.823215 -0.12398
C_ C_ 0.682773 0.877359 0.87256 -0.14019
C_ C_ 0.945309 0.692994 0.547362 0.73666
C_ C_ 0.94191 0.561466 0.682823 0.73666
C_ C_ 0.947948 0.670083 0.594698 -0.12398
C_ C_ 0.948806 0.697616 0.623384 -0.14019
C_ C_ 0.95331 0.680064 0.666124 0.32882
C_ C_ 0.941653 0.639926 0.687037 -0.14019
C_ C_ 0.93932 0.61012 0.661693 -0.12398
C_ C_ 0.944469 0.626033 0.613488 -0.14019
C_ C_ 0.50769 0.559534 0.817405 0.73666
C_ C_ 0.870694 0.68928 0.94936 0.73666
C_ C_ 0.98378 0.598065 0.841159 -0.12398
C_ C_ 0.0239088 0.617907 0.819642 -0.14019
C_ C_ 0.0148958 0.658276 0.83731 0.32882
C_ C_ 0.965131 0.680837 0.877689 -0.14019
C_ C_ 0.924805 0.661924 0.902865 -0.12398
C_ C_ 0.933109 0.621695 0.882669 -0.14019
C_ C_ 0.867593 0.934584 0.685191 0.73666
C_ C_ 0.512134 0.798678 0.561107 0.73666
C_ C_ 0.93114 0.897934 0.654225 -0.12398
C_ C_ 0.977863 0.892569 0.663163 -0.14019
C_ C_ 0.0351571 0.865587 0.632506 0.32882
C_ C_ 0.0487206 0.838772 0.596229 -0.14019
C_ C_ 0.0042599999999999305 0.841924 0.585554 -0.12398
C_ C_ 0.945849 0.869183 0.617611 -0.14019
O_ O_ 0.668872 0.541778 0.73233 -0.78662
O_ O_ 0.726375 0.520954 0.656174 -0.56571
O_ O_ 0.671261 0.6933 0.533743 -0.61745
O_ O_ 0.735966 0.711129 0.542852 -0.76398
O_ O_ 0.659951 0.703604 0.722407 -0.50924
O_ O_ 0.953162 0.956117 0.762356 -0.78662
O_ O_ 0.911029 0.979663 0.837365 -0.56571
O_ O_ 0.907028 0.77856 0.945793 -0.61745
O_ O_ 0.94715 0.812758 0.968 -0.76398
O_ O_ 0.598635 0.783628 0.79457 -0.50924
O_ O_ 0.590358 0.734688 0.954282 -0.78662
O_ O_ 0.585826 0.664357 0.964784 -0.56571
O_ O_ 0.808157 0.542079 0.80014 -0.61745
O_ O_ 0.739282 0.560396 0.774125 -0.76398
O_ O_ 0.73432 0.724478 0.791507 -0.50924
O_ O_ 0.794372 0.769664 0.537484 -0.78662
O_ O_ 0.739182 0.841894 0.522627 -0.56571
O_ O_ 0.651111 0.964055 0.704818 -0.61745
O_ O_ 0.580973 0.943876 0.709636 -0.76398
O_ O_ 0.781625 0.788452 0.69702 -0.50924
O_ O_ 0.694493 0.765101 0.952651 -0.78662
O_ O_ 0.657817 0.83827 0.976993 -0.56571
O_ O_ 0.665189 0.944352 0.771607 -0.61745
O_ O_ 0.710238 0.969121 0.7982 -0.76398
O_ O_ 0.817732 0.776377 0.781108 -0.50924
O_ O_ 0.919886 0.739164 0.541867 -0.78662
O_ O_ 0.975279 0.666306 0.509109 -0.56571
O_ O_ 0.894168 0.556627 0.708592 -0.61745
O_ O_ 0.988076 0.531236 0.689724 -0.76398
O_ O_ 0.459911 0.710546 0.699343 -0.50924
O_ O_ 0.53837 0.54822 0.772513 -0.78662
O_ O_ 0.488037 0.530003 0.843498 -0.56571
O_ O_ 0.881931 0.697902 0.983207 -0.61745
O_ O_ 0.819616 0.709181 0.950308 -0.76398
O_ O_ 0.0520167 0.673174 0.817626 -0.50924
O_ O_ 0.849908 0.951174 0.727205 -0.78662
O_ O_ 0.828445 0.935073 0.67394 -0.56571
O_ O_ 0.560917 0.760381 0.548638 -0.61745
O_ O_ 0.477761 0.802803 0.542105 -0.76398
O_ O_ 0.0734218 0.86333 0.641092 -0.50924
