_cell_length_a 20.436
_cell_length_b 9.005
_cell_length_c 16.672
_cell_angle_alpha 90.0
_cell_angle_beta 110.23
_cell_angle_gamma 90.0
_symmetry_space_group_name_H-M         'P 1'
_symmetry_Int_Tables_number            1
loop_
_symmetry_equiv_pos_as_xyz
   'x, y, z'
                         
loop_
_atom_site_label
_atom_site_type_symbol
_atom_site_fract_x 
_atom_site_fract_y
_atom_site_fract_z
_atom_site_charge
Zn1 Zn1 0.160814 0.305299 0.267514 0.0
Zn2 Zn2 0.0 0.2481513 0.25 0.0
O1 O1 0.05532 0.11116 0.33803 0.0
O4 O4 0.06473 0.36547 0.21924 0.0
O2 O2 0.15742 0.22756 0.38123 0.0
N1 N1 0.26513 0.04147 0.69613 0.0
N2 N2 0.19103 -0.12967 0.71653 0.0
C8 C8 0.19553 0.09398 0.54164 0.0
H8 H8 0.228 0.1609 0.5321 0.0
C10 C10 0.11473 0.13867 0.39324 0.0
C7 C7 0.13223 0.06147 0.47734 0.0
C5 C5 0.10044 -0.11428 0.56754 0.0
H5 H5 0.069 -0.1849 0.5764 0.0
C9 C9 0.20883 0.02497 0.61934 0.0
C3 C3 0.25054 -0.05219 0.75024 0.0
C4 C4 0.16303 -0.07887 0.63194 0.0
C6 C6 0.08613 -0.04198 0.49034 0.0
H6 H6 0.0438 -0.063 0.445 0.0
O3 O3 0.33695 0.04869 0.87124 0.0
H3A H3A 0.3121 0.1077 0.8872 0.0
C2 C2 0.29896 -0.081611 0.83916 0.0
H2 H2 0.2752 -0.1239 0.8773 0.0
C1 C1 0.36778 -0.178618 0.83881 0.0
H1A H1A 0.3985 -0.1962 0.8978 0.0
H1B H1B 0.393 -0.123 0.8082 0.0
H1C H1C 0.3523 -0.274 0.8102 0.0
O3W O3W 0.228813 0.1633 0.899615 0.0
H4 H4 0.0657 0.39715 0.1858 0.0
O2W O2W 0.085011 0.6202 0.346213 0.0
O1W O1W -0.03929 0.4672 0.04261 0.0
O4W O4W 0.0 0.8095 0.25 0.0
