_cell_length_a 19.62264
_cell_length_b 19.62264
_cell_length_c 14.20866
_cell_angle_alpha 90.0
_cell_angle_beta 90.0
_cell_angle_gamma 90.0
_symmetry_space_group_name_H-M         'P 1'
_symmetry_Int_Tables_number            1
loop_
_symmetry_equiv_pos_as_xyz
   'x, y, z'
                         
loop_
_atom_site_label
_atom_site_type_symbol
_atom_site_fract_x 
_atom_site_fract_y
_atom_site_fract_z
_atom_site_charge
Q1 Q1 -0.2677661 0.2322341 0.0 0.0
W1 W1 -0.797463 0.202543 -0.25 0.0
O1 O1 -0.3411613 0.2299114 -0.12622 0.0
O2 O2 -0.3971713 0.2208616 0.00633 0.0
O3 O3 -0.6555015 0.2686417 -0.03592 0.0
O4 O4 -0.7028814 0.2212819 -0.16032 0.0
O5 O5 -0.50462 0.17532 -0.37972 0.0
H5 H5 -0.5362 0.1906 -0.411 0.0
C1 C1 -0.3967019 0.22242 -0.08182 0.0
C2 C2 -0.6518919 0.23852 -0.11493 0.0
C3 C3 -0.4607518 0.21672 -0.13793 0.0
C4 C4 -0.45542 0.19742 -0.23263 0.0
H4 H4 -0.4129 0.1877 -0.2583 0.0
C5 C5 -0.51332 0.19272 -0.28783 0.0
C6 C6 -0.5767819 0.20602 -0.24933 0.0
H6 H6 -0.6157 0.2019 -0.2862 0.0
C7 C7 -0.5823719 0.22562 -0.15513 0.0
C8 C8 -0.52412 0.23032 -0.09923 0.0
H8 H8 -0.5278 0.2425 -0.0361 0.0
