_cell_length_a 25.197999999999997
_cell_length_b 34.583999824838685
_cell_length_c 38.58799987596545
_cell_angle_alpha 65.18100060550384
_cell_angle_beta 84.55000019394812
_cell_angle_gamma 83.65899960006006
_symmetry_space_group_name_H-M         'P 1'
_symmetry_Int_Tables_number            1
loop_
_symmetry_equiv_pos_as_xyz
   'x, y, z'
                         
loop_
_atom_site_label
_atom_site_type_symbol
_atom_site_fract_x 
_atom_site_fract_y
_atom_site_fract_z
_atom_site_charge
Ba Ba 0.177745 0.119431 0.174627 1.59802
Ba Ba 0.176649 0.118236 0.424748 1.59802
Ba Ba 0.173177 0.369945 0.17489 1.59802
Ba Ba 0.177052 0.368631 0.426154 1.59802
Ba Ba 0.425771 0.120925 0.171419 1.59802
Ba Ba 0.423198 0.118223 0.429288 1.59802
Ba Ba 0.423785 0.370621 0.172419 1.59802
Ba Ba 0.423602 0.371712 0.425139 1.59802
Ba Ba 0.200184 0.218274 0.224139 1.6626
Ba Ba 0.20255 0.218391 0.475304 1.6626
Ba Ba 0.198598 0.467305 0.226162 1.6626
Ba Ba 0.198299 0.466294 0.476579 1.6626
Ba Ba 0.447894 0.21749 0.225155 1.6626
Ba Ba 0.449833 0.219116 0.478641 1.6626
Ba Ba 0.449886 0.468091 0.222331 1.6626
Ba Ba 0.450733 0.469934 0.475613 1.6626
Ba Ba 0.0784649 0.129443 0.0768445 1.59802
Ba Ba 0.0752207 0.129337 0.326608 1.59802
Ba Ba 0.0754837 0.380175 0.0748913 1.59802
Ba Ba 0.0730013 0.380611 0.326473 1.59802
Ba Ba 0.321206 0.132253 0.0733949 1.59802
Ba Ba 0.325905 0.127953 0.324201 1.59802
Ba Ba 0.324797 0.381746 0.0767283 1.59802
Ba Ba 0.327755 0.381249 0.327324 1.59802
Ba Ba 0.0521991 0.0332216 0.0258047 1.6626
Ba Ba 0.0500242 0.0304357 0.275839 1.6626
Ba Ba 0.0542094 0.28024 0.0235366 1.6626
Ba Ba 0.0518486 0.281359 0.274304 1.6626
Ba Ba 0.299 0.0310876 0.0239872 1.6626
Ba Ba 0.303549 0.0291845 0.270984 1.6626
Ba Ba 0.2997 0.28183 0.0270948 1.6626
Ba Ba 0.300133 0.279806 0.276197 1.6626
C_ C_ 0.0515011 0.13858 0.212422 0.57753
C_ C_ 0.0477421 0.138139 0.46491 0.57753
C_ C_ 0.0461519 0.388244 0.213202 0.57753
C_ C_ 0.0482401 0.390189 0.465688 0.57753
C_ C_ 0.294079 0.139579 0.211264 0.57753
C_ C_ 0.291997 0.138289 0.466493 0.57753
C_ C_ 0.292781 0.38854 0.215051 0.57753
C_ C_ 0.298054 0.387733 0.46954 0.57753
C_ C_ 0.0767156 0.161722 0.224427 0.57753
C_ C_ 0.07529 0.159444 0.476955 0.57753
C_ C_ 0.0757683 0.412916 0.226227 0.57753
C_ C_ 0.0772096 0.420731 0.471173 0.57753
C_ C_ 0.326176 0.162447 0.225005 0.57753
C_ C_ 0.323325 0.164637 0.47725 0.57753
C_ C_ 0.323198 0.417217 0.222762 0.57753
C_ C_ 0.325256 0.412731 0.479045 0.57753
C_ C_ 0.0334099 0.0610161 0.175941 0.55563
C_ C_ 0.0351129 0.0630558 0.424522 0.55563
C_ C_ 0.037264 0.311637 0.175163 0.55563
C_ C_ 0.0353457 0.313712 0.425826 0.55563
C_ C_ 0.283497 0.0671645 0.171181 0.55563
C_ C_ 0.283862 0.0607333 0.427004 0.55563
C_ C_ 0.280846 0.314804 0.175711 0.55563
C_ C_ 0.284063 0.313376 0.427963 0.55563
C_ C_ 0.0967344 0.0558941 0.178501 0.55563
C_ C_ 0.0908532 0.0591767 0.424 0.55563
C_ C_ 0.0918588 0.305868 0.176225 0.55563
C_ C_ 0.0975828 0.306775 0.427822 0.55563
C_ C_ 0.344787 0.0627803 0.171392 0.55563
C_ C_ 0.344065 0.0587625 0.428104 0.55563
C_ C_ 0.343524 0.309831 0.175827 0.55563
C_ C_ 0.339666 0.309988 0.429166 0.55563
C_ C_ 0.20291 0.110378 0.0357459 0.57753
C_ C_ 0.199302 0.106581 0.291293 0.57753
C_ C_ 0.20165 0.360501 0.037979 0.57753
C_ C_ 0.202775 0.358889 0.291296 0.57753
C_ C_ 0.453882 0.111515 0.0381127 0.57753
C_ C_ 0.455875 0.10768 0.287448 0.57753
C_ C_ 0.452356 0.360693 0.0369995 0.57753
C_ C_ 0.450104 0.35931 0.288344 0.57753
C_ C_ 0.175562 0.0880133 0.0239276 0.57753
C_ C_ 0.172149 0.0838617 0.27999 0.57753
C_ C_ 0.175643 0.337431 0.0256553 0.57753
C_ C_ 0.175152 0.331419 0.280258 0.57753
C_ C_ 0.423594 0.0863716 0.0260033 0.57753
C_ C_ 0.425546 0.0826643 0.273233 0.57753
C_ C_ 0.422525 0.336418 0.0242119 0.57753
C_ C_ 0.423251 0.336699 0.277086 0.57753
C_ C_ 0.214336 0.187343 0.0743595 0.55563
C_ C_ 0.217376 0.184026 0.324785 0.55563
C_ C_ 0.215124 0.437074 0.0745994 0.55563
C_ C_ 0.215569 0.43476 0.326952 0.55563
C_ C_ 0.468148 0.187152 0.072337 0.55563
C_ C_ 0.467912 0.181647 0.32634 0.55563
C_ C_ 0.468453 0.434334 0.0750048 0.55563
C_ C_ 0.465946 0.43454 0.326248 0.55563
C_ C_ 0.159272 0.191714 0.0745519 0.55563
C_ C_ 0.155233 0.191262 0.326672 0.55563
C_ C_ 0.157319 0.441374 0.0737246 0.55563
C_ C_ 0.154681 0.44217 0.32665 0.55563
C_ C_ 0.406711 0.194247 0.0721213 0.55563
C_ C_ 0.40644 0.187867 0.327016 0.55563
C_ C_ 0.408434 0.442428 0.0743049 0.55563
C_ C_ 0.408662 0.440298 0.32444 0.55563
O_ O_ 0.251053 0.159203 0.192706 -0.67305
O_ O_ 0.247931 0.156147 0.447993 -0.67305
O_ O_ 0.247617 0.406377 0.197077 -0.67305
O_ O_ 0.249405 0.401616 0.45561 -0.67305
O_ O_ 0.49897 0.152816 0.200595 -0.67305
O_ O_ 0.499123 0.157231 0.448139 -0.67305
O_ O_ 0.5008 0.402436 0.199688 -0.67305
O_ O_ 0.497258 0.402326 0.454864 -0.67305
O_ O_ 0.0781252 0.10493 0.211328 -0.67305
O_ O_ 0.0726754 0.106138 0.45971 -0.67305
O_ O_ 0.0749875 0.356462 0.210228 -0.67305
O_ O_ 0.0760173 0.355502 0.466946 -0.67305
O_ O_ 0.320024 0.105257 0.209355 -0.67305
O_ O_ 0.321888 0.107075 0.461565 -0.67305
O_ O_ 0.322348 0.356685 0.211596 -0.67305
O_ O_ 0.327242 0.355644 0.466609 -0.67305
O_ O_ 0.0508452 0.168313 0.253724 -0.67305
O_ O_ 0.0505663 0.170629 0.503473 -0.67305
O_ O_ 0.0501252 0.423692 0.253052 -0.67305
O_ O_ 0.055695 0.427896 0.501086 -0.67305
O_ O_ 0.303685 0.175839 0.249534 -0.67305
O_ O_ 0.300221 0.175529 0.503401 -0.67305
O_ O_ 0.302337 0.425906 0.251648 -0.67305
O_ O_ 0.30137 0.429973 0.501016 -0.67305
O_ O_ 0.129631 0.16568 0.215967 -0.67305
O_ O_ 0.126775 0.166425 0.46378 -0.67305
O_ O_ 0.125854 0.420021 0.214256 -0.67305
O_ O_ 0.127172 0.427625 0.456619 -0.67305
O_ O_ 0.376577 0.170137 0.209855 -0.67305
O_ O_ 0.373417 0.171846 0.461881 -0.67305
O_ O_ 0.375381 0.421814 0.208935 -0.67305
O_ O_ 0.3744 0.422522 0.462079 -0.67305
O_ O_ -0.00125539 0.0474976 0.207598 -0.74432
O_ O_ 0.00389575 0.0485096 0.455661 -0.74432
O_ O_ 0.00223166 0.296965 0.206466 -0.74432
O_ O_ 1.00304 0.297561 0.457124 -0.74432
O_ O_ 0.251404 0.0490517 0.201933 -0.74432
O_ O_ 0.249517 0.0461721 0.457564 -0.74432
O_ O_ 0.247661 0.300329 0.206398 -0.74432
O_ O_ 0.251521 0.300014 0.459205 -0.74432
O_ O_ 0.0170714 0.0927564 0.143237 -0.67305
O_ O_ 0.013035 0.0863449 0.392093 -0.67305
O_ O_ 0.015751 0.340061 0.142972 -0.67305
O_ O_ 0.0141072 0.338856 0.393053 -0.67305
O_ O_ 0.264828 0.0956187 0.139378 -0.67305
O_ O_ 0.265458 0.0868913 0.393218 -0.67305
O_ O_ 0.261952 0.345688 0.144312 -0.67305
O_ O_ 0.264 0.339771 0.394435 -0.67305
O_ O_ 0.120808 0.0440233 0.21073 -0.74432
O_ O_ 0.118163 0.0443887 0.456856 -0.74432
O_ O_ 0.118402 0.294539 0.207511 -0.74432
O_ O_ 0.123762 0.294448 0.459854 -0.74432
O_ O_ 0.372254 0.0466061 0.203241 -0.74432
O_ O_ 0.370294 0.0424525 0.460732 -0.74432
O_ O_ 0.369297 0.298455 0.207258 -0.74432
O_ O_ 0.368325 0.294761 0.46195 -0.74432
O_ O_ 0.123994 0.0786219 0.146065 -0.67305
O_ O_ 0.117239 0.081358 0.391862 -0.67305
O_ O_ 0.119574 0.329211 0.144458 -0.67305
O_ O_ 0.122318 0.332096 0.394728 -0.67305
O_ O_ 0.368852 0.0876342 0.137956 -0.67305
O_ O_ 0.370164 0.0835471 0.395159 -0.67305
O_ O_ 0.372308 0.328851 0.142757 -0.67305
O_ O_ 0.367274 0.332268 0.397091 -0.67305
O_ O_ 0.00296713 0.0959371 0.0517588 -0.67305
O_ O_ 0.00267688 0.0927177 0.303684 -0.67305
O_ O_ 0.00479542 0.339274 0.0534356 -0.67305
O_ O_ 0.00395288 0.350075 0.292345 -0.67305
O_ O_ 0.252257 0.0955194 0.0470048 -0.67305
O_ O_ 0.250497 0.0944644 0.298301 -0.67305
O_ O_ 0.250307 0.345456 0.0503645 -0.67305
O_ O_ 0.252812 0.347383 0.302105 -0.67305
O_ O_ 0.177096 0.144063 0.0378774 -0.67305
O_ O_ 0.17642 0.14187 0.289716 -0.67305
O_ O_ 0.177215 0.393973 0.0396211 -0.67305
O_ O_ 0.175591 0.393631 0.290729 -0.67305
O_ O_ 0.42739 0.145498 0.0390149 -0.67305
O_ O_ 0.426564 0.141687 0.287997 -0.67305
O_ O_ 0.425547 0.393972 0.0393072 -0.67305
O_ O_ 0.427543 0.393708 0.290166 -0.67305
O_ O_ 0.198958 0.0742335 0.998182 -0.67305
O_ O_ 0.19707 0.073499 0.252197 -0.67305
O_ O_ 0.199923 0.32583 1.00016 -0.67305
O_ O_ 0.198739 0.323133 0.251428 -0.67305
O_ O_ 0.447612 0.0734458 1.00065 -0.67305
O_ O_ 0.450096 0.0745662 0.24452 -0.67305
O_ O_ 0.4463 0.327639 0.996856 -0.67305
O_ O_ 0.446321 0.327042 0.250043 -0.67305
O_ O_ 0.125595 0.0790976 0.0396303 -0.67305
O_ O_ 0.1222 0.0760609 0.293009 -0.67305
O_ O_ 0.125673 0.330147 0.0386214 -0.67305
O_ O_ 0.12549 0.324969 0.293386 -0.67305
O_ O_ 0.37461 0.0788103 0.0400177 -0.67305
O_ O_ 0.372058 0.0817566 0.282912 -0.67305
O_ O_ 0.372193 0.327832 0.0401281 -0.67305
O_ O_ 0.372521 0.329203 0.291994 -0.67305
O_ O_ 0.246348 0.203584 0.0423995 -0.74432
O_ O_ 0.249587 0.199791 0.29434 -0.74432
O_ O_ 0.248569 0.449158 0.0435083 -0.74432
O_ O_ 0.249204 0.450171 0.295086 -0.74432
O_ O_ 0.500943 0.201921 0.0412663 -0.74432
O_ O_ 0.501833 0.201279 0.293882 -0.74432
O_ O_ 0.502126 0.448961 0.0439562 -0.74432
O_ O_ 0.496226 0.453279 0.294787 -0.74432
O_ O_ 0.234102 0.155297 0.105115 -0.67305
O_ O_ 0.237542 0.152607 0.355635 -0.67305
O_ O_ 0.235728 0.410793 0.107663 -0.67305
O_ O_ 0.240777 0.406593 0.358555 -0.67305
O_ O_ 0.490132 0.160948 0.106348 -0.67305
O_ O_ 0.488381 0.153214 0.358615 -0.67305
O_ O_ 0.487348 0.407536 0.108029 -0.67305
O_ O_ 0.48703 0.409649 0.359149 -0.67305
O_ O_ 0.134352 0.204176 0.041712 -0.74432
O_ O_ 0.128957 0.20293 0.294087 -0.74432
O_ O_ 0.131643 0.456492 0.0405559 -0.74432
O_ O_ 0.128921 0.455866 0.293701 -0.74432
O_ O_ 0.379556 0.206426 0.0410968 -0.74432
O_ O_ 0.380464 0.202727 0.294596 -0.74432
O_ O_ 0.382022 0.453902 0.0427555 -0.74432
O_ O_ 0.383495 0.452898 0.29204 -0.74432
O_ O_ 0.133237 0.167192 0.105743 -0.67305
O_ O_ 0.129257 0.166711 0.358272 -0.67305
O_ O_ 0.130369 0.419613 0.106009 -0.67305
O_ O_ 0.129455 0.416754 0.358198 -0.67305
O_ O_ 0.380415 0.173349 0.105338 -0.67305
O_ O_ 0.379074 0.165357 0.359194 -0.67305
O_ O_ 0.380821 0.420357 0.106784 -0.67305
O_ O_ 0.381066 0.421241 0.355927 -0.67305
Ba Ba 0.174295 0.118476 0.677956 1.59802
Ba Ba 0.176056 0.12075 0.924674 1.59802
Ba Ba 0.174047 0.366761 0.674772 1.59802
Ba Ba 0.175006 0.369181 0.92377 1.59802
Ba Ba 0.425806 0.121401 0.67685 1.59802
Ba Ba 0.425828 0.120522 0.92566 1.59802
Ba Ba 0.427135 0.368889 0.675041 1.59802
Ba Ba 0.422784 0.371438 0.924413 1.59802
Ba Ba 0.197621 0.217497 0.724837 1.6626
Ba Ba 0.200191 0.219007 0.972571 1.6626
Ba Ba 0.2009 0.469957 0.724427 1.6626
Ba Ba 0.199536 0.468836 0.972958 1.6626
Ba Ba 0.453448 0.218841 0.727037 1.6626
Ba Ba 0.447133 0.219463 0.97269 1.6626
Ba Ba 0.449885 0.469385 0.721466 1.6626
Ba Ba 0.449651 0.467876 0.974475 1.6626
Ba Ba 0.0793631 0.132155 0.577215 1.59802
Ba Ba 0.0740308 0.13244 0.823254 1.59802
Ba Ba 0.0737709 0.381498 0.577814 1.59802
Ba Ba 0.073544 0.380293 0.8235 1.59802
Ba Ba 0.321568 0.131007 0.577528 1.59802
Ba Ba 0.329646 0.130604 0.826591 1.59802
Ba Ba 0.321413 0.383029 0.575421 1.59802
Ba Ba 0.325708 0.382204 0.82618 1.59802
Ba Ba 0.054029 0.0316918 0.525305 1.6626
Ba Ba 0.0491113 0.0317707 0.776155 1.6626
Ba Ba 0.0526874 0.282043 0.526714 1.6626
Ba Ba 0.0514443 0.282092 0.775652 1.6626
Ba Ba 0.298628 0.029831 0.527084 1.6626
Ba Ba 0.304235 0.031174 0.774574 1.6626
Ba Ba 0.30067 0.281336 0.52802 1.6626
Ba Ba 0.303658 0.281266 0.772629 1.6626
C_ C_ 0.0486323 0.141061 0.710727 0.57753
C_ C_ 0.046062 0.139635 0.964653 0.57753
C_ C_ 0.0475582 0.392283 0.70958 0.57753
C_ C_ 0.0453091 0.389999 0.959174 0.57753
C_ C_ 0.295089 0.140666 0.714078 0.57753
C_ C_ 0.295271 0.140393 0.963994 0.57753
C_ C_ 0.295596 0.390463 0.710834 0.57753
C_ C_ 0.297121 0.392161 0.962915 0.57753
C_ C_ 0.0745604 0.164297 0.723064 0.57753
C_ C_ 0.073443 0.163737 0.976113 0.57753
C_ C_ 0.0763011 0.418332 0.721186 0.57753
C_ C_ 0.0735522 0.413455 0.974015 0.57753
C_ C_ 0.323866 0.167479 0.726036 0.57753
C_ C_ 0.324048 0.166749 0.975256 0.57753
C_ C_ 0.32456 0.413747 0.726394 0.57753
C_ C_ 0.323563 0.417934 0.972812 0.57753
C_ C_ 0.0331319 0.0672019 0.67377 0.55563
C_ C_ 0.0332057 0.0622379 0.925401 0.55563
C_ C_ 0.03651 0.311323 0.674997 0.55563
C_ C_ 0.03189 0.315298 0.922301 0.55563
C_ C_ 0.283487 0.0643508 0.674464 0.55563
C_ C_ 0.284451 0.0643532 0.924096 0.55563
C_ C_ 0.283427 0.315968 0.671459 0.55563
C_ C_ 0.286091 0.316259 0.925649 0.55563
C_ C_ 0.0941622 0.0612494 0.675667 0.55563
C_ C_ 0.0890051 0.0615186 0.923571 0.55563
C_ C_ 0.0921376 0.308931 0.675244 0.55563
C_ C_ 0.095031 0.308773 0.921827 0.55563
C_ C_ 0.345656 0.0615267 0.677032 0.55563
C_ C_ 0.346534 0.0598041 0.926062 0.55563
C_ C_ 0.346674 0.311338 0.671849 0.55563
C_ C_ 0.341419 0.30936 0.926753 0.55563
C_ C_ 0.203311 0.111182 0.536502 0.57753
C_ C_ 0.203705 0.108493 0.790117 0.57753
C_ C_ 0.198302 0.358273 0.542565 0.57753
C_ C_ 0.206212 0.361363 0.788735 0.57753
C_ C_ 0.450559 0.109023 0.54182 0.57753
C_ C_ 0.4568 0.110467 0.788425 0.57753
C_ C_ 0.456992 0.360457 0.539572 0.57753
C_ C_ 0.453156 0.360721 0.786998 0.57753
C_ C_ 0.17625 0.091732 0.522224 0.57753
C_ C_ 0.178972 0.084815 0.776696 0.57753
C_ C_ 0.173524 0.334017 0.532244 0.57753
C_ C_ 0.177976 0.336099 0.775789 0.57753
C_ C_ 0.419729 0.0847662 0.527812 0.57753
C_ C_ 0.425456 0.0871292 0.77439 0.57753
C_ C_ 0.425322 0.334941 0.527447 0.57753
C_ C_ 0.425865 0.337187 0.775847 0.57753
C_ C_ 0.21311 0.184011 0.577268 0.55563
C_ C_ 0.218999 0.184227 0.824198 0.55563
C_ C_ 0.214483 0.433475 0.577389 0.55563
C_ C_ 0.219872 0.435341 0.825537 0.55563
C_ C_ 0.465945 0.184485 0.578812 0.55563
C_ C_ 0.468752 0.187158 0.827036 0.55563
C_ C_ 0.468277 0.433394 0.576992 0.55563
C_ C_ 0.467504 0.4368 0.822514 0.55563
C_ C_ 0.159174 0.189483 0.57682 0.55563
C_ C_ 0.156631 0.190551 0.823916 0.55563
C_ C_ 0.158397 0.436355 0.577287 0.55563
C_ C_ 0.15852 0.437838 0.826153 0.55563
C_ C_ 0.404837 0.189898 0.577145 0.55563
C_ C_ 0.40798 0.190923 0.826403 0.55563
C_ C_ 0.406051 0.439839 0.577283 0.55563
C_ C_ 0.412042 0.443457 0.821765 0.55563
O_ O_ 0.249884 0.159051 0.695164 -0.67305
O_ O_ 0.252376 0.159642 0.944162 -0.67305
O_ O_ 0.24612 0.404413 0.697672 -0.67305
O_ O_ 0.24715 0.403962 0.949754 -0.67305
O_ O_ 0.498562 0.154549 0.704773 -0.67305
O_ O_ 0.503382 0.162177 0.9425 -0.67305
O_ O_ 0.499641 0.408282 0.690786 -0.67305
O_ O_ 0.492777 0.404121 0.952794 -0.67305
O_ O_ 0.0729049 0.105082 0.71361 -0.67305
O_ O_ 0.0761631 0.107609 0.961829 -0.67305
O_ O_ 0.071414 0.357716 0.708067 -0.67305
O_ O_ 0.0712721 0.355366 0.957711 -0.67305
O_ O_ 0.321771 0.106574 0.712684 -0.67305
O_ O_ 0.321638 0.108277 0.960961 -0.67305
O_ O_ 0.321352 0.356435 0.709017 -0.67305
O_ O_ 0.32397 0.35657 0.964267 -0.67305
O_ O_ 0.0496995 0.173759 0.749347 -0.67305
O_ O_ 0.0517135 0.173395 1.00395 -0.67305
O_ O_ 0.0524547 0.428075 0.749271 -0.67305
O_ O_ 0.0499556 0.424404 1.00159 -0.67305
O_ O_ 0.299194 0.178251 0.753791 -0.67305
O_ O_ 0.300862 0.179965 -0.000271825 -0.67305
O_ O_ 0.301229 0.426332 0.752355 -0.67305
O_ O_ 0.301469 0.430108 0.999147 -0.67305
O_ O_ 0.127501 0.166393 0.714623 -0.67305
O_ O_ 0.12491 0.169005 0.963806 -0.67305
O_ O_ 0.12787 0.423682 0.708153 -0.67305
O_ O_ 0.127483 0.416146 0.96339 -0.67305
O_ O_ 0.375488 0.174097 0.711931 -0.67305
O_ O_ 0.373631 0.175806 0.958573 -0.67305
O_ O_ 0.375832 0.417245 0.7148 -0.67305
O_ O_ 0.374362 0.424174 0.958052 -0.67305
O_ O_ -0.000854201 0.0510687 0.704092 -0.74432
O_ O_ 0.002588 0.047554 0.95683 -0.74432
O_ O_ 0.00386662 0.299967 0.706629 -0.74432
O_ O_ -0.00163359 0.299229 0.954604 -0.74432
O_ O_ 0.252141 0.0470188 0.705089 -0.74432
O_ O_ 0.24931 0.0486604 0.955813 -0.74432
O_ O_ 0.249359 0.299988 0.703139 -0.74432
O_ O_ 0.25208 0.300619 0.957505 -0.74432
O_ O_ 0.012284 0.0955313 0.641588 -0.67305
O_ O_ 0.00906271 0.0844127 0.891524 -0.67305
O_ O_ 0.0139656 0.335842 0.642311 -0.67305
O_ O_ 0.0128187 0.342062 0.88919 -0.67305
O_ O_ 0.261088 0.0919056 0.643049 -0.67305
O_ O_ 0.263669 0.091393 0.891741 -0.67305
O_ O_ 0.259709 0.342421 0.639304 -0.67305
O_ O_ 0.265522 0.344982 0.89359 -0.67305
O_ O_ 0.120365 0.0457455 0.708112 -0.74432
O_ O_ 0.115696 0.0471837 0.955757 -0.74432
O_ O_ 0.116843 0.294111 0.708062 -0.74432
O_ O_ 0.121239 0.295604 0.953706 -0.74432
O_ O_ 0.373604 0.0445902 0.709433 -0.74432
O_ O_ 0.372133 0.0460395 0.957219 -0.74432
O_ O_ 0.371012 0.295185 0.704286 -0.74432
O_ O_ 0.368712 0.2948 0.959262 -0.74432
O_ O_ 0.122832 0.0820031 0.642948 -0.67305
O_ O_ 0.114369 0.0888521 0.892293 -0.67305
O_ O_ 0.12309 0.326459 0.642071 -0.67305
O_ O_ 0.118395 0.334434 0.890366 -0.67305
O_ O_ 0.372383 0.0846712 0.644247 -0.67305
O_ O_ 0.372021 0.0835525 0.893839 -0.67305
O_ O_ 0.373724 0.334943 0.639598 -0.67305
O_ O_ 0.368586 0.33009 0.89398 -0.67305
O_ O_ 0.00778727 0.0941828 0.55012 -0.67305
O_ O_ 0.998699 0.0941974 0.802497 -0.67305
O_ O_ 1.00358 0.345654 0.552174 -0.67305
O_ O_ -0.000526572 0.345505 0.799051 -0.67305
O_ O_ 0.25065 0.0953159 0.550358 -0.67305
O_ O_ 0.25458 0.0975651 0.801539 -0.67305
O_ O_ 0.250365 0.348637 0.549047 -0.67305
O_ O_ 0.256509 0.349179 0.796295 -0.67305
O_ O_ 0.17934 0.1458 0.538451 -0.67305
O_ O_ 0.176724 0.142716 0.788848 -0.67305
O_ O_ 0.172007 0.39394 0.540895 -0.67305
O_ O_ 0.179562 0.396384 0.788806 -0.67305
O_ O_ 0.425085 0.143088 0.542918 -0.67305
O_ O_ 0.429776 0.142424 0.791578 -0.67305
O_ O_ 0.4298 0.394722 0.539259 -0.67305
O_ O_ 0.424366 0.394492 0.786961 -0.67305
O_ O_ 0.202248 0.0755117 0.499548 -0.67305
O_ O_ 0.203272 0.0789825 0.747736 -0.67305
O_ O_ 0.198596 0.322205 0.505898 -0.67305
O_ O_ 0.200282 0.324585 0.750117 -0.67305
O_ O_ 0.443804 0.0672931 0.505134 -0.67305
O_ O_ 0.449453 0.0742502 0.748773 -0.67305
O_ O_ 0.446395 0.322964 0.500531 -0.67305
O_ O_ 0.448964 0.326183 0.749028 -0.67305
O_ O_ 0.124819 0.085235 0.535233 -0.67305
O_ O_ 0.127171 0.078738 0.787129 -0.67305
O_ O_ 0.119641 0.335943 0.536978 -0.67305
O_ O_ 0.130933 0.321323 0.794126 -0.67305
O_ O_ 0.370283 0.0751748 0.545257 -0.67305
O_ O_ 0.377106 0.0775623 0.790546 -0.67305
O_ O_ 0.372984 0.330417 0.539745 -0.67305
O_ O_ 0.374043 0.335044 0.786103 -0.67305
O_ O_ 0.245563 0.2003 0.545132 -0.74432
O_ O_ 0.250593 0.19831 0.791705 -0.74432
O_ O_ 0.24607 0.452617 0.545825 -0.74432
O_ O_ 0.25038 0.45174 0.793144 -0.74432
O_ O_ 0.498441 0.20136 0.546128 -0.74432
O_ O_ 0.50252 0.203112 0.796017 -0.74432
O_ O_ 0.500326 0.451254 0.545525 -0.74432
O_ O_ 0.499918 0.452574 0.791037 -0.74432
O_ O_ 0.23502 0.158369 0.610386 -0.67305
O_ O_ 0.239219 0.155574 0.856549 -0.67305
O_ O_ 0.236039 0.405109 0.610702 -0.67305
O_ O_ 0.242294 0.411886 0.859685 -0.67305
O_ O_ 0.484979 0.157749 0.610335 -0.67305
O_ O_ 0.48947 0.159144 0.860012 -0.67305
O_ O_ 0.490875 0.407434 0.60865 -0.67305
O_ O_ 0.489244 0.407637 0.854982 -0.67305
O_ O_ 0.133047 0.206858 0.544051 -0.74432
O_ O_ 0.13073 0.205448 0.790876 -0.74432
O_ O_ 0.13126 0.455431 0.544894 -0.74432
O_ O_ 0.132404 0.453305 0.794287 -0.74432
O_ O_ 0.379876 0.203491 0.544589 -0.74432
O_ O_ 0.38575 0.204894 0.792863 -0.74432
O_ O_ 0.380089 0.453634 0.544308 -0.74432
O_ O_ 0.384704 0.457138 0.788939 -0.74432
O_ O_ 0.132234 0.170346 0.609048 -0.67305
O_ O_ 0.130647 0.168849 0.856724 -0.67305
O_ O_ 0.129337 0.416572 0.609814 -0.67305
O_ O_ 0.135821 0.410056 0.856774 -0.67305
O_ O_ 0.378744 0.166344 0.608923 -0.67305
O_ O_ 0.378559 0.171311 0.858124 -0.67305
O_ O_ 0.379428 0.415953 0.609455 -0.67305
O_ O_ 0.383601 0.423252 0.853972 -0.67305
Ba Ba 0.173342 0.617643 0.175319 1.59802
Ba Ba 0.175417 0.619157 0.424396 1.59802
Ba Ba 0.172995 0.868389 0.174873 1.59802
Ba Ba 0.17545 0.870215 0.423715 1.59802
Ba Ba 0.4268 0.619064 0.173509 1.59802
Ba Ba 0.424456 0.618661 0.427311 1.59802
Ba Ba 0.42749 0.867745 0.172592 1.59802
Ba Ba 0.427594 0.871292 0.421805 1.59802
Ba Ba 0.197365 0.717587 0.224327 1.6626
Ba Ba 0.199435 0.720535 0.472575 1.6626
Ba Ba 0.202214 0.966641 0.223469 1.6626
Ba Ba 0.200812 0.965661 0.476199 1.6626
Ba Ba 0.451428 0.719122 0.224084 1.6626
Ba Ba 0.449496 0.721782 0.473663 1.6626
Ba Ba 0.451149 0.967843 0.221703 1.6626
Ba Ba 0.451905 0.967226 0.478703 1.6626
Ba Ba 0.072404 0.628834 0.0741269 1.59802
Ba Ba 0.0739534 0.629082 0.325392 1.59802
Ba Ba 0.0718014 0.883508 0.07453 1.59802
Ba Ba 0.0730364 0.883947 0.321942 1.59802
Ba Ba 0.325702 0.633393 0.0723148 1.59802
Ba Ba 0.326001 0.628272 0.325461 1.59802
Ba Ba 0.321839 0.884038 0.0737564 1.59802
Ba Ba 0.32934 0.878563 0.322935 1.59802
Ba Ba 0.0487422 0.531525 0.0244274 1.6626
Ba Ba 0.0485179 0.533419 0.274358 1.6626
Ba Ba 0.0501508 0.779342 0.0276491 1.6626
Ba Ba 0.0476951 0.778044 0.27666 1.6626
Ba Ba 0.298921 0.530485 0.0257607 1.6626
Ba Ba 0.303974 0.531187 0.272805 1.6626
Ba Ba 0.295573 0.780822 0.0268529 1.6626
Ba Ba 0.298253 0.784805 0.271563 1.6626
C_ C_ 0.0442399 0.639185 0.21502 0.57753
C_ C_ 0.048166 0.642444 0.462999 0.57753
C_ C_ 0.0444858 0.889478 0.211212 0.57753
C_ C_ 0.0488522 0.889807 0.458396 0.57753
C_ C_ 0.296626 0.637 0.211493 0.57753
C_ C_ 0.296356 0.644807 0.45608 0.57753
C_ C_ 0.296925 0.888102 0.211211 0.57753
C_ C_ 0.302078 0.893608 0.456155 0.57753
C_ C_ 0.0734533 0.662543 0.225025 0.57753
C_ C_ 0.0746258 0.667053 0.472712 0.57753
C_ C_ 0.076183 0.914435 0.221952 0.57753
C_ C_ 0.0791681 0.910702 0.474379 0.57753
C_ C_ 0.324645 0.660373 0.225791 0.57753
C_ C_ 0.323 0.67069 0.468862 0.57753
C_ C_ 0.32944 0.911352 0.224662 0.57753
C_ C_ 0.32778 0.914666 0.470091 0.57753
C_ C_ 0.0296812 0.565877 0.174343 0.55563
C_ C_ 0.035531 0.566937 0.425091 0.55563
C_ C_ 0.0348329 0.81536 0.176046 0.55563
C_ C_ 0.031292 0.814699 0.418836 0.55563
C_ C_ 0.281226 0.564254 0.171152 0.55563
C_ C_ 0.283152 0.563376 0.424654 0.55563
C_ C_ 0.281199 0.814243 0.172833 0.55563
C_ C_ 0.283336 0.813566 0.423714 0.55563
C_ C_ 0.0903836 0.557701 0.175406 0.55563
C_ C_ 0.0910614 0.561805 0.42553 0.55563
C_ C_ 0.089062 0.809825 0.175639 0.55563
C_ C_ 0.0926504 0.811246 0.419235 0.55563
C_ C_ 0.343386 0.560871 0.171116 0.55563
C_ C_ 0.343745 0.559665 0.424393 0.55563
C_ C_ 0.343344 0.807715 0.172607 0.55563
C_ C_ 0.339663 0.810738 0.424086 0.55563
C_ C_ 0.201752 0.606172 0.0381791 0.57753
C_ C_ 0.201814 0.611202 0.284892 0.57753
C_ C_ 0.198403 0.860792 0.0385917 0.57753
C_ C_ 0.202352 0.857622 0.289081 0.57753
C_ C_ 0.453762 0.61023 0.0376772 0.57753
C_ C_ 0.451951 0.609509 0.290092 0.57753
C_ C_ 0.451782 0.860251 0.0398446 0.57753
C_ C_ 0.455352 0.858314 0.28594 0.57753
C_ C_ 0.177145 0.581779 0.0271961 0.57753
C_ C_ 0.176441 0.588547 0.273597 0.57753
C_ C_ 0.168858 0.835895 0.0283543 0.57753
C_ C_ 0.173576 0.832105 0.277754 0.57753
C_ C_ 0.421855 0.583821 0.0267791 0.57753
C_ C_ 0.423194 0.586576 0.275342 0.57753
C_ C_ 0.420506 0.832475 0.0307859 0.57753
C_ C_ 0.429559 0.836712 0.272026 0.57753
C_ C_ 0.214369 0.682155 0.0745567 0.55563
C_ C_ 0.216275 0.683855 0.325562 0.55563
C_ C_ 0.211064 0.937125 0.07613 0.55563
C_ C_ 0.221364 0.931152 0.325432 0.55563
C_ C_ 0.465475 0.683793 0.0755463 0.55563
C_ C_ 0.467615 0.686181 0.328506 0.55563
C_ C_ 0.469886 0.936384 0.0768545 0.55563
C_ C_ 0.467685 0.932338 0.322652 0.55563
C_ C_ 0.15795 0.686052 0.0753121 0.55563
C_ C_ 0.153012 0.687894 0.327002 0.55563
C_ C_ 0.157116 0.942392 0.0746403 0.55563
C_ C_ 0.159333 0.936966 0.325439 0.55563
C_ C_ 0.406509 0.69266 0.0750493 0.55563
C_ C_ 0.405217 0.692815 0.327392 0.55563
C_ C_ 0.408501 0.94418 0.0751297 0.55563
C_ C_ 0.413205 0.938447 0.321796 0.55563
O_ O_ 0.248787 0.653649 0.198202 -0.67305
O_ O_ 0.246144 0.656192 0.444626 -0.67305
O_ O_ 0.250713 0.905467 0.192817 -0.67305
O_ O_ 0.251247 0.903859 0.446927 -0.67305
O_ O_ 0.500338 0.65431 0.200505 -0.67305
O_ O_ 0.502062 0.658464 0.448248 -0.67305
O_ O_ 0.498952 0.906604 0.194005 -0.67305
O_ O_ 0.500145 0.903231 0.449533 -0.67305
O_ O_ 0.0708598 0.607911 0.210079 -0.67305
O_ O_ 0.0740807 0.607735 0.462891 -0.67305
O_ O_ 0.0729808 0.854232 0.213303 -0.67305
O_ O_ 0.0726576 0.855937 0.454879 -0.67305
O_ O_ 0.323621 0.604908 0.208065 -0.67305
O_ O_ 0.320535 0.60731 0.460324 -0.67305
O_ O_ 0.325343 0.858043 0.204443 -0.67305
O_ O_ 0.325517 0.857538 0.459077 -0.67305
O_ O_ 0.0502602 0.679355 0.248791 -0.67305
O_ O_ 0.0504933 0.678782 0.500243 -0.67305
O_ O_ 0.0503901 0.930938 0.245229 -0.67305
O_ O_ 0.0535729 0.924366 0.499072 -0.67305
O_ O_ 0.299949 0.672571 0.252245 -0.67305
O_ O_ 0.29982 0.67865 0.496864 -0.67305
O_ O_ 0.304502 0.925861 0.248746 -0.67305
O_ O_ 0.303771 0.92192 0.499968 -0.67305
O_ O_ 0.122459 0.670183 0.209702 -0.67305
O_ O_ 0.126081 0.668929 0.46398 -0.67305
O_ O_ 0.122636 0.928609 0.202688 -0.67305
O_ O_ 0.129372 0.921136 0.459234 -0.67305
O_ O_ 0.37563 0.669624 0.211128 -0.67305
O_ O_ 0.375632 0.673807 0.460952 -0.67305
O_ O_ 0.37657 0.9233 0.20555 -0.67305
O_ O_ 0.378268 0.924069 0.457189 -0.67305
O_ O_ 0.997031 0.550647 0.206205 -0.74432
O_ O_ 0.00353335 0.551936 0.457398 -0.74432
O_ O_ 0.00214918 0.795415 0.206347 -0.74432
O_ O_ 0.997919 0.800873 0.449798 -0.74432
O_ O_ 0.250275 0.547606 0.203377 -0.74432
O_ O_ 0.249933 0.548528 0.456561 -0.74432
O_ O_ 0.247028 0.798488 0.204213 -0.74432
O_ O_ 0.252432 0.799619 0.456419 -0.74432
O_ O_ 0.0082305 0.591647 0.142606 -0.67305
O_ O_ 0.0134393 0.59421 0.393504 -0.67305
O_ O_ 0.0114424 0.842124 0.143254 -0.67305
O_ O_ 0.00976162 0.842461 0.386383 -0.67305
O_ O_ 0.260154 0.595311 0.139633 -0.67305
O_ O_ 0.263084 0.589611 0.392753 -0.67305
O_ O_ 0.261228 0.844655 0.141009 -0.67305
O_ O_ 0.260428 0.84014 0.389927 -0.67305
O_ O_ 0.116652 0.543543 0.208747 -0.74432
O_ O_ 0.11909 0.544451 0.458226 -0.74432
O_ O_ 0.116849 0.796082 0.207202 -0.74432
O_ O_ 0.117229 0.797325 0.452296 -0.74432
O_ O_ 0.372008 0.546255 0.203718 -0.74432
O_ O_ 0.369866 0.545875 0.456751 -0.74432
O_ O_ 0.369338 0.794774 0.205298 -0.74432
O_ O_ 0.364198 0.797241 0.456222 -0.74432
O_ O_ 0.118229 0.579427 0.14293 -0.67305
O_ O_ 0.118672 0.583995 0.393651 -0.67305
O_ O_ 0.112737 0.83206 0.14136 -0.67305
O_ O_ 0.120362 0.835902 0.387381 -0.67305
O_ O_ 0.369887 0.581532 0.13964 -0.67305
O_ O_ 0.370091 0.583613 0.393193 -0.67305
O_ O_ 0.371742 0.830535 0.13967 -0.67305
O_ O_ 0.368234 0.831539 0.392226 -0.67305
O_ O_ 0.992108 0.591615 0.0578412 -0.67305
O_ O_ 1.00057 0.591917 0.307236 -0.67305
O_ O_ 1.00082 0.845439 0.0532855 -0.67305
O_ O_ 1.00206 0.843525 0.301288 -0.67305
O_ O_ 0.253085 0.595657 0.0463289 -0.67305
O_ O_ 0.253574 0.599083 0.293266 -0.67305
O_ O_ 0.247181 0.844602 0.0510475 -0.67305
O_ O_ 0.252838 0.846088 0.298606 -0.67305
O_ O_ 0.174938 0.641517 0.0352648 -0.67305
O_ O_ 0.176472 0.644446 0.288115 -0.67305
O_ O_ 0.175379 0.896509 0.0372925 -0.67305
O_ O_ 0.176146 0.893395 0.289201 -0.67305
O_ O_ 0.428332 0.646451 0.0361134 -0.67305
O_ O_ 0.424433 0.645992 0.289199 -0.67305
O_ O_ 0.423609 0.893517 0.0409946 -0.67305
O_ O_ 0.427482 0.892793 0.28561 -0.67305
O_ O_ 0.199105 0.57209 -0.00125693 -0.67305
O_ O_ 0.20294 0.577714 0.246801 -0.67305
O_ O_ 0.191621 0.824584 0.00188542 -0.67305
O_ O_ 0.195647 0.824197 0.248939 -0.67305
O_ O_ 0.44753 0.570812 1.00135 -0.67305
O_ O_ 0.449162 0.574759 0.249514 -0.67305
O_ O_ 0.443006 0.82268 1.00411 -0.67305
O_ O_ 0.455439 0.824416 0.246573 -0.67305
O_ O_ 0.124242 0.576379 0.0394881 -0.67305
O_ O_ 0.123553 0.582537 0.284692 -0.67305
O_ O_ 0.117098 0.833604 0.0375627 -0.67305
O_ O_ 0.121067 0.82831 0.290806 -0.67305
O_ O_ 0.370393 0.583915 0.0344973 -0.67305
O_ O_ 0.370715 0.581433 0.284793 -0.67305
O_ O_ 0.368721 0.83153 0.0389083 -0.67305
O_ O_ 0.377012 0.834085 0.28097 -0.67305
O_ O_ 0.245633 0.698495 0.0418953 -0.74432
O_ O_ 0.249148 0.697986 0.29436 -0.74432
O_ O_ 0.245081 0.951735 0.0448854 -0.74432
O_ O_ 0.255047 0.946845 0.293429 -0.74432
O_ O_ 0.498097 0.703289 0.0434502 -0.74432
O_ O_ 0.499556 0.701078 0.296163 -0.74432
O_ O_ 0.501657 0.955062 0.045498 -0.74432
O_ O_ 0.501027 0.946771 0.290189 -0.74432
O_ O_ 0.235789 0.657109 0.10724 -0.67305
O_ O_ 0.236529 0.651751 0.356625 -0.67305
O_ O_ 0.232675 0.909709 0.108185 -0.67305
O_ O_ 0.241543 0.905212 0.358123 -0.67305
O_ O_ 0.487831 0.656075 0.108683 -0.67305
O_ O_ 0.485498 0.652991 0.360445 -0.67305
O_ O_ 0.492189 0.908633 0.108869 -0.67305
O_ O_ 0.489954 0.909788 0.356996 -0.67305
O_ O_ 0.129569 0.703055 0.0438272 -0.74432
O_ O_ 0.128794 0.702371 0.294404 -0.74432
O_ O_ 0.131312 0.95613 0.0416553 -0.74432
O_ O_ 0.133697 0.954501 0.29298 -0.74432
O_ O_ 0.381306 0.707978 0.0410881 -0.74432
O_ O_ 0.381469 0.707049 0.293164 -0.74432
O_ O_ 0.381054 0.957141 0.0433198 -0.74432
O_ O_ 0.385195 0.9539 0.290427 -0.74432
O_ O_ 0.132789 0.661361 0.106878 -0.67305
O_ O_ 0.123393 0.668108 0.359933 -0.67305
O_ O_ 0.131176 0.918024 0.107416 -0.67305
O_ O_ 0.134406 0.910361 0.356345 -0.67305
O_ O_ 0.379102 0.669321 0.106946 -0.67305
O_ O_ 0.379061 0.669465 0.359043 -0.67305
O_ O_ 0.379765 0.920767 0.107166 -0.67305
O_ O_ 0.386095 0.91298 0.353099 -0.67305
Ba Ba 0.173154 0.618655 0.675238 1.59802
Ba Ba 0.173818 0.618455 0.924755 1.59802
Ba Ba 0.1725 0.868827 0.674389 1.59802
Ba Ba 0.173911 0.869151 0.926991 1.59802
Ba Ba 0.421704 0.62261 0.672472 1.59802
Ba Ba 0.426587 0.619452 0.924857 1.59802
Ba Ba 0.425139 0.869558 0.674831 1.59802
Ba Ba 0.422832 0.867545 0.925938 1.59802
Ba Ba 0.195924 0.717891 0.724563 1.6626
Ba Ba 0.195874 0.71815 0.972965 1.6626
Ba Ba 0.198945 0.965942 0.726679 1.6626
Ba Ba 0.194654 0.968897 0.973189 1.6626
Ba Ba 0.450858 0.71642 0.723694 1.6626
Ba Ba 0.44824 0.722387 0.971668 1.6626
Ba Ba 0.451916 0.96627 0.724416 1.6626
Ba Ba 0.448962 0.96785 0.976219 1.6626
Ba Ba 0.0750159 0.632443 0.575792 1.59802
Ba Ba 0.0734185 0.633009 0.824965 1.59802
Ba Ba 0.0727153 0.880343 0.575461 1.59802
Ba Ba 0.0699847 0.880595 0.825802 1.59802
Ba Ba 0.325653 0.634642 0.572263 1.59802
Ba Ba 0.325444 0.632768 0.824925 1.59802
Ba Ba 0.324737 0.880014 0.575094 1.59802
Ba Ba 0.323919 0.880952 0.827409 1.59802
Ba Ba 0.0492329 0.532619 0.527812 1.6626
Ba Ba 0.0501898 0.530864 0.776486 1.6626
Ba Ba 0.0508303 0.78323 0.520331 1.6626
Ba Ba 0.0486982 0.782947 0.775129 1.6626
Ba Ba 0.298599 0.531606 0.526773 1.6626
Ba Ba 0.302906 0.533297 0.774448 1.6626
Ba Ba 0.302 0.782354 0.526084 1.6626
Ba Ba 0.29993 0.783359 0.773961 1.6626
C_ C_ 0.0453612 0.640663 0.712015 0.57753
C_ C_ 0.0427371 0.64112 0.961203 0.57753
C_ C_ 0.0433468 0.889582 0.710895 0.57753
C_ C_ 0.0449379 0.888146 0.966456 0.57753
C_ C_ 0.291334 0.643686 0.709491 0.57753
C_ C_ 0.296151 0.639836 0.961845 0.57753
C_ C_ 0.296316 0.890121 0.711675 0.57753
C_ C_ 0.297572 0.890001 0.963223 0.57753
C_ C_ 0.0739445 0.661929 0.725035 0.57753
C_ C_ 0.0694384 0.66378 0.973366 0.57753
C_ C_ 0.0735131 0.914772 0.724646 0.57753
C_ C_ 0.0768058 0.914727 0.97604 0.57753
C_ C_ 0.321752 0.666824 0.723483 0.57753
C_ C_ 0.327399 0.666746 0.97267 0.57753
C_ C_ 0.324171 0.914795 0.72601 0.57753
C_ C_ 0.324891 0.912789 0.975964 0.57753
C_ C_ 0.0326422 0.565844 0.673897 0.55563
C_ C_ 0.0333269 0.56426 0.923897 0.55563
C_ C_ 0.0323728 0.811353 0.672208 0.55563
C_ C_ 0.0270442 0.814808 0.92645 0.55563
C_ C_ 0.283752 0.56636 0.672687 0.55563
C_ C_ 0.283188 0.563791 0.924135 0.55563
C_ C_ 0.281897 0.81475 0.671414 0.55563
C_ C_ 0.279371 0.81473 0.926749 0.55563
C_ C_ 0.0953298 0.55562 0.674895 0.55563
C_ C_ 0.0894708 0.559813 0.924247 0.55563
C_ C_ 0.0893693 0.809427 0.67343 0.55563
C_ C_ 0.0903157 0.810812 0.925814 0.55563
C_ C_ 0.343904 0.563976 0.671785 0.55563
C_ C_ 0.342467 0.558125 0.924982 0.55563
C_ C_ 0.343956 0.811291 0.673185 0.55563
C_ C_ 0.336778 0.810253 0.927211 0.55563
C_ C_ 0.203051 0.611084 0.537346 0.57753
C_ C_ 0.201937 0.60783 0.788179 0.57753
C_ C_ 0.194843 0.857165 0.539847 0.57753
C_ C_ 0.198831 0.858521 0.792309 0.57753
C_ C_ 0.454399 0.613341 0.537328 0.57753
C_ C_ 0.455895 0.610722 0.787807 0.57753
C_ C_ 0.454875 0.860257 0.540363 0.57753
C_ C_ 0.453556 0.856579 0.788775 0.57753
C_ C_ 0.176982 0.589041 0.524681 0.57753
C_ C_ 0.175986 0.583504 0.77715 0.57753
C_ C_ 0.17067 0.834561 0.525695 0.57753
C_ C_ 0.171477 0.8352 0.776949 0.57753
C_ C_ 0.425753 0.587607 0.525486 0.57753
C_ C_ 0.42413 0.58604 0.77474 0.57753
C_ C_ 0.424336 0.839299 0.52462 0.57753
C_ C_ 0.42745 0.831981 0.77856 0.57753
C_ C_ 0.214247 0.686442 0.574824 0.55563
C_ C_ 0.216785 0.685263 0.823337 0.55563
C_ C_ 0.213143 0.92731 0.578332 0.55563
C_ C_ 0.216447 0.934084 0.826616 0.55563
C_ C_ 0.465052 0.683867 0.575925 0.55563
C_ C_ 0.466814 0.683131 0.827005 0.55563
C_ C_ 0.472212 0.933577 0.576415 0.55563
C_ C_ 0.465699 0.9334 0.8257 0.55563
C_ C_ 0.15838 0.691514 0.573535 0.55563
C_ C_ 0.155826 0.689577 0.823189 0.55563
C_ C_ 0.158108 0.937169 0.577071 0.55563
C_ C_ 0.154576 0.940303 0.826873 0.55563
C_ C_ 0.404343 0.691121 0.573067 0.55563
C_ C_ 0.405217 0.69191 0.825719 0.55563
C_ C_ 0.409393 0.939373 0.576764 0.55563
C_ C_ 0.409274 0.937997 0.825959 0.55563
O_ O_ 0.245136 0.65963 0.693823 -0.67305
O_ O_ 0.248858 0.655028 0.94615 -0.67305
O_ O_ 0.246805 0.903578 0.698455 -0.67305
O_ O_ 0.246122 0.905004 0.951862 -0.67305
O_ O_ 0.498909 0.649269 0.704605 -0.67305
O_ O_ 0.496639 0.655651 0.95109 -0.67305
O_ O_ 0.503389 0.902831 0.698468 -0.67305
O_ O_ 0.495062 0.907189 0.946733 -0.67305
O_ O_ 0.0699294 0.60485 0.710582 -0.67305
O_ O_ 0.0689088 0.607816 0.958768 -0.67305
O_ O_ 0.0721652 0.855939 0.709267 -0.67305
O_ O_ 0.0720516 0.85634 0.962681 -0.67305
O_ O_ 0.318568 0.610617 0.708527 -0.67305
O_ O_ 0.324997 0.60597 0.961239 -0.67305
O_ O_ 0.324578 0.857832 0.708805 -0.67305
O_ O_ 0.322177 0.85342 0.964 -0.67305
O_ O_ 0.0484461 0.672457 0.752034 -0.67305
O_ O_ 0.0476621 0.674478 1.00036 -0.67305
O_ O_ 0.0499263 0.926264 0.75138 -0.67305
O_ O_ 0.0544949 0.929889 0.00210465 -0.67305
O_ O_ 0.300012 0.678486 0.748939 -0.67305
O_ O_ 0.303799 0.681305 -0.00300272 -0.67305
O_ O_ 0.299105 0.92566 0.752848 -0.67305
O_ O_ 0.300832 0.930622 -0.00265921 -0.67305
O_ O_ 0.127083 0.664896 0.714944 -0.67305
O_ O_ 0.11782 0.674515 0.955833 -0.67305
O_ O_ 0.123327 0.921601 0.711906 -0.67305
O_ O_ 0.118332 0.928631 0.953359 -0.67305
O_ O_ 0.37296 0.672937 0.709899 -0.67305
O_ O_ 0.376092 0.673503 0.957638 -0.67305
O_ O_ 0.374434 0.924208 0.71126 -0.67305
O_ O_ 0.375822 0.91751 0.964283 -0.67305
O_ O_ -0.00185232 0.549588 0.705996 -0.74432
O_ O_ 1.00109 0.544202 0.955138 -0.74432
O_ O_ 0.00191625 0.798364 0.703952 -0.74432
O_ O_ 0.996402 0.798857 0.959563 -0.74432
O_ O_ 0.250661 0.55095 0.703907 -0.74432
O_ O_ 0.248784 0.547856 0.956442 -0.74432
O_ O_ 0.25003 0.79973 0.70308 -0.74432
O_ O_ 0.246404 0.797865 0.958471 -0.74432
O_ O_ 0.0134558 0.598563 0.642219 -0.67305
O_ O_ 0.0118101 0.591874 0.891356 -0.67305
O_ O_ 0.00902229 0.836667 0.639268 -0.67305
O_ O_ 0.00523843 0.841968 0.893845 -0.67305
O_ O_ 0.26073 0.594769 0.639888 -0.67305
O_ O_ 0.262289 0.592033 0.891473 -0.67305
O_ O_ 0.260829 0.842813 0.638814 -0.67305
O_ O_ 0.258851 0.841414 0.893375 -0.67305
O_ O_ 0.118484 0.541956 0.708951 -0.74432
O_ O_ 0.114312 0.545727 0.956437 -0.74432
O_ O_ 0.116057 0.795677 0.706626 -0.74432
O_ O_ 0.117546 0.792819 0.958339 -0.74432
O_ O_ 0.370284 0.548467 0.704114 -0.74432
O_ O_ 0.368597 0.546037 0.957652 -0.74432
O_ O_ 0.370128 0.79658 0.705703 -0.74432
O_ O_ 0.362651 0.795031 0.959355 -0.74432
O_ O_ 0.123846 0.577381 0.643556 -0.67305
O_ O_ 0.116088 0.582422 0.89215 -0.67305
O_ O_ 0.116421 0.834027 0.641904 -0.67305
O_ O_ 0.116315 0.83455 0.894867 -0.67305
O_ O_ 0.369913 0.587133 0.639786 -0.67305
O_ O_ 0.365945 0.585186 0.893323 -0.67305
O_ O_ 0.372113 0.832685 0.642015 -0.67305
O_ O_ 0.364018 0.829015 0.895993 -0.67305
O_ O_ 0.997829 0.592919 0.558177 -0.67305
O_ O_ 0.998365 0.593113 0.806491 -0.67305
O_ O_ 0.000721336 0.845257 0.54937 -0.67305
O_ O_ 0.0011828 0.852234 0.794175 -0.67305
O_ O_ 0.252813 0.59895 0.54847 -0.67305
O_ O_ 0.252091 0.597619 0.797916 -0.67305
O_ O_ 0.245272 0.845431 0.550472 -0.67305
O_ O_ 0.248048 0.844844 0.804857 -0.67305
O_ O_ 0.174496 0.645363 0.537971 -0.67305
O_ O_ 0.173503 0.642119 0.78706 -0.67305
O_ O_ 0.169381 0.89408 0.538517 -0.67305
O_ O_ 0.17528 0.893287 0.792338 -0.67305
O_ O_ 0.427185 0.64823 0.536611 -0.67305
O_ O_ 0.428995 0.644906 0.790134 -0.67305
O_ O_ 0.427276 0.892683 0.543095 -0.67305
O_ O_ 0.42722 0.892104 0.78869 -0.67305
O_ O_ 0.201001 0.576024 0.499258 -0.67305
O_ O_ 0.200016 0.573754 0.748174 -0.67305
O_ O_ 0.201551 0.826832 0.49928 -0.67305
O_ O_ 0.196209 0.82944 0.747311 -0.67305
O_ O_ 0.450974 0.575812 0.49958 -0.67305
O_ O_ 0.446882 0.57662 0.747279 -0.67305
O_ O_ 0.449488 0.826402 0.498883 -0.67305
O_ O_ 0.449681 0.81931 0.752063 -0.67305
O_ O_ 0.126952 0.582176 0.539312 -0.67305
O_ O_ 0.125566 0.576255 0.79 -0.67305
O_ O_ 0.117249 0.833653 0.530212 -0.67305
O_ O_ 0.119536 0.831764 0.785705 -0.67305
O_ O_ 0.376349 0.576963 0.541833 -0.67305
O_ O_ 0.372618 0.581192 0.787592 -0.67305
O_ O_ 0.372482 0.831325 0.538361 -0.67305
O_ O_ 0.377619 0.825385 0.793088 -0.67305
O_ O_ 0.248438 0.702957 0.543342 -0.74432
O_ O_ 0.24929 0.702363 0.791333 -0.74432
O_ O_ 0.247797 0.947177 0.548498 -0.74432
O_ O_ 0.249685 0.949404 0.793822 -0.74432
O_ O_ 0.499041 0.700436 0.545049 -0.74432
O_ O_ 0.499054 0.69528 0.794439 -0.74432
O_ O_ 0.504359 0.951168 0.545534 -0.74432
O_ O_ 0.498002 0.948759 0.794899 -0.74432
O_ O_ 0.235576 0.658115 0.606983 -0.67305
O_ O_ 0.238378 0.660629 0.857006 -0.67305
O_ O_ 0.233094 0.898528 0.609249 -0.67305
O_ O_ 0.237854 0.90731 0.860635 -0.67305
O_ O_ 0.486811 0.652655 0.608398 -0.67305
O_ O_ 0.48826 0.657546 0.858432 -0.67305
O_ O_ 0.491688 0.901313 0.608189 -0.67305
O_ O_ 0.487356 0.906712 0.858293 -0.67305
O_ O_ 0.134297 0.705735 0.540354 -0.74432
O_ O_ 0.128481 0.705686 0.791852 -0.74432
O_ O_ 0.132199 0.953607 0.544974 -0.74432
O_ O_ 0.130081 0.955553 0.793893 -0.74432
O_ O_ 0.38004 0.707277 0.540316 -0.74432
O_ O_ 0.381278 0.706314 0.792341 -0.74432
O_ O_ 0.381939 0.953563 0.546607 -0.74432
O_ O_ 0.384724 0.952068 0.793572 -0.74432
O_ O_ 0.130687 0.672529 0.605177 -0.67305
O_ O_ 0.13208 0.669079 0.856943 -0.67305
O_ O_ 0.127459 0.915814 0.608965 -0.67305
O_ O_ 0.127617 0.914158 0.858779 -0.67305
O_ O_ 0.37547 0.670062 0.605 -0.67305
O_ O_ 0.376786 0.671952 0.858037 -0.67305
O_ O_ 0.383589 0.916229 0.607493 -0.67305
O_ O_ 0.37924 0.917427 0.857676 -0.67305
Ba Ba 0.672276 0.120848 0.174608 1.59802
Ba Ba 0.676754 0.121464 0.425518 1.59802
Ba Ba 0.677633 0.368336 0.175538 1.59802
Ba Ba 0.677288 0.371536 0.426022 1.59802
Ba Ba 0.925037 0.119795 0.174616 1.59802
Ba Ba 0.925783 0.119272 0.425243 1.59802
Ba Ba 0.927518 0.366747 0.174964 1.59802
Ba Ba 0.928917 0.367043 0.425806 1.59802
Ba Ba 0.6985 0.21786 0.224097 1.6626
Ba Ba 0.698864 0.221213 0.475971 1.6626
Ba Ba 0.701238 0.468239 0.223932 1.6626
Ba Ba 0.700318 0.469199 0.475161 1.6626
Ba Ba 0.951456 0.214771 0.225886 1.6626
Ba Ba 0.949131 0.217188 0.478207 1.6626
Ba Ba 0.949072 0.468283 0.224819 1.6626
Ba Ba 0.951175 0.468914 0.4757 1.6626
Ba Ba 0.576927 0.135023 0.0745212 1.59802
Ba Ba 0.574896 0.127768 0.326922 1.59802
Ba Ba 0.573597 0.378184 0.0755081 1.59802
Ba Ba 0.571765 0.380239 0.3247 1.59802
Ba Ba 0.825175 0.131499 0.076453 1.59802
Ba Ba 0.823315 0.128904 0.326276 1.59802
Ba Ba 0.82267 0.379111 0.0752858 1.59802
Ba Ba 0.824831 0.381646 0.321933 1.59802
Ba Ba 0.550654 0.0363829 0.0246924 1.6626
Ba Ba 0.549195 0.0304568 0.273016 1.6626
Ba Ba 0.548926 0.284345 0.0219812 1.6626
Ba Ba 0.55015 0.282098 0.274951 1.6626
Ba Ba 0.801663 0.0319829 0.0255196 1.6626
Ba Ba 0.80047 0.0318135 0.27211 1.6626
Ba Ba 0.798476 0.280859 0.0259063 1.6626
Ba Ba 0.800558 0.280006 0.274544 1.6626
C_ C_ 0.547496 0.137562 0.213854 0.57753
C_ C_ 0.549534 0.145652 0.459202 0.57753
C_ C_ 0.548248 0.389852 0.213201 0.57753
C_ C_ 0.548765 0.389928 0.466787 0.57753
C_ C_ 0.795923 0.140595 0.209879 0.57753
C_ C_ 0.801676 0.14327 0.460898 0.57753
C_ C_ 0.798678 0.390013 0.20823 0.57753
C_ C_ 0.80052 0.391326 0.460893 0.57753
C_ C_ 0.571535 0.161295 0.225604 0.57753
C_ C_ 0.574813 0.17054 0.469852 0.57753
C_ C_ 0.57693 0.416916 0.223982 0.57753
C_ C_ 0.577683 0.416714 0.476018 0.57753
C_ C_ 0.824107 0.164948 0.224338 0.57753
C_ C_ 0.829453 0.163364 0.479196 0.57753
C_ C_ 0.827525 0.411925 0.223255 0.57753
C_ C_ 0.826992 0.410056 0.477472 0.57753
C_ C_ 0.534971 0.0649387 0.173154 0.55563
C_ C_ 0.535448 0.0699037 0.423876 0.55563
C_ C_ 0.533233 0.318499 0.173227 0.55563
C_ C_ 0.531725 0.317175 0.424956 0.55563
C_ C_ 0.780376 0.0677692 0.173629 0.55563
C_ C_ 0.781795 0.0675753 0.424669 0.55563
C_ C_ 0.78372 0.310995 0.173303 0.55563
C_ C_ 0.784524 0.313731 0.422807 0.55563
C_ C_ 0.596837 0.064014 0.17118 0.55563
C_ C_ 0.591038 0.0634176 0.424012 0.55563
C_ C_ 0.589259 0.311824 0.17525 0.55563
C_ C_ 0.592542 0.31226 0.424378 0.55563
C_ C_ 0.842326 0.0580872 0.174726 0.55563
C_ C_ 0.843726 0.0604392 0.425249 0.55563
C_ C_ 0.843942 0.30551 0.174973 0.55563
C_ C_ 0.8424 0.308528 0.423228 0.55563
C_ C_ 0.701873 0.10917 0.0399375 0.57753
C_ C_ 0.700285 0.108937 0.288008 0.57753
C_ C_ 0.70235 0.35672 0.0401342 0.57753
C_ C_ 0.703194 0.363638 0.280533 0.57753
C_ C_ 0.95303 0.105965 0.0442819 0.57753
C_ C_ 0.951326 0.104372 0.293151 0.57753
C_ C_ 0.953824 0.353292 0.0424813 0.57753
C_ C_ 0.952266 0.359647 0.285264 0.57753
C_ C_ 0.67443 0.0875552 0.0271641 0.57753
C_ C_ 0.673402 0.0866362 0.275483 0.57753
C_ C_ 0.676453 0.336839 0.02465 0.57753
C_ C_ 0.671614 0.336885 0.271387 0.57753
C_ C_ 0.927683 0.0821138 0.0306783 0.57753
C_ C_ 0.924658 0.0831484 0.275594 0.57753
C_ C_ 0.92471 0.33259 0.0270971 0.57753
C_ C_ 0.925593 0.335983 0.274776 0.57753
C_ C_ 0.714254 0.184151 0.0751073 0.55563
C_ C_ 0.715712 0.182504 0.324204 0.55563
C_ C_ 0.714751 0.434732 0.076249 0.55563
C_ C_ 0.718633 0.43318 0.324002 0.55563
C_ C_ 0.968616 0.182875 0.0771031 0.55563
C_ C_ 0.969327 0.184423 0.325564 0.55563
C_ C_ 0.967361 0.43415 0.0773897 0.55563
C_ C_ 0.964743 0.434108 0.326348 0.55563
C_ C_ 0.659328 0.192313 0.075109 0.55563
C_ C_ 0.653006 0.188457 0.325176 0.55563
C_ C_ 0.658902 0.436203 0.0761685 0.55563
C_ C_ 0.6567 0.440701 0.324432 0.55563
C_ C_ 0.90748 0.190115 0.0759697 0.55563
C_ C_ 0.907282 0.188845 0.323906 0.55563
C_ C_ 0.904584 0.439109 0.0784133 0.55563
C_ C_ 0.909963 0.440087 0.326249 0.55563
O_ O_ 0.751146 0.157033 0.193621 -0.67305
O_ O_ 0.750624 0.157128 0.449373 -0.67305
O_ O_ 0.750613 0.407127 0.192359 -0.67305
O_ O_ 0.750888 0.406803 0.449207 -0.67305
O_ O_ -2.87533e-05 0.147729 0.204821 -0.67305
O_ O_ 0.997722 0.153821 0.45268 -0.67305
O_ O_ -0.0014362 0.40392 0.198668 -0.67305
O_ O_ 1.00256 0.403453 0.449626 -0.67305
O_ O_ 0.574016 0.104869 0.210769 -0.67305
O_ O_ 0.574473 0.109845 0.460087 -0.67305
O_ O_ 0.576086 0.355277 0.213771 -0.67305
O_ O_ 0.575166 0.356191 0.464593 -0.67305
O_ O_ 0.825184 0.107737 0.208529 -0.67305
O_ O_ 0.826527 0.107888 0.46039 -0.67305
O_ O_ 0.824155 0.354129 0.208093 -0.67305
O_ O_ 0.823324 0.356665 0.459219 -0.67305
O_ O_ 0.545839 0.173591 0.251163 -0.67305
O_ O_ 0.551104 0.174352 0.499929 -0.67305
O_ O_ 0.552763 0.429606 0.249602 -0.67305
O_ O_ 0.555972 0.429625 0.502776 -0.67305
O_ O_ 0.799364 0.174352 0.25181 -0.67305
O_ O_ 0.801347 0.177445 0.503214 -0.67305
O_ O_ 0.800386 0.425483 0.2483 -0.67305
O_ O_ 0.799676 0.422334 0.502106 -0.67305
O_ O_ 0.621268 0.172338 0.210116 -0.67305
O_ O_ 0.625748 0.177592 0.45843 -0.67305
O_ O_ 0.626594 0.421493 0.210577 -0.67305
O_ O_ 0.628092 0.419834 0.465221 -0.67305
O_ O_ 0.87538 0.173349 0.210302 -0.67305
O_ O_ 0.882586 0.16658 0.469234 -0.67305
O_ O_ 0.877691 0.421023 0.208764 -0.67305
O_ O_ 0.879933 0.416002 0.466453 -0.67305
O_ O_ 0.501822 0.0493476 0.204132 -0.74432
O_ O_ 0.504044 0.051217 0.456133 -0.74432
O_ O_ 0.496734 0.301476 0.20256 -0.74432
O_ O_ 0.499529 0.299967 0.457401 -0.74432
O_ O_ 0.748096 0.0521482 0.204191 -0.74432
O_ O_ 0.748086 0.0513304 0.456769 -0.74432
O_ O_ 0.75129 0.297605 0.205775 -0.74432
O_ O_ 0.753163 0.301815 0.45491 -0.74432
O_ O_ 0.514036 0.0939182 0.140557 -0.67305
O_ O_ 0.511902 0.0979179 0.391745 -0.67305
O_ O_ 0.512447 0.346029 0.14092 -0.67305
O_ O_ 0.509511 0.340993 0.391288 -0.67305
O_ O_ 0.757811 0.0942576 0.140798 -0.67305
O_ O_ 0.759555 0.0928083 0.391797 -0.67305
O_ O_ 0.760715 0.337852 0.140214 -0.67305
O_ O_ 0.762036 0.339248 0.389269 -0.67305
O_ O_ 0.623724 0.0479962 0.20466 -0.74432
O_ O_ 0.616336 0.0491267 0.456329 -0.74432
O_ O_ 0.615786 0.295173 0.207816 -0.74432
O_ O_ 0.618322 0.298569 0.456039 -0.74432
O_ O_ 0.870748 0.0428409 0.204578 -0.74432
O_ O_ 0.871327 0.0463066 0.457197 -0.74432
O_ O_ 0.869633 0.289678 0.208531 -0.74432
O_ O_ 0.86821 0.293023 0.456294 -0.74432
O_ O_ 0.622367 0.0876565 0.139671 -0.67305
O_ O_ 0.618803 0.0872717 0.392392 -0.67305
O_ O_ 0.617565 0.332688 0.143333 -0.67305
O_ O_ 0.620228 0.335613 0.392574 -0.67305
O_ O_ 0.86705 0.0829787 0.142444 -0.67305
O_ O_ 0.870965 0.0820592 0.392637 -0.67305
O_ O_ 0.870164 0.32998 0.143604 -0.67305
O_ O_ 0.868732 0.334619 0.391443 -0.67305
O_ O_ 0.5009 0.0960935 0.0562445 -0.67305
O_ O_ 0.500718 0.0908617 0.305726 -0.67305
O_ O_ 0.499162 0.344263 0.0520603 -0.67305
O_ O_ 0.497227 0.341507 0.304261 -0.67305
O_ O_ 0.755047 0.098955 0.0462871 -0.67305
O_ O_ 0.750207 0.0953448 0.298111 -0.67305
O_ O_ 0.750324 0.34258 0.0528167 -0.67305
O_ O_ 0.755004 0.351082 0.292295 -0.67305
O_ O_ 0.677031 0.14514 0.0381567 -0.67305
O_ O_ 0.675633 0.143394 0.287939 -0.67305
O_ O_ 0.677674 0.390126 0.0421588 -0.67305
O_ O_ 0.6726 0.394223 0.286188 -0.67305
O_ O_ 0.926052 0.141416 0.0428423 -0.67305
O_ O_ 0.924107 0.140078 0.290823 -0.67305
O_ O_ 0.92774 0.389471 0.0427682 -0.67305
O_ O_ 0.926277 0.392607 0.287442 -0.67305
O_ O_ 0.69895 0.0733039 0.00163099 -0.67305
O_ O_ 0.69815 0.0775666 0.247602 -0.67305
O_ O_ 0.701656 0.327037 0.997415 -0.67305
O_ O_ 0.69326 0.315955 0.250844 -0.67305
O_ O_ 0.951819 0.0778101 0.99861 -0.67305
O_ O_ 0.953348 0.0792879 0.246191 -0.67305
O_ O_ 0.947635 0.323213 -0.000591036 -0.67305
O_ O_ 0.948494 0.320725 0.249684 -0.67305
O_ O_ 0.622355 0.0833673 0.0385387 -0.67305
O_ O_ 0.622161 0.0804826 0.28665 -0.67305
O_ O_ 0.62538 0.330899 0.035886 -0.67305
O_ O_ 0.625814 0.326217 0.292811 -0.67305
O_ O_ 0.875255 0.0830069 0.0383525 -0.67305
O_ O_ 0.870053 0.0861336 0.278894 -0.67305
O_ O_ 0.871658 0.33161 0.035269 -0.67305
O_ O_ 0.87578 0.327464 0.290392 -0.67305
O_ O_ 0.748632 0.198682 0.0441713 -0.74432
O_ O_ 0.749761 0.197663 0.292191 -0.74432
O_ O_ 0.747062 0.450886 0.0446985 -0.74432
O_ O_ 0.750701 0.450158 0.293065 -0.74432
O_ O_ 0.00181906 0.197289 0.0460366 -0.74432
O_ O_ 0.00237025 0.200123 0.293639 -0.74432
O_ O_ 0.998008 0.449554 0.0450517 -0.74432
O_ O_ -0.00183678 0.449411 0.294893 -0.74432
O_ O_ 0.735429 0.159952 0.10765 -0.67305
O_ O_ 0.734221 0.151454 0.356644 -0.67305
O_ O_ 0.7379 0.407163 0.109167 -0.67305
O_ O_ 0.74058 0.405589 0.356992 -0.67305
O_ O_ 0.990883 0.159253 0.11086 -0.67305
O_ O_ 0.989848 0.160291 0.358062 -0.67305
O_ O_ 0.99072 0.408053 0.109904 -0.67305
O_ O_ 0.985268 0.404125 0.357919 -0.67305
O_ O_ 0.630809 0.207678 0.042552 -0.74432
O_ O_ 0.62597 0.201249 0.293998 -0.74432
O_ O_ 0.631762 0.451748 0.0435751 -0.74432
O_ O_ 0.629078 0.454414 0.292388 -0.74432
O_ O_ 0.883991 0.20194 0.0431334 -0.74432
O_ O_ 0.880939 0.202744 0.292739 -0.74432
O_ O_ 0.878978 0.454023 0.0457712 -0.74432
O_ O_ 0.884453 0.455805 0.294614 -0.74432
O_ O_ 0.629566 0.172716 0.107304 -0.67305
O_ O_ 0.62939 0.164057 0.358358 -0.67305
O_ O_ 0.634229 0.409279 0.107823 -0.67305
O_ O_ 0.633988 0.414198 0.356098 -0.67305
O_ O_ 0.880417 0.169106 0.108823 -0.67305
O_ O_ 0.880859 0.164623 0.357493 -0.67305
O_ O_ 0.880273 0.41243 0.110044 -0.67305
O_ O_ 0.884727 0.413578 0.357384 -0.67305
Ba Ba 0.674487 0.116719 0.675305 1.59802
Ba Ba 0.676698 0.118573 0.927004 1.59802
Ba Ba 0.673586 0.369753 0.675368 1.59802
Ba Ba 0.673332 0.36982 0.921726 1.59802
Ba Ba 0.923082 0.119474 0.674864 1.59802
Ba Ba 0.925755 0.116908 0.924397 1.59802
Ba Ba 0.925812 0.366781 0.671781 1.59802
Ba Ba 0.924477 0.366782 0.924798 1.59802
Ba Ba 0.695573 0.217771 0.727242 1.6626
Ba Ba 0.701578 0.218778 0.97323 1.6626
Ba Ba 0.701143 0.466858 0.722775 1.6626
Ba Ba 0.698275 0.467475 0.974833 1.6626
Ba Ba 0.949511 0.218857 0.724752 1.6626
Ba Ba 0.948836 0.216382 0.976742 1.6626
Ba Ba 0.948876 0.468521 0.724476 1.6626
Ba Ba 0.947001 0.46418 0.978526 1.6626
Ba Ba 0.576279 0.131803 0.57692 1.59802
Ba Ba 0.575359 0.131253 0.829774 1.59802
Ba Ba 0.575825 0.382325 0.573323 1.59802
Ba Ba 0.578544 0.383094 0.823035 1.59802
Ba Ba 0.826119 0.129137 0.574856 1.59802
Ba Ba 0.822484 0.129107 0.827543 1.59802
Ba Ba 0.826542 0.378378 0.575844 1.59802
Ba Ba 0.825231 0.382143 0.82578 1.59802
Ba Ba 0.549683 0.0331082 0.526492 1.6626
Ba Ba 0.548271 0.0301926 0.776111 1.6626
Ba Ba 0.552079 0.282415 0.526083 1.6626
Ba Ba 0.549944 0.283461 0.776327 1.6626
Ba Ba 0.79948 0.0315135 0.525691 1.6626
Ba Ba 0.801509 0.0312214 0.775622 1.6626
Ba Ba 0.802925 0.282953 0.525131 1.6626
Ba Ba 0.799535 0.281186 0.774895 1.6626
C_ C_ 0.547478 0.141316 0.713178 0.57753
C_ C_ 0.552138 0.14843 0.954272 0.57753
C_ C_ 0.542836 0.391376 0.710753 0.57753
C_ C_ 0.543809 0.392449 0.962144 0.57753
C_ C_ 0.79354 0.139641 0.712565 0.57753
C_ C_ 0.798074 0.140593 0.961301 0.57753
C_ C_ 0.800994 0.384393 0.712805 0.57753
C_ C_ 0.79617 0.392183 0.958619 0.57753
C_ C_ 0.576053 0.161829 0.727245 0.57753
C_ C_ 0.576671 0.168131 0.970668 0.57753
C_ C_ 0.573753 0.420036 0.721027 0.57753
C_ C_ 0.57526 0.415026 0.975259 0.57753
C_ C_ 0.823134 0.164112 0.725307 0.57753
C_ C_ 0.829233 0.164408 0.974073 0.57753
C_ C_ 0.8314 0.407975 0.727522 0.57753
C_ C_ 0.822982 0.412395 0.972557 0.57753
C_ C_ 0.532288 0.0678025 0.674051 0.55563
C_ C_ 0.534875 0.0656225 0.926337 0.55563
C_ C_ 0.535983 0.31503 0.67538 0.55563
C_ C_ 0.533245 0.318935 0.919633 0.55563
C_ C_ 0.782123 0.065986 0.674774 0.55563
C_ C_ 0.78281 0.063567 0.924974 0.55563
C_ C_ 0.780584 0.314486 0.673537 0.55563
C_ C_ 0.783482 0.313394 0.926041 0.55563
C_ C_ 0.59237 0.0613219 0.674769 0.55563
C_ C_ 0.588909 0.061498 0.926391 0.55563
C_ C_ 0.590147 0.310431 0.675218 0.55563
C_ C_ 0.59373 0.31264 0.92037 0.55563
C_ C_ 0.843247 0.0595995 0.674106 0.55563
C_ C_ 0.845276 0.0567972 0.925249 0.55563
C_ C_ 0.842047 0.304855 0.673395 0.55563
C_ C_ 0.839181 0.305303 0.926813 0.55563
C_ C_ 0.704706 0.110838 0.537371 0.57753
C_ C_ 0.698641 0.109777 0.789729 0.57753
C_ C_ 0.699835 0.354393 0.540753 0.57753
C_ C_ 0.705022 0.358995 0.787766 0.57753
C_ C_ 0.958563 0.111077 0.535541 0.57753
C_ C_ 0.952501 0.113853 0.787306 0.57753
C_ C_ 0.952988 0.356588 0.541731 0.57753
C_ C_ 0.950576 0.358412 0.78588 0.57753
C_ C_ 0.6759 0.0926819 0.522374 0.57753
C_ C_ 0.670645 0.0880401 0.77702 0.57753
C_ C_ 0.675928 0.331973 0.528946 0.57753
C_ C_ 0.674692 0.334926 0.774137 0.57753
C_ C_ 0.927062 0.0868704 0.52346 0.57753
C_ C_ 0.920884 0.0925545 0.77259 0.57753
C_ C_ 0.924824 0.33015 0.529577 0.57753
C_ C_ 0.924798 0.334659 0.775291 0.57753
C_ C_ 0.717733 0.184662 0.578166 0.55563
C_ C_ 0.717964 0.183204 0.828553 0.55563
C_ C_ 0.719946 0.432307 0.575009 0.55563
C_ C_ 0.715048 0.434653 0.826447 0.55563
C_ C_ 0.967986 0.184442 0.576974 0.55563
C_ C_ 0.96546 0.190859 0.826413 0.55563
C_ C_ 0.967367 0.438059 0.576633 0.55563
C_ C_ 0.968967 0.432642 0.825529 0.55563
C_ C_ 0.660451 0.190345 0.578177 0.55563
C_ C_ 0.656821 0.190002 0.829051 0.55563
C_ C_ 0.665133 0.438757 0.57491 0.55563
C_ C_ 0.656884 0.442278 0.824995 0.55563
C_ C_ 0.906489 0.190495 0.576258 0.55563
C_ C_ 0.905874 0.193862 0.825862 0.55563
C_ C_ 0.904997 0.440368 0.577171 0.55563
C_ C_ 0.913251 0.438999 0.825824 0.55563
O_ O_ 0.743091 0.150737 0.70077 -0.67305
O_ O_ 0.753508 0.157333 0.943705 -0.67305
O_ O_ 0.752951 0.40109 0.698456 -0.67305
O_ O_ 0.743977 0.403889 0.950403 -0.67305
O_ O_ 0.996296 0.151537 0.703453 -0.67305
O_ O_ 0.994267 0.148187 0.957667 -0.67305
O_ O_ 0.996435 0.405763 0.69804 -0.67305
O_ O_ 0.996628 0.405762 0.94679 -0.67305
O_ O_ 0.571456 0.10636 0.71299 -0.67305
O_ O_ 0.575711 0.11131 0.957951 -0.67305
O_ O_ 0.572831 0.358389 0.711513 -0.67305
O_ O_ 0.570143 0.358764 0.958627 -0.67305
O_ O_ 0.820551 0.10634 0.711816 -0.67305
O_ O_ 0.823078 0.105789 0.960305 -0.67305
O_ O_ 0.828002 0.35229 0.709137 -0.67305
O_ O_ 0.821537 0.358725 0.958307 -0.67305
O_ O_ 0.550373 0.172366 0.75456 -0.67305
O_ O_ 0.549829 0.176069 0.998579 -0.67305
O_ O_ 0.552961 0.427904 0.75079 -0.67305
O_ O_ 0.552162 0.427677 0.00123089 -0.67305
O_ O_ 0.800569 0.174942 0.752228 -0.67305
O_ O_ 0.805676 0.175585 1.00041 -0.67305
O_ O_ 0.804117 0.422864 0.751565 -0.67305
O_ O_ 0.797243 0.420892 0.000665249 -0.67305
O_ O_ 0.627322 0.167638 0.715301 -0.67305
O_ O_ 0.630581 0.164011 0.967995 -0.67305
O_ O_ 0.625323 0.423696 0.707844 -0.67305
O_ O_ 0.626324 0.421704 0.959795 -0.67305
O_ O_ 0.873443 0.171578 0.711362 -0.67305
O_ O_ 0.879747 0.168304 0.961987 -0.67305
O_ O_ 0.881376 0.415831 0.712135 -0.67305
O_ O_ 0.874689 0.416208 0.963518 -0.67305
O_ O_ 0.499179 0.0483829 0.704258 -0.74432
O_ O_ 0.501601 0.0482415 0.957504 -0.74432
O_ O_ 0.500939 0.298311 0.706534 -0.74432
O_ O_ 0.500152 0.301703 0.951888 -0.74432
O_ O_ 0.753243 0.0475085 0.706966 -0.74432
O_ O_ 0.750557 0.0496801 0.95549 -0.74432
O_ O_ 0.747504 0.300008 0.704787 -0.74432
O_ O_ 0.749384 0.300834 0.955979 -0.74432
O_ O_ 0.513705 0.0992501 0.64314 -0.67305
O_ O_ 0.51235 0.090308 0.893698 -0.67305
O_ O_ 0.515765 0.344347 0.642521 -0.67305
O_ O_ 0.511961 0.348573 0.887601 -0.67305
O_ O_ 0.760213 0.0969672 0.642796 -0.67305
O_ O_ 0.759457 0.0895326 0.892249 -0.67305
O_ O_ 0.759962 0.34643 0.641947 -0.67305
O_ O_ 0.766029 0.343865 0.893018 -0.67305
O_ O_ 0.617657 0.0425253 0.706144 -0.74432
O_ O_ 0.616245 0.0456605 0.959415 -0.74432
O_ O_ 0.617855 0.295899 0.707773 -0.74432
O_ O_ 0.617211 0.295817 0.954747 -0.74432
O_ O_ 0.871464 0.0449429 0.705433 -0.74432
O_ O_ 0.871601 0.0440986 0.957563 -0.74432
O_ O_ 0.867996 0.292363 0.706481 -0.74432
O_ O_ 0.865682 0.294197 0.959156 -0.74432
O_ O_ 0.619699 0.0827926 0.642747 -0.67305
O_ O_ 0.617244 0.0850552 0.894557 -0.67305
O_ O_ 0.616705 0.334274 0.644174 -0.67305
O_ O_ 0.621676 0.332727 0.888493 -0.67305
O_ O_ 0.868549 0.0836063 0.642747 -0.67305
O_ O_ 0.871214 0.0796894 0.893388 -0.67305
O_ O_ 0.871065 0.324856 0.641979 -0.67305
O_ O_ 0.866259 0.326822 0.89375 -0.67305
O_ O_ 0.498079 0.0942154 0.556265 -0.67305
O_ O_ 0.504769 0.0936333 0.80359 -0.67305
O_ O_ 0.506089 0.346341 0.552234 -0.67305
O_ O_ 0.502177 0.346915 0.800203 -0.67305
O_ O_ 0.752687 0.0921236 0.551806 -0.67305
O_ O_ 0.749536 0.0954739 0.80037 -0.67305
O_ O_ 0.751232 0.342851 0.550406 -0.67305
O_ O_ 0.751585 0.344684 0.80296 -0.67305
O_ O_ 0.680785 0.144741 0.540538 -0.67305
O_ O_ 0.673646 0.144915 0.790548 -0.67305
O_ O_ 0.674159 0.392402 0.53711 -0.67305
O_ O_ 0.680235 0.394663 0.789071 -0.67305
O_ O_ 0.930397 0.142097 0.541945 -0.67305
O_ O_ 0.928882 0.148033 0.790157 -0.67305
O_ O_ 0.928749 0.392863 0.538677 -0.67305
O_ O_ 0.924272 0.38989 0.788781 -0.67305
O_ O_ 0.700167 0.0755263 0.500118 -0.67305
O_ O_ 0.695988 0.0760002 0.750736 -0.67305
O_ O_ 0.701352 0.32512 0.499573 -0.67305
O_ O_ 0.696057 0.323773 0.747378 -0.67305
O_ O_ 0.951273 0.0721269 0.499721 -0.67305
O_ O_ 0.947702 0.0761109 0.750716 -0.67305
O_ O_ 0.949793 0.319387 0.502166 -0.67305
O_ O_ 0.94668 0.322559 0.747459 -0.67305
O_ O_ 0.62478 0.0861455 0.535093 -0.67305
O_ O_ 0.61842 0.0848899 0.785889 -0.67305
O_ O_ 0.622181 0.33638 0.532028 -0.67305
O_ O_ 0.627164 0.326011 0.790853 -0.67305
O_ O_ 0.87793 0.0790643 0.539141 -0.67305
O_ O_ 0.873802 0.0806816 0.789835 -0.67305
O_ O_ 0.872948 0.328041 0.539859 -0.67305
O_ O_ 0.873795 0.330051 0.788087 -0.67305
O_ O_ 0.752332 0.199884 0.546562 -0.74432
O_ O_ 0.749044 0.199292 0.795683 -0.74432
O_ O_ 0.754224 0.449324 0.543389 -0.74432
O_ O_ 0.747534 0.449411 0.795133 -0.74432
O_ O_ 6.60853e-05 0.198789 0.546008 -0.74432
O_ O_ -0.00176022 0.203744 0.79399 -0.74432
O_ O_ 0.00210752 0.451783 0.545724 -0.74432
O_ O_ 0.00102172 0.450415 0.794086 -0.74432
O_ O_ 0.738922 0.157864 0.609639 -0.67305
O_ O_ 0.738382 0.150739 0.860169 -0.67305
O_ O_ 0.741452 0.406851 0.609228 -0.67305
O_ O_ 0.736119 0.403704 0.857731 -0.67305
O_ O_ 0.989594 0.157091 0.609442 -0.67305
O_ O_ 0.986929 0.162369 0.859517 -0.67305
O_ O_ 0.989332 0.409494 0.610019 -0.67305
O_ O_ 0.99262 0.406459 0.856842 -0.67305
O_ O_ 0.631978 0.203275 0.545478 -0.74432
O_ O_ 0.631663 0.206416 0.796222 -0.74432
O_ O_ 0.638613 0.4522 0.543072 -0.74432
O_ O_ 0.631981 0.45947 0.791773 -0.74432
O_ O_ 0.879895 0.202649 0.543452 -0.74432
O_ O_ 0.879571 0.204964 0.793971 -0.74432
O_ O_ 0.878826 0.455796 0.544635 -0.74432
O_ O_ 0.888036 0.453967 0.793371 -0.74432
O_ O_ 0.632039 0.169416 0.610782 -0.67305
O_ O_ 0.628029 0.168534 0.861585 -0.67305
O_ O_ 0.637643 0.416328 0.607223 -0.67305
O_ O_ 0.626871 0.423083 0.856531 -0.67305
O_ O_ 0.88032 0.16667 0.607714 -0.67305
O_ O_ 0.88143 0.166227 0.858199 -0.67305
O_ O_ 0.879741 0.415057 0.607121 -0.67305
O_ O_ 0.886025 0.417808 0.858761 -0.67305
Ba Ba 0.675619 0.618049 0.175223 1.59802
Ba Ba 0.675848 0.61914 0.42416 1.59802
Ba Ba 0.675616 0.86603 0.173757 1.59802
Ba Ba 0.675477 0.870323 0.423036 1.59802
Ba Ba 0.9241 0.621383 0.17462 1.59802
Ba Ba 0.92712 0.620444 0.424963 1.59802
Ba Ba 0.924141 0.869341 0.174148 1.59802
Ba Ba 0.924426 0.870513 0.422429 1.59802
Ba Ba 0.702631 0.715366 0.225714 1.6626
Ba Ba 0.703201 0.716761 0.474154 1.6626
Ba Ba 0.700032 0.969669 0.221974 1.6626
Ba Ba 0.698374 0.969754 0.473358 1.6626
Ba Ba 0.948174 0.717218 0.226103 1.6626
Ba Ba 0.945868 0.717613 0.477043 1.6626
Ba Ba 0.947705 0.967291 0.220118 1.6626
Ba Ba 0.948385 0.967011 0.473248 1.6626
Ba Ba 0.574789 0.635256 0.0737636 1.59802
Ba Ba 0.57636 0.633255 0.324776 1.59802
Ba Ba 0.575884 0.882104 0.0745748 1.59802
Ba Ba 0.577193 0.880617 0.321812 1.59802
Ba Ba 0.825086 0.627858 0.0752739 1.59802
Ba Ba 0.829796 0.628783 0.329338 1.59802
Ba Ba 0.821583 0.881878 0.0753552 1.59802
Ba Ba 0.824766 0.881919 0.324326 1.59802
Ba Ba 0.552532 0.530169 0.0277291 1.6626
Ba Ba 0.55108 0.533153 0.274309 1.6626
Ba Ba 0.552225 0.782379 0.026332 1.6626
Ba Ba 0.553873 0.781258 0.274604 1.6626
Ba Ba 0.798786 0.530298 0.027854 1.6626
Ba Ba 0.800938 0.530877 0.277888 1.6626
Ba Ba 0.800878 0.783214 0.026191 1.6626
Ba Ba 0.80662 0.781778 0.274554 1.6626
C_ C_ 0.549602 0.639499 0.212473 0.57753
C_ C_ 0.550445 0.64313 0.461148 0.57753
C_ C_ 0.546656 0.89092 0.208149 0.57753
C_ C_ 0.550149 0.888695 0.461337 0.57753
C_ C_ 0.793961 0.637784 0.215863 0.57753
C_ C_ 0.795704 0.63776 0.467033 0.57753
C_ C_ 0.793019 0.890167 0.211056 0.57753
C_ C_ 0.794956 0.890236 0.463166 0.57753
C_ C_ 0.577669 0.66146 0.225141 0.57753
C_ C_ 0.578026 0.665441 0.47267 0.57753
C_ C_ 0.578394 0.912328 0.224109 0.57753
C_ C_ 0.579578 0.912779 0.47395 0.57753
C_ C_ 0.824018 0.661298 0.229175 0.57753
C_ C_ 0.826938 0.665144 0.476023 0.57753
C_ C_ 0.823193 0.918013 0.221009 0.57753
C_ C_ 0.823299 0.910782 0.476919 0.57753
C_ C_ 0.53165 0.562949 0.172371 0.55563
C_ C_ 0.535508 0.567204 0.424621 0.55563
C_ C_ 0.53718 0.813461 0.17319 0.55563
C_ C_ 0.53784 0.818944 0.421028 0.55563
C_ C_ 0.782766 0.566483 0.174211 0.55563
C_ C_ 0.781878 0.567469 0.425965 0.55563
C_ C_ 0.783062 0.811736 0.171986 0.55563
C_ C_ 0.784309 0.815945 0.423333 0.55563
C_ C_ 0.591819 0.558921 0.172818 0.55563
C_ C_ 0.592935 0.560784 0.423236 0.55563
C_ C_ 0.592776 0.806424 0.173909 0.55563
C_ C_ 0.599636 0.810987 0.422082 0.55563
C_ C_ 0.842777 0.559213 0.174498 0.55563
C_ C_ 0.844987 0.561888 0.427415 0.55563
C_ C_ 0.844425 0.81166 0.171382 0.55563
C_ C_ 0.839894 0.813451 0.423166 0.55563
C_ C_ 0.699739 0.606722 0.0418775 0.57753
C_ C_ 0.700442 0.607375 0.292319 0.57753
C_ C_ 0.701535 0.86022 0.0382041 0.57753
C_ C_ 0.709731 0.857997 0.286917 0.57753
C_ C_ 0.950985 0.611718 0.0367589 0.57753
C_ C_ 0.953499 0.607847 0.292273 0.57753
C_ C_ 0.951297 0.858998 0.0434192 0.57753
C_ C_ 0.951662 0.857906 0.288969 0.57753
C_ C_ 0.672045 0.587869 0.026485 0.57753
C_ C_ 0.673571 0.585389 0.278979 0.57753
C_ C_ 0.674828 0.839035 0.0239228 0.57753
C_ C_ 0.680214 0.833399 0.272741 0.57753
C_ C_ 0.922312 0.587791 0.0227439 0.57753
C_ C_ 0.922404 0.583428 0.278765 0.57753
C_ C_ 0.920972 0.83806 0.0261536 0.57753
C_ C_ 0.925801 0.840259 0.272658 0.57753
C_ C_ 0.716113 0.685168 0.0757277 0.55563
C_ C_ 0.720746 0.683481 0.326099 0.55563
C_ C_ 0.714644 0.938334 0.0755943 0.55563
C_ C_ 0.715346 0.935199 0.324886 0.55563
C_ C_ 0.966008 0.681338 0.0784213 0.55563
C_ C_ 0.968974 0.683624 0.326241 0.55563
C_ C_ 0.965842 0.938494 0.0752526 0.55563
C_ C_ 0.962191 0.938474 0.321731 0.55563
C_ C_ 0.660708 0.69109 0.0758766 0.55563
C_ C_ 0.660125 0.693941 0.324958 0.55563
C_ C_ 0.659083 0.94185 0.0758685 0.55563
C_ C_ 0.655612 0.939508 0.324282 0.55563
C_ C_ 0.905463 0.689964 0.0773612 0.55563
C_ C_ 0.906515 0.691735 0.326577 0.55563
C_ C_ 0.903966 0.942834 0.0742615 0.55563
C_ C_ 0.906881 0.943126 0.321738 0.55563
O_ O_ 0.754139 0.656524 0.193423 -0.67305
O_ O_ 0.754313 0.656662 0.443693 -0.67305
O_ O_ 0.747869 0.907756 0.193249 -0.67305
O_ O_ 0.745468 0.905868 0.451467 -0.67305
O_ O_ 0.999755 0.65731 0.197296 -0.67305
O_ O_ 0.998783 0.655623 0.449683 -0.67305
O_ O_ 1.00196 0.907403 0.189386 -0.67305
O_ O_ -0.00129686 0.904621 0.446497 -0.67305
O_ O_ 0.572257 0.606197 0.209129 -0.67305
O_ O_ 0.574782 0.606799 0.461952 -0.67305
O_ O_ 0.572499 0.856776 0.206379 -0.67305
O_ O_ 0.575738 0.853947 0.46179 -0.67305
O_ O_ 0.824744 0.608153 0.212262 -0.67305
O_ O_ 0.826131 0.607305 0.46373 -0.67305
O_ O_ 0.82088 0.855439 0.210412 -0.67305
O_ O_ 0.820234 0.858497 0.457644 -0.67305
O_ O_ 0.553244 0.67657 0.248226 -0.67305
O_ O_ 0.553222 0.680446 0.49651 -0.67305
O_ O_ 0.551247 0.927629 0.248186 -0.67305
O_ O_ 0.5574 0.922941 0.50165 -0.67305
O_ O_ 0.799898 0.672262 0.257113 -0.67305
O_ O_ 0.806056 0.679798 0.501381 -0.67305
O_ O_ 0.801326 0.928055 0.248216 -0.67305
O_ O_ 0.798881 0.923572 0.502191 -0.67305
O_ O_ 0.627926 0.669115 0.212107 -0.67305
O_ O_ 0.628866 0.672388 0.458268 -0.67305
O_ O_ 0.629561 0.918505 0.21202 -0.67305
O_ O_ 0.63037 0.920468 0.46068 -0.67305
O_ O_ 0.87283 0.671171 0.212764 -0.67305
O_ O_ 0.87661 0.673224 0.459846 -0.67305
O_ O_ 0.871985 0.926222 0.202812 -0.67305
O_ O_ 0.875489 0.917716 0.465393 -0.67305
O_ O_ 0.499252 0.550295 0.20429 -0.74432
O_ O_ 0.50371 0.551206 0.456048 -0.74432
O_ O_ 0.503631 0.798923 0.204724 -0.74432
O_ O_ 0.503781 0.80436 0.452468 -0.74432
O_ O_ 0.75205 0.548947 0.206997 -0.74432
O_ O_ 0.749678 0.551336 0.459015 -0.74432
O_ O_ 0.752759 0.795376 0.205665 -0.74432
O_ O_ 0.751232 0.799765 0.453855 -0.74432
O_ O_ 0.511736 0.59226 0.139821 -0.67305
O_ O_ 0.513237 0.596958 0.392306 -0.67305
O_ O_ 0.515162 0.840576 0.141301 -0.67305
O_ O_ 0.51871 0.850495 0.389615 -0.67305
O_ O_ 0.76098 0.593363 0.141077 -0.67305
O_ O_ 0.759576 0.590834 0.392273 -0.67305
O_ O_ 0.758555 0.83863 0.141035 -0.67305
O_ O_ 0.762816 0.84422 0.39018 -0.67305
O_ O_ 0.618843 0.544385 0.205266 -0.74432
O_ O_ 0.619334 0.54415 0.456184 -0.74432
O_ O_ 0.618675 0.791625 0.206626 -0.74432
O_ O_ 0.624577 0.795108 0.456039 -0.74432
O_ O_ 0.867758 0.545789 0.207117 -0.74432
O_ O_ 0.869201 0.547101 0.461487 -0.74432
O_ O_ 0.870693 0.797065 0.203174 -0.74432
O_ O_ 0.868646 0.797615 0.453715 -0.74432
O_ O_ 0.61739 0.58223 0.140668 -0.67305
O_ O_ 0.619749 0.583117 0.390416 -0.67305
O_ O_ 0.622102 0.826377 0.14118 -0.67305
O_ O_ 0.627535 0.832942 0.389578 -0.67305
O_ O_ 0.872045 0.580405 0.142837 -0.67305
O_ O_ 0.873406 0.583466 0.395395 -0.67305
O_ O_ 0.870845 0.83275 0.13861 -0.67305
O_ O_ 0.864577 0.836191 0.390542 -0.67305
O_ O_ 0.502393 0.595005 0.05293 -0.67305
O_ O_ 0.501927 0.597866 0.29934 -0.67305
O_ O_ 0.503304 0.84775 0.0491332 -0.67305
O_ O_ 0.503538 0.843896 0.300152 -0.67305
O_ O_ 0.749994 0.593954 0.0501587 -0.67305
O_ O_ 0.752596 0.598269 0.298793 -0.67305
O_ O_ 0.749834 0.846194 0.0511685 -0.67305
O_ O_ 0.754134 0.839769 0.306658 -0.67305
O_ O_ 0.677397 0.643252 0.0403504 -0.67305
O_ O_ 0.676803 0.643177 0.290954 -0.67305
O_ O_ 0.676531 0.894289 0.039336 -0.67305
O_ O_ 0.682032 0.892619 0.287451 -0.67305
O_ O_ 0.921384 0.64364 0.038942 -0.67305
O_ O_ 0.927124 0.64273 0.291673 -0.67305
O_ O_ 0.927855 0.89503 0.0397886 -0.67305
O_ O_ 0.927942 0.892363 0.290371 -0.67305
O_ O_ 0.696642 0.5717 0.0029091 -0.67305
O_ O_ 0.698688 0.574183 0.251795 -0.67305
O_ O_ 0.699815 0.824751 0.999829 -0.67305
O_ O_ 0.703902 0.821533 0.24658 -0.67305
O_ O_ 0.949823 0.572328 -0.000894061 -0.67305
O_ O_ 0.944849 0.573179 0.251362 -0.67305
O_ O_ 0.946337 0.825223 1.00042 -0.67305
O_ O_ 0.952938 0.829166 0.247275 -0.67305
O_ O_ 0.621305 0.582296 0.038169 -0.67305
O_ O_ 0.622387 0.579203 0.289597 -0.67305
O_ O_ 0.625609 0.826796 0.044027 -0.67305
O_ O_ 0.627567 0.830139 0.283504 -0.67305
O_ O_ 0.873638 0.576 0.0388292 -0.67305
O_ O_ 0.874698 0.573029 0.296348 -0.67305
O_ O_ 0.870682 0.828339 0.0414573 -0.67305
O_ O_ 0.873464 0.837549 0.281249 -0.67305
O_ O_ 0.750029 0.702242 0.0442486 -0.74432
O_ O_ 0.756145 0.699889 0.295758 -0.74432
O_ O_ 0.745642 0.950519 0.0430152 -0.74432
O_ O_ 0.747954 0.951209 0.293485 -0.74432
O_ O_ 0.998554 0.697621 0.0456804 -0.74432
O_ O_ 0.00290988 0.69678 0.29481 -0.74432
O_ O_ -0.00142675 0.954362 0.0428104 -0.74432
O_ O_ 0.993687 0.951981 0.290069 -0.74432
O_ O_ 0.738042 0.655657 0.107764 -0.67305
O_ O_ 0.738714 0.650561 0.356812 -0.67305
O_ O_ 0.735152 0.91114 0.108373 -0.67305
O_ O_ 0.734995 0.907459 0.356931 -0.67305
O_ O_ 0.9873 0.652878 0.110026 -0.67305
O_ O_ 0.989686 0.655724 0.358503 -0.67305
O_ O_ 0.985133 0.910308 0.107742 -0.67305
O_ O_ 0.982295 0.911099 0.35404 -0.67305
O_ O_ 0.633894 0.709517 0.0427789 -0.74432
O_ O_ 0.634033 0.704105 0.293329 -0.74432
O_ O_ 0.633182 0.95699 0.0422596 -0.74432
O_ O_ 0.629287 0.954532 0.292089 -0.74432
O_ O_ 0.878013 0.704451 0.0457812 -0.74432
O_ O_ 0.880574 0.707478 0.293678 -0.74432
O_ O_ 0.87891 0.956648 0.0409462 -0.74432
O_ O_ 0.881361 0.957887 0.288387 -0.74432
O_ O_ 0.632071 0.671308 0.107668 -0.67305
O_ O_ 0.635082 0.670446 0.356795 -0.67305
O_ O_ 0.632568 0.917864 0.107194 -0.67305
O_ O_ 0.628654 0.918483 0.356413 -0.67305
O_ O_ 0.877619 0.66685 0.109144 -0.67305
O_ O_ 0.87822 0.673631 0.359156 -0.67305
O_ O_ 0.878673 0.918513 0.105161 -0.67305
O_ O_ 0.88082 0.920287 0.354261 -0.67305
Ba Ba 0.674865 0.617087 0.672603 1.59802
Ba Ba 0.677684 0.61876 0.925433 1.59802
Ba Ba 0.674443 0.868172 0.67543 1.59802
Ba Ba 0.672255 0.868035 0.925916 1.59802
Ba Ba 0.923165 0.620423 0.673415 1.59802
Ba Ba 0.924603 0.61498 0.925736 1.59802
Ba Ba 0.925057 0.869015 0.672648 1.59802
Ba Ba 0.92292 0.868138 0.927188 1.59802
Ba Ba 0.699441 0.716057 0.728223 1.6626
Ba Ba 0.699565 0.719822 0.97363 1.6626
Ba Ba 0.700671 0.965499 0.726296 1.6626
Ba Ba 0.69602 0.969545 0.973069 1.6626
Ba Ba 0.94901 0.717562 0.72583 1.6626
Ba Ba 0.947784 0.720046 0.97563 1.6626
Ba Ba 0.948758 0.969938 0.723459 1.6626
Ba Ba 0.951291 0.967204 0.974942 1.6626
Ba Ba 0.576365 0.635905 0.574828 1.59802
Ba Ba 0.575223 0.62933 0.825822 1.59802
Ba Ba 0.579497 0.878572 0.575829 1.59802
Ba Ba 0.576225 0.87663 0.82778 1.59802
Ba Ba 0.824854 0.631789 0.57629 1.59802
Ba Ba 0.827503 0.629525 0.82533 1.59802
Ba Ba 0.823027 0.880891 0.575574 1.59802
Ba Ba 0.821746 0.879568 0.827299 1.59802
Ba Ba 0.554458 0.532688 0.526141 1.6626
Ba Ba 0.549166 0.535058 0.772496 1.6626
Ba Ba 0.550798 0.782609 0.525206 1.6626
Ba Ba 0.549598 0.779504 0.776498 1.6626
Ba Ba 0.798804 0.531686 0.527849 1.6626
Ba Ba 0.803174 0.531845 0.773025 1.6626
Ba Ba 0.799243 0.782247 0.524222 1.6626
Ba Ba 0.800635 0.783989 0.776539 1.6626
C_ C_ 0.550138 0.642062 0.708818 0.57753
C_ C_ 0.549812 0.643391 0.96005 0.57753
C_ C_ 0.548594 0.887454 0.71563 0.57753
C_ C_ 0.545644 0.893082 0.956244 0.57753
C_ C_ 0.795472 0.640054 0.710675 0.57753
C_ C_ 0.798246 0.642463 0.956769 0.57753
C_ C_ 0.796135 0.894509 0.706438 0.57753
C_ C_ 0.797293 0.888968 0.96594 0.57753
C_ C_ 0.577454 0.665601 0.721709 0.57753
C_ C_ 0.575222 0.666768 0.970786 0.57753
C_ C_ 0.576625 0.916996 0.723851 0.57753
C_ C_ 0.575221 0.913904 0.973246 0.57753
C_ C_ 0.824491 0.662795 0.726884 0.57753
C_ C_ 0.8284 0.666017 0.970255 0.57753
C_ C_ 0.826291 0.919917 0.719392 0.57753
C_ C_ 0.82526 0.913163 0.97663 0.57753
C_ C_ 0.530949 0.565979 0.672825 0.55563
C_ C_ 0.535969 0.563853 0.927448 0.55563
C_ C_ 0.534788 0.817637 0.672491 0.55563
C_ C_ 0.530577 0.812049 0.923479 0.55563
C_ C_ 0.782744 0.564075 0.672414 0.55563
C_ C_ 0.779521 0.563965 0.924294 0.55563
C_ C_ 0.780104 0.812126 0.676126 0.55563
C_ C_ 0.783924 0.815353 0.925821 0.55563
C_ C_ 0.591586 0.5607 0.673753 0.55563
C_ C_ 0.592104 0.558228 0.927206 0.55563
C_ C_ 0.59027 0.810485 0.672497 0.55563
C_ C_ 0.592208 0.809215 0.924025 0.55563
C_ C_ 0.845825 0.557796 0.672927 0.55563
C_ C_ 0.840548 0.555917 0.92612 0.55563
C_ C_ 0.842357 0.806408 0.676382 0.55563
C_ C_ 0.839339 0.811038 0.925554 0.55563
C_ C_ 0.698974 0.607972 0.541422 0.57753
C_ C_ 0.707917 0.60931 0.786198 0.57753
C_ C_ 0.700591 0.857459 0.539032 0.57753
C_ C_ 0.703222 0.858611 0.788079 0.57753
C_ C_ 0.950294 0.60789 0.543725 0.57753
C_ C_ 0.955912 0.610908 0.785507 0.57753
C_ C_ 0.952222 0.861513 0.535909 0.57753
C_ C_ 0.948628 0.862221 0.785845 0.57753
C_ C_ 0.672027 0.585608 0.530221 0.57753
C_ C_ 0.680065 0.587801 0.773221 0.57753
C_ C_ 0.674766 0.834783 0.526094 0.57753
C_ C_ 0.672909 0.831981 0.776086 0.57753
C_ C_ 0.923166 0.582305 0.530636 0.57753
C_ C_ 0.925286 0.5827 0.775049 0.57753
C_ C_ 0.922689 0.83627 0.524169 0.57753
C_ C_ 0.922279 0.835606 0.776411 0.57753
C_ C_ 0.717304 0.685213 0.575708 0.55563
C_ C_ 0.718817 0.685798 0.827087 0.55563
C_ C_ 0.712694 0.935721 0.57604 0.55563
C_ C_ 0.716853 0.933643 0.827361 0.55563
C_ C_ 0.965619 0.690096 0.575286 0.55563
C_ C_ 0.964276 0.680914 0.826391 0.55563
C_ C_ 0.965578 0.935202 0.573523 0.55563
C_ C_ 0.96168 0.934512 0.824207 0.55563
C_ C_ 0.661282 0.694043 0.57555 0.55563
C_ C_ 0.656546 0.690055 0.825945 0.55563
C_ C_ 0.657393 0.939942 0.574938 0.55563
C_ C_ 0.654321 0.939081 0.8265 0.55563
C_ C_ 0.903813 0.693322 0.573916 0.55563
C_ C_ 0.904749 0.687341 0.826875 0.55563
C_ C_ 0.904994 0.94236 0.572895 0.55563
C_ C_ 0.905917 0.941011 0.825279 0.55563
O_ O_ 0.746209 0.654559 0.698063 -0.67305
O_ O_ 0.74756 0.655415 0.948891 -0.67305
O_ O_ 0.750189 0.912217 0.688768 -0.67305
O_ O_ 0.746745 0.902131 0.954982 -0.67305
O_ O_ 1.00033 0.657996 0.695429 -0.67305
O_ O_ 0.995333 0.659626 0.944322 -0.67305
O_ O_ -0.00403333 0.90651 0.694883 -0.67305
O_ O_ -0.0037346 0.903582 0.950506 -0.67305
O_ O_ 0.576625 0.60691 0.709376 -0.67305
O_ O_ 0.575628 0.608168 0.96005 -0.67305
O_ O_ 0.576608 0.853433 0.714603 -0.67305
O_ O_ 0.567725 0.856539 0.957881 -0.67305
O_ O_ 0.821107 0.60494 0.709546 -0.67305
O_ O_ 0.820857 0.604489 0.959207 -0.67305
O_ O_ 0.821304 0.85868 0.707114 -0.67305
O_ O_ 0.824456 0.856606 0.963212 -0.67305
O_ O_ 0.551236 0.67098 0.750776 -0.67305
O_ O_ 0.550159 0.679875 -0.00307348 -0.67305
O_ O_ 0.556526 0.926732 0.752869 -0.67305
O_ O_ 0.548501 0.921675 1.00133 -0.67305
O_ O_ 0.799638 0.672115 0.754086 -0.67305
O_ O_ 0.804661 0.675693 -0.00158501 -0.67305
O_ O_ 0.804454 0.925296 0.750542 -0.67305
O_ O_ 0.801308 0.929859 1.00027 -0.67305
O_ O_ 0.628254 0.66715 0.713286 -0.67305
O_ O_ 0.627474 0.670393 0.960051 -0.67305
O_ O_ 0.627745 0.922331 0.709817 -0.67305
O_ O_ 0.625158 0.922642 0.95899 -0.67305
O_ O_ 0.876367 0.667925 0.715181 -0.67305
O_ O_ 0.881113 0.669097 0.959479 -0.67305
O_ O_ 0.879371 0.919988 0.709444 -0.67305
O_ O_ 0.876597 0.916829 0.964869 -0.67305
O_ O_ 0.496756 0.550782 0.702821 -0.74432
O_ O_ 0.501042 0.548279 0.958487 -0.74432
O_ O_ 0.504472 0.798522 0.703806 -0.74432
O_ O_ 0.500724 0.80051 0.956371 -0.74432
O_ O_ 0.7522 0.549463 0.703588 -0.74432
O_ O_ 0.748215 0.546099 0.956156 -0.74432
O_ O_ 0.746875 0.797226 0.708396 -0.74432
O_ O_ 0.750975 0.800858 0.956272 -0.74432
O_ O_ 0.510757 0.594839 0.640354 -0.67305
O_ O_ 0.515451 0.592417 0.894785 -0.67305
O_ O_ 0.512491 0.846237 0.641139 -0.67305
O_ O_ 0.507692 0.841038 0.891436 -0.67305
O_ O_ 0.762353 0.593872 0.640367 -0.67305
O_ O_ 0.759651 0.588793 0.891195 -0.67305
O_ O_ 0.760448 0.84109 0.644785 -0.67305
O_ O_ 0.760266 0.840607 0.892735 -0.67305
O_ O_ 0.619093 0.544216 0.706107 -0.74432
O_ O_ 0.619144 0.545242 0.958636 -0.74432
O_ O_ 0.616818 0.794545 0.706368 -0.74432
O_ O_ 0.617211 0.794927 0.957771 -0.74432
O_ O_ 0.871688 0.542567 0.705661 -0.74432
O_ O_ 0.865493 0.541948 0.958714 -0.74432
O_ O_ 0.869071 0.795076 0.707214 -0.74432
O_ O_ 0.866122 0.7952 0.957705 -0.74432
O_ O_ 0.620578 0.580499 0.641721 -0.67305
O_ O_ 0.619155 0.581456 0.895008 -0.67305
O_ O_ 0.619727 0.829749 0.642049 -0.67305
O_ O_ 0.620301 0.832303 0.892231 -0.67305
O_ O_ 0.873117 0.581648 0.642365 -0.67305
O_ O_ 0.868776 0.57734 0.894338 -0.67305
O_ O_ 0.867453 0.83109 0.642835 -0.67305
O_ O_ 0.869941 0.831216 0.894303 -0.67305
O_ O_ 0.50445 0.600991 0.548581 -0.67305
O_ O_ 0.500118 0.591716 0.807412 -0.67305
O_ O_ 0.501397 0.841966 0.557318 -0.67305
O_ O_ 0.504122 0.846665 0.799276 -0.67305
O_ O_ 0.747915 0.593933 0.5553 -0.67305
O_ O_ 0.755603 0.592906 0.801054 -0.67305
O_ O_ 0.753653 0.84884 0.542836 -0.67305
O_ O_ 0.7462 0.839178 0.80848 -0.67305
O_ O_ 0.675762 0.643821 0.540654 -0.67305
O_ O_ 0.681665 0.640029 0.792914 -0.67305
O_ O_ 0.675293 0.893389 0.535868 -0.67305
O_ O_ 0.676709 0.892147 0.790026 -0.67305
O_ O_ 0.925847 0.643471 0.543249 -0.67305
O_ O_ 0.927366 0.643917 0.787557 -0.67305
O_ O_ 0.924967 0.893377 0.539212 -0.67305
O_ O_ 0.921232 0.896301 0.78598 -0.67305
O_ O_ 0.696213 0.57387 0.503543 -0.67305
O_ O_ 0.704912 0.574355 0.747946 -0.67305
O_ O_ 0.699982 0.825502 0.499622 -0.67305
O_ O_ 0.696905 0.819981 0.749401 -0.67305
O_ O_ 0.948674 0.575171 0.502093 -0.67305
O_ O_ 0.949066 0.57249 0.748074 -0.67305
O_ O_ 0.946801 0.821913 0.499499 -0.67305
O_ O_ 0.945022 0.823316 0.750792 -0.67305
O_ O_ 0.619435 0.586327 0.537343 -0.67305
O_ O_ 0.627198 0.582982 0.784363 -0.67305
O_ O_ 0.622717 0.830685 0.536955 -0.67305
O_ O_ 0.62153 0.829309 0.788858 -0.67305
O_ O_ 0.871293 0.578831 0.540533 -0.67305
O_ O_ 0.874224 0.579249 0.788174 -0.67305
O_ O_ 0.874436 0.826691 0.54173 -0.67305
O_ O_ 0.869599 0.832087 0.787187 -0.67305
O_ O_ 0.750025 0.700189 0.544065 -0.74432
O_ O_ 0.753262 0.701189 0.796578 -0.74432
O_ O_ 0.745188 0.948705 0.545228 -0.74432
O_ O_ 0.748861 0.949571 0.796699 -0.74432
O_ O_ -0.00124226 0.70341 0.544551 -0.74432
O_ O_ -0.00296875 0.700027 0.794309 -0.74432
O_ O_ 0.00153671 0.952225 0.542449 -0.74432
O_ O_ -0.00544935 0.950464 0.793012 -0.74432
O_ O_ 0.737944 0.657894 0.60828 -0.67305
O_ O_ 0.740611 0.657289 0.859656 -0.67305
O_ O_ 0.734803 0.90666 0.609068 -0.67305
O_ O_ 0.738149 0.913509 0.862206 -0.67305
O_ O_ 0.984253 0.66052 0.606669 -0.67305
O_ O_ 0.986132 0.65447 0.860031 -0.67305
O_ O_ 0.987041 0.908161 0.605589 -0.67305
O_ O_ 0.982608 0.908081 0.857294 -0.67305
O_ O_ 0.634189 0.709344 0.54386 -0.74432
O_ O_ 0.629844 0.703422 0.793873 -0.74432
O_ O_ 0.63221 0.956862 0.540925 -0.74432
O_ O_ 0.629335 0.953388 0.795 -0.74432
O_ O_ 0.876979 0.706398 0.542689 -0.74432
O_ O_ 0.877521 0.704299 0.793749 -0.74432
O_ O_ 0.879459 0.955061 0.540932 -0.74432
O_ O_ 0.880312 0.955487 0.792954 -0.74432
O_ O_ 0.633289 0.67266 0.607672 -0.67305
O_ O_ 0.631678 0.664736 0.858668 -0.67305
O_ O_ 0.629857 0.919605 0.60581 -0.67305
O_ O_ 0.627416 0.916661 0.858159 -0.67305
O_ O_ 0.877758 0.671127 0.607035 -0.67305
O_ O_ 0.878218 0.666185 0.859224 -0.67305
O_ O_ 0.879854 0.91873 0.6056 -0.67305
O_ O_ 0.881181 0.91627 0.857786 -0.67305
