_cell_length_a 29.694
_cell_length_b 33.115999649565914
_cell_length_c 36.56099982787148
_cell_angle_alpha 89.96499964330334
_cell_angle_beta 89.97100028855473
_cell_angle_gamma 91.5920001624711
_symmetry_space_group_name_H-M         'P 1'
_symmetry_Int_Tables_number            1
loop_
_symmetry_equiv_pos_as_xyz
   'x, y, z'
                         
loop_
_atom_site_label
_atom_site_type_symbol
_atom_site_fract_x 
_atom_site_fract_y
_atom_site_fract_z
_atom_site_charge
Al Al 0.118929 0.237908 0.0880927 2.01273
Al Al 0.118366 0.480467 0.0834164 2.01273
Al Al 0.282465 0.233996 0.0819729 2.01273
Al Al 0.284728 0.483581 0.0864719 2.01273
Al Al 0.0483114 0.0125714 0.249826 2.01273
Al Al 0.0486482 0.265763 0.250713 2.01273
Al Al 0.210636 0.0101733 0.253473 2.01273
Al Al 0.215267 0.261321 0.245502 2.01273
Al Al 0.0835407 0.500837 0.160802 1.93658
Al Al 0.0813975 0.24726 0.168617 1.93658
Al Al 0.249125 0.493355 0.168043 1.93658
Al Al 0.250418 0.253171 0.159549 1.93658
Al Al 0.0808231 0.992986 0.995667 1.93658
Al Al 0.0847535 0.249478 0.00212953 1.93658
Al Al 0.250639 0.00170091 0.336476 1.93658
Al Al 0.251952 0.248581 0.330702 1.93658
P_ P_ 0.163574 0.20335 0.145088 1.70002
P_ P_ 0.161743 0.449437 0.149749 1.70002
P_ P_ 0.326204 0.203556 0.146527 1.70002
P_ P_ 0.335154 0.455695 0.148097 1.70002
P_ P_ 0.00436403 0.0455242 0.314452 1.70002
P_ P_ 1.00044 0.296096 0.31182 1.70002
P_ P_ 0.168529 0.0461069 0.317305 1.70002
P_ P_ 0.172171 0.295274 0.309192 1.70002
P_ P_ 7.18222e-05 0.0442685 0.186201 1.70002
P_ P_ 0.00204191 0.295268 0.184434 1.70002
P_ P_ 0.17177 0.0461401 0.186511 1.70002
P_ P_ 0.16631 0.293134 0.185004 1.70002
P_ P_ 0.160142 0.205639 0.021597 1.70002
P_ P_ 0.163006 0.453033 0.0193147 1.70002
P_ P_ 0.325524 0.204218 0.0178958 1.70002
P_ P_ 0.329706 0.453606 0.0176824 1.70002
H_ H_ 0.173528 0.143692 0.12499 0.16322
H_ H_ 0.204524 0.391911 0.152305 0.16322
H_ H_ 0.339361 0.139103 0.128828 0.16322
H_ H_ 0.370697 0.401402 0.132827 0.16322
H_ H_ 0.121288 0.140548 0.144265 0.16322
H_ H_ 0.157396 0.382986 0.127318 0.16322
H_ H_ 0.286908 0.144441 0.152929 0.16322
H_ H_ 0.31031 0.38898 0.131706 0.16322
H_ H_ 0.973351 0.108272 -0.033233999999999986 0.16322
H_ H_ 0.971206 0.356197 0.963084 0.16322
H_ H_ 0.150679 0.0920504 1.0291207 0.16322
H_ H_ 0.149776 0.364069 -0.037023999999999946 0.16322
H_ H_ 1.0332170999999999 0.112172 0.971223 0.16322
H_ H_ 0.0325041 0.355773 0.966628 0.16322
H_ H_ 0.124141 0.107274 0.991345 0.16322
H_ H_ 0.206557 0.359474 0.974428 0.16322
H_ H_ 0.97397 0.106796 0.204295 0.16322
H_ H_ 0.982695 0.359308 0.204742 0.16322
H_ H_ 0.160487 0.110932 0.203955 0.16322
H_ H_ 0.124872 0.349366 0.18528 0.16322
H_ H_ 0.0357116 0.108426 0.194085 0.16322
H_ H_ 0.0355614 0.359619 0.193175 0.16322
H_ H_ 0.211319 0.108076 0.179367 0.16322
H_ H_ 0.173992 0.355217 0.209731 0.16322
H_ H_ 0.209318 0.161402 0.324943 0.16322
H_ H_ 0.192265 0.393146 0.367274 0.16322
H_ H_ 0.368952 0.145988 0.36532 0.16322
H_ H_ 0.352392 0.389559 0.367111 0.16322
H_ H_ 0.190681 0.139795 0.367428 0.16322
H_ H_ 0.134361 0.386921 0.365419 0.16322
H_ H_ 0.313152 0.133302 0.361733 0.16322
H_ H_ 0.292962 0.393021 0.357306 0.16322
C_ C_ 0.158181 0.14564 0.149619 -0.4819
C_ C_ 0.16879 0.391605 0.155039 -0.4819
C_ C_ 0.323013 0.146763 0.15606 -0.4819
C_ C_ 0.338009 0.398964 0.147905 -0.4819
C_ C_ 1.00110262 0.105079 0.986467 -0.4819
C_ C_ -0.0007869999999999822 0.353269 0.982558 -0.4819
C_ C_ 0.158358 0.102865 1.00071 -0.4819
C_ C_ 0.169792 0.35562 0.985098 -0.4819
C_ C_ 0.000214007 0.102429 0.183195 -0.4819
C_ C_ 1.00272416 0.354551 0.180249 -0.4819
C_ C_ 0.173406 0.104587 0.17511 -0.4819
C_ C_ 0.161184 0.350814 0.181399 -0.4819
C_ C_ 0.178226 0.149841 0.339516 -0.4819
C_ C_ 0.163726 0.395014 0.347947 -0.4819
C_ C_ 0.340225 0.146107 0.345507 -0.4819
C_ C_ 0.327612 0.394494 0.3448 -0.4819
O_ O_ 0.118707 0.213939 0.164019 -0.96514
O_ O_ 0.121937 0.469635 0.169898 -0.96514
O_ O_ 0.286535 0.218984 0.169951 -0.96514
O_ O_ 0.289378 0.463576 0.165731 -0.96514
O_ O_ 0.0357171 0.226604 0.145914 -0.96514
O_ O_ 0.0409827 0.468799 0.171458 -0.96514
O_ O_ 0.20691 0.221425 0.164934 -0.96514
O_ O_ 0.205746 0.472692 0.143057 -0.96514
O_ O_ 0.165788 0.223543 0.107896 -0.96514
O_ O_ 0.138184 0.446947 0.112223 -0.96514
O_ O_ 0.304006 0.198156 0.10816 -0.96514
O_ O_ 0.333008 0.476516 0.11051 -0.96514
O_ O_ 0.0458338 0.0293826 1.0012063 -0.96514
O_ O_ 0.0436927 0.281689 0.0022800000000000598 -0.96514
O_ O_ 0.210004 0.0325291 0.9999202861 -0.96514
O_ O_ 0.211726 0.283927 -0.0007460000000000244 -0.96514
O_ O_ 0.123687 0.0240937 0.00274142 -0.96514
O_ O_ 0.128941 0.26956 0.9799 -0.96514
O_ O_ 0.293137 0.0227806 0.978573 -0.96514
O_ O_ 0.294211 0.280773 0.00480664 -0.96514
O_ O_ 0.0241186 0.0475075 0.275448 -0.96514
O_ O_ 0.00330898 0.278564 0.27368 -0.96514
O_ O_ 0.170296 0.034642 0.275518 -0.96514
O_ O_ 0.191506 0.298481 0.26981 -0.96514
O_ O_ 0.0424322 0.0333355 0.165379 -0.96514
O_ O_ 0.0370067 0.272921 0.160246 -0.96514
O_ O_ 0.20945 0.0282681 0.16448 -0.96514
O_ O_ 0.207441 0.282342 0.163803 -0.96514
O_ O_ 0.126055 0.0240905 0.189275 -0.96514
O_ O_ 0.121487 0.279362 0.164264 -0.96514
O_ O_ 0.292447 0.0279386 0.165392 -0.96514
O_ O_ 0.291116 0.27875 0.185542 -0.96514
O_ O_ 0.00346753 0.0263364 0.223711 -0.96514
O_ O_ 0.02547 0.296846 0.221033 -0.96514
O_ O_ 0.195021 0.0452424 0.224724 -0.96514
O_ O_ 0.168049 0.276045 0.223813 -0.96514
O_ O_ 0.124028 0.221186 0.33046 -0.96514
O_ O_ 0.124651 0.466223 0.3323 -0.96514
O_ O_ 0.283874 0.211337 0.337478 -0.96514
O_ O_ 0.288292 0.466591 0.329208 -0.96514
O_ O_ 0.0416125 0.223289 0.330424 -0.96514
O_ O_ 0.0399153 0.473311 0.352192 -0.96514
O_ O_ 0.209291 0.229037 0.355602 -0.96514
O_ O_ 0.2094 0.4686 0.332327 -0.96514
O_ O_ 0.137697 0.202414 0.0599531 -0.96514
O_ O_ 0.163519 0.470925 0.0567811 -0.96514
O_ O_ 0.325726 0.220613 0.0574343 -0.96514
O_ O_ 0.306179 0.452789 0.0554027 -0.96514
F_ F_ 0.0809565 0.233131 0.125186 -0.6238
F_ F_ 0.108767 0.51435 0.121246 -0.6238
F_ F_ 0.27846 0.268006 0.120618 -0.6238
F_ F_ 0.248351 0.48098 0.123841 -0.6238
F_ F_ 0.0602381 0.984155 0.29118 -0.6238
F_ F_ 0.0824731 0.275729 0.289548 -0.6238
F_ F_ 0.248282 0.0146472 0.291195 -0.6238
F_ F_ 0.233258 0.236128 0.287835 -0.6238
F_ F_ 0.084796 0.0163456 0.211309 -0.6238
F_ F_ 0.0648262 0.234658 0.211635 -0.6238
F_ F_ 0.226983 0.984628 0.213774 -0.6238
F_ F_ 0.246477 0.270101 0.205156 -0.6238
F_ F_ 0.0995536 0.262416 0.0466888 -0.6238
F_ F_ 0.0815604 0.481788 0.0461506 -0.6238
F_ F_ 0.245102 0.231495 0.0448835 -0.6238
F_ F_ 0.274811 0.513296 0.0457834 -0.6238
Al Al 0.119116 0.233927 0.416666 2.01273
Al Al 0.116603 0.481901 0.410752 2.01273
Al Al 0.287478 0.233818 0.414177 2.01273
Al Al 0.287289 0.491719 0.418281 2.01273
Al Al 0.0468564 0.0150985 0.582119 2.01273
Al Al 0.0514929 0.262808 0.583013 2.01273
Al Al 0.214825 0.0187647 0.590495 2.01273
Al Al 0.220029 0.267006 0.579721 2.01273
Al Al 0.0873059 0.501593 0.493966 1.93658
Al Al 0.0818128 0.24602 0.502832 1.93658
Al Al 0.250587 0.499657 0.502981 1.93658
Al Al 0.255036 0.255918 0.494055 1.93658
Al Al 0.0800522 0.995137 0.333324 1.93658
Al Al 0.08491 0.255022 0.333962 1.93658
Al Al 0.251103 0.00381275 0.671547 1.93658
Al Al 0.24986 0.247919 0.664235 1.93658
P_ P_ 0.168627 0.205965 0.480105 1.70002
P_ P_ 0.164159 0.452682 0.477011 1.70002
P_ P_ 0.325741 0.201954 0.479535 1.70002
P_ P_ 0.331779 0.454595 0.480818 1.70002
P_ P_ 0.00559026 0.0482254 0.648962 1.70002
P_ P_ -0.000280441 0.294452 0.644608 1.70002
P_ P_ 0.168478 0.0499732 0.652157 1.70002
P_ P_ 0.173516 0.294878 0.644191 1.70002
P_ P_ 0.00261051 0.0444214 0.522841 1.70002
P_ P_ 0.00525223 0.294953 0.521464 1.70002
P_ P_ 0.168646 0.0476612 0.521689 1.70002
P_ P_ 0.169549 0.29702 0.517418 1.70002
P_ P_ 0.163061 0.203766 0.353246 1.70002
P_ P_ 0.166106 0.453077 0.352648 1.70002
P_ P_ 0.331327 0.202396 0.349522 1.70002
P_ P_ 0.328287 0.453081 0.351032 1.70002
H_ H_ 0.207182 0.150358 0.47608 0.16322
H_ H_ 0.194031 0.393199 0.472711 0.16322
H_ H_ 0.347234 0.140116 0.463631 0.16322
H_ H_ 0.369591 0.399826 0.469128 0.16322
H_ H_ 0.150719 0.141295 0.46067 0.16322
H_ H_ 0.137829 0.384251 0.468515 0.16322
H_ H_ 0.293922 0.133502 0.479944 0.16322
H_ H_ 0.31136 0.389942 0.459924 0.16322
H_ H_ 0.967967 0.107309 0.302552 0.16322
H_ H_ 0.985616 0.357114 0.285321 0.16322
H_ H_ 0.12803 0.101917 0.326507 0.16322
H_ H_ 0.156753 0.359262 0.293985 0.16322
H_ H_ 0.0283852 0.113003 0.30085 0.16322
H_ H_ 0.037118 0.35502 0.30143 0.16322
H_ H_ 0.159551 0.10755 0.290668 0.16322
H_ H_ 0.209608 0.352593 0.316211 0.16322
H_ H_ 0.954205 0.0983822 0.521661 0.16322
H_ H_ 0.971148 0.355832 0.527926 0.16322
H_ H_ 0.125042 0.103213 0.516343 0.16322
H_ H_ 0.132684 0.353089 0.530283 0.16322
H_ H_ 0.00881565 0.108304 0.543558 0.16322
H_ H_ 0.0310253 0.363346 0.528778 0.16322
H_ H_ 0.178267 0.117639 0.536982 0.16322
H_ H_ 0.190289 0.360568 0.535015 0.16322
H_ H_ 0.204373 0.156971 0.678322 0.16322
H_ H_ 0.210125 0.3971 0.674281 0.16322
H_ H_ 0.374016 0.148331 0.694651 0.16322
H_ H_ 0.36902 0.39681 0.690289 0.16322
H_ H_ 0.164476 0.139301 0.706593 0.16322
H_ H_ 0.17271 0.384086 0.708279 0.16322
H_ H_ 0.314911 0.137948 0.703736 0.16322
H_ H_ 0.312659 0.385157 0.697767 0.16322
C_ C_ 0.173331 0.147883 0.485649 -0.4819
C_ C_ 0.163675 0.395222 0.488928 -0.4819
C_ C_ 0.327923 0.143933 0.488583 -0.4819
C_ C_ 0.336054 0.396131 0.481491 -0.4819
C_ C_ -0.00185241 0.103805 0.320276 -0.4819
C_ C_ 0.00226245 0.355322 0.312449 -0.4819
C_ C_ 0.163346 0.105161 0.32049 -0.4819
C_ C_ 0.172984 0.35332 0.319911 -0.4819
C_ C_ -0.008198999999999956 0.100993 0.517018 -0.4819
C_ C_ 0.0025800000000000267 0.353402 0.510255 -0.4819
C_ C_ 0.163768 0.105457 0.511253 -0.4819
C_ C_ 0.164115 0.353203 0.515163 -0.4819
C_ C_ 0.167288 0.149969 0.679121 -0.4819
C_ C_ 0.174252 0.391862 0.680676 -0.4819
C_ C_ 0.339525 0.145066 0.681447 -0.4819
C_ C_ 0.336312 0.394614 0.676955 -0.4819
O_ O_ 0.122111 0.214419 0.49862 -0.96514
O_ O_ 0.123329 0.469057 0.49683 -0.96514
O_ O_ 0.289798 0.220786 0.503243 -0.96514
O_ O_ 0.290632 0.466684 0.503523 -0.96514
O_ O_ 0.0405218 0.226175 0.477673 -0.96514
O_ O_ 0.0434926 0.46934 0.499823 -0.96514
O_ O_ 0.212774 0.22447 0.498522 -0.96514
O_ O_ 0.210702 0.475966 0.477776 -0.96514
O_ O_ 0.166409 0.223793 0.440314 -0.96514
O_ O_ 0.143005 0.450786 0.439354 -0.96514
O_ O_ 0.30303 0.196985 0.442308 -0.96514
O_ O_ 0.32892 0.470965 0.441034 -0.96514
O_ O_ 0.0470289 0.032752 0.334535 -0.96514
O_ O_ 0.0461303 0.286849 0.333073 -0.96514
O_ O_ 0.21545 0.038208 0.332686 -0.96514
O_ O_ 0.212852 0.279158 0.330023 -0.96514
O_ O_ 0.125578 0.026871 0.336002 -0.96514
O_ O_ 0.125252 0.273799 0.308562 -0.96514
O_ O_ 0.29431 0.0200006 0.31063 -0.96514
O_ O_ 0.292184 0.280438 0.33546 -0.96514
O_ O_ 0.0219565 0.049807 0.609513 -0.96514
O_ O_ 0.00589911 0.275758 0.607762 -0.96514
O_ O_ 0.167961 0.0330148 0.61346 -0.96514
O_ O_ 0.203534 0.30094 0.609071 -0.96514
O_ O_ 0.0488756 0.0382545 0.505185 -0.96514
O_ O_ 0.0424412 0.279181 0.49707 -0.96514
O_ O_ 0.206213 0.0290301 0.496431 -0.96514
O_ O_ 0.214415 0.285267 0.498377 -0.96514
O_ O_ 0.123457 0.0236896 0.525972 -0.96514
O_ O_ 0.123925 0.279954 0.500368 -0.96514
O_ O_ 0.290996 0.0301906 0.499387 -0.96514
O_ O_ 0.292794 0.279776 0.516541 -0.96514
O_ O_ 0.0013700000000000934 0.025863 0.560596 -0.96514
O_ O_ 0.0311577 0.299541 0.558128 -0.96514
O_ O_ 0.193048 0.0499507 0.558178 -0.96514
O_ O_ 0.17209 0.279358 0.555648 -0.96514
O_ O_ 0.122812 0.221441 0.65967 -0.96514
O_ O_ 0.12154 0.46374 0.666835 -0.96514
O_ O_ 0.283806 0.212183 0.670148 -0.96514
O_ O_ 0.28578 0.462752 0.65972 -0.96514
O_ O_ 0.0398009 0.218435 0.664809 -0.96514
O_ O_ 0.037618 0.476928 0.686145 -0.96514
O_ O_ 0.206704 0.229388 0.689388 -0.96514
O_ O_ 0.20734 0.468206 0.664148 -0.96514
O_ O_ 0.143163 0.199686 0.392553 -0.96514
O_ O_ 0.165097 0.472189 0.391449 -0.96514
O_ O_ 0.333592 0.217561 0.388641 -0.96514
O_ O_ 0.311659 0.458191 0.390251 -0.96514
F_ F_ 0.0855214 0.234021 0.456509 -0.6238
F_ F_ 0.105412 0.512453 0.450584 -0.6238
F_ F_ 0.275898 0.266011 0.452517 -0.6238
F_ F_ 0.253577 0.488894 0.458005 -0.6238
F_ F_ 0.0600003 0.98961 0.622962 -0.6238
F_ F_ 0.084528 0.272097 0.62525 -0.6238
F_ F_ 0.249436 0.0272122 0.629407 -0.6238
F_ F_ 0.234859 0.239771 0.620566 -0.6238
F_ F_ 0.081708 0.0170677 0.542959 -0.6238
F_ F_ 0.0609529 0.23305 0.545673 -0.6238
F_ F_ 0.231558 0.99388 0.550278 -0.6238
F_ F_ 0.250389 0.268801 0.53994 -0.6238
F_ F_ 0.10607 0.260436 0.375969 -0.6238
F_ F_ 0.0830459 0.475674 0.371892 -0.6238
F_ F_ 0.249656 0.236313 0.376915 -0.6238
F_ F_ 0.270025 0.510257 0.37812 -0.6238
Al Al 0.11976 0.236156 0.756854 2.01273
Al Al 0.119357 0.482418 0.747311 2.01273
Al Al 0.287713 0.236235 0.747252 2.01273
Al Al 0.283962 0.484614 0.753407 2.01273
Al Al 0.0484927 0.0143863 0.914483 2.01273
Al Al 0.0510172 0.26104 0.920412 2.01273
Al Al 0.215896 0.019797 0.922575 2.01273
Al Al 0.216716 0.265746 0.912413 2.01273
Al Al 0.0829887 0.498839 0.830894 1.93658
Al Al 0.0782307 0.243845 0.839908 1.93658
Al Al 0.249708 0.497571 0.837238 1.93658
Al Al 0.246942 0.252479 0.831306 1.93658
Al Al 0.0817954 1.00096 0.665723 1.93658
Al Al 0.0854205 0.251584 0.670142 1.93658
Al Al 0.25094 1.0013808 0.00470847 1.93658
Al Al 0.24899 0.251507 1.001 1.93658
P_ P_ 0.16399 0.202657 0.817279 1.70002
P_ P_ 0.163433 0.452213 0.812638 1.70002
P_ P_ 0.324796 0.204745 0.815816 1.70002
P_ P_ 0.333336 0.454614 0.817025 1.70002
P_ P_ 0.00472965 0.0472814 0.979877 1.70002
P_ P_ 0.00237396 0.296332 0.98038 1.70002
P_ P_ 0.166256 0.0471039 0.984598 1.70002
P_ P_ 0.169445 0.297823 0.978286 1.70002
P_ P_ 1.00268031 0.046285 0.852721 1.70002
P_ P_ 0.00767149 0.2964 0.853727 1.70002
P_ P_ 0.171958 0.0474423 0.855078 1.70002
P_ P_ 0.166462 0.295513 0.852797 1.70002
P_ P_ 0.160029 0.206521 0.686125 1.70002
P_ P_ 0.164778 0.449947 0.684714 1.70002
P_ P_ 0.330388 0.202696 0.68574 1.70002
P_ P_ 0.326008 0.451396 0.683442 1.70002
H_ H_ 0.212235 0.148738 0.826969 0.16322
H_ H_ 0.186237 0.390149 0.797881 0.16322
H_ H_ 0.346825 0.143499 0.794761 0.16322
H_ H_ 0.359343 0.389684 0.798296 0.16322
H_ H_ 0.172497 0.139972 0.794005 0.16322
H_ H_ 0.132105 0.385562 0.803742 0.16322
H_ H_ 0.29213 0.141254 0.815809 0.16322
H_ H_ 0.300703 0.389584 0.805855 0.16322
H_ H_ 0.973178 0.104947 0.637035 0.16322
H_ H_ 0.959624 0.355485 0.633469 0.16322
H_ H_ 0.12317 0.107253 0.649959 0.16322
H_ H_ 0.124696 0.344218 0.662154 0.16322
H_ H_ 0.0343603 0.115381 0.645629 0.16322
H_ H_ 0.0241565 0.358843 0.634706 0.16322
H_ H_ 0.178282 0.113418 0.630565 0.16322
H_ H_ 0.163036 0.362064 0.630551 0.16322
H_ H_ 0.976656 0.108568 0.877825 0.16322
H_ H_ 0.985396 0.359466 0.869055 0.16322
H_ H_ 0.126315 0.0987684 0.842904 0.16322
H_ H_ 0.148236 0.35947 0.872435 0.16322
H_ H_ 0.0335666 0.109284 0.866769 0.16322
H_ H_ 0.038843 0.356359 0.848041 0.16322
H_ H_ 0.163518 0.112893 0.878461 0.16322
H_ H_ 0.206571 0.361548 0.858353 0.16322
H_ H_ 0.173679 0.166818 -0.02302000000000004 0.16322
H_ H_ 0.189485 0.388824 1.0361893 0.16322
H_ H_ 0.368586 0.14734 0.0204194 0.16322
H_ H_ 0.344832 0.394044 0.0337122 0.16322
H_ H_ 0.209622 0.15147 0.00543464 0.16322
H_ H_ 0.133513 0.393198 0.0276221 0.16322
H_ H_ 0.3155 0.140083 0.0366435 0.16322
H_ H_ 0.291692 0.392015 0.0192718 0.16322
C_ C_ 0.174599 0.14673 0.823406 -0.4819
C_ C_ 0.162365 0.393517 0.81965 -0.4819
C_ C_ 0.329173 0.147123 0.821326 -0.4819
C_ C_ 0.333298 0.396118 0.819672 -0.4819
C_ C_ 0.00078363 0.106337 0.658799 -0.4819
C_ C_ -0.00776577 0.35314 0.64949 -0.4819
C_ C_ 0.159937 0.107974 0.657142 -0.4819
C_ C_ 0.160328 0.34907 0.658864 -0.4819
C_ C_ 1.000454419 0.104335 0.854167 -0.4819
C_ C_ 0.00292993 0.353784 0.841989 -0.4819
C_ C_ 0.162822 0.105372 0.846923 -0.4819
C_ C_ 0.171564 0.355285 0.848667 -0.4819
C_ C_ 0.172729 0.152959 0.00385073 -0.4819
C_ C_ 0.165905 0.395833 0.0139616 -0.4819
C_ C_ 0.332123 0.147527 0.0127509 -0.4819
C_ C_ 0.326219 0.396224 0.00824609 -0.4819
O_ O_ 0.122171 0.21725 0.837522 -0.96514
O_ O_ 0.126073 0.472581 0.832302 -0.96514
O_ O_ 0.285343 0.220696 0.838891 -0.96514
O_ O_ 0.292526 0.468867 0.839057 -0.96514
O_ O_ 0.0400371 0.223259 0.812849 -0.96514
O_ O_ 0.0433109 0.46463 0.837034 -0.96514
O_ O_ 0.204231 0.22195 0.838927 -0.96514
O_ O_ 0.210308 0.475833 0.809453 -0.96514
O_ O_ 0.163313 0.216949 0.777393 -0.96514
O_ O_ 0.140833 0.448945 0.775027 -0.96514
O_ O_ 0.304494 0.203779 0.777584 -0.96514
O_ O_ 0.332449 0.471226 0.777434 -0.96514
O_ O_ 0.0441782 0.034378 0.672557 -0.96514
O_ O_ 0.0455183 0.284984 0.663896 -0.96514
O_ O_ 0.215089 0.039801 0.669117 -0.96514
O_ O_ 0.209506 0.278679 0.669235 -0.96514
O_ O_ 0.123966 0.035192 0.673536 -0.96514
O_ O_ 0.128263 0.270998 0.643579 -0.96514
O_ O_ 0.29251 0.0219891 0.646249 -0.96514
O_ O_ 0.294192 0.278942 0.667424 -0.96514
O_ O_ 0.0282371 0.0497012 0.942145 -0.96514
O_ O_ 0.00504583 0.279286 0.941892 -0.96514
O_ O_ 0.167356 0.0305671 0.944197 -0.96514
O_ O_ 0.189612 0.296442 0.93877 -0.96514
O_ O_ 0.0469765 0.0344012 0.834848 -0.96514
O_ O_ 0.0459684 0.279149 0.832707 -0.96514
O_ O_ 0.211698 0.0321823 0.832304 -0.96514
O_ O_ 0.208836 0.283152 0.831366 -0.96514
O_ O_ 0.125968 0.0206422 0.854927 -0.96514
O_ O_ 0.121061 0.27677 0.834906 -0.96514
O_ O_ 0.292916 0.0311938 0.831225 -0.96514
O_ O_ 0.288477 0.278489 0.853369 -0.96514
O_ O_ 0.00236229 0.0249635 0.890341 -0.96514
O_ O_ 0.0273701 0.295781 0.892516 -0.96514
O_ O_ 0.19464 0.051915 0.892491 -0.96514
O_ O_ 0.168593 0.282861 0.893501 -0.96514
O_ O_ 0.123914 0.22075 -0.003546999999999967 -0.96514
O_ O_ 0.116187 0.462719 1.00192755 -0.96514
O_ O_ 0.278975 0.212313 1.00198269 -0.96514
O_ O_ 0.290141 0.471919 0.996108 -0.96514
O_ O_ 0.0396339 0.218782 -0.0021050000000000235 -0.96514
O_ O_ 0.0398579 0.475688 0.0228894 -0.96514
O_ O_ 0.20586 0.231401 0.0245403 -0.96514
O_ O_ 0.20615 0.469578 0.99883899 -0.96514
O_ O_ 0.139947 0.203497 0.725665 -0.96514
O_ O_ 0.164323 0.466428 0.723964 -0.96514
O_ O_ 0.332889 0.221182 0.724976 -0.96514
O_ O_ 0.307375 0.451216 0.723846 -0.96514
F_ F_ 0.0830034 0.227662 0.794292 -0.6238
F_ F_ 0.0996315 0.510814 0.785816 -0.6238
F_ F_ 0.26413 0.258022 0.788063 -0.6238
F_ F_ 0.250167 0.482927 0.792182 -0.6238
F_ F_ 0.0578275 0.980993 0.953421 -0.6238
F_ F_ 0.082786 0.273629 0.959241 -0.6238
F_ F_ 0.249382 0.0252595 0.962036 -0.6238
F_ F_ 0.232444 0.241093 0.954649 -0.6238
F_ F_ 0.0827878 0.021353 0.874497 -0.6238
F_ F_ 0.0573071 0.234534 0.881279 -0.6238
F_ F_ 0.233255 0.993523 0.88433 -0.6238
F_ F_ 0.24968 0.273364 0.874576 -0.6238
F_ F_ 0.100944 0.26309 0.714937 -0.6238
F_ F_ 0.0849882 0.474909 0.708229 -0.6238
F_ F_ 0.248336 0.231252 0.709468 -0.6238
F_ F_ 0.267142 0.509272 0.711311 -0.6238
Al Al 0.116374 0.730946 0.081243 2.01273
Al Al 0.116646 0.982171 0.0786662 2.01273
Al Al 0.280206 0.735277 0.0790003 2.01273
Al Al 0.285851 0.981491 0.0840833 2.01273
Al Al 0.0494653 0.51835 0.247535 2.01273
Al Al 0.0513053 0.763203 0.25356 2.01273
Al Al 0.216633 0.514459 0.250201 2.01273
Al Al 0.217252 0.759991 0.245033 2.01273
Al Al 0.0845653 0.00387000000000004 0.164708 1.93658
Al Al 0.0836782 0.746765 0.165848 1.93658
Al Al 0.247287 0.995055 0.169746 1.93658
Al Al 0.251808 0.752422 0.16034 1.93658
Al Al 0.0820906 0.498016 0.999715 1.93658
Al Al 0.0837421 0.749095 -0.000796157 1.93658
Al Al 0.251044 0.500977 0.335751 1.93658
Al Al 0.249101 0.74938 0.330564 1.93658
P_ P_ 0.164626 0.701874 0.144053 1.70002
P_ P_ 0.160748 0.952734 0.144828 1.70002
P_ P_ 0.326977 0.701622 0.1444 1.70002
P_ P_ 0.330532 0.952368 0.147025 1.70002
P_ P_ 0.0056138 0.546252 0.31451 1.70002
P_ P_ 0.00563903 0.795616 0.316725 1.70002
P_ P_ 0.167041 0.544871 0.312768 1.70002
P_ P_ 0.17291 0.79543 0.311217 1.70002
P_ P_ 1.00222906 0.548325 0.185991 1.70002
P_ P_ 0.00478349 0.79488 0.187046 1.70002
P_ P_ 0.170719 0.546464 0.184674 1.70002
P_ P_ 0.169489 0.795385 0.181725 1.70002
P_ P_ 0.163786 0.70139 0.0159388 1.70002
P_ P_ 0.16338 0.951325 0.020034 1.70002
P_ P_ 0.328945 0.702829 0.0186229 1.70002
P_ P_ 0.326043 0.952737 0.0160823 1.70002
H_ H_ 0.201113 0.644384 0.137267 0.16322
H_ H_ 0.191557 0.895068 0.129817 0.16322
H_ H_ 0.365358 0.638742 0.144354 0.16322
H_ H_ 0.36365 0.889966 0.131347 0.16322
H_ H_ 0.14045 0.641082 0.125935 0.16322
H_ H_ 0.132039 0.88588 0.141406 0.16322
H_ H_ 0.307049 0.631865 0.132157 0.16322
H_ H_ 0.300766 0.88671 0.131666 0.16322
H_ H_ 0.980495 0.604885 0.962474 0.16322
H_ H_ 0.974075 0.858695 -0.03677600000000003 0.16322
H_ H_ 0.137991 0.610645 0.961186 0.16322
H_ H_ 0.139104 0.856579 0.976206 0.16322
H_ H_ 0.0384567 0.610093 0.974418 0.16322
H_ H_ 1.0323201 0.859703 0.968067 0.16322
H_ H_ 0.193068 0.604265 0.958927 0.16322
H_ H_ 0.195638 0.861966 0.970297 0.16322
H_ H_ 0.969303 0.606079 0.200114 0.16322
H_ H_ 0.978005 0.856499 0.200949 0.16322
H_ H_ 0.136985 0.605476 0.193449 0.16322
H_ H_ 0.150673 0.859011 0.202884 0.16322
H_ H_ 0.0287721 0.612356 0.202967 0.16322
H_ H_ 0.0354123 0.854622 0.187217 0.16322
H_ H_ 0.197607 0.613278 0.194307 0.16322
H_ H_ 0.20968 0.854801 0.187179 0.16322
H_ H_ 0.183219 0.640525 0.370531 0.16322
H_ H_ 0.187081 0.888845 0.368937 0.16322
H_ H_ 0.350582 0.638998 0.368014 0.16322
H_ H_ 0.365522 0.896488 0.367033 0.16322
H_ H_ 0.127735 0.635761 0.355724 0.16322
H_ H_ 0.126682 0.890207 0.350947 0.16322
H_ H_ 0.291264 0.645137 0.356598 0.16322
H_ H_ 0.299415 0.896835 0.355489 0.16322
C_ C_ 0.165876 0.646092 0.149375 -0.4819
C_ C_ 0.16484 0.894458 0.154828 -0.4819
C_ C_ 0.329803 0.643379 0.152768 -0.4819
C_ C_ 0.332947 0.892919 0.149114 -0.4819
C_ C_ 0.0033884 0.604149 0.985738 -0.4819
C_ C_ 1.00089 0.855898 0.983389 -0.4819
C_ C_ 0.166468 0.604668 0.979139 -0.4819
C_ C_ 0.170051 0.853835 0.991606 -0.4819
C_ C_ 1.00064 0.606667 0.183531 -0.4819
C_ C_ 0.000166835 0.850955 0.176361 -0.4819
C_ C_ 0.168342 0.603686 0.177173 -0.4819
C_ C_ 0.17425 0.852753 0.179306 -0.4819
C_ C_ 0.161855 0.642345 0.345009 -0.4819
C_ C_ 0.163654 0.892554 0.344893 -0.4819
C_ C_ 0.32538 0.645551 0.346884 -0.4819
C_ C_ 0.336258 0.899403 0.346114 -0.4819
O_ O_ 0.11868 0.711576 0.160526 -0.96514
O_ O_ 0.12045 0.968117 0.167156 -0.96514
O_ O_ 0.290133 0.722012 0.167427 -0.96514
O_ O_ 0.286876 0.963064 0.166875 -0.96514
O_ O_ 0.0391816 0.726596 0.145601 -0.96514
O_ O_ 0.0458063 0.966948 0.166241 -0.96514
O_ O_ 0.209899 0.717912 0.16133 -0.96514
O_ O_ 0.206906 0.975989 0.14231 -0.96514
O_ O_ 0.163415 0.721805 0.106202 -0.96514
O_ O_ 0.140401 0.949328 0.105671 -0.96514
O_ O_ 0.306717 0.699868 0.105482 -0.96514
O_ O_ 0.329778 0.968392 0.106918 -0.96514
O_ O_ 0.0415429 0.529187 0.00499794 -0.96514
O_ O_ 0.043202 0.783491 1.00092 -0.96514
O_ O_ 0.214339 0.539265 0.997588 -0.96514
O_ O_ 0.207438 0.773648 -0.000862053 -0.96514
O_ O_ 0.126578 0.529262 0.999645877 -0.96514
O_ O_ 0.125081 0.77212 0.975598 -0.96514
O_ O_ 0.291855 0.520523 0.979218 -0.96514
O_ O_ 0.290094 0.783443 -0.003025999999999973 -0.96514
O_ O_ 0.0226212 0.549586 0.275072 -0.96514
O_ O_ 0.00551499 0.778176 0.278198 -0.96514
O_ O_ 0.170849 0.526881 0.273995 -0.96514
O_ O_ 0.196918 0.79292 0.273125 -0.96514
O_ O_ 0.0470708 0.535443 0.169034 -0.96514
O_ O_ 0.0431268 0.775638 0.163287 -0.96514
O_ O_ 0.213738 0.529073 0.165789 -0.96514
O_ O_ 0.212109 0.784515 0.160758 -0.96514
O_ O_ 0.125225 0.520619 0.185156 -0.96514
O_ O_ 0.126864 0.778898 0.16337 -0.96514
O_ O_ 0.288027 0.526816 0.171805 -0.96514
O_ O_ 0.294862 0.773047 0.183789 -0.96514
O_ O_ 0.00226332 0.530067 0.224311 -0.96514
O_ O_ 0.023 0.796331 0.22639 -0.96514
O_ O_ 0.189488 0.546908 0.224565 -0.96514
O_ O_ 0.171659 0.775994 0.22084 -0.96514
O_ O_ 0.126595 0.718688 0.327241 -0.96514
O_ O_ 0.121529 0.964495 0.330924 -0.96514
O_ O_ 0.289426 0.719144 0.33068 -0.96514
O_ O_ 0.296258 0.976447 0.333006 -0.96514
O_ O_ 0.0464182 0.716752 0.330021 -0.96514
O_ O_ 0.0378484 0.974585 0.358279 -0.96514
O_ O_ 0.210349 0.722739 0.353618 -0.96514
O_ O_ 0.208519 0.967503 0.33147 -0.96514
O_ O_ 0.137882 0.697456 0.05274 -0.96514
O_ O_ 0.160717 0.973951 0.0562495 -0.96514
O_ O_ 0.325783 0.722423 0.057426 -0.96514
O_ O_ 0.304676 0.947991 0.0540935 -0.96514
F_ F_ 0.082352 0.737579 0.119403 -0.6238
F_ F_ 0.104288 0.0104634 0.121602 -0.6238
F_ F_ 0.273937 0.764073 0.118067 -0.6238
F_ F_ 0.247353 0.979789 0.12289 -0.6238
F_ F_ 0.0628259 0.482773 0.284375 -0.6238
F_ F_ 0.0834776 0.768893 0.29122 -0.6238
F_ F_ 0.249038 0.517707 0.290368 -0.6238
F_ F_ 0.227251 0.738929 0.288231 -0.6238
F_ F_ 0.0849515 0.518707 0.206593 -0.6238
F_ F_ 0.0692541 0.738456 0.210182 -0.6238
F_ F_ 0.228088 0.482272 0.210255 -0.6238
F_ F_ 0.250372 0.767664 0.204795 -0.6238
F_ F_ 0.105905 0.75968 0.0405123 -0.6238
F_ F_ 0.0792633 0.97497 0.040783 -0.6238
F_ F_ 0.250743 0.736398 0.0360781 -0.6238
F_ F_ 0.269505 0.00956322 0.0451976 -0.6238
Al Al 0.119105 0.735081 0.418849 2.01273
Al Al 0.117047 0.982446 0.414209 2.01273
Al Al 0.284134 0.733772 0.414259 2.01273
Al Al 0.286803 0.986867 0.422285 2.01273
Al Al 0.0504328 0.516346 0.582229 2.01273
Al Al 0.0512428 0.760962 0.584413 2.01273
Al Al 0.216112 0.512881 0.588958 2.01273
Al Al 0.214115 0.764709 0.579536 2.01273
Al Al 0.0849978 0.00227488 0.4983 1.93658
Al Al 0.082009 0.74387 0.501844 1.93658
Al Al 0.247652 1.00083 0.505811 1.93658
Al Al 0.254487 0.75355 0.500735 1.93658
Al Al 0.0806874 0.493937 0.327077 1.93658
Al Al 0.0886779 0.7501 0.33516 1.93658
Al Al 0.252335 0.498828 0.667937 1.93658
Al Al 0.249645 0.74531 0.664581 1.93658
P_ P_ 0.168592 0.703685 0.480049 1.70002
P_ P_ 0.160929 0.953927 0.480746 1.70002
P_ P_ 0.33238 0.705264 0.479839 1.70002
P_ P_ 0.330303 0.953487 0.482258 1.70002
P_ P_ 0.00788457 0.544305 0.647669 1.70002
P_ P_ 0.00544755 0.796637 0.64792 1.70002
P_ P_ 0.168614 0.54309 0.651392 1.70002
P_ P_ 0.172529 0.796509 0.647761 1.70002
P_ P_ 0.00483712 0.545642 0.51923 1.70002
P_ P_ 0.00725217 0.795548 0.516704 1.70002
P_ P_ 0.171271 0.546433 0.520729 1.70002
P_ P_ 0.168057 0.796202 0.517184 1.70002
P_ P_ 0.1628 0.701202 0.35325 1.70002
P_ P_ 0.166033 0.950451 0.351935 1.70002
P_ P_ 0.330832 0.703808 0.352045 1.70002
P_ P_ 0.330304 0.954928 0.356516 1.70002
H_ H_ 0.208631 0.645022 0.481863 0.16322
H_ H_ 0.172594 0.91483 0.529361 0.16322
H_ H_ 0.380439 0.658907 0.499237 0.16322
H_ H_ 0.358761 0.890777 0.465297 0.16322
H_ H_ 0.156385 0.640713 0.4592 0.16322
H_ H_ 0.209816 0.897164 0.492389 0.16322
H_ H_ 0.358648 0.643079 0.462993 0.16322
H_ H_ 0.299904 0.886174 0.473265 0.16322
H_ H_ 0.983617 0.60936 0.29903 0.16322
H_ H_ 0.984415 0.855909 0.292603 0.16322
H_ H_ 0.137977 0.607059 0.29973 0.16322
H_ H_ 0.148746 0.856516 0.290976 0.16322
H_ H_ 0.0420511 0.608154 0.317609 0.16322
H_ H_ 0.041698 0.85711 0.303987 0.16322
H_ H_ 0.200231 0.612804 0.302769 0.16322
H_ H_ 0.201907 0.854586 0.306863 0.16322
H_ H_ 0.986775 0.6108 0.540567 0.16322
H_ H_ 0.969594 0.851454 0.527398 0.16322
H_ H_ 0.123967 0.599265 0.512303 0.16322
H_ H_ 0.153932 0.843374 0.471803 0.16322
H_ H_ 0.0408819 0.60712 0.522832 0.16322
H_ H_ 0.032368 0.860286 0.527671 0.16322
H_ H_ 0.170438 0.612149 0.538825 0.16322
H_ H_ 0.123957 0.856281 0.50972 0.16322
H_ H_ 0.201584 0.641965 0.701219 0.16322
H_ H_ 0.193747 0.893566 0.701895 0.16322
H_ H_ 0.352198 0.63571 0.700395 0.16322
H_ H_ 0.368786 0.906766 0.672567 0.16322
H_ H_ 0.142633 0.63559 0.699329 0.16322
H_ H_ 0.136618 0.890169 0.697131 0.16322
H_ H_ 0.293661 0.643228 0.692404 0.16322
H_ H_ 0.332912 0.891609 0.711897 0.16322
C_ C_ 0.172365 0.646847 0.486762 -0.4819
C_ C_ 0.173823 0.900638 0.500383 -0.4819
C_ C_ 0.348165 0.650529 0.490035 -0.4819
C_ C_ 0.333342 0.896039 0.486526 -0.4819
C_ C_ 0.00529077 0.604192 0.323369 -0.4819
C_ C_ 0.00853433 0.853419 0.3151 -0.4819
C_ C_ 0.169057 0.603316 0.318052 -0.4819
C_ C_ 0.167791 0.852506 0.316433 -0.4819
C_ C_ 0.00418968 0.605082 0.514337 -0.4819
C_ C_ 0.00224089 0.854057 0.510773 -0.4819
C_ C_ 0.160142 0.603576 0.510233 -0.4819
C_ C_ 0.160367 0.852208 0.500496 -0.4819
C_ C_ 0.172304 0.643644 0.683249 -0.4819
C_ C_ 0.166901 0.897935 0.679509 -0.4819
C_ C_ 0.328642 0.64335 0.679754 -0.4819
C_ C_ 0.334664 0.899392 0.681661 -0.4819
O_ O_ 0.127127 0.7178 0.500366 -0.96514
O_ O_ 0.124924 0.970931 0.507483 -0.96514
O_ O_ 0.28995 0.719158 0.500658 -0.96514
O_ O_ 0.284802 0.964413 0.49765 -0.96514
O_ O_ 0.0413434 0.726829 0.475188 -0.96514
O_ O_ 0.0425648 0.968423 0.502676 -0.96514
O_ O_ 0.212117 0.718619 0.502896 -0.96514
O_ O_ 0.20536 0.982034 0.481514 -0.96514
O_ O_ 0.166797 0.724638 0.440411 -0.96514
O_ O_ 0.13893 0.948846 0.442124 -0.96514
O_ O_ 0.312112 0.701407 0.44022 -0.96514
O_ O_ 0.330729 0.968068 0.442419 -0.96514
O_ O_ 0.043507 0.526433 0.336975 -0.96514
O_ O_ 0.0494068 0.780932 0.335989 -0.96514
O_ O_ 0.209963 0.531879 0.333614 -0.96514
O_ O_ 0.20796 0.77859 0.338678 -0.96514
O_ O_ 0.12229 0.526884 0.329479 -0.96514
O_ O_ 0.127251 0.772812 0.306729 -0.96514
O_ O_ 0.290316 0.526799 0.313259 -0.96514
O_ O_ 0.290598 0.7821 0.33475 -0.96514
O_ O_ 0.0281074 0.549114 0.608207 -0.96514
O_ O_ 0.0077052 0.779176 0.609234 -0.96514
O_ O_ 0.170578 0.52514 0.613286 -0.96514
O_ O_ 0.190364 0.79785 0.608476 -0.96514
O_ O_ 0.0481618 0.533722 0.499997 -0.96514
O_ O_ 0.0462884 0.778744 0.494211 -0.96514
O_ O_ 0.210307 0.530878 0.49639 -0.96514
O_ O_ 0.210229 0.780548 0.496833 -0.96514
O_ O_ 0.127729 0.521102 0.51974 -0.96514
O_ O_ 0.125463 0.775777 0.498116 -0.96514
O_ O_ 0.295947 0.529376 0.499134 -0.96514
O_ O_ 0.293723 0.773281 0.527485 -0.96514
O_ O_ 0.00397628 0.528208 0.558592 -0.96514
O_ O_ 0.0293733 0.794771 0.556055 -0.96514
O_ O_ 0.189853 0.54744 0.559564 -0.96514
O_ O_ 0.16934 0.779997 0.556045 -0.96514
O_ O_ 0.126061 0.718524 0.666043 -0.96514
O_ O_ 0.122389 0.971079 0.665182 -0.96514
O_ O_ 0.289568 0.713042 0.663376 -0.96514
O_ O_ 0.293665 0.975633 0.665258 -0.96514
O_ O_ 0.0431985 0.718776 0.667767 -0.96514
O_ O_ 0.0419285 0.975166 0.689349 -0.96514
O_ O_ 0.207798 0.728312 0.689986 -0.96514
O_ O_ 0.206729 0.971746 0.666102 -0.96514
O_ O_ 0.137699 0.699607 0.390762 -0.96514
O_ O_ 0.162021 0.970565 0.389532 -0.96514
O_ O_ 0.330112 0.721347 0.390386 -0.96514
O_ O_ 0.304234 0.953269 0.393419 -0.96514
F_ F_ 0.0821367 0.727788 0.456616 -0.6238
F_ F_ 0.105031 0.01255 0.45456 -0.6238
F_ F_ 0.273853 0.759834 0.456435 -0.6238
F_ F_ 0.253314 0.979829 0.46047 -0.6238
F_ F_ 0.0667228 0.485556 0.619153 -0.6238
F_ F_ 0.0863964 0.761197 0.623242 -0.6238
F_ F_ 0.253779 0.524147 0.624306 -0.6238
F_ F_ 0.231906 0.741132 0.619878 -0.6238
F_ F_ 0.0806533 0.516657 0.539848 -0.6238
F_ F_ 0.0628961 0.728363 0.545194 -0.6238
F_ F_ 0.229315 0.487661 0.544608 -0.6238
F_ F_ 0.252894 0.773641 0.544235 -0.6238
F_ F_ 0.109357 0.762561 0.37688 -0.6238
F_ F_ 0.0817471 0.976815 0.377525 -0.6238
F_ F_ 0.248467 0.729274 0.375966 -0.6238
F_ F_ 0.270241 0.0112872 0.379664 -0.6238
Al Al 0.114393 0.734501 0.751535 2.01273
Al Al 0.114908 0.983454 0.748203 2.01273
Al Al 0.283531 0.733086 0.747197 2.01273
Al Al 0.281931 0.988599 0.75731 2.01273
Al Al 0.0473562 0.512201 0.914345 2.01273
Al Al 0.0442666 0.762439 0.920229 2.01273
Al Al 0.221787 0.516242 0.917361 2.01273
Al Al 0.215754 0.765062 0.916934 2.01273
Al Al 0.0828514 0.00101775 0.830257 1.93658
Al Al 0.0817781 0.746718 0.838161 1.93658
Al Al 0.250116 1.00029 0.839195 1.93658
Al Al 0.248458 0.752051 0.832549 1.93658
Al Al 0.0827638 0.495702 0.662754 1.93658
Al Al 0.0870748 0.750052 0.669492 1.93658
Al Al 0.249945 0.501698 0.00398542 1.93658
Al Al 0.250093 0.74809 0.992415 1.93658
P_ P_ 0.161079 0.70275 0.815158 1.70002
P_ P_ 0.162254 0.954436 0.814427 1.70002
P_ P_ 0.327725 0.704295 0.814387 1.70002
P_ P_ 0.330351 0.954811 0.817738 1.70002
P_ P_ 0.00491388 0.547061 0.980087 1.70002
P_ P_ 0.999587139 0.796381 0.982165 1.70002
P_ P_ 0.168797 0.54554 0.978522 1.70002
P_ P_ 0.170822 0.795838 0.978233 1.70002
P_ P_ 0.00212245 0.544278 0.853897 1.70002
P_ P_ 0.00446734 0.797217 0.854659 1.70002
P_ P_ 0.173427 0.545432 0.85314 1.70002
P_ P_ 0.167481 0.797621 0.854721 1.70002
P_ P_ 0.163183 0.700114 0.689944 1.70002
P_ P_ 0.162651 0.955824 0.684714 1.70002
P_ P_ 0.329703 0.700965 0.685643 1.70002
P_ P_ 0.328454 0.95489 0.690558 1.70002
H_ H_ 0.204821 0.645712 0.798564 0.16322
H_ H_ 0.178893 0.887335 0.7993 0.16322
H_ H_ 0.358485 0.641694 0.807632 0.16322
H_ H_ 0.373668 0.902274 0.825191 0.16322
H_ H_ 0.150139 0.634269 0.791978 0.16322
H_ H_ 0.124807 0.888822 0.811027 0.16322
H_ H_ 0.301418 0.642534 0.813478 0.16322
H_ H_ 0.339776 0.885961 0.790429 0.16322
H_ H_ 0.974478 0.587928 0.686853 0.16322
H_ H_ 0.970673 0.852588 0.63184 0.16322
H_ H_ 0.143444 0.606613 0.638222 0.16322
H_ H_ 0.139598 0.856486 0.63706 0.16322
H_ H_ -0.031556999999999946 0.603555 0.64135 0.16322
H_ H_ 0.0335624 0.858897 0.633423 0.16322
H_ H_ 0.201173 0.606019 0.636451 0.16322
H_ H_ 0.20212 0.861321 0.639451 0.16322
H_ H_ 0.958526 0.603378 0.856276 0.16322
H_ H_ 0.993582 0.860932 0.869456 0.16322
H_ H_ 0.140768 0.607602 0.861075 0.16322
H_ H_ 0.147876 0.860364 0.875818 0.16322
H_ H_ 0.0107912 0.609015 0.879189 0.16322
H_ H_ 0.0445818 0.857933 0.848135 0.16322
H_ H_ 0.204611 0.608216 0.858906 0.16322
H_ H_ 0.203607 0.857002 0.860556 0.16322
H_ H_ 0.211214 0.647878 0.00954358 0.16322
H_ H_ 0.204128 0.89914 0.0304598 0.16322
H_ H_ 0.369466 0.651621 0.0141219 0.16322
H_ H_ 0.341729 0.888603 0.0374953 0.16322
H_ H_ 0.165234 0.631908 0.0350008 0.16322
H_ H_ 0.143275 0.885935 0.0414348 0.16322
H_ H_ 0.324836 0.638775 0.0434629 0.16322
H_ H_ 0.289695 0.889233 0.0111704 0.16322
C_ C_ 0.17315 0.64411 0.814792 -0.4819
C_ C_ 0.159189 0.895816 0.823163 -0.4819
C_ C_ 0.332543 0.646543 0.828508 -0.4819
C_ C_ 0.338701 0.897363 0.819572 -0.4819
C_ C_ -0.005716999999999972 0.598324 0.663134 -0.4819
C_ C_ 0.00104359 0.854246 0.648188 -0.4819
C_ C_ 0.173127 0.60234 0.656011 -0.4819
C_ C_ 0.170668 0.854549 0.655917 -0.4819
C_ C_ 0.996387 0.603047 0.851551 -0.4819
C_ C_ 0.009200000000000097 0.854214 0.842365 -0.4819
C_ C_ 0.172415 0.603551 0.844479 -0.4819
C_ C_ 0.169377 0.856559 0.851753 -0.4819
C_ C_ 0.172919 0.643499 0.00784803 -0.4819
C_ C_ 0.169448 0.893242 0.0201989 -0.4819
C_ C_ 0.331989 0.645717 0.0144797 -0.4819
C_ C_ 0.325668 0.894275 0.00965672 -0.4819
O_ O_ 0.11238 0.706842 0.828421 -0.96514
O_ O_ 0.120674 0.968589 0.835247 -0.96514
O_ O_ 0.289826 0.721585 0.836415 -0.96514
O_ O_ 0.285678 0.963887 0.835843 -0.96514
O_ O_ 0.0346479 0.73174 0.813079 -0.96514
O_ O_ 0.0379325 0.969771 0.831314 -0.96514
O_ O_ 0.203925 0.722015 0.836083 -0.96514
O_ O_ 0.210564 0.977117 0.814523 -0.96514
O_ O_ 0.159716 0.728059 0.778981 -0.96514
O_ O_ 0.144278 0.950509 0.774481 -0.96514
O_ O_ 0.309941 0.700267 0.774758 -0.96514
O_ O_ 0.32573 0.970222 0.77815 -0.96514
O_ O_ 0.0487284 0.529888 0.668949 -0.96514
O_ O_ 0.0469969 0.784448 0.669543 -0.96514
O_ O_ 0.210422 0.526956 0.672107 -0.96514
O_ O_ 0.210265 0.776246 0.669301 -0.96514
O_ O_ 0.123584 0.527568 0.667713 -0.96514
O_ O_ 0.129592 0.768445 0.644125 -0.96514
O_ O_ 0.295064 0.520095 0.641909 -0.96514
O_ O_ 0.290541 0.77808 0.673822 -0.96514
O_ O_ 0.0292706 0.547898 0.94328 -0.96514
O_ O_ 0.9999540076 0.776267 0.944038 -0.96514
O_ O_ 0.173026 0.52729 0.938813 -0.96514
O_ O_ 0.193283 0.799231 0.941261 -0.96514
O_ O_ 0.046969 0.532288 0.836187 -0.96514
O_ O_ 0.0397721 0.775849 0.831284 -0.96514
O_ O_ 0.215675 0.532489 0.834018 -0.96514
O_ O_ 0.213725 0.78908 0.838293 -0.96514
O_ O_ 0.127617 0.520316 0.852129 -0.96514
O_ O_ 0.124475 0.777777 0.836994 -0.96514
O_ O_ 0.290804 0.529784 0.831953 -0.96514
O_ O_ 0.291486 0.773387 0.856289 -0.96514
O_ O_ 0.00238389 0.5284 0.892908 -0.96514
O_ O_ 0.0277724 0.798581 0.89303 -0.96514
O_ O_ 0.19039 0.547739 0.893041 -0.96514
O_ O_ 0.170296 0.773658 0.891471 -0.96514
O_ O_ 0.122571 0.717602 0.994785 -0.96514
O_ O_ 0.11684 0.956104 0.00227628 -0.96514
O_ O_ 0.284492 0.711771 0.999648 -0.96514
O_ O_ 0.285312 0.967297 0.993465 -0.96514
O_ O_ 0.0370299 0.71955 -0.0026840000000000197 -0.96514
O_ O_ 0.0390604 0.976142 0.0216969 -0.96514
O_ O_ 0.207188 0.729412 0.0170953 -0.96514
O_ O_ 0.203484 0.971806 0.99840662 -0.96514
O_ O_ 0.141285 0.699192 0.72824 -0.96514
O_ O_ 0.160403 0.972371 0.722959 -0.96514
O_ O_ 0.328378 0.716699 0.725357 -0.96514
O_ O_ 0.309005 0.956306 0.729751 -0.96514
F_ F_ 0.0828027 0.738303 0.792529 -0.6238
F_ F_ 0.108568 0.0133754 0.788753 -0.6238
F_ F_ 0.26727 0.765593 0.785618 -0.6238
F_ F_ 0.249927 0.983851 0.796918 -0.6238
F_ F_ 0.0631897 0.487689 0.956024 -0.6238
F_ F_ 0.0793416 0.769927 0.9566 -0.6238
F_ F_ 0.249707 0.513288 0.95914 -0.6238
F_ F_ 0.228714 0.730316 0.951007 -0.6238
F_ F_ 0.0784029 0.514443 0.875098 -0.6238
F_ F_ 0.053476 0.733537 0.877188 -0.6238
F_ F_ 0.227498 0.485948 0.878334 -0.6238
F_ F_ 0.250974 0.771558 0.877449 -0.6238
F_ F_ 0.111877 0.766998 0.711667 -0.6238
F_ F_ 0.0811154 0.981748 0.710031 -0.6238
F_ F_ 0.247386 0.724617 0.709207 -0.6238
F_ F_ 0.268832 0.0117959 0.714477 -0.6238
Al Al 0.449299 0.23389 0.0859284 2.01273
Al Al 0.450166 0.491073 0.0788476 2.01273
Al Al 0.614009 0.236964 0.0820385 2.01273
Al Al 0.619061 0.487156 0.0893765 2.01273
Al Al 0.3791 0.011862 0.247893 2.01273
Al Al 0.378852 0.267609 0.250674 2.01273
Al Al 0.549721 0.015458 0.250055 2.01273
Al Al 0.549449 0.265104 0.247517 2.01273
Al Al 0.418647 0.504636 0.164238 1.93658
Al Al 0.411298 0.24937 0.172102 1.93658
Al Al 0.583272 0.494969 0.170917 1.93658
Al Al 0.58209 0.252082 0.16275 1.93658
Al Al 0.411762 0.999610978 0.996764 1.93658
Al Al 0.41393 0.249402 0.00389869 1.93658
Al Al 0.585386 0.00420352 0.337445 1.93658
Al Al 0.584037 0.248814 0.329854 1.93658
P_ P_ 0.49626 0.205337 0.149995 1.70002
P_ P_ 0.492967 0.455249 0.146026 1.70002
P_ P_ 0.658051 0.202228 0.147802 1.70002
P_ P_ 0.666935 0.452644 0.14997 1.70002
P_ P_ 0.33866 0.0488346 0.311177 1.70002
P_ P_ 0.334893 0.296555 0.312733 1.70002
P_ P_ 0.50247 0.0461472 0.314394 1.70002
P_ P_ 0.506985 0.29651 0.311023 1.70002
P_ P_ 0.33546 0.0466687 0.184793 1.70002
P_ P_ 0.336716 0.30054 0.185168 1.70002
P_ P_ 0.504803 0.0477009 0.187006 1.70002
P_ P_ 0.500792 0.296846 0.185308 1.70002
P_ P_ 0.494101 0.203722 0.0218596 1.70002
P_ P_ 0.496982 0.455385 0.0180708 1.70002
P_ P_ 0.661985 0.202487 0.0214593 1.70002
P_ P_ 0.659805 0.452369 0.021653 1.70002
H_ H_ 0.533507 0.149732 0.136882 0.16322
H_ H_ 0.495951 0.385741 0.12422 0.16322
H_ H_ 0.698866 0.14424 0.143641 0.16322
H_ H_ 0.693494 0.391094 0.13467 0.16322
H_ H_ 0.475541 0.140663 0.134199 0.16322
H_ H_ 0.454414 0.395335 0.15249 0.16322
H_ H_ 0.640048 0.137719 0.132499 0.16322
H_ H_ 0.632668 0.392832 0.130337 0.16322
H_ H_ 0.290581 0.0998694 0.986793 0.16322
H_ H_ 0.313645 0.358557 0.958063 0.16322
H_ H_ 0.454887 0.0969248 1.00791701 0.16322
H_ H_ 0.493282 0.360808 0.959788 0.16322
H_ H_ 0.33917 0.115702 0.962706 0.16322
H_ H_ 0.372168 0.359413 0.97301 0.16322
H_ H_ 0.474037 0.11233 0.964271 0.16322
H_ H_ 0.54185 0.351776 0.989488 0.16322
H_ H_ 0.313573 0.107959 0.206942 0.16322
H_ H_ 0.309762 0.36042 0.191697 0.16322
H_ H_ 0.464783 0.106384 0.191784 0.16322
H_ H_ 0.486551 0.36096 0.204908 0.16322
H_ H_ 0.367924 0.105742 0.187494 0.16322
H_ H_ 0.36983 0.366791 0.192173 0.16322
H_ H_ 0.52533 0.110549 0.199501 0.16322
H_ H_ 0.5396 0.35826 0.188313 0.16322
H_ H_ 0.522191 0.144066 0.369543 0.16322
H_ H_ 0.543745 0.40183 0.334161 0.16322
H_ H_ 0.70191 0.145603 0.361458 0.16322
H_ H_ 0.696972 0.400624 0.350048 0.16322
H_ H_ 0.46114 0.140932 0.35921 0.16322
H_ H_ 0.511489 0.390385 0.374296 0.16322
H_ H_ 0.640256 0.13981 0.367243 0.16322
H_ H_ 0.640034 0.38632 0.363062 0.16322
C_ C_ 0.501615 0.147138 0.152648 -0.4819
C_ C_ 0.492664 0.395346 0.152699 -0.4819
C_ C_ 0.664108 0.145543 0.156667 -0.4819
C_ C_ 0.662611 0.395583 0.150355 -0.4819
C_ C_ 0.325966 0.104534 0.989013 -0.4819
C_ C_ 0.335415 0.354999 0.982535 -0.4819
C_ C_ 0.485283 0.105248 0.992398 -0.4819
C_ C_ 0.505164 0.354989 0.989275 -0.4819
C_ C_ 0.330921 0.105516 0.179524 -0.4819
C_ C_ 0.339979 0.358963 0.174725 -0.4819
C_ C_ 0.498534 0.104663 0.179017 -0.4819
C_ C_ 0.505388 0.3546 0.180211 -0.4819
C_ C_ 0.495398 0.144361 0.347676 -0.4819
C_ C_ 0.508652 0.396165 0.343894 -0.4819
C_ C_ 0.668573 0.145989 0.348036 -0.4819
C_ C_ 0.663274 0.396137 0.341766 -0.4819
O_ O_ 0.452388 0.217166 0.168349 -0.96514
O_ O_ 0.455398 0.47067 0.170055 -0.96514
O_ O_ 0.622691 0.22209 0.168957 -0.96514
O_ O_ 0.626086 0.466258 0.170238 -0.96514
O_ O_ 0.374701 0.225456 0.144917 -0.96514
O_ O_ 0.377523 0.471924 0.168967 -0.96514
O_ O_ 0.53789 0.222763 0.169814 -0.96514
O_ O_ 0.541197 0.476115 0.145833 -0.96514
O_ O_ 0.494987 0.224199 0.110911 -0.96514
O_ O_ 0.467679 0.456902 0.108676 -0.96514
O_ O_ 0.640246 0.203045 0.10864 -0.96514
O_ O_ 0.665128 0.469968 0.11104 -0.96514
O_ O_ 0.377004 0.032359 0.00298469 -0.96514
O_ O_ 0.381171 0.286566 0.0013499999999999623 -0.96514
O_ O_ 0.541969 0.0363179 1.00268478 -0.96514
O_ O_ 0.542769 0.278798 0.00511515 -0.96514
O_ O_ 0.452901 0.0325148 -0.000846783 -0.96514
O_ O_ 0.457069 0.272645 0.980311 -0.96514
O_ O_ 0.626542 0.0229791 0.979617 -0.96514
O_ O_ 0.625065 0.277918 0.9999020685 -0.96514
O_ O_ 0.358331 0.0506794 0.271324 -0.96514
O_ O_ 0.332122 0.278038 0.273387 -0.96514
O_ O_ 0.505581 0.028089 0.275512 -0.96514
O_ O_ 0.530414 0.301622 0.272937 -0.96514
O_ O_ 0.381356 0.0360748 0.168314 -0.96514
O_ O_ 0.37501 0.281947 0.162164 -0.96514
O_ O_ 0.54264 0.0296707 0.162819 -0.96514
O_ O_ 0.542458 0.283044 0.166267 -0.96514
O_ O_ 0.45983 0.0188319 0.187945 -0.96514
O_ O_ 0.455602 0.281225 0.165987 -0.96514
O_ O_ 0.624436 0.0277403 0.168677 -0.96514
O_ O_ 0.621394 0.276145 0.18863 -0.96514
O_ O_ 0.333218 0.0279184 0.22308 -0.96514
O_ O_ 0.359637 0.304059 0.223699 -0.96514
O_ O_ 0.527001 0.0474947 0.225013 -0.96514
O_ O_ 0.503359 0.280983 0.224793 -0.96514
O_ O_ 0.456921 0.216823 0.32996 -0.96514
O_ O_ 0.458191 0.470175 0.325746 -0.96514
O_ O_ 0.621911 0.213835 0.335686 -0.96514
O_ O_ 0.618774 0.467059 0.333063 -0.96514
O_ O_ 0.371893 0.222397 0.329833 -0.96514
O_ O_ 0.372676 0.478272 0.353598 -0.96514
O_ O_ 0.541941 0.228479 0.35396 -0.96514
O_ O_ 0.543973 0.471521 0.33198 -0.96514
O_ O_ 0.473661 0.201251 0.0601994 -0.96514
O_ O_ 0.49516 0.473111 0.0563875 -0.96514
O_ O_ 0.661642 0.222423 0.0591682 -0.96514
O_ O_ 0.640163 0.449299 0.060143 -0.96514
F_ F_ 0.41297 0.22911 0.126208 -0.6238
F_ F_ 0.432459 0.511469 0.120702 -0.6238
F_ F_ 0.602724 0.269393 0.12106 -0.6238
F_ F_ 0.584628 0.478502 0.126942 -0.6238
F_ F_ 0.396157 0.987317 0.288917 -0.6238
F_ F_ 0.414783 0.271928 0.290771 -0.6238
F_ F_ 0.581977 0.0134741 0.292357 -0.6238
F_ F_ 0.56396 0.239458 0.287921 -0.6238
F_ F_ 0.41265 0.0148364 0.209674 -0.6238
F_ F_ 0.392704 0.236769 0.215422 -0.6238
F_ F_ 0.557148 0.985717 0.210078 -0.6238
F_ F_ 0.582029 0.271661 0.20749 -0.6238
F_ F_ 0.433532 0.263504 0.0491609 -0.6238
F_ F_ 0.415486 0.485621 0.042055 -0.6238
F_ F_ 0.58088 0.230834 0.0409643 -0.6238
F_ F_ 0.602688 0.511965 0.0479931 -0.6238
Al Al 0.45573 0.238458 0.41936 2.01273
Al Al 0.450654 0.483621 0.408652 2.01273
Al Al 0.620123 0.235286 0.413206 2.01273
Al Al 0.616848 0.485955 0.417624 2.01273
Al Al 0.386366 0.013895 0.581842 2.01273
Al Al 0.383043 0.265583 0.582557 2.01273
Al Al 0.551037 0.0137855 0.588475 2.01273
Al Al 0.546294 0.264993 0.58052 2.01273
Al Al 0.420739 0.500604 0.495425 1.93658
Al Al 0.41423 0.244404 0.501926 1.93658
Al Al 0.584448 0.498194 0.502442 1.93658
Al Al 0.585028 0.25195 0.498054 1.93658
Al Al 0.413204 0.998978 0.331252 1.93658
Al Al 0.420471 0.252167 0.335679 1.93658
Al Al 0.582681 1.00311333 0.668199 1.93658
Al Al 0.582717 0.247481 0.661791 1.93658
P_ P_ 0.500405 0.202539 0.482771 1.70002
P_ P_ 0.499097 0.453622 0.474418 1.70002
P_ P_ 0.660267 0.203095 0.479385 1.70002
P_ P_ 0.664822 0.453523 0.479092 1.70002
P_ P_ 0.337863 0.0466427 0.646375 1.70002
P_ P_ 0.3357 0.295566 0.646008 1.70002
P_ P_ 0.502185 0.0463971 0.647697 1.70002
P_ P_ 0.503601 0.295103 0.646386 1.70002
P_ P_ 0.335587 0.0444963 0.519488 1.70002
P_ P_ 0.34062 0.299369 0.517494 1.70002
P_ P_ 0.506935 0.0482932 0.523451 1.70002
P_ P_ 0.500742 0.296833 0.516768 1.70002
P_ P_ 0.49654 0.202329 0.353869 1.70002
P_ P_ 0.500129 0.453697 0.346828 1.70002
P_ P_ 0.667621 0.203908 0.353536 1.70002
P_ P_ 0.661283 0.453535 0.352751 1.70002
H_ H_ 0.528773 0.139184 0.469331 0.16322
H_ H_ 0.545416 0.397101 0.485448 0.16322
H_ H_ 0.697502 0.147703 0.475408 0.16322
H_ H_ 0.693717 0.388496 0.466196 0.16322
H_ H_ 0.473545 0.137421 0.468452 0.16322
H_ H_ 0.498064 0.38596 0.45763 0.16322
H_ H_ 0.635355 0.138029 0.470981 0.16322
H_ H_ 0.633651 0.388128 0.467911 0.16322
H_ H_ 0.309708 0.112795 0.297763 0.16322
H_ H_ 0.307976 0.358419 0.295811 0.16322
H_ H_ 0.473802 0.108946 0.295556 0.16322
H_ H_ 0.466281 0.339075 0.343487 0.16322
H_ H_ 0.367038 0.114991 0.298331 0.16322
H_ H_ 0.365903 0.358191 0.301477 0.16322
H_ H_ 0.532847 0.105208 0.302202 0.16322
H_ H_ 0.482862 0.361287 0.296815 0.16322
H_ H_ 0.324871 0.109888 0.542306 0.16322
H_ H_ 0.307806 0.35652 0.528641 0.16322
H_ H_ 0.468804 0.106722 0.532362 0.16322
H_ H_ 0.456763 0.353174 0.50962 0.16322
H_ H_ 0.377491 0.105944 0.521728 0.16322
H_ H_ 0.368746 0.362169 0.525171 0.16322
H_ H_ 0.525249 0.112234 0.538458 0.16322
H_ H_ 0.507015 0.356082 0.53448 0.16322
H_ H_ 0.516871 0.139713 0.698841 0.16322
H_ H_ 0.516006 0.387884 0.707401 0.16322
H_ H_ 0.681656 0.140383 0.709497 0.16322
H_ H_ 0.678754 0.387798 0.702632 0.16322
H_ H_ 0.458267 0.137138 0.689361 0.16322
H_ H_ 0.460636 0.390749 0.687284 0.16322
H_ H_ 0.6242 0.141618 0.692988 0.16322
H_ H_ 0.623523 0.392071 0.68313 0.16322
C_ C_ 0.500928 0.144082 0.487127 -0.4819
C_ C_ 0.508878 0.396496 0.485086 -0.4819
C_ C_ 0.664468 0.147092 0.488227 -0.4819
C_ C_ 0.664373 0.394491 0.483324 -0.4819
C_ C_ 0.339865 0.107356 0.317201 -0.4819
C_ C_ 0.33431 0.353904 0.316805 -0.4819
C_ C_ 0.499931 0.104999 0.318088 -0.4819
C_ C_ 0.49418 0.351623 0.324883 -0.4819
C_ C_ 0.340911 0.103092 0.514858 -0.4819
C_ C_ 0.337581 0.355732 0.510958 -0.4819
C_ C_ 0.500203 0.104769 0.517374 -0.4819
C_ C_ 0.493636 0.353017 0.507028 -0.4819
C_ C_ 0.493632 0.143317 0.675524 -0.4819
C_ C_ 0.498173 0.391994 0.681256 -0.4819
C_ C_ 0.660749 0.145219 0.685213 -0.4819
C_ C_ 0.660564 0.395751 0.677752 -0.4819
O_ O_ 0.454833 0.214243 0.499732 -0.96514
O_ O_ 0.462439 0.469001 0.498162 -0.96514
O_ O_ 0.61889 0.21731 0.498569 -0.96514
O_ O_ 0.620093 0.465198 0.496658 -0.96514
O_ O_ 0.370838 0.226055 0.476855 -0.96514
O_ O_ 0.376013 0.469576 0.502028 -0.96514
O_ O_ 0.542351 0.221385 0.502248 -0.96514
O_ O_ 0.544726 0.479076 0.475691 -0.96514
O_ O_ 0.49644 0.216713 0.443916 -0.96514
O_ O_ 0.478111 0.452509 0.436511 -0.96514
O_ O_ 0.639029 0.203235 0.442135 -0.96514
O_ O_ 0.664193 0.475706 0.441463 -0.96514
O_ O_ 0.382577 0.036342 0.331476 -0.96514
O_ O_ 0.380516 0.281495 0.328215 -0.96514
O_ O_ 0.546169 0.0357012 0.335051 -0.96514
O_ O_ 0.541719 0.277634 0.335781 -0.96514
O_ O_ 0.456948 0.0311968 0.330354 -0.96514
O_ O_ 0.459903 0.275667 0.309694 -0.96514
O_ O_ 0.624534 0.0271786 0.31128 -0.96514
O_ O_ 0.626998 0.279939 0.333669 -0.96514
O_ O_ 0.356887 0.0452963 0.607749 -0.96514
O_ O_ 0.334967 0.274666 0.606833 -0.96514
O_ O_ 0.501824 0.0270068 0.609998 -0.96514
O_ O_ 0.520518 0.298368 0.605715 -0.96514
O_ O_ 0.377547 0.032481 0.498553 -0.96514
O_ O_ 0.378646 0.277956 0.495739 -0.96514
O_ O_ 0.545675 0.0343808 0.49857 -0.96514
O_ O_ 0.544313 0.281343 0.500317 -0.96514
O_ O_ 0.463084 0.0218932 0.519208 -0.96514
O_ O_ 0.454943 0.277936 0.500852 -0.96514
O_ O_ 0.630348 0.0309381 0.50102 -0.96514
O_ O_ 0.625811 0.275996 0.524132 -0.96514
O_ O_ 0.339888 0.0223941 0.55743 -0.96514
O_ O_ 0.357405 0.298831 0.556452 -0.96514
O_ O_ 0.526809 0.0479747 0.563137 -0.96514
O_ O_ 0.502524 0.282861 0.556575 -0.96514
O_ O_ 0.454977 0.218323 0.664253 -0.96514
O_ O_ 0.454535 0.46012 0.664641 -0.96514
O_ O_ 0.622816 0.215679 0.663111 -0.96514
O_ O_ 0.624263 0.468307 0.667361 -0.96514
O_ O_ 0.372928 0.219613 0.665928 -0.96514
O_ O_ 0.371972 0.475829 0.679561 -0.96514
O_ O_ 0.539274 0.226348 0.686849 -0.96514
O_ O_ 0.542332 0.468598 0.667031 -0.96514
O_ O_ 0.473739 0.201223 0.392703 -0.96514
O_ O_ 0.495399 0.470169 0.385422 -0.96514
O_ O_ 0.6683 0.221315 0.391933 -0.96514
O_ O_ 0.648033 0.45233 0.392321 -0.96514
F_ F_ 0.417009 0.234347 0.455329 -0.6238
F_ F_ 0.431028 0.508044 0.449608 -0.6238
F_ F_ 0.604586 0.262288 0.455559 -0.6238
F_ F_ 0.586231 0.481948 0.457248 -0.6238
F_ F_ 0.395588 0.986042 0.622759 -0.6238
F_ F_ 0.409584 0.255976 0.622672 -0.6238
F_ F_ 0.584449 0.0255241 0.625787 -0.6238
F_ F_ 0.562406 0.235341 0.619194 -0.6238
F_ F_ 0.416487 0.016831 0.540983 -0.6238
F_ F_ 0.396722 0.231892 0.5462 -0.6238
F_ F_ 0.56739 0.988685 0.5481 -0.6238
F_ F_ 0.581262 0.268431 0.544192 -0.6238
F_ F_ 0.441283 0.265795 0.37873 -0.6238
F_ F_ 0.418973 0.475971 0.371317 -0.6238
F_ F_ 0.584237 0.231259 0.376387 -0.6238
F_ F_ 0.608783 0.51821 0.377346 -0.6238
Al Al 0.448468 0.23458 0.752252 2.01273
Al Al 0.451716 0.486417 0.746765 2.01273
Al Al 0.620288 0.240355 0.74569 2.01273
Al Al 0.618545 0.48524 0.752738 2.01273
Al Al 0.381493 0.0172301 0.914796 2.01273
Al Al 0.38292 0.267717 0.91832 2.01273
Al Al 0.543235 0.0123322 0.920399 2.01273
Al Al 0.548568 0.266696 0.914621 2.01273
Al Al 0.418335 0.502624 0.829305 1.93658
Al Al 0.413505 0.24688 0.841054 1.93658
Al Al 0.583363 0.499172 0.838877 1.93658
Al Al 0.583238 0.253109 0.829532 1.93658
Al Al 0.416752 0.998379 0.663541 1.93658
Al Al 0.416562 0.250762 0.669472 1.93658
Al Al 0.581341 0.0028241 0.00196178 1.93658
Al Al 0.580255 0.247562 0.993576 1.93658
P_ P_ 0.495752 0.202581 0.815007 1.70002
P_ P_ 0.497695 0.454278 0.812407 1.70002
P_ P_ 0.660415 0.204285 0.814091 1.70002
P_ P_ 0.667475 0.455584 0.814571 1.70002
P_ P_ 0.338201 0.048844 0.980067 1.70002
P_ P_ 0.336243 0.29723 0.982258 1.70002
P_ P_ 0.498938 0.0482862 0.981447 1.70002
P_ P_ 0.502929 0.298342 0.983808 1.70002
P_ P_ 0.333861 0.0483152 0.854182 1.70002
P_ P_ 0.337727 0.297298 0.853487 1.70002
P_ P_ 0.507246 0.0454719 0.852819 1.70002
P_ P_ 0.501618 0.294255 0.851038 1.70002
P_ P_ 0.493997 0.200443 0.686748 1.70002
P_ P_ 0.498599 0.449584 0.685611 1.70002
P_ P_ 0.663524 0.204614 0.685866 1.70002
P_ P_ 0.663003 0.452546 0.688307 1.70002
H_ H_ 0.530666 0.146325 0.800654 0.16322
H_ H_ 0.531217 0.410719 0.853773 0.16322
H_ H_ 0.687785 0.141286 0.797971 0.16322
H_ H_ 0.678813 0.391397 0.790349 0.16322
H_ H_ 0.473152 0.138584 0.803028 0.16322
H_ H_ 0.531571 0.397887 0.808053 0.16322
H_ H_ 0.629592 0.14247 0.808076 0.16322
H_ H_ 0.625497 0.396058 0.807242 0.16322
H_ H_ 0.311997 0.105884 0.634987 0.16322
H_ H_ 0.304534 0.356092 0.633838 0.16322
H_ H_ 0.477304 0.106635 0.625641 0.16322
H_ H_ 0.488957 0.35788 0.626554 0.16322
H_ H_ 0.367081 0.110097 0.633073 0.16322
H_ H_ 0.36036 0.363387 0.626782 0.16322
H_ H_ 0.535953 0.111467 0.641117 0.16322
H_ H_ 0.541528 0.3572 0.646126 0.16322
H_ H_ 0.309289 0.107681 0.867033 0.16322
H_ H_ 0.313138 0.363402 0.867045 0.16322
H_ H_ 0.498209 0.107023 0.870263 0.16322
H_ H_ 0.482011 0.340727 0.814895 0.16322
H_ H_ 0.367656 0.11232 0.863961 0.16322
H_ H_ 0.373045 0.363969 0.859615 0.16322
H_ H_ 0.544959 0.103736 0.848212 0.16322
H_ H_ 0.46439 0.352475 0.858928 0.16322
H_ H_ 0.53473 0.160432 -0.010139000000000009 0.16322
H_ H_ 0.525833 0.397023 0.0352447 0.16322
H_ H_ 0.693035 0.141413 0.0357386 0.16322
H_ H_ 0.691519 0.393449 0.031543 0.16322
H_ H_ 0.521087 0.143645 0.0348764 0.16322
H_ H_ 0.464296 0.393717 0.0268986 0.16322
H_ H_ 0.634668 0.138047 0.0334857 0.16322
H_ H_ 0.632482 0.387844 0.0314599 0.16322
C_ C_ 0.501426 0.145741 0.81949 -0.4819
C_ C_ 0.507211 0.400167 0.831185 -0.4819
C_ C_ 0.662705 0.145868 0.820977 -0.4819
C_ C_ 0.661816 0.396447 0.81598 -0.4819
C_ C_ 0.342362 0.104925 0.652253 -0.4819
C_ C_ 0.337597 0.354158 0.649523 -0.4819
C_ C_ 0.500362 0.102752 0.649458 -0.4819
C_ C_ 0.505575 0.35257 0.653616 -0.4819
C_ C_ 0.33639 0.105161 0.847551 -0.4819
C_ C_ 0.34067 0.356179 0.848445 -0.4819
C_ C_ 0.508896 0.102435 0.844158 -0.4819
C_ C_ 0.494752 0.351531 0.840457 -0.4819
C_ C_ 0.506313 0.149039 0.00829439 -0.4819
C_ C_ 0.498379 0.39763 0.0133936 -0.4819
C_ C_ 0.664979 0.143473 0.0156603 -0.4819
C_ C_ 0.662616 0.394836 0.0135413 -0.4819
O_ O_ 0.45134 0.212384 0.834122 -0.96514
O_ O_ 0.464867 0.475428 0.83693 -0.96514
O_ O_ 0.622673 0.221525 0.83591 -0.96514
O_ O_ 0.621004 0.465137 0.830747 -0.96514
O_ O_ 0.373736 0.225095 0.815622 -0.96514
O_ O_ 0.380759 0.468404 0.83486 -0.96514
O_ O_ 0.539838 0.220293 0.831319 -0.96514
O_ O_ 0.542831 0.480719 0.811016 -0.96514
O_ O_ 0.491477 0.218594 0.776324 -0.96514
O_ O_ 0.473094 0.452225 0.7742 -0.96514
O_ O_ 0.640755 0.205551 0.774652 -0.96514
O_ O_ 0.664492 0.471776 0.775734 -0.96514
O_ O_ 0.378449 0.0311586 0.667736 -0.96514
O_ O_ 0.381412 0.285418 0.661734 -0.96514
O_ O_ 0.546904 0.038544 0.666229 -0.96514
O_ O_ 0.546749 0.280747 0.664224 -0.96514
O_ O_ 0.46099 0.0298525 0.669635 -0.96514
O_ O_ 0.459321 0.26826 0.644693 -0.96514
O_ O_ 0.625179 0.0238372 0.645893 -0.96514
O_ O_ 0.624889 0.280986 0.667656 -0.96514
O_ O_ 0.35658 0.0485945 0.941346 -0.96514
O_ O_ 0.337423 0.277628 0.943831 -0.96514
O_ O_ 0.501385 0.033661 0.941567 -0.96514
O_ O_ 0.522483 0.297101 0.943775 -0.96514
O_ O_ 0.375728 0.0344683 0.833892 -0.96514
O_ O_ 0.376036 0.281202 0.830764 -0.96514
O_ O_ 0.541887 0.0278085 0.827361 -0.96514
O_ O_ 0.540043 0.279725 0.826413 -0.96514
O_ O_ 0.461515 0.0233466 0.85493 -0.96514
O_ O_ 0.454785 0.279619 0.836181 -0.96514
O_ O_ 0.624692 0.031823 0.830458 -0.96514
O_ O_ 0.62109 0.277908 0.857388 -0.96514
O_ O_ 0.334064 0.0285724 0.892867 -0.96514
O_ O_ 0.356502 0.298919 0.892814 -0.96514
O_ O_ 0.530451 0.046777 0.890303 -0.96514
O_ O_ 0.503784 0.276336 0.889255 -0.96514
O_ O_ 0.455467 0.218224 0.99715393 -0.96514
O_ O_ 0.455878 0.467221 0.995172 -0.96514
O_ O_ 0.618433 0.214823 1.0038447 -0.96514
O_ O_ 0.620692 0.469335 0.99847943 -0.96514
O_ O_ 0.369343 0.220389 0.99840296 -0.96514
O_ O_ 0.375524 0.476613 0.021718 -0.96514
O_ O_ 0.540187 0.22838 0.0202307 -0.96514
O_ O_ 0.540384 0.473244 1.00069 -0.96514
O_ O_ 0.477564 0.199765 0.727272 -0.96514
O_ O_ 0.495738 0.46926 0.723921 -0.96514
O_ O_ 0.660478 0.219287 0.724655 -0.96514
O_ O_ 0.645883 0.452873 0.726987 -0.96514
F_ F_ 0.419604 0.242262 0.79377 -0.6238
F_ F_ 0.44032 0.516104 0.78534 -0.6238
F_ F_ 0.609204 0.264685 0.788485 -0.6238
F_ F_ 0.585556 0.478741 0.795132 -0.6238
F_ F_ 0.394642 0.985955 0.955218 -0.6238
F_ F_ 0.409194 0.263414 0.958496 -0.6238
F_ F_ 0.579858 0.0174808 0.956756 -0.6238
F_ F_ 0.554127 0.233378 0.953342 -0.6238
F_ F_ 0.412971 0.0219126 0.875164 -0.6238
F_ F_ 0.384393 0.234035 0.880226 -0.6238
F_ F_ 0.563339 0.989921 0.877382 -0.6238
F_ F_ 0.579606 0.265504 0.874148 -0.6238
F_ F_ 0.431109 0.261849 0.713473 -0.6238
F_ F_ 0.419817 0.485101 0.707994 -0.6238
F_ F_ 0.584979 0.234619 0.707414 -0.6238
F_ F_ 0.610386 0.513684 0.712587 -0.6238
Al Al 0.451984 0.734005 0.0849184 2.01273
Al Al 0.449072 0.986606 0.0801172 2.01273
Al Al 0.61625 0.73878 0.0800647 2.01273
Al Al 0.617534 0.984182 0.0866325 2.01273
Al Al 0.386044 0.515792 0.248641 2.01273
Al Al 0.38303 0.767926 0.252389 2.01273
Al Al 0.552098 0.517373 0.250972 2.01273
Al Al 0.550903 0.764529 0.244913 2.01273
Al Al 0.416334 -0.000457615 0.163531 1.93658
Al Al 0.415913 0.746737 0.16753 1.93658
Al Al 0.579519 -0.0019730000000000025 0.169464 1.93658
Al Al 0.586026 0.752216 0.163658 1.93658
Al Al 0.416201 0.500101 0.994945 1.93658
Al Al 0.421209 0.752295 0.00283796 1.93658
Al Al 0.586679 0.504308 0.336136 1.93658
Al Al 0.584514 0.749213 0.33239 1.93658
P_ P_ 0.497302 0.70407 0.147438 1.70002
P_ P_ 0.494135 0.95365 0.145864 1.70002
P_ P_ 0.66046 0.70318 0.144752 1.70002
P_ P_ 0.664393 0.954007 0.147198 1.70002
P_ P_ 0.336486 0.548783 0.311259 1.70002
P_ P_ 0.33646 0.798612 0.31686 1.70002
P_ P_ 0.502409 0.545873 0.315043 1.70002
P_ P_ 0.506441 0.798042 0.31112 1.70002
P_ P_ 0.333917 0.545464 0.188701 1.70002
P_ P_ 0.340798 0.796409 0.185057 1.70002
P_ P_ 0.509453 0.547554 0.187317 1.70002
P_ P_ 0.503611 0.796545 0.182405 1.70002
P_ P_ 0.498082 0.703958 0.0200089 1.70002
P_ P_ 0.494713 0.955791 0.0177103 1.70002
P_ P_ 0.664681 0.706822 0.0192054 1.70002
P_ P_ 0.657966 0.951661 0.0211623 1.70002
H_ H_ 0.533802 0.646318 0.13308 0.16322
H_ H_ 0.533587 0.897984 0.134511 0.16322
H_ H_ 0.699072 0.647269 0.139263 0.16322
H_ H_ 0.689489 0.891348 0.126798 0.16322
H_ H_ 0.477299 0.63766 0.126834 0.16322
H_ H_ 0.474707 0.888895 0.131018 0.16322
H_ H_ 0.642138 0.635175 0.131753 0.16322
H_ H_ 0.631225 0.894974 0.139229 0.16322
H_ H_ 0.284234 0.605096 0.986721 0.16322
H_ H_ 0.31549 0.854044 0.957493 0.16322
H_ H_ 0.456292 0.608863 0.981191 0.16322
H_ H_ 0.463967 0.853518 0.966848 0.16322
H_ H_ 0.327396 0.614069 0.960297 0.16322
H_ H_ 0.372255 0.857691 0.971868 0.16322
H_ H_ 0.509072 0.613891 0.957756 0.16322
H_ H_ 0.523079 0.863619 0.967708 0.16322
H_ H_ 0.291526 0.604403 0.189125 0.16322
H_ H_ 0.316013 0.857819 0.203248 0.16322
H_ H_ 0.47746 0.60534 0.19027 0.16322
H_ H_ 0.473638 0.854745 0.196166 0.16322
H_ H_ 0.346434 0.609475 0.206079 0.16322
H_ H_ 0.370053 0.860829 0.18511 0.16322
H_ H_ 0.534412 0.612145 0.190554 0.16322
H_ H_ 0.533915 0.85691 0.196019 0.16322
H_ H_ 0.529577 0.642598 0.360407 0.16322
H_ H_ 0.528842 0.897582 0.364813 0.16322
H_ H_ 0.689497 0.645492 0.371348 0.16322
H_ H_ 0.696883 0.892331 0.367837 0.16322
H_ H_ 0.467957 0.63786 0.36428 0.16322
H_ H_ 0.468034 0.894269 0.359507 0.16322
H_ H_ 0.626718 0.644442 0.362902 0.16322
H_ H_ 0.636577 0.889787 0.362163 0.16322
C_ C_ 0.503205 0.64647 0.147578 -0.4819
C_ C_ 0.502676 0.895792 0.150194 -0.4819
C_ C_ 0.664697 0.645535 0.153509 -0.4819
C_ C_ 0.665246 0.896777 0.148905 -0.4819
C_ C_ 0.32171 0.605276 0.989383 -0.4819
C_ C_ 0.3376 0.853674 0.983751 -0.4819
C_ C_ 0.494118 0.60785 0.984861 -0.4819
C_ C_ 0.494118 0.856035 0.986199 -0.4819
C_ C_ 0.327334 0.603362 0.180742 -0.4819
C_ C_ 0.336086 0.853485 0.177979 -0.4819
C_ C_ 0.506116 0.603799 0.171791 -0.4819
C_ C_ 0.503531 0.853948 0.177958 -0.4819
C_ C_ 0.497613 0.645088 0.345461 -0.4819
C_ C_ 0.500353 0.898114 0.344411 -0.4819
C_ C_ 0.661115 0.644579 0.352119 -0.4819
C_ C_ 0.667054 0.895314 0.348626 -0.4819
O_ O_ 0.451301 0.711974 0.165473 -0.96514
O_ O_ 0.455955 0.968289 0.16997 -0.96514
O_ O_ 0.618725 0.716999 0.16783 -0.96514
O_ O_ 0.617489 0.963975 0.165111 -0.96514
O_ O_ 0.376017 0.721523 0.145584 -0.96514
O_ O_ 0.373348 0.967631 0.16758 -0.96514
O_ O_ 0.538322 0.720841 0.169288 -0.96514
O_ O_ 0.540201 0.979532 0.142661 -0.96514
O_ O_ 0.496021 0.721744 0.109328 -0.96514
O_ O_ 0.47065 0.953453 0.107579 -0.96514
O_ O_ 0.639009 0.702911 0.105853 -0.96514
O_ O_ 0.662332 0.972945 0.107772 -0.96514
O_ O_ 0.377028 0.529083 0.00285821 -0.96514
O_ O_ 0.378264 0.780681 -0.002027000000000001 -0.96514
O_ O_ 0.545619 0.536864 0.997861 -0.96514
O_ O_ 0.549952 0.785381 -0.0039479999999999515 -0.96514
O_ O_ 0.458463 0.529423 1.0008 -0.96514
O_ O_ 0.460599 0.775408 0.977274 -0.96514
O_ O_ 0.630973 0.522838 0.984009 -0.96514
O_ O_ 0.622757 0.782677 0.99676 -0.96514
O_ O_ 0.356274 0.548853 0.272914 -0.96514
O_ O_ 0.339801 0.781045 0.277303 -0.96514
O_ O_ 0.505959 0.524899 0.277536 -0.96514
O_ O_ 0.525567 0.798356 0.27171 -0.96514
O_ O_ 0.376786 0.536135 0.168127 -0.96514
O_ O_ 0.378592 0.778438 0.16281 -0.96514
O_ O_ 0.547246 0.52951 0.165109 -0.96514
O_ O_ 0.547171 0.782217 0.164795 -0.96514
O_ O_ 0.466211 0.520745 0.186113 -0.96514
O_ O_ 0.461458 0.775975 0.16199 -0.96514
O_ O_ 0.622945 0.530415 0.169849 -0.96514
O_ O_ 0.625532 0.775681 0.188278 -0.96514
O_ O_ 0.338074 0.528462 0.22624 -0.96514
O_ O_ 0.363555 0.800919 0.223134 -0.96514
O_ O_ 0.529738 0.551842 0.225085 -0.96514
O_ O_ 0.506292 0.780057 0.22122 -0.96514
O_ O_ 0.457287 0.718771 0.330549 -0.96514
O_ O_ 0.457215 0.969354 0.334172 -0.96514
O_ O_ 0.622678 0.716779 0.33407 -0.96514
O_ O_ 0.628 0.977516 0.334575 -0.96514
O_ O_ 0.373858 0.719402 0.33278 -0.96514
O_ O_ 0.375936 0.980508 0.360746 -0.96514
O_ O_ 0.541468 0.724358 0.355617 -0.96514
O_ O_ 0.547507 0.968995 0.333889 -0.96514
O_ O_ 0.475841 0.701098 0.0576582 -0.96514
O_ O_ 0.493011 0.970938 0.0578185 -0.96514
O_ O_ 0.663405 0.728343 0.057388 -0.96514
O_ O_ 0.6401 0.949726 0.059369 -0.96514
F_ F_ 0.420526 0.735976 0.122499 -0.6238
F_ F_ 0.438277 0.0137967 0.118866 -0.6238
F_ F_ 0.603328 0.767178 0.121145 -0.6238
F_ F_ 0.578873 0.986469 0.124783 -0.6238
F_ F_ 0.390607 0.483906 0.28649 -0.6238
F_ F_ 0.416849 0.768965 0.29172 -0.6238
F_ F_ 0.58718 0.516769 0.290626 -0.6238
F_ F_ 0.56846 0.743552 0.287627 -0.6238
F_ F_ 0.421342 0.524737 0.208404 -0.6238
F_ F_ 0.402049 0.746247 0.213605 -0.6238
F_ F_ 0.560003 0.483642 0.21127 -0.6238
F_ F_ 0.587285 0.771112 0.207514 -0.6238
F_ F_ 0.436049 0.762285 0.0455911 -0.6238
F_ F_ 0.414599 0.984062 0.0410594 -0.6238
F_ F_ 0.58534 0.732729 0.0409102 -0.6238
F_ F_ 0.603389 0.0109798 0.0458274 -0.6238
Al Al 0.451937 0.737662 0.41743 2.01273
Al Al 0.452487 0.984776 0.412496 2.01273
Al Al 0.616459 0.734016 0.415264 2.01273
Al Al 0.621522 0.989317 0.417455 2.01273
Al Al 0.382431 0.509347 0.579549 2.01273
Al Al 0.382165 0.764536 0.591982 2.01273
Al Al 0.555692 0.518487 0.584735 2.01273
Al Al 0.549642 0.771308 0.580559 2.01273
Al Al 0.418754 0.00134145 0.495582 1.93658
Al Al 0.418994 0.751397 0.504701 1.93658
Al Al 0.583153 1.00055 0.504763 1.93658
Al Al 0.587292 0.753855 0.49384 1.93658
Al Al 0.414235 0.497934 0.329819 1.93658
Al Al 0.418389 0.751938 0.335142 1.93658
Al Al 0.585676 0.50141 0.670424 1.93658
Al Al 0.578402 0.748736 0.664326 1.93658
P_ P_ 0.498099 0.705621 0.481257 1.70002
P_ P_ 0.497319 0.954898 0.479529 1.70002
P_ P_ 0.659932 0.703023 0.481811 1.70002
P_ P_ 0.664901 0.957116 0.478551 1.70002
P_ P_ 0.341266 0.545567 0.643382 1.70002
P_ P_ 0.333926 0.796443 0.651437 1.70002
P_ P_ 0.505046 0.544915 0.648553 1.70002
P_ P_ 0.503557 0.7984 0.647999 1.70002
P_ P_ 0.339548 0.54914 0.515391 1.70002
P_ P_ 0.340401 0.797444 0.525035 1.70002
P_ P_ 0.509865 0.546384 0.517424 1.70002
P_ P_ 0.502965 0.799675 0.516544 1.70002
P_ P_ 0.495174 0.701743 0.355047 1.70002
P_ P_ 0.50199 0.957061 0.35141 1.70002
P_ P_ 0.663507 0.703844 0.35547 1.70002
P_ P_ 0.662144 0.953706 0.35412 1.70002
H_ H_ 0.524082 0.64856 0.461306 0.16322
H_ H_ 0.530726 0.893387 0.465705 0.16322
H_ H_ 0.695619 0.638629 0.473881 0.16322
H_ H_ 0.687545 0.897289 0.457141 0.16322
H_ H_ 0.466579 0.64461 0.466817 0.16322
H_ H_ 0.474228 0.886807 0.472117 0.16322
H_ H_ 0.635081 0.634177 0.473029 0.16322
H_ H_ 0.632216 0.893899 0.47761 0.16322
H_ H_ 0.303662 0.606649 0.300988 0.16322
H_ H_ 0.316898 0.860856 0.298139 0.16322
H_ H_ 0.464237 0.601252 0.305706 0.16322
H_ H_ 0.472634 0.856618 0.30092 0.16322
H_ H_ 0.36093 0.616284 0.305489 0.16322
H_ H_ 0.378091 0.856045 0.311848 0.16322
H_ H_ 0.52279 0.612502 0.296954 0.16322
H_ H_ 0.533402 0.863649 0.305882 0.16322
H_ H_ 0.29498 0.605595 0.506128 0.16322
H_ H_ 0.322732 0.863751 0.539013 0.16322
H_ H_ 0.493736 0.611192 0.53256 0.16322
H_ H_ 0.481828 0.868272 0.538248 0.16322
H_ H_ 0.338467 0.608075 0.537957 0.16322
H_ H_ 0.377657 0.860584 0.521115 0.16322
H_ H_ 0.547378 0.607261 0.512773 0.16322
H_ H_ 0.539029 0.859835 0.526876 0.16322
H_ H_ 0.532008 0.645973 0.69485 0.16322
H_ H_ 0.525707 0.89293 0.705775 0.16322
H_ H_ 0.684391 0.64154 0.708818 0.16322
H_ H_ 0.672507 0.888934 0.708345 0.16322
H_ H_ 0.470622 0.638835 0.69673 0.16322
H_ H_ 0.465905 0.894434 0.702673 0.16322
H_ H_ 0.628463 0.639416 0.696262 0.16322
H_ H_ 0.624316 0.894966 0.684784 0.16322
C_ C_ 0.498932 0.646738 0.482445 -0.4819
C_ C_ 0.503555 0.896686 0.486446 -0.4819
C_ C_ 0.665842 0.645956 0.490908 -0.4819
C_ C_ 0.668126 0.898959 0.484026 -0.4819
C_ C_ 0.331378 0.606145 0.319678 -0.4819
C_ C_ 0.342841 0.857435 0.320572 -0.4819
C_ C_ 0.498582 0.603866 0.318849 -0.4819
C_ C_ 0.501833 0.855639 0.320005 -0.4819
C_ C_ 0.333894 0.606965 0.509792 -0.4819
C_ C_ 0.341246 0.856121 0.513515 -0.4819
C_ C_ 0.510355 0.604778 0.506968 -0.4819
C_ C_ 0.505855 0.858456 0.515609 -0.4819
C_ C_ 0.499135 0.646213 0.679806 -0.4819
C_ C_ 0.49648 0.897021 0.685344 -0.4819
C_ C_ 0.660852 0.643051 0.684455 -0.4819
C_ C_ 0.661975 0.896551 0.681219 -0.4819
O_ O_ 0.454103 0.717716 0.499924 -0.96514
O_ O_ 0.456447 0.968462 0.50188 -0.96514
O_ O_ 0.623665 0.721674 0.50501 -0.96514
O_ O_ 0.619646 0.96578 0.497578 -0.96514
O_ O_ 0.375568 0.733031 0.479217 -0.96514
O_ O_ 0.375101 0.969151 0.500613 -0.96514
O_ O_ 0.543284 0.72474 0.49877 -0.96514
O_ O_ 0.543532 0.977376 0.477891 -0.96514
O_ O_ 0.498973 0.721289 0.441604 -0.96514
O_ O_ 0.479497 0.950854 0.440136 -0.96514
O_ O_ 0.642459 0.701526 0.442628 -0.96514
O_ O_ 0.666608 0.978616 0.441533 -0.96514
O_ O_ 0.378771 0.534489 0.332227 -0.96514
O_ O_ 0.376631 0.781745 0.337586 -0.96514
O_ O_ 0.54651 0.53572 0.334925 -0.96514
O_ O_ 0.546529 0.780452 0.333024 -0.96514
O_ O_ 0.459329 0.528226 0.334794 -0.96514
O_ O_ 0.460367 0.775342 0.31048 -0.96514
O_ O_ 0.626423 0.524923 0.309776 -0.96514
O_ O_ 0.628902 0.778811 0.339066 -0.96514
O_ O_ 0.367527 0.548077 0.607089 -0.96514
O_ O_ 0.337733 0.7863 0.610574 -0.96514
O_ O_ 0.509096 0.528506 0.610004 -0.96514
O_ O_ 0.524272 0.802487 0.608966 -0.96514
O_ O_ 0.381693 0.534027 0.496794 -0.96514
O_ O_ 0.378477 0.783489 0.499083 -0.96514
O_ O_ 0.543685 0.526803 0.492334 -0.96514
O_ O_ 0.546446 0.785495 0.495857 -0.96514
O_ O_ 0.463863 0.522666 0.52082 -0.96514
O_ O_ 0.460643 0.783372 0.497282 -0.96514
O_ O_ 0.628538 0.527952 0.496843 -0.96514
O_ O_ 0.624921 0.781476 0.519611 -0.96514
O_ O_ 0.340341 0.530975 0.554461 -0.96514
O_ O_ 0.360236 0.799139 0.564143 -0.96514
O_ O_ 0.536795 0.551683 0.552552 -0.96514
O_ O_ 0.503243 0.7846 0.556103 -0.96514
O_ O_ 0.452923 0.722491 0.66717 -0.96514
O_ O_ 0.45378 0.962308 0.67082 -0.96514
O_ O_ 0.617474 0.715266 0.667924 -0.96514
O_ O_ 0.622801 0.970126 0.663853 -0.96514
O_ O_ 0.370668 0.722392 0.67031 -0.96514
O_ O_ 0.375077 0.977386 0.689256 -0.96514
O_ O_ 0.538004 0.727379 0.689603 -0.96514
O_ O_ 0.540363 0.971127 0.667271 -0.96514
O_ O_ 0.472803 0.699584 0.39347 -0.96514
O_ O_ 0.499181 0.967846 0.392578 -0.96514
O_ O_ 0.664275 0.723853 0.393119 -0.96514
O_ O_ 0.644058 0.952434 0.39383 -0.96514
F_ F_ 0.418482 0.736713 0.457534 -0.6238
F_ F_ 0.434661 0.0128494 0.452084 -0.6238
F_ F_ 0.611 0.767256 0.453976 -0.6238
F_ F_ 0.585343 0.985029 0.457013 -0.6238
F_ F_ 0.408935 0.486679 0.617647 -0.6238
F_ F_ 0.415517 0.772924 0.628551 -0.6238
F_ F_ 0.586407 0.519039 0.625338 -0.6238
F_ F_ 0.563614 0.744688 0.620701 -0.6238
F_ F_ 0.419151 0.512625 0.540227 -0.6238
F_ F_ 0.401103 0.740956 0.550662 -0.6238
F_ F_ 0.564434 0.485113 0.544756 -0.6238
F_ F_ 0.583163 0.767995 0.538745 -0.6238
F_ F_ 0.435807 0.760682 0.378147 -0.6238
F_ F_ 0.415575 0.974926 0.375775 -0.6238
F_ F_ 0.582904 0.73376 0.375933 -0.6238
F_ F_ 0.608827 0.0159307 0.378588 -0.6238
Al Al 0.450404 0.735392 0.752662 2.01273
Al Al 0.453089 0.987167 0.748939 2.01273
Al Al 0.61664 0.737093 0.746368 2.01273
Al Al 0.616002 0.985337 0.752606 2.01273
Al Al 0.381406 0.51714 0.916869 2.01273
Al Al 0.383931 0.766498 0.91804 2.01273
Al Al 0.54638 0.518744 0.918773 2.01273
Al Al 0.545925 0.764163 0.912563 2.01273
Al Al 0.416236 0.00318285 0.830948 1.93658
Al Al 0.413974 0.75034 0.838171 1.93658
Al Al 0.58474 -0.0011269999999999891 0.834071 1.93658
Al Al 0.583414 0.748743 0.828422 1.93658
Al Al 0.418981 0.49811 0.661628 1.93658
Al Al 0.415131 0.753333 0.673925 1.93658
Al Al 0.584468 0.502814 0.00386185 1.93658
Al Al 0.580422 0.749486 0.994647 1.93658
P_ P_ 0.495881 0.704685 0.813833 1.70002
P_ P_ 0.493858 0.952328 0.814307 1.70002
P_ P_ 0.663558 0.702653 0.811879 1.70002
P_ P_ 0.665488 0.951378 0.813386 1.70002
P_ P_ 0.336256 0.546681 0.982731 1.70002
P_ P_ 0.336467 0.794959 0.978392 1.70002
P_ P_ 0.500314 0.549187 0.981659 1.70002
P_ P_ 0.504802 0.799346 0.979257 1.70002
P_ P_ 0.335552 0.545762 0.850895 1.70002
P_ P_ 0.337969 0.797942 0.851836 1.70002
P_ P_ 0.504045 0.549334 0.852894 1.70002
P_ P_ 0.50144 0.795096 0.85043 1.70002
P_ P_ 0.491877 0.703873 0.688879 1.70002
P_ P_ 0.498834 0.954717 0.688063 1.70002
P_ P_ 0.661322 0.7019 0.686541 1.70002
P_ P_ 0.660968 0.954437 0.686764 1.70002
H_ H_ 0.515917 0.638345 0.796324 0.16322
H_ H_ 0.531374 0.895624 0.80933 0.16322
H_ H_ 0.708694 0.652472 0.826438 0.16322
H_ H_ 0.687257 0.890143 0.79647 0.16322
H_ H_ 0.457472 0.642954 0.80403 0.16322
H_ H_ 0.471902 0.884754 0.8051 0.16322
H_ H_ 0.671077 0.632007 0.794391 0.16322
H_ H_ 0.629017 0.888759 0.808177 0.16322
H_ H_ 0.30137 0.603557 0.63131 0.16322
H_ H_ 0.288852 0.846532 0.672726 0.16322
H_ H_ 0.474029 0.603945 0.635247 0.16322
H_ H_ 0.463719 0.848517 0.655519 0.16322
H_ H_ 0.363142 0.610154 0.630538 0.16322
H_ H_ 0.325649 0.858352 0.631905 0.16322
H_ H_ 0.533719 0.605701 0.636189 0.16322
H_ H_ 0.515956 0.868838 0.63507 0.16322
H_ H_ 0.303789 0.604229 0.873018 0.16322
H_ H_ 0.290889 0.854237 0.845447 0.16322
H_ H_ 0.462086 0.601891 0.861147 0.16322
H_ H_ 0.47074 0.858573 0.868323 0.16322
H_ H_ 0.362694 0.6073 0.87095 0.16322
H_ H_ 0.33986 0.864618 0.871974 0.16322
H_ H_ 0.519649 0.619373 0.867093 0.16322
H_ H_ 0.530413 0.856331 0.865368 0.16322
H_ H_ 0.547013 0.655497 0.0015199999999999658 0.16322
H_ H_ 0.512886 0.892561 0.0358056 0.16322
H_ H_ 0.700876 0.644498 0.0289783 0.16322
H_ H_ 0.695019 0.894009 0.0330645 0.16322
H_ H_ 0.508757 0.641319 0.0344915 0.16322
H_ H_ 0.455538 0.89671 0.0269401 0.16322
H_ H_ 0.638134 0.644314 0.033272 0.16322
H_ H_ 0.635175 0.886273 0.0273692 0.16322
C_ C_ 0.490245 0.646057 0.816318 -0.4819
C_ C_ 0.499408 0.894944 0.824321 -0.4819
C_ C_ 0.670767 0.646542 0.82212 -0.4819
C_ C_ 0.663168 0.894121 0.819916 -0.4819
C_ C_ 0.334221 0.603165 0.649404 -0.4819
C_ C_ 0.32283 0.853844 0.662099 -0.4819
C_ C_ 0.503427 0.601801 0.65422 -0.4819
C_ C_ 0.499929 0.85532 0.659726 -0.4819
C_ C_ 0.331298 0.604783 0.854011 -0.4819
C_ C_ 0.328694 0.855435 0.843524 -0.4819
C_ C_ 0.496568 0.607263 0.846377 -0.4819
C_ C_ 0.499306 0.853481 0.849289 -0.4819
C_ C_ 0.510688 0.650426 0.00724508 -0.4819
C_ C_ 0.489017 0.896849 0.0123327 -0.4819
C_ C_ 0.668164 0.649297 0.0143537 -0.4819
C_ C_ 0.66486 0.894008 0.0132522 -0.4819
O_ O_ 0.450917 0.717772 0.828965 -0.96514
O_ O_ 0.45211 0.968017 0.834506 -0.96514
O_ O_ 0.622466 0.716042 0.834047 -0.96514
O_ O_ 0.620154 0.96336 0.829235 -0.96514
O_ O_ 0.374011 0.727553 0.814644 -0.96514
O_ O_ 0.373516 0.973037 0.836037 -0.96514
O_ O_ 0.539767 0.719312 0.83315 -0.96514
O_ O_ 0.540796 0.976742 0.813036 -0.96514
O_ O_ 0.494767 0.720519 0.774231 -0.96514
O_ O_ 0.473107 0.950555 0.776558 -0.96514
O_ O_ 0.640079 0.700709 0.773795 -0.96514
O_ O_ 0.661416 0.971363 0.776113 -0.96514
O_ O_ 0.378281 0.528358 0.666863 -0.96514
O_ O_ 0.377295 0.785693 0.671235 -0.96514
O_ O_ 0.551421 0.537936 0.664974 -0.96514
O_ O_ 0.544444 0.78409 0.669573 -0.96514
O_ O_ 0.463145 0.528538 0.66996 -0.96514
O_ O_ 0.457767 0.772282 0.649414 -0.96514
O_ O_ 0.627934 0.520972 0.646271 -0.96514
O_ O_ 0.623993 0.779265 0.667152 -0.96514
O_ O_ 0.354699 0.550107 0.943933 -0.96514
O_ O_ 0.336819 0.776296 0.940309 -0.96514
O_ O_ 0.500194 0.535143 0.943073 -0.96514
O_ O_ 0.518676 0.80015 0.937681 -0.96514
O_ O_ 0.382839 0.537441 0.834106 -0.96514
O_ O_ 0.373885 0.778783 0.827914 -0.96514
O_ O_ 0.549445 0.534512 0.834521 -0.96514
O_ O_ 0.545933 0.781851 0.833604 -0.96514
O_ O_ 0.459141 0.52395 0.856398 -0.96514
O_ O_ 0.458675 0.778857 0.830422 -0.96514
O_ O_ 0.623932 0.530603 0.833964 -0.96514
O_ O_ 0.624349 0.771216 0.85356 -0.96514
O_ O_ 0.336302 0.530184 0.891671 -0.96514
O_ O_ 0.361549 0.799386 0.889393 -0.96514
O_ O_ 0.525235 0.553766 0.892034 -0.96514
O_ O_ 0.499436 0.772891 0.888433 -0.96514
O_ O_ 0.459176 0.72064 0.997715 -0.96514
O_ O_ 0.453183 0.970095 -0.002646000000000037 -0.96514
O_ O_ 0.618843 0.715222 1.000375814 -0.96514
O_ O_ 0.616037 0.965676 1.00216 -0.96514
O_ O_ 0.374385 0.720755 -0.0002969999999999917 -0.96514
O_ O_ 0.372968 0.974983 0.0201844 -0.96514
O_ O_ 0.540392 0.732739 0.0209237 -0.96514
O_ O_ 0.539051 0.968535 -0.0017449999999999966 -0.96514
O_ O_ 0.469055 0.700196 0.726289 -0.96514
O_ O_ 0.495632 0.968866 0.726472 -0.96514
O_ O_ 0.660839 0.720845 0.725065 -0.96514
O_ O_ 0.642171 0.952758 0.726956 -0.96514
F_ F_ 0.415438 0.739712 0.791914 -0.6238
F_ F_ 0.434096 0.0135049 0.789236 -0.6238
F_ F_ 0.607134 0.761961 0.789046 -0.6238
F_ F_ 0.58377 0.978494 0.790928 -0.6238
F_ F_ 0.393804 0.489382 0.956045 -0.6238
F_ F_ 0.419575 0.771492 0.957685 -0.6238
F_ F_ 0.584538 0.519781 0.957201 -0.6238
F_ F_ 0.556446 0.736592 0.954189 -0.6238
F_ F_ 0.418367 0.518 0.876516 -0.6238
F_ F_ 0.392315 0.737576 0.878629 -0.6238
F_ F_ 0.559133 0.488819 0.881127 -0.6238
F_ F_ 0.581166 0.766345 0.87352 -0.6238
F_ F_ 0.43611 0.762882 0.714388 -0.6238
F_ F_ 0.422478 0.982248 0.708263 -0.6238
F_ F_ 0.581755 0.730852 0.708404 -0.6238
F_ F_ 0.604491 0.0127118 0.710274 -0.6238
Al Al 0.781614 0.230858 0.0853713 2.01273
Al Al 0.788136 0.485661 0.0803462 2.01273
Al Al 0.947852 0.234294 0.0825462 2.01273
Al Al 0.954972 0.486966 0.0899281 2.01273
Al Al 0.716161 0.0160588 0.245998 2.01273
Al Al 0.718028 0.268515 0.252046 2.01273
Al Al 0.882018 0.0155765 0.253105 2.01273
Al Al 0.883788 0.263404 0.249142 2.01273
Al Al 0.754507 0.50118 0.165361 1.93658
Al Al 0.74235 0.248032 0.172282 1.93658
Al Al 0.9176 0.498121 0.170509 1.93658
Al Al 0.919966 0.254114 0.161709 1.93658
Al Al 0.747217 0.997567 -0.0041560000000000485 1.93658
Al Al 0.750767 0.251406 0.00189144 1.93658
Al Al 0.918453 0.00327661 0.336151 1.93658
Al Al 0.913026 0.248924 0.330292 1.93658
P_ P_ 0.828395 0.204692 0.149665 1.70002
P_ P_ 0.829621 0.449211 0.146644 1.70002
P_ P_ 0.990029 0.201113 0.148075 1.70002
P_ P_ 0.998275 0.452966 0.151484 1.70002
P_ P_ 0.673845 0.0483479 0.311656 1.70002
P_ P_ 0.668846 0.29713 0.31263 1.70002
P_ P_ 0.834683 0.0461346 0.315245 1.70002
P_ P_ 0.837045 0.298877 0.315459 1.70002
P_ P_ 0.670127 0.0454114 0.184677 1.70002
P_ P_ 0.66736 0.298372 0.187677 1.70002
P_ P_ 0.838203 0.048764 0.187839 1.70002
P_ P_ 0.833876 0.29599 0.188057 1.70002
P_ P_ 0.825143 0.201817 0.0190067 1.70002
P_ P_ 0.833282 0.450368 0.0164638 1.70002
P_ P_ -0.002487000000000017 0.202155 0.0205762 1.70002
P_ P_ 0.994254 0.451465 0.0220755 1.70002
H_ H_ 0.851086 0.141594 0.135043 0.16322
H_ H_ 0.855778 0.383042 0.129152 0.16322
H_ H_ 0.0219823 0.139413 0.134699 0.16322
H_ H_ 0.0230496 0.397221 0.131602 0.16322
H_ H_ 0.795149 0.142177 0.136544 0.16322
H_ H_ 0.797467 0.384771 0.146193 0.16322
H_ H_ 0.964195 0.135651 0.13674 0.16322
H_ H_ 0.968224 0.395297 0.137761 0.16322
H_ H_ 0.642203 0.104266 0.966254 0.16322
H_ H_ 0.639597 0.357511 0.965995 0.16322
H_ H_ 0.786212 0.106057 0.986231 0.16322
H_ H_ 0.816991 0.362792 0.959129 0.16322
H_ H_ 0.700005 0.106477 0.975559 0.16322
H_ H_ 0.700714 0.354972 0.974468 0.16322
H_ H_ 0.835635 0.109884 0.955909 0.16322
H_ H_ 0.869081 0.358787 0.971116 0.16322
H_ H_ 0.645108 0.109411 0.204879 0.16322
H_ H_ 0.628665 0.35539 0.194317 0.16322
H_ H_ 0.804756 0.109843 0.19953 0.16322
H_ H_ 0.81615 0.359404 0.205463 0.16322
H_ H_ 0.701809 0.108244 0.194226 0.16322
H_ H_ 0.684623 0.363648 0.199295 0.16322
H_ H_ 0.864144 0.1183 0.1938 0.16322
H_ H_ 0.871758 0.354213 0.194654 0.16322
H_ H_ 0.854521 0.142535 0.365054 0.16322
H_ H_ 0.856137 0.398397 0.36764 0.16322
H_ H_ 0.0272355 0.141573 0.368857 0.16322
H_ H_ 0.0247198 0.391092 0.358849 0.16322
H_ H_ 0.799155 0.137408 0.354027 0.16322
H_ H_ 0.80122 0.394888 0.364424 0.16322
H_ H_ 0.965552 0.144134 0.36436 0.16322
H_ H_ 0.963613 0.388315 0.354005 0.16322
C_ C_ 0.825814 0.146957 0.153538 -0.4819
C_ C_ 0.83363 0.391738 0.153976 -0.4819
C_ C_ -0.006884000000000001 0.142395 0.154475 -0.4819
C_ C_ 0.99830399 0.396244 0.15381 -0.4819
C_ C_ 0.667086 0.102649 0.98779 -0.4819
C_ C_ 0.666573 0.35333 0.986969 -0.4819
C_ C_ 0.823598 0.105107 0.983061 -0.4819
C_ C_ 0.836376 0.354206 0.983201 -0.4819
C_ C_ 0.669083 0.103982 0.182235 -0.4819
C_ C_ 0.660376 0.354973 0.179303 -0.4819
C_ C_ 0.831547 0.107819 0.180268 -0.4819
C_ C_ 0.837675 0.354296 0.182534 -0.4819
C_ C_ 0.830391 0.144582 0.34094 -0.4819
C_ C_ 0.830432 0.399895 0.346333 -0.4819
C_ C_ 0.997955 0.145261 0.348202 -0.4819
C_ C_ 0.99658222 0.395677 0.339864 -0.4819
O_ O_ 0.784687 0.217434 0.168127 -0.96514
O_ O_ 0.789669 0.463459 0.168659 -0.96514
O_ O_ 0.949551 0.216448 0.169755 -0.96514
O_ O_ 0.950852 0.461041 0.165551 -0.96514
O_ O_ 0.702263 0.227245 0.146814 -0.96514
O_ O_ 0.711541 0.469782 0.169367 -0.96514
O_ O_ 0.872643 0.225068 0.164695 -0.96514
O_ O_ 0.874919 0.474652 0.148121 -0.96514
O_ O_ 0.825368 0.219053 0.110632 -0.96514
O_ O_ 0.81184 0.452617 0.107825 -0.96514
O_ O_ 0.969836 0.199042 0.108818 -0.96514
O_ O_ 0.999443622 0.469946 0.112432 -0.96514
O_ O_ 0.708117 0.0304299 0.00258232 -0.96514
O_ O_ 0.711429 0.28308 0.00405656 -0.96514
O_ O_ 0.877375 0.0352335 0.99602239 -0.96514
O_ O_ 0.875953 0.280991 0.0032000000000000917 -0.96514
O_ O_ 0.789515 0.0298763 0.0007999999999999119 -0.96514
O_ O_ 0.786309 0.280639 0.979709 -0.96514
O_ O_ 0.959503 0.0231015 0.977469 -0.96514
O_ O_ 0.958336 0.280277 -0.000673228 -0.96514
O_ O_ 0.690675 0.0514074 0.272038 -0.96514
O_ O_ 0.670517 0.276871 0.2754 -0.96514
O_ O_ 0.834328 0.0274156 0.277143 -0.96514
O_ O_ 0.854398 0.295997 0.275782 -0.96514
O_ O_ 0.714141 0.0349965 0.164648 -0.96514
O_ O_ 0.708401 0.2838 0.168144 -0.96514
O_ O_ 0.880343 0.0322205 0.168858 -0.96514
O_ O_ 0.876137 0.283537 0.167989 -0.96514
O_ O_ 0.794282 0.0213162 0.185694 -0.96514
O_ O_ 0.787467 0.279361 0.170736 -0.96514
O_ O_ 0.957532 0.0247163 0.168868 -0.96514
O_ O_ 0.957505 0.270754 0.187939 -0.96514
O_ O_ 0.669569 0.0257764 0.222611 -0.96514
O_ O_ 0.685869 0.298547 0.227785 -0.96514
O_ O_ 0.858978 0.0501795 0.226672 -0.96514
O_ O_ 0.836419 0.279284 0.226935 -0.96514
O_ O_ 0.786306 0.218177 0.334232 -0.96514
O_ O_ 0.788837 0.470264 0.330251 -0.96514
O_ O_ 0.952637 0.212972 0.332817 -0.96514
O_ O_ 0.954719 0.470785 0.329972 -0.96514
O_ O_ 0.709669 0.219621 0.334041 -0.96514
O_ O_ 0.710298 0.47265 0.351197 -0.96514
O_ O_ 0.871918 0.229252 0.356908 -0.96514
O_ O_ 0.876516 0.472189 0.330919 -0.96514
O_ O_ 0.806822 0.197377 0.057849 -0.96514
O_ O_ 0.830076 0.467606 0.0551448 -0.96514
O_ O_ 0.993279 0.219181 0.0586718 -0.96514
O_ O_ 0.976595 0.450484 0.0608544 -0.96514
F_ F_ 0.746455 0.234909 0.125211 -0.6238
F_ F_ 0.772762 0.511574 0.12101 -0.6238
F_ F_ 0.943372 0.263594 0.122543 -0.6238
F_ F_ 0.916488 0.477099 0.125852 -0.6238
F_ F_ 0.727362 0.983943 0.284782 -0.6238
F_ F_ 0.748639 0.262477 0.29195 -0.6238
F_ F_ 0.915202 0.0286913 0.292981 -0.6238
F_ F_ 0.887193 0.235353 0.291264 -0.6238
F_ F_ 0.748475 0.0132854 0.204216 -0.6238
F_ F_ 0.718856 0.233115 0.212988 -0.6238
F_ F_ 0.891575 0.984661 0.212423 -0.6238
F_ F_ 0.912844 0.262582 0.20712 -0.6238
F_ F_ 0.771062 0.258121 0.0458943 -0.6238
F_ F_ 0.750439 0.482305 0.0445653 -0.6238
F_ F_ 0.915101 0.232316 0.0421373 -0.6238
F_ F_ 0.937472 0.507995 0.0471836 -0.6238
Al Al 0.78532 0.236704 0.420414 2.01273
Al Al 0.784088 0.48674 0.411321 2.01273
Al Al 0.952283 0.235936 0.41134 2.01273
Al Al 0.952761 0.483442 0.416605 2.01273
Al Al 0.720849 0.0175046 0.584283 2.01273
Al Al 0.715316 0.262875 0.587782 2.01273
Al Al 0.886421 0.0168317 0.585147 2.01273
Al Al 0.880907 0.261954 0.58054 2.01273
Al Al 0.750678 0.502387 0.495764 1.93658
Al Al 0.749027 0.2472 0.50667 1.93658
Al Al 0.916252 0.498532 0.502452 1.93658
Al Al 0.916008 0.248047 0.499798 1.93658
Al Al 0.746689 0.996013 0.329564 1.93658
Al Al 0.75131 0.255265 0.338163 1.93658
Al Al 0.916517 0.00376802 0.671071 1.93658
Al Al 0.915005 0.246432 0.663928 1.93658
P_ P_ 0.831327 0.203193 0.482412 1.70002
P_ P_ 0.830223 0.454828 0.477611 1.70002
P_ P_ 0.995322 0.200259 0.478458 1.70002
P_ P_ 0.999216526 0.453106 0.480365 1.70002
P_ P_ 0.672501 0.0468042 0.648018 1.70002
P_ P_ 0.668804 0.297479 0.648546 1.70002
P_ P_ 0.835385 0.0454645 0.646916 1.70002
P_ P_ 0.84215 0.295723 0.648479 1.70002
P_ P_ 0.672159 0.0485028 0.521842 1.70002
P_ P_ 0.672698 0.297514 0.521229 1.70002
P_ P_ 0.840358 0.047468 0.52072 1.70002
P_ P_ 0.832951 0.29371 0.518962 1.70002
P_ P_ 0.827152 0.202434 0.353554 1.70002
P_ P_ 0.831507 0.458381 0.348881 1.70002
P_ P_ 0.999466 0.205164 0.350438 1.70002
P_ P_ 0.99234 0.451011 0.351346 1.70002
H_ H_ 0.857903 0.141079 0.457335 0.16322
H_ H_ 0.838938 0.390221 0.458792 0.16322
H_ H_ 1.0367649 0.145014 0.483236 0.16322
H_ H_ 0.0323941 0.398536 0.463996 0.16322
H_ H_ 0.800049 0.137958 0.469415 0.16322
H_ H_ 0.792034 0.39884 0.485615 0.16322
H_ H_ 0.986363 0.133353 0.464388 0.16322
H_ H_ 0.972838 0.391695 0.46212 0.16322
H_ H_ 0.638471 0.106915 0.303687 0.16322
H_ H_ 0.634073 0.351838 0.297763 0.16322
H_ H_ 0.807785 0.103418 0.298056 0.16322
H_ H_ 0.813563 0.361356 0.29254 0.16322
H_ H_ 0.699212 0.114531 0.306057 0.16322
H_ H_ 0.688127 0.365549 0.290829 0.16322
H_ H_ 0.867735 0.107224 0.30494 0.16322
H_ H_ 0.868887 0.362818 0.308685 0.16322
H_ H_ 0.642898 0.108626 0.537782 0.16322
H_ H_ 0.636169 0.348765 0.525959 0.16322
H_ H_ 0.817075 0.10615 0.531481 0.16322
H_ H_ 0.825185 0.362322 0.539233 0.16322
H_ H_ 0.698497 0.113948 0.532397 0.16322
H_ H_ 0.691402 0.367108 0.534435 0.16322
H_ H_ 0.877761 0.105997 0.515719 0.16322
H_ H_ 0.875605 0.356477 0.513642 0.16322
H_ H_ 0.85248 0.143792 0.699895 0.16322
H_ H_ 0.853232 0.390478 0.70513 0.16322
H_ H_ 0.0270339 0.148551 0.70576 0.16322
H_ H_ 0.0137849 0.386994 0.701962 0.16322
H_ H_ 0.798271 0.142097 0.686769 0.16322
H_ H_ 0.795542 0.390809 0.689163 0.16322
H_ H_ 0.968244 0.140364 0.702494 0.16322
H_ H_ 0.958863 0.388278 0.687759 0.16322
C_ C_ 0.834439 0.144542 0.480831 -0.4819
C_ C_ 0.82772 0.397249 0.487458 -0.4819
C_ C_ 0.999063892 0.143144 0.490222 -0.4819
C_ C_ 1.00326 0.395378 0.481848 -0.4819
C_ C_ 0.669367 0.104698 0.321331 -0.4819
C_ C_ 0.66653 0.355618 0.314451 -0.4819
C_ C_ 0.834978 0.102362 0.317282 -0.4819
C_ C_ 0.83358 0.358923 0.318208 -0.4819
C_ C_ 0.668322 0.106152 0.516966 -0.4819
C_ C_ 0.668278 0.353541 0.51247 -0.4819
C_ C_ 0.840606 0.103494 0.509536 -0.4819
C_ C_ 0.838491 0.353636 0.511498 -0.4819
C_ C_ 0.83069 0.145482 0.677389 -0.4819
C_ C_ 0.831414 0.394394 0.68066 -0.4819
C_ C_ 0.99813149 0.145937 0.686959 -0.4819
C_ C_ 0.992376 0.393885 0.677049 -0.4819
O_ O_ 0.782391 0.211083 0.497037 -0.96514
O_ O_ 0.792123 0.471703 0.501242 -0.96514
O_ O_ 0.959315 0.219289 0.505247 -0.96514
O_ O_ 0.956243 0.468019 0.501439 -0.96514
O_ O_ 0.704069 0.229812 0.48296 -0.96514
O_ O_ 0.705029 0.470447 0.501644 -0.96514
O_ O_ 0.873444 0.218516 0.505404 -0.96514
O_ O_ 0.878613 0.473405 0.478378 -0.96514
O_ O_ 0.832503 0.224946 0.445375 -0.96514
O_ O_ 0.812691 0.453759 0.437019 -0.96514
O_ O_ 0.973383 0.200203 0.440908 -0.96514
O_ O_ -0.0017179999999999973 0.470747 0.44132 -0.96514
O_ O_ 0.71774 0.0340094 0.327568 -0.96514
O_ O_ 0.710259 0.284678 0.332892 -0.96514
O_ O_ 0.878646 0.0348739 0.336274 -0.96514
O_ O_ 0.875399 0.2803 0.336363 -0.96514
O_ O_ 0.790134 0.0283865 0.333203 -0.96514
O_ O_ 0.791791 0.275339 0.31416 -0.96514
O_ O_ 0.962085 0.018226 0.310962 -0.96514
O_ O_ 0.956826 0.279201 0.33238 -0.96514
O_ O_ 0.698716 0.0513453 0.612168 -0.96514
O_ O_ 0.670229 0.277888 0.610655 -0.96514
O_ O_ 0.83962 0.0278487 0.609204 -0.96514
O_ O_ 0.863524 0.29618 0.610495 -0.96514
O_ O_ 0.716034 0.038779 0.505397 -0.96514
O_ O_ 0.70776 0.275182 0.496772 -0.96514
O_ O_ 0.8815 0.0317187 0.499763 -0.96514
O_ O_ 0.876838 0.279515 0.499231 -0.96514
O_ O_ 0.794499 0.0243445 0.521235 -0.96514
O_ O_ 0.786796 0.281914 0.503173 -0.96514
O_ O_ 0.960092 0.0294076 0.500495 -0.96514
O_ O_ 0.958721 0.272238 0.522325 -0.96514
O_ O_ 0.676697 0.033833 0.561657 -0.96514
O_ O_ 0.695823 0.298152 0.558575 -0.96514
O_ O_ 0.85878 0.0496623 0.561179 -0.96514
O_ O_ 0.837159 0.277644 0.558174 -0.96514
O_ O_ 0.785368 0.217777 0.663997 -0.96514
O_ O_ 0.78357 0.461241 0.667128 -0.96514
O_ O_ 0.953185 0.215077 0.668435 -0.96514
O_ O_ 0.957734 0.47056 0.662023 -0.96514
O_ O_ 0.707541 0.223098 0.667995 -0.96514
O_ O_ 0.710714 0.473657 0.68677 -0.96514
O_ O_ 0.870073 0.232714 0.688324 -0.96514
O_ O_ 0.872221 0.470687 0.666199 -0.96514
O_ O_ 0.807756 0.201978 0.391588 -0.96514
O_ O_ 0.828663 0.472685 0.388836 -0.96514
O_ O_ 0.999236 0.22377 0.388752 -0.96514
O_ O_ 0.972789 0.447615 0.389893 -0.96514
F_ F_ 0.75117 0.235106 0.459735 -0.6238
F_ F_ 0.7732 0.512513 0.453305 -0.6238
F_ F_ 0.931953 0.25535 0.456234 -0.6238
F_ F_ 0.923207 0.486737 0.457321 -0.6238
F_ F_ 0.724153 0.982554 0.621959 -0.6238
F_ F_ 0.749089 0.273435 0.626873 -0.6238
F_ F_ 0.914683 0.0140125 0.626342 -0.6238
F_ F_ 0.896667 0.235646 0.621561 -0.6238
F_ F_ 0.747889 0.0114609 0.543386 -0.6238
F_ F_ 0.732018 0.23757 0.547213 -0.6238
F_ F_ 0.897476 0.987277 0.547221 -0.6238
F_ F_ 0.916234 0.268127 0.541678 -0.6238
F_ F_ 0.770562 0.267658 0.381185 -0.6238
F_ F_ 0.748469 0.481911 0.374227 -0.6238
F_ F_ 0.916713 0.227839 0.374141 -0.6238
F_ F_ 0.93642 0.514239 0.380656 -0.6238
Al Al 0.778741 0.23108 0.748108 2.01273
Al Al 0.779799 0.480655 0.74895 2.01273
Al Al 0.952422 0.234414 0.746949 2.01273
Al Al 0.952158 0.483186 0.751357 2.01273
Al Al 0.718213 0.0136786 0.911921 2.01273
Al Al 0.710835 0.262594 0.917139 2.01273
Al Al 0.875782 0.0142879 0.919251 2.01273
Al Al 0.879696 0.258519 0.913211 2.01273
Al Al 0.753127 0.505566 0.829467 1.93658
Al Al 0.74627 0.246287 0.836849 1.93658
Al Al 0.915343 0.499899 0.837609 1.93658
Al Al 0.917268 0.250734 0.831248 1.93658
Al Al 0.74736 0.996345 0.662377 1.93658
Al Al 0.753677 0.253949 0.670471 1.93658
Al Al 0.916139 1.00264469 0.00287675 1.93658
Al Al 0.91573 0.248268 0.998875 1.93658
P_ P_ 0.829449 0.203108 0.810589 1.70002
P_ P_ 0.830067 0.454878 0.815545 1.70002
P_ P_ 0.992245 0.202287 0.813391 1.70002
P_ P_ 0.995549 0.453035 0.818363 1.70002
P_ P_ 0.671646 0.0454875 0.977529 1.70002
P_ P_ 0.670306 0.29525 0.982082 1.70002
P_ P_ 0.830358 0.0463741 0.981354 1.70002
P_ P_ 0.837216 0.295893 0.978983 1.70002
P_ P_ 0.668972 0.0442141 0.851046 1.70002
P_ P_ 0.668993 0.297962 0.853755 1.70002
P_ P_ 0.836906 0.0483407 0.854158 1.70002
P_ P_ 0.833301 0.296943 0.854253 1.70002
P_ P_ 0.827051 0.202337 0.684666 1.70002
P_ P_ 0.828505 0.453878 0.685432 1.70002
P_ P_ -0.00117746 0.203249 0.685547 1.70002
P_ P_ 0.993513 0.452311 0.685864 1.70002
H_ H_ 0.864377 0.143106 0.80104 0.16322
H_ H_ 0.863197 0.391588 0.805551 0.16322
H_ H_ 0.0215001 0.140096 0.802299 0.16322
H_ H_ 0.012189999999999923 0.393488 0.795146 0.16322
H_ H_ 0.801381 0.141079 0.802161 0.16322
H_ H_ 0.802882 0.393526 0.807349 0.16322
H_ H_ 0.96282 0.138516 0.812273 0.16322
H_ H_ 0.954004 0.390996 0.809991 0.16322
H_ H_ 0.649212 0.106845 0.633324 0.16322
H_ H_ 0.658108 0.363451 0.624396 0.16322
H_ H_ 0.814007 0.109119 0.629842 0.16322
H_ H_ 0.815117 0.358098 0.63218 0.16322
H_ H_ 0.70712 0.108462 0.652232 0.16322
H_ H_ 0.710169 0.355367 0.650155 0.16322
H_ H_ 0.867965 0.105987 0.639274 0.16322
H_ H_ 0.872019 0.357546 0.639363 0.16322
H_ H_ 0.636518 0.102408 0.865553 0.16322
H_ H_ 0.654561 0.362032 0.869621 0.16322
H_ H_ 0.806817 0.110778 0.864866 0.16322
H_ H_ 0.80951 0.355449 0.871534 0.16322
H_ H_ 0.697771 0.108141 0.86722 0.16322
H_ H_ 0.705936 0.356883 0.847677 0.16322
H_ H_ 0.865804 0.115943 0.861003 0.16322
H_ H_ 0.867045 0.360138 0.866692 0.16322
H_ H_ 0.872058 0.151086 0.006728 0.16322
H_ H_ 0.852327 0.387082 0.0352155 0.16322
H_ H_ 0.0254976 0.141006 1.0363291000000001 0.16322
H_ H_ 0.0192509 0.39021 0.0361269 0.16322
H_ H_ 0.8315 0.134791 0.0327405 0.16322
H_ H_ 0.798284 0.395248 0.0207499 0.16322
H_ H_ -0.03630699999999998 0.140197 0.0304746 0.16322
H_ H_ 0.963227 0.395215 0.0213389 0.16322
C_ C_ 0.831968 0.146909 0.816588 -0.4819
C_ C_ 0.834128 0.396813 0.824988 -0.4819
C_ C_ 0.995635 0.14466 0.825588 -0.4819
C_ C_ 0.989983 0.395417 0.818424 -0.4819
C_ C_ 0.670701 0.104779 0.658611 -0.4819
C_ C_ 0.673356 0.35541 0.652405 -0.4819
C_ C_ 0.83529 0.103106 0.653298 -0.4819
C_ C_ 0.838929 0.354078 0.654462 -0.4819
C_ C_ 0.667539 0.102415 0.848603 -0.4819
C_ C_ 0.670768 0.355782 0.843891 -0.4819
C_ C_ 0.833498 0.107517 0.845234 -0.4819
C_ C_ 0.835896 0.355001 0.849843 -0.4819
C_ C_ 0.835909 0.146341 0.00671022 -0.4819
C_ C_ 0.832467 0.393559 0.0110867 -0.4819
C_ C_ -0.00171668 0.144928 0.0158011 -0.4819
C_ C_ 0.998056 0.39408 0.0103522 -0.4819
O_ O_ 0.784632 0.214575 0.827896 -0.96514
O_ O_ 0.791024 0.472681 0.837508 -0.96514
O_ O_ 0.952088 0.214796 0.837891 -0.96514
O_ O_ 0.954008 0.468936 0.837503 -0.96514
O_ O_ 0.707403 0.224339 0.811295 -0.96514
O_ O_ 0.709652 0.47202 0.834401 -0.96514
O_ O_ 0.869896 0.221863 0.83368 -0.96514
O_ O_ 0.879388 0.471366 0.813032 -0.96514
O_ O_ 0.825896 0.222462 0.77205 -0.96514
O_ O_ 0.809028 0.452748 0.776513 -0.96514
O_ O_ 0.972174 0.197403 0.774268 -0.96514
O_ O_ 0.994151 0.468707 0.778663 -0.96514
O_ O_ 0.712324 0.0293877 0.67047 -0.96514
O_ O_ 0.710409 0.281536 0.669043 -0.96514
O_ O_ 0.878482 0.0365259 0.667599 -0.96514
O_ O_ 0.878263 0.2779 0.672679 -0.96514
O_ O_ 0.791891 0.0287075 0.665429 -0.96514
O_ O_ 0.797396 0.271109 0.646406 -0.96514
O_ O_ 0.958497 0.0261336 0.645269 -0.96514
O_ O_ 0.957386 0.27807 0.666126 -0.96514
O_ O_ 0.693257 0.046595 0.938795 -0.96514
O_ O_ 0.667115 0.277061 0.943229 -0.96514
O_ O_ 0.830266 0.0256205 0.942778 -0.96514
O_ O_ 0.857447 0.294303 0.939922 -0.96514
O_ O_ 0.7111 0.0328656 0.830014 -0.96514
O_ O_ 0.706453 0.278889 0.831523 -0.96514
O_ O_ 0.875189 0.0288172 0.833494 -0.96514
O_ O_ 0.872945 0.278252 0.834081 -0.96514
O_ O_ 0.792562 0.0220315 0.858962 -0.96514
O_ O_ 0.789732 0.278835 0.836792 -0.96514
O_ O_ 0.956794 0.0320191 0.834704 -0.96514
O_ O_ 0.959404 0.272959 0.85593 -0.96514
O_ O_ 0.671971 0.0238023 0.88813 -0.96514
O_ O_ 0.687342 0.298729 0.893549 -0.96514
O_ O_ 0.858049 0.0514796 0.892713 -0.96514
O_ O_ 0.833757 0.279326 0.893248 -0.96514
O_ O_ 0.781844 0.213797 -0.0017289999999999806 -0.96514
O_ O_ 0.788231 0.463573 0.996874 -0.96514
O_ O_ 0.95173 0.21358 0.00337752 -0.96514
O_ O_ 0.956999 0.469531 0.997905 -0.96514
O_ O_ 0.704871 0.221427 0.999841 -0.96514
O_ O_ 0.704346 0.480408 0.0214535 -0.96514
O_ O_ 0.869173 0.228548 0.0168106 -0.96514
O_ O_ 0.876013 0.468428 -0.003242999999999996 -0.96514
O_ O_ 0.805522 0.198498 0.722902 -0.96514
O_ O_ 0.825847 0.4718 0.724187 -0.96514
O_ O_ 0.997257 0.222565 0.724527 -0.96514
O_ O_ 0.973522 0.448246 0.725316 -0.96514
F_ F_ 0.749475 0.236298 0.79109 -0.6238
F_ F_ 0.77626 0.509764 0.78946 -0.6238
F_ F_ 0.932767 0.260996 0.786713 -0.6238
F_ F_ 0.919883 0.487421 0.794462 -0.6238
F_ F_ 0.72529 0.986334 0.952322 -0.6238
F_ F_ 0.747658 0.262815 0.954805 -0.6238
F_ F_ 0.91111 0.0189273 0.957094 -0.6238
F_ F_ 0.896705 0.238949 0.956797 -0.6238
F_ F_ 0.753722 0.0187334 0.875927 -0.6238
F_ F_ 0.720165 0.234492 0.875881 -0.6238
F_ F_ 0.892411 0.984454 0.880535 -0.6238
F_ F_ 0.914844 0.269316 0.875174 -0.6238
F_ F_ 0.774391 0.266269 0.712413 -0.6238
F_ F_ 0.752106 0.49645 0.708487 -0.6238
F_ F_ 0.918837 0.230702 0.709046 -0.6238
F_ F_ 0.942102 0.512351 0.712667 -0.6238
Al Al 0.786217 0.738391 0.0871732 2.01273
Al Al 0.776196 0.98365 0.08324 2.01273
Al Al 0.951289 0.733798 0.0778849 2.01273
Al Al 0.954663 0.986343 0.089723 2.01273
Al Al 0.715419 0.517055 0.245972 2.01273
Al Al 0.722101 0.77131 0.25196 2.01273
Al Al 0.879419 0.514553 0.254046 2.01273
Al Al 0.883729 0.761772 0.249001 2.01273
Al Al 0.751621 0.00213668 0.159666 1.93658
Al Al 0.748732 0.749882 0.170617 1.93658
Al Al 0.910517 0.995331 0.168737 1.93658
Al Al 0.919636 0.75348 0.162681 1.93658
Al Al 0.749422 0.497151 0.997625 1.93658
Al Al 0.751304 0.75237 0.00324132 1.93658
Al Al 0.917333 0.506062 0.336239 1.93658
Al Al 0.918703 0.74958 0.33253 1.93658
P_ P_ 0.83158 0.703397 0.149518 1.70002
P_ P_ 0.82365 0.950911 0.145521 1.70002
P_ P_ 0.993105 0.702231 0.145754 1.70002
P_ P_ 0.998903 0.951712 0.149906 1.70002
P_ P_ 0.673398 0.548299 0.313873 1.70002
P_ P_ 0.671336 0.796452 0.316635 1.70002
P_ P_ 0.835385 0.549607 0.313936 1.70002
P_ P_ 0.843122 0.79662 0.314979 1.70002
P_ P_ 0.668623 0.546561 0.184037 1.70002
P_ P_ 0.672524 0.800354 0.188042 1.70002
P_ P_ 0.842401 0.54582 0.18541 1.70002
P_ P_ 0.833184 0.793561 0.187406 1.70002
P_ P_ 0.825829 0.701982 0.0205175 1.70002
P_ P_ 0.827332 0.955014 0.0178412 1.70002
P_ P_ 0.996035 0.7014 0.0182574 1.70002
P_ P_ 0.993978 0.950567 0.0217696 1.70002
H_ H_ 0.871682 0.643976 0.144184 0.16322
H_ H_ 0.836133 0.888729 0.130098 0.16322
H_ H_ 0.0255846 0.642737 0.132706 0.16322
H_ H_ 0.0201695 0.887998 0.127204 0.16322
H_ H_ 0.8155 0.640368 0.131761 0.16322
H_ H_ 0.785683 0.892409 0.157513 0.16322
H_ H_ 0.964606 0.635721 0.138296 0.16322
H_ H_ 0.962534 0.891058 0.1401 0.16322
H_ H_ 0.636661 0.605941 0.971676 0.16322
H_ H_ 0.639691 0.856798 0.961248 0.16322
H_ H_ 0.821472 0.608357 0.96057 0.16322
H_ H_ 0.826342 0.868103 0.959905 0.16322
H_ H_ 0.693227 0.619642 0.965294 0.16322
H_ H_ 0.700549 0.861764 0.968226 0.16322
H_ H_ 0.872117 0.60034 0.985629 0.16322
H_ H_ 0.872523 0.859318 0.987876 0.16322
H_ H_ 0.641024 0.604423 0.200171 0.16322
H_ H_ 0.645588 0.861682 0.202294 0.16322
H_ H_ 0.79812 0.603152 0.19342 0.16322
H_ H_ 0.823908 0.857975 0.208433 0.16322
H_ H_ 0.701458 0.609954 0.195046 0.16322
H_ H_ 0.703756 0.865312 0.187907 0.16322
H_ H_ 0.854176 0.615735 0.20352 0.16322
H_ H_ 0.871132 0.851966 0.181536 0.16322
H_ H_ 0.860831 0.638226 0.36485 0.16322
H_ H_ 0.859646 0.894729 0.371582 0.16322
H_ H_ 0.0266041 0.640029 0.373393 0.16322
H_ H_ 0.0237493 0.88708 0.364367 0.16322
H_ H_ 0.798353 0.643032 0.36039 0.16322
H_ H_ 0.8029 0.89372 0.361059 0.16322
H_ H_ 0.967661 0.638262 0.369927 0.16322
H_ H_ 0.967261 0.887065 0.350002 0.16322
C_ C_ 0.837149 0.645369 0.153382 -0.4819
C_ C_ 0.821505 0.893745 0.157884 -0.4819
C_ C_ 0.994973 0.644269 0.152655 -0.4819
C_ C_ -0.0009550000000000392 0.891942 0.151243 -0.4819
C_ C_ 0.669259 0.609739 0.986541 -0.4819
C_ C_ 0.668381 0.855548 0.983137 -0.4819
C_ C_ 0.834482 0.60178 0.989362 -0.4819
C_ C_ 0.835302 0.858646 0.988209 -0.4819
C_ C_ 0.668801 0.603716 0.180208 -0.4819
C_ C_ 0.669967 0.857823 0.178363 -0.4819
C_ C_ 0.834294 0.603734 0.1801 -0.4819
C_ C_ 0.833442 0.851152 0.179595 -0.4819
C_ C_ 0.83235 0.645622 0.346006 -0.4819
C_ C_ 0.835977 0.89707 0.348416 -0.4819
C_ C_ 0.999581 0.644608 0.352842 -0.4819
C_ C_ 0.0027800000000000047 0.895935 0.340328 -0.4819
O_ O_ 0.784927 0.715303 0.166759 -0.96514
O_ O_ 0.782931 0.964623 0.166191 -0.96514
O_ O_ 0.953329 0.718754 0.168573 -0.96514
O_ O_ 0.954808 0.966279 0.167796 -0.96514
O_ O_ 0.706003 0.72848 0.146362 -0.96514
O_ O_ 0.70638 0.971616 0.166203 -0.96514
O_ O_ 0.876048 0.722663 0.164761 -0.96514
O_ O_ 0.872957 0.968446 0.144088 -0.96514
O_ O_ 0.829487 0.717922 0.109761 -0.96514
O_ O_ 0.800531 0.947144 0.108212 -0.96514
O_ O_ 0.971855 0.701359 0.106622 -0.96514
O_ O_ 1.00131 0.968917 0.111229 -0.96514
O_ O_ 0.717047 0.534815 0.99872284 -0.96514
O_ O_ 0.711157 0.785065 0.0012099999999999334 -0.96514
O_ O_ 0.880257 0.53232 0.998688 -0.96514
O_ O_ 0.878483 0.782787 1.00091284 -0.96514
O_ O_ 0.794931 0.525314 0.00374999999999992 -0.96514
O_ O_ 0.79069 0.776122 0.978313 -0.96514
O_ O_ 0.959523 0.522869 0.97526 -0.96514
O_ O_ 0.958188 0.779376 1.00494784 -0.96514
O_ O_ 0.702178 0.551512 0.278078 -0.96514
O_ O_ 0.675112 0.775748 0.27954 -0.96514
O_ O_ 0.834167 0.529657 0.276145 -0.96514
O_ O_ 0.862795 0.79835 0.275049 -0.96514
O_ O_ 0.71155 0.530451 0.166541 -0.96514
O_ O_ 0.711102 0.784044 0.164775 -0.96514
O_ O_ 0.879406 0.530334 0.161048 -0.96514
O_ O_ 0.875718 0.778183 0.167096 -0.96514
O_ O_ 0.796345 0.522684 0.189616 -0.96514
O_ O_ 0.791637 0.780259 0.164269 -0.96514
O_ O_ 0.963021 0.529332 0.162889 -0.96514
O_ O_ 0.958193 0.773863 0.18946 -0.96514
O_ O_ 0.672782 0.538315 0.225144 -0.96514
O_ O_ 0.693303 0.803596 0.227305 -0.96514
O_ O_ 0.866704 0.550306 0.223379 -0.96514
O_ O_ 0.837398 0.777202 0.227098 -0.96514
O_ O_ 0.796118 0.722592 0.333232 -0.96514
O_ O_ 0.790029 0.968495 0.333267 -0.96514
O_ O_ 0.956686 0.716101 0.332145 -0.96514
O_ O_ 0.954762 0.970123 0.328952 -0.96514
O_ O_ 0.708531 0.720436 0.337367 -0.96514
O_ O_ 0.706266 0.978824 0.354079 -0.96514
O_ O_ 0.87889 0.726218 0.356963 -0.96514
O_ O_ 0.875178 0.970595 0.333258 -0.96514
O_ O_ 0.802611 0.702021 0.0584986 -0.96514
O_ O_ 0.82188 0.97312 0.0579368 -0.96514
O_ O_ 0.996295 0.715286 0.0580414 -0.96514
O_ O_ 0.972438 0.951171 0.060089 -0.96514
F_ F_ 0.750282 0.733675 0.12486 -0.6238
F_ F_ 0.77854 0.0190755 0.118539 -0.6238
F_ F_ 0.936528 0.760912 0.117947 -0.6238
F_ F_ 0.914876 0.988076 0.123172 -0.6238
F_ F_ 0.733191 0.490519 0.28524 -0.6238
F_ F_ 0.749243 0.759347 0.295066 -0.6238
F_ F_ 0.915403 0.520504 0.292953 -0.6238
F_ F_ 0.892151 0.736115 0.290527 -0.6238
F_ F_ 0.753015 0.520527 0.209169 -0.6238
F_ F_ 0.729834 0.739624 0.213548 -0.6238
F_ F_ 0.892392 0.488594 0.213177 -0.6238
F_ F_ 0.917464 0.772679 0.20804 -0.6238
F_ F_ 0.763443 0.759571 0.0472841 -0.6238
F_ F_ 0.748859 0.987451 0.0415994 -0.6238
F_ F_ 0.91479 0.736216 0.0425798 -0.6238
F_ F_ 0.936747 0.0128393 0.0476009 -0.6238
Al Al 0.784827 0.736194 0.421978 2.01273
Al Al 0.785824 0.98637 0.413922 2.01273
Al Al 0.9547 0.738548 0.413703 2.01273
Al Al 0.952421 0.986648 0.420226 2.01273
Al Al 0.71852 0.516082 0.582382 2.01273
Al Al 0.720636 0.766016 0.586818 2.01273
Al Al 0.889127 0.512788 0.584875 2.01273
Al Al 0.884657 0.764573 0.57959 2.01273
Al Al 0.75135 0.00473901 0.496189 1.93658
Al Al 0.748718 0.748574 0.507949 1.93658
Al Al 0.916865 0.995618 0.505433 1.93658
Al Al 0.91855 0.752847 0.49583 1.93658
Al Al 0.749838 0.502153 0.328665 1.93658
Al Al 0.75362 0.75103 0.339339 1.93658
Al Al 0.917987 0.500617 0.672159 1.93658
Al Al 0.916201 0.748408 0.662937 1.93658
P_ P_ 0.833921 0.703472 0.482507 1.70002
P_ P_ 0.827584 0.95601 0.480488 1.70002
P_ P_ 0.99398 0.703425 0.477136 1.70002
P_ P_ 0.998585 0.953222 0.482535 1.70002
P_ P_ 0.672117 0.546906 0.64953 1.70002
P_ P_ 0.667778 0.797202 0.649209 1.70002
P_ P_ 0.836786 0.546039 0.646644 1.70002
P_ P_ 0.839113 0.796074 0.64638 1.70002
P_ P_ 0.670385 0.546008 0.51861 1.70002
P_ P_ 0.675574 0.797729 0.520596 1.70002
P_ P_ 0.839287 0.546258 0.518422 1.70002
P_ P_ 0.83814 0.797557 0.518644 1.70002
P_ P_ 0.832412 0.702983 0.356883 1.70002
P_ P_ 0.831348 0.953737 0.353234 1.70002
P_ P_ 1.00145 0.703484 0.351863 1.70002
P_ P_ 0.99286 0.951901 0.352142 1.70002
H_ H_ 0.847356 0.635687 0.462197 0.16322
H_ H_ 0.846721 0.889576 0.46613 0.16322
H_ H_ 0.0186853 0.639344 0.463836 0.16322
H_ H_ 0.0257156 0.891841 0.464668 0.16322
H_ H_ 0.795253 0.646846 0.475438 0.16322
H_ H_ 0.791567 0.895022 0.481759 0.16322
H_ H_ 0.963363 0.643193 0.480156 0.16322
H_ H_ 0.968155 0.892923 0.468109 0.16322
H_ H_ 0.659336 0.61427 0.300703 0.16322
H_ H_ 0.6336 0.855751 0.308964 0.16322
H_ H_ 0.803038 0.608264 0.299291 0.16322
H_ H_ 0.822445 0.859982 0.295813 0.16322
H_ H_ 0.709975 0.606969 0.324622 0.16322
H_ H_ 0.696121 0.860503 0.304006 0.16322
H_ H_ 0.864004 0.615484 0.301432 0.16322
H_ H_ 0.876022 0.862285 0.310679 0.16322
H_ H_ 0.643683 0.605651 0.543079 0.16322
H_ H_ 0.651463 0.86402 0.534259 0.16322
H_ H_ 0.815782 0.607791 0.536875 0.16322
H_ H_ 0.814133 0.860016 0.537833 0.16322
H_ H_ 0.702447 0.603978 0.533354 0.16322
H_ H_ 0.709523 0.863755 0.523639 0.16322
H_ H_ 0.875798 0.608217 0.521547 0.16322
H_ H_ 0.872788 0.863247 0.526742 0.16322
H_ H_ 0.867379 0.64416 0.693226 0.16322
H_ H_ 0.861545 0.88795 0.701889 0.16322
H_ H_ 0.0250043 0.653544 0.647576 0.16322
H_ H_ 0.0139114 0.890739 0.700474 0.16322
H_ H_ 0.816361 0.635703 0.697508 0.16322
H_ H_ 0.806333 0.886591 0.701183 0.16322
H_ H_ 1.0374812 0.646323 0.696684 0.16322
H_ H_ 0.957271 0.889893 0.683124 0.16322
C_ C_ 0.829164 0.645067 0.485646 -0.4819
C_ C_ 0.826947 0.897838 0.491035 -0.4819
C_ C_ -0.001422999999999952 0.646525 0.488856 -0.4819
C_ C_ -0.0011029999999999651 0.894744 0.484192 -0.4819
C_ C_ 0.671069 0.603435 0.326706 -0.4819
C_ C_ 0.667262 0.855641 0.321232 -0.4819
C_ C_ 0.831756 0.607315 0.316868 -0.4819
C_ C_ 0.842945 0.855776 0.322126 -0.4819
C_ C_ 0.669352 0.604331 0.520244 -0.4819
C_ C_ 0.675027 0.8571 0.510911 -0.4819
C_ C_ 0.83951 0.604622 0.512593 -0.4819
C_ C_ 0.839084 0.856628 0.51512 -0.4819
C_ C_ 0.836732 0.645154 0.674819 -0.4819
C_ C_ 0.834625 0.892989 0.683509 -0.4819
C_ C_ 1.00943062 0.64552 0.674932 -0.4819
C_ C_ 0.994034 0.896034 0.676064 -0.4819
O_ O_ 0.794081 0.721216 0.50304 -0.96514
O_ O_ 0.787694 0.970896 0.502188 -0.96514
O_ O_ 0.954118 0.718975 0.500138 -0.96514
O_ O_ 0.954501 0.963084 0.503315 -0.96514
O_ O_ 0.708259 0.725023 0.480147 -0.96514
O_ O_ 0.711127 0.970839 0.494633 -0.96514
O_ O_ 0.877855 0.719137 0.501596 -0.96514
O_ O_ 0.876384 0.973741 0.483178 -0.96514
O_ O_ 0.829625 0.720432 0.443126 -0.96514
O_ O_ 0.812102 0.955712 0.440173 -0.96514
O_ O_ 0.974094 0.702555 0.43841 -0.96514
O_ O_ 0.996659 0.976464 0.446213 -0.96514
O_ O_ 0.708056 0.530339 0.339717 -0.96514
O_ O_ 0.719334 0.788087 0.332861 -0.96514
O_ O_ 0.879677 0.538071 0.333846 -0.96514
O_ O_ 0.884818 0.785813 0.337489 -0.96514
O_ O_ 0.793671 0.533293 0.335696 -0.96514
O_ O_ 0.794896 0.775968 0.315032 -0.96514
O_ O_ 0.961376 0.521139 0.311388 -0.96514
O_ O_ 0.963629 0.778336 0.337455 -0.96514
O_ O_ 0.691251 0.548973 0.609515 -0.96514
O_ O_ 0.673324 0.779184 0.610538 -0.96514
O_ O_ 0.84307 0.5264 0.608563 -0.96514
O_ O_ 0.857984 0.796098 0.606349 -0.96514
O_ O_ 0.715711 0.538036 0.499965 -0.96514
O_ O_ 0.709788 0.777251 0.496575 -0.96514
O_ O_ 0.877577 0.529478 0.494723 -0.96514
O_ O_ 0.881295 0.787097 0.498893 -0.96514
O_ O_ 0.793258 0.522154 0.519842 -0.96514
O_ O_ 0.793107 0.781649 0.500678 -0.96514
O_ O_ 0.960224 0.529563 0.500225 -0.96514
O_ O_ 0.962266 0.77116 0.521275 -0.96514
O_ O_ 0.67105 0.529558 0.557877 -0.96514
O_ O_ 0.693029 0.796428 0.559119 -0.96514
O_ O_ 0.863264 0.545904 0.556792 -0.96514
O_ O_ 0.840702 0.780795 0.558571 -0.96514
O_ O_ 0.792845 0.723297 0.664257 -0.96514
O_ O_ 0.786434 0.963639 0.664298 -0.96514
O_ O_ 0.956714 0.717243 0.662598 -0.96514
O_ O_ 0.956921 0.97379 0.664804 -0.96514
O_ O_ 0.70699 0.719949 0.671256 -0.96514
O_ O_ 0.706758 0.977555 0.689689 -0.96514
O_ O_ 0.879335 0.722603 0.687885 -0.96514
O_ O_ 0.877383 0.968304 0.668935 -0.96514
O_ O_ 0.810011 0.702915 0.394997 -0.96514
O_ O_ 0.830208 0.965877 0.39428 -0.96514
O_ O_ 0.99897957 0.723222 0.390202 -0.96514
O_ O_ 0.971849 0.953715 0.391057 -0.96514
F_ F_ 0.752683 0.72394 0.463412 -0.6238
F_ F_ 0.772669 0.0152707 0.453443 -0.6238
F_ F_ 0.936982 0.764285 0.452629 -0.6238
F_ F_ 0.91636 0.978979 0.460151 -0.6238
F_ F_ 0.727918 0.484664 0.619811 -0.6238
F_ F_ 0.748749 0.764736 0.629348 -0.6238
F_ F_ 0.920325 0.515217 0.626003 -0.6238
F_ F_ 0.892387 0.73552 0.621356 -0.6238
F_ F_ 0.746392 0.514177 0.541199 -0.6238
F_ F_ 0.725488 0.733006 0.54867 -0.6238
F_ F_ 0.895573 0.485508 0.543356 -0.6238
F_ F_ 0.919795 0.773718 0.540079 -0.6238
F_ F_ 0.776874 0.764608 0.381367 -0.6238
F_ F_ 0.750472 0.980929 0.374915 -0.6238
F_ F_ 0.919893 0.730235 0.375298 -0.6238
F_ F_ 0.938781 0.0133566 0.381322 -0.6238
Al Al 0.783859 0.733905 0.751816 2.01273
Al Al 0.783666 0.982548 0.746192 2.01273
Al Al 0.949319 0.735059 0.74748 2.01273
Al Al 0.947078 0.98429 0.751503 2.01273
Al Al 0.716949 0.520038 0.913694 2.01273
Al Al 0.717675 0.763751 0.919133 2.01273
Al Al 0.883772 0.511497 0.91986 2.01273
Al Al 0.880413 0.765439 0.912975 2.01273
Al Al 0.752842 0.00220064 0.829604 1.93658
Al Al 0.744934 0.747228 0.838829 1.93658
Al Al 0.915947 0.998205 0.838084 1.93658
Al Al 0.91746 0.754417 0.832061 1.93658
Al Al 0.749788 0.497062 0.660259 1.93658
Al Al 0.75179 0.75094 0.674602 1.93658
Al Al 0.920156 0.501989 0.00206752 1.93658
Al Al 0.914202 0.748308 0.996577 1.93658
P_ P_ 0.827386 0.705304 0.813456 1.70002
P_ P_ 0.829417 0.953015 0.811636 1.70002
P_ P_ 0.991652 0.70279 0.81644 1.70002
P_ P_ 0.994267 0.953306 0.813479 1.70002
P_ P_ 0.67483 0.550295 0.98189 1.70002
P_ P_ 0.668951 0.797366 0.980008 1.70002
P_ P_ 0.836103 0.543883 0.98224 1.70002
P_ P_ 0.836662 0.798496 0.981684 1.70002
P_ P_ 0.666543 0.546467 0.853824 1.70002
P_ P_ 0.668895 0.796934 0.854802 1.70002
P_ P_ 0.841142 0.549112 0.854928 1.70002
P_ P_ 0.832082 0.796395 0.850858 1.70002
P_ P_ 0.831061 0.702535 0.685269 1.70002
P_ P_ 0.830845 0.952723 0.685954 1.70002
P_ P_ 0.99870052 0.701933 0.684528 1.70002
P_ P_ 0.994144 0.95236 0.686588 1.70002
H_ H_ 0.860597 0.646018 0.797906 0.16322
H_ H_ 0.86539 0.891887 0.803093 0.16322
H_ H_ 0.0343352 0.644326 0.818079 0.16322
H_ H_ 0.0136961 0.891148 0.793627 0.16322
H_ H_ 0.803526 0.637274 0.799932 0.16322
H_ H_ 0.807764 0.886617 0.799462 0.16322
H_ H_ 0.984666 0.638172 0.797701 0.16322
H_ H_ 0.959516 0.891168 0.809108 0.16322
H_ H_ 0.633095 0.602541 0.64092 0.16322
H_ H_ 0.66417 0.859951 0.628651 0.16322
H_ H_ 0.800755 0.603562 0.635428 0.16322
H_ H_ 0.811375 0.857732 0.630356 0.16322
H_ H_ 0.685616 0.615105 0.633554 0.16322
H_ H_ 0.709692 0.853614 0.653751 0.16322
H_ H_ 0.857842 0.609398 0.624111 0.16322
H_ H_ 0.870463 0.862514 0.640287 0.16322
H_ H_ 0.623516 0.606702 0.857719 0.16322
H_ H_ 0.637937 0.854728 0.871316 0.16322
H_ H_ 0.804887 0.607285 0.860741 0.16322
H_ H_ 0.806959 0.859496 0.86584 0.16322
H_ H_ 0.679256 0.611472 0.8736 0.16322
H_ H_ 0.695305 0.860663 0.862717 0.16322
H_ H_ 0.862851 0.616791 0.86208 0.16322
H_ H_ 0.866174 0.858101 0.86466 0.16322
H_ H_ 0.828695 0.640202 0.0411469 0.16322
H_ H_ 0.849833 0.890934 0.0405298 0.16322
H_ H_ 0.0197364 0.641422 0.0358151 0.16322
H_ H_ 0.019042 0.888396 1.0339002 0.16322
H_ H_ 0.786796 0.645163 0.0113183 0.16322
H_ H_ 0.793322 0.896434 0.0285282 0.16322
H_ H_ 0.960609 0.642888 0.024621 0.16322
H_ H_ -0.03740699999999997 0.886333 0.0250437 0.16322
C_ C_ 0.831635 0.646794 0.816359 -0.4819
C_ C_ 0.833116 0.89404 0.81982 -0.4819
C_ C_ 0.999349846 0.645469 0.824174 -0.4819
C_ C_ 0.994285 0.894865 0.81702 -0.4819
C_ C_ 0.665371 0.603921 0.65651 -0.4819
C_ C_ 0.673263 0.85415 0.65685 -0.4819
C_ C_ 0.834067 0.604122 0.647335 -0.4819
C_ C_ 0.838423 0.854123 0.652398 -0.4819
C_ C_ 0.661005 0.604935 0.849811 -0.4819
C_ C_ 0.662885 0.855132 0.848495 -0.4819
C_ C_ 0.836594 0.6066 0.84338 -0.4819
C_ C_ 0.834992 0.855012 0.848862 -0.4819
C_ C_ 0.82337 0.646085 0.0113821 -0.4819
C_ C_ 0.829253 0.89697 0.0170064 -0.4819
C_ C_ 0.996086 0.644807 0.0132488 -0.4819
C_ C_ -0.00469799999999998 0.89389 0.01254 -0.4819
O_ O_ 0.781864 0.715041 0.832934 -0.96514
O_ O_ 0.789473 0.969255 0.832307 -0.96514
O_ O_ 0.950972 0.718999 0.83843 -0.96514
O_ O_ 0.94957 0.963154 0.829802 -0.96514
O_ O_ 0.708155 0.727167 0.808919 -0.96514
O_ O_ 0.709248 0.96955 0.832095 -0.96514
O_ O_ 0.870786 0.724203 0.832753 -0.96514
O_ O_ 0.873272 0.980037 0.811354 -0.96514
O_ O_ 0.828146 0.722749 0.774977 -0.96514
O_ O_ 0.813059 0.950497 0.771143 -0.96514
O_ O_ 0.972673 0.701991 0.776738 -0.96514
O_ O_ 0.99076 0.975445 0.777236 -0.96514
O_ O_ 0.712371 0.528791 0.670218 -0.96514
O_ O_ 0.712283 0.783305 0.665988 -0.96514
O_ O_ 0.880324 0.53462 0.666927 -0.96514
O_ O_ 0.881221 0.781168 0.668068 -0.96514
O_ O_ 0.791528 0.527477 0.663094 -0.96514
O_ O_ 0.791993 0.773364 0.649227 -0.96514
O_ O_ 0.961205 0.52135 0.645599 -0.96514
O_ O_ 0.96011 0.780453 0.665202 -0.96514
O_ O_ 0.690292 0.551218 0.940251 -0.96514
O_ O_ 0.675675 0.775578 0.944482 -0.96514
O_ O_ 0.839768 0.531122 0.941915 -0.96514
O_ O_ 0.858806 0.799315 0.943252 -0.96514
O_ O_ 0.71235 0.536666 0.834369 -0.96514
O_ O_ 0.709401 0.780122 0.834035 -0.96514
O_ O_ 0.878415 0.531237 0.831128 -0.96514
O_ O_ 0.87575 0.783042 0.831647 -0.96514
O_ O_ 0.795327 0.52392 0.857919 -0.96514
O_ O_ 0.785763 0.779154 0.833036 -0.96514
O_ O_ 0.959501 0.528903 0.832249 -0.96514
O_ O_ 0.958027 0.772325 0.859568 -0.96514
O_ O_ 0.669849 0.526043 0.891184 -0.96514
O_ O_ 0.68932 0.79648 0.892826 -0.96514
O_ O_ 0.862746 0.547166 0.89283 -0.96514
O_ O_ 0.835164 0.781519 0.89015 -0.96514
O_ O_ 0.789009 0.721064 -0.003438000000000052 -0.96514
O_ O_ 0.781303 0.958867 -0.000945667 -0.96514
O_ O_ 0.95326 0.715449 0.0003500000000000725 -0.96514
O_ O_ 0.952455 0.966819 1.00112524 -0.96514
O_ O_ 0.707881 0.721261 0.997644 -0.96514
O_ O_ 0.706108 0.973935 0.0197397 -0.96514
O_ O_ 0.869788 0.72989 0.0212342 -0.96514
O_ O_ 0.874451 0.970753 -0.0011839999999999629 -0.96514
O_ O_ 0.810359 0.701753 0.724252 -0.96514
O_ O_ 0.830152 0.969027 0.72592 -0.96514
O_ O_ 0.995978 0.718105 0.723487 -0.96514
O_ O_ 0.973828 0.950881 0.725628 -0.96514
F_ F_ 0.746082 0.737078 0.79167 -0.6238
F_ F_ 0.779819 0.0149368 0.786673 -0.6238
F_ F_ 0.934961 0.766441 0.787751 -0.6238
F_ F_ 0.916847 0.987225 0.791929 -0.6238
F_ F_ 0.731811 0.489925 0.953188 -0.6238
F_ F_ 0.747595 0.767954 0.957809 -0.6238
F_ F_ 0.922318 0.517169 0.956702 -0.6238
F_ F_ 0.895484 0.738745 0.953378 -0.6238
F_ F_ 0.749744 0.52662 0.874781 -0.6238
F_ F_ 0.724286 0.731487 0.88078 -0.6238
F_ F_ 0.896571 0.486282 0.880575 -0.6238
F_ F_ 0.915602 0.773056 0.876333 -0.6238
F_ F_ 0.775692 0.76232 0.713341 -0.6238
F_ F_ 0.748337 0.977817 0.705579 -0.6238
F_ F_ 0.919694 0.728556 0.70709 -0.6238
F_ F_ 0.939454 0.0156093 0.712888 -0.6238
_cell_length_a 29.694
_cell_length_b 33.115999649565914
_cell_length_c 36.56099982787148
_cell_angle_alpha 89.96499964330334
_cell_angle_beta 89.97100028855473
_cell_angle_gamma 91.5920001624711
_symmetry_space_group_name_H-M         'P 1'
_symmetry_Int_Tables_number            1
loop_
_symmetry_equiv_pos_as_xyz
   'x, y, z'
                         
loop_
_atom_site_label
_atom_site_type_symbol
_atom_site_fract_x 
_atom_site_fract_y
_atom_site_fract_z
_atom_site_charge
Al Al 0.118929 0.237908 0.0880927 2.01273
Al Al 0.118366 0.480467 0.0834164 2.01273
Al Al 0.282465 0.233996 0.0819729 2.01273
Al Al 0.284728 0.483581 0.0864719 2.01273
Al Al 0.0483114 0.0125714 0.249826 2.01273
Al Al 0.0486482 0.265763 0.250713 2.01273
Al Al 0.210636 0.0101733 0.253473 2.01273
Al Al 0.215267 0.261321 0.245502 2.01273
Al Al 0.0835407 0.500837 0.160802 1.93658
Al Al 0.0813975 0.24726 0.168617 1.93658
Al Al 0.249125 0.493355 0.168043 1.93658
Al Al 0.250418 0.253171 0.159549 1.93658
Al Al 0.0808231 0.992986 0.995667 1.93658
Al Al 0.0847535 0.249478 0.00212953 1.93658
Al Al 0.250639 0.00170091 0.336476 1.93658
Al Al 0.251952 0.248581 0.330702 1.93658
P_ P_ 0.163574 0.20335 0.145088 1.70002
P_ P_ 0.161743 0.449437 0.149749 1.70002
P_ P_ 0.326204 0.203556 0.146527 1.70002
P_ P_ 0.335154 0.455695 0.148097 1.70002
P_ P_ 0.00436403 0.0455242 0.314452 1.70002
P_ P_ 1.00044 0.296096 0.31182 1.70002
P_ P_ 0.168529 0.0461069 0.317305 1.70002
P_ P_ 0.172171 0.295274 0.309192 1.70002
P_ P_ 7.18222e-05 0.0442685 0.186201 1.70002
P_ P_ 0.00204191 0.295268 0.184434 1.70002
P_ P_ 0.17177 0.0461401 0.186511 1.70002
P_ P_ 0.16631 0.293134 0.185004 1.70002
P_ P_ 0.160142 0.205639 0.021597 1.70002
P_ P_ 0.163006 0.453033 0.0193147 1.70002
P_ P_ 0.325524 0.204218 0.0178958 1.70002
P_ P_ 0.329706 0.453606 0.0176824 1.70002
H_ H_ 0.173528 0.143692 0.12499 0.16322
H_ H_ 0.204524 0.391911 0.152305 0.16322
H_ H_ 0.339361 0.139103 0.128828 0.16322
H_ H_ 0.370697 0.401402 0.132827 0.16322
H_ H_ 0.121288 0.140548 0.144265 0.16322
H_ H_ 0.157396 0.382986 0.127318 0.16322
H_ H_ 0.286908 0.144441 0.152929 0.16322
H_ H_ 0.31031 0.38898 0.131706 0.16322
H_ H_ 0.973351 0.108272 -0.033233999999999986 0.16322
H_ H_ 0.971206 0.356197 0.963084 0.16322
H_ H_ 0.150679 0.0920504 1.0291207 0.16322
H_ H_ 0.149776 0.364069 -0.037023999999999946 0.16322
H_ H_ 1.0332170999999999 0.112172 0.971223 0.16322
H_ H_ 0.0325041 0.355773 0.966628 0.16322
H_ H_ 0.124141 0.107274 0.991345 0.16322
H_ H_ 0.206557 0.359474 0.974428 0.16322
H_ H_ 0.97397 0.106796 0.204295 0.16322
H_ H_ 0.982695 0.359308 0.204742 0.16322
H_ H_ 0.160487 0.110932 0.203955 0.16322
H_ H_ 0.124872 0.349366 0.18528 0.16322
H_ H_ 0.0357116 0.108426 0.194085 0.16322
H_ H_ 0.0355614 0.359619 0.193175 0.16322
H_ H_ 0.211319 0.108076 0.179367 0.16322
H_ H_ 0.173992 0.355217 0.209731 0.16322
H_ H_ 0.209318 0.161402 0.324943 0.16322
H_ H_ 0.192265 0.393146 0.367274 0.16322
H_ H_ 0.368952 0.145988 0.36532 0.16322
H_ H_ 0.352392 0.389559 0.367111 0.16322
H_ H_ 0.190681 0.139795 0.367428 0.16322
H_ H_ 0.134361 0.386921 0.365419 0.16322
H_ H_ 0.313152 0.133302 0.361733 0.16322
H_ H_ 0.292962 0.393021 0.357306 0.16322
C_ C_ 0.158181 0.14564 0.149619 -0.4819
C_ C_ 0.16879 0.391605 0.155039 -0.4819
C_ C_ 0.323013 0.146763 0.15606 -0.4819
C_ C_ 0.338009 0.398964 0.147905 -0.4819
C_ C_ 1.00110262 0.105079 0.986467 -0.4819
C_ C_ -0.0007869999999999822 0.353269 0.982558 -0.4819
C_ C_ 0.158358 0.102865 1.00071 -0.4819
C_ C_ 0.169792 0.35562 0.985098 -0.4819
C_ C_ 0.000214007 0.102429 0.183195 -0.4819
C_ C_ 1.00272416 0.354551 0.180249 -0.4819
C_ C_ 0.173406 0.104587 0.17511 -0.4819
C_ C_ 0.161184 0.350814 0.181399 -0.4819
C_ C_ 0.178226 0.149841 0.339516 -0.4819
C_ C_ 0.163726 0.395014 0.347947 -0.4819
C_ C_ 0.340225 0.146107 0.345507 -0.4819
C_ C_ 0.327612 0.394494 0.3448 -0.4819
O_ O_ 0.118707 0.213939 0.164019 -0.96514
O_ O_ 0.121937 0.469635 0.169898 -0.96514
O_ O_ 0.286535 0.218984 0.169951 -0.96514
O_ O_ 0.289378 0.463576 0.165731 -0.96514
O_ O_ 0.0357171 0.226604 0.145914 -0.96514
O_ O_ 0.0409827 0.468799 0.171458 -0.96514
O_ O_ 0.20691 0.221425 0.164934 -0.96514
O_ O_ 0.205746 0.472692 0.143057 -0.96514
O_ O_ 0.165788 0.223543 0.107896 -0.96514
O_ O_ 0.138184 0.446947 0.112223 -0.96514
O_ O_ 0.304006 0.198156 0.10816 -0.96514
O_ O_ 0.333008 0.476516 0.11051 -0.96514
O_ O_ 0.0458338 0.0293826 1.0012063 -0.96514
O_ O_ 0.0436927 0.281689 0.0022800000000000598 -0.96514
O_ O_ 0.210004 0.0325291 0.9999202861 -0.96514
O_ O_ 0.211726 0.283927 -0.0007460000000000244 -0.96514
O_ O_ 0.123687 0.0240937 0.00274142 -0.96514
O_ O_ 0.128941 0.26956 0.9799 -0.96514
O_ O_ 0.293137 0.0227806 0.978573 -0.96514
O_ O_ 0.294211 0.280773 0.00480664 -0.96514
O_ O_ 0.0241186 0.0475075 0.275448 -0.96514
O_ O_ 0.00330898 0.278564 0.27368 -0.96514
O_ O_ 0.170296 0.034642 0.275518 -0.96514
O_ O_ 0.191506 0.298481 0.26981 -0.96514
O_ O_ 0.0424322 0.0333355 0.165379 -0.96514
O_ O_ 0.0370067 0.272921 0.160246 -0.96514
O_ O_ 0.20945 0.0282681 0.16448 -0.96514
O_ O_ 0.207441 0.282342 0.163803 -0.96514
O_ O_ 0.126055 0.0240905 0.189275 -0.96514
O_ O_ 0.121487 0.279362 0.164264 -0.96514
O_ O_ 0.292447 0.0279386 0.165392 -0.96514
O_ O_ 0.291116 0.27875 0.185542 -0.96514
O_ O_ 0.00346753 0.0263364 0.223711 -0.96514
O_ O_ 0.02547 0.296846 0.221033 -0.96514
O_ O_ 0.195021 0.0452424 0.224724 -0.96514
O_ O_ 0.168049 0.276045 0.223813 -0.96514
O_ O_ 0.124028 0.221186 0.33046 -0.96514
O_ O_ 0.124651 0.466223 0.3323 -0.96514
O_ O_ 0.283874 0.211337 0.337478 -0.96514
O_ O_ 0.288292 0.466591 0.329208 -0.96514
O_ O_ 0.0416125 0.223289 0.330424 -0.96514
O_ O_ 0.0399153 0.473311 0.352192 -0.96514
O_ O_ 0.209291 0.229037 0.355602 -0.96514
O_ O_ 0.2094 0.4686 0.332327 -0.96514
O_ O_ 0.137697 0.202414 0.0599531 -0.96514
O_ O_ 0.163519 0.470925 0.0567811 -0.96514
O_ O_ 0.325726 0.220613 0.0574343 -0.96514
O_ O_ 0.306179 0.452789 0.0554027 -0.96514
F_ F_ 0.0809565 0.233131 0.125186 -0.6238
F_ F_ 0.108767 0.51435 0.121246 -0.6238
F_ F_ 0.27846 0.268006 0.120618 -0.6238
F_ F_ 0.248351 0.48098 0.123841 -0.6238
F_ F_ 0.0602381 0.984155 0.29118 -0.6238
F_ F_ 0.0824731 0.275729 0.289548 -0.6238
F_ F_ 0.248282 0.0146472 0.291195 -0.6238
F_ F_ 0.233258 0.236128 0.287835 -0.6238
F_ F_ 0.084796 0.0163456 0.211309 -0.6238
F_ F_ 0.0648262 0.234658 0.211635 -0.6238
F_ F_ 0.226983 0.984628 0.213774 -0.6238
F_ F_ 0.246477 0.270101 0.205156 -0.6238
F_ F_ 0.0995536 0.262416 0.0466888 -0.6238
F_ F_ 0.0815604 0.481788 0.0461506 -0.6238
F_ F_ 0.245102 0.231495 0.0448835 -0.6238
F_ F_ 0.274811 0.513296 0.0457834 -0.6238
Al Al 0.119116 0.233927 0.416666 2.01273
Al Al 0.116603 0.481901 0.410752 2.01273
Al Al 0.287478 0.233818 0.414177 2.01273
Al Al 0.287289 0.491719 0.418281 2.01273
Al Al 0.0468564 0.0150985 0.582119 2.01273
Al Al 0.0514929 0.262808 0.583013 2.01273
Al Al 0.214825 0.0187647 0.590495 2.01273
Al Al 0.220029 0.267006 0.579721 2.01273
Al Al 0.0873059 0.501593 0.493966 1.93658
Al Al 0.0818128 0.24602 0.502832 1.93658
Al Al 0.250587 0.499657 0.502981 1.93658
Al Al 0.255036 0.255918 0.494055 1.93658
Al Al 0.0800522 0.995137 0.333324 1.93658
Al Al 0.08491 0.255022 0.333962 1.93658
Al Al 0.251103 0.00381275 0.671547 1.93658
Al Al 0.24986 0.247919 0.664235 1.93658
P_ P_ 0.168627 0.205965 0.480105 1.70002
P_ P_ 0.164159 0.452682 0.477011 1.70002
P_ P_ 0.325741 0.201954 0.479535 1.70002
P_ P_ 0.331779 0.454595 0.480818 1.70002
P_ P_ 0.00559026 0.0482254 0.648962 1.70002
P_ P_ -0.000280441 0.294452 0.644608 1.70002
P_ P_ 0.168478 0.0499732 0.652157 1.70002
P_ P_ 0.173516 0.294878 0.644191 1.70002
P_ P_ 0.00261051 0.0444214 0.522841 1.70002
P_ P_ 0.00525223 0.294953 0.521464 1.70002
P_ P_ 0.168646 0.0476612 0.521689 1.70002
P_ P_ 0.169549 0.29702 0.517418 1.70002
P_ P_ 0.163061 0.203766 0.353246 1.70002
P_ P_ 0.166106 0.453077 0.352648 1.70002
P_ P_ 0.331327 0.202396 0.349522 1.70002
P_ P_ 0.328287 0.453081 0.351032 1.70002
H_ H_ 0.207182 0.150358 0.47608 0.16322
H_ H_ 0.194031 0.393199 0.472711 0.16322
H_ H_ 0.347234 0.140116 0.463631 0.16322
H_ H_ 0.369591 0.399826 0.469128 0.16322
H_ H_ 0.150719 0.141295 0.46067 0.16322
H_ H_ 0.137829 0.384251 0.468515 0.16322
H_ H_ 0.293922 0.133502 0.479944 0.16322
H_ H_ 0.31136 0.389942 0.459924 0.16322
H_ H_ 0.967967 0.107309 0.302552 0.16322
H_ H_ 0.985616 0.357114 0.285321 0.16322
H_ H_ 0.12803 0.101917 0.326507 0.16322
H_ H_ 0.156753 0.359262 0.293985 0.16322
H_ H_ 0.0283852 0.113003 0.30085 0.16322
H_ H_ 0.037118 0.35502 0.30143 0.16322
H_ H_ 0.159551 0.10755 0.290668 0.16322
H_ H_ 0.209608 0.352593 0.316211 0.16322
H_ H_ 0.954205 0.0983822 0.521661 0.16322
H_ H_ 0.971148 0.355832 0.527926 0.16322
H_ H_ 0.125042 0.103213 0.516343 0.16322
H_ H_ 0.132684 0.353089 0.530283 0.16322
H_ H_ 0.00881565 0.108304 0.543558 0.16322
H_ H_ 0.0310253 0.363346 0.528778 0.16322
H_ H_ 0.178267 0.117639 0.536982 0.16322
H_ H_ 0.190289 0.360568 0.535015 0.16322
H_ H_ 0.204373 0.156971 0.678322 0.16322
H_ H_ 0.210125 0.3971 0.674281 0.16322
H_ H_ 0.374016 0.148331 0.694651 0.16322
H_ H_ 0.36902 0.39681 0.690289 0.16322
H_ H_ 0.164476 0.139301 0.706593 0.16322
H_ H_ 0.17271 0.384086 0.708279 0.16322
H_ H_ 0.314911 0.137948 0.703736 0.16322
H_ H_ 0.312659 0.385157 0.697767 0.16322
C_ C_ 0.173331 0.147883 0.485649 -0.4819
C_ C_ 0.163675 0.395222 0.488928 -0.4819
C_ C_ 0.327923 0.143933 0.488583 -0.4819
C_ C_ 0.336054 0.396131 0.481491 -0.4819
C_ C_ -0.00185241 0.103805 0.320276 -0.4819
C_ C_ 0.00226245 0.355322 0.312449 -0.4819
C_ C_ 0.163346 0.105161 0.32049 -0.4819
C_ C_ 0.172984 0.35332 0.319911 -0.4819
C_ C_ -0.008198999999999956 0.100993 0.517018 -0.4819
C_ C_ 0.0025800000000000267 0.353402 0.510255 -0.4819
C_ C_ 0.163768 0.105457 0.511253 -0.4819
C_ C_ 0.164115 0.353203 0.515163 -0.4819
C_ C_ 0.167288 0.149969 0.679121 -0.4819
C_ C_ 0.174252 0.391862 0.680676 -0.4819
C_ C_ 0.339525 0.145066 0.681447 -0.4819
C_ C_ 0.336312 0.394614 0.676955 -0.4819
O_ O_ 0.122111 0.214419 0.49862 -0.96514
O_ O_ 0.123329 0.469057 0.49683 -0.96514
O_ O_ 0.289798 0.220786 0.503243 -0.96514
O_ O_ 0.290632 0.466684 0.503523 -0.96514
O_ O_ 0.0405218 0.226175 0.477673 -0.96514
O_ O_ 0.0434926 0.46934 0.499823 -0.96514
O_ O_ 0.212774 0.22447 0.498522 -0.96514
O_ O_ 0.210702 0.475966 0.477776 -0.96514
O_ O_ 0.166409 0.223793 0.440314 -0.96514
O_ O_ 0.143005 0.450786 0.439354 -0.96514
O_ O_ 0.30303 0.196985 0.442308 -0.96514
O_ O_ 0.32892 0.470965 0.441034 -0.96514
O_ O_ 0.0470289 0.032752 0.334535 -0.96514
O_ O_ 0.0461303 0.286849 0.333073 -0.96514
O_ O_ 0.21545 0.038208 0.332686 -0.96514
O_ O_ 0.212852 0.279158 0.330023 -0.96514
O_ O_ 0.125578 0.026871 0.336002 -0.96514
O_ O_ 0.125252 0.273799 0.308562 -0.96514
O_ O_ 0.29431 0.0200006 0.31063 -0.96514
O_ O_ 0.292184 0.280438 0.33546 -0.96514
O_ O_ 0.0219565 0.049807 0.609513 -0.96514
O_ O_ 0.00589911 0.275758 0.607762 -0.96514
O_ O_ 0.167961 0.0330148 0.61346 -0.96514
O_ O_ 0.203534 0.30094 0.609071 -0.96514
O_ O_ 0.0488756 0.0382545 0.505185 -0.96514
O_ O_ 0.0424412 0.279181 0.49707 -0.96514
O_ O_ 0.206213 0.0290301 0.496431 -0.96514
O_ O_ 0.214415 0.285267 0.498377 -0.96514
O_ O_ 0.123457 0.0236896 0.525972 -0.96514
O_ O_ 0.123925 0.279954 0.500368 -0.96514
O_ O_ 0.290996 0.0301906 0.499387 -0.96514
O_ O_ 0.292794 0.279776 0.516541 -0.96514
O_ O_ 0.0013700000000000934 0.025863 0.560596 -0.96514
O_ O_ 0.0311577 0.299541 0.558128 -0.96514
O_ O_ 0.193048 0.0499507 0.558178 -0.96514
O_ O_ 0.17209 0.279358 0.555648 -0.96514
O_ O_ 0.122812 0.221441 0.65967 -0.96514
O_ O_ 0.12154 0.46374 0.666835 -0.96514
O_ O_ 0.283806 0.212183 0.670148 -0.96514
O_ O_ 0.28578 0.462752 0.65972 -0.96514
O_ O_ 0.0398009 0.218435 0.664809 -0.96514
O_ O_ 0.037618 0.476928 0.686145 -0.96514
O_ O_ 0.206704 0.229388 0.689388 -0.96514
O_ O_ 0.20734 0.468206 0.664148 -0.96514
O_ O_ 0.143163 0.199686 0.392553 -0.96514
O_ O_ 0.165097 0.472189 0.391449 -0.96514
O_ O_ 0.333592 0.217561 0.388641 -0.96514
O_ O_ 0.311659 0.458191 0.390251 -0.96514
F_ F_ 0.0855214 0.234021 0.456509 -0.6238
F_ F_ 0.105412 0.512453 0.450584 -0.6238
F_ F_ 0.275898 0.266011 0.452517 -0.6238
F_ F_ 0.253577 0.488894 0.458005 -0.6238
F_ F_ 0.0600003 0.98961 0.622962 -0.6238
F_ F_ 0.084528 0.272097 0.62525 -0.6238
F_ F_ 0.249436 0.0272122 0.629407 -0.6238
F_ F_ 0.234859 0.239771 0.620566 -0.6238
F_ F_ 0.081708 0.0170677 0.542959 -0.6238
F_ F_ 0.0609529 0.23305 0.545673 -0.6238
F_ F_ 0.231558 0.99388 0.550278 -0.6238
F_ F_ 0.250389 0.268801 0.53994 -0.6238
F_ F_ 0.10607 0.260436 0.375969 -0.6238
F_ F_ 0.0830459 0.475674 0.371892 -0.6238
F_ F_ 0.249656 0.236313 0.376915 -0.6238
F_ F_ 0.270025 0.510257 0.37812 -0.6238
Al Al 0.11976 0.236156 0.756854 2.01273
Al Al 0.119357 0.482418 0.747311 2.01273
Al Al 0.287713 0.236235 0.747252 2.01273
Al Al 0.283962 0.484614 0.753407 2.01273
Al Al 0.0484927 0.0143863 0.914483 2.01273
Al Al 0.0510172 0.26104 0.920412 2.01273
Al Al 0.215896 0.019797 0.922575 2.01273
Al Al 0.216716 0.265746 0.912413 2.01273
Al Al 0.0829887 0.498839 0.830894 1.93658
Al Al 0.0782307 0.243845 0.839908 1.93658
Al Al 0.249708 0.497571 0.837238 1.93658
Al Al 0.246942 0.252479 0.831306 1.93658
Al Al 0.0817954 1.00096 0.665723 1.93658
Al Al 0.0854205 0.251584 0.670142 1.93658
Al Al 0.25094 1.0013808 0.00470847 1.93658
Al Al 0.24899 0.251507 1.001 1.93658
P_ P_ 0.16399 0.202657 0.817279 1.70002
P_ P_ 0.163433 0.452213 0.812638 1.70002
P_ P_ 0.324796 0.204745 0.815816 1.70002
P_ P_ 0.333336 0.454614 0.817025 1.70002
P_ P_ 0.00472965 0.0472814 0.979877 1.70002
P_ P_ 0.00237396 0.296332 0.98038 1.70002
P_ P_ 0.166256 0.0471039 0.984598 1.70002
P_ P_ 0.169445 0.297823 0.978286 1.70002
P_ P_ 1.00268031 0.046285 0.852721 1.70002
P_ P_ 0.00767149 0.2964 0.853727 1.70002
P_ P_ 0.171958 0.0474423 0.855078 1.70002
P_ P_ 0.166462 0.295513 0.852797 1.70002
P_ P_ 0.160029 0.206521 0.686125 1.70002
P_ P_ 0.164778 0.449947 0.684714 1.70002
P_ P_ 0.330388 0.202696 0.68574 1.70002
P_ P_ 0.326008 0.451396 0.683442 1.70002
H_ H_ 0.212235 0.148738 0.826969 0.16322
H_ H_ 0.186237 0.390149 0.797881 0.16322
H_ H_ 0.346825 0.143499 0.794761 0.16322
H_ H_ 0.359343 0.389684 0.798296 0.16322
H_ H_ 0.172497 0.139972 0.794005 0.16322
H_ H_ 0.132105 0.385562 0.803742 0.16322
H_ H_ 0.29213 0.141254 0.815809 0.16322
H_ H_ 0.300703 0.389584 0.805855 0.16322
H_ H_ 0.973178 0.104947 0.637035 0.16322
H_ H_ 0.959624 0.355485 0.633469 0.16322
H_ H_ 0.12317 0.107253 0.649959 0.16322
H_ H_ 0.124696 0.344218 0.662154 0.16322
H_ H_ 0.0343603 0.115381 0.645629 0.16322
H_ H_ 0.0241565 0.358843 0.634706 0.16322
H_ H_ 0.178282 0.113418 0.630565 0.16322
H_ H_ 0.163036 0.362064 0.630551 0.16322
H_ H_ 0.976656 0.108568 0.877825 0.16322
H_ H_ 0.985396 0.359466 0.869055 0.16322
H_ H_ 0.126315 0.0987684 0.842904 0.16322
H_ H_ 0.148236 0.35947 0.872435 0.16322
H_ H_ 0.0335666 0.109284 0.866769 0.16322
H_ H_ 0.038843 0.356359 0.848041 0.16322
H_ H_ 0.163518 0.112893 0.878461 0.16322
H_ H_ 0.206571 0.361548 0.858353 0.16322
H_ H_ 0.173679 0.166818 -0.02302000000000004 0.16322
H_ H_ 0.189485 0.388824 1.0361893 0.16322
H_ H_ 0.368586 0.14734 0.0204194 0.16322
H_ H_ 0.344832 0.394044 0.0337122 0.16322
H_ H_ 0.209622 0.15147 0.00543464 0.16322
H_ H_ 0.133513 0.393198 0.0276221 0.16322
H_ H_ 0.3155 0.140083 0.0366435 0.16322
H_ H_ 0.291692 0.392015 0.0192718 0.16322
C_ C_ 0.174599 0.14673 0.823406 -0.4819
C_ C_ 0.162365 0.393517 0.81965 -0.4819
C_ C_ 0.329173 0.147123 0.821326 -0.4819
C_ C_ 0.333298 0.396118 0.819672 -0.4819
C_ C_ 0.00078363 0.106337 0.658799 -0.4819
C_ C_ -0.00776577 0.35314 0.64949 -0.4819
C_ C_ 0.159937 0.107974 0.657142 -0.4819
C_ C_ 0.160328 0.34907 0.658864 -0.4819
C_ C_ 1.000454419 0.104335 0.854167 -0.4819
C_ C_ 0.00292993 0.353784 0.841989 -0.4819
C_ C_ 0.162822 0.105372 0.846923 -0.4819
C_ C_ 0.171564 0.355285 0.848667 -0.4819
C_ C_ 0.172729 0.152959 0.00385073 -0.4819
C_ C_ 0.165905 0.395833 0.0139616 -0.4819
C_ C_ 0.332123 0.147527 0.0127509 -0.4819
C_ C_ 0.326219 0.396224 0.00824609 -0.4819
O_ O_ 0.122171 0.21725 0.837522 -0.96514
O_ O_ 0.126073 0.472581 0.832302 -0.96514
O_ O_ 0.285343 0.220696 0.838891 -0.96514
O_ O_ 0.292526 0.468867 0.839057 -0.96514
O_ O_ 0.0400371 0.223259 0.812849 -0.96514
O_ O_ 0.0433109 0.46463 0.837034 -0.96514
O_ O_ 0.204231 0.22195 0.838927 -0.96514
O_ O_ 0.210308 0.475833 0.809453 -0.96514
O_ O_ 0.163313 0.216949 0.777393 -0.96514
O_ O_ 0.140833 0.448945 0.775027 -0.96514
O_ O_ 0.304494 0.203779 0.777584 -0.96514
O_ O_ 0.332449 0.471226 0.777434 -0.96514
O_ O_ 0.0441782 0.034378 0.672557 -0.96514
O_ O_ 0.0455183 0.284984 0.663896 -0.96514
O_ O_ 0.215089 0.039801 0.669117 -0.96514
O_ O_ 0.209506 0.278679 0.669235 -0.96514
O_ O_ 0.123966 0.035192 0.673536 -0.96514
O_ O_ 0.128263 0.270998 0.643579 -0.96514
O_ O_ 0.29251 0.0219891 0.646249 -0.96514
O_ O_ 0.294192 0.278942 0.667424 -0.96514
O_ O_ 0.0282371 0.0497012 0.942145 -0.96514
O_ O_ 0.00504583 0.279286 0.941892 -0.96514
O_ O_ 0.167356 0.0305671 0.944197 -0.96514
O_ O_ 0.189612 0.296442 0.93877 -0.96514
O_ O_ 0.0469765 0.0344012 0.834848 -0.96514
O_ O_ 0.0459684 0.279149 0.832707 -0.96514
O_ O_ 0.211698 0.0321823 0.832304 -0.96514
O_ O_ 0.208836 0.283152 0.831366 -0.96514
O_ O_ 0.125968 0.0206422 0.854927 -0.96514
O_ O_ 0.121061 0.27677 0.834906 -0.96514
O_ O_ 0.292916 0.0311938 0.831225 -0.96514
O_ O_ 0.288477 0.278489 0.853369 -0.96514
O_ O_ 0.00236229 0.0249635 0.890341 -0.96514
O_ O_ 0.0273701 0.295781 0.892516 -0.96514
O_ O_ 0.19464 0.051915 0.892491 -0.96514
O_ O_ 0.168593 0.282861 0.893501 -0.96514
O_ O_ 0.123914 0.22075 -0.003546999999999967 -0.96514
O_ O_ 0.116187 0.462719 1.00192755 -0.96514
O_ O_ 0.278975 0.212313 1.00198269 -0.96514
O_ O_ 0.290141 0.471919 0.996108 -0.96514
O_ O_ 0.0396339 0.218782 -0.0021050000000000235 -0.96514
O_ O_ 0.0398579 0.475688 0.0228894 -0.96514
O_ O_ 0.20586 0.231401 0.0245403 -0.96514
O_ O_ 0.20615 0.469578 0.99883899 -0.96514
O_ O_ 0.139947 0.203497 0.725665 -0.96514
O_ O_ 0.164323 0.466428 0.723964 -0.96514
O_ O_ 0.332889 0.221182 0.724976 -0.96514
O_ O_ 0.307375 0.451216 0.723846 -0.96514
F_ F_ 0.0830034 0.227662 0.794292 -0.6238
F_ F_ 0.0996315 0.510814 0.785816 -0.6238
F_ F_ 0.26413 0.258022 0.788063 -0.6238
F_ F_ 0.250167 0.482927 0.792182 -0.6238
F_ F_ 0.0578275 0.980993 0.953421 -0.6238
F_ F_ 0.082786 0.273629 0.959241 -0.6238
F_ F_ 0.249382 0.0252595 0.962036 -0.6238
F_ F_ 0.232444 0.241093 0.954649 -0.6238
F_ F_ 0.0827878 0.021353 0.874497 -0.6238
F_ F_ 0.0573071 0.234534 0.881279 -0.6238
F_ F_ 0.233255 0.993523 0.88433 -0.6238
F_ F_ 0.24968 0.273364 0.874576 -0.6238
F_ F_ 0.100944 0.26309 0.714937 -0.6238
F_ F_ 0.0849882 0.474909 0.708229 -0.6238
F_ F_ 0.248336 0.231252 0.709468 -0.6238
F_ F_ 0.267142 0.509272 0.711311 -0.6238
Al Al 0.116374 0.730946 0.081243 2.01273
Al Al 0.116646 0.982171 0.0786662 2.01273
Al Al 0.280206 0.735277 0.0790003 2.01273
Al Al 0.285851 0.981491 0.0840833 2.01273
Al Al 0.0494653 0.51835 0.247535 2.01273
Al Al 0.0513053 0.763203 0.25356 2.01273
Al Al 0.216633 0.514459 0.250201 2.01273
Al Al 0.217252 0.759991 0.245033 2.01273
Al Al 0.0845653 0.00387000000000004 0.164708 1.93658
Al Al 0.0836782 0.746765 0.165848 1.93658
Al Al 0.247287 0.995055 0.169746 1.93658
Al Al 0.251808 0.752422 0.16034 1.93658
Al Al 0.0820906 0.498016 0.999715 1.93658
Al Al 0.0837421 0.749095 -0.000796157 1.93658
Al Al 0.251044 0.500977 0.335751 1.93658
Al Al 0.249101 0.74938 0.330564 1.93658
P_ P_ 0.164626 0.701874 0.144053 1.70002
P_ P_ 0.160748 0.952734 0.144828 1.70002
P_ P_ 0.326977 0.701622 0.1444 1.70002
P_ P_ 0.330532 0.952368 0.147025 1.70002
P_ P_ 0.0056138 0.546252 0.31451 1.70002
P_ P_ 0.00563903 0.795616 0.316725 1.70002
P_ P_ 0.167041 0.544871 0.312768 1.70002
P_ P_ 0.17291 0.79543 0.311217 1.70002
P_ P_ 1.00222906 0.548325 0.185991 1.70002
P_ P_ 0.00478349 0.79488 0.187046 1.70002
P_ P_ 0.170719 0.546464 0.184674 1.70002
P_ P_ 0.169489 0.795385 0.181725 1.70002
P_ P_ 0.163786 0.70139 0.0159388 1.70002
P_ P_ 0.16338 0.951325 0.020034 1.70002
P_ P_ 0.328945 0.702829 0.0186229 1.70002
P_ P_ 0.326043 0.952737 0.0160823 1.70002
H_ H_ 0.201113 0.644384 0.137267 0.16322
H_ H_ 0.191557 0.895068 0.129817 0.16322
H_ H_ 0.365358 0.638742 0.144354 0.16322
H_ H_ 0.36365 0.889966 0.131347 0.16322
H_ H_ 0.14045 0.641082 0.125935 0.16322
H_ H_ 0.132039 0.88588 0.141406 0.16322
H_ H_ 0.307049 0.631865 0.132157 0.16322
H_ H_ 0.300766 0.88671 0.131666 0.16322
H_ H_ 0.980495 0.604885 0.962474 0.16322
H_ H_ 0.974075 0.858695 -0.03677600000000003 0.16322
H_ H_ 0.137991 0.610645 0.961186 0.16322
H_ H_ 0.139104 0.856579 0.976206 0.16322
H_ H_ 0.0384567 0.610093 0.974418 0.16322
H_ H_ 1.0323201 0.859703 0.968067 0.16322
H_ H_ 0.193068 0.604265 0.958927 0.16322
H_ H_ 0.195638 0.861966 0.970297 0.16322
H_ H_ 0.969303 0.606079 0.200114 0.16322
H_ H_ 0.978005 0.856499 0.200949 0.16322
H_ H_ 0.136985 0.605476 0.193449 0.16322
H_ H_ 0.150673 0.859011 0.202884 0.16322
H_ H_ 0.0287721 0.612356 0.202967 0.16322
H_ H_ 0.0354123 0.854622 0.187217 0.16322
H_ H_ 0.197607 0.613278 0.194307 0.16322
H_ H_ 0.20968 0.854801 0.187179 0.16322
H_ H_ 0.183219 0.640525 0.370531 0.16322
H_ H_ 0.187081 0.888845 0.368937 0.16322
H_ H_ 0.350582 0.638998 0.368014 0.16322
H_ H_ 0.365522 0.896488 0.367033 0.16322
H_ H_ 0.127735 0.635761 0.355724 0.16322
H_ H_ 0.126682 0.890207 0.350947 0.16322
H_ H_ 0.291264 0.645137 0.356598 0.16322
H_ H_ 0.299415 0.896835 0.355489 0.16322
C_ C_ 0.165876 0.646092 0.149375 -0.4819
C_ C_ 0.16484 0.894458 0.154828 -0.4819
C_ C_ 0.329803 0.643379 0.152768 -0.4819
C_ C_ 0.332947 0.892919 0.149114 -0.4819
C_ C_ 0.0033884 0.604149 0.985738 -0.4819
C_ C_ 1.00089 0.855898 0.983389 -0.4819
C_ C_ 0.166468 0.604668 0.979139 -0.4819
C_ C_ 0.170051 0.853835 0.991606 -0.4819
C_ C_ 1.00064 0.606667 0.183531 -0.4819
C_ C_ 0.000166835 0.850955 0.176361 -0.4819
C_ C_ 0.168342 0.603686 0.177173 -0.4819
C_ C_ 0.17425 0.852753 0.179306 -0.4819
C_ C_ 0.161855 0.642345 0.345009 -0.4819
C_ C_ 0.163654 0.892554 0.344893 -0.4819
C_ C_ 0.32538 0.645551 0.346884 -0.4819
C_ C_ 0.336258 0.899403 0.346114 -0.4819
O_ O_ 0.11868 0.711576 0.160526 -0.96514
O_ O_ 0.12045 0.968117 0.167156 -0.96514
O_ O_ 0.290133 0.722012 0.167427 -0.96514
O_ O_ 0.286876 0.963064 0.166875 -0.96514
O_ O_ 0.0391816 0.726596 0.145601 -0.96514
O_ O_ 0.0458063 0.966948 0.166241 -0.96514
O_ O_ 0.209899 0.717912 0.16133 -0.96514
O_ O_ 0.206906 0.975989 0.14231 -0.96514
O_ O_ 0.163415 0.721805 0.106202 -0.96514
O_ O_ 0.140401 0.949328 0.105671 -0.96514
O_ O_ 0.306717 0.699868 0.105482 -0.96514
O_ O_ 0.329778 0.968392 0.106918 -0.96514
O_ O_ 0.0415429 0.529187 0.00499794 -0.96514
O_ O_ 0.043202 0.783491 1.00092 -0.96514
O_ O_ 0.214339 0.539265 0.997588 -0.96514
O_ O_ 0.207438 0.773648 -0.000862053 -0.96514
O_ O_ 0.126578 0.529262 0.999645877 -0.96514
O_ O_ 0.125081 0.77212 0.975598 -0.96514
O_ O_ 0.291855 0.520523 0.979218 -0.96514
O_ O_ 0.290094 0.783443 -0.003025999999999973 -0.96514
O_ O_ 0.0226212 0.549586 0.275072 -0.96514
O_ O_ 0.00551499 0.778176 0.278198 -0.96514
O_ O_ 0.170849 0.526881 0.273995 -0.96514
O_ O_ 0.196918 0.79292 0.273125 -0.96514
O_ O_ 0.0470708 0.535443 0.169034 -0.96514
O_ O_ 0.0431268 0.775638 0.163287 -0.96514
O_ O_ 0.213738 0.529073 0.165789 -0.96514
O_ O_ 0.212109 0.784515 0.160758 -0.96514
O_ O_ 0.125225 0.520619 0.185156 -0.96514
O_ O_ 0.126864 0.778898 0.16337 -0.96514
O_ O_ 0.288027 0.526816 0.171805 -0.96514
O_ O_ 0.294862 0.773047 0.183789 -0.96514
O_ O_ 0.00226332 0.530067 0.224311 -0.96514
O_ O_ 0.023 0.796331 0.22639 -0.96514
O_ O_ 0.189488 0.546908 0.224565 -0.96514
O_ O_ 0.171659 0.775994 0.22084 -0.96514
O_ O_ 0.126595 0.718688 0.327241 -0.96514
O_ O_ 0.121529 0.964495 0.330924 -0.96514
O_ O_ 0.289426 0.719144 0.33068 -0.96514
O_ O_ 0.296258 0.976447 0.333006 -0.96514
O_ O_ 0.0464182 0.716752 0.330021 -0.96514
O_ O_ 0.0378484 0.974585 0.358279 -0.96514
O_ O_ 0.210349 0.722739 0.353618 -0.96514
O_ O_ 0.208519 0.967503 0.33147 -0.96514
O_ O_ 0.137882 0.697456 0.05274 -0.96514
O_ O_ 0.160717 0.973951 0.0562495 -0.96514
O_ O_ 0.325783 0.722423 0.057426 -0.96514
O_ O_ 0.304676 0.947991 0.0540935 -0.96514
F_ F_ 0.082352 0.737579 0.119403 -0.6238
F_ F_ 0.104288 0.0104634 0.121602 -0.6238
F_ F_ 0.273937 0.764073 0.118067 -0.6238
F_ F_ 0.247353 0.979789 0.12289 -0.6238
F_ F_ 0.0628259 0.482773 0.284375 -0.6238
F_ F_ 0.0834776 0.768893 0.29122 -0.6238
F_ F_ 0.249038 0.517707 0.290368 -0.6238
F_ F_ 0.227251 0.738929 0.288231 -0.6238
F_ F_ 0.0849515 0.518707 0.206593 -0.6238
F_ F_ 0.0692541 0.738456 0.210182 -0.6238
F_ F_ 0.228088 0.482272 0.210255 -0.6238
F_ F_ 0.250372 0.767664 0.204795 -0.6238
F_ F_ 0.105905 0.75968 0.0405123 -0.6238
F_ F_ 0.0792633 0.97497 0.040783 -0.6238
F_ F_ 0.250743 0.736398 0.0360781 -0.6238
F_ F_ 0.269505 0.00956322 0.0451976 -0.6238
Al Al 0.119105 0.735081 0.418849 2.01273
Al Al 0.117047 0.982446 0.414209 2.01273
Al Al 0.284134 0.733772 0.414259 2.01273
Al Al 0.286803 0.986867 0.422285 2.01273
Al Al 0.0504328 0.516346 0.582229 2.01273
Al Al 0.0512428 0.760962 0.584413 2.01273
Al Al 0.216112 0.512881 0.588958 2.01273
Al Al 0.214115 0.764709 0.579536 2.01273
Al Al 0.0849978 0.00227488 0.4983 1.93658
Al Al 0.082009 0.74387 0.501844 1.93658
Al Al 0.247652 1.00083 0.505811 1.93658
Al Al 0.254487 0.75355 0.500735 1.93658
Al Al 0.0806874 0.493937 0.327077 1.93658
Al Al 0.0886779 0.7501 0.33516 1.93658
Al Al 0.252335 0.498828 0.667937 1.93658
Al Al 0.249645 0.74531 0.664581 1.93658
P_ P_ 0.168592 0.703685 0.480049 1.70002
P_ P_ 0.160929 0.953927 0.480746 1.70002
P_ P_ 0.33238 0.705264 0.479839 1.70002
P_ P_ 0.330303 0.953487 0.482258 1.70002
P_ P_ 0.00788457 0.544305 0.647669 1.70002
P_ P_ 0.00544755 0.796637 0.64792 1.70002
P_ P_ 0.168614 0.54309 0.651392 1.70002
P_ P_ 0.172529 0.796509 0.647761 1.70002
P_ P_ 0.00483712 0.545642 0.51923 1.70002
P_ P_ 0.00725217 0.795548 0.516704 1.70002
P_ P_ 0.171271 0.546433 0.520729 1.70002
P_ P_ 0.168057 0.796202 0.517184 1.70002
P_ P_ 0.1628 0.701202 0.35325 1.70002
P_ P_ 0.166033 0.950451 0.351935 1.70002
P_ P_ 0.330832 0.703808 0.352045 1.70002
P_ P_ 0.330304 0.954928 0.356516 1.70002
H_ H_ 0.208631 0.645022 0.481863 0.16322
H_ H_ 0.172594 0.91483 0.529361 0.16322
H_ H_ 0.380439 0.658907 0.499237 0.16322
H_ H_ 0.358761 0.890777 0.465297 0.16322
H_ H_ 0.156385 0.640713 0.4592 0.16322
H_ H_ 0.209816 0.897164 0.492389 0.16322
H_ H_ 0.358648 0.643079 0.462993 0.16322
H_ H_ 0.299904 0.886174 0.473265 0.16322
H_ H_ 0.983617 0.60936 0.29903 0.16322
H_ H_ 0.984415 0.855909 0.292603 0.16322
H_ H_ 0.137977 0.607059 0.29973 0.16322
H_ H_ 0.148746 0.856516 0.290976 0.16322
H_ H_ 0.0420511 0.608154 0.317609 0.16322
H_ H_ 0.041698 0.85711 0.303987 0.16322
H_ H_ 0.200231 0.612804 0.302769 0.16322
H_ H_ 0.201907 0.854586 0.306863 0.16322
H_ H_ 0.986775 0.6108 0.540567 0.16322
H_ H_ 0.969594 0.851454 0.527398 0.16322
H_ H_ 0.123967 0.599265 0.512303 0.16322
H_ H_ 0.153932 0.843374 0.471803 0.16322
H_ H_ 0.0408819 0.60712 0.522832 0.16322
H_ H_ 0.032368 0.860286 0.527671 0.16322
H_ H_ 0.170438 0.612149 0.538825 0.16322
H_ H_ 0.123957 0.856281 0.50972 0.16322
H_ H_ 0.201584 0.641965 0.701219 0.16322
H_ H_ 0.193747 0.893566 0.701895 0.16322
H_ H_ 0.352198 0.63571 0.700395 0.16322
H_ H_ 0.368786 0.906766 0.672567 0.16322
H_ H_ 0.142633 0.63559 0.699329 0.16322
H_ H_ 0.136618 0.890169 0.697131 0.16322
H_ H_ 0.293661 0.643228 0.692404 0.16322
H_ H_ 0.332912 0.891609 0.711897 0.16322
C_ C_ 0.172365 0.646847 0.486762 -0.4819
C_ C_ 0.173823 0.900638 0.500383 -0.4819
C_ C_ 0.348165 0.650529 0.490035 -0.4819
C_ C_ 0.333342 0.896039 0.486526 -0.4819
C_ C_ 0.00529077 0.604192 0.323369 -0.4819
C_ C_ 0.00853433 0.853419 0.3151 -0.4819
C_ C_ 0.169057 0.603316 0.318052 -0.4819
C_ C_ 0.167791 0.852506 0.316433 -0.4819
C_ C_ 0.00418968 0.605082 0.514337 -0.4819
C_ C_ 0.00224089 0.854057 0.510773 -0.4819
C_ C_ 0.160142 0.603576 0.510233 -0.4819
C_ C_ 0.160367 0.852208 0.500496 -0.4819
C_ C_ 0.172304 0.643644 0.683249 -0.4819
C_ C_ 0.166901 0.897935 0.679509 -0.4819
C_ C_ 0.328642 0.64335 0.679754 -0.4819
C_ C_ 0.334664 0.899392 0.681661 -0.4819
O_ O_ 0.127127 0.7178 0.500366 -0.96514
O_ O_ 0.124924 0.970931 0.507483 -0.96514
O_ O_ 0.28995 0.719158 0.500658 -0.96514
O_ O_ 0.284802 0.964413 0.49765 -0.96514
O_ O_ 0.0413434 0.726829 0.475188 -0.96514
O_ O_ 0.0425648 0.968423 0.502676 -0.96514
O_ O_ 0.212117 0.718619 0.502896 -0.96514
O_ O_ 0.20536 0.982034 0.481514 -0.96514
O_ O_ 0.166797 0.724638 0.440411 -0.96514
O_ O_ 0.13893 0.948846 0.442124 -0.96514
O_ O_ 0.312112 0.701407 0.44022 -0.96514
O_ O_ 0.330729 0.968068 0.442419 -0.96514
O_ O_ 0.043507 0.526433 0.336975 -0.96514
O_ O_ 0.0494068 0.780932 0.335989 -0.96514
O_ O_ 0.209963 0.531879 0.333614 -0.96514
O_ O_ 0.20796 0.77859 0.338678 -0.96514
O_ O_ 0.12229 0.526884 0.329479 -0.96514
O_ O_ 0.127251 0.772812 0.306729 -0.96514
O_ O_ 0.290316 0.526799 0.313259 -0.96514
O_ O_ 0.290598 0.7821 0.33475 -0.96514
O_ O_ 0.0281074 0.549114 0.608207 -0.96514
O_ O_ 0.0077052 0.779176 0.609234 -0.96514
O_ O_ 0.170578 0.52514 0.613286 -0.96514
O_ O_ 0.190364 0.79785 0.608476 -0.96514
O_ O_ 0.0481618 0.533722 0.499997 -0.96514
O_ O_ 0.0462884 0.778744 0.494211 -0.96514
O_ O_ 0.210307 0.530878 0.49639 -0.96514
O_ O_ 0.210229 0.780548 0.496833 -0.96514
O_ O_ 0.127729 0.521102 0.51974 -0.96514
O_ O_ 0.125463 0.775777 0.498116 -0.96514
O_ O_ 0.295947 0.529376 0.499134 -0.96514
O_ O_ 0.293723 0.773281 0.527485 -0.96514
O_ O_ 0.00397628 0.528208 0.558592 -0.96514
O_ O_ 0.0293733 0.794771 0.556055 -0.96514
O_ O_ 0.189853 0.54744 0.559564 -0.96514
O_ O_ 0.16934 0.779997 0.556045 -0.96514
O_ O_ 0.126061 0.718524 0.666043 -0.96514
O_ O_ 0.122389 0.971079 0.665182 -0.96514
O_ O_ 0.289568 0.713042 0.663376 -0.96514
O_ O_ 0.293665 0.975633 0.665258 -0.96514
O_ O_ 0.0431985 0.718776 0.667767 -0.96514
O_ O_ 0.0419285 0.975166 0.689349 -0.96514
O_ O_ 0.207798 0.728312 0.689986 -0.96514
O_ O_ 0.206729 0.971746 0.666102 -0.96514
O_ O_ 0.137699 0.699607 0.390762 -0.96514
O_ O_ 0.162021 0.970565 0.389532 -0.96514
O_ O_ 0.330112 0.721347 0.390386 -0.96514
O_ O_ 0.304234 0.953269 0.393419 -0.96514
F_ F_ 0.0821367 0.727788 0.456616 -0.6238
F_ F_ 0.105031 0.01255 0.45456 -0.6238
F_ F_ 0.273853 0.759834 0.456435 -0.6238
F_ F_ 0.253314 0.979829 0.46047 -0.6238
F_ F_ 0.0667228 0.485556 0.619153 -0.6238
F_ F_ 0.0863964 0.761197 0.623242 -0.6238
F_ F_ 0.253779 0.524147 0.624306 -0.6238
F_ F_ 0.231906 0.741132 0.619878 -0.6238
F_ F_ 0.0806533 0.516657 0.539848 -0.6238
F_ F_ 0.0628961 0.728363 0.545194 -0.6238
F_ F_ 0.229315 0.487661 0.544608 -0.6238
F_ F_ 0.252894 0.773641 0.544235 -0.6238
F_ F_ 0.109357 0.762561 0.37688 -0.6238
F_ F_ 0.0817471 0.976815 0.377525 -0.6238
F_ F_ 0.248467 0.729274 0.375966 -0.6238
F_ F_ 0.270241 0.0112872 0.379664 -0.6238
Al Al 0.114393 0.734501 0.751535 2.01273
Al Al 0.114908 0.983454 0.748203 2.01273
Al Al 0.283531 0.733086 0.747197 2.01273
Al Al 0.281931 0.988599 0.75731 2.01273
Al Al 0.0473562 0.512201 0.914345 2.01273
Al Al 0.0442666 0.762439 0.920229 2.01273
Al Al 0.221787 0.516242 0.917361 2.01273
Al Al 0.215754 0.765062 0.916934 2.01273
Al Al 0.0828514 0.00101775 0.830257 1.93658
Al Al 0.0817781 0.746718 0.838161 1.93658
Al Al 0.250116 1.00029 0.839195 1.93658
Al Al 0.248458 0.752051 0.832549 1.93658
Al Al 0.0827638 0.495702 0.662754 1.93658
Al Al 0.0870748 0.750052 0.669492 1.93658
Al Al 0.249945 0.501698 0.00398542 1.93658
Al Al 0.250093 0.74809 0.992415 1.93658
P_ P_ 0.161079 0.70275 0.815158 1.70002
P_ P_ 0.162254 0.954436 0.814427 1.70002
P_ P_ 0.327725 0.704295 0.814387 1.70002
P_ P_ 0.330351 0.954811 0.817738 1.70002
P_ P_ 0.00491388 0.547061 0.980087 1.70002
P_ P_ 0.999587139 0.796381 0.982165 1.70002
P_ P_ 0.168797 0.54554 0.978522 1.70002
P_ P_ 0.170822 0.795838 0.978233 1.70002
P_ P_ 0.00212245 0.544278 0.853897 1.70002
P_ P_ 0.00446734 0.797217 0.854659 1.70002
P_ P_ 0.173427 0.545432 0.85314 1.70002
P_ P_ 0.167481 0.797621 0.854721 1.70002
P_ P_ 0.163183 0.700114 0.689944 1.70002
P_ P_ 0.162651 0.955824 0.684714 1.70002
P_ P_ 0.329703 0.700965 0.685643 1.70002
P_ P_ 0.328454 0.95489 0.690558 1.70002
H_ H_ 0.204821 0.645712 0.798564 0.16322
H_ H_ 0.178893 0.887335 0.7993 0.16322
H_ H_ 0.358485 0.641694 0.807632 0.16322
H_ H_ 0.373668 0.902274 0.825191 0.16322
H_ H_ 0.150139 0.634269 0.791978 0.16322
H_ H_ 0.124807 0.888822 0.811027 0.16322
H_ H_ 0.301418 0.642534 0.813478 0.16322
H_ H_ 0.339776 0.885961 0.790429 0.16322
H_ H_ 0.974478 0.587928 0.686853 0.16322
H_ H_ 0.970673 0.852588 0.63184 0.16322
H_ H_ 0.143444 0.606613 0.638222 0.16322
H_ H_ 0.139598 0.856486 0.63706 0.16322
H_ H_ -0.031556999999999946 0.603555 0.64135 0.16322
H_ H_ 0.0335624 0.858897 0.633423 0.16322
H_ H_ 0.201173 0.606019 0.636451 0.16322
H_ H_ 0.20212 0.861321 0.639451 0.16322
H_ H_ 0.958526 0.603378 0.856276 0.16322
H_ H_ 0.993582 0.860932 0.869456 0.16322
H_ H_ 0.140768 0.607602 0.861075 0.16322
H_ H_ 0.147876 0.860364 0.875818 0.16322
H_ H_ 0.0107912 0.609015 0.879189 0.16322
H_ H_ 0.0445818 0.857933 0.848135 0.16322
H_ H_ 0.204611 0.608216 0.858906 0.16322
H_ H_ 0.203607 0.857002 0.860556 0.16322
H_ H_ 0.211214 0.647878 0.00954358 0.16322
H_ H_ 0.204128 0.89914 0.0304598 0.16322
H_ H_ 0.369466 0.651621 0.0141219 0.16322
H_ H_ 0.341729 0.888603 0.0374953 0.16322
H_ H_ 0.165234 0.631908 0.0350008 0.16322
H_ H_ 0.143275 0.885935 0.0414348 0.16322
H_ H_ 0.324836 0.638775 0.0434629 0.16322
H_ H_ 0.289695 0.889233 0.0111704 0.16322
C_ C_ 0.17315 0.64411 0.814792 -0.4819
C_ C_ 0.159189 0.895816 0.823163 -0.4819
C_ C_ 0.332543 0.646543 0.828508 -0.4819
C_ C_ 0.338701 0.897363 0.819572 -0.4819
C_ C_ -0.005716999999999972 0.598324 0.663134 -0.4819
C_ C_ 0.00104359 0.854246 0.648188 -0.4819
C_ C_ 0.173127 0.60234 0.656011 -0.4819
C_ C_ 0.170668 0.854549 0.655917 -0.4819
C_ C_ 0.996387 0.603047 0.851551 -0.4819
C_ C_ 0.009200000000000097 0.854214 0.842365 -0.4819
C_ C_ 0.172415 0.603551 0.844479 -0.4819
C_ C_ 0.169377 0.856559 0.851753 -0.4819
C_ C_ 0.172919 0.643499 0.00784803 -0.4819
C_ C_ 0.169448 0.893242 0.0201989 -0.4819
C_ C_ 0.331989 0.645717 0.0144797 -0.4819
C_ C_ 0.325668 0.894275 0.00965672 -0.4819
O_ O_ 0.11238 0.706842 0.828421 -0.96514
O_ O_ 0.120674 0.968589 0.835247 -0.96514
O_ O_ 0.289826 0.721585 0.836415 -0.96514
O_ O_ 0.285678 0.963887 0.835843 -0.96514
O_ O_ 0.0346479 0.73174 0.813079 -0.96514
O_ O_ 0.0379325 0.969771 0.831314 -0.96514
O_ O_ 0.203925 0.722015 0.836083 -0.96514
O_ O_ 0.210564 0.977117 0.814523 -0.96514
O_ O_ 0.159716 0.728059 0.778981 -0.96514
O_ O_ 0.144278 0.950509 0.774481 -0.96514
O_ O_ 0.309941 0.700267 0.774758 -0.96514
O_ O_ 0.32573 0.970222 0.77815 -0.96514
O_ O_ 0.0487284 0.529888 0.668949 -0.96514
O_ O_ 0.0469969 0.784448 0.669543 -0.96514
O_ O_ 0.210422 0.526956 0.672107 -0.96514
O_ O_ 0.210265 0.776246 0.669301 -0.96514
O_ O_ 0.123584 0.527568 0.667713 -0.96514
O_ O_ 0.129592 0.768445 0.644125 -0.96514
O_ O_ 0.295064 0.520095 0.641909 -0.96514
O_ O_ 0.290541 0.77808 0.673822 -0.96514
O_ O_ 0.0292706 0.547898 0.94328 -0.96514
O_ O_ 0.9999540076 0.776267 0.944038 -0.96514
O_ O_ 0.173026 0.52729 0.938813 -0.96514
O_ O_ 0.193283 0.799231 0.941261 -0.96514
O_ O_ 0.046969 0.532288 0.836187 -0.96514
O_ O_ 0.0397721 0.775849 0.831284 -0.96514
O_ O_ 0.215675 0.532489 0.834018 -0.96514
O_ O_ 0.213725 0.78908 0.838293 -0.96514
O_ O_ 0.127617 0.520316 0.852129 -0.96514
O_ O_ 0.124475 0.777777 0.836994 -0.96514
O_ O_ 0.290804 0.529784 0.831953 -0.96514
O_ O_ 0.291486 0.773387 0.856289 -0.96514
O_ O_ 0.00238389 0.5284 0.892908 -0.96514
O_ O_ 0.0277724 0.798581 0.89303 -0.96514
O_ O_ 0.19039 0.547739 0.893041 -0.96514
O_ O_ 0.170296 0.773658 0.891471 -0.96514
O_ O_ 0.122571 0.717602 0.994785 -0.96514
O_ O_ 0.11684 0.956104 0.00227628 -0.96514
O_ O_ 0.284492 0.711771 0.999648 -0.96514
O_ O_ 0.285312 0.967297 0.993465 -0.96514
O_ O_ 0.0370299 0.71955 -0.0026840000000000197 -0.96514
O_ O_ 0.0390604 0.976142 0.0216969 -0.96514
O_ O_ 0.207188 0.729412 0.0170953 -0.96514
O_ O_ 0.203484 0.971806 0.99840662 -0.96514
O_ O_ 0.141285 0.699192 0.72824 -0.96514
O_ O_ 0.160403 0.972371 0.722959 -0.96514
O_ O_ 0.328378 0.716699 0.725357 -0.96514
O_ O_ 0.309005 0.956306 0.729751 -0.96514
F_ F_ 0.0828027 0.738303 0.792529 -0.6238
F_ F_ 0.108568 0.0133754 0.788753 -0.6238
F_ F_ 0.26727 0.765593 0.785618 -0.6238
F_ F_ 0.249927 0.983851 0.796918 -0.6238
F_ F_ 0.0631897 0.487689 0.956024 -0.6238
F_ F_ 0.0793416 0.769927 0.9566 -0.6238
F_ F_ 0.249707 0.513288 0.95914 -0.6238
F_ F_ 0.228714 0.730316 0.951007 -0.6238
F_ F_ 0.0784029 0.514443 0.875098 -0.6238
F_ F_ 0.053476 0.733537 0.877188 -0.6238
F_ F_ 0.227498 0.485948 0.878334 -0.6238
F_ F_ 0.250974 0.771558 0.877449 -0.6238
F_ F_ 0.111877 0.766998 0.711667 -0.6238
F_ F_ 0.0811154 0.981748 0.710031 -0.6238
F_ F_ 0.247386 0.724617 0.709207 -0.6238
F_ F_ 0.268832 0.0117959 0.714477 -0.6238
Al Al 0.449299 0.23389 0.0859284 2.01273
Al Al 0.450166 0.491073 0.0788476 2.01273
Al Al 0.614009 0.236964 0.0820385 2.01273
Al Al 0.619061 0.487156 0.0893765 2.01273
Al Al 0.3791 0.011862 0.247893 2.01273
Al Al 0.378852 0.267609 0.250674 2.01273
Al Al 0.549721 0.015458 0.250055 2.01273
Al Al 0.549449 0.265104 0.247517 2.01273
Al Al 0.418647 0.504636 0.164238 1.93658
Al Al 0.411298 0.24937 0.172102 1.93658
Al Al 0.583272 0.494969 0.170917 1.93658
Al Al 0.58209 0.252082 0.16275 1.93658
Al Al 0.411762 0.999610978 0.996764 1.93658
Al Al 0.41393 0.249402 0.00389869 1.93658
Al Al 0.585386 0.00420352 0.337445 1.93658
Al Al 0.584037 0.248814 0.329854 1.93658
P_ P_ 0.49626 0.205337 0.149995 1.70002
P_ P_ 0.492967 0.455249 0.146026 1.70002
P_ P_ 0.658051 0.202228 0.147802 1.70002
P_ P_ 0.666935 0.452644 0.14997 1.70002
P_ P_ 0.33866 0.0488346 0.311177 1.70002
P_ P_ 0.334893 0.296555 0.312733 1.70002
P_ P_ 0.50247 0.0461472 0.314394 1.70002
P_ P_ 0.506985 0.29651 0.311023 1.70002
P_ P_ 0.33546 0.0466687 0.184793 1.70002
P_ P_ 0.336716 0.30054 0.185168 1.70002
P_ P_ 0.504803 0.0477009 0.187006 1.70002
P_ P_ 0.500792 0.296846 0.185308 1.70002
P_ P_ 0.494101 0.203722 0.0218596 1.70002
P_ P_ 0.496982 0.455385 0.0180708 1.70002
P_ P_ 0.661985 0.202487 0.0214593 1.70002
P_ P_ 0.659805 0.452369 0.021653 1.70002
H_ H_ 0.533507 0.149732 0.136882 0.16322
H_ H_ 0.495951 0.385741 0.12422 0.16322
H_ H_ 0.698866 0.14424 0.143641 0.16322
H_ H_ 0.693494 0.391094 0.13467 0.16322
H_ H_ 0.475541 0.140663 0.134199 0.16322
H_ H_ 0.454414 0.395335 0.15249 0.16322
H_ H_ 0.640048 0.137719 0.132499 0.16322
H_ H_ 0.632668 0.392832 0.130337 0.16322
H_ H_ 0.290581 0.0998694 0.986793 0.16322
H_ H_ 0.313645 0.358557 0.958063 0.16322
H_ H_ 0.454887 0.0969248 1.00791701 0.16322
H_ H_ 0.493282 0.360808 0.959788 0.16322
H_ H_ 0.33917 0.115702 0.962706 0.16322
H_ H_ 0.372168 0.359413 0.97301 0.16322
H_ H_ 0.474037 0.11233 0.964271 0.16322
H_ H_ 0.54185 0.351776 0.989488 0.16322
H_ H_ 0.313573 0.107959 0.206942 0.16322
H_ H_ 0.309762 0.36042 0.191697 0.16322
H_ H_ 0.464783 0.106384 0.191784 0.16322
H_ H_ 0.486551 0.36096 0.204908 0.16322
H_ H_ 0.367924 0.105742 0.187494 0.16322
H_ H_ 0.36983 0.366791 0.192173 0.16322
H_ H_ 0.52533 0.110549 0.199501 0.16322
H_ H_ 0.5396 0.35826 0.188313 0.16322
H_ H_ 0.522191 0.144066 0.369543 0.16322
H_ H_ 0.543745 0.40183 0.334161 0.16322
H_ H_ 0.70191 0.145603 0.361458 0.16322
H_ H_ 0.696972 0.400624 0.350048 0.16322
H_ H_ 0.46114 0.140932 0.35921 0.16322
H_ H_ 0.511489 0.390385 0.374296 0.16322
H_ H_ 0.640256 0.13981 0.367243 0.16322
H_ H_ 0.640034 0.38632 0.363062 0.16322
C_ C_ 0.501615 0.147138 0.152648 -0.4819
C_ C_ 0.492664 0.395346 0.152699 -0.4819
C_ C_ 0.664108 0.145543 0.156667 -0.4819
C_ C_ 0.662611 0.395583 0.150355 -0.4819
C_ C_ 0.325966 0.104534 0.989013 -0.4819
C_ C_ 0.335415 0.354999 0.982535 -0.4819
C_ C_ 0.485283 0.105248 0.992398 -0.4819
C_ C_ 0.505164 0.354989 0.989275 -0.4819
C_ C_ 0.330921 0.105516 0.179524 -0.4819
C_ C_ 0.339979 0.358963 0.174725 -0.4819
C_ C_ 0.498534 0.104663 0.179017 -0.4819
C_ C_ 0.505388 0.3546 0.180211 -0.4819
C_ C_ 0.495398 0.144361 0.347676 -0.4819
C_ C_ 0.508652 0.396165 0.343894 -0.4819
C_ C_ 0.668573 0.145989 0.348036 -0.4819
C_ C_ 0.663274 0.396137 0.341766 -0.4819
O_ O_ 0.452388 0.217166 0.168349 -0.96514
O_ O_ 0.455398 0.47067 0.170055 -0.96514
O_ O_ 0.622691 0.22209 0.168957 -0.96514
O_ O_ 0.626086 0.466258 0.170238 -0.96514
O_ O_ 0.374701 0.225456 0.144917 -0.96514
O_ O_ 0.377523 0.471924 0.168967 -0.96514
O_ O_ 0.53789 0.222763 0.169814 -0.96514
O_ O_ 0.541197 0.476115 0.145833 -0.96514
O_ O_ 0.494987 0.224199 0.110911 -0.96514
O_ O_ 0.467679 0.456902 0.108676 -0.96514
O_ O_ 0.640246 0.203045 0.10864 -0.96514
O_ O_ 0.665128 0.469968 0.11104 -0.96514
O_ O_ 0.377004 0.032359 0.00298469 -0.96514
O_ O_ 0.381171 0.286566 0.0013499999999999623 -0.96514
O_ O_ 0.541969 0.0363179 1.00268478 -0.96514
O_ O_ 0.542769 0.278798 0.00511515 -0.96514
O_ O_ 0.452901 0.0325148 -0.000846783 -0.96514
O_ O_ 0.457069 0.272645 0.980311 -0.96514
O_ O_ 0.626542 0.0229791 0.979617 -0.96514
O_ O_ 0.625065 0.277918 0.9999020685 -0.96514
O_ O_ 0.358331 0.0506794 0.271324 -0.96514
O_ O_ 0.332122 0.278038 0.273387 -0.96514
O_ O_ 0.505581 0.028089 0.275512 -0.96514
O_ O_ 0.530414 0.301622 0.272937 -0.96514
O_ O_ 0.381356 0.0360748 0.168314 -0.96514
O_ O_ 0.37501 0.281947 0.162164 -0.96514
O_ O_ 0.54264 0.0296707 0.162819 -0.96514
O_ O_ 0.542458 0.283044 0.166267 -0.96514
O_ O_ 0.45983 0.0188319 0.187945 -0.96514
O_ O_ 0.455602 0.281225 0.165987 -0.96514
O_ O_ 0.624436 0.0277403 0.168677 -0.96514
O_ O_ 0.621394 0.276145 0.18863 -0.96514
O_ O_ 0.333218 0.0279184 0.22308 -0.96514
O_ O_ 0.359637 0.304059 0.223699 -0.96514
O_ O_ 0.527001 0.0474947 0.225013 -0.96514
O_ O_ 0.503359 0.280983 0.224793 -0.96514
O_ O_ 0.456921 0.216823 0.32996 -0.96514
O_ O_ 0.458191 0.470175 0.325746 -0.96514
O_ O_ 0.621911 0.213835 0.335686 -0.96514
O_ O_ 0.618774 0.467059 0.333063 -0.96514
O_ O_ 0.371893 0.222397 0.329833 -0.96514
O_ O_ 0.372676 0.478272 0.353598 -0.96514
O_ O_ 0.541941 0.228479 0.35396 -0.96514
O_ O_ 0.543973 0.471521 0.33198 -0.96514
O_ O_ 0.473661 0.201251 0.0601994 -0.96514
O_ O_ 0.49516 0.473111 0.0563875 -0.96514
O_ O_ 0.661642 0.222423 0.0591682 -0.96514
O_ O_ 0.640163 0.449299 0.060143 -0.96514
F_ F_ 0.41297 0.22911 0.126208 -0.6238
F_ F_ 0.432459 0.511469 0.120702 -0.6238
F_ F_ 0.602724 0.269393 0.12106 -0.6238
F_ F_ 0.584628 0.478502 0.126942 -0.6238
F_ F_ 0.396157 0.987317 0.288917 -0.6238
F_ F_ 0.414783 0.271928 0.290771 -0.6238
F_ F_ 0.581977 0.0134741 0.292357 -0.6238
F_ F_ 0.56396 0.239458 0.287921 -0.6238
F_ F_ 0.41265 0.0148364 0.209674 -0.6238
F_ F_ 0.392704 0.236769 0.215422 -0.6238
F_ F_ 0.557148 0.985717 0.210078 -0.6238
F_ F_ 0.582029 0.271661 0.20749 -0.6238
F_ F_ 0.433532 0.263504 0.0491609 -0.6238
F_ F_ 0.415486 0.485621 0.042055 -0.6238
F_ F_ 0.58088 0.230834 0.0409643 -0.6238
F_ F_ 0.602688 0.511965 0.0479931 -0.6238
Al Al 0.45573 0.238458 0.41936 2.01273
Al Al 0.450654 0.483621 0.408652 2.01273
Al Al 0.620123 0.235286 0.413206 2.01273
Al Al 0.616848 0.485955 0.417624 2.01273
Al Al 0.386366 0.013895 0.581842 2.01273
Al Al 0.383043 0.265583 0.582557 2.01273
Al Al 0.551037 0.0137855 0.588475 2.01273
Al Al 0.546294 0.264993 0.58052 2.01273
Al Al 0.420739 0.500604 0.495425 1.93658
Al Al 0.41423 0.244404 0.501926 1.93658
Al Al 0.584448 0.498194 0.502442 1.93658
Al Al 0.585028 0.25195 0.498054 1.93658
Al Al 0.413204 0.998978 0.331252 1.93658
Al Al 0.420471 0.252167 0.335679 1.93658
Al Al 0.582681 1.00311333 0.668199 1.93658
Al Al 0.582717 0.247481 0.661791 1.93658
P_ P_ 0.500405 0.202539 0.482771 1.70002
P_ P_ 0.499097 0.453622 0.474418 1.70002
P_ P_ 0.660267 0.203095 0.479385 1.70002
P_ P_ 0.664822 0.453523 0.479092 1.70002
P_ P_ 0.337863 0.0466427 0.646375 1.70002
P_ P_ 0.3357 0.295566 0.646008 1.70002
P_ P_ 0.502185 0.0463971 0.647697 1.70002
P_ P_ 0.503601 0.295103 0.646386 1.70002
P_ P_ 0.335587 0.0444963 0.519488 1.70002
P_ P_ 0.34062 0.299369 0.517494 1.70002
P_ P_ 0.506935 0.0482932 0.523451 1.70002
P_ P_ 0.500742 0.296833 0.516768 1.70002
P_ P_ 0.49654 0.202329 0.353869 1.70002
P_ P_ 0.500129 0.453697 0.346828 1.70002
P_ P_ 0.667621 0.203908 0.353536 1.70002
P_ P_ 0.661283 0.453535 0.352751 1.70002
H_ H_ 0.528773 0.139184 0.469331 0.16322
H_ H_ 0.545416 0.397101 0.485448 0.16322
H_ H_ 0.697502 0.147703 0.475408 0.16322
H_ H_ 0.693717 0.388496 0.466196 0.16322
H_ H_ 0.473545 0.137421 0.468452 0.16322
H_ H_ 0.498064 0.38596 0.45763 0.16322
H_ H_ 0.635355 0.138029 0.470981 0.16322
H_ H_ 0.633651 0.388128 0.467911 0.16322
H_ H_ 0.309708 0.112795 0.297763 0.16322
H_ H_ 0.307976 0.358419 0.295811 0.16322
H_ H_ 0.473802 0.108946 0.295556 0.16322
H_ H_ 0.466281 0.339075 0.343487 0.16322
H_ H_ 0.367038 0.114991 0.298331 0.16322
H_ H_ 0.365903 0.358191 0.301477 0.16322
H_ H_ 0.532847 0.105208 0.302202 0.16322
H_ H_ 0.482862 0.361287 0.296815 0.16322
H_ H_ 0.324871 0.109888 0.542306 0.16322
H_ H_ 0.307806 0.35652 0.528641 0.16322
H_ H_ 0.468804 0.106722 0.532362 0.16322
H_ H_ 0.456763 0.353174 0.50962 0.16322
H_ H_ 0.377491 0.105944 0.521728 0.16322
H_ H_ 0.368746 0.362169 0.525171 0.16322
H_ H_ 0.525249 0.112234 0.538458 0.16322
H_ H_ 0.507015 0.356082 0.53448 0.16322
H_ H_ 0.516871 0.139713 0.698841 0.16322
H_ H_ 0.516006 0.387884 0.707401 0.16322
H_ H_ 0.681656 0.140383 0.709497 0.16322
H_ H_ 0.678754 0.387798 0.702632 0.16322
H_ H_ 0.458267 0.137138 0.689361 0.16322
H_ H_ 0.460636 0.390749 0.687284 0.16322
H_ H_ 0.6242 0.141618 0.692988 0.16322
H_ H_ 0.623523 0.392071 0.68313 0.16322
C_ C_ 0.500928 0.144082 0.487127 -0.4819
C_ C_ 0.508878 0.396496 0.485086 -0.4819
C_ C_ 0.664468 0.147092 0.488227 -0.4819
C_ C_ 0.664373 0.394491 0.483324 -0.4819
C_ C_ 0.339865 0.107356 0.317201 -0.4819
C_ C_ 0.33431 0.353904 0.316805 -0.4819
C_ C_ 0.499931 0.104999 0.318088 -0.4819
C_ C_ 0.49418 0.351623 0.324883 -0.4819
C_ C_ 0.340911 0.103092 0.514858 -0.4819
C_ C_ 0.337581 0.355732 0.510958 -0.4819
C_ C_ 0.500203 0.104769 0.517374 -0.4819
C_ C_ 0.493636 0.353017 0.507028 -0.4819
C_ C_ 0.493632 0.143317 0.675524 -0.4819
C_ C_ 0.498173 0.391994 0.681256 -0.4819
C_ C_ 0.660749 0.145219 0.685213 -0.4819
C_ C_ 0.660564 0.395751 0.677752 -0.4819
O_ O_ 0.454833 0.214243 0.499732 -0.96514
O_ O_ 0.462439 0.469001 0.498162 -0.96514
O_ O_ 0.61889 0.21731 0.498569 -0.96514
O_ O_ 0.620093 0.465198 0.496658 -0.96514
O_ O_ 0.370838 0.226055 0.476855 -0.96514
O_ O_ 0.376013 0.469576 0.502028 -0.96514
O_ O_ 0.542351 0.221385 0.502248 -0.96514
O_ O_ 0.544726 0.479076 0.475691 -0.96514
O_ O_ 0.49644 0.216713 0.443916 -0.96514
O_ O_ 0.478111 0.452509 0.436511 -0.96514
O_ O_ 0.639029 0.203235 0.442135 -0.96514
O_ O_ 0.664193 0.475706 0.441463 -0.96514
O_ O_ 0.382577 0.036342 0.331476 -0.96514
O_ O_ 0.380516 0.281495 0.328215 -0.96514
O_ O_ 0.546169 0.0357012 0.335051 -0.96514
O_ O_ 0.541719 0.277634 0.335781 -0.96514
O_ O_ 0.456948 0.0311968 0.330354 -0.96514
O_ O_ 0.459903 0.275667 0.309694 -0.96514
O_ O_ 0.624534 0.0271786 0.31128 -0.96514
O_ O_ 0.626998 0.279939 0.333669 -0.96514
O_ O_ 0.356887 0.0452963 0.607749 -0.96514
O_ O_ 0.334967 0.274666 0.606833 -0.96514
O_ O_ 0.501824 0.0270068 0.609998 -0.96514
O_ O_ 0.520518 0.298368 0.605715 -0.96514
O_ O_ 0.377547 0.032481 0.498553 -0.96514
O_ O_ 0.378646 0.277956 0.495739 -0.96514
O_ O_ 0.545675 0.0343808 0.49857 -0.96514
O_ O_ 0.544313 0.281343 0.500317 -0.96514
O_ O_ 0.463084 0.0218932 0.519208 -0.96514
O_ O_ 0.454943 0.277936 0.500852 -0.96514
O_ O_ 0.630348 0.0309381 0.50102 -0.96514
O_ O_ 0.625811 0.275996 0.524132 -0.96514
O_ O_ 0.339888 0.0223941 0.55743 -0.96514
O_ O_ 0.357405 0.298831 0.556452 -0.96514
O_ O_ 0.526809 0.0479747 0.563137 -0.96514
O_ O_ 0.502524 0.282861 0.556575 -0.96514
O_ O_ 0.454977 0.218323 0.664253 -0.96514
O_ O_ 0.454535 0.46012 0.664641 -0.96514
O_ O_ 0.622816 0.215679 0.663111 -0.96514
O_ O_ 0.624263 0.468307 0.667361 -0.96514
O_ O_ 0.372928 0.219613 0.665928 -0.96514
O_ O_ 0.371972 0.475829 0.679561 -0.96514
O_ O_ 0.539274 0.226348 0.686849 -0.96514
O_ O_ 0.542332 0.468598 0.667031 -0.96514
O_ O_ 0.473739 0.201223 0.392703 -0.96514
O_ O_ 0.495399 0.470169 0.385422 -0.96514
O_ O_ 0.6683 0.221315 0.391933 -0.96514
O_ O_ 0.648033 0.45233 0.392321 -0.96514
F_ F_ 0.417009 0.234347 0.455329 -0.6238
F_ F_ 0.431028 0.508044 0.449608 -0.6238
F_ F_ 0.604586 0.262288 0.455559 -0.6238
F_ F_ 0.586231 0.481948 0.457248 -0.6238
F_ F_ 0.395588 0.986042 0.622759 -0.6238
F_ F_ 0.409584 0.255976 0.622672 -0.6238
F_ F_ 0.584449 0.0255241 0.625787 -0.6238
F_ F_ 0.562406 0.235341 0.619194 -0.6238
F_ F_ 0.416487 0.016831 0.540983 -0.6238
F_ F_ 0.396722 0.231892 0.5462 -0.6238
F_ F_ 0.56739 0.988685 0.5481 -0.6238
F_ F_ 0.581262 0.268431 0.544192 -0.6238
F_ F_ 0.441283 0.265795 0.37873 -0.6238
F_ F_ 0.418973 0.475971 0.371317 -0.6238
F_ F_ 0.584237 0.231259 0.376387 -0.6238
F_ F_ 0.608783 0.51821 0.377346 -0.6238
Al Al 0.448468 0.23458 0.752252 2.01273
Al Al 0.451716 0.486417 0.746765 2.01273
Al Al 0.620288 0.240355 0.74569 2.01273
Al Al 0.618545 0.48524 0.752738 2.01273
Al Al 0.381493 0.0172301 0.914796 2.01273
Al Al 0.38292 0.267717 0.91832 2.01273
Al Al 0.543235 0.0123322 0.920399 2.01273
Al Al 0.548568 0.266696 0.914621 2.01273
Al Al 0.418335 0.502624 0.829305 1.93658
Al Al 0.413505 0.24688 0.841054 1.93658
Al Al 0.583363 0.499172 0.838877 1.93658
Al Al 0.583238 0.253109 0.829532 1.93658
Al Al 0.416752 0.998379 0.663541 1.93658
Al Al 0.416562 0.250762 0.669472 1.93658
Al Al 0.581341 0.0028241 0.00196178 1.93658
Al Al 0.580255 0.247562 0.993576 1.93658
P_ P_ 0.495752 0.202581 0.815007 1.70002
P_ P_ 0.497695 0.454278 0.812407 1.70002
P_ P_ 0.660415 0.204285 0.814091 1.70002
P_ P_ 0.667475 0.455584 0.814571 1.70002
P_ P_ 0.338201 0.048844 0.980067 1.70002
P_ P_ 0.336243 0.29723 0.982258 1.70002
P_ P_ 0.498938 0.0482862 0.981447 1.70002
P_ P_ 0.502929 0.298342 0.983808 1.70002
P_ P_ 0.333861 0.0483152 0.854182 1.70002
P_ P_ 0.337727 0.297298 0.853487 1.70002
P_ P_ 0.507246 0.0454719 0.852819 1.70002
P_ P_ 0.501618 0.294255 0.851038 1.70002
P_ P_ 0.493997 0.200443 0.686748 1.70002
P_ P_ 0.498599 0.449584 0.685611 1.70002
P_ P_ 0.663524 0.204614 0.685866 1.70002
P_ P_ 0.663003 0.452546 0.688307 1.70002
H_ H_ 0.530666 0.146325 0.800654 0.16322
H_ H_ 0.531217 0.410719 0.853773 0.16322
H_ H_ 0.687785 0.141286 0.797971 0.16322
H_ H_ 0.678813 0.391397 0.790349 0.16322
H_ H_ 0.473152 0.138584 0.803028 0.16322
H_ H_ 0.531571 0.397887 0.808053 0.16322
H_ H_ 0.629592 0.14247 0.808076 0.16322
H_ H_ 0.625497 0.396058 0.807242 0.16322
H_ H_ 0.311997 0.105884 0.634987 0.16322
H_ H_ 0.304534 0.356092 0.633838 0.16322
H_ H_ 0.477304 0.106635 0.625641 0.16322
H_ H_ 0.488957 0.35788 0.626554 0.16322
H_ H_ 0.367081 0.110097 0.633073 0.16322
H_ H_ 0.36036 0.363387 0.626782 0.16322
H_ H_ 0.535953 0.111467 0.641117 0.16322
H_ H_ 0.541528 0.3572 0.646126 0.16322
H_ H_ 0.309289 0.107681 0.867033 0.16322
H_ H_ 0.313138 0.363402 0.867045 0.16322
H_ H_ 0.498209 0.107023 0.870263 0.16322
H_ H_ 0.482011 0.340727 0.814895 0.16322
H_ H_ 0.367656 0.11232 0.863961 0.16322
H_ H_ 0.373045 0.363969 0.859615 0.16322
H_ H_ 0.544959 0.103736 0.848212 0.16322
H_ H_ 0.46439 0.352475 0.858928 0.16322
H_ H_ 0.53473 0.160432 -0.010139000000000009 0.16322
H_ H_ 0.525833 0.397023 0.0352447 0.16322
H_ H_ 0.693035 0.141413 0.0357386 0.16322
H_ H_ 0.691519 0.393449 0.031543 0.16322
H_ H_ 0.521087 0.143645 0.0348764 0.16322
H_ H_ 0.464296 0.393717 0.0268986 0.16322
H_ H_ 0.634668 0.138047 0.0334857 0.16322
H_ H_ 0.632482 0.387844 0.0314599 0.16322
C_ C_ 0.501426 0.145741 0.81949 -0.4819
C_ C_ 0.507211 0.400167 0.831185 -0.4819
C_ C_ 0.662705 0.145868 0.820977 -0.4819
C_ C_ 0.661816 0.396447 0.81598 -0.4819
C_ C_ 0.342362 0.104925 0.652253 -0.4819
C_ C_ 0.337597 0.354158 0.649523 -0.4819
C_ C_ 0.500362 0.102752 0.649458 -0.4819
C_ C_ 0.505575 0.35257 0.653616 -0.4819
C_ C_ 0.33639 0.105161 0.847551 -0.4819
C_ C_ 0.34067 0.356179 0.848445 -0.4819
C_ C_ 0.508896 0.102435 0.844158 -0.4819
C_ C_ 0.494752 0.351531 0.840457 -0.4819
C_ C_ 0.506313 0.149039 0.00829439 -0.4819
C_ C_ 0.498379 0.39763 0.0133936 -0.4819
C_ C_ 0.664979 0.143473 0.0156603 -0.4819
C_ C_ 0.662616 0.394836 0.0135413 -0.4819
O_ O_ 0.45134 0.212384 0.834122 -0.96514
O_ O_ 0.464867 0.475428 0.83693 -0.96514
O_ O_ 0.622673 0.221525 0.83591 -0.96514
O_ O_ 0.621004 0.465137 0.830747 -0.96514
O_ O_ 0.373736 0.225095 0.815622 -0.96514
O_ O_ 0.380759 0.468404 0.83486 -0.96514
O_ O_ 0.539838 0.220293 0.831319 -0.96514
O_ O_ 0.542831 0.480719 0.811016 -0.96514
O_ O_ 0.491477 0.218594 0.776324 -0.96514
O_ O_ 0.473094 0.452225 0.7742 -0.96514
O_ O_ 0.640755 0.205551 0.774652 -0.96514
O_ O_ 0.664492 0.471776 0.775734 -0.96514
O_ O_ 0.378449 0.0311586 0.667736 -0.96514
O_ O_ 0.381412 0.285418 0.661734 -0.96514
O_ O_ 0.546904 0.038544 0.666229 -0.96514
O_ O_ 0.546749 0.280747 0.664224 -0.96514
O_ O_ 0.46099 0.0298525 0.669635 -0.96514
O_ O_ 0.459321 0.26826 0.644693 -0.96514
O_ O_ 0.625179 0.0238372 0.645893 -0.96514
O_ O_ 0.624889 0.280986 0.667656 -0.96514
O_ O_ 0.35658 0.0485945 0.941346 -0.96514
O_ O_ 0.337423 0.277628 0.943831 -0.96514
O_ O_ 0.501385 0.033661 0.941567 -0.96514
O_ O_ 0.522483 0.297101 0.943775 -0.96514
O_ O_ 0.375728 0.0344683 0.833892 -0.96514
O_ O_ 0.376036 0.281202 0.830764 -0.96514
O_ O_ 0.541887 0.0278085 0.827361 -0.96514
O_ O_ 0.540043 0.279725 0.826413 -0.96514
O_ O_ 0.461515 0.0233466 0.85493 -0.96514
O_ O_ 0.454785 0.279619 0.836181 -0.96514
O_ O_ 0.624692 0.031823 0.830458 -0.96514
O_ O_ 0.62109 0.277908 0.857388 -0.96514
O_ O_ 0.334064 0.0285724 0.892867 -0.96514
O_ O_ 0.356502 0.298919 0.892814 -0.96514
O_ O_ 0.530451 0.046777 0.890303 -0.96514
O_ O_ 0.503784 0.276336 0.889255 -0.96514
O_ O_ 0.455467 0.218224 0.99715393 -0.96514
O_ O_ 0.455878 0.467221 0.995172 -0.96514
O_ O_ 0.618433 0.214823 1.0038447 -0.96514
O_ O_ 0.620692 0.469335 0.99847943 -0.96514
O_ O_ 0.369343 0.220389 0.99840296 -0.96514
O_ O_ 0.375524 0.476613 0.021718 -0.96514
O_ O_ 0.540187 0.22838 0.0202307 -0.96514
O_ O_ 0.540384 0.473244 1.00069 -0.96514
O_ O_ 0.477564 0.199765 0.727272 -0.96514
O_ O_ 0.495738 0.46926 0.723921 -0.96514
O_ O_ 0.660478 0.219287 0.724655 -0.96514
O_ O_ 0.645883 0.452873 0.726987 -0.96514
F_ F_ 0.419604 0.242262 0.79377 -0.6238
F_ F_ 0.44032 0.516104 0.78534 -0.6238
F_ F_ 0.609204 0.264685 0.788485 -0.6238
F_ F_ 0.585556 0.478741 0.795132 -0.6238
F_ F_ 0.394642 0.985955 0.955218 -0.6238
F_ F_ 0.409194 0.263414 0.958496 -0.6238
F_ F_ 0.579858 0.0174808 0.956756 -0.6238
F_ F_ 0.554127 0.233378 0.953342 -0.6238
F_ F_ 0.412971 0.0219126 0.875164 -0.6238
F_ F_ 0.384393 0.234035 0.880226 -0.6238
F_ F_ 0.563339 0.989921 0.877382 -0.6238
F_ F_ 0.579606 0.265504 0.874148 -0.6238
F_ F_ 0.431109 0.261849 0.713473 -0.6238
F_ F_ 0.419817 0.485101 0.707994 -0.6238
F_ F_ 0.584979 0.234619 0.707414 -0.6238
F_ F_ 0.610386 0.513684 0.712587 -0.6238
Al Al 0.451984 0.734005 0.0849184 2.01273
Al Al 0.449072 0.986606 0.0801172 2.01273
Al Al 0.61625 0.73878 0.0800647 2.01273
Al Al 0.617534 0.984182 0.0866325 2.01273
Al Al 0.386044 0.515792 0.248641 2.01273
Al Al 0.38303 0.767926 0.252389 2.01273
Al Al 0.552098 0.517373 0.250972 2.01273
Al Al 0.550903 0.764529 0.244913 2.01273
Al Al 0.416334 -0.000457615 0.163531 1.93658
Al Al 0.415913 0.746737 0.16753 1.93658
Al Al 0.579519 -0.0019730000000000025 0.169464 1.93658
Al Al 0.586026 0.752216 0.163658 1.93658
Al Al 0.416201 0.500101 0.994945 1.93658
Al Al 0.421209 0.752295 0.00283796 1.93658
Al Al 0.586679 0.504308 0.336136 1.93658
Al Al 0.584514 0.749213 0.33239 1.93658
P_ P_ 0.497302 0.70407 0.147438 1.70002
P_ P_ 0.494135 0.95365 0.145864 1.70002
P_ P_ 0.66046 0.70318 0.144752 1.70002
P_ P_ 0.664393 0.954007 0.147198 1.70002
P_ P_ 0.336486 0.548783 0.311259 1.70002
P_ P_ 0.33646 0.798612 0.31686 1.70002
P_ P_ 0.502409 0.545873 0.315043 1.70002
P_ P_ 0.506441 0.798042 0.31112 1.70002
P_ P_ 0.333917 0.545464 0.188701 1.70002
P_ P_ 0.340798 0.796409 0.185057 1.70002
P_ P_ 0.509453 0.547554 0.187317 1.70002
P_ P_ 0.503611 0.796545 0.182405 1.70002
P_ P_ 0.498082 0.703958 0.0200089 1.70002
P_ P_ 0.494713 0.955791 0.0177103 1.70002
P_ P_ 0.664681 0.706822 0.0192054 1.70002
P_ P_ 0.657966 0.951661 0.0211623 1.70002
H_ H_ 0.533802 0.646318 0.13308 0.16322
H_ H_ 0.533587 0.897984 0.134511 0.16322
H_ H_ 0.699072 0.647269 0.139263 0.16322
H_ H_ 0.689489 0.891348 0.126798 0.16322
H_ H_ 0.477299 0.63766 0.126834 0.16322
H_ H_ 0.474707 0.888895 0.131018 0.16322
H_ H_ 0.642138 0.635175 0.131753 0.16322
H_ H_ 0.631225 0.894974 0.139229 0.16322
H_ H_ 0.284234 0.605096 0.986721 0.16322
H_ H_ 0.31549 0.854044 0.957493 0.16322
H_ H_ 0.456292 0.608863 0.981191 0.16322
H_ H_ 0.463967 0.853518 0.966848 0.16322
H_ H_ 0.327396 0.614069 0.960297 0.16322
H_ H_ 0.372255 0.857691 0.971868 0.16322
H_ H_ 0.509072 0.613891 0.957756 0.16322
H_ H_ 0.523079 0.863619 0.967708 0.16322
H_ H_ 0.291526 0.604403 0.189125 0.16322
H_ H_ 0.316013 0.857819 0.203248 0.16322
H_ H_ 0.47746 0.60534 0.19027 0.16322
H_ H_ 0.473638 0.854745 0.196166 0.16322
H_ H_ 0.346434 0.609475 0.206079 0.16322
H_ H_ 0.370053 0.860829 0.18511 0.16322
H_ H_ 0.534412 0.612145 0.190554 0.16322
H_ H_ 0.533915 0.85691 0.196019 0.16322
H_ H_ 0.529577 0.642598 0.360407 0.16322
H_ H_ 0.528842 0.897582 0.364813 0.16322
H_ H_ 0.689497 0.645492 0.371348 0.16322
H_ H_ 0.696883 0.892331 0.367837 0.16322
H_ H_ 0.467957 0.63786 0.36428 0.16322
H_ H_ 0.468034 0.894269 0.359507 0.16322
H_ H_ 0.626718 0.644442 0.362902 0.16322
H_ H_ 0.636577 0.889787 0.362163 0.16322
C_ C_ 0.503205 0.64647 0.147578 -0.4819
C_ C_ 0.502676 0.895792 0.150194 -0.4819
C_ C_ 0.664697 0.645535 0.153509 -0.4819
C_ C_ 0.665246 0.896777 0.148905 -0.4819
C_ C_ 0.32171 0.605276 0.989383 -0.4819
C_ C_ 0.3376 0.853674 0.983751 -0.4819
C_ C_ 0.494118 0.60785 0.984861 -0.4819
C_ C_ 0.494118 0.856035 0.986199 -0.4819
C_ C_ 0.327334 0.603362 0.180742 -0.4819
C_ C_ 0.336086 0.853485 0.177979 -0.4819
C_ C_ 0.506116 0.603799 0.171791 -0.4819
C_ C_ 0.503531 0.853948 0.177958 -0.4819
C_ C_ 0.497613 0.645088 0.345461 -0.4819
C_ C_ 0.500353 0.898114 0.344411 -0.4819
C_ C_ 0.661115 0.644579 0.352119 -0.4819
C_ C_ 0.667054 0.895314 0.348626 -0.4819
O_ O_ 0.451301 0.711974 0.165473 -0.96514
O_ O_ 0.455955 0.968289 0.16997 -0.96514
O_ O_ 0.618725 0.716999 0.16783 -0.96514
O_ O_ 0.617489 0.963975 0.165111 -0.96514
O_ O_ 0.376017 0.721523 0.145584 -0.96514
O_ O_ 0.373348 0.967631 0.16758 -0.96514
O_ O_ 0.538322 0.720841 0.169288 -0.96514
O_ O_ 0.540201 0.979532 0.142661 -0.96514
O_ O_ 0.496021 0.721744 0.109328 -0.96514
O_ O_ 0.47065 0.953453 0.107579 -0.96514
O_ O_ 0.639009 0.702911 0.105853 -0.96514
O_ O_ 0.662332 0.972945 0.107772 -0.96514
O_ O_ 0.377028 0.529083 0.00285821 -0.96514
O_ O_ 0.378264 0.780681 -0.002027000000000001 -0.96514
O_ O_ 0.545619 0.536864 0.997861 -0.96514
O_ O_ 0.549952 0.785381 -0.0039479999999999515 -0.96514
O_ O_ 0.458463 0.529423 1.0008 -0.96514
O_ O_ 0.460599 0.775408 0.977274 -0.96514
O_ O_ 0.630973 0.522838 0.984009 -0.96514
O_ O_ 0.622757 0.782677 0.99676 -0.96514
O_ O_ 0.356274 0.548853 0.272914 -0.96514
O_ O_ 0.339801 0.781045 0.277303 -0.96514
O_ O_ 0.505959 0.524899 0.277536 -0.96514
O_ O_ 0.525567 0.798356 0.27171 -0.96514
O_ O_ 0.376786 0.536135 0.168127 -0.96514
O_ O_ 0.378592 0.778438 0.16281 -0.96514
O_ O_ 0.547246 0.52951 0.165109 -0.96514
O_ O_ 0.547171 0.782217 0.164795 -0.96514
O_ O_ 0.466211 0.520745 0.186113 -0.96514
O_ O_ 0.461458 0.775975 0.16199 -0.96514
O_ O_ 0.622945 0.530415 0.169849 -0.96514
O_ O_ 0.625532 0.775681 0.188278 -0.96514
O_ O_ 0.338074 0.528462 0.22624 -0.96514
O_ O_ 0.363555 0.800919 0.223134 -0.96514
O_ O_ 0.529738 0.551842 0.225085 -0.96514
O_ O_ 0.506292 0.780057 0.22122 -0.96514
O_ O_ 0.457287 0.718771 0.330549 -0.96514
O_ O_ 0.457215 0.969354 0.334172 -0.96514
O_ O_ 0.622678 0.716779 0.33407 -0.96514
O_ O_ 0.628 0.977516 0.334575 -0.96514
O_ O_ 0.373858 0.719402 0.33278 -0.96514
O_ O_ 0.375936 0.980508 0.360746 -0.96514
O_ O_ 0.541468 0.724358 0.355617 -0.96514
O_ O_ 0.547507 0.968995 0.333889 -0.96514
O_ O_ 0.475841 0.701098 0.0576582 -0.96514
O_ O_ 0.493011 0.970938 0.0578185 -0.96514
O_ O_ 0.663405 0.728343 0.057388 -0.96514
O_ O_ 0.6401 0.949726 0.059369 -0.96514
F_ F_ 0.420526 0.735976 0.122499 -0.6238
F_ F_ 0.438277 0.0137967 0.118866 -0.6238
F_ F_ 0.603328 0.767178 0.121145 -0.6238
F_ F_ 0.578873 0.986469 0.124783 -0.6238
F_ F_ 0.390607 0.483906 0.28649 -0.6238
F_ F_ 0.416849 0.768965 0.29172 -0.6238
F_ F_ 0.58718 0.516769 0.290626 -0.6238
F_ F_ 0.56846 0.743552 0.287627 -0.6238
F_ F_ 0.421342 0.524737 0.208404 -0.6238
F_ F_ 0.402049 0.746247 0.213605 -0.6238
F_ F_ 0.560003 0.483642 0.21127 -0.6238
F_ F_ 0.587285 0.771112 0.207514 -0.6238
F_ F_ 0.436049 0.762285 0.0455911 -0.6238
F_ F_ 0.414599 0.984062 0.0410594 -0.6238
F_ F_ 0.58534 0.732729 0.0409102 -0.6238
F_ F_ 0.603389 0.0109798 0.0458274 -0.6238
Al Al 0.451937 0.737662 0.41743 2.01273
Al Al 0.452487 0.984776 0.412496 2.01273
Al Al 0.616459 0.734016 0.415264 2.01273
Al Al 0.621522 0.989317 0.417455 2.01273
Al Al 0.382431 0.509347 0.579549 2.01273
Al Al 0.382165 0.764536 0.591982 2.01273
Al Al 0.555692 0.518487 0.584735 2.01273
Al Al 0.549642 0.771308 0.580559 2.01273
Al Al 0.418754 0.00134145 0.495582 1.93658
Al Al 0.418994 0.751397 0.504701 1.93658
Al Al 0.583153 1.00055 0.504763 1.93658
Al Al 0.587292 0.753855 0.49384 1.93658
Al Al 0.414235 0.497934 0.329819 1.93658
Al Al 0.418389 0.751938 0.335142 1.93658
Al Al 0.585676 0.50141 0.670424 1.93658
Al Al 0.578402 0.748736 0.664326 1.93658
P_ P_ 0.498099 0.705621 0.481257 1.70002
P_ P_ 0.497319 0.954898 0.479529 1.70002
P_ P_ 0.659932 0.703023 0.481811 1.70002
P_ P_ 0.664901 0.957116 0.478551 1.70002
P_ P_ 0.341266 0.545567 0.643382 1.70002
P_ P_ 0.333926 0.796443 0.651437 1.70002
P_ P_ 0.505046 0.544915 0.648553 1.70002
P_ P_ 0.503557 0.7984 0.647999 1.70002
P_ P_ 0.339548 0.54914 0.515391 1.70002
P_ P_ 0.340401 0.797444 0.525035 1.70002
P_ P_ 0.509865 0.546384 0.517424 1.70002
P_ P_ 0.502965 0.799675 0.516544 1.70002
P_ P_ 0.495174 0.701743 0.355047 1.70002
P_ P_ 0.50199 0.957061 0.35141 1.70002
P_ P_ 0.663507 0.703844 0.35547 1.70002
P_ P_ 0.662144 0.953706 0.35412 1.70002
H_ H_ 0.524082 0.64856 0.461306 0.16322
H_ H_ 0.530726 0.893387 0.465705 0.16322
H_ H_ 0.695619 0.638629 0.473881 0.16322
H_ H_ 0.687545 0.897289 0.457141 0.16322
H_ H_ 0.466579 0.64461 0.466817 0.16322
H_ H_ 0.474228 0.886807 0.472117 0.16322
H_ H_ 0.635081 0.634177 0.473029 0.16322
H_ H_ 0.632216 0.893899 0.47761 0.16322
H_ H_ 0.303662 0.606649 0.300988 0.16322
H_ H_ 0.316898 0.860856 0.298139 0.16322
H_ H_ 0.464237 0.601252 0.305706 0.16322
H_ H_ 0.472634 0.856618 0.30092 0.16322
H_ H_ 0.36093 0.616284 0.305489 0.16322
H_ H_ 0.378091 0.856045 0.311848 0.16322
H_ H_ 0.52279 0.612502 0.296954 0.16322
H_ H_ 0.533402 0.863649 0.305882 0.16322
H_ H_ 0.29498 0.605595 0.506128 0.16322
H_ H_ 0.322732 0.863751 0.539013 0.16322
H_ H_ 0.493736 0.611192 0.53256 0.16322
H_ H_ 0.481828 0.868272 0.538248 0.16322
H_ H_ 0.338467 0.608075 0.537957 0.16322
H_ H_ 0.377657 0.860584 0.521115 0.16322
H_ H_ 0.547378 0.607261 0.512773 0.16322
H_ H_ 0.539029 0.859835 0.526876 0.16322
H_ H_ 0.532008 0.645973 0.69485 0.16322
H_ H_ 0.525707 0.89293 0.705775 0.16322
H_ H_ 0.684391 0.64154 0.708818 0.16322
H_ H_ 0.672507 0.888934 0.708345 0.16322
H_ H_ 0.470622 0.638835 0.69673 0.16322
H_ H_ 0.465905 0.894434 0.702673 0.16322
H_ H_ 0.628463 0.639416 0.696262 0.16322
H_ H_ 0.624316 0.894966 0.684784 0.16322
C_ C_ 0.498932 0.646738 0.482445 -0.4819
C_ C_ 0.503555 0.896686 0.486446 -0.4819
C_ C_ 0.665842 0.645956 0.490908 -0.4819
C_ C_ 0.668126 0.898959 0.484026 -0.4819
C_ C_ 0.331378 0.606145 0.319678 -0.4819
C_ C_ 0.342841 0.857435 0.320572 -0.4819
C_ C_ 0.498582 0.603866 0.318849 -0.4819
C_ C_ 0.501833 0.855639 0.320005 -0.4819
C_ C_ 0.333894 0.606965 0.509792 -0.4819
C_ C_ 0.341246 0.856121 0.513515 -0.4819
C_ C_ 0.510355 0.604778 0.506968 -0.4819
C_ C_ 0.505855 0.858456 0.515609 -0.4819
C_ C_ 0.499135 0.646213 0.679806 -0.4819
C_ C_ 0.49648 0.897021 0.685344 -0.4819
C_ C_ 0.660852 0.643051 0.684455 -0.4819
C_ C_ 0.661975 0.896551 0.681219 -0.4819
O_ O_ 0.454103 0.717716 0.499924 -0.96514
O_ O_ 0.456447 0.968462 0.50188 -0.96514
O_ O_ 0.623665 0.721674 0.50501 -0.96514
O_ O_ 0.619646 0.96578 0.497578 -0.96514
O_ O_ 0.375568 0.733031 0.479217 -0.96514
O_ O_ 0.375101 0.969151 0.500613 -0.96514
O_ O_ 0.543284 0.72474 0.49877 -0.96514
O_ O_ 0.543532 0.977376 0.477891 -0.96514
O_ O_ 0.498973 0.721289 0.441604 -0.96514
O_ O_ 0.479497 0.950854 0.440136 -0.96514
O_ O_ 0.642459 0.701526 0.442628 -0.96514
O_ O_ 0.666608 0.978616 0.441533 -0.96514
O_ O_ 0.378771 0.534489 0.332227 -0.96514
O_ O_ 0.376631 0.781745 0.337586 -0.96514
O_ O_ 0.54651 0.53572 0.334925 -0.96514
O_ O_ 0.546529 0.780452 0.333024 -0.96514
O_ O_ 0.459329 0.528226 0.334794 -0.96514
O_ O_ 0.460367 0.775342 0.31048 -0.96514
O_ O_ 0.626423 0.524923 0.309776 -0.96514
O_ O_ 0.628902 0.778811 0.339066 -0.96514
O_ O_ 0.367527 0.548077 0.607089 -0.96514
O_ O_ 0.337733 0.7863 0.610574 -0.96514
O_ O_ 0.509096 0.528506 0.610004 -0.96514
O_ O_ 0.524272 0.802487 0.608966 -0.96514
O_ O_ 0.381693 0.534027 0.496794 -0.96514
O_ O_ 0.378477 0.783489 0.499083 -0.96514
O_ O_ 0.543685 0.526803 0.492334 -0.96514
O_ O_ 0.546446 0.785495 0.495857 -0.96514
O_ O_ 0.463863 0.522666 0.52082 -0.96514
O_ O_ 0.460643 0.783372 0.497282 -0.96514
O_ O_ 0.628538 0.527952 0.496843 -0.96514
O_ O_ 0.624921 0.781476 0.519611 -0.96514
O_ O_ 0.340341 0.530975 0.554461 -0.96514
O_ O_ 0.360236 0.799139 0.564143 -0.96514
O_ O_ 0.536795 0.551683 0.552552 -0.96514
O_ O_ 0.503243 0.7846 0.556103 -0.96514
O_ O_ 0.452923 0.722491 0.66717 -0.96514
O_ O_ 0.45378 0.962308 0.67082 -0.96514
O_ O_ 0.617474 0.715266 0.667924 -0.96514
O_ O_ 0.622801 0.970126 0.663853 -0.96514
O_ O_ 0.370668 0.722392 0.67031 -0.96514
O_ O_ 0.375077 0.977386 0.689256 -0.96514
O_ O_ 0.538004 0.727379 0.689603 -0.96514
O_ O_ 0.540363 0.971127 0.667271 -0.96514
O_ O_ 0.472803 0.699584 0.39347 -0.96514
O_ O_ 0.499181 0.967846 0.392578 -0.96514
O_ O_ 0.664275 0.723853 0.393119 -0.96514
O_ O_ 0.644058 0.952434 0.39383 -0.96514
F_ F_ 0.418482 0.736713 0.457534 -0.6238
F_ F_ 0.434661 0.0128494 0.452084 -0.6238
F_ F_ 0.611 0.767256 0.453976 -0.6238
F_ F_ 0.585343 0.985029 0.457013 -0.6238
F_ F_ 0.408935 0.486679 0.617647 -0.6238
F_ F_ 0.415517 0.772924 0.628551 -0.6238
F_ F_ 0.586407 0.519039 0.625338 -0.6238
F_ F_ 0.563614 0.744688 0.620701 -0.6238
F_ F_ 0.419151 0.512625 0.540227 -0.6238
F_ F_ 0.401103 0.740956 0.550662 -0.6238
F_ F_ 0.564434 0.485113 0.544756 -0.6238
F_ F_ 0.583163 0.767995 0.538745 -0.6238
F_ F_ 0.435807 0.760682 0.378147 -0.6238
F_ F_ 0.415575 0.974926 0.375775 -0.6238
F_ F_ 0.582904 0.73376 0.375933 -0.6238
F_ F_ 0.608827 0.0159307 0.378588 -0.6238
Al Al 0.450404 0.735392 0.752662 2.01273
Al Al 0.453089 0.987167 0.748939 2.01273
Al Al 0.61664 0.737093 0.746368 2.01273
Al Al 0.616002 0.985337 0.752606 2.01273
Al Al 0.381406 0.51714 0.916869 2.01273
Al Al 0.383931 0.766498 0.91804 2.01273
Al Al 0.54638 0.518744 0.918773 2.01273
Al Al 0.545925 0.764163 0.912563 2.01273
Al Al 0.416236 0.00318285 0.830948 1.93658
Al Al 0.413974 0.75034 0.838171 1.93658
Al Al 0.58474 -0.0011269999999999891 0.834071 1.93658
Al Al 0.583414 0.748743 0.828422 1.93658
Al Al 0.418981 0.49811 0.661628 1.93658
Al Al 0.415131 0.753333 0.673925 1.93658
Al Al 0.584468 0.502814 0.00386185 1.93658
Al Al 0.580422 0.749486 0.994647 1.93658
P_ P_ 0.495881 0.704685 0.813833 1.70002
P_ P_ 0.493858 0.952328 0.814307 1.70002
P_ P_ 0.663558 0.702653 0.811879 1.70002
P_ P_ 0.665488 0.951378 0.813386 1.70002
P_ P_ 0.336256 0.546681 0.982731 1.70002
P_ P_ 0.336467 0.794959 0.978392 1.70002
P_ P_ 0.500314 0.549187 0.981659 1.70002
P_ P_ 0.504802 0.799346 0.979257 1.70002
P_ P_ 0.335552 0.545762 0.850895 1.70002
P_ P_ 0.337969 0.797942 0.851836 1.70002
P_ P_ 0.504045 0.549334 0.852894 1.70002
P_ P_ 0.50144 0.795096 0.85043 1.70002
P_ P_ 0.491877 0.703873 0.688879 1.70002
P_ P_ 0.498834 0.954717 0.688063 1.70002
P_ P_ 0.661322 0.7019 0.686541 1.70002
P_ P_ 0.660968 0.954437 0.686764 1.70002
H_ H_ 0.515917 0.638345 0.796324 0.16322
H_ H_ 0.531374 0.895624 0.80933 0.16322
H_ H_ 0.708694 0.652472 0.826438 0.16322
H_ H_ 0.687257 0.890143 0.79647 0.16322
H_ H_ 0.457472 0.642954 0.80403 0.16322
H_ H_ 0.471902 0.884754 0.8051 0.16322
H_ H_ 0.671077 0.632007 0.794391 0.16322
H_ H_ 0.629017 0.888759 0.808177 0.16322
H_ H_ 0.30137 0.603557 0.63131 0.16322
H_ H_ 0.288852 0.846532 0.672726 0.16322
H_ H_ 0.474029 0.603945 0.635247 0.16322
H_ H_ 0.463719 0.848517 0.655519 0.16322
H_ H_ 0.363142 0.610154 0.630538 0.16322
H_ H_ 0.325649 0.858352 0.631905 0.16322
H_ H_ 0.533719 0.605701 0.636189 0.16322
H_ H_ 0.515956 0.868838 0.63507 0.16322
H_ H_ 0.303789 0.604229 0.873018 0.16322
H_ H_ 0.290889 0.854237 0.845447 0.16322
H_ H_ 0.462086 0.601891 0.861147 0.16322
H_ H_ 0.47074 0.858573 0.868323 0.16322
H_ H_ 0.362694 0.6073 0.87095 0.16322
H_ H_ 0.33986 0.864618 0.871974 0.16322
H_ H_ 0.519649 0.619373 0.867093 0.16322
H_ H_ 0.530413 0.856331 0.865368 0.16322
H_ H_ 0.547013 0.655497 0.0015199999999999658 0.16322
H_ H_ 0.512886 0.892561 0.0358056 0.16322
H_ H_ 0.700876 0.644498 0.0289783 0.16322
H_ H_ 0.695019 0.894009 0.0330645 0.16322
H_ H_ 0.508757 0.641319 0.0344915 0.16322
H_ H_ 0.455538 0.89671 0.0269401 0.16322
H_ H_ 0.638134 0.644314 0.033272 0.16322
H_ H_ 0.635175 0.886273 0.0273692 0.16322
C_ C_ 0.490245 0.646057 0.816318 -0.4819
C_ C_ 0.499408 0.894944 0.824321 -0.4819
C_ C_ 0.670767 0.646542 0.82212 -0.4819
C_ C_ 0.663168 0.894121 0.819916 -0.4819
C_ C_ 0.334221 0.603165 0.649404 -0.4819
C_ C_ 0.32283 0.853844 0.662099 -0.4819
C_ C_ 0.503427 0.601801 0.65422 -0.4819
C_ C_ 0.499929 0.85532 0.659726 -0.4819
C_ C_ 0.331298 0.604783 0.854011 -0.4819
C_ C_ 0.328694 0.855435 0.843524 -0.4819
C_ C_ 0.496568 0.607263 0.846377 -0.4819
C_ C_ 0.499306 0.853481 0.849289 -0.4819
C_ C_ 0.510688 0.650426 0.00724508 -0.4819
C_ C_ 0.489017 0.896849 0.0123327 -0.4819
C_ C_ 0.668164 0.649297 0.0143537 -0.4819
C_ C_ 0.66486 0.894008 0.0132522 -0.4819
O_ O_ 0.450917 0.717772 0.828965 -0.96514
O_ O_ 0.45211 0.968017 0.834506 -0.96514
O_ O_ 0.622466 0.716042 0.834047 -0.96514
O_ O_ 0.620154 0.96336 0.829235 -0.96514
O_ O_ 0.374011 0.727553 0.814644 -0.96514
O_ O_ 0.373516 0.973037 0.836037 -0.96514
O_ O_ 0.539767 0.719312 0.83315 -0.96514
O_ O_ 0.540796 0.976742 0.813036 -0.96514
O_ O_ 0.494767 0.720519 0.774231 -0.96514
O_ O_ 0.473107 0.950555 0.776558 -0.96514
O_ O_ 0.640079 0.700709 0.773795 -0.96514
O_ O_ 0.661416 0.971363 0.776113 -0.96514
O_ O_ 0.378281 0.528358 0.666863 -0.96514
O_ O_ 0.377295 0.785693 0.671235 -0.96514
O_ O_ 0.551421 0.537936 0.664974 -0.96514
O_ O_ 0.544444 0.78409 0.669573 -0.96514
O_ O_ 0.463145 0.528538 0.66996 -0.96514
O_ O_ 0.457767 0.772282 0.649414 -0.96514
O_ O_ 0.627934 0.520972 0.646271 -0.96514
O_ O_ 0.623993 0.779265 0.667152 -0.96514
O_ O_ 0.354699 0.550107 0.943933 -0.96514
O_ O_ 0.336819 0.776296 0.940309 -0.96514
O_ O_ 0.500194 0.535143 0.943073 -0.96514
O_ O_ 0.518676 0.80015 0.937681 -0.96514
O_ O_ 0.382839 0.537441 0.834106 -0.96514
O_ O_ 0.373885 0.778783 0.827914 -0.96514
O_ O_ 0.549445 0.534512 0.834521 -0.96514
O_ O_ 0.545933 0.781851 0.833604 -0.96514
O_ O_ 0.459141 0.52395 0.856398 -0.96514
O_ O_ 0.458675 0.778857 0.830422 -0.96514
O_ O_ 0.623932 0.530603 0.833964 -0.96514
O_ O_ 0.624349 0.771216 0.85356 -0.96514
O_ O_ 0.336302 0.530184 0.891671 -0.96514
O_ O_ 0.361549 0.799386 0.889393 -0.96514
O_ O_ 0.525235 0.553766 0.892034 -0.96514
O_ O_ 0.499436 0.772891 0.888433 -0.96514
O_ O_ 0.459176 0.72064 0.997715 -0.96514
O_ O_ 0.453183 0.970095 -0.002646000000000037 -0.96514
O_ O_ 0.618843 0.715222 1.000375814 -0.96514
O_ O_ 0.616037 0.965676 1.00216 -0.96514
O_ O_ 0.374385 0.720755 -0.0002969999999999917 -0.96514
O_ O_ 0.372968 0.974983 0.0201844 -0.96514
O_ O_ 0.540392 0.732739 0.0209237 -0.96514
O_ O_ 0.539051 0.968535 -0.0017449999999999966 -0.96514
O_ O_ 0.469055 0.700196 0.726289 -0.96514
O_ O_ 0.495632 0.968866 0.726472 -0.96514
O_ O_ 0.660839 0.720845 0.725065 -0.96514
O_ O_ 0.642171 0.952758 0.726956 -0.96514
F_ F_ 0.415438 0.739712 0.791914 -0.6238
F_ F_ 0.434096 0.0135049 0.789236 -0.6238
F_ F_ 0.607134 0.761961 0.789046 -0.6238
F_ F_ 0.58377 0.978494 0.790928 -0.6238
F_ F_ 0.393804 0.489382 0.956045 -0.6238
F_ F_ 0.419575 0.771492 0.957685 -0.6238
F_ F_ 0.584538 0.519781 0.957201 -0.6238
F_ F_ 0.556446 0.736592 0.954189 -0.6238
F_ F_ 0.418367 0.518 0.876516 -0.6238
F_ F_ 0.392315 0.737576 0.878629 -0.6238
F_ F_ 0.559133 0.488819 0.881127 -0.6238
F_ F_ 0.581166 0.766345 0.87352 -0.6238
F_ F_ 0.43611 0.762882 0.714388 -0.6238
F_ F_ 0.422478 0.982248 0.708263 -0.6238
F_ F_ 0.581755 0.730852 0.708404 -0.6238
F_ F_ 0.604491 0.0127118 0.710274 -0.6238
Al Al 0.781614 0.230858 0.0853713 2.01273
Al Al 0.788136 0.485661 0.0803462 2.01273
Al Al 0.947852 0.234294 0.0825462 2.01273
Al Al 0.954972 0.486966 0.0899281 2.01273
Al Al 0.716161 0.0160588 0.245998 2.01273
Al Al 0.718028 0.268515 0.252046 2.01273
Al Al 0.882018 0.0155765 0.253105 2.01273
Al Al 0.883788 0.263404 0.249142 2.01273
Al Al 0.754507 0.50118 0.165361 1.93658
Al Al 0.74235 0.248032 0.172282 1.93658
Al Al 0.9176 0.498121 0.170509 1.93658
Al Al 0.919966 0.254114 0.161709 1.93658
Al Al 0.747217 0.997567 -0.0041560000000000485 1.93658
Al Al 0.750767 0.251406 0.00189144 1.93658
Al Al 0.918453 0.00327661 0.336151 1.93658
Al Al 0.913026 0.248924 0.330292 1.93658
P_ P_ 0.828395 0.204692 0.149665 1.70002
P_ P_ 0.829621 0.449211 0.146644 1.70002
P_ P_ 0.990029 0.201113 0.148075 1.70002
P_ P_ 0.998275 0.452966 0.151484 1.70002
P_ P_ 0.673845 0.0483479 0.311656 1.70002
P_ P_ 0.668846 0.29713 0.31263 1.70002
P_ P_ 0.834683 0.0461346 0.315245 1.70002
P_ P_ 0.837045 0.298877 0.315459 1.70002
P_ P_ 0.670127 0.0454114 0.184677 1.70002
P_ P_ 0.66736 0.298372 0.187677 1.70002
P_ P_ 0.838203 0.048764 0.187839 1.70002
P_ P_ 0.833876 0.29599 0.188057 1.70002
P_ P_ 0.825143 0.201817 0.0190067 1.70002
P_ P_ 0.833282 0.450368 0.0164638 1.70002
P_ P_ -0.002487000000000017 0.202155 0.0205762 1.70002
P_ P_ 0.994254 0.451465 0.0220755 1.70002
H_ H_ 0.851086 0.141594 0.135043 0.16322
H_ H_ 0.855778 0.383042 0.129152 0.16322
H_ H_ 0.0219823 0.139413 0.134699 0.16322
H_ H_ 0.0230496 0.397221 0.131602 0.16322
H_ H_ 0.795149 0.142177 0.136544 0.16322
H_ H_ 0.797467 0.384771 0.146193 0.16322
H_ H_ 0.964195 0.135651 0.13674 0.16322
H_ H_ 0.968224 0.395297 0.137761 0.16322
H_ H_ 0.642203 0.104266 0.966254 0.16322
H_ H_ 0.639597 0.357511 0.965995 0.16322
H_ H_ 0.786212 0.106057 0.986231 0.16322
H_ H_ 0.816991 0.362792 0.959129 0.16322
H_ H_ 0.700005 0.106477 0.975559 0.16322
H_ H_ 0.700714 0.354972 0.974468 0.16322
H_ H_ 0.835635 0.109884 0.955909 0.16322
H_ H_ 0.869081 0.358787 0.971116 0.16322
H_ H_ 0.645108 0.109411 0.204879 0.16322
H_ H_ 0.628665 0.35539 0.194317 0.16322
H_ H_ 0.804756 0.109843 0.19953 0.16322
H_ H_ 0.81615 0.359404 0.205463 0.16322
H_ H_ 0.701809 0.108244 0.194226 0.16322
H_ H_ 0.684623 0.363648 0.199295 0.16322
H_ H_ 0.864144 0.1183 0.1938 0.16322
H_ H_ 0.871758 0.354213 0.194654 0.16322
H_ H_ 0.854521 0.142535 0.365054 0.16322
H_ H_ 0.856137 0.398397 0.36764 0.16322
H_ H_ 0.0272355 0.141573 0.368857 0.16322
H_ H_ 0.0247198 0.391092 0.358849 0.16322
H_ H_ 0.799155 0.137408 0.354027 0.16322
H_ H_ 0.80122 0.394888 0.364424 0.16322
H_ H_ 0.965552 0.144134 0.36436 0.16322
H_ H_ 0.963613 0.388315 0.354005 0.16322
C_ C_ 0.825814 0.146957 0.153538 -0.4819
C_ C_ 0.83363 0.391738 0.153976 -0.4819
C_ C_ -0.006884000000000001 0.142395 0.154475 -0.4819
C_ C_ 0.99830399 0.396244 0.15381 -0.4819
C_ C_ 0.667086 0.102649 0.98779 -0.4819
C_ C_ 0.666573 0.35333 0.986969 -0.4819
C_ C_ 0.823598 0.105107 0.983061 -0.4819
C_ C_ 0.836376 0.354206 0.983201 -0.4819
C_ C_ 0.669083 0.103982 0.182235 -0.4819
C_ C_ 0.660376 0.354973 0.179303 -0.4819
C_ C_ 0.831547 0.107819 0.180268 -0.4819
C_ C_ 0.837675 0.354296 0.182534 -0.4819
C_ C_ 0.830391 0.144582 0.34094 -0.4819
C_ C_ 0.830432 0.399895 0.346333 -0.4819
C_ C_ 0.997955 0.145261 0.348202 -0.4819
C_ C_ 0.99658222 0.395677 0.339864 -0.4819
O_ O_ 0.784687 0.217434 0.168127 -0.96514
O_ O_ 0.789669 0.463459 0.168659 -0.96514
O_ O_ 0.949551 0.216448 0.169755 -0.96514
O_ O_ 0.950852 0.461041 0.165551 -0.96514
O_ O_ 0.702263 0.227245 0.146814 -0.96514
O_ O_ 0.711541 0.469782 0.169367 -0.96514
O_ O_ 0.872643 0.225068 0.164695 -0.96514
O_ O_ 0.874919 0.474652 0.148121 -0.96514
O_ O_ 0.825368 0.219053 0.110632 -0.96514
O_ O_ 0.81184 0.452617 0.107825 -0.96514
O_ O_ 0.969836 0.199042 0.108818 -0.96514
O_ O_ 0.999443622 0.469946 0.112432 -0.96514
O_ O_ 0.708117 0.0304299 0.00258232 -0.96514
O_ O_ 0.711429 0.28308 0.00405656 -0.96514
O_ O_ 0.877375 0.0352335 0.99602239 -0.96514
O_ O_ 0.875953 0.280991 0.0032000000000000917 -0.96514
O_ O_ 0.789515 0.0298763 0.0007999999999999119 -0.96514
O_ O_ 0.786309 0.280639 0.979709 -0.96514
O_ O_ 0.959503 0.0231015 0.977469 -0.96514
O_ O_ 0.958336 0.280277 -0.000673228 -0.96514
O_ O_ 0.690675 0.0514074 0.272038 -0.96514
O_ O_ 0.670517 0.276871 0.2754 -0.96514
O_ O_ 0.834328 0.0274156 0.277143 -0.96514
O_ O_ 0.854398 0.295997 0.275782 -0.96514
O_ O_ 0.714141 0.0349965 0.164648 -0.96514
O_ O_ 0.708401 0.2838 0.168144 -0.96514
O_ O_ 0.880343 0.0322205 0.168858 -0.96514
O_ O_ 0.876137 0.283537 0.167989 -0.96514
O_ O_ 0.794282 0.0213162 0.185694 -0.96514
O_ O_ 0.787467 0.279361 0.170736 -0.96514
O_ O_ 0.957532 0.0247163 0.168868 -0.96514
O_ O_ 0.957505 0.270754 0.187939 -0.96514
O_ O_ 0.669569 0.0257764 0.222611 -0.96514
O_ O_ 0.685869 0.298547 0.227785 -0.96514
O_ O_ 0.858978 0.0501795 0.226672 -0.96514
O_ O_ 0.836419 0.279284 0.226935 -0.96514
O_ O_ 0.786306 0.218177 0.334232 -0.96514
O_ O_ 0.788837 0.470264 0.330251 -0.96514
O_ O_ 0.952637 0.212972 0.332817 -0.96514
O_ O_ 0.954719 0.470785 0.329972 -0.96514
O_ O_ 0.709669 0.219621 0.334041 -0.96514
O_ O_ 0.710298 0.47265 0.351197 -0.96514
O_ O_ 0.871918 0.229252 0.356908 -0.96514
O_ O_ 0.876516 0.472189 0.330919 -0.96514
O_ O_ 0.806822 0.197377 0.057849 -0.96514
O_ O_ 0.830076 0.467606 0.0551448 -0.96514
O_ O_ 0.993279 0.219181 0.0586718 -0.96514
O_ O_ 0.976595 0.450484 0.0608544 -0.96514
F_ F_ 0.746455 0.234909 0.125211 -0.6238
F_ F_ 0.772762 0.511574 0.12101 -0.6238
F_ F_ 0.943372 0.263594 0.122543 -0.6238
F_ F_ 0.916488 0.477099 0.125852 -0.6238
F_ F_ 0.727362 0.983943 0.284782 -0.6238
F_ F_ 0.748639 0.262477 0.29195 -0.6238
F_ F_ 0.915202 0.0286913 0.292981 -0.6238
F_ F_ 0.887193 0.235353 0.291264 -0.6238
F_ F_ 0.748475 0.0132854 0.204216 -0.6238
F_ F_ 0.718856 0.233115 0.212988 -0.6238
F_ F_ 0.891575 0.984661 0.212423 -0.6238
F_ F_ 0.912844 0.262582 0.20712 -0.6238
F_ F_ 0.771062 0.258121 0.0458943 -0.6238
F_ F_ 0.750439 0.482305 0.0445653 -0.6238
F_ F_ 0.915101 0.232316 0.0421373 -0.6238
F_ F_ 0.937472 0.507995 0.0471836 -0.6238
Al Al 0.78532 0.236704 0.420414 2.01273
Al Al 0.784088 0.48674 0.411321 2.01273
Al Al 0.952283 0.235936 0.41134 2.01273
Al Al 0.952761 0.483442 0.416605 2.01273
Al Al 0.720849 0.0175046 0.584283 2.01273
Al Al 0.715316 0.262875 0.587782 2.01273
Al Al 0.886421 0.0168317 0.585147 2.01273
Al Al 0.880907 0.261954 0.58054 2.01273
Al Al 0.750678 0.502387 0.495764 1.93658
Al Al 0.749027 0.2472 0.50667 1.93658
Al Al 0.916252 0.498532 0.502452 1.93658
Al Al 0.916008 0.248047 0.499798 1.93658
Al Al 0.746689 0.996013 0.329564 1.93658
Al Al 0.75131 0.255265 0.338163 1.93658
Al Al 0.916517 0.00376802 0.671071 1.93658
Al Al 0.915005 0.246432 0.663928 1.93658
P_ P_ 0.831327 0.203193 0.482412 1.70002
P_ P_ 0.830223 0.454828 0.477611 1.70002
P_ P_ 0.995322 0.200259 0.478458 1.70002
P_ P_ 0.999216526 0.453106 0.480365 1.70002
P_ P_ 0.672501 0.0468042 0.648018 1.70002
P_ P_ 0.668804 0.297479 0.648546 1.70002
P_ P_ 0.835385 0.0454645 0.646916 1.70002
P_ P_ 0.84215 0.295723 0.648479 1.70002
P_ P_ 0.672159 0.0485028 0.521842 1.70002
P_ P_ 0.672698 0.297514 0.521229 1.70002
P_ P_ 0.840358 0.047468 0.52072 1.70002
P_ P_ 0.832951 0.29371 0.518962 1.70002
P_ P_ 0.827152 0.202434 0.353554 1.70002
P_ P_ 0.831507 0.458381 0.348881 1.70002
P_ P_ 0.999466 0.205164 0.350438 1.70002
P_ P_ 0.99234 0.451011 0.351346 1.70002
H_ H_ 0.857903 0.141079 0.457335 0.16322
H_ H_ 0.838938 0.390221 0.458792 0.16322
H_ H_ 1.0367649 0.145014 0.483236 0.16322
H_ H_ 0.0323941 0.398536 0.463996 0.16322
H_ H_ 0.800049 0.137958 0.469415 0.16322
H_ H_ 0.792034 0.39884 0.485615 0.16322
H_ H_ 0.986363 0.133353 0.464388 0.16322
H_ H_ 0.972838 0.391695 0.46212 0.16322
H_ H_ 0.638471 0.106915 0.303687 0.16322
H_ H_ 0.634073 0.351838 0.297763 0.16322
H_ H_ 0.807785 0.103418 0.298056 0.16322
H_ H_ 0.813563 0.361356 0.29254 0.16322
H_ H_ 0.699212 0.114531 0.306057 0.16322
H_ H_ 0.688127 0.365549 0.290829 0.16322
H_ H_ 0.867735 0.107224 0.30494 0.16322
H_ H_ 0.868887 0.362818 0.308685 0.16322
H_ H_ 0.642898 0.108626 0.537782 0.16322
H_ H_ 0.636169 0.348765 0.525959 0.16322
H_ H_ 0.817075 0.10615 0.531481 0.16322
H_ H_ 0.825185 0.362322 0.539233 0.16322
H_ H_ 0.698497 0.113948 0.532397 0.16322
H_ H_ 0.691402 0.367108 0.534435 0.16322
H_ H_ 0.877761 0.105997 0.515719 0.16322
H_ H_ 0.875605 0.356477 0.513642 0.16322
H_ H_ 0.85248 0.143792 0.699895 0.16322
H_ H_ 0.853232 0.390478 0.70513 0.16322
H_ H_ 0.0270339 0.148551 0.70576 0.16322
H_ H_ 0.0137849 0.386994 0.701962 0.16322
H_ H_ 0.798271 0.142097 0.686769 0.16322
H_ H_ 0.795542 0.390809 0.689163 0.16322
H_ H_ 0.968244 0.140364 0.702494 0.16322
H_ H_ 0.958863 0.388278 0.687759 0.16322
C_ C_ 0.834439 0.144542 0.480831 -0.4819
C_ C_ 0.82772 0.397249 0.487458 -0.4819
C_ C_ 0.999063892 0.143144 0.490222 -0.4819
C_ C_ 1.00326 0.395378 0.481848 -0.4819
C_ C_ 0.669367 0.104698 0.321331 -0.4819
C_ C_ 0.66653 0.355618 0.314451 -0.4819
C_ C_ 0.834978 0.102362 0.317282 -0.4819
C_ C_ 0.83358 0.358923 0.318208 -0.4819
C_ C_ 0.668322 0.106152 0.516966 -0.4819
C_ C_ 0.668278 0.353541 0.51247 -0.4819
C_ C_ 0.840606 0.103494 0.509536 -0.4819
C_ C_ 0.838491 0.353636 0.511498 -0.4819
C_ C_ 0.83069 0.145482 0.677389 -0.4819
C_ C_ 0.831414 0.394394 0.68066 -0.4819
C_ C_ 0.99813149 0.145937 0.686959 -0.4819
C_ C_ 0.992376 0.393885 0.677049 -0.4819
O_ O_ 0.782391 0.211083 0.497037 -0.96514
O_ O_ 0.792123 0.471703 0.501242 -0.96514
O_ O_ 0.959315 0.219289 0.505247 -0.96514
O_ O_ 0.956243 0.468019 0.501439 -0.96514
O_ O_ 0.704069 0.229812 0.48296 -0.96514
O_ O_ 0.705029 0.470447 0.501644 -0.96514
O_ O_ 0.873444 0.218516 0.505404 -0.96514
O_ O_ 0.878613 0.473405 0.478378 -0.96514
O_ O_ 0.832503 0.224946 0.445375 -0.96514
O_ O_ 0.812691 0.453759 0.437019 -0.96514
O_ O_ 0.973383 0.200203 0.440908 -0.96514
O_ O_ -0.0017179999999999973 0.470747 0.44132 -0.96514
O_ O_ 0.71774 0.0340094 0.327568 -0.96514
O_ O_ 0.710259 0.284678 0.332892 -0.96514
O_ O_ 0.878646 0.0348739 0.336274 -0.96514
O_ O_ 0.875399 0.2803 0.336363 -0.96514
O_ O_ 0.790134 0.0283865 0.333203 -0.96514
O_ O_ 0.791791 0.275339 0.31416 -0.96514
O_ O_ 0.962085 0.018226 0.310962 -0.96514
O_ O_ 0.956826 0.279201 0.33238 -0.96514
O_ O_ 0.698716 0.0513453 0.612168 -0.96514
O_ O_ 0.670229 0.277888 0.610655 -0.96514
O_ O_ 0.83962 0.0278487 0.609204 -0.96514
O_ O_ 0.863524 0.29618 0.610495 -0.96514
O_ O_ 0.716034 0.038779 0.505397 -0.96514
O_ O_ 0.70776 0.275182 0.496772 -0.96514
O_ O_ 0.8815 0.0317187 0.499763 -0.96514
O_ O_ 0.876838 0.279515 0.499231 -0.96514
O_ O_ 0.794499 0.0243445 0.521235 -0.96514
O_ O_ 0.786796 0.281914 0.503173 -0.96514
O_ O_ 0.960092 0.0294076 0.500495 -0.96514
O_ O_ 0.958721 0.272238 0.522325 -0.96514
O_ O_ 0.676697 0.033833 0.561657 -0.96514
O_ O_ 0.695823 0.298152 0.558575 -0.96514
O_ O_ 0.85878 0.0496623 0.561179 -0.96514
O_ O_ 0.837159 0.277644 0.558174 -0.96514
O_ O_ 0.785368 0.217777 0.663997 -0.96514
O_ O_ 0.78357 0.461241 0.667128 -0.96514
O_ O_ 0.953185 0.215077 0.668435 -0.96514
O_ O_ 0.957734 0.47056 0.662023 -0.96514
O_ O_ 0.707541 0.223098 0.667995 -0.96514
O_ O_ 0.710714 0.473657 0.68677 -0.96514
O_ O_ 0.870073 0.232714 0.688324 -0.96514
O_ O_ 0.872221 0.470687 0.666199 -0.96514
O_ O_ 0.807756 0.201978 0.391588 -0.96514
O_ O_ 0.828663 0.472685 0.388836 -0.96514
O_ O_ 0.999236 0.22377 0.388752 -0.96514
O_ O_ 0.972789 0.447615 0.389893 -0.96514
F_ F_ 0.75117 0.235106 0.459735 -0.6238
F_ F_ 0.7732 0.512513 0.453305 -0.6238
F_ F_ 0.931953 0.25535 0.456234 -0.6238
F_ F_ 0.923207 0.486737 0.457321 -0.6238
F_ F_ 0.724153 0.982554 0.621959 -0.6238
F_ F_ 0.749089 0.273435 0.626873 -0.6238
F_ F_ 0.914683 0.0140125 0.626342 -0.6238
F_ F_ 0.896667 0.235646 0.621561 -0.6238
F_ F_ 0.747889 0.0114609 0.543386 -0.6238
F_ F_ 0.732018 0.23757 0.547213 -0.6238
F_ F_ 0.897476 0.987277 0.547221 -0.6238
F_ F_ 0.916234 0.268127 0.541678 -0.6238
F_ F_ 0.770562 0.267658 0.381185 -0.6238
F_ F_ 0.748469 0.481911 0.374227 -0.6238
F_ F_ 0.916713 0.227839 0.374141 -0.6238
F_ F_ 0.93642 0.514239 0.380656 -0.6238
Al Al 0.778741 0.23108 0.748108 2.01273
Al Al 0.779799 0.480655 0.74895 2.01273
Al Al 0.952422 0.234414 0.746949 2.01273
Al Al 0.952158 0.483186 0.751357 2.01273
Al Al 0.718213 0.0136786 0.911921 2.01273
Al Al 0.710835 0.262594 0.917139 2.01273
Al Al 0.875782 0.0142879 0.919251 2.01273
Al Al 0.879696 0.258519 0.913211 2.01273
Al Al 0.753127 0.505566 0.829467 1.93658
Al Al 0.74627 0.246287 0.836849 1.93658
Al Al 0.915343 0.499899 0.837609 1.93658
Al Al 0.917268 0.250734 0.831248 1.93658
Al Al 0.74736 0.996345 0.662377 1.93658
Al Al 0.753677 0.253949 0.670471 1.93658
Al Al 0.916139 1.00264469 0.00287675 1.93658
Al Al 0.91573 0.248268 0.998875 1.93658
P_ P_ 0.829449 0.203108 0.810589 1.70002
P_ P_ 0.830067 0.454878 0.815545 1.70002
P_ P_ 0.992245 0.202287 0.813391 1.70002
P_ P_ 0.995549 0.453035 0.818363 1.70002
P_ P_ 0.671646 0.0454875 0.977529 1.70002
P_ P_ 0.670306 0.29525 0.982082 1.70002
P_ P_ 0.830358 0.0463741 0.981354 1.70002
P_ P_ 0.837216 0.295893 0.978983 1.70002
P_ P_ 0.668972 0.0442141 0.851046 1.70002
P_ P_ 0.668993 0.297962 0.853755 1.70002
P_ P_ 0.836906 0.0483407 0.854158 1.70002
P_ P_ 0.833301 0.296943 0.854253 1.70002
P_ P_ 0.827051 0.202337 0.684666 1.70002
P_ P_ 0.828505 0.453878 0.685432 1.70002
P_ P_ -0.00117746 0.203249 0.685547 1.70002
P_ P_ 0.993513 0.452311 0.685864 1.70002
H_ H_ 0.864377 0.143106 0.80104 0.16322
H_ H_ 0.863197 0.391588 0.805551 0.16322
H_ H_ 0.0215001 0.140096 0.802299 0.16322
H_ H_ 0.012189999999999923 0.393488 0.795146 0.16322
H_ H_ 0.801381 0.141079 0.802161 0.16322
H_ H_ 0.802882 0.393526 0.807349 0.16322
H_ H_ 0.96282 0.138516 0.812273 0.16322
H_ H_ 0.954004 0.390996 0.809991 0.16322
H_ H_ 0.649212 0.106845 0.633324 0.16322
H_ H_ 0.658108 0.363451 0.624396 0.16322
H_ H_ 0.814007 0.109119 0.629842 0.16322
H_ H_ 0.815117 0.358098 0.63218 0.16322
H_ H_ 0.70712 0.108462 0.652232 0.16322
H_ H_ 0.710169 0.355367 0.650155 0.16322
H_ H_ 0.867965 0.105987 0.639274 0.16322
H_ H_ 0.872019 0.357546 0.639363 0.16322
H_ H_ 0.636518 0.102408 0.865553 0.16322
H_ H_ 0.654561 0.362032 0.869621 0.16322
H_ H_ 0.806817 0.110778 0.864866 0.16322
H_ H_ 0.80951 0.355449 0.871534 0.16322
H_ H_ 0.697771 0.108141 0.86722 0.16322
H_ H_ 0.705936 0.356883 0.847677 0.16322
H_ H_ 0.865804 0.115943 0.861003 0.16322
H_ H_ 0.867045 0.360138 0.866692 0.16322
H_ H_ 0.872058 0.151086 0.006728 0.16322
H_ H_ 0.852327 0.387082 0.0352155 0.16322
H_ H_ 0.0254976 0.141006 1.0363291000000001 0.16322
H_ H_ 0.0192509 0.39021 0.0361269 0.16322
H_ H_ 0.8315 0.134791 0.0327405 0.16322
H_ H_ 0.798284 0.395248 0.0207499 0.16322
H_ H_ -0.03630699999999998 0.140197 0.0304746 0.16322
H_ H_ 0.963227 0.395215 0.0213389 0.16322
C_ C_ 0.831968 0.146909 0.816588 -0.4819
C_ C_ 0.834128 0.396813 0.824988 -0.4819
C_ C_ 0.995635 0.14466 0.825588 -0.4819
C_ C_ 0.989983 0.395417 0.818424 -0.4819
C_ C_ 0.670701 0.104779 0.658611 -0.4819
C_ C_ 0.673356 0.35541 0.652405 -0.4819
C_ C_ 0.83529 0.103106 0.653298 -0.4819
C_ C_ 0.838929 0.354078 0.654462 -0.4819
C_ C_ 0.667539 0.102415 0.848603 -0.4819
C_ C_ 0.670768 0.355782 0.843891 -0.4819
C_ C_ 0.833498 0.107517 0.845234 -0.4819
C_ C_ 0.835896 0.355001 0.849843 -0.4819
C_ C_ 0.835909 0.146341 0.00671022 -0.4819
C_ C_ 0.832467 0.393559 0.0110867 -0.4819
C_ C_ -0.00171668 0.144928 0.0158011 -0.4819
C_ C_ 0.998056 0.39408 0.0103522 -0.4819
O_ O_ 0.784632 0.214575 0.827896 -0.96514
O_ O_ 0.791024 0.472681 0.837508 -0.96514
O_ O_ 0.952088 0.214796 0.837891 -0.96514
O_ O_ 0.954008 0.468936 0.837503 -0.96514
O_ O_ 0.707403 0.224339 0.811295 -0.96514
O_ O_ 0.709652 0.47202 0.834401 -0.96514
O_ O_ 0.869896 0.221863 0.83368 -0.96514
O_ O_ 0.879388 0.471366 0.813032 -0.96514
O_ O_ 0.825896 0.222462 0.77205 -0.96514
O_ O_ 0.809028 0.452748 0.776513 -0.96514
O_ O_ 0.972174 0.197403 0.774268 -0.96514
O_ O_ 0.994151 0.468707 0.778663 -0.96514
O_ O_ 0.712324 0.0293877 0.67047 -0.96514
O_ O_ 0.710409 0.281536 0.669043 -0.96514
O_ O_ 0.878482 0.0365259 0.667599 -0.96514
O_ O_ 0.878263 0.2779 0.672679 -0.96514
O_ O_ 0.791891 0.0287075 0.665429 -0.96514
O_ O_ 0.797396 0.271109 0.646406 -0.96514
O_ O_ 0.958497 0.0261336 0.645269 -0.96514
O_ O_ 0.957386 0.27807 0.666126 -0.96514
O_ O_ 0.693257 0.046595 0.938795 -0.96514
O_ O_ 0.667115 0.277061 0.943229 -0.96514
O_ O_ 0.830266 0.0256205 0.942778 -0.96514
O_ O_ 0.857447 0.294303 0.939922 -0.96514
O_ O_ 0.7111 0.0328656 0.830014 -0.96514
O_ O_ 0.706453 0.278889 0.831523 -0.96514
O_ O_ 0.875189 0.0288172 0.833494 -0.96514
O_ O_ 0.872945 0.278252 0.834081 -0.96514
O_ O_ 0.792562 0.0220315 0.858962 -0.96514
O_ O_ 0.789732 0.278835 0.836792 -0.96514
O_ O_ 0.956794 0.0320191 0.834704 -0.96514
O_ O_ 0.959404 0.272959 0.85593 -0.96514
O_ O_ 0.671971 0.0238023 0.88813 -0.96514
O_ O_ 0.687342 0.298729 0.893549 -0.96514
O_ O_ 0.858049 0.0514796 0.892713 -0.96514
O_ O_ 0.833757 0.279326 0.893248 -0.96514
O_ O_ 0.781844 0.213797 -0.0017289999999999806 -0.96514
O_ O_ 0.788231 0.463573 0.996874 -0.96514
O_ O_ 0.95173 0.21358 0.00337752 -0.96514
O_ O_ 0.956999 0.469531 0.997905 -0.96514
O_ O_ 0.704871 0.221427 0.999841 -0.96514
O_ O_ 0.704346 0.480408 0.0214535 -0.96514
O_ O_ 0.869173 0.228548 0.0168106 -0.96514
O_ O_ 0.876013 0.468428 -0.003242999999999996 -0.96514
O_ O_ 0.805522 0.198498 0.722902 -0.96514
O_ O_ 0.825847 0.4718 0.724187 -0.96514
O_ O_ 0.997257 0.222565 0.724527 -0.96514
O_ O_ 0.973522 0.448246 0.725316 -0.96514
F_ F_ 0.749475 0.236298 0.79109 -0.6238
F_ F_ 0.77626 0.509764 0.78946 -0.6238
F_ F_ 0.932767 0.260996 0.786713 -0.6238
F_ F_ 0.919883 0.487421 0.794462 -0.6238
F_ F_ 0.72529 0.986334 0.952322 -0.6238
F_ F_ 0.747658 0.262815 0.954805 -0.6238
F_ F_ 0.91111 0.0189273 0.957094 -0.6238
F_ F_ 0.896705 0.238949 0.956797 -0.6238
F_ F_ 0.753722 0.0187334 0.875927 -0.6238
F_ F_ 0.720165 0.234492 0.875881 -0.6238
F_ F_ 0.892411 0.984454 0.880535 -0.6238
F_ F_ 0.914844 0.269316 0.875174 -0.6238
F_ F_ 0.774391 0.266269 0.712413 -0.6238
F_ F_ 0.752106 0.49645 0.708487 -0.6238
F_ F_ 0.918837 0.230702 0.709046 -0.6238
F_ F_ 0.942102 0.512351 0.712667 -0.6238
Al Al 0.786217 0.738391 0.0871732 2.01273
Al Al 0.776196 0.98365 0.08324 2.01273
Al Al 0.951289 0.733798 0.0778849 2.01273
Al Al 0.954663 0.986343 0.089723 2.01273
Al Al 0.715419 0.517055 0.245972 2.01273
Al Al 0.722101 0.77131 0.25196 2.01273
Al Al 0.879419 0.514553 0.254046 2.01273
Al Al 0.883729 0.761772 0.249001 2.01273
Al Al 0.751621 0.00213668 0.159666 1.93658
Al Al 0.748732 0.749882 0.170617 1.93658
Al Al 0.910517 0.995331 0.168737 1.93658
Al Al 0.919636 0.75348 0.162681 1.93658
Al Al 0.749422 0.497151 0.997625 1.93658
Al Al 0.751304 0.75237 0.00324132 1.93658
Al Al 0.917333 0.506062 0.336239 1.93658
Al Al 0.918703 0.74958 0.33253 1.93658
P_ P_ 0.83158 0.703397 0.149518 1.70002
P_ P_ 0.82365 0.950911 0.145521 1.70002
P_ P_ 0.993105 0.702231 0.145754 1.70002
P_ P_ 0.998903 0.951712 0.149906 1.70002
P_ P_ 0.673398 0.548299 0.313873 1.70002
P_ P_ 0.671336 0.796452 0.316635 1.70002
P_ P_ 0.835385 0.549607 0.313936 1.70002
P_ P_ 0.843122 0.79662 0.314979 1.70002
P_ P_ 0.668623 0.546561 0.184037 1.70002
P_ P_ 0.672524 0.800354 0.188042 1.70002
P_ P_ 0.842401 0.54582 0.18541 1.70002
P_ P_ 0.833184 0.793561 0.187406 1.70002
P_ P_ 0.825829 0.701982 0.0205175 1.70002
P_ P_ 0.827332 0.955014 0.0178412 1.70002
P_ P_ 0.996035 0.7014 0.0182574 1.70002
P_ P_ 0.993978 0.950567 0.0217696 1.70002
H_ H_ 0.871682 0.643976 0.144184 0.16322
H_ H_ 0.836133 0.888729 0.130098 0.16322
H_ H_ 0.0255846 0.642737 0.132706 0.16322
H_ H_ 0.0201695 0.887998 0.127204 0.16322
H_ H_ 0.8155 0.640368 0.131761 0.16322
H_ H_ 0.785683 0.892409 0.157513 0.16322
H_ H_ 0.964606 0.635721 0.138296 0.16322
H_ H_ 0.962534 0.891058 0.1401 0.16322
H_ H_ 0.636661 0.605941 0.971676 0.16322
H_ H_ 0.639691 0.856798 0.961248 0.16322
H_ H_ 0.821472 0.608357 0.96057 0.16322
H_ H_ 0.826342 0.868103 0.959905 0.16322
H_ H_ 0.693227 0.619642 0.965294 0.16322
H_ H_ 0.700549 0.861764 0.968226 0.16322
H_ H_ 0.872117 0.60034 0.985629 0.16322
H_ H_ 0.872523 0.859318 0.987876 0.16322
H_ H_ 0.641024 0.604423 0.200171 0.16322
H_ H_ 0.645588 0.861682 0.202294 0.16322
H_ H_ 0.79812 0.603152 0.19342 0.16322
H_ H_ 0.823908 0.857975 0.208433 0.16322
H_ H_ 0.701458 0.609954 0.195046 0.16322
H_ H_ 0.703756 0.865312 0.187907 0.16322
H_ H_ 0.854176 0.615735 0.20352 0.16322
H_ H_ 0.871132 0.851966 0.181536 0.16322
H_ H_ 0.860831 0.638226 0.36485 0.16322
H_ H_ 0.859646 0.894729 0.371582 0.16322
H_ H_ 0.0266041 0.640029 0.373393 0.16322
H_ H_ 0.0237493 0.88708 0.364367 0.16322
H_ H_ 0.798353 0.643032 0.36039 0.16322
H_ H_ 0.8029 0.89372 0.361059 0.16322
H_ H_ 0.967661 0.638262 0.369927 0.16322
H_ H_ 0.967261 0.887065 0.350002 0.16322
C_ C_ 0.837149 0.645369 0.153382 -0.4819
C_ C_ 0.821505 0.893745 0.157884 -0.4819
C_ C_ 0.994973 0.644269 0.152655 -0.4819
C_ C_ -0.0009550000000000392 0.891942 0.151243 -0.4819
C_ C_ 0.669259 0.609739 0.986541 -0.4819
C_ C_ 0.668381 0.855548 0.983137 -0.4819
C_ C_ 0.834482 0.60178 0.989362 -0.4819
C_ C_ 0.835302 0.858646 0.988209 -0.4819
C_ C_ 0.668801 0.603716 0.180208 -0.4819
C_ C_ 0.669967 0.857823 0.178363 -0.4819
C_ C_ 0.834294 0.603734 0.1801 -0.4819
C_ C_ 0.833442 0.851152 0.179595 -0.4819
C_ C_ 0.83235 0.645622 0.346006 -0.4819
C_ C_ 0.835977 0.89707 0.348416 -0.4819
C_ C_ 0.999581 0.644608 0.352842 -0.4819
C_ C_ 0.0027800000000000047 0.895935 0.340328 -0.4819
O_ O_ 0.784927 0.715303 0.166759 -0.96514
O_ O_ 0.782931 0.964623 0.166191 -0.96514
O_ O_ 0.953329 0.718754 0.168573 -0.96514
O_ O_ 0.954808 0.966279 0.167796 -0.96514
O_ O_ 0.706003 0.72848 0.146362 -0.96514
O_ O_ 0.70638 0.971616 0.166203 -0.96514
O_ O_ 0.876048 0.722663 0.164761 -0.96514
O_ O_ 0.872957 0.968446 0.144088 -0.96514
O_ O_ 0.829487 0.717922 0.109761 -0.96514
O_ O_ 0.800531 0.947144 0.108212 -0.96514
O_ O_ 0.971855 0.701359 0.106622 -0.96514
O_ O_ 1.00131 0.968917 0.111229 -0.96514
O_ O_ 0.717047 0.534815 0.99872284 -0.96514
O_ O_ 0.711157 0.785065 0.0012099999999999334 -0.96514
O_ O_ 0.880257 0.53232 0.998688 -0.96514
O_ O_ 0.878483 0.782787 1.00091284 -0.96514
O_ O_ 0.794931 0.525314 0.00374999999999992 -0.96514
O_ O_ 0.79069 0.776122 0.978313 -0.96514
O_ O_ 0.959523 0.522869 0.97526 -0.96514
O_ O_ 0.958188 0.779376 1.00494784 -0.96514
O_ O_ 0.702178 0.551512 0.278078 -0.96514
O_ O_ 0.675112 0.775748 0.27954 -0.96514
O_ O_ 0.834167 0.529657 0.276145 -0.96514
O_ O_ 0.862795 0.79835 0.275049 -0.96514
O_ O_ 0.71155 0.530451 0.166541 -0.96514
O_ O_ 0.711102 0.784044 0.164775 -0.96514
O_ O_ 0.879406 0.530334 0.161048 -0.96514
O_ O_ 0.875718 0.778183 0.167096 -0.96514
O_ O_ 0.796345 0.522684 0.189616 -0.96514
O_ O_ 0.791637 0.780259 0.164269 -0.96514
O_ O_ 0.963021 0.529332 0.162889 -0.96514
O_ O_ 0.958193 0.773863 0.18946 -0.96514
O_ O_ 0.672782 0.538315 0.225144 -0.96514
O_ O_ 0.693303 0.803596 0.227305 -0.96514
O_ O_ 0.866704 0.550306 0.223379 -0.96514
O_ O_ 0.837398 0.777202 0.227098 -0.96514
O_ O_ 0.796118 0.722592 0.333232 -0.96514
O_ O_ 0.790029 0.968495 0.333267 -0.96514
O_ O_ 0.956686 0.716101 0.332145 -0.96514
O_ O_ 0.954762 0.970123 0.328952 -0.96514
O_ O_ 0.708531 0.720436 0.337367 -0.96514
O_ O_ 0.706266 0.978824 0.354079 -0.96514
O_ O_ 0.87889 0.726218 0.356963 -0.96514
O_ O_ 0.875178 0.970595 0.333258 -0.96514
O_ O_ 0.802611 0.702021 0.0584986 -0.96514
O_ O_ 0.82188 0.97312 0.0579368 -0.96514
O_ O_ 0.996295 0.715286 0.0580414 -0.96514
O_ O_ 0.972438 0.951171 0.060089 -0.96514
F_ F_ 0.750282 0.733675 0.12486 -0.6238
F_ F_ 0.77854 0.0190755 0.118539 -0.6238
F_ F_ 0.936528 0.760912 0.117947 -0.6238
F_ F_ 0.914876 0.988076 0.123172 -0.6238
F_ F_ 0.733191 0.490519 0.28524 -0.6238
F_ F_ 0.749243 0.759347 0.295066 -0.6238
F_ F_ 0.915403 0.520504 0.292953 -0.6238
F_ F_ 0.892151 0.736115 0.290527 -0.6238
F_ F_ 0.753015 0.520527 0.209169 -0.6238
F_ F_ 0.729834 0.739624 0.213548 -0.6238
F_ F_ 0.892392 0.488594 0.213177 -0.6238
F_ F_ 0.917464 0.772679 0.20804 -0.6238
F_ F_ 0.763443 0.759571 0.0472841 -0.6238
F_ F_ 0.748859 0.987451 0.0415994 -0.6238
F_ F_ 0.91479 0.736216 0.0425798 -0.6238
F_ F_ 0.936747 0.0128393 0.0476009 -0.6238
Al Al 0.784827 0.736194 0.421978 2.01273
Al Al 0.785824 0.98637 0.413922 2.01273
Al Al 0.9547 0.738548 0.413703 2.01273
Al Al 0.952421 0.986648 0.420226 2.01273
Al Al 0.71852 0.516082 0.582382 2.01273
Al Al 0.720636 0.766016 0.586818 2.01273
Al Al 0.889127 0.512788 0.584875 2.01273
Al Al 0.884657 0.764573 0.57959 2.01273
Al Al 0.75135 0.00473901 0.496189 1.93658
Al Al 0.748718 0.748574 0.507949 1.93658
Al Al 0.916865 0.995618 0.505433 1.93658
Al Al 0.91855 0.752847 0.49583 1.93658
Al Al 0.749838 0.502153 0.328665 1.93658
Al Al 0.75362 0.75103 0.339339 1.93658
Al Al 0.917987 0.500617 0.672159 1.93658
Al Al 0.916201 0.748408 0.662937 1.93658
P_ P_ 0.833921 0.703472 0.482507 1.70002
P_ P_ 0.827584 0.95601 0.480488 1.70002
P_ P_ 0.99398 0.703425 0.477136 1.70002
P_ P_ 0.998585 0.953222 0.482535 1.70002
P_ P_ 0.672117 0.546906 0.64953 1.70002
P_ P_ 0.667778 0.797202 0.649209 1.70002
P_ P_ 0.836786 0.546039 0.646644 1.70002
P_ P_ 0.839113 0.796074 0.64638 1.70002
P_ P_ 0.670385 0.546008 0.51861 1.70002
P_ P_ 0.675574 0.797729 0.520596 1.70002
P_ P_ 0.839287 0.546258 0.518422 1.70002
P_ P_ 0.83814 0.797557 0.518644 1.70002
P_ P_ 0.832412 0.702983 0.356883 1.70002
P_ P_ 0.831348 0.953737 0.353234 1.70002
P_ P_ 1.00145 0.703484 0.351863 1.70002
P_ P_ 0.99286 0.951901 0.352142 1.70002
H_ H_ 0.847356 0.635687 0.462197 0.16322
H_ H_ 0.846721 0.889576 0.46613 0.16322
H_ H_ 0.0186853 0.639344 0.463836 0.16322
H_ H_ 0.0257156 0.891841 0.464668 0.16322
H_ H_ 0.795253 0.646846 0.475438 0.16322
H_ H_ 0.791567 0.895022 0.481759 0.16322
H_ H_ 0.963363 0.643193 0.480156 0.16322
H_ H_ 0.968155 0.892923 0.468109 0.16322
H_ H_ 0.659336 0.61427 0.300703 0.16322
H_ H_ 0.6336 0.855751 0.308964 0.16322
H_ H_ 0.803038 0.608264 0.299291 0.16322
H_ H_ 0.822445 0.859982 0.295813 0.16322
H_ H_ 0.709975 0.606969 0.324622 0.16322
H_ H_ 0.696121 0.860503 0.304006 0.16322
H_ H_ 0.864004 0.615484 0.301432 0.16322
H_ H_ 0.876022 0.862285 0.310679 0.16322
H_ H_ 0.643683 0.605651 0.543079 0.16322
H_ H_ 0.651463 0.86402 0.534259 0.16322
H_ H_ 0.815782 0.607791 0.536875 0.16322
H_ H_ 0.814133 0.860016 0.537833 0.16322
H_ H_ 0.702447 0.603978 0.533354 0.16322
H_ H_ 0.709523 0.863755 0.523639 0.16322
H_ H_ 0.875798 0.608217 0.521547 0.16322
H_ H_ 0.872788 0.863247 0.526742 0.16322
H_ H_ 0.867379 0.64416 0.693226 0.16322
H_ H_ 0.861545 0.88795 0.701889 0.16322
H_ H_ 0.0250043 0.653544 0.647576 0.16322
H_ H_ 0.0139114 0.890739 0.700474 0.16322
H_ H_ 0.816361 0.635703 0.697508 0.16322
H_ H_ 0.806333 0.886591 0.701183 0.16322
H_ H_ 1.0374812 0.646323 0.696684 0.16322
H_ H_ 0.957271 0.889893 0.683124 0.16322
C_ C_ 0.829164 0.645067 0.485646 -0.4819
C_ C_ 0.826947 0.897838 0.491035 -0.4819
C_ C_ -0.001422999999999952 0.646525 0.488856 -0.4819
C_ C_ -0.0011029999999999651 0.894744 0.484192 -0.4819
C_ C_ 0.671069 0.603435 0.326706 -0.4819
C_ C_ 0.667262 0.855641 0.321232 -0.4819
C_ C_ 0.831756 0.607315 0.316868 -0.4819
C_ C_ 0.842945 0.855776 0.322126 -0.4819
C_ C_ 0.669352 0.604331 0.520244 -0.4819
C_ C_ 0.675027 0.8571 0.510911 -0.4819
C_ C_ 0.83951 0.604622 0.512593 -0.4819
C_ C_ 0.839084 0.856628 0.51512 -0.4819
C_ C_ 0.836732 0.645154 0.674819 -0.4819
C_ C_ 0.834625 0.892989 0.683509 -0.4819
C_ C_ 1.00943062 0.64552 0.674932 -0.4819
C_ C_ 0.994034 0.896034 0.676064 -0.4819
O_ O_ 0.794081 0.721216 0.50304 -0.96514
O_ O_ 0.787694 0.970896 0.502188 -0.96514
O_ O_ 0.954118 0.718975 0.500138 -0.96514
O_ O_ 0.954501 0.963084 0.503315 -0.96514
O_ O_ 0.708259 0.725023 0.480147 -0.96514
O_ O_ 0.711127 0.970839 0.494633 -0.96514
O_ O_ 0.877855 0.719137 0.501596 -0.96514
O_ O_ 0.876384 0.973741 0.483178 -0.96514
O_ O_ 0.829625 0.720432 0.443126 -0.96514
O_ O_ 0.812102 0.955712 0.440173 -0.96514
O_ O_ 0.974094 0.702555 0.43841 -0.96514
O_ O_ 0.996659 0.976464 0.446213 -0.96514
O_ O_ 0.708056 0.530339 0.339717 -0.96514
O_ O_ 0.719334 0.788087 0.332861 -0.96514
O_ O_ 0.879677 0.538071 0.333846 -0.96514
O_ O_ 0.884818 0.785813 0.337489 -0.96514
O_ O_ 0.793671 0.533293 0.335696 -0.96514
O_ O_ 0.794896 0.775968 0.315032 -0.96514
O_ O_ 0.961376 0.521139 0.311388 -0.96514
O_ O_ 0.963629 0.778336 0.337455 -0.96514
O_ O_ 0.691251 0.548973 0.609515 -0.96514
O_ O_ 0.673324 0.779184 0.610538 -0.96514
O_ O_ 0.84307 0.5264 0.608563 -0.96514
O_ O_ 0.857984 0.796098 0.606349 -0.96514
O_ O_ 0.715711 0.538036 0.499965 -0.96514
O_ O_ 0.709788 0.777251 0.496575 -0.96514
O_ O_ 0.877577 0.529478 0.494723 -0.96514
O_ O_ 0.881295 0.787097 0.498893 -0.96514
O_ O_ 0.793258 0.522154 0.519842 -0.96514
O_ O_ 0.793107 0.781649 0.500678 -0.96514
O_ O_ 0.960224 0.529563 0.500225 -0.96514
O_ O_ 0.962266 0.77116 0.521275 -0.96514
O_ O_ 0.67105 0.529558 0.557877 -0.96514
O_ O_ 0.693029 0.796428 0.559119 -0.96514
O_ O_ 0.863264 0.545904 0.556792 -0.96514
O_ O_ 0.840702 0.780795 0.558571 -0.96514
O_ O_ 0.792845 0.723297 0.664257 -0.96514
O_ O_ 0.786434 0.963639 0.664298 -0.96514
O_ O_ 0.956714 0.717243 0.662598 -0.96514
O_ O_ 0.956921 0.97379 0.664804 -0.96514
O_ O_ 0.70699 0.719949 0.671256 -0.96514
O_ O_ 0.706758 0.977555 0.689689 -0.96514
O_ O_ 0.879335 0.722603 0.687885 -0.96514
O_ O_ 0.877383 0.968304 0.668935 -0.96514
O_ O_ 0.810011 0.702915 0.394997 -0.96514
O_ O_ 0.830208 0.965877 0.39428 -0.96514
O_ O_ 0.99897957 0.723222 0.390202 -0.96514
O_ O_ 0.971849 0.953715 0.391057 -0.96514
F_ F_ 0.752683 0.72394 0.463412 -0.6238
F_ F_ 0.772669 0.0152707 0.453443 -0.6238
F_ F_ 0.936982 0.764285 0.452629 -0.6238
F_ F_ 0.91636 0.978979 0.460151 -0.6238
F_ F_ 0.727918 0.484664 0.619811 -0.6238
F_ F_ 0.748749 0.764736 0.629348 -0.6238
F_ F_ 0.920325 0.515217 0.626003 -0.6238
F_ F_ 0.892387 0.73552 0.621356 -0.6238
F_ F_ 0.746392 0.514177 0.541199 -0.6238
F_ F_ 0.725488 0.733006 0.54867 -0.6238
F_ F_ 0.895573 0.485508 0.543356 -0.6238
F_ F_ 0.919795 0.773718 0.540079 -0.6238
F_ F_ 0.776874 0.764608 0.381367 -0.6238
F_ F_ 0.750472 0.980929 0.374915 -0.6238
F_ F_ 0.919893 0.730235 0.375298 -0.6238
F_ F_ 0.938781 0.0133566 0.381322 -0.6238
Al Al 0.783859 0.733905 0.751816 2.01273
Al Al 0.783666 0.982548 0.746192 2.01273
Al Al 0.949319 0.735059 0.74748 2.01273
Al Al 0.947078 0.98429 0.751503 2.01273
Al Al 0.716949 0.520038 0.913694 2.01273
Al Al 0.717675 0.763751 0.919133 2.01273
Al Al 0.883772 0.511497 0.91986 2.01273
Al Al 0.880413 0.765439 0.912975 2.01273
Al Al 0.752842 0.00220064 0.829604 1.93658
Al Al 0.744934 0.747228 0.838829 1.93658
Al Al 0.915947 0.998205 0.838084 1.93658
Al Al 0.91746 0.754417 0.832061 1.93658
Al Al 0.749788 0.497062 0.660259 1.93658
Al Al 0.75179 0.75094 0.674602 1.93658
Al Al 0.920156 0.501989 0.00206752 1.93658
Al Al 0.914202 0.748308 0.996577 1.93658
P_ P_ 0.827386 0.705304 0.813456 1.70002
P_ P_ 0.829417 0.953015 0.811636 1.70002
P_ P_ 0.991652 0.70279 0.81644 1.70002
P_ P_ 0.994267 0.953306 0.813479 1.70002
P_ P_ 0.67483 0.550295 0.98189 1.70002
P_ P_ 0.668951 0.797366 0.980008 1.70002
P_ P_ 0.836103 0.543883 0.98224 1.70002
P_ P_ 0.836662 0.798496 0.981684 1.70002
P_ P_ 0.666543 0.546467 0.853824 1.70002
P_ P_ 0.668895 0.796934 0.854802 1.70002
P_ P_ 0.841142 0.549112 0.854928 1.70002
P_ P_ 0.832082 0.796395 0.850858 1.70002
P_ P_ 0.831061 0.702535 0.685269 1.70002
P_ P_ 0.830845 0.952723 0.685954 1.70002
P_ P_ 0.99870052 0.701933 0.684528 1.70002
P_ P_ 0.994144 0.95236 0.686588 1.70002
H_ H_ 0.860597 0.646018 0.797906 0.16322
H_ H_ 0.86539 0.891887 0.803093 0.16322
H_ H_ 0.0343352 0.644326 0.818079 0.16322
H_ H_ 0.0136961 0.891148 0.793627 0.16322
H_ H_ 0.803526 0.637274 0.799932 0.16322
H_ H_ 0.807764 0.886617 0.799462 0.16322
H_ H_ 0.984666 0.638172 0.797701 0.16322
H_ H_ 0.959516 0.891168 0.809108 0.16322
H_ H_ 0.633095 0.602541 0.64092 0.16322
H_ H_ 0.66417 0.859951 0.628651 0.16322
H_ H_ 0.800755 0.603562 0.635428 0.16322
H_ H_ 0.811375 0.857732 0.630356 0.16322
H_ H_ 0.685616 0.615105 0.633554 0.16322
H_ H_ 0.709692 0.853614 0.653751 0.16322
H_ H_ 0.857842 0.609398 0.624111 0.16322
H_ H_ 0.870463 0.862514 0.640287 0.16322
H_ H_ 0.623516 0.606702 0.857719 0.16322
H_ H_ 0.637937 0.854728 0.871316 0.16322
H_ H_ 0.804887 0.607285 0.860741 0.16322
H_ H_ 0.806959 0.859496 0.86584 0.16322
H_ H_ 0.679256 0.611472 0.8736 0.16322
H_ H_ 0.695305 0.860663 0.862717 0.16322
H_ H_ 0.862851 0.616791 0.86208 0.16322
H_ H_ 0.866174 0.858101 0.86466 0.16322
H_ H_ 0.828695 0.640202 0.0411469 0.16322
H_ H_ 0.849833 0.890934 0.0405298 0.16322
H_ H_ 0.0197364 0.641422 0.0358151 0.16322
H_ H_ 0.019042 0.888396 1.0339002 0.16322
H_ H_ 0.786796 0.645163 0.0113183 0.16322
H_ H_ 0.793322 0.896434 0.0285282 0.16322
H_ H_ 0.960609 0.642888 0.024621 0.16322
H_ H_ -0.03740699999999997 0.886333 0.0250437 0.16322
C_ C_ 0.831635 0.646794 0.816359 -0.4819
C_ C_ 0.833116 0.89404 0.81982 -0.4819
C_ C_ 0.999349846 0.645469 0.824174 -0.4819
C_ C_ 0.994285 0.894865 0.81702 -0.4819
C_ C_ 0.665371 0.603921 0.65651 -0.4819
C_ C_ 0.673263 0.85415 0.65685 -0.4819
C_ C_ 0.834067 0.604122 0.647335 -0.4819
C_ C_ 0.838423 0.854123 0.652398 -0.4819
C_ C_ 0.661005 0.604935 0.849811 -0.4819
C_ C_ 0.662885 0.855132 0.848495 -0.4819
C_ C_ 0.836594 0.6066 0.84338 -0.4819
C_ C_ 0.834992 0.855012 0.848862 -0.4819
C_ C_ 0.82337 0.646085 0.0113821 -0.4819
C_ C_ 0.829253 0.89697 0.0170064 -0.4819
C_ C_ 0.996086 0.644807 0.0132488 -0.4819
C_ C_ -0.00469799999999998 0.89389 0.01254 -0.4819
O_ O_ 0.781864 0.715041 0.832934 -0.96514
O_ O_ 0.789473 0.969255 0.832307 -0.96514
O_ O_ 0.950972 0.718999 0.83843 -0.96514
O_ O_ 0.94957 0.963154 0.829802 -0.96514
O_ O_ 0.708155 0.727167 0.808919 -0.96514
O_ O_ 0.709248 0.96955 0.832095 -0.96514
O_ O_ 0.870786 0.724203 0.832753 -0.96514
O_ O_ 0.873272 0.980037 0.811354 -0.96514
O_ O_ 0.828146 0.722749 0.774977 -0.96514
O_ O_ 0.813059 0.950497 0.771143 -0.96514
O_ O_ 0.972673 0.701991 0.776738 -0.96514
O_ O_ 0.99076 0.975445 0.777236 -0.96514
O_ O_ 0.712371 0.528791 0.670218 -0.96514
O_ O_ 0.712283 0.783305 0.665988 -0.96514
O_ O_ 0.880324 0.53462 0.666927 -0.96514
O_ O_ 0.881221 0.781168 0.668068 -0.96514
O_ O_ 0.791528 0.527477 0.663094 -0.96514
O_ O_ 0.791993 0.773364 0.649227 -0.96514
O_ O_ 0.961205 0.52135 0.645599 -0.96514
O_ O_ 0.96011 0.780453 0.665202 -0.96514
O_ O_ 0.690292 0.551218 0.940251 -0.96514
O_ O_ 0.675675 0.775578 0.944482 -0.96514
O_ O_ 0.839768 0.531122 0.941915 -0.96514
O_ O_ 0.858806 0.799315 0.943252 -0.96514
O_ O_ 0.71235 0.536666 0.834369 -0.96514
O_ O_ 0.709401 0.780122 0.834035 -0.96514
O_ O_ 0.878415 0.531237 0.831128 -0.96514
O_ O_ 0.87575 0.783042 0.831647 -0.96514
O_ O_ 0.795327 0.52392 0.857919 -0.96514
O_ O_ 0.785763 0.779154 0.833036 -0.96514
O_ O_ 0.959501 0.528903 0.832249 -0.96514
O_ O_ 0.958027 0.772325 0.859568 -0.96514
O_ O_ 0.669849 0.526043 0.891184 -0.96514
O_ O_ 0.68932 0.79648 0.892826 -0.96514
O_ O_ 0.862746 0.547166 0.89283 -0.96514
O_ O_ 0.835164 0.781519 0.89015 -0.96514
O_ O_ 0.789009 0.721064 -0.003438000000000052 -0.96514
O_ O_ 0.781303 0.958867 -0.000945667 -0.96514
O_ O_ 0.95326 0.715449 0.0003500000000000725 -0.96514
O_ O_ 0.952455 0.966819 1.00112524 -0.96514
O_ O_ 0.707881 0.721261 0.997644 -0.96514
O_ O_ 0.706108 0.973935 0.0197397 -0.96514
O_ O_ 0.869788 0.72989 0.0212342 -0.96514
O_ O_ 0.874451 0.970753 -0.0011839999999999629 -0.96514
O_ O_ 0.810359 0.701753 0.724252 -0.96514
O_ O_ 0.830152 0.969027 0.72592 -0.96514
O_ O_ 0.995978 0.718105 0.723487 -0.96514
O_ O_ 0.973828 0.950881 0.725628 -0.96514
F_ F_ 0.746082 0.737078 0.79167 -0.6238
F_ F_ 0.779819 0.0149368 0.786673 -0.6238
F_ F_ 0.934961 0.766441 0.787751 -0.6238
F_ F_ 0.916847 0.987225 0.791929 -0.6238
F_ F_ 0.731811 0.489925 0.953188 -0.6238
F_ F_ 0.747595 0.767954 0.957809 -0.6238
F_ F_ 0.922318 0.517169 0.956702 -0.6238
F_ F_ 0.895484 0.738745 0.953378 -0.6238
F_ F_ 0.749744 0.52662 0.874781 -0.6238
F_ F_ 0.724286 0.731487 0.88078 -0.6238
F_ F_ 0.896571 0.486282 0.880575 -0.6238
F_ F_ 0.915602 0.773056 0.876333 -0.6238
F_ F_ 0.775692 0.76232 0.713341 -0.6238
F_ F_ 0.748337 0.977817 0.705579 -0.6238
F_ F_ 0.919694 0.728556 0.70709 -0.6238
F_ F_ 0.939454 0.0156093 0.712888 -0.6238
