_cell_length_a 34.57599999999999
_cell_length_b 34.5520002592948
_cell_length_c 34.669999982862485
_cell_angle_alpha 85.83399962906046
_cell_angle_beta 86.33600047714813
_cell_angle_gamma 86.53999964641022
_symmetry_space_group_name_H-M         'P 1'
_symmetry_Int_Tables_number            1
loop_
_symmetry_equiv_pos_as_xyz
   'x, y, z'
                         
loop_
_atom_site_label
_atom_site_type_symbol
_atom_site_fract_x 
_atom_site_fract_y
_atom_site_fract_z
_atom_site_charge
Zn Zn 0.428288 0.431311 0.389486 1.11547
Zn Zn 0.39119 0.430185 0.428657 1.11547
Zn Zn 0.42885 0.387913 0.435046 1.11547
Zn Zn 0.404714 0.406304 0.40729 1.11547
Zn Zn 0.0682043 0.0710811 0.105446 1.11547
Zn Zn 0.103803 0.0687073 0.0642224 1.11547
Zn Zn 0.0723619 0.106421 0.0681709 1.11547
Zn Zn 0.0874549 0.0940361 0.0901921 1.11547
H_ H_ 0.46814 0.451209 0.257242 0.09385
H_ H_ 0.36339 0.380672 0.203671 0.09385
H_ H_ 0.369836 0.378274 0.275844 0.09385
H_ H_ 1.028122 -0.02710100000000004 0.17373 0.09385
H_ H_ 0.491879 -0.0065549999999999775 0.157618 0.09385
H_ H_ 0.957711 0.489459 0.144836 0.09385
H_ H_ 0.381222 0.464584 0.0572319 0.09385
H_ H_ 0.441275 0.354823 0.133106 0.09385
H_ H_ 0.445862 0.356277 0.0616427 0.09385
H_ H_ 0.328547 0.471436 0.11152 0.09385
H_ H_ 0.332328 0.445385 0.160679 0.09385
H_ H_ 0.329888 0.497082 0.153134 0.09385
H_ H_ 0.257736 0.476331 0.426022 0.09385
H_ H_ 0.204168 0.366931 0.375116 0.09385
H_ H_ 0.276164 0.37101 0.373969 0.09385
H_ H_ 0.193478 0.996018 0.996653 0.09385
H_ H_ 0.158141 0.484703 1.00860292 0.09385
H_ H_ 0.143696 0.975878 0.489337 0.09385
H_ H_ 0.0572644 0.392582 0.470913 0.09385
H_ H_ 0.132859 0.436024 0.35013 0.09385
H_ H_ 0.0607557 0.436367 0.351517 0.09385
H_ H_ 0.160787 0.334052 0.448763 0.09385
H_ H_ 0.140816 0.324764 0.495388 0.09385
H_ H_ 0.108406 0.330757 0.457415 0.09385
H_ H_ 0.443243 0.255381 0.474031 0.09385
H_ H_ 0.381065 0.20383 0.366307 0.09385
H_ H_ 0.383348 0.273309 0.3691 0.09385
H_ H_ -0.0042200000000000015 0.140262 0.96024 0.09385
H_ H_ 1.00322533 0.160739 0.492603 0.09385
H_ H_ 0.486282 0.14784 0.97513 0.09385
H_ H_ 0.469588 0.0579072 0.389548 0.09385
H_ H_ 0.355174 0.130691 0.446479 0.09385
H_ H_ 0.350284 0.0631489 0.440321 0.09385
H_ H_ 0.50038 0.142214 0.325 0.09385
H_ H_ 0.463675 0.10911 0.327536 0.09385
H_ H_ 0.451618 0.159908 0.332023 0.09385
H_ H_ 0.0316572 0.0458839 0.238119 0.09385
H_ H_ 0.128491 0.124235 0.290671 0.09385
H_ H_ 0.118131 0.130613 0.218954 0.09385
H_ H_ 0.543088 0.501403 0.348751 0.09385
H_ H_ -0.003291000000000044 0.495122 0.320232 0.09385
H_ H_ 0.546408 0.00507307 0.348243 0.09385
H_ H_ 0.109905 0.0285926 0.440512 0.09385
H_ H_ 0.0650309 0.147282 0.363481 0.09385
H_ H_ 0.0659278 0.14504 0.433019 0.09385
H_ H_ 0.175362 0.0378621 0.371573 0.09385
H_ H_ 0.162113 0.0547455 0.323533 0.09385
H_ H_ 0.168759 0.0048131 0.335387 0.09385
H_ H_ 0.239269 0.0246526 0.0622399 0.09385
H_ H_ 0.292806 0.136788 0.117732 0.09385
H_ H_ 0.219611 0.132396 0.114668 0.09385
H_ H_ 0.356183 0.553735 0.510354 0.09385
H_ H_ 0.313413 0.00918763 0.494841 0.09385
H_ H_ 0.35243 0.542442 0.00921696 0.09385
H_ H_ 0.434863 0.128831 0.0338264 0.09385
H_ H_ 0.366784 0.0599912 0.147237 0.09385
H_ H_ 0.436898 0.0664474 0.146124 0.09385
H_ H_ 0.337513 0.174833 0.041626 0.09385
H_ H_ 0.337671 0.168854 -0.0063469999999999915 0.09385
H_ H_ 0.38634 0.173282 0.0129 0.09385
H_ H_ 0.0515977 0.237623 0.0319607 0.09385
H_ H_ 0.114177 0.28833 0.138469 0.09385
H_ H_ 0.116769 0.219989 0.131175 0.09385
H_ H_ 0.507409 0.363626 0.525635 0.09385
H_ H_ 0.513121 0.340415 -0.0006899999999999684 0.09385
H_ H_ 0.00994775 0.328347 0.538374 0.09385
H_ H_ 0.0298128 0.434398 0.125468 0.09385
H_ H_ 0.143439 0.359305 0.0705913 0.09385
H_ H_ 0.146559 0.429705 0.0721249 0.09385
H_ H_ 0.0207005 0.382559 0.182702 0.09385
H_ H_ 0.0554647 0.342983 0.170404 0.09385
H_ H_ 0.0073218 0.333486 0.175832 0.09385
C_ C_ 0.420645 0.420981 0.320883 0.72919
C_ C_ 0.419839 0.415581 0.274803 -0.06135
C_ C_ 0.444215 0.434626 0.24634 -0.13457
C_ C_ 0.442809 0.431368 0.204698 0.22841
C_ C_ 0.416703 0.409111 0.187968 -0.06135
C_ C_ 0.390349 0.391276 0.214979 -0.13457
C_ C_ 0.390596 0.394319 0.256244 -0.13457
C_ C_ 0.466987 0.484588 0.165916 -0.01092
C_ C_ 0.410832 0.410581 0.00395511 0.72919
C_ C_ 0.410432 0.409558 0.0507356 -0.06135
C_ C_ 0.393111 0.439664 0.0738068 -0.13457
C_ C_ 0.395915 0.441352 0.115341 0.22841
C_ C_ 0.411309 0.410198 0.141044 -0.06135
C_ C_ 0.430619 0.381236 0.117361 -0.13457
C_ C_ 0.431904 0.380591 0.0749652 -0.13457
C_ C_ 0.342168 0.470652 0.13902 -0.01092
C_ C_ 0.321048 0.420515 0.417095 0.72919
C_ C_ 0.275009 0.418269 0.413679 -0.06135
C_ C_ 0.247193 0.448291 0.425255 -0.13457
C_ C_ 0.205859 0.446728 0.424167 0.22841
C_ C_ 0.186817 0.41756 0.407387 -0.06135
C_ C_ 0.215222 0.389506 0.390748 -0.13457
C_ C_ 0.25756 0.390245 0.393336 -0.13457
C_ C_ 0.176254 0.475068 0.478733 -0.01092
C_ C_ 0.00497144 0.41187 0.4131 0.72919
C_ C_ 0.0524243 0.415198 0.411958 -0.06135
C_ C_ 0.0731794 0.403759 0.443401 -0.13457
C_ C_ 0.115255 0.403717 0.442319 0.22841
C_ C_ 0.139177 0.417484 0.409881 -0.06135
C_ C_ 0.117194 0.427573 0.377933 -0.13457
C_ C_ 0.0747936 0.430051 0.378528 -0.13457
C_ C_ 0.135181 0.343115 0.469239 -0.01092
C_ C_ 0.421297 0.318587 0.419083 0.72919
C_ C_ 0.416608 0.272545 0.418475 -0.06135
C_ C_ 0.433043 0.244607 0.448099 -0.13457
C_ C_ 0.431361 0.202698 0.446556 0.22841
C_ C_ 0.41474 0.184499 0.415592 -0.06135
C_ C_ 0.396837 0.213176 0.389393 -0.13457
C_ C_ 0.39798 0.253624 0.390119 -0.13457
C_ C_ 0.482997 0.167294 0.474081 -0.01092
C_ C_ 0.413339 0.00294701 0.421106 0.72919
C_ C_ 0.41165 0.0498712 0.41844 -0.06135
C_ C_ 0.442238 0.0713702 0.398518 -0.13457
C_ C_ 0.442725 0.113534 0.396975 0.22841
C_ C_ 0.413314 0.137288 0.416532 -0.06135
C_ C_ 0.379909 0.116606 0.432165 -0.13457
C_ C_ 0.378177 0.0739638 0.429837 -0.13457
C_ C_ 0.473129 0.135284 0.339367 -0.01092
C_ C_ 0.0794316 0.0766272 0.17566 0.72919
C_ C_ 0.0784416 0.0835081 0.220633 -0.06135
C_ C_ 0.0539973 0.0621081 0.248925 -0.13457
C_ C_ 0.0567738 0.0630612 0.291883 0.22841
C_ C_ 0.0836499 0.086745 0.308782 -0.06135
C_ C_ 0.107899 0.106795 0.279529 -0.13457
C_ C_ 0.10528 0.107074 0.238142 -0.13457
C_ C_ 0.0309643 0.0103107 0.330001 -0.01092
C_ C_ 0.0869708 0.0838893 0.493928 0.72919
C_ C_ 0.086909 0.0858032 0.445716 -0.06135
C_ C_ 0.101183 0.0560529 0.422734 -0.13457
C_ C_ 0.101074 0.055827 0.381122 0.22841
C_ C_ 0.0854763 0.0874694 0.35634 -0.06135
C_ C_ 0.0753332 0.12043 0.377731 -0.13457
C_ C_ 0.0753185 0.118437 0.421715 -0.13457
C_ C_ 0.156014 0.0313669 0.348113 -0.01092
C_ C_ 0.173587 0.0756247 0.0849813 0.72919
C_ C_ 0.220639 0.0796979 0.0878322 -0.06135
C_ C_ 0.249153 0.0505749 0.0737773 -0.13457
C_ C_ 0.291421 0.0537148 0.0729035 0.22841
C_ C_ 0.309987 0.0849569 0.0873066 -0.06135
C_ C_ 0.281329 0.112445 0.105198 -0.13457
C_ C_ 0.239115 0.110346 0.104292 -0.13457
C_ C_ 0.32763 0.0236848 0.0241131 -0.01092
C_ C_ 0.492642 0.0932896 0.0867633 0.72919
C_ C_ 0.44457 0.091874 0.0871705 -0.06135
C_ C_ 0.422002 0.110856 0.05707 -0.13457
C_ C_ 0.380372 0.107562 0.0576083 0.22841
C_ C_ 0.357253 0.0876041 0.0877352 -0.06135
C_ C_ 0.379442 0.0725524 0.119648 -0.13457
C_ C_ 0.421697 0.0754514 0.118431 -0.13457
C_ C_ 0.356806 0.161095 0.0193224 -0.01092
C_ C_ 0.0819824 0.173734 0.0795048 0.72919
C_ C_ 0.0846603 0.220526 0.0800572 -0.06135
C_ C_ 0.065321 0.249608 0.0529171 -0.13457
C_ C_ 0.0617102 0.291775 0.0563145 0.22841
C_ C_ 0.0794535 0.309075 0.0871235 -0.06135
C_ C_ 0.100705 0.280634 0.112908 -0.13457
C_ C_ 0.100654 0.237589 0.11068 -0.13457
C_ C_ 0.0090057 0.322214 0.0228655 -0.01092
C_ C_ 0.0841354 0.490833 0.0909775 0.72919
C_ C_ 0.0849316 0.443085 0.0915173 -0.06135
C_ C_ 0.0523845 0.421508 0.107329 -0.13457
C_ C_ 0.0521034 0.380597 0.107248 0.22841
C_ C_ 0.083341 0.354741 0.0923679 -0.06135
C_ C_ 0.115929 0.37527 0.0773826 -0.13457
C_ C_ 0.118485 0.417751 0.081246 -0.13457
C_ C_ 0.0264395 0.356478 0.164411 -0.01092
O_ O_ 0.395018 0.406381 0.347798 -0.62334
O_ O_ 0.449908 0.435019 0.334426 -0.62334
O_ O_ 0.47318 0.446404 0.182794 -0.27028
O_ O_ 0.388669 0.434905 0.487979 -0.62334
O_ O_ 0.428976 0.385402 0.492034 -0.62334
O_ O_ 0.380957 0.47393 0.130191 -0.27028
O_ O_ 0.346582 0.397133 0.401066 -0.62334
O_ O_ 0.334835 0.44773 0.434835 -0.62334
O_ O_ 0.185089 0.478705 0.438586 -0.27028
O_ O_ 0.486407 0.387861 0.433097 -0.62334
O_ O_ 0.486364 0.430265 0.384527 -0.62334
O_ O_ 0.131342 0.384576 0.473886 -0.27028
O_ O_ 0.403595 0.345148 0.398997 -0.62334
O_ O_ 0.441958 0.332447 0.443828 -0.62334
O_ O_ 0.443891 0.179122 0.477248 -0.27028
O_ O_ 0.432307 0.491947 0.386362 -0.62334
O_ O_ 0.388248 0.489091 0.434133 -0.62334
O_ O_ 0.475733 0.130874 0.380857 -0.27028
O_ O_ 0.443263 0.437124 0.438797 -1.26018
O_ O_ 0.101265 0.094638 0.15049 -0.62334
O_ O_ 0.0539822 0.0599759 0.15961 -0.62334
O_ O_ 0.0265062 0.0490086 0.313616 -0.27028
O_ O_ 0.0996361 0.0528297 0.0103937 -0.62334
O_ O_ 0.0819386 0.113769 0.00845599 -0.62334
O_ O_ 0.118308 0.0232529 0.362894 -0.27028
O_ O_ 0.147402 0.102106 0.0950114 -0.62334
O_ O_ 0.158756 0.0498408 0.0672129 -0.62334
O_ O_ 0.31472 0.0214296 0.0628172 -0.27028
O_ O_ 0.0147873 0.112009 0.0632302 -0.62334
O_ O_ 0.0104317 0.0691694 0.110299 -0.62334
O_ O_ 0.361868 0.121024 0.0244589 -0.27028
O_ O_ 0.102808 0.14599 0.0982585 -0.62334
O_ O_ 0.0586566 0.159772 0.0588095 -0.62334
O_ O_ 0.0490111 0.313897 0.0251158 -0.27028
O_ O_ 0.0644123 0.0138108 0.109212 -0.62334
O_ O_ 0.109458 0.0125844 0.065033 -0.62334
O_ O_ 0.0195385 0.365396 0.125324 -0.27028
O_ O_ 0.0556182 0.0572602 0.0590415 -1.26018
Zn Zn 0.423918 0.425208 0.897541 1.11547
Zn Zn 0.397404 0.426214 0.925356 1.11547
Zn Zn 0.420498 0.402884 0.929194 1.11547
Zn Zn 0.407411 0.412127 0.907458 1.11547
Zn Zn 0.0739477 0.0740987 0.59916 1.11547
Zn Zn 0.10245 0.0679821 0.568953 1.11547
Zn Zn 0.0687039 0.100253 0.574138 1.11547
Zn Zn 0.0903195 0.0880316 0.591175 1.11547
H_ H_ 0.465037 0.453905 0.760668 0.09385
H_ H_ 0.361942 0.384218 0.705945 0.09385
H_ H_ 0.357892 0.396819 0.778441 0.09385
H_ H_ 1.00013 0.980604 0.643082 0.09385
H_ H_ 0.462378 1.00477402 0.688098 0.09385
H_ H_ -0.015217999999999954 0.477677 0.632626 0.09385
H_ H_ 0.365612 0.462548 0.563602 0.09385
H_ H_ 0.446758 0.364508 0.637005 0.09385
H_ H_ 0.447382 0.362639 0.567277 0.09385
H_ H_ 0.316693 0.484787 0.673797 0.09385
H_ H_ 0.309122 0.477977 0.624319 0.09385
H_ H_ 0.324807 0.43577 0.660115 0.09385
H_ H_ 0.263956 0.457662 0.961253 0.09385
H_ H_ 0.206222 0.378481 0.870726 0.09385
H_ H_ 0.277531 0.371944 0.878019 0.09385
H_ H_ 0.189049 0.948063 0.50642 0.09385
H_ H_ 0.193033 0.493603 0.493809 0.09385
H_ H_ 0.177093 0.946974 0.00309809 0.09385
H_ H_ 0.0636387 0.377345 0.965492 0.09385
H_ H_ 0.139091 0.444216 0.859834 0.09385
H_ H_ 0.067578 0.440584 0.856723 0.09385
H_ H_ 0.168631 0.3257 0.989915 0.09385
H_ H_ 0.127787 0.320562 0.959152 0.09385
H_ H_ 0.176794 0.338586 0.941045 0.09385
H_ H_ 0.450393 0.270106 0.965041 0.09385
H_ H_ 0.383543 0.212795 0.862209 0.09385
H_ H_ 0.387589 0.283327 0.863725 0.09385
H_ H_ 1.00939792 0.205161 0.462602 0.09385
H_ H_ 1.00797437 0.189571 0.945174 0.09385
H_ H_ 0.486629 0.135941 0.482523 0.09385
H_ H_ 0.470337 0.0627553 0.881781 0.09385
H_ H_ 0.357304 0.140739 0.93579 0.09385
H_ H_ 0.358426 0.0672813 0.936895 0.09385
H_ H_ 0.510941 0.166544 0.83721 0.09385
H_ H_ 0.496235 0.120438 0.825923 0.09385
H_ H_ 0.459928 0.160079 0.833438 0.09385
H_ H_ 0.0313794 0.049342 0.728375 0.09385
H_ H_ 0.130941 0.119331 0.790831 0.09385
H_ H_ 0.136425 0.114248 0.72111 0.09385
H_ H_ 0.495359 0.514058 0.845702 0.09385
H_ H_ 0.01043 0.492264 0.83118 0.09385
H_ H_ 0.558387 -0.012588999999999961 0.820679 0.09385
H_ H_ 0.110202 0.0242707 0.934425 0.09385
H_ H_ 0.062677 0.143748 0.85848 0.09385
H_ H_ 0.0661366 0.14056 0.929853 0.09385
H_ H_ 0.167571 0.0143533 0.877603 0.09385
H_ H_ 0.166244 1.0505178 0.837665 0.09385
H_ H_ 0.169065 0.0019299999999999873 0.83109 0.09385
H_ H_ 0.236121 0.0169046 0.561033 0.09385
H_ H_ 0.289378 0.133608 0.609484 0.09385
H_ H_ 0.218832 0.130036 0.608987 0.09385
H_ H_ 0.302507 0.543337 -0.010789999999999966 0.09385
H_ H_ 0.347242 0.0495502 1.0174548 0.09385
H_ H_ 0.3477 0.503179 0.506648 0.09385
H_ H_ 0.430563 0.111902 0.529329 0.09385
H_ H_ 0.356843 0.0643235 0.649377 0.09385
H_ H_ 0.428653 0.0639727 0.646014 0.09385
H_ H_ 0.335883 0.170233 0.508111 0.09385
H_ H_ 0.382179 0.171355 0.527467 0.09385
H_ H_ 0.337867 0.164008 0.558821 0.09385
H_ H_ 0.0636621 0.229111 0.521746 0.09385
H_ H_ 0.113128 0.286357 0.632528 0.09385
H_ H_ 0.0958708 0.219942 0.639614 0.09385
H_ H_ 0.500206 0.301251 0.0322253 0.09385
H_ H_ 0.501738 0.32388 0.560819 0.09385
H_ H_ -0.0071149999999999824 0.302904 0.0425117 0.09385
H_ H_ 0.0257795 0.427869 0.60923 0.09385
H_ H_ 0.145502 0.35962 0.561268 0.09385
H_ H_ 0.140135 0.431191 0.554163 0.09385
H_ H_ 0.0285181 0.367134 0.668414 0.09385
H_ H_ 0.0544455 0.323893 0.661095 0.09385
H_ H_ 0.00324725 0.324166 0.665321 0.09385
C_ C_ 0.412862 0.428092 0.824361 0.72919
C_ C_ 0.411615 0.42662 0.778375 -0.06135
C_ C_ 0.442677 0.437051 0.750263 -0.13457
C_ C_ 0.442416 0.435789 0.709316 0.22841
C_ C_ 0.412301 0.419374 0.689349 -0.06135
C_ C_ 0.384527 0.401873 0.717801 -0.13457
C_ C_ 0.382104 0.408388 0.75981 -0.13457
C_ C_ 0.470604 0.487687 0.670661 -0.01092
C_ C_ 0.409676 0.412577 0.509982 0.72919
C_ C_ 0.408022 0.413343 0.55697 -0.06135
C_ C_ 0.384633 0.441508 0.579499 -0.13457
C_ C_ 0.38598 0.444679 0.620957 0.22841
C_ C_ 0.410172 0.419127 0.644307 -0.06135
C_ C_ 0.429757 0.388743 0.622902 -0.13457
C_ C_ 0.430972 0.385827 0.580855 -0.13457
C_ C_ 0.328013 0.469895 0.647262 -0.01092
C_ C_ 0.325505 0.412684 0.923551 0.72919
C_ C_ 0.27967 0.412724 0.920984 -0.06135
C_ C_ 0.253385 0.435313 0.94298 -0.13457
C_ C_ 0.210854 0.440015 0.940161 0.22841
C_ C_ 0.189958 0.416123 0.916571 -0.06135
C_ C_ 0.216812 0.393292 0.892981 -0.13457
C_ C_ 0.259643 0.389478 0.896836 -0.13457
C_ C_ 0.18118 0.462182 0.998385 -0.01092
C_ C_ 0.00844933 0.408964 0.90989 0.72919
C_ C_ 0.055974 0.41436 0.912372 -0.06135
C_ C_ 0.0793344 0.395788 0.943332 -0.13457
C_ C_ 0.121178 0.395485 0.944049 0.22841
C_ C_ 0.142769 0.418723 0.915499 -0.06135
C_ C_ 0.121685 0.433426 0.883489 -0.13457
C_ C_ 0.0803835 0.431625 0.882278 -0.13457
C_ C_ 0.153953 0.337672 0.964 -0.01092
C_ C_ 0.417199 0.330371 0.918517 0.72919
C_ C_ 0.417886 0.2835 0.916228 -0.06135
C_ C_ 0.430543 0.255394 0.946479 -0.13457
C_ C_ 0.431933 0.213713 0.945072 0.22841
C_ C_ 0.416351 0.194463 0.91376 -0.06135
C_ C_ 0.40294 0.221517 0.883114 -0.13457
C_ C_ 0.402145 0.26508 0.886308 -0.13457
C_ C_ 0.48175 0.17875 0.98191 -0.01092
C_ C_ 0.416329 0.0103003 0.915279 0.72919
C_ C_ 0.415911 0.0575896 0.914088 -0.06135
C_ C_ 0.448403 0.0787531 0.897221 -0.13457
C_ C_ 0.449686 0.122342 0.895793 0.22841
C_ C_ 0.417021 0.147646 0.911732 -0.06135
C_ C_ 0.383096 0.125646 0.925495 -0.13457
C_ C_ 0.383878 0.0818502 0.92761 -0.13457
C_ C_ 0.486636 0.145427 0.844584 -0.01092
C_ C_ 0.0838293 0.0815515 0.671334 0.72919
C_ C_ 0.0845842 0.0829394 0.716663 -0.06135
C_ C_ 0.0548845 0.0643792 0.742636 -0.13457
C_ C_ 0.0522522 0.0662011 0.784141 0.22841
C_ C_ 0.0790389 0.0861685 0.805159 -0.06135
C_ C_ 0.108751 0.103651 0.779766 -0.13457
C_ C_ 0.111707 0.102045 0.73796 -0.13457
C_ C_ 0.0228862 0.0151198 0.816798 -0.01092
C_ C_ 0.0884896 0.0833494 0.989256 0.72919
C_ C_ 0.0876133 0.0830597 0.941521 -0.06135
C_ C_ 0.0989289 0.0507383 0.918212 -0.13457
C_ C_ 0.0970789 0.0504516 0.875377 0.22841
C_ C_ 0.0834997 0.0841936 0.851424 -0.06135
C_ C_ 0.0737835 0.116817 0.874769 -0.13457
C_ C_ 0.0776748 0.116164 0.916623 -0.13457
C_ C_ 0.155438 0.0216423 0.850883 -0.01092
C_ C_ 0.173593 0.0735374 0.579242 0.72919
C_ C_ 0.219816 0.0723733 0.585542 -0.06135
C_ C_ 0.246398 0.0420705 0.573039 -0.13457
C_ C_ 0.287859 0.0464377 0.571093 0.22841
C_ C_ 0.307453 0.075129 0.587993 -0.06135
C_ C_ 0.279169 0.104522 0.602309 -0.13457
C_ C_ 0.237408 0.102872 0.601311 -0.13457
C_ C_ 0.326521 0.0267885 0.515598 -0.01092
C_ C_ 0.4865 0.0837266 0.585886 0.72919
C_ C_ 0.438801 0.0838122 0.584142 -0.06135
C_ C_ 0.416724 0.0944875 0.552372 -0.13457
C_ C_ 0.374335 0.0957886 0.555374 0.22841
C_ C_ 0.353621 0.0770561 0.586953 -0.06135
C_ C_ 0.374084 0.0710329 0.620172 -0.13457
C_ C_ 0.415064 0.0700248 0.619163 -0.13457
C_ C_ 0.353608 0.156592 0.530856 -0.01092
C_ C_ 0.0814522 0.168777 0.578341 0.72919
C_ C_ 0.0840527 0.2152 0.579792 -0.06135
C_ C_ 0.0719232 0.24216 0.547316 -0.13457
C_ C_ 0.0739931 0.28383 0.548156 0.22841
C_ C_ 0.0857434 0.302882 0.581253 -0.06135
C_ C_ 0.097734 0.276272 0.612214 -0.13457
C_ C_ 0.0932132 0.23525 0.612665 -0.13457
C_ C_ 0.0229321 0.312938 0.512614 -0.01092
C_ C_ 0.0840572 0.4849 0.585488 0.72919
C_ C_ 0.0842686 0.438216 0.585649 -0.06135
C_ C_ 0.0534282 0.414138 0.599178 -0.13457
C_ C_ 0.0544764 0.371936 0.600556 0.22841
C_ C_ 0.0839213 0.350176 0.5804 -0.06135
C_ C_ 0.118174 0.373786 0.569187 -0.13457
C_ C_ 0.116031 0.416266 0.569062 -0.13457
C_ C_ 0.027808 0.340497 0.655211 -0.01092
O_ O_ 0.387953 0.41373 0.848999 -0.62334
O_ O_ 0.442032 0.438216 0.839513 -0.62334
O_ O_ 0.474436 0.449058 0.687513 -0.27028
O_ O_ 0.389974 0.433239 0.982757 -0.62334
O_ O_ 0.429379 0.384172 0.98445 -0.62334
O_ O_ 0.366477 0.476328 0.635519 -0.27028
O_ O_ 0.351394 0.400355 0.89725 -0.62334
O_ O_ 0.34102 0.42893 0.949887 -0.62334
O_ O_ 0.191033 0.470655 0.958311 -0.27028
O_ O_ 0.479849 0.392932 0.929558 -0.62334
O_ O_ 0.479776 0.440006 0.889904 -0.62334
O_ O_ 0.139481 0.375991 0.97347 -0.27028
O_ O_ 0.402784 0.35445 0.893621 -0.62334
O_ O_ 0.435032 0.347273 0.941868 -0.62334
O_ O_ 0.442171 0.189158 0.977031 -0.27028
O_ O_ 0.43222 0.482651 0.888205 -0.62334
O_ O_ 0.387497 0.483149 0.931937 -0.62334
O_ O_ 0.483226 0.139315 0.884515 -0.27028
O_ O_ 0.440784 0.445036 0.944965 -1.26018
O_ O_ 0.0996879 0.103473 0.645379 -0.62334
O_ O_ 0.0654203 0.0569061 0.656768 -0.62334
O_ O_ 0.0183873 0.0544725 0.803224 -0.27028
O_ O_ 0.110825 0.0611389 0.512452 -0.62334
O_ O_ 0.067336 0.107344 0.515646 -0.62334
O_ O_ 0.114618 0.0209447 0.854315 -0.27028
O_ O_ 0.148618 0.0938477 0.599462 -0.62334
O_ O_ 0.15812 0.0519251 0.555473 -0.62334
O_ O_ 0.311352 0.0179997 0.554007 -0.27028
O_ O_ 0.0155458 0.117972 0.567481 -0.62334
O_ O_ 0.0174545 0.0693747 0.606866 -0.62334
O_ O_ 0.356198 0.115285 0.526761 -0.27028
O_ O_ 0.0929887 0.143657 0.603588 -0.62334
O_ O_ 0.0695439 0.153671 0.549203 -0.62334
O_ O_ 0.0642696 0.306785 0.514113 -0.27028
O_ O_ 0.0634559 0.0150517 0.608089 -0.62334
O_ O_ 0.108881 0.0116416 0.5644 -0.62334
O_ O_ 0.0231056 0.352578 0.61568 -0.27028
O_ O_ 0.0553796 0.0541051 0.556135 -1.26018
Zn Zn 0.426112 0.923693 0.401779 1.11547
Zn Zn 0.400192 0.925215 0.426353 1.11547
Zn Zn 0.423828 0.900666 0.427983 1.11547
Zn Zn 0.411627 0.907611 0.410619 1.11547
Zn Zn 0.0709387 0.567949 0.108749 1.11547
Zn Zn 0.103716 0.570921 0.0750977 1.11547
Zn Zn 0.0715948 0.607371 0.0734314 1.11547
Zn Zn 0.088321 0.593766 0.0942834 1.11547
H_ H_ 0.473278 0.940321 0.266442 0.09385
H_ H_ 0.359969 0.889813 0.211493 0.09385
H_ H_ 0.357933 0.898013 0.283457 0.09385
H_ H_ 0.954923 0.504339 0.191168 0.09385
H_ H_ 0.493891 0.499337 0.157533 0.09385
H_ H_ 0.98729 0.991064 0.202991 0.09385
H_ H_ 0.375996 0.970159 0.0712955 0.09385
H_ H_ 0.448186 0.865182 0.144576 0.09385
H_ H_ 0.448495 0.863623 0.0728162 0.09385
H_ H_ 0.330903 0.94758 0.174344 0.09385
H_ H_ 0.320177 0.998561 0.164747 0.09385
H_ H_ 0.321032 0.964865 0.123569 0.09385
H_ H_ 0.265042 0.966324 0.453472 0.09385
H_ H_ 0.21096 0.864181 0.385648 0.09385
H_ H_ 0.281083 0.867291 0.384164 0.09385
H_ H_ 0.205104 0.468422 1.0178964 0.09385
H_ H_ 0.145787 0.98601 -0.008651999999999993 0.09385
H_ H_ 0.14397 0.482981 0.484443 0.09385
H_ H_ 0.0587512 0.891044 0.474379 0.09385
H_ H_ 0.141224 0.936441 0.359177 0.09385
H_ H_ 0.0734097 0.926725 0.353307 0.09385
H_ H_ 0.123723 0.828476 0.46188 0.09385
H_ H_ 0.172803 0.830274 0.47944 0.09385
H_ H_ 0.135732 0.830447 0.511579 0.09385
H_ H_ 0.445619 0.763164 0.47101 0.09385
H_ H_ 0.381064 0.711063 0.365486 0.09385
H_ H_ 0.388929 0.779953 0.363917 0.09385
H_ H_ 0.978345 0.638556 0.980706 0.09385
H_ H_ -0.021843999999999975 0.636864 0.467085 0.09385
H_ H_ 0.480655 0.63783 0.962341 0.09385
H_ H_ 0.471118 0.566543 0.393507 0.09385
H_ H_ 0.349066 0.641053 0.431691 0.09385
H_ H_ 0.348363 0.569556 0.428376 0.09385
H_ H_ 0.46137 0.621106 0.336362 0.09385
H_ H_ 0.466634 0.675761 0.336888 0.09385
H_ H_ 0.508425 0.643917 0.338924 0.09385
H_ H_ 0.0290383 0.542576 0.240206 0.09385
H_ H_ 0.122056 0.623736 0.298382 0.09385
H_ H_ 0.122662 0.621544 0.229366 0.09385
H_ H_ 0.523087 0.995101 0.30296 0.09385
H_ H_ 0.00680184 0.993702 0.325693 0.09385
H_ H_ 0.493794 0.508361 0.341617 0.09385
H_ H_ 0.111998 0.531031 0.437918 0.09385
H_ H_ 0.0509115 0.646334 0.36662 0.09385
H_ H_ 0.0539467 0.641758 0.438009 0.09385
H_ H_ 0.164768 0.509175 0.333317 0.09385
H_ H_ 0.171443 0.52943 0.377116 0.09385
H_ H_ 0.154531 0.558716 0.331089 0.09385
H_ H_ 0.239624 0.525601 0.0554061 0.09385
H_ H_ 0.295125 0.630995 0.120227 0.09385
H_ H_ 0.220616 0.634799 0.110313 0.09385
H_ H_ 0.320766 0.0576919 0.504323 0.09385
H_ H_ 0.315578 0.543096 0.487576 0.09385
H_ H_ 0.30311 1.0209992 0.00645818 0.09385
H_ H_ 0.438901 0.618512 0.0293211 0.09385
H_ H_ 0.362042 0.560553 0.141924 0.09385
H_ H_ 0.432778 0.554463 0.142232 0.09385
H_ H_ 0.336335 0.668014 0.0449759 0.09385
H_ H_ 0.328581 0.661356 0.997004 0.09385
H_ H_ 0.373924 0.679117 0.00600203 0.09385
H_ H_ 0.0473487 0.741961 0.0343365 0.09385
H_ H_ 0.129836 0.794452 0.125047 0.09385
H_ H_ 0.129761 0.724708 0.12237 0.09385
H_ H_ 0.501798 0.852739 0.519417 0.09385
H_ H_ 0.499903 0.816776 0.0338783 0.09385
H_ H_ 0.997855 0.811716 0.542507 0.09385
H_ H_ 0.0268637 0.938301 0.103364 0.09385
H_ H_ 0.14648 0.862777 0.0607048 0.09385
H_ H_ 0.142153 0.937229 0.0597723 0.09385
H_ H_ 0.028038 0.870828 0.168724 0.09385
H_ H_ 0.0396244 0.822948 0.154303 0.09385
H_ H_ 0.989368 0.840287 0.158789 0.09385
C_ C_ 0.41884 0.916931 0.330856 0.72919
C_ C_ 0.417 0.918014 0.28355 -0.06135
C_ C_ 0.448195 0.929267 0.256245 -0.13457
C_ C_ 0.445284 0.930467 0.21515 0.22841
C_ C_ 0.415047 0.915521 0.197625 -0.06135
C_ C_ 0.383936 0.902017 0.223521 -0.13457
C_ C_ 0.386112 0.901523 0.26526 -0.13457
C_ C_ 0.470499 0.984967 0.183405 -0.01092
C_ C_ 0.413455 0.919822 0.0154355 0.72919
C_ C_ 0.411061 0.916353 0.0634966 -0.06135
C_ C_ 0.390045 0.944502 0.0857428 -0.13457
C_ C_ 0.393468 0.945888 0.128119 0.22841
C_ C_ 0.415043 0.917829 0.149759 -0.06135
C_ C_ 0.432996 0.888029 0.129429 -0.13457
C_ C_ 0.430372 0.885886 0.0868996 -0.13457
C_ C_ 0.334482 0.971804 0.151199 -0.01092
C_ C_ 0.329641 0.919045 0.420416 0.72919
C_ C_ 0.282501 0.916892 0.418573 -0.06135
C_ C_ 0.255137 0.946787 0.434905 -0.13457
C_ C_ 0.21235 0.944033 0.43381 0.22841
C_ C_ 0.193534 0.912721 0.418427 -0.06135
C_ C_ 0.221485 0.886616 0.400507 -0.13457
C_ C_ 0.263129 0.889783 0.397311 -0.13457
C_ C_ 0.176825 0.973465 0.486821 -0.01092
C_ C_ 0.0117754 0.914118 0.415004 0.72919
C_ C_ 0.0578408 0.913203 0.415967 -0.06135
C_ C_ 0.0771499 0.900827 0.449873 -0.13457
C_ C_ 0.120655 0.89786 0.45065 0.22841
C_ C_ 0.146645 0.910926 0.418622 -0.06135
C_ C_ 0.12578 0.924856 0.384862 -0.13457
C_ C_ 0.0849093 0.922074 0.382681 -0.13457
C_ C_ 0.142334 0.841357 0.482263 -0.01092
C_ C_ 0.416765 0.827718 0.420265 0.72919
C_ C_ 0.413151 0.780712 0.420341 -0.06135
C_ C_ 0.432199 0.753062 0.447534 -0.13457
C_ C_ 0.432322 0.710896 0.44534 0.22841
C_ C_ 0.412593 0.692448 0.417936 -0.06135
C_ C_ 0.393567 0.720592 0.390655 -0.13457
C_ C_ 0.397509 0.762217 0.39038 -0.13457
C_ C_ 0.486683 0.675172 0.47194 -0.01092
C_ C_ 0.410721 0.510477 0.411619 0.72919
C_ C_ 0.409725 0.55799 0.411866 -0.06135
C_ C_ 0.444333 0.580423 0.405236 -0.13457
C_ C_ 0.444861 0.624057 0.406275 0.22841
C_ C_ 0.410647 0.647216 0.416172 -0.06135
C_ C_ 0.377149 0.625087 0.425651 -0.13457
C_ C_ 0.376518 0.582715 0.423854 -0.13457
C_ C_ 0.475829 0.645009 0.349151 -0.01092
C_ C_ 0.0747456 0.580351 0.179573 0.72919
C_ C_ 0.0780566 0.580985 0.226078 -0.06135
C_ C_ 0.0496111 0.561681 0.252163 -0.13457
C_ C_ 0.0489737 0.565386 0.294626 0.22841
C_ C_ 0.0763491 0.585923 0.31438 -0.06135
C_ C_ 0.102556 0.605562 0.286233 -0.13457
C_ C_ 0.102904 0.604322 0.24504 -0.13457
C_ C_ 0.0190271 0.51271 0.330724 -0.01092
C_ C_ 0.0844271 0.586817 0.491694 0.72919
C_ C_ 0.0842377 0.587256 0.445085 -0.06135
C_ C_ 0.0972694 0.555367 0.422555 -0.13457
C_ C_ 0.0966932 0.556657 0.382279 0.22841
C_ C_ 0.078081 0.587729 0.358766 -0.06135
C_ C_ 0.0665473 0.62138 0.380462 -0.13457
C_ C_ 0.0660908 0.618303 0.422612 -0.13457
C_ C_ 0.153867 0.531934 0.351686 -0.01092
C_ C_ 0.173998 0.578469 0.0832524 0.72919
C_ C_ 0.221915 0.580377 0.084676 -0.06135
C_ C_ 0.24906 0.553141 0.0673625 -0.13457
C_ C_ 0.292429 0.556045 0.0637742 0.22841
C_ C_ 0.310964 0.585009 0.0821674 -0.06135
C_ C_ 0.283845 0.613394 0.0989223 -0.13457
C_ C_ 0.240457 0.611546 0.0987142 -0.13457
C_ C_ 0.325225 0.528156 0.00916057 -0.01092
C_ C_ 0.491866 0.58972 0.0861036 0.72919
C_ C_ 0.444726 0.589092 0.0866508 -0.06135
C_ C_ 0.422015 0.610188 0.0557118 -0.13457
C_ C_ 0.381296 0.605657 0.0528128 0.22841
C_ C_ 0.356607 0.589878 0.0836829 -0.06135
C_ C_ 0.37833 0.573748 0.116447 -0.13457
C_ C_ 0.420316 0.569778 0.117478 -0.13457
C_ C_ 0.350773 0.661076 0.0177904 -0.01092
C_ C_ 0.081512 0.678303 0.081052 0.72919
C_ C_ 0.0841555 0.723885 0.0815049 -0.06135
C_ C_ 0.0595843 0.751538 0.0585799 -0.13457
C_ C_ 0.0601806 0.792435 0.0582702 0.22841
C_ C_ 0.0864307 0.811257 0.0826427 -0.06135
C_ C_ 0.109503 0.783258 0.105507 -0.13457
C_ C_ 0.108761 0.741805 0.1043 -0.13457
C_ C_ 0.00717661 0.821021 0.0312786 -0.01092
C_ C_ 0.0866683 0.993043 0.0866221 0.72919
C_ C_ 0.0846818 0.946945 0.0849082 -0.06135
C_ C_ 0.0526227 0.923879 0.0963758 -0.13457
C_ C_ 0.0532967 0.880834 0.0966907 0.22841
C_ C_ 0.0861337 0.857378 0.0839308 -0.06135
C_ C_ 0.119455 0.880127 0.0726418 -0.13457
C_ C_ 0.11819 0.921447 0.0722589 -0.13457
C_ C_ 0.019537 0.849597 0.147618 -0.01092
O_ O_ 0.394341 0.901202 0.356262 -0.62334
O_ O_ 0.443847 0.933194 0.346804 -0.62334
O_ O_ 0.477808 0.943879 0.193662 -0.27028
O_ O_ 0.392437 0.930965 0.483936 -0.62334
O_ O_ 0.435732 0.888209 0.485701 -0.62334
O_ O_ 0.374881 0.976088 0.146256 -0.27028
O_ O_ 0.355237 0.897902 0.401965 -0.62334
O_ O_ 0.344524 0.942022 0.440588 -0.62334
O_ O_ 0.188873 0.975293 0.446103 -0.27028
O_ O_ 0.482665 0.887915 0.429513 -0.62334
O_ O_ 0.482783 0.935725 0.390265 -0.62334
O_ O_ 0.136452 0.881803 0.482725 -0.27028
O_ O_ 0.408548 0.851603 0.392465 -0.62334
O_ O_ 0.424128 0.843904 0.450063 -0.62334
O_ O_ 0.447573 0.689272 0.478075 -0.27028
O_ O_ 0.436885 0.981668 0.400649 -0.62334
O_ O_ 0.384455 0.98358 0.434868 -0.62334
O_ O_ 0.476281 0.643509 0.388641 -0.27028
O_ O_ 0.445845 0.941893 0.445418 -1.26018
O_ O_ 0.0871839 0.605271 0.153466 -0.62334
O_ O_ 0.060522 0.552194 0.166263 -0.62334
O_ O_ 0.0161506 0.551542 0.316004 -0.27028
O_ O_ 0.111749 0.567717 0.0172639 -0.62334
O_ O_ 0.0646732 0.611519 0.0146928 -0.62334
O_ O_ 0.114038 0.52599 0.362866 -0.27028
O_ O_ 0.148238 0.602158 0.0988717 -0.62334
O_ O_ 0.159593 0.551783 0.0656084 -0.62334
O_ O_ 0.31498 0.525884 0.0493744 -0.27028
O_ O_ 0.0133576 0.605308 0.0679032 -0.62334
O_ O_ 0.0117673 0.567113 0.118241 -0.62334
O_ O_ 0.364341 0.622371 0.0193981 -0.27028
O_ O_ 0.1039 0.652231 0.0988043 -0.62334
O_ O_ 0.0550857 0.664262 0.0625411 -0.62334
O_ O_ 0.0466981 0.811689 0.0270537 -0.27028
O_ O_ 0.0593521 0.511588 0.110804 -0.62334
O_ O_ 0.110933 0.511198 0.0760559 -0.62334
O_ O_ 0.0193237 0.863632 0.109314 -0.27028
O_ O_ 0.0577054 0.558929 0.0613331 -1.26018
Zn Zn 0.433975 0.929621 0.891958 1.11547
Zn Zn 0.389079 0.935551 0.93883 1.11547
Zn Zn 0.432408 0.890144 0.937041 1.11547
Zn Zn 0.406768 0.90775 0.90753 1.11547
Zn Zn 0.0686934 0.561224 0.608819 1.11547
Zn Zn 0.109064 0.565562 0.568282 1.11547
Zn Zn 0.0677664 0.60829 0.570704 1.11547
Zn Zn 0.0950227 0.593994 0.591035 1.11547
H_ H_ 0.471718 0.950746 0.760493 0.09385
H_ H_ 0.378491 0.876483 0.702433 0.09385
H_ H_ 0.372207 0.88556 0.770664 0.09385
H_ H_ 0.96508 0.489363 0.678513 0.09385
H_ H_ 0.50099 0.499794 0.669097 0.09385
H_ H_ -0.00917699999999999 1.00761087 0.684091 0.09385
H_ H_ 0.390127 0.970178 0.558808 0.09385
H_ H_ 0.451878 0.85902 0.635634 0.09385
H_ H_ 0.450507 0.858499 0.561438 0.09385
H_ H_ 0.353414 0.94906 0.683952 0.09385
H_ H_ 0.334901 0.996036 0.661294 0.09385
H_ H_ 0.330704 0.9551 0.640148 0.09385
H_ H_ 0.253473 0.95917 0.962173 0.09385
H_ H_ 0.205062 0.852278 0.893873 0.09385
H_ H_ 0.274988 0.859099 0.898437 0.09385
H_ H_ 0.178317 0.444946 0.489596 0.09385
H_ H_ 0.182997 0.00233449 0.495181 0.09385
H_ H_ 0.170651 0.433094 1.00379591 0.09385
H_ H_ 0.0534075 0.860739 0.96561 0.09385
H_ H_ 0.127519 0.947306 0.873249 0.09385
H_ H_ 0.0574235 0.952451 0.87891 0.09385
H_ H_ 0.133329 0.806322 1.00563439 0.09385
H_ H_ 0.121109 0.807136 0.956043 0.09385
H_ H_ 0.167467 0.817174 -0.03608800000000001 0.09385
H_ H_ 0.463852 0.753576 0.96347 0.09385
H_ H_ 0.369247 0.70619 0.881198 0.09385
H_ H_ 0.380298 0.775206 0.875683 0.09385
H_ H_ -0.011402000000000023 0.66295 0.50792 0.09385
H_ H_ 0.0012900000000000134 0.678679 0.960137 0.09385
H_ H_ 0.501751 0.675488 0.50037 0.09385
H_ H_ 0.469627 0.557229 0.890526 0.09385
H_ H_ 0.356834 0.629901 0.941975 0.09385
H_ H_ 0.353344 0.55873 0.934555 0.09385
H_ H_ 0.5095 0.644747 0.839934 0.09385
H_ H_ 0.476073 0.612011 0.831126 0.09385
H_ H_ 0.463352 0.663042 0.840462 0.09385
H_ H_ 0.0300908 0.549576 0.744687 0.09385
H_ H_ 0.132349 0.625667 0.791263 0.09385
H_ H_ 0.13013 0.616287 0.722243 0.09385
H_ H_ 0.51059 -0.01517400000000002 0.811925 0.09385
H_ H_ 0.00182826 1.00799877 0.841277 0.09385
H_ H_ 0.532454 0.498843 0.807974 0.09385
H_ H_ 0.121911 0.535788 0.940318 0.09385
H_ H_ 0.0532703 0.642616 0.867551 0.09385
H_ H_ 0.0580758 0.646144 0.939214 0.09385
H_ H_ 0.186256 0.534897 0.828616 0.09385
H_ H_ 0.19335 0.544237 0.878411 0.09385
H_ H_ 0.171537 0.581382 0.846833 0.09385
H_ H_ 0.239471 0.536565 0.542398 0.09385
H_ H_ 0.297186 0.636244 0.612224 0.09385
H_ H_ 0.225787 0.62882 0.615766 0.09385
H_ H_ 0.346115 -0.002491000000000021 0.017319 0.09385
H_ H_ 0.330753 0.498683 0.997817 0.09385
H_ H_ 0.357598 0.0180017 0.512474 0.09385
H_ H_ 0.444112 0.612296 0.520726 0.09385
H_ H_ 0.366615 0.550537 0.628027 0.09385
H_ H_ 0.436376 0.564468 0.638815 0.09385
H_ H_ 0.337425 0.67105 0.548313 0.09385
H_ H_ 0.35015 0.682834 0.500122 0.09385
H_ H_ 0.385108 0.68461 0.53569 0.09385
H_ H_ 0.052661 0.740599 0.529363 0.09385
H_ H_ 0.108804 0.793305 0.640488 0.09385
H_ H_ 0.109838 0.724098 0.637037 0.09385
H_ H_ 0.515128 0.858103 0.044821 0.09385
H_ H_ 0.501374 0.819449 0.560738 0.09385
H_ H_ 0.998804 0.828475 1.00146778 0.09385
H_ H_ 0.0197497 0.938175 0.602683 0.09385
H_ H_ 0.139304 0.863225 0.56348 0.09385
H_ H_ 0.140528 0.933147 0.560858 0.09385
H_ H_ 0.00243328 0.834345 0.674335 0.09385
H_ H_ 1.0226624 0.881872 0.683648 0.09385
H_ H_ 0.0537132 0.839739 0.671642 0.09385
C_ C_ 0.423935 0.920187 0.821908 0.72919
C_ C_ 0.423421 0.9162 0.774793 -0.06135
C_ C_ 0.454075 0.931042 0.748254 -0.13457
C_ C_ 0.455021 0.929605 0.706326 0.22841
C_ C_ 0.426717 0.910938 0.686564 -0.06135
C_ C_ 0.399798 0.891875 0.713556 -0.13457
C_ C_ 0.396746 0.895788 0.754982 -0.13457
C_ C_ 0.47514 0.982755 0.668273 -0.01092
C_ C_ 0.414097 0.910287 0.505781 0.72919
C_ C_ 0.416331 0.910726 0.552531 -0.06135
C_ C_ 0.40238 0.942872 0.574262 -0.13457
C_ C_ 0.40365 0.943715 0.61684 0.22841
C_ C_ 0.422554 0.912991 0.640102 -0.06135
C_ C_ 0.435084 0.881928 0.619177 -0.13457
C_ C_ 0.43357 0.880005 0.577444 -0.13457
C_ C_ 0.351309 0.968344 0.656923 -0.01092
C_ C_ 0.320091 0.917584 0.926858 0.72919
C_ C_ 0.273036 0.912356 0.927586 -0.06135
C_ C_ 0.24512 0.939393 0.943934 -0.13457
C_ C_ 0.202758 0.93677 0.938693 0.22841
C_ C_ 0.184099 0.904999 0.923165 -0.06135
C_ C_ 0.214006 0.879 0.906664 -0.13457
C_ C_ 0.256514 0.882788 0.909748 -0.13457
C_ C_ 0.175075 0.974242 0.98642 -0.01092
C_ C_ 0.0019834 0.904304 0.913718 0.72919
C_ C_ 0.049502 0.902518 0.918119 -0.06135
C_ C_ 0.0713404 0.87994 0.945519 -0.13457
C_ C_ 0.113095 0.879815 0.947882 0.22841
C_ C_ 0.137382 0.9035 0.921982 -0.06135
C_ C_ 0.115442 0.926922 0.893735 -0.13457
C_ C_ 0.0719585 0.92929 0.894517 -0.13457
C_ C_ 0.138964 0.820397 0.976525 -0.01092
C_ C_ 0.418148 0.821257 0.927227 0.72919
C_ C_ 0.41906 0.772814 0.921409 -0.06135
C_ C_ 0.439283 0.744873 0.946406 -0.13457
C_ C_ 0.435735 0.703187 0.946901 0.22841
C_ C_ 0.413629 0.685214 0.919709 -0.06135
C_ C_ 0.39301 0.713263 0.894716 -0.13457
C_ C_ 0.395153 0.755862 0.895778 -0.13457
C_ C_ 0.48462 0.665856 0.975378 -0.01092
C_ C_ 0.411594 0.503969 0.911528 0.72919
C_ C_ 0.410194 0.551307 0.907804 -0.06135
C_ C_ 0.443388 0.571989 0.898879 -0.13457
C_ C_ 0.444397 0.614219 0.901582 0.22841
C_ C_ 0.413564 0.638166 0.915927 -0.06135
C_ C_ 0.381231 0.615 0.928487 -0.13457
C_ C_ 0.380051 0.573729 0.923859 -0.13457
C_ C_ 0.480914 0.636704 0.84815 -0.01092
C_ C_ 0.0773618 0.579384 0.677306 0.72919
C_ C_ 0.0813002 0.582449 0.724484 -0.06135
C_ C_ 0.054879 0.565094 0.754283 -0.13457
C_ C_ 0.0573276 0.56581 0.795557 0.22841
C_ C_ 0.0854082 0.58691 0.812446 -0.06135
C_ C_ 0.109397 0.608141 0.782658 -0.13457
C_ C_ 0.107924 0.603625 0.741544 -0.13457
C_ C_ 0.0371537 0.511044 0.829095 -0.01092
C_ C_ 0.0888887 0.589126 0.995341 0.72919
C_ C_ 0.0897718 0.59031 0.949085 -0.06135
C_ C_ 0.108416 0.559725 0.925454 -0.13457
C_ C_ 0.110217 0.561685 0.883008 0.22841
C_ C_ 0.0883525 0.590149 0.859943 -0.06135
C_ C_ 0.0704392 0.620336 0.882105 -0.13457
C_ C_ 0.0729597 0.621106 0.924464 -0.13457
C_ C_ 0.172678 0.550395 0.855204 -0.01092
C_ C_ 0.180056 0.581546 0.576898 0.72919
C_ C_ 0.226434 0.584961 0.575789 -0.06135
C_ C_ 0.252581 0.560239 0.556148 -0.13457
C_ C_ 0.294078 0.559896 0.560638 0.22841
C_ C_ 0.312155 0.589305 0.578906 -0.06135
C_ C_ 0.285153 0.616032 0.595383 -0.13457
C_ C_ 0.244482 0.612442 0.596463 -0.13457
C_ C_ 0.333593 0.533465 0.513914 -0.01092
C_ C_ 0.493961 0.590749 0.582824 0.72919
C_ C_ 0.447792 0.58968 0.580974 -0.06135
C_ C_ 0.426829 0.603114 0.54825 -0.13457
C_ C_ 0.38524 0.609091 0.549804 0.22841
C_ C_ 0.36005 0.590108 0.579058 -0.06135
C_ C_ 0.380031 0.573642 0.611573 -0.13457
C_ C_ 0.423176 0.574951 0.612333 -0.13457
C_ C_ 0.362023 0.667668 0.52516 -0.01092
C_ C_ 0.0802613 0.68011 0.579964 0.72919
C_ C_ 0.0805319 0.726714 0.582054 -0.06135
C_ C_ 0.0642037 0.753227 0.554254 -0.13457
C_ C_ 0.0665407 0.794917 0.554901 0.22841
C_ C_ 0.0825279 0.812423 0.585317 -0.06135
C_ C_ 0.0947227 0.783942 0.615738 -0.13457
C_ C_ 0.0957313 0.743037 0.614118 -0.13457
C_ C_ 0.0156825 0.834443 0.528858 -0.01092
C_ C_ 0.0829761 0.992841 0.584878 0.72919
C_ C_ 0.0838809 0.946419 0.590437 -0.06135
C_ C_ 0.0505313 0.923753 0.602046 -0.13457
C_ C_ 0.0530886 0.88133 0.608044 0.22841
C_ C_ 0.0826186 0.858877 0.588751 -0.06135
C_ C_ 0.1159 0.880255 0.574179 -0.13457
C_ C_ 0.116504 0.921962 0.575899 -0.13457
C_ C_ 0.0247418 0.855469 0.66657 -0.01092
O_ O_ 0.403414 0.89991 0.847065 -0.62334
O_ O_ 0.44514 0.944926 0.835914 -0.62334
O_ O_ 0.486871 0.946412 0.685839 -0.27028
O_ O_ 0.389913 0.94092 0.995871 -0.62334
O_ O_ 0.432844 0.894569 -0.003414000000000028 -0.62334
O_ O_ 0.386887 0.976337 0.633283 -0.27028
O_ O_ 0.34637 0.898864 0.905926 -0.62334
O_ O_ 0.332538 0.944725 0.944244 -0.62334
O_ O_ 0.18009 0.970541 0.945696 -0.27028
O_ O_ 0.49034 0.889249 0.94186 -0.62334
O_ O_ 0.490757 0.935611 0.898803 -0.62334
O_ O_ 0.12933 0.860583 0.980393 -0.27028
O_ O_ 0.402872 0.847697 0.904193 -0.62334
O_ O_ 0.43973 0.833774 0.950457 -0.62334
O_ O_ 0.446857 0.684511 0.980672 -0.27028
O_ O_ 0.438037 0.98978 0.891804 -0.62334
O_ O_ 0.391598 0.99146 0.936856 -0.62334
O_ O_ 0.478786 0.631484 0.890028 -0.27028
O_ O_ 0.439733 0.941101 0.941493 -1.26018
O_ O_ 0.104453 0.587084 0.650995 -0.62334
O_ O_ 0.0461895 0.568976 0.664304 -0.62334
O_ O_ 0.0274487 0.549742 0.819239 -0.27028
O_ O_ 0.10964 0.566649 0.511068 -0.62334
O_ O_ 0.0621396 0.607296 0.512485 -0.62334
O_ O_ 0.13584 0.536244 0.865273 -0.27028
O_ O_ 0.154126 0.606149 0.590524 -0.62334
O_ O_ 0.16618 0.557475 0.557801 -0.62334
O_ O_ 0.315958 0.52605 0.551369 -0.27028
O_ O_ 0.0115833 0.610884 0.572025 -0.62334
O_ O_ 0.0100025 0.55755 0.603848 -0.62334
O_ O_ 0.370264 0.628785 0.518858 -0.27028
O_ O_ 0.0963973 0.653455 0.60064 -0.62334
O_ O_ 0.0615331 0.66566 0.555047 -0.62334
O_ O_ 0.0547181 0.819522 0.523051 -0.27028
O_ O_ 0.0638498 0.503035 0.611576 -0.62334
O_ O_ 0.111584 0.505424 0.568985 -0.62334
O_ O_ 0.0214373 0.863612 0.626409 -0.27028
O_ O_ 0.0588732 0.558956 0.558444 -1.26018
Zn Zn 0.925147 0.422843 0.397635 1.11547
Zn Zn 0.895888 0.43119 0.420453 1.11547
Zn Zn 0.927786 0.3959 0.425043 1.11547
Zn Zn 0.909266 0.40768 0.404845 1.11547
Zn Zn 0.571744 0.0781928 0.102494 1.11547
Zn Zn 0.602677 0.0755029 0.0750964 1.11547
Zn Zn 0.571485 0.106296 0.0751806 1.11547
Zn Zn 0.589955 0.0921828 0.0925565 1.11547
H_ H_ 0.971102 0.449704 0.262675 0.09385
H_ H_ 0.87238 0.376865 0.205006 0.09385
H_ H_ 0.870332 0.380733 0.277907 0.09385
H_ H_ 0.479397 -0.0029930000000000234 0.208971 0.09385
H_ H_ 0.985396 -0.010996000000000006 0.152203 0.09385
H_ H_ 0.450046 0.485993 0.139346 0.09385
H_ H_ 0.891124 0.470361 0.0572673 0.09385
H_ H_ 0.923265 0.351243 0.140214 0.09385
H_ H_ 0.927804 0.348467 0.0688647 0.09385
H_ H_ 0.840945 0.444864 0.154953 0.09385
H_ H_ 0.841061 0.486576 0.174988 0.09385
H_ H_ 0.832472 0.486734 0.123652 0.09385
H_ H_ 0.761353 0.477022 0.444469 0.09385
H_ H_ 0.70539 0.369198 0.386176 0.09385
H_ H_ 0.774902 0.373096 0.381721 0.09385
H_ H_ 0.651849 0.957338 0.999396462 0.09385
H_ H_ 0.659994 0.501751 0.995694 0.09385
H_ H_ 0.663541 -0.009244999999999948 0.502308 0.09385
H_ H_ 0.560638 0.379362 0.46515 0.09385
H_ H_ 0.637459 0.432944 0.352187 0.09385
H_ H_ 0.565389 0.431443 0.353437 0.09385
H_ H_ 0.658908 0.330405 0.501857 0.09385
H_ H_ 0.623199 0.326324 0.469121 0.09385
H_ H_ 0.673212 0.343475 0.455722 0.09385
H_ H_ 0.953678 0.266417 0.463247 0.09385
H_ H_ 0.887069 0.205474 0.362011 0.09385
H_ H_ 0.895127 0.276569 0.359213 0.09385
H_ H_ 0.502352 0.194116 0.961765 0.09385
H_ H_ 0.496134 0.181055 0.497231 0.09385
H_ H_ 0.00793509 0.171222 0.996779 0.09385
H_ H_ 0.968335 0.063313 0.376525 0.09385
H_ H_ 0.871018 0.139865 0.451709 0.09385
H_ H_ 0.86488 0.0670555 0.444398 0.09385
H_ H_ 0.966332 0.104355 0.315119 0.09385
H_ H_ 0.942907 0.152726 0.316197 0.09385
H_ H_ 0.990413 0.150726 0.307343 0.09385
H_ H_ 0.528772 0.0503095 0.237464 0.09385
H_ H_ 0.635969 0.107348 0.293167 0.09385
H_ H_ 0.638817 0.0951028 0.223995 0.09385
H_ H_ 0.0481013 0.498752 0.324303 0.09385
H_ H_ 0.527077 0.496211 0.300777 0.09385
H_ H_ 0.0348794 1.0114868 0.360948 0.09385
H_ H_ 0.617375 0.0306528 0.437754 0.09385
H_ H_ 0.551403 0.134969 0.359715 0.09385
H_ H_ 0.56005 0.144839 0.429222 0.09385
H_ H_ 0.674697 0.00203474 0.335356 0.09385
H_ H_ 0.677715 0.0167027 0.384548 0.09385
H_ H_ 0.66886 1.0503348 0.338265 0.09385
H_ H_ 0.739423 0.027401 0.0593876 0.09385
H_ H_ 0.79492 0.146 0.0974153 0.09385
H_ H_ 0.718525 0.143084 0.0928647 0.09385
H_ H_ 0.792215 0.528295 0.494636 0.09385
H_ H_ 0.803196 0.0378518 0.50098 0.09385
H_ H_ 0.79712 0.534982 -0.0027800000000000047 0.09385
H_ H_ 0.941831 0.119599 0.0271417 0.09385
H_ H_ 0.863136 0.0735315 0.13967 0.09385
H_ H_ 0.934052 0.0590622 0.136471 0.09385
H_ H_ 0.865601 0.190671 -0.00417500000000004 0.09385
H_ H_ 0.884928 0.181843 0.0403013 0.09385
H_ H_ 0.831049 0.177447 0.034951 0.09385
H_ H_ 0.563631 0.244896 0.0266174 0.09385
H_ H_ 0.611305 0.298908 0.140858 0.09385
H_ H_ 0.608083 0.226261 0.14024 0.09385
H_ H_ 1.00978271 0.28389 0.511065 0.09385
H_ H_ -0.0023260000000000502 0.352135 1.0310526 0.09385
H_ H_ 0.491977 0.320884 0.511372 0.09385
H_ H_ 0.528033 0.438682 0.114921 0.09385
H_ H_ 0.645838 0.370715 0.058966 0.09385
H_ H_ 0.643101 0.446775 0.0593988 0.09385
H_ H_ 0.555291 0.349659 0.164925 0.09385
H_ H_ 0.503211 0.343741 0.169081 0.09385
H_ H_ 0.523264 0.388618 0.171371 0.09385
C_ C_ 0.919174 0.416671 0.324039 0.72919
C_ C_ 0.921457 0.413642 0.277731 -0.06135
C_ C_ 0.948363 0.432902 0.251455 -0.13457
C_ C_ 0.945558 0.435755 0.20883 0.22841
C_ C_ 0.917886 0.414909 0.190692 -0.06135
C_ C_ 0.891062 0.396794 0.217666 -0.13457
C_ C_ 0.891453 0.397615 0.259554 -0.13457
C_ C_ 0.972291 0.487759 0.172083 -0.01092
C_ C_ 0.913421 0.412216 0.00685339 0.72919
C_ C_ 0.910008 0.41147 0.0550967 -0.06135
C_ C_ 0.901227 0.445714 0.0761657 -0.13457
C_ C_ 0.904819 0.447046 0.118177 0.22841
C_ C_ 0.915546 0.413257 0.143094 -0.06135
C_ C_ 0.92179 0.37805 0.123658 -0.13457
C_ C_ 0.923223 0.377401 0.080477 -0.13457
C_ C_ 0.849156 0.473878 0.148538 -0.01092
C_ C_ 0.824507 0.426104 0.41546 0.72919
C_ C_ 0.776571 0.425291 0.415323 -0.06135
C_ C_ 0.749621 0.45403 0.431026 -0.13457
C_ C_ 0.707291 0.449199 0.43421 0.22841
C_ C_ 0.688719 0.421093 0.414768 -0.06135
C_ C_ 0.715338 0.392856 0.399753 -0.13457
C_ C_ 0.757794 0.395827 0.39894 -0.13457
C_ C_ 0.671957 0.468709 0.486285 -0.01092
C_ C_ 0.506667 0.41075 0.409066 0.72919
C_ C_ 0.55354 0.414101 0.411649 -0.06135
C_ C_ 0.576646 0.395156 0.441962 -0.13457
C_ C_ 0.617761 0.399256 0.445856 0.22841
C_ C_ 0.642046 0.418124 0.414667 -0.06135
C_ C_ 0.622787 0.428939 0.380434 -0.13457
C_ C_ 0.58051 0.428505 0.380347 -0.13457
C_ C_ 0.648031 0.34384 0.476523 -0.01092
C_ C_ 0.924001 0.325127 0.413623 0.72919
C_ C_ 0.92426 0.279776 0.411435 -0.06135
C_ C_ 0.939131 0.253253 0.44187 -0.13457
C_ C_ 0.938676 0.21151 0.441931 0.22841
C_ C_ 0.922627 0.192107 0.412619 -0.06135
C_ C_ 0.904958 0.217923 0.383623 -0.13457
C_ C_ 0.910487 0.259667 0.382382 -0.13457
C_ C_ 0.992217 0.180709 0.468325 -0.01092
C_ C_ 0.913872 0.00901906 0.412019 0.72919
C_ C_ 0.918548 0.0568294 0.414231 -0.06135
C_ C_ 0.946175 0.0792971 0.391065 -0.13457
C_ C_ 0.94976 0.121084 0.390748 0.22841
C_ C_ 0.922783 0.145399 0.412632 -0.06135
C_ C_ 0.894097 0.123438 0.434385 -0.13457
C_ C_ 0.890901 0.082398 0.430973 -0.13457
C_ C_ 0.968559 0.135288 0.324152 -0.01092
C_ C_ 0.580818 0.072732 0.174262 0.72919
C_ C_ 0.581657 0.0774223 0.221058 -0.06135
C_ C_ 0.552443 0.0607516 0.249359 -0.13457
C_ C_ 0.551095 0.0623842 0.291813 0.22841
C_ C_ 0.582082 0.0793361 0.31059 -0.06135
C_ C_ 0.612828 0.092897 0.282516 -0.13457
C_ C_ 0.614335 0.0879621 0.240894 -0.13457
C_ C_ 0.522068 0.0130322 0.327636 -0.01092
C_ C_ 0.588839 0.0861869 0.489421 0.72919
C_ C_ 0.587584 0.086953 0.442726 -0.06135
C_ C_ 0.602197 0.0538043 0.421631 -0.13457
C_ C_ 0.603785 0.0528775 0.378981 0.22841
C_ C_ 0.581835 0.0809709 0.355474 -0.06135
C_ C_ 0.566577 0.113209 0.376119 -0.13457
C_ C_ 0.569278 0.116909 0.418168 -0.13457
C_ C_ 0.662402 0.0224607 0.355465 -0.01092
C_ C_ 0.673837 0.0833701 0.0758251 0.72919
C_ C_ 0.721177 0.0851013 0.0763059 -0.06135
C_ C_ 0.749983 0.0546799 0.0656594 -0.13457
C_ C_ 0.792224 0.057692 0.0694168 0.22841
C_ C_ 0.810872 0.0898176 0.0800445 -0.06135
C_ C_ 0.782457 0.120072 0.0906914 -0.13457
C_ C_ 0.739878 0.117432 0.0886749 -0.13457
C_ C_ 0.830203 0.0310546 0.0194608 -0.01092
C_ C_ 0.992066 0.0887416 0.083915 0.72919
C_ C_ 0.945019 0.0902929 0.0818147 -0.06135
C_ C_ 0.924761 0.109916 0.0510451 -0.13457
C_ C_ 0.882389 0.110271 0.0483312 0.22841
C_ C_ 0.857558 0.0927301 0.0793106 -0.06135
C_ C_ 0.879965 0.0776014 0.111265 -0.13457
C_ C_ 0.921149 0.07433 0.112203 -0.13457
C_ C_ 0.862313 0.171394 0.0215385 -0.01092
C_ C_ 0.583057 0.177721 0.0823252 0.72919
C_ C_ 0.585011 0.224885 0.0834952 -0.06135
C_ C_ 0.570568 0.252241 0.0547727 -0.13457
C_ C_ 0.570407 0.294767 0.0569208 0.22841
C_ C_ 0.587644 0.314952 0.0855448 -0.06135
C_ C_ 0.601339 0.286708 0.114835 -0.13457
C_ C_ 0.598679 0.244467 0.114818 -0.13457
C_ C_ 0.519065 0.325922 0.0270836 -0.01092
C_ C_ 0.588162 0.498528 0.0918408 0.72919
C_ C_ 0.586299 0.450948 0.0887456 -0.06135
C_ C_ 0.556994 0.426441 0.106157 -0.13457
C_ C_ 0.557935 0.384795 0.102657 0.22841
C_ C_ 0.589211 0.361863 0.0852323 -0.06135
C_ C_ 0.619738 0.386124 0.0690221 -0.13457
C_ C_ 0.61938 0.429371 0.0703902 -0.13457
C_ C_ 0.527875 0.361473 0.158566 -0.01092
O_ O_ 0.891818 0.407688 0.347816 -0.62334
O_ O_ 0.94776 0.428171 0.341901 -0.62334
O_ O_ 0.977608 0.449521 0.186265 -0.27028
O_ O_ 0.895244 0.438879 0.479297 -0.62334
O_ O_ 0.927998 0.384298 0.484275 -0.62334
O_ O_ 0.888493 0.479634 0.136752 -0.27028
O_ O_ 0.848334 0.400687 0.399846 -0.62334
O_ O_ 0.841881 0.449256 0.434471 -0.62334
O_ O_ 0.685049 0.480171 0.449179 -0.27028
O_ O_ 0.985784 0.389778 0.437341 -0.62334
O_ O_ 0.982525 0.42879 0.387793 -0.62334
O_ O_ 0.634585 0.382399 0.479924 -0.27028
O_ O_ 0.909013 0.350246 0.389823 -0.62334
O_ O_ 0.935072 0.341374 0.443423 -0.62334
O_ O_ 0.951666 0.19044 0.474125 -0.27028
O_ O_ 0.938235 0.480635 0.393308 -0.62334
O_ O_ 0.879917 0.486212 0.413254 -0.62334
O_ O_ 0.975916 0.138368 0.36311 -0.27028
O_ O_ 0.942106 0.445461 0.437603 -1.26018
O_ O_ 0.606834 0.0857464 0.149593 -0.62334
O_ O_ 0.550449 0.0687191 0.157645 -0.62334
O_ O_ 0.518992 0.0523639 0.314269 -0.27028
O_ O_ 0.606951 0.0675376 0.0172654 -0.62334
O_ O_ 0.571616 0.117512 0.0146192 -0.62334
O_ O_ 0.622116 0.0199775 0.360936 -0.27028
O_ O_ 0.649336 0.0993459 0.0997743 -0.62334
O_ O_ 0.658204 0.0600604 0.0560673 -0.62334
O_ O_ 0.816981 0.0278162 0.0579446 -0.27028
O_ O_ 0.513917 0.114749 0.0623978 -0.62334
O_ O_ 0.514017 0.0712491 0.110328 -0.62334
O_ O_ 0.866915 0.130169 0.0168614 -0.27028
O_ O_ 0.592778 0.152029 0.109089 -0.62334
O_ O_ 0.570062 0.162197 0.0537058 -0.62334
O_ O_ 0.560513 0.317784 0.0242949 -0.27028
O_ O_ 0.55899 0.0208356 0.103919 -0.62334
O_ O_ 0.615577 0.0189885 0.078997 -0.62334
O_ O_ 0.524904 0.366097 0.118757 -0.27028
O_ O_ 0.556356 0.0609732 0.0561494 -1.26018
Zn Zn 0.928947 0.426647 0.887237 1.11547
Zn Zn 0.89409 0.428797 0.925634 1.11547
Zn Zn 0.928674 0.38939 0.929375 1.11547
Zn Zn 0.904584 0.404488 0.901907 1.11547
Zn Zn 0.562966 0.07239 0.608994 1.11547
Zn Zn 0.61193 0.0757794 0.565182 1.11547
Zn Zn 0.566921 0.108619 0.570221 1.11547
Zn Zn 0.59774 0.0949064 0.592932 1.11547
H_ H_ 0.97418 0.434117 0.755328 0.09385
H_ H_ 0.865393 0.38377 0.695645 0.09385
H_ H_ 0.864039 0.387423 0.768737 0.09385
H_ H_ 0.459623 0.980341 0.642468 0.09385
H_ H_ 0.95169 0.989407 0.659027 0.09385
H_ H_ 0.458486 0.493115 0.640838 0.09385
H_ H_ 0.900269 0.473968 0.553239 0.09385
H_ H_ 0.922552 0.349124 0.631827 0.09385
H_ H_ 0.927937 0.349645 0.560176 0.09385
H_ H_ 0.829361 0.463206 0.610685 0.09385
H_ H_ 0.837221 0.454471 0.663557 0.09385
H_ H_ 0.830789 0.50222 0.64029 0.09385
H_ H_ 0.758038 0.467282 0.95189 0.09385
H_ H_ 0.702148 0.362865 0.888465 0.09385
H_ H_ 0.771267 0.365335 0.88743 0.09385
H_ H_ 0.637802 0.958329 0.482846 0.09385
H_ H_ 0.687472 0.442316 0.498528 0.09385
H_ H_ 0.671298 0.00457632 1.00076 0.09385
H_ H_ 0.554665 0.386539 0.964653 0.09385
H_ H_ 0.632201 0.443459 0.852791 0.09385
H_ H_ 0.560532 0.447626 0.855799 0.09385
H_ H_ 0.643128 0.327639 0.9970487 0.09385
H_ H_ 0.615761 0.329628 0.956942 0.09385
H_ H_ 0.668226 0.336151 0.952713 0.09385
H_ H_ 0.959595 0.254598 0.966697 0.09385
H_ H_ 0.890135 0.19608 0.865838 0.09385
H_ H_ 0.885223 0.268201 0.870638 0.09385
H_ H_ 0.497675 0.17601 0.445254 0.09385
H_ H_ 0.487467 0.184557 0.0136265 0.09385
H_ H_ 0.997685 0.164382 0.441918 0.09385
H_ H_ 0.968373 0.0588358 0.881179 0.09385
H_ H_ 0.85581 0.133251 0.941828 0.09385
H_ H_ 0.856173 0.0609564 0.942501 0.09385
H_ H_ 0.000339964 0.168231 0.84183 0.09385
H_ H_ 0.983662 0.119574 0.829586 0.09385
H_ H_ 0.950805 0.161223 0.840467 0.09385
H_ H_ 0.538079 0.0364821 0.741996 0.09385
H_ H_ 0.618494 0.125846 0.799482 0.09385
H_ H_ 0.617905 0.126946 0.726446 0.09385
H_ H_ 0.0608234 0.4943 0.8115 0.09385
H_ H_ 0.545123 0.514635 0.853608 0.09385
H_ H_ 0.0514064 0.00463259 0.827254 0.09385
H_ H_ 0.594446 0.0269144 0.948392 0.09385
H_ H_ 0.574512 0.145915 0.863034 0.09385
H_ H_ 0.565368 0.147244 0.936824 0.09385
H_ H_ 0.656984 0.0421972 0.84012 0.09385
H_ H_ 0.660783 -0.007125000000000048 0.853514 0.09385
H_ H_ 0.660896 0.0241505 0.892029 0.09385
H_ H_ 0.744787 0.0318725 0.554413 0.09385
H_ H_ 0.798773 0.146024 0.606708 0.09385
H_ H_ 0.727693 0.141488 0.599524 0.09385
H_ H_ 0.832515 0.494611 0.0111485 0.09385
H_ H_ 0.813523 1.0113861 0.0017300000000000093 0.09385
H_ H_ 0.838959 0.547251 0.497473 0.09385
H_ H_ 0.940917 0.124282 0.532255 0.09385
H_ H_ 0.870115 0.0629746 0.645732 0.09385
H_ H_ 0.940268 0.0586756 0.640805 0.09385
H_ H_ 0.86736 0.195461 0.519118 0.09385
H_ H_ 0.880567 0.178966 0.566471 0.09385
H_ H_ 0.831804 0.181973 0.553826 0.09385
H_ H_ 0.549348 0.242109 0.532588 0.09385
H_ H_ 0.62358 0.299287 0.625261 0.09385
H_ H_ 0.622749 0.228153 0.625697 0.09385
H_ H_ 1.00125209 0.321529 -0.0067829999999999835 0.09385
H_ H_ 0.0150096 0.329033 0.485489 0.09385
H_ H_ 0.511262 0.349636 1.0471831 0.09385
H_ H_ 0.525776 0.440768 0.609271 0.09385
H_ H_ 0.647944 0.369904 0.56197 0.09385
H_ H_ 0.645824 0.442269 0.563933 0.09385
H_ H_ 0.556042 0.342271 0.658068 0.09385
H_ H_ 0.511992 0.32355 0.650206 0.09385
H_ H_ 0.509193 0.366967 0.670986 0.09385
C_ C_ 0.920384 0.416483 0.816451 0.72919
C_ C_ 0.919131 0.412548 0.770306 -0.06135
C_ C_ 0.948405 0.427863 0.74296 -0.13457
C_ C_ 0.949299 0.425624 0.700163 0.22841
C_ C_ 0.916996 0.411257 0.681371 -0.06135
C_ C_ 0.887558 0.398919 0.708976 -0.13457
C_ C_ 0.887236 0.39932 0.751705 -0.13457
C_ C_ 0.986388 0.470775 0.664255 -0.01092
C_ C_ 0.914076 0.414222 0.501215 0.72919
C_ C_ 0.912321 0.413838 0.54857 -0.06135
C_ C_ 0.904926 0.446132 0.570488 -0.13457
C_ C_ 0.901408 0.444988 0.611409 0.22841
C_ C_ 0.914043 0.411098 0.635635 -0.06135
C_ C_ 0.919354 0.376967 0.616419 -0.13457
C_ C_ 0.919971 0.377288 0.574037 -0.13457
C_ C_ 0.844001 0.474286 0.637108 -0.01092
C_ C_ 0.821263 0.421323 0.921387 0.72919
C_ C_ 0.774647 0.4183 0.920476 -0.06135
C_ C_ 0.748181 0.443685 0.938406 -0.13457
C_ C_ 0.706293 0.445842 0.932926 0.22841
C_ C_ 0.686596 0.418448 0.915144 -0.06135
C_ C_ 0.713078 0.38941 0.898476 -0.13457
C_ C_ 0.755505 0.389623 0.900583 -0.13457
C_ C_ 0.666148 0.472618 0.983533 -0.01092
C_ C_ 0.502076 0.416169 0.910056 0.72919
C_ C_ 0.549639 0.41893 0.911533 -0.06135
C_ C_ 0.571629 0.402193 0.942952 -0.13457
C_ C_ 0.615338 0.399699 0.941983 0.22841
C_ C_ 0.639958 0.419658 0.913076 -0.06135
C_ C_ 0.61738 0.435743 0.880336 -0.13457
C_ C_ 0.574909 0.436906 0.880242 -0.13457
C_ C_ 0.639906 0.341542 0.969021 -0.01092
C_ C_ 0.924478 0.31816 0.917809 0.72919
C_ C_ 0.921228 0.27082 0.918826 -0.06135
C_ C_ 0.938554 0.244677 0.948334 -0.13457
C_ C_ 0.937054 0.202801 0.947799 0.22841
C_ C_ 0.91822 0.183614 0.918059 -0.06135
C_ C_ 0.901886 0.20853 0.88924 -0.13457
C_ C_ 0.902519 0.250396 0.890618 -0.13457
C_ C_ 0.992759 0.170977 0.968614 -0.01092
C_ C_ 0.912453 0.00301433 0.913436 0.72919
C_ C_ 0.912236 0.0497424 0.91501 -0.06135
C_ C_ 0.945094 0.0719042 0.899924 -0.13457
C_ C_ 0.946978 0.114008 0.90097 0.22841
C_ C_ 0.91619 0.13777 0.918686 -0.06135
C_ C_ 0.882605 0.11746 0.932768 -0.13457
C_ C_ 0.880691 0.0741936 0.932447 -0.13457
C_ C_ 0.978593 0.145475 0.847371 -0.01092
C_ C_ 0.57862 0.0762494 0.680012 0.72919
C_ C_ 0.58202 0.0780405 0.727313 -0.06135
C_ C_ 0.558312 0.0538296 0.754495 -0.13457
C_ C_ 0.55746 0.0557222 0.79623 0.22841
C_ C_ 0.579018 0.0815833 0.815351 -0.06135
C_ C_ 0.601595 0.105003 0.787404 -0.13457
C_ C_ 0.600717 0.106224 0.745049 -0.13457
C_ C_ 0.530255 0.00152233 0.828245 -0.01092
C_ C_ 0.586112 0.0901554 0.99542 0.72919
C_ C_ 0.584477 0.0882667 0.949456 -0.06135
C_ C_ 0.592148 0.0536209 0.930609 -0.13457
C_ C_ 0.589653 0.0512006 0.8886 0.22841
C_ C_ 0.579609 0.0839769 0.861941 -0.06135
C_ C_ 0.574642 0.119131 0.881237 -0.13457
C_ C_ 0.573405 0.120281 0.923275 -0.13457
C_ C_ 0.647663 0.0204608 0.864709 -0.01092
C_ C_ 0.68132 0.0853854 0.574954 0.72919
C_ C_ 0.727556 0.0845533 0.58069 -0.06135
C_ C_ 0.755499 0.05527 0.569971 -0.13457
C_ C_ 0.798416 0.058647 0.569747 0.22841
C_ C_ 0.815972 0.0908806 0.584842 -0.06135
C_ C_ 0.78731 0.120429 0.59613 -0.13457
C_ C_ 0.746179 0.118288 0.592907 -0.13457
C_ C_ 0.829774 0.0317657 0.518126 -0.01092
C_ C_ 0.996551 0.0909821 0.585204 0.72919
C_ C_ 0.950422 0.0891602 0.584234 -0.06135
C_ C_ 0.927445 0.106247 0.554718 -0.13457
C_ C_ 0.885449 0.110059 0.556111 0.22841
C_ C_ 0.861766 0.0903504 0.586465 -0.06135
C_ C_ 0.884008 0.0721761 0.618008 -0.13457
C_ C_ 0.926135 0.0712572 0.615849 -0.13457
C_ C_ 0.861376 0.17339 0.543057 -0.01092
C_ C_ 0.581149 0.178675 0.578716 0.72919
C_ C_ 0.582632 0.227681 0.579739 -0.06135
C_ C_ 0.564175 0.254058 0.553067 -0.13457
C_ C_ 0.566681 0.295657 0.551445 0.22841
C_ C_ 0.585766 0.315294 0.578633 -0.06135
C_ C_ 0.609117 0.287085 0.603911 -0.13457
C_ C_ 0.607404 0.245587 0.605085 -0.13457
C_ C_ 0.511311 0.332968 0.532082 -0.01092
C_ C_ 0.584602 0.497784 0.585445 0.72919
C_ C_ 0.586262 0.450974 0.586151 -0.06135
C_ C_ 0.552478 0.42867 0.596049 -0.13457
C_ C_ 0.554592 0.385795 0.596019 0.22841
C_ C_ 0.58695 0.362321 0.579751 -0.06135
C_ C_ 0.620718 0.38523 0.571601 -0.13457
C_ C_ 0.618488 0.427433 0.57228 -0.13457
C_ C_ 0.527319 0.351614 0.649615 -0.01092
O_ O_ 0.904655 0.394584 0.843335 -0.62334
O_ O_ 0.938634 0.442623 0.830417 -0.62334
O_ O_ 0.983634 0.432179 0.677804 -0.27028
O_ O_ 0.898812 0.438652 0.983669 -0.62334
O_ O_ 0.925567 0.38183 0.988873 -0.62334
O_ O_ 0.885223 0.47636 0.630101 -0.27028
O_ O_ 0.845001 0.400626 0.900339 -0.62334
O_ O_ 0.838485 0.435056 0.948195 -0.62334
O_ O_ 0.685773 0.479616 0.946169 -0.27028
O_ O_ 0.989003 0.388389 0.935387 -0.62334
O_ O_ 0.988774 0.424604 0.882782 -0.62334
O_ O_ 0.634119 0.381274 0.972667 -0.27028
O_ O_ 0.902702 0.342815 0.899791 -0.62334
O_ O_ 0.94366 0.331767 0.943007 -0.62334
O_ O_ 0.953871 0.18102 0.976853 -0.27028
O_ O_ 0.938674 0.484017 0.889433 -0.62334
O_ O_ 0.884716 0.489149 0.923572 -0.62334
O_ O_ 0.979979 0.130841 0.88658 -0.27028
O_ O_ 0.942327 0.438809 0.935836 -1.26018
O_ O_ 0.600332 0.0935733 0.654381 -0.62334
O_ O_ 0.55131 0.0591678 0.667015 -0.62334
O_ O_ 0.524811 0.0421526 0.816177 -0.27028
O_ O_ 0.617186 0.0678391 0.506665 -0.62334
O_ O_ 0.567302 0.106472 0.512396 -0.62334
O_ O_ 0.606807 0.0182472 0.871668 -0.27028
O_ O_ 0.656217 0.108227 0.591196 -0.62334
O_ O_ 0.667455 0.0601521 0.557235 -0.62334
O_ O_ 0.819813 0.0268735 0.557846 -0.27028
O_ O_ 0.508065 0.102137 0.559449 -0.62334
O_ O_ 0.504061 0.0712179 0.61517 -0.62334
O_ O_ 0.865733 0.135573 0.529952 -0.27028
O_ O_ 0.595961 0.154169 0.602549 -0.62334
O_ O_ 0.563668 0.163991 0.553594 -0.62334
O_ O_ 0.550081 0.318744 0.521975 -0.27028
O_ O_ 0.566551 0.0138977 0.609591 -0.62334
O_ O_ 0.616785 0.0161878 0.571418 -0.62334
O_ O_ 0.522269 0.36532 0.610882 -0.27028
O_ O_ 0.564825 0.0598376 0.559314 -1.26018
Zn Zn 0.935345 0.92873 0.38997 1.11547
Zn Zn 0.884499 0.932404 0.434158 1.11547
Zn Zn 0.936476 0.891652 0.430069 1.11547
Zn Zn 0.903511 0.910888 0.404824 1.11547
Zn Zn 0.568509 0.577054 0.110251 1.11547
Zn Zn 0.606047 0.57922 0.068514 1.11547
Zn Zn 0.572558 0.611392 0.0687979 1.11547
Zn Zn 0.594711 0.595823 0.0956056 1.11547
H_ H_ 0.974722 0.93765 0.261496 0.09385
H_ H_ 0.865231 0.887603 0.197729 0.09385
H_ H_ 0.86078 0.90163 0.270147 0.09385
H_ H_ 0.451702 0.505554 0.187711 0.09385
H_ H_ 0.999839518 0.502287 0.162407 0.09385
H_ H_ 0.439513 0.994241 0.176858 0.09385
H_ H_ 0.912591 0.978961 0.0575332 0.09385
H_ H_ 0.917732 0.851078 0.133947 0.09385
H_ H_ 0.919903 0.853297 0.0604896 0.09385
H_ H_ 0.847057 0.99668 0.112863 0.09385
H_ H_ 0.844286 0.950431 0.144027 0.09385
H_ H_ 0.848368 0.999311521 0.160554 0.09385
H_ H_ 0.754396 0.974839 0.436234 0.09385
H_ H_ 0.703422 0.855125 0.397946 0.09385
H_ H_ 0.772899 0.861458 0.391601 0.09385
H_ H_ 0.684539 0.45461 0.00378956 0.09385
H_ H_ 0.699639 0.965785 0.0123628 0.09385
H_ H_ 0.671636 0.492685 0.503687 0.09385
H_ H_ 0.552267 0.89418 0.473412 0.09385
H_ H_ 0.63312 0.91761 0.350538 0.09385
H_ H_ 0.559558 0.920778 0.34882 0.09385
H_ H_ 0.609149 0.828296 0.45098 0.09385
H_ H_ 0.661709 0.833399 0.452929 0.09385
H_ H_ 0.632393 0.819359 0.495379 0.09385
H_ H_ 0.946143 0.75555 0.472142 0.09385
H_ H_ 0.896757 0.703614 0.358989 0.09385
H_ H_ 0.894015 0.777325 0.363151 0.09385
H_ H_ 0.507277 0.681593 0.956087 0.09385
H_ H_ 0.504665 0.692622 0.450175 0.09385
H_ H_ 0.991389 0.677333 1.00681725 0.09385
H_ H_ 0.9743 0.554332 0.391945 0.09385
H_ H_ 0.862741 0.63623 0.431478 0.09385
H_ H_ 0.859104 0.566306 0.433605 0.09385
H_ H_ 0.951712 0.661726 0.335225 0.09385
H_ H_ 1.00132272 0.657182 0.328231 0.09385
H_ H_ 0.977097 0.617756 0.317805 0.09385
H_ H_ 0.525315 0.561032 0.242978 0.09385
H_ H_ 0.640443 0.612606 0.295329 0.09385
H_ H_ 0.633845 0.614652 0.227168 0.09385
H_ H_ 0.0555714 0.994683 0.316141 0.09385
H_ H_ 0.493409 1.00639562 0.342254 0.09385
H_ H_ 0.0161994 0.515284 0.361476 0.09385
H_ H_ 0.614414 0.528432 0.44329 0.09385
H_ H_ 0.561525 0.64178 0.368269 0.09385
H_ H_ 0.567373 0.645552 0.435138 0.09385
H_ H_ 0.676211 0.550812 0.346818 0.09385
H_ H_ 0.676678 0.497911 0.351558 0.09385
H_ H_ 0.677608 0.522739 0.39339 0.09385
H_ H_ 0.73291 0.535911 0.0480317 0.09385
H_ H_ 0.793229 0.633639 0.123294 0.09385
H_ H_ 0.724643 0.638743 0.109797 0.09385
H_ H_ 0.846432 0.057261 0.511794 0.09385
H_ H_ 0.833739 0.495959 0.503796 0.09385
H_ H_ 0.857807 0.0155467 0.0184837 0.09385
H_ H_ 0.938439 0.616758 0.0374881 0.09385
H_ H_ 0.861635 0.561751 0.147956 0.09385
H_ H_ 0.933144 0.558142 0.150038 0.09385
H_ H_ 0.877486 0.675806 0.0447996 0.09385
H_ H_ 0.826021 0.664373 0.0385548 0.09385
H_ H_ 0.858974 0.675401 0.99854 0.09385
H_ H_ 0.554888 0.749209 0.0334204 0.09385
H_ H_ 0.626916 0.798781 0.135466 0.09385
H_ H_ 0.616424 0.726753 0.137001 0.09385
H_ H_ 0.00589034 0.842926 0.499563 0.09385
H_ H_ 0.988231 0.796561 0.0402541 0.09385
H_ H_ 0.500855 0.798354 0.51392 0.09385
H_ H_ 0.528721 0.945955 0.115784 0.09385
H_ H_ 0.64035 0.870883 0.0543965 0.09385
H_ H_ 0.647401 0.942148 0.0657114 0.09385
H_ H_ 0.536349 0.890323 0.177764 0.09385
H_ H_ 0.554066 0.841666 0.173172 0.09385
H_ H_ 0.504232 0.85492 0.184483 0.09385
C_ C_ 0.919245 0.922551 0.319898 0.72919
C_ C_ 0.919072 0.918512 0.271743 -0.06135
C_ C_ 0.952467 0.926168 0.246414 -0.13457
C_ C_ 0.951994 0.926953 0.20379 0.22841
C_ C_ 0.920073 0.912702 0.184334 -0.06135
C_ C_ 0.889444 0.899289 0.210106 -0.13457
C_ C_ 0.888902 0.902755 0.252967 -0.13457
C_ C_ 0.996244 0.972573 0.179136 -0.01092
C_ C_ 0.915799 0.915725 0.00433062 0.72919
C_ C_ 0.918786 0.915436 0.0510414 -0.06135
C_ C_ 0.915738 0.950509 0.0729051 -0.13457
C_ C_ 0.913369 0.948737 0.115494 0.22841
C_ C_ 0.918576 0.913458 0.138731 -0.06135
C_ C_ 0.919324 0.878474 0.117581 -0.13457
C_ C_ 0.922178 0.87963 0.076041 -0.13457
C_ C_ 0.856392 0.980725 0.13786 -0.01092
C_ C_ 0.818173 0.922636 0.421219 0.72919
C_ C_ 0.772102 0.918247 0.415344 -0.06135
C_ C_ 0.744933 0.947426 0.430888 -0.13457
C_ C_ 0.703489 0.945241 0.430007 0.22841
C_ C_ 0.684649 0.914472 0.412955 -0.06135
C_ C_ 0.713423 0.882543 0.402727 -0.13457
C_ C_ 0.754242 0.885806 0.400286 -0.13457
C_ C_ 0.66764 0.966291 0.483303 -0.01092
C_ C_ 0.504177 0.913821 0.412663 0.72919
C_ C_ 0.550108 0.912039 0.41041 -0.06135
C_ C_ 0.570787 0.903508 0.446029 -0.13457
C_ C_ 0.613404 0.898832 0.445864 0.22841
C_ C_ 0.637869 0.911647 0.412902 -0.06135
C_ C_ 0.616243 0.916125 0.377619 -0.13457
C_ C_ 0.574885 0.918341 0.376459 -0.13457
C_ C_ 0.633311 0.838741 0.468329 -0.01092
C_ C_ 0.917647 0.822589 0.423321 0.72919
C_ C_ 0.917125 0.775722 0.419274 -0.06135
C_ C_ 0.932705 0.74555 0.44782 -0.13457
C_ C_ 0.933466 0.704675 0.444175 0.22841
C_ C_ 0.919005 0.686916 0.412924 -0.06135
C_ C_ 0.908104 0.717063 0.382774 -0.13457
C_ C_ 0.90602 0.758477 0.385588 -0.13457
C_ C_ 0.97889 0.666312 0.477781 -0.01092
C_ C_ 0.910132 0.504093 0.405785 0.72919
C_ C_ 0.913612 0.550873 0.409544 -0.06135
C_ C_ 0.948463 0.571678 0.395287 -0.13457
C_ C_ 0.952677 0.61315 0.395354 0.22841
C_ C_ 0.919915 0.639733 0.408522 -0.06135
C_ C_ 0.888729 0.619476 0.424308 -0.13457
C_ C_ 0.884295 0.577586 0.421396 -0.13457
C_ C_ 0.976696 0.640301 0.338748 -0.01092
C_ C_ 0.58086 0.58273 0.179377 0.72919
C_ C_ 0.584677 0.5822 0.226369 -0.06135
C_ C_ 0.5527 0.571918 0.254265 -0.13457
C_ C_ 0.555788 0.569176 0.296564 0.22841
C_ C_ 0.587689 0.583798 0.314497 -0.06135
C_ C_ 0.618245 0.595132 0.285674 -0.13457
C_ C_ 0.615311 0.597088 0.244497 -0.13457
C_ C_ 0.523258 0.514462 0.326473 -0.01092
C_ C_ 0.5892 0.589205 0.495304 0.72919
C_ C_ 0.590313 0.586461 0.449183 -0.06135
C_ C_ 0.60279 0.552491 0.427226 -0.13457
C_ C_ 0.605363 0.552064 0.384606 0.22841
C_ C_ 0.587301 0.583355 0.360991 -0.06135
C_ C_ 0.572345 0.614699 0.383734 -0.13457
C_ C_ 0.580019 0.617448 0.422892 -0.13457
C_ C_ 0.666556 0.524758 0.365598 -0.01092
C_ C_ 0.674521 0.583077 0.0896406 0.72919
C_ C_ 0.721436 0.583879 0.0875355 -0.06135
C_ C_ 0.74678 0.554756 0.0682109 -0.13457
C_ C_ 0.788777 0.556016 0.0690272 0.22841
C_ C_ 0.808192 0.58418 0.0861618 -0.06135
C_ C_ 0.782575 0.61254 0.103758 -0.13457
C_ C_ 0.742255 0.614999 0.100709 -0.13457
C_ C_ 0.821718 0.524743 0.0168957 -0.01092
C_ C_ 0.99281 0.584717 0.0924057 0.72919
C_ C_ 0.946583 0.585413 0.0925882 -0.06135
C_ C_ 0.924114 0.602753 0.0624533 -0.13457
C_ C_ 0.881323 0.603039 0.0598515 0.22841
C_ C_ 0.855477 0.58441 0.0881285 -0.06135
C_ C_ 0.876395 0.573864 0.122983 -0.13457
C_ C_ 0.919494 0.571485 0.12401 -0.13457
C_ C_ 0.856185 0.660785 0.0289448 -0.01092
C_ C_ 0.581271 0.681684 0.0849294 0.72919
C_ C_ 0.586495 0.727788 0.0843022 -0.06135
C_ C_ 0.569705 0.757473 0.0557283 -0.13457
C_ C_ 0.573026 0.800584 0.0572778 0.22841
C_ C_ 0.588711 0.818159 0.0887766 -0.06135
C_ C_ 0.607989 0.78817 0.114195 -0.13457
C_ C_ 0.604357 0.745966 0.113799 -0.13457
C_ C_ 0.525755 0.835252 0.024954 -0.01092
C_ C_ 0.586244 0.999391 0.0902511 0.72919
C_ C_ 0.586705 0.952477 0.0916565 -0.06135
C_ C_ 0.554928 0.9307 0.104529 -0.13457
C_ C_ 0.556914 0.887916 0.108742 0.22841
C_ C_ 0.587505 0.864831 0.090333 -0.06135
C_ C_ 0.616998 0.886514 0.0722102 -0.13457
C_ C_ 0.619228 0.928509 0.0761961 -0.13457
C_ C_ 0.530737 0.863223 0.166136 -0.01092
O_ O_ 0.894017 0.908079 0.34482 -0.62334
O_ O_ 0.946884 0.937851 0.334004 -0.62334
O_ O_ 0.986542 0.933246 0.184327 -0.27028
O_ O_ 0.888327 0.942272 0.489726 -0.62334
O_ O_ 0.933522 0.899302 0.48611 -0.62334
O_ O_ 0.897258 0.979559 0.134648 -0.27028
O_ O_ 0.843727 0.896351 0.412698 -0.62334
O_ O_ 0.830095 0.953982 0.430828 -0.62334
O_ O_ 0.682316 0.976209 0.44425 -0.27028
O_ O_ 0.989923 0.894958 0.440126 -0.62334
O_ O_ 0.99383 0.929546 0.384942 -0.62334
O_ O_ 0.631204 0.877031 0.475802 -0.27028
O_ O_ 0.9095 0.849975 0.397257 -0.62334
O_ O_ 0.930472 0.836475 0.453378 -0.62334
O_ O_ 0.941935 0.682057 0.4781 -0.27028
O_ O_ 0.936155 0.986893 0.390513 -0.62334
O_ O_ 0.889395 0.99065 0.435644 -0.62334
O_ O_ 0.985112 0.628405 0.377178 -0.27028
O_ O_ 0.933469 0.9434 0.439546 -1.26018
O_ O_ 0.605726 0.595714 0.152349 -0.62334
O_ O_ 0.552931 0.567621 0.166226 -0.62334
O_ O_ 0.524901 0.554677 0.320403 -0.27028
O_ O_ 0.608995 0.566882 0.0113997 -0.62334
O_ O_ 0.571002 0.615978 0.00874662 -0.62334
O_ O_ 0.626233 0.521551 0.36643 -0.27028
O_ O_ 0.651101 0.611322 0.0951416 -0.62334
O_ O_ 0.656821 0.555633 0.0798524 -0.62334
O_ O_ 0.809985 0.523817 0.0567691 -0.27028
O_ O_ 0.513106 0.609393 0.0624206 -0.62334
O_ O_ 0.509257 0.574423 0.114541 -0.62334
O_ O_ 0.864685 0.620713 0.0266286 -0.27028
O_ O_ 0.603833 0.654159 0.0985137 -0.62334
O_ O_ 0.554596 0.669073 0.0682937 -0.62334
O_ O_ 0.565145 0.823693 0.0246376 -0.27028
O_ O_ 0.56347 0.518914 0.11254 -0.62334
O_ O_ 0.611883 0.519899 0.0717181 -0.62334
O_ O_ 0.526178 0.868393 0.125245 -0.27028
O_ O_ 0.56073 0.561522 0.0615572 -1.26018
Zn Zn 0.925532 0.926866 0.895526 1.11547
Zn Zn 0.900073 0.925346 0.93046 1.11547
Zn Zn 0.924489 0.897303 0.925999 1.11547
Zn Zn 0.912843 0.908768 0.906315 1.11547
Zn Zn 0.572578 0.575366 0.600723 1.11547
Zn Zn 0.599748 0.575998 0.573405 1.11547
Zn Zn 0.573395 0.603495 0.569783 1.11547
Zn Zn 0.586451 0.595103 0.591583 1.11547
H_ H_ 0.968484 0.955734 0.762853 0.09385
H_ H_ 0.871897 0.880958 0.702144 0.09385
H_ H_ 0.875216 0.876776 0.777653 0.09385
H_ H_ 0.454238 0.508564 0.69074 0.09385
H_ H_ 1.015053 0.481264 0.67004 0.09385
H_ H_ 0.502473 0.994006 0.656975 0.09385
H_ H_ 0.878824 0.971924 0.563865 0.09385
H_ H_ 0.938387 0.858338 0.634358 0.09385
H_ H_ 0.945615 0.863147 0.563253 0.09385
H_ H_ 0.822956 0.992406 0.657869 0.09385
H_ H_ 0.829382 0.944149 0.641855 0.09385
H_ H_ 0.847245 0.954971 0.689751 0.09385
H_ H_ 0.767149 0.965733 0.959728 0.09385
H_ H_ 0.707748 0.858185 0.897535 0.09385
H_ H_ 0.778958 0.870873 0.882906 0.09385
H_ H_ 0.641855 0.458814 0.483271 0.09385
H_ H_ 0.683786 0.943729 0.500363 0.09385
H_ H_ 0.639493 0.45792 0.980246 0.09385
H_ H_ 0.562766 0.901033 0.982104 0.09385
H_ H_ 0.639159 0.924001 0.861615 0.09385
H_ H_ 0.56781 0.927446 0.861384 0.09385
H_ H_ 0.676881 0.835625 0.971738 0.09385
H_ H_ 0.644534 0.824348 1.0116394 0.09385
H_ H_ 0.628906 0.822255 0.967421 0.09385
H_ H_ 0.947734 0.759962 0.973562 0.09385
H_ H_ 0.884859 0.706354 0.86626 0.09385
H_ H_ 0.89089 0.777372 0.865267 0.09385
H_ H_ 0.490213 0.642996 0.466726 0.09385
H_ H_ 0.500016 0.659349 1.00381426 0.09385
H_ H_ 0.99896235 0.687359 0.461866 0.09385
H_ H_ 0.969984 0.563514 0.879625 0.09385
H_ H_ 0.859424 0.631902 0.944074 0.09385
H_ H_ 0.856538 0.566547 0.936722 0.09385
H_ H_ 1.000894454 0.652976 0.818032 0.09385
H_ H_ 0.97534 0.612234 0.82185 0.09385
H_ H_ 0.946048 0.658042 0.821956 0.09385
H_ H_ 0.530238 0.553286 0.738177 0.09385
H_ H_ 0.642575 0.609901 0.788323 0.09385
H_ H_ 0.635321 0.610193 0.720038 0.09385
H_ H_ 0.016809 0.994022 0.795683 0.09385
H_ H_ 0.520063 -0.003230999999999984 0.858739 0.09385
H_ H_ 1.0482031 0.507321 0.857383 0.09385
H_ H_ 0.614872 0.529697 0.936252 0.09385
H_ H_ 0.570482 0.644451 0.851988 0.09385
H_ H_ 0.563719 0.645325 0.929436 0.09385
H_ H_ 0.682426 0.534616 0.881605 0.09385
H_ H_ 0.670657 0.53654 0.8283 0.09385
H_ H_ 0.678136 0.492034 0.859679 0.09385
H_ H_ 0.734483 0.539961 0.541118 0.09385
H_ H_ 0.795172 0.634818 0.615733 0.09385
H_ H_ 0.721973 0.626616 0.623732 0.09385
H_ H_ 0.835173 0.0613787 0.00823036 0.09385
H_ H_ 0.847175 0.544144 1.0136673 0.09385
H_ H_ 0.842426 1.0054226 0.506916 0.09385
H_ H_ 0.937211 0.609142 0.521479 0.09385
H_ H_ 0.861319 0.5572 0.635079 0.09385
H_ H_ 0.934242 0.55617 0.635049 0.09385
H_ H_ 0.836958 0.683305 0.508348 0.09385
H_ H_ 0.882506 0.682458 0.529037 0.09385
H_ H_ 0.842108 0.670653 0.5601 0.09385
H_ H_ 0.553995 0.742022 0.524883 0.09385
H_ H_ 0.628389 0.791388 0.630441 0.09385
H_ H_ 0.621587 0.722365 0.625889 0.09385
H_ H_ 0.00217991 0.848569 0.0452379 0.09385
H_ H_ 0.0155413 0.860346 0.54498 0.09385
H_ H_ 0.519086 0.848235 -0.0064229999999999565 0.09385
H_ H_ 0.534127 0.935176 0.616394 0.09385
H_ H_ 0.651424 0.866473 0.56011 0.09385
H_ H_ 0.649682 0.939838 0.564452 0.09385
H_ H_ 0.521319 0.823709 0.665928 0.09385
H_ H_ 0.520406 0.871288 0.67463 0.09385
H_ H_ 0.567389 0.848363 0.669002 0.09385
C_ C_ 0.920039 0.917019 0.824275 0.72919
C_ C_ 0.920148 0.915458 0.777783 -0.06135
C_ C_ 0.946906 0.935652 0.751629 -0.13457
C_ C_ 0.947576 0.936186 0.709557 0.22841
C_ C_ 0.919287 0.916343 0.690158 -0.06135
C_ C_ 0.894355 0.892142 0.71533 -0.13457
C_ C_ 0.894816 0.891964 0.757925 -0.13457
C_ C_ 0.980731 0.982985 0.669612 -0.01092
C_ C_ 0.913367 0.922039 0.508226 0.72919
C_ C_ 0.913167 0.919902 0.554425 -0.06135
C_ C_ 0.896967 0.949181 0.577896 -0.13457
C_ C_ 0.899524 0.949018 0.61977 0.22841
C_ C_ 0.918882 0.919143 0.642544 -0.06135
C_ C_ 0.930599 0.88584 0.618945 -0.13457
C_ C_ 0.927708 0.886952 0.576592 -0.13457
C_ C_ 0.843921 0.966896 0.657048 -0.01092
C_ C_ 0.828088 0.922857 0.921625 0.72919
C_ C_ 0.781386 0.917849 0.923207 -0.06135
C_ C_ 0.753718 0.947479 0.938792 -0.13457
C_ C_ 0.710208 0.943952 0.941082 0.22841
C_ C_ 0.692108 0.912219 0.9256 -0.06135
C_ C_ 0.719292 0.883365 0.910363 -0.13457
C_ C_ 0.760505 0.887824 0.904665 -0.13457
C_ C_ 0.676961 0.973804 0.991672 -0.01092
C_ C_ 0.510563 0.913579 0.922775 0.72919
C_ C_ 0.556962 0.908784 0.92093 -0.06135
C_ C_ 0.578713 0.9023 0.954412 -0.13457
C_ C_ 0.620872 0.89451 0.95353 0.22841
C_ C_ 0.645879 0.909252 0.921895 -0.06135
C_ C_ 0.624177 0.918068 0.888628 -0.13457
C_ C_ 0.582238 0.918015 0.887291 -0.13457
C_ C_ 0.647124 0.84026 0.982107 -0.01092
C_ C_ 0.919664 0.825668 0.922513 0.72919
C_ C_ 0.917791 0.77841 0.922042 -0.06135
C_ C_ 0.935978 0.750478 0.948582 -0.13457
C_ C_ 0.933013 0.707933 0.947469 0.22841
C_ C_ 0.917962 0.68864 0.916308 -0.06135
C_ C_ 0.900381 0.716918 0.889178 -0.13457
C_ C_ 0.902793 0.759101 0.89016 -0.13457
C_ C_ 0.97845 0.669944 0.981253 -0.01092
C_ C_ 0.914099 0.506861 0.907738 0.72919
C_ C_ 0.915601 0.553902 0.908033 -0.06135
C_ C_ 0.944885 0.576342 0.891699 -0.13457
C_ C_ 0.946312 0.618606 0.893312 0.22841
C_ C_ 0.915358 0.643195 0.910949 -0.06135
C_ C_ 0.882904 0.620593 0.926637 -0.13457
C_ C_ 0.88246 0.579152 0.922877 -0.13457
C_ C_ 0.974652 0.641983 0.832909 -0.01092
C_ C_ 0.580031 0.578306 0.672197 0.72919
C_ C_ 0.583201 0.579055 0.718971 -0.06135
C_ C_ 0.554259 0.566186 0.747451 -0.13457
C_ C_ 0.557193 0.566025 0.789159 0.22841
C_ C_ 0.588126 0.582901 0.807084 -0.06135
C_ C_ 0.616497 0.598505 0.77913 -0.13457
C_ C_ 0.613696 0.595821 0.737538 -0.13457
C_ C_ 0.524571 0.51996 0.830148 -0.01092
C_ C_ 0.589175 0.589835 0.989473 0.72919
C_ C_ 0.592717 0.58978 0.940924 -0.06135
C_ C_ 0.604827 0.556764 0.920646 -0.13457
C_ C_ 0.60566 0.553468 0.879867 0.22841
C_ C_ 0.590534 0.585144 0.854154 -0.06135
C_ C_ 0.578833 0.619597 0.873478 -0.13457
C_ C_ 0.576444 0.620299 0.915339 -0.13457
C_ C_ 0.663944 0.523846 0.859156 -0.01092
C_ C_ 0.670789 0.579012 0.585355 0.72919
C_ C_ 0.718769 0.580594 0.585743 -0.06135
C_ C_ 0.745005 0.558761 0.560732 -0.13457
C_ C_ 0.787727 0.556054 0.562372 0.22841
C_ C_ 0.807935 0.585558 0.579224 -0.06135
C_ C_ 0.782504 0.613178 0.598907 -0.13457
C_ C_ 0.7403 0.609092 0.603059 -0.13457
C_ C_ 0.819479 0.523893 0.509947 -0.01092
C_ C_ 0.992184 0.582571 0.58255 0.72919
C_ C_ 0.94607 0.583751 0.579552 -0.06135
C_ C_ 0.923519 0.602367 0.549249 -0.13457
C_ C_ 0.881089 0.605205 0.550699 0.22841
C_ C_ 0.855619 0.586532 0.579762 -0.06135
C_ C_ 0.878092 0.569501 0.609674 -0.13457
C_ C_ 0.921404 0.567631 0.610356 -0.13457
C_ C_ 0.855215 0.667129 0.530104 -0.01092
C_ C_ 0.583944 0.67597 0.577868 0.72919
C_ C_ 0.587486 0.722853 0.577075 -0.06135
C_ C_ 0.568505 0.751196 0.55008 -0.13457
C_ C_ 0.569483 0.793978 0.553371 0.22841
C_ C_ 0.590671 0.810641 0.581303 -0.06135
C_ C_ 0.609141 0.781632 0.608555 -0.13457
C_ C_ 0.604905 0.740937 0.608206 -0.13457
C_ C_ 0.512285 0.822817 0.528808 -0.01092
C_ C_ 0.591323 0.993443 0.589305 0.72919
C_ C_ 0.592432 0.945966 0.589997 -0.06135
C_ C_ 0.560923 0.922394 0.603907 -0.13457
C_ C_ 0.562176 0.880816 0.602722 0.22841
C_ C_ 0.592932 0.857817 0.585708 -0.06135
C_ C_ 0.625477 0.881038 0.573036 -0.13457
C_ C_ 0.624943 0.923195 0.576239 -0.13457
C_ C_ 0.537528 0.849876 0.657724 -0.01092
O_ O_ 0.895602 0.902745 0.850487 -0.62334
O_ O_ 0.948636 0.929302 0.839258 -0.62334
O_ O_ 0.981665 0.945661 0.691091 -0.27028
O_ O_ 0.891639 0.93728 0.985056 -0.62334
O_ O_ 0.93352 0.890282 0.9837 -0.62334
O_ O_ 0.880369 0.979009 0.64121 -0.27028
O_ O_ 0.854197 0.900487 0.904801 -0.62334
O_ O_ 0.84394 0.946272 0.941189 -0.62334
O_ O_ 0.688515 0.977117 0.950689 -0.27028
O_ O_ 0.979168 0.882233 0.932786 -0.62334
O_ O_ 0.984115 0.927021 0.889059 -0.62334
O_ O_ 0.636119 0.87957 0.986728 -0.27028
O_ O_ 0.902256 0.849708 0.900133 -0.62334
O_ O_ 0.939346 0.842323 0.94559 -0.62334
O_ O_ 0.939781 0.684862 0.979574 -0.27028
O_ O_ 0.935653 0.984468 0.891057 -0.62334
O_ O_ 0.888149 0.982027 0.931414 -0.62334
O_ O_ 0.978003 0.637914 0.874073 -0.27028
O_ O_ 0.946652 0.941911 0.940993 -1.26018
O_ O_ 0.600023 0.599133 0.647852 -0.62334
O_ O_ 0.554593 0.56064 0.657692 -0.62334
O_ O_ 0.524725 0.559047 0.811285 -0.27028
O_ O_ 0.607621 0.564663 0.519088 -0.62334
O_ O_ 0.569536 0.617038 0.51274 -0.62334
O_ O_ 0.623421 0.519866 0.867839 -0.27028
O_ O_ 0.644428 0.598996 0.604121 -0.62334
O_ O_ 0.654995 0.561073 0.560733 -0.62334
O_ O_ 0.80837 0.522852 0.550222 -0.27028
O_ O_ 0.515874 0.612456 0.560454 -0.62334
O_ O_ 0.513595 0.570315 0.607518 -0.62334
O_ O_ 0.86335 0.627988 0.521265 -0.27028
O_ O_ 0.608702 0.648758 0.589541 -0.62334
O_ O_ 0.555416 0.662272 0.564087 -0.62334
O_ O_ 0.553458 0.819143 0.525361 -0.27028
O_ O_ 0.562028 0.518213 0.606964 -0.62334
O_ O_ 0.611969 0.517808 0.569898 -0.62334
O_ O_ 0.53278 0.860432 0.617943 -0.27028
O_ O_ 0.555722 0.558263 0.55784 -1.26018
_cell_length_a 34.57599999999999
_cell_length_b 34.5520002592948
_cell_length_c 34.669999982862485
_cell_angle_alpha 85.83399962906046
_cell_angle_beta 86.33600047714813
_cell_angle_gamma 86.53999964641022
_symmetry_space_group_name_H-M         'P 1'
_symmetry_Int_Tables_number            1
loop_
_symmetry_equiv_pos_as_xyz
   'x, y, z'
                         
loop_
_atom_site_label
_atom_site_type_symbol
_atom_site_fract_x 
_atom_site_fract_y
_atom_site_fract_z
_atom_site_charge
Zn Zn 0.428288 0.431311 0.389486 1.11547
Zn Zn 0.39119 0.430185 0.428657 1.11547
Zn Zn 0.42885 0.387913 0.435046 1.11547
Zn Zn 0.404714 0.406304 0.40729 1.11547
Zn Zn 0.0682043 0.0710811 0.105446 1.11547
Zn Zn 0.103803 0.0687073 0.0642224 1.11547
Zn Zn 0.0723619 0.106421 0.0681709 1.11547
Zn Zn 0.0874549 0.0940361 0.0901921 1.11547
H_ H_ 0.46814 0.451209 0.257242 0.09385
H_ H_ 0.36339 0.380672 0.203671 0.09385
H_ H_ 0.369836 0.378274 0.275844 0.09385
H_ H_ 1.028122 -0.02710100000000004 0.17373 0.09385
H_ H_ 0.491879 -0.0065549999999999775 0.157618 0.09385
H_ H_ 0.957711 0.489459 0.144836 0.09385
H_ H_ 0.381222 0.464584 0.0572319 0.09385
H_ H_ 0.441275 0.354823 0.133106 0.09385
H_ H_ 0.445862 0.356277 0.0616427 0.09385
H_ H_ 0.328547 0.471436 0.11152 0.09385
H_ H_ 0.332328 0.445385 0.160679 0.09385
H_ H_ 0.329888 0.497082 0.153134 0.09385
H_ H_ 0.257736 0.476331 0.426022 0.09385
H_ H_ 0.204168 0.366931 0.375116 0.09385
H_ H_ 0.276164 0.37101 0.373969 0.09385
H_ H_ 0.193478 0.996018 0.996653 0.09385
H_ H_ 0.158141 0.484703 1.00860292 0.09385
H_ H_ 0.143696 0.975878 0.489337 0.09385
H_ H_ 0.0572644 0.392582 0.470913 0.09385
H_ H_ 0.132859 0.436024 0.35013 0.09385
H_ H_ 0.0607557 0.436367 0.351517 0.09385
H_ H_ 0.160787 0.334052 0.448763 0.09385
H_ H_ 0.140816 0.324764 0.495388 0.09385
H_ H_ 0.108406 0.330757 0.457415 0.09385
H_ H_ 0.443243 0.255381 0.474031 0.09385
H_ H_ 0.381065 0.20383 0.366307 0.09385
H_ H_ 0.383348 0.273309 0.3691 0.09385
H_ H_ -0.0042200000000000015 0.140262 0.96024 0.09385
H_ H_ 1.00322533 0.160739 0.492603 0.09385
H_ H_ 0.486282 0.14784 0.97513 0.09385
H_ H_ 0.469588 0.0579072 0.389548 0.09385
H_ H_ 0.355174 0.130691 0.446479 0.09385
H_ H_ 0.350284 0.0631489 0.440321 0.09385
H_ H_ 0.50038 0.142214 0.325 0.09385
H_ H_ 0.463675 0.10911 0.327536 0.09385
H_ H_ 0.451618 0.159908 0.332023 0.09385
H_ H_ 0.0316572 0.0458839 0.238119 0.09385
H_ H_ 0.128491 0.124235 0.290671 0.09385
H_ H_ 0.118131 0.130613 0.218954 0.09385
H_ H_ 0.543088 0.501403 0.348751 0.09385
H_ H_ -0.003291000000000044 0.495122 0.320232 0.09385
H_ H_ 0.546408 0.00507307 0.348243 0.09385
H_ H_ 0.109905 0.0285926 0.440512 0.09385
H_ H_ 0.0650309 0.147282 0.363481 0.09385
H_ H_ 0.0659278 0.14504 0.433019 0.09385
H_ H_ 0.175362 0.0378621 0.371573 0.09385
H_ H_ 0.162113 0.0547455 0.323533 0.09385
H_ H_ 0.168759 0.0048131 0.335387 0.09385
H_ H_ 0.239269 0.0246526 0.0622399 0.09385
H_ H_ 0.292806 0.136788 0.117732 0.09385
H_ H_ 0.219611 0.132396 0.114668 0.09385
H_ H_ 0.356183 0.553735 0.510354 0.09385
H_ H_ 0.313413 0.00918763 0.494841 0.09385
H_ H_ 0.35243 0.542442 0.00921696 0.09385
H_ H_ 0.434863 0.128831 0.0338264 0.09385
H_ H_ 0.366784 0.0599912 0.147237 0.09385
H_ H_ 0.436898 0.0664474 0.146124 0.09385
H_ H_ 0.337513 0.174833 0.041626 0.09385
H_ H_ 0.337671 0.168854 -0.0063469999999999915 0.09385
H_ H_ 0.38634 0.173282 0.0129 0.09385
H_ H_ 0.0515977 0.237623 0.0319607 0.09385
H_ H_ 0.114177 0.28833 0.138469 0.09385
H_ H_ 0.116769 0.219989 0.131175 0.09385
H_ H_ 0.507409 0.363626 0.525635 0.09385
H_ H_ 0.513121 0.340415 -0.0006899999999999684 0.09385
H_ H_ 0.00994775 0.328347 0.538374 0.09385
H_ H_ 0.0298128 0.434398 0.125468 0.09385
H_ H_ 0.143439 0.359305 0.0705913 0.09385
H_ H_ 0.146559 0.429705 0.0721249 0.09385
H_ H_ 0.0207005 0.382559 0.182702 0.09385
H_ H_ 0.0554647 0.342983 0.170404 0.09385
H_ H_ 0.0073218 0.333486 0.175832 0.09385
C_ C_ 0.420645 0.420981 0.320883 0.72919
C_ C_ 0.419839 0.415581 0.274803 -0.06135
C_ C_ 0.444215 0.434626 0.24634 -0.13457
C_ C_ 0.442809 0.431368 0.204698 0.22841
C_ C_ 0.416703 0.409111 0.187968 -0.06135
C_ C_ 0.390349 0.391276 0.214979 -0.13457
C_ C_ 0.390596 0.394319 0.256244 -0.13457
C_ C_ 0.466987 0.484588 0.165916 -0.01092
C_ C_ 0.410832 0.410581 0.00395511 0.72919
C_ C_ 0.410432 0.409558 0.0507356 -0.06135
C_ C_ 0.393111 0.439664 0.0738068 -0.13457
C_ C_ 0.395915 0.441352 0.115341 0.22841
C_ C_ 0.411309 0.410198 0.141044 -0.06135
C_ C_ 0.430619 0.381236 0.117361 -0.13457
C_ C_ 0.431904 0.380591 0.0749652 -0.13457
C_ C_ 0.342168 0.470652 0.13902 -0.01092
C_ C_ 0.321048 0.420515 0.417095 0.72919
C_ C_ 0.275009 0.418269 0.413679 -0.06135
C_ C_ 0.247193 0.448291 0.425255 -0.13457
C_ C_ 0.205859 0.446728 0.424167 0.22841
C_ C_ 0.186817 0.41756 0.407387 -0.06135
C_ C_ 0.215222 0.389506 0.390748 -0.13457
C_ C_ 0.25756 0.390245 0.393336 -0.13457
C_ C_ 0.176254 0.475068 0.478733 -0.01092
C_ C_ 0.00497144 0.41187 0.4131 0.72919
C_ C_ 0.0524243 0.415198 0.411958 -0.06135
C_ C_ 0.0731794 0.403759 0.443401 -0.13457
C_ C_ 0.115255 0.403717 0.442319 0.22841
C_ C_ 0.139177 0.417484 0.409881 -0.06135
C_ C_ 0.117194 0.427573 0.377933 -0.13457
C_ C_ 0.0747936 0.430051 0.378528 -0.13457
C_ C_ 0.135181 0.343115 0.469239 -0.01092
C_ C_ 0.421297 0.318587 0.419083 0.72919
C_ C_ 0.416608 0.272545 0.418475 -0.06135
C_ C_ 0.433043 0.244607 0.448099 -0.13457
C_ C_ 0.431361 0.202698 0.446556 0.22841
C_ C_ 0.41474 0.184499 0.415592 -0.06135
C_ C_ 0.396837 0.213176 0.389393 -0.13457
C_ C_ 0.39798 0.253624 0.390119 -0.13457
C_ C_ 0.482997 0.167294 0.474081 -0.01092
C_ C_ 0.413339 0.00294701 0.421106 0.72919
C_ C_ 0.41165 0.0498712 0.41844 -0.06135
C_ C_ 0.442238 0.0713702 0.398518 -0.13457
C_ C_ 0.442725 0.113534 0.396975 0.22841
C_ C_ 0.413314 0.137288 0.416532 -0.06135
C_ C_ 0.379909 0.116606 0.432165 -0.13457
C_ C_ 0.378177 0.0739638 0.429837 -0.13457
C_ C_ 0.473129 0.135284 0.339367 -0.01092
C_ C_ 0.0794316 0.0766272 0.17566 0.72919
C_ C_ 0.0784416 0.0835081 0.220633 -0.06135
C_ C_ 0.0539973 0.0621081 0.248925 -0.13457
C_ C_ 0.0567738 0.0630612 0.291883 0.22841
C_ C_ 0.0836499 0.086745 0.308782 -0.06135
C_ C_ 0.107899 0.106795 0.279529 -0.13457
C_ C_ 0.10528 0.107074 0.238142 -0.13457
C_ C_ 0.0309643 0.0103107 0.330001 -0.01092
C_ C_ 0.0869708 0.0838893 0.493928 0.72919
C_ C_ 0.086909 0.0858032 0.445716 -0.06135
C_ C_ 0.101183 0.0560529 0.422734 -0.13457
C_ C_ 0.101074 0.055827 0.381122 0.22841
C_ C_ 0.0854763 0.0874694 0.35634 -0.06135
C_ C_ 0.0753332 0.12043 0.377731 -0.13457
C_ C_ 0.0753185 0.118437 0.421715 -0.13457
C_ C_ 0.156014 0.0313669 0.348113 -0.01092
C_ C_ 0.173587 0.0756247 0.0849813 0.72919
C_ C_ 0.220639 0.0796979 0.0878322 -0.06135
C_ C_ 0.249153 0.0505749 0.0737773 -0.13457
C_ C_ 0.291421 0.0537148 0.0729035 0.22841
C_ C_ 0.309987 0.0849569 0.0873066 -0.06135
C_ C_ 0.281329 0.112445 0.105198 -0.13457
C_ C_ 0.239115 0.110346 0.104292 -0.13457
C_ C_ 0.32763 0.0236848 0.0241131 -0.01092
C_ C_ 0.492642 0.0932896 0.0867633 0.72919
C_ C_ 0.44457 0.091874 0.0871705 -0.06135
C_ C_ 0.422002 0.110856 0.05707 -0.13457
C_ C_ 0.380372 0.107562 0.0576083 0.22841
C_ C_ 0.357253 0.0876041 0.0877352 -0.06135
C_ C_ 0.379442 0.0725524 0.119648 -0.13457
C_ C_ 0.421697 0.0754514 0.118431 -0.13457
C_ C_ 0.356806 0.161095 0.0193224 -0.01092
C_ C_ 0.0819824 0.173734 0.0795048 0.72919
C_ C_ 0.0846603 0.220526 0.0800572 -0.06135
C_ C_ 0.065321 0.249608 0.0529171 -0.13457
C_ C_ 0.0617102 0.291775 0.0563145 0.22841
C_ C_ 0.0794535 0.309075 0.0871235 -0.06135
C_ C_ 0.100705 0.280634 0.112908 -0.13457
C_ C_ 0.100654 0.237589 0.11068 -0.13457
C_ C_ 0.0090057 0.322214 0.0228655 -0.01092
C_ C_ 0.0841354 0.490833 0.0909775 0.72919
C_ C_ 0.0849316 0.443085 0.0915173 -0.06135
C_ C_ 0.0523845 0.421508 0.107329 -0.13457
C_ C_ 0.0521034 0.380597 0.107248 0.22841
C_ C_ 0.083341 0.354741 0.0923679 -0.06135
C_ C_ 0.115929 0.37527 0.0773826 -0.13457
C_ C_ 0.118485 0.417751 0.081246 -0.13457
C_ C_ 0.0264395 0.356478 0.164411 -0.01092
O_ O_ 0.395018 0.406381 0.347798 -0.62334
O_ O_ 0.449908 0.435019 0.334426 -0.62334
O_ O_ 0.47318 0.446404 0.182794 -0.27028
O_ O_ 0.388669 0.434905 0.487979 -0.62334
O_ O_ 0.428976 0.385402 0.492034 -0.62334
O_ O_ 0.380957 0.47393 0.130191 -0.27028
O_ O_ 0.346582 0.397133 0.401066 -0.62334
O_ O_ 0.334835 0.44773 0.434835 -0.62334
O_ O_ 0.185089 0.478705 0.438586 -0.27028
O_ O_ 0.486407 0.387861 0.433097 -0.62334
O_ O_ 0.486364 0.430265 0.384527 -0.62334
O_ O_ 0.131342 0.384576 0.473886 -0.27028
O_ O_ 0.403595 0.345148 0.398997 -0.62334
O_ O_ 0.441958 0.332447 0.443828 -0.62334
O_ O_ 0.443891 0.179122 0.477248 -0.27028
O_ O_ 0.432307 0.491947 0.386362 -0.62334
O_ O_ 0.388248 0.489091 0.434133 -0.62334
O_ O_ 0.475733 0.130874 0.380857 -0.27028
O_ O_ 0.443263 0.437124 0.438797 -1.26018
O_ O_ 0.101265 0.094638 0.15049 -0.62334
O_ O_ 0.0539822 0.0599759 0.15961 -0.62334
O_ O_ 0.0265062 0.0490086 0.313616 -0.27028
O_ O_ 0.0996361 0.0528297 0.0103937 -0.62334
O_ O_ 0.0819386 0.113769 0.00845599 -0.62334
O_ O_ 0.118308 0.0232529 0.362894 -0.27028
O_ O_ 0.147402 0.102106 0.0950114 -0.62334
O_ O_ 0.158756 0.0498408 0.0672129 -0.62334
O_ O_ 0.31472 0.0214296 0.0628172 -0.27028
O_ O_ 0.0147873 0.112009 0.0632302 -0.62334
O_ O_ 0.0104317 0.0691694 0.110299 -0.62334
O_ O_ 0.361868 0.121024 0.0244589 -0.27028
O_ O_ 0.102808 0.14599 0.0982585 -0.62334
O_ O_ 0.0586566 0.159772 0.0588095 -0.62334
O_ O_ 0.0490111 0.313897 0.0251158 -0.27028
O_ O_ 0.0644123 0.0138108 0.109212 -0.62334
O_ O_ 0.109458 0.0125844 0.065033 -0.62334
O_ O_ 0.0195385 0.365396 0.125324 -0.27028
O_ O_ 0.0556182 0.0572602 0.0590415 -1.26018
Zn Zn 0.423918 0.425208 0.897541 1.11547
Zn Zn 0.397404 0.426214 0.925356 1.11547
Zn Zn 0.420498 0.402884 0.929194 1.11547
Zn Zn 0.407411 0.412127 0.907458 1.11547
Zn Zn 0.0739477 0.0740987 0.59916 1.11547
Zn Zn 0.10245 0.0679821 0.568953 1.11547
Zn Zn 0.0687039 0.100253 0.574138 1.11547
Zn Zn 0.0903195 0.0880316 0.591175 1.11547
H_ H_ 0.465037 0.453905 0.760668 0.09385
H_ H_ 0.361942 0.384218 0.705945 0.09385
H_ H_ 0.357892 0.396819 0.778441 0.09385
H_ H_ 1.00013 0.980604 0.643082 0.09385
H_ H_ 0.462378 1.00477402 0.688098 0.09385
H_ H_ -0.015217999999999954 0.477677 0.632626 0.09385
H_ H_ 0.365612 0.462548 0.563602 0.09385
H_ H_ 0.446758 0.364508 0.637005 0.09385
H_ H_ 0.447382 0.362639 0.567277 0.09385
H_ H_ 0.316693 0.484787 0.673797 0.09385
H_ H_ 0.309122 0.477977 0.624319 0.09385
H_ H_ 0.324807 0.43577 0.660115 0.09385
H_ H_ 0.263956 0.457662 0.961253 0.09385
H_ H_ 0.206222 0.378481 0.870726 0.09385
H_ H_ 0.277531 0.371944 0.878019 0.09385
H_ H_ 0.189049 0.948063 0.50642 0.09385
H_ H_ 0.193033 0.493603 0.493809 0.09385
H_ H_ 0.177093 0.946974 0.00309809 0.09385
H_ H_ 0.0636387 0.377345 0.965492 0.09385
H_ H_ 0.139091 0.444216 0.859834 0.09385
H_ H_ 0.067578 0.440584 0.856723 0.09385
H_ H_ 0.168631 0.3257 0.989915 0.09385
H_ H_ 0.127787 0.320562 0.959152 0.09385
H_ H_ 0.176794 0.338586 0.941045 0.09385
H_ H_ 0.450393 0.270106 0.965041 0.09385
H_ H_ 0.383543 0.212795 0.862209 0.09385
H_ H_ 0.387589 0.283327 0.863725 0.09385
H_ H_ 1.00939792 0.205161 0.462602 0.09385
H_ H_ 1.00797437 0.189571 0.945174 0.09385
H_ H_ 0.486629 0.135941 0.482523 0.09385
H_ H_ 0.470337 0.0627553 0.881781 0.09385
H_ H_ 0.357304 0.140739 0.93579 0.09385
H_ H_ 0.358426 0.0672813 0.936895 0.09385
H_ H_ 0.510941 0.166544 0.83721 0.09385
H_ H_ 0.496235 0.120438 0.825923 0.09385
H_ H_ 0.459928 0.160079 0.833438 0.09385
H_ H_ 0.0313794 0.049342 0.728375 0.09385
H_ H_ 0.130941 0.119331 0.790831 0.09385
H_ H_ 0.136425 0.114248 0.72111 0.09385
H_ H_ 0.495359 0.514058 0.845702 0.09385
H_ H_ 0.01043 0.492264 0.83118 0.09385
H_ H_ 0.558387 -0.012588999999999961 0.820679 0.09385
H_ H_ 0.110202 0.0242707 0.934425 0.09385
H_ H_ 0.062677 0.143748 0.85848 0.09385
H_ H_ 0.0661366 0.14056 0.929853 0.09385
H_ H_ 0.167571 0.0143533 0.877603 0.09385
H_ H_ 0.166244 1.0505178 0.837665 0.09385
H_ H_ 0.169065 0.0019299999999999873 0.83109 0.09385
H_ H_ 0.236121 0.0169046 0.561033 0.09385
H_ H_ 0.289378 0.133608 0.609484 0.09385
H_ H_ 0.218832 0.130036 0.608987 0.09385
H_ H_ 0.302507 0.543337 -0.010789999999999966 0.09385
H_ H_ 0.347242 0.0495502 1.0174548 0.09385
H_ H_ 0.3477 0.503179 0.506648 0.09385
H_ H_ 0.430563 0.111902 0.529329 0.09385
H_ H_ 0.356843 0.0643235 0.649377 0.09385
H_ H_ 0.428653 0.0639727 0.646014 0.09385
H_ H_ 0.335883 0.170233 0.508111 0.09385
H_ H_ 0.382179 0.171355 0.527467 0.09385
H_ H_ 0.337867 0.164008 0.558821 0.09385
H_ H_ 0.0636621 0.229111 0.521746 0.09385
H_ H_ 0.113128 0.286357 0.632528 0.09385
H_ H_ 0.0958708 0.219942 0.639614 0.09385
H_ H_ 0.500206 0.301251 0.0322253 0.09385
H_ H_ 0.501738 0.32388 0.560819 0.09385
H_ H_ -0.0071149999999999824 0.302904 0.0425117 0.09385
H_ H_ 0.0257795 0.427869 0.60923 0.09385
H_ H_ 0.145502 0.35962 0.561268 0.09385
H_ H_ 0.140135 0.431191 0.554163 0.09385
H_ H_ 0.0285181 0.367134 0.668414 0.09385
H_ H_ 0.0544455 0.323893 0.661095 0.09385
H_ H_ 0.00324725 0.324166 0.665321 0.09385
C_ C_ 0.412862 0.428092 0.824361 0.72919
C_ C_ 0.411615 0.42662 0.778375 -0.06135
C_ C_ 0.442677 0.437051 0.750263 -0.13457
C_ C_ 0.442416 0.435789 0.709316 0.22841
C_ C_ 0.412301 0.419374 0.689349 -0.06135
C_ C_ 0.384527 0.401873 0.717801 -0.13457
C_ C_ 0.382104 0.408388 0.75981 -0.13457
C_ C_ 0.470604 0.487687 0.670661 -0.01092
C_ C_ 0.409676 0.412577 0.509982 0.72919
C_ C_ 0.408022 0.413343 0.55697 -0.06135
C_ C_ 0.384633 0.441508 0.579499 -0.13457
C_ C_ 0.38598 0.444679 0.620957 0.22841
C_ C_ 0.410172 0.419127 0.644307 -0.06135
C_ C_ 0.429757 0.388743 0.622902 -0.13457
C_ C_ 0.430972 0.385827 0.580855 -0.13457
C_ C_ 0.328013 0.469895 0.647262 -0.01092
C_ C_ 0.325505 0.412684 0.923551 0.72919
C_ C_ 0.27967 0.412724 0.920984 -0.06135
C_ C_ 0.253385 0.435313 0.94298 -0.13457
C_ C_ 0.210854 0.440015 0.940161 0.22841
C_ C_ 0.189958 0.416123 0.916571 -0.06135
C_ C_ 0.216812 0.393292 0.892981 -0.13457
C_ C_ 0.259643 0.389478 0.896836 -0.13457
C_ C_ 0.18118 0.462182 0.998385 -0.01092
C_ C_ 0.00844933 0.408964 0.90989 0.72919
C_ C_ 0.055974 0.41436 0.912372 -0.06135
C_ C_ 0.0793344 0.395788 0.943332 -0.13457
C_ C_ 0.121178 0.395485 0.944049 0.22841
C_ C_ 0.142769 0.418723 0.915499 -0.06135
C_ C_ 0.121685 0.433426 0.883489 -0.13457
C_ C_ 0.0803835 0.431625 0.882278 -0.13457
C_ C_ 0.153953 0.337672 0.964 -0.01092
C_ C_ 0.417199 0.330371 0.918517 0.72919
C_ C_ 0.417886 0.2835 0.916228 -0.06135
C_ C_ 0.430543 0.255394 0.946479 -0.13457
C_ C_ 0.431933 0.213713 0.945072 0.22841
C_ C_ 0.416351 0.194463 0.91376 -0.06135
C_ C_ 0.40294 0.221517 0.883114 -0.13457
C_ C_ 0.402145 0.26508 0.886308 -0.13457
C_ C_ 0.48175 0.17875 0.98191 -0.01092
C_ C_ 0.416329 0.0103003 0.915279 0.72919
C_ C_ 0.415911 0.0575896 0.914088 -0.06135
C_ C_ 0.448403 0.0787531 0.897221 -0.13457
C_ C_ 0.449686 0.122342 0.895793 0.22841
C_ C_ 0.417021 0.147646 0.911732 -0.06135
C_ C_ 0.383096 0.125646 0.925495 -0.13457
C_ C_ 0.383878 0.0818502 0.92761 -0.13457
C_ C_ 0.486636 0.145427 0.844584 -0.01092
C_ C_ 0.0838293 0.0815515 0.671334 0.72919
C_ C_ 0.0845842 0.0829394 0.716663 -0.06135
C_ C_ 0.0548845 0.0643792 0.742636 -0.13457
C_ C_ 0.0522522 0.0662011 0.784141 0.22841
C_ C_ 0.0790389 0.0861685 0.805159 -0.06135
C_ C_ 0.108751 0.103651 0.779766 -0.13457
C_ C_ 0.111707 0.102045 0.73796 -0.13457
C_ C_ 0.0228862 0.0151198 0.816798 -0.01092
C_ C_ 0.0884896 0.0833494 0.989256 0.72919
C_ C_ 0.0876133 0.0830597 0.941521 -0.06135
C_ C_ 0.0989289 0.0507383 0.918212 -0.13457
C_ C_ 0.0970789 0.0504516 0.875377 0.22841
C_ C_ 0.0834997 0.0841936 0.851424 -0.06135
C_ C_ 0.0737835 0.116817 0.874769 -0.13457
C_ C_ 0.0776748 0.116164 0.916623 -0.13457
C_ C_ 0.155438 0.0216423 0.850883 -0.01092
C_ C_ 0.173593 0.0735374 0.579242 0.72919
C_ C_ 0.219816 0.0723733 0.585542 -0.06135
C_ C_ 0.246398 0.0420705 0.573039 -0.13457
C_ C_ 0.287859 0.0464377 0.571093 0.22841
C_ C_ 0.307453 0.075129 0.587993 -0.06135
C_ C_ 0.279169 0.104522 0.602309 -0.13457
C_ C_ 0.237408 0.102872 0.601311 -0.13457
C_ C_ 0.326521 0.0267885 0.515598 -0.01092
C_ C_ 0.4865 0.0837266 0.585886 0.72919
C_ C_ 0.438801 0.0838122 0.584142 -0.06135
C_ C_ 0.416724 0.0944875 0.552372 -0.13457
C_ C_ 0.374335 0.0957886 0.555374 0.22841
C_ C_ 0.353621 0.0770561 0.586953 -0.06135
C_ C_ 0.374084 0.0710329 0.620172 -0.13457
C_ C_ 0.415064 0.0700248 0.619163 -0.13457
C_ C_ 0.353608 0.156592 0.530856 -0.01092
C_ C_ 0.0814522 0.168777 0.578341 0.72919
C_ C_ 0.0840527 0.2152 0.579792 -0.06135
C_ C_ 0.0719232 0.24216 0.547316 -0.13457
C_ C_ 0.0739931 0.28383 0.548156 0.22841
C_ C_ 0.0857434 0.302882 0.581253 -0.06135
C_ C_ 0.097734 0.276272 0.612214 -0.13457
C_ C_ 0.0932132 0.23525 0.612665 -0.13457
C_ C_ 0.0229321 0.312938 0.512614 -0.01092
C_ C_ 0.0840572 0.4849 0.585488 0.72919
C_ C_ 0.0842686 0.438216 0.585649 -0.06135
C_ C_ 0.0534282 0.414138 0.599178 -0.13457
C_ C_ 0.0544764 0.371936 0.600556 0.22841
C_ C_ 0.0839213 0.350176 0.5804 -0.06135
C_ C_ 0.118174 0.373786 0.569187 -0.13457
C_ C_ 0.116031 0.416266 0.569062 -0.13457
C_ C_ 0.027808 0.340497 0.655211 -0.01092
O_ O_ 0.387953 0.41373 0.848999 -0.62334
O_ O_ 0.442032 0.438216 0.839513 -0.62334
O_ O_ 0.474436 0.449058 0.687513 -0.27028
O_ O_ 0.389974 0.433239 0.982757 -0.62334
O_ O_ 0.429379 0.384172 0.98445 -0.62334
O_ O_ 0.366477 0.476328 0.635519 -0.27028
O_ O_ 0.351394 0.400355 0.89725 -0.62334
O_ O_ 0.34102 0.42893 0.949887 -0.62334
O_ O_ 0.191033 0.470655 0.958311 -0.27028
O_ O_ 0.479849 0.392932 0.929558 -0.62334
O_ O_ 0.479776 0.440006 0.889904 -0.62334
O_ O_ 0.139481 0.375991 0.97347 -0.27028
O_ O_ 0.402784 0.35445 0.893621 -0.62334
O_ O_ 0.435032 0.347273 0.941868 -0.62334
O_ O_ 0.442171 0.189158 0.977031 -0.27028
O_ O_ 0.43222 0.482651 0.888205 -0.62334
O_ O_ 0.387497 0.483149 0.931937 -0.62334
O_ O_ 0.483226 0.139315 0.884515 -0.27028
O_ O_ 0.440784 0.445036 0.944965 -1.26018
O_ O_ 0.0996879 0.103473 0.645379 -0.62334
O_ O_ 0.0654203 0.0569061 0.656768 -0.62334
O_ O_ 0.0183873 0.0544725 0.803224 -0.27028
O_ O_ 0.110825 0.0611389 0.512452 -0.62334
O_ O_ 0.067336 0.107344 0.515646 -0.62334
O_ O_ 0.114618 0.0209447 0.854315 -0.27028
O_ O_ 0.148618 0.0938477 0.599462 -0.62334
O_ O_ 0.15812 0.0519251 0.555473 -0.62334
O_ O_ 0.311352 0.0179997 0.554007 -0.27028
O_ O_ 0.0155458 0.117972 0.567481 -0.62334
O_ O_ 0.0174545 0.0693747 0.606866 -0.62334
O_ O_ 0.356198 0.115285 0.526761 -0.27028
O_ O_ 0.0929887 0.143657 0.603588 -0.62334
O_ O_ 0.0695439 0.153671 0.549203 -0.62334
O_ O_ 0.0642696 0.306785 0.514113 -0.27028
O_ O_ 0.0634559 0.0150517 0.608089 -0.62334
O_ O_ 0.108881 0.0116416 0.5644 -0.62334
O_ O_ 0.0231056 0.352578 0.61568 -0.27028
O_ O_ 0.0553796 0.0541051 0.556135 -1.26018
Zn Zn 0.426112 0.923693 0.401779 1.11547
Zn Zn 0.400192 0.925215 0.426353 1.11547
Zn Zn 0.423828 0.900666 0.427983 1.11547
Zn Zn 0.411627 0.907611 0.410619 1.11547
Zn Zn 0.0709387 0.567949 0.108749 1.11547
Zn Zn 0.103716 0.570921 0.0750977 1.11547
Zn Zn 0.0715948 0.607371 0.0734314 1.11547
Zn Zn 0.088321 0.593766 0.0942834 1.11547
H_ H_ 0.473278 0.940321 0.266442 0.09385
H_ H_ 0.359969 0.889813 0.211493 0.09385
H_ H_ 0.357933 0.898013 0.283457 0.09385
H_ H_ 0.954923 0.504339 0.191168 0.09385
H_ H_ 0.493891 0.499337 0.157533 0.09385
H_ H_ 0.98729 0.991064 0.202991 0.09385
H_ H_ 0.375996 0.970159 0.0712955 0.09385
H_ H_ 0.448186 0.865182 0.144576 0.09385
H_ H_ 0.448495 0.863623 0.0728162 0.09385
H_ H_ 0.330903 0.94758 0.174344 0.09385
H_ H_ 0.320177 0.998561 0.164747 0.09385
H_ H_ 0.321032 0.964865 0.123569 0.09385
H_ H_ 0.265042 0.966324 0.453472 0.09385
H_ H_ 0.21096 0.864181 0.385648 0.09385
H_ H_ 0.281083 0.867291 0.384164 0.09385
H_ H_ 0.205104 0.468422 1.0178964 0.09385
H_ H_ 0.145787 0.98601 -0.008651999999999993 0.09385
H_ H_ 0.14397 0.482981 0.484443 0.09385
H_ H_ 0.0587512 0.891044 0.474379 0.09385
H_ H_ 0.141224 0.936441 0.359177 0.09385
H_ H_ 0.0734097 0.926725 0.353307 0.09385
H_ H_ 0.123723 0.828476 0.46188 0.09385
H_ H_ 0.172803 0.830274 0.47944 0.09385
H_ H_ 0.135732 0.830447 0.511579 0.09385
H_ H_ 0.445619 0.763164 0.47101 0.09385
H_ H_ 0.381064 0.711063 0.365486 0.09385
H_ H_ 0.388929 0.779953 0.363917 0.09385
H_ H_ 0.978345 0.638556 0.980706 0.09385
H_ H_ -0.021843999999999975 0.636864 0.467085 0.09385
H_ H_ 0.480655 0.63783 0.962341 0.09385
H_ H_ 0.471118 0.566543 0.393507 0.09385
H_ H_ 0.349066 0.641053 0.431691 0.09385
H_ H_ 0.348363 0.569556 0.428376 0.09385
H_ H_ 0.46137 0.621106 0.336362 0.09385
H_ H_ 0.466634 0.675761 0.336888 0.09385
H_ H_ 0.508425 0.643917 0.338924 0.09385
H_ H_ 0.0290383 0.542576 0.240206 0.09385
H_ H_ 0.122056 0.623736 0.298382 0.09385
H_ H_ 0.122662 0.621544 0.229366 0.09385
H_ H_ 0.523087 0.995101 0.30296 0.09385
H_ H_ 0.00680184 0.993702 0.325693 0.09385
H_ H_ 0.493794 0.508361 0.341617 0.09385
H_ H_ 0.111998 0.531031 0.437918 0.09385
H_ H_ 0.0509115 0.646334 0.36662 0.09385
H_ H_ 0.0539467 0.641758 0.438009 0.09385
H_ H_ 0.164768 0.509175 0.333317 0.09385
H_ H_ 0.171443 0.52943 0.377116 0.09385
H_ H_ 0.154531 0.558716 0.331089 0.09385
H_ H_ 0.239624 0.525601 0.0554061 0.09385
H_ H_ 0.295125 0.630995 0.120227 0.09385
H_ H_ 0.220616 0.634799 0.110313 0.09385
H_ H_ 0.320766 0.0576919 0.504323 0.09385
H_ H_ 0.315578 0.543096 0.487576 0.09385
H_ H_ 0.30311 1.0209992 0.00645818 0.09385
H_ H_ 0.438901 0.618512 0.0293211 0.09385
H_ H_ 0.362042 0.560553 0.141924 0.09385
H_ H_ 0.432778 0.554463 0.142232 0.09385
H_ H_ 0.336335 0.668014 0.0449759 0.09385
H_ H_ 0.328581 0.661356 0.997004 0.09385
H_ H_ 0.373924 0.679117 0.00600203 0.09385
H_ H_ 0.0473487 0.741961 0.0343365 0.09385
H_ H_ 0.129836 0.794452 0.125047 0.09385
H_ H_ 0.129761 0.724708 0.12237 0.09385
H_ H_ 0.501798 0.852739 0.519417 0.09385
H_ H_ 0.499903 0.816776 0.0338783 0.09385
H_ H_ 0.997855 0.811716 0.542507 0.09385
H_ H_ 0.0268637 0.938301 0.103364 0.09385
H_ H_ 0.14648 0.862777 0.0607048 0.09385
H_ H_ 0.142153 0.937229 0.0597723 0.09385
H_ H_ 0.028038 0.870828 0.168724 0.09385
H_ H_ 0.0396244 0.822948 0.154303 0.09385
H_ H_ 0.989368 0.840287 0.158789 0.09385
C_ C_ 0.41884 0.916931 0.330856 0.72919
C_ C_ 0.417 0.918014 0.28355 -0.06135
C_ C_ 0.448195 0.929267 0.256245 -0.13457
C_ C_ 0.445284 0.930467 0.21515 0.22841
C_ C_ 0.415047 0.915521 0.197625 -0.06135
C_ C_ 0.383936 0.902017 0.223521 -0.13457
C_ C_ 0.386112 0.901523 0.26526 -0.13457
C_ C_ 0.470499 0.984967 0.183405 -0.01092
C_ C_ 0.413455 0.919822 0.0154355 0.72919
C_ C_ 0.411061 0.916353 0.0634966 -0.06135
C_ C_ 0.390045 0.944502 0.0857428 -0.13457
C_ C_ 0.393468 0.945888 0.128119 0.22841
C_ C_ 0.415043 0.917829 0.149759 -0.06135
C_ C_ 0.432996 0.888029 0.129429 -0.13457
C_ C_ 0.430372 0.885886 0.0868996 -0.13457
C_ C_ 0.334482 0.971804 0.151199 -0.01092
C_ C_ 0.329641 0.919045 0.420416 0.72919
C_ C_ 0.282501 0.916892 0.418573 -0.06135
C_ C_ 0.255137 0.946787 0.434905 -0.13457
C_ C_ 0.21235 0.944033 0.43381 0.22841
C_ C_ 0.193534 0.912721 0.418427 -0.06135
C_ C_ 0.221485 0.886616 0.400507 -0.13457
C_ C_ 0.263129 0.889783 0.397311 -0.13457
C_ C_ 0.176825 0.973465 0.486821 -0.01092
C_ C_ 0.0117754 0.914118 0.415004 0.72919
C_ C_ 0.0578408 0.913203 0.415967 -0.06135
C_ C_ 0.0771499 0.900827 0.449873 -0.13457
C_ C_ 0.120655 0.89786 0.45065 0.22841
C_ C_ 0.146645 0.910926 0.418622 -0.06135
C_ C_ 0.12578 0.924856 0.384862 -0.13457
C_ C_ 0.0849093 0.922074 0.382681 -0.13457
C_ C_ 0.142334 0.841357 0.482263 -0.01092
C_ C_ 0.416765 0.827718 0.420265 0.72919
C_ C_ 0.413151 0.780712 0.420341 -0.06135
C_ C_ 0.432199 0.753062 0.447534 -0.13457
C_ C_ 0.432322 0.710896 0.44534 0.22841
C_ C_ 0.412593 0.692448 0.417936 -0.06135
C_ C_ 0.393567 0.720592 0.390655 -0.13457
C_ C_ 0.397509 0.762217 0.39038 -0.13457
C_ C_ 0.486683 0.675172 0.47194 -0.01092
C_ C_ 0.410721 0.510477 0.411619 0.72919
C_ C_ 0.409725 0.55799 0.411866 -0.06135
C_ C_ 0.444333 0.580423 0.405236 -0.13457
C_ C_ 0.444861 0.624057 0.406275 0.22841
C_ C_ 0.410647 0.647216 0.416172 -0.06135
C_ C_ 0.377149 0.625087 0.425651 -0.13457
C_ C_ 0.376518 0.582715 0.423854 -0.13457
C_ C_ 0.475829 0.645009 0.349151 -0.01092
C_ C_ 0.0747456 0.580351 0.179573 0.72919
C_ C_ 0.0780566 0.580985 0.226078 -0.06135
C_ C_ 0.0496111 0.561681 0.252163 -0.13457
C_ C_ 0.0489737 0.565386 0.294626 0.22841
C_ C_ 0.0763491 0.585923 0.31438 -0.06135
C_ C_ 0.102556 0.605562 0.286233 -0.13457
C_ C_ 0.102904 0.604322 0.24504 -0.13457
C_ C_ 0.0190271 0.51271 0.330724 -0.01092
C_ C_ 0.0844271 0.586817 0.491694 0.72919
C_ C_ 0.0842377 0.587256 0.445085 -0.06135
C_ C_ 0.0972694 0.555367 0.422555 -0.13457
C_ C_ 0.0966932 0.556657 0.382279 0.22841
C_ C_ 0.078081 0.587729 0.358766 -0.06135
C_ C_ 0.0665473 0.62138 0.380462 -0.13457
C_ C_ 0.0660908 0.618303 0.422612 -0.13457
C_ C_ 0.153867 0.531934 0.351686 -0.01092
C_ C_ 0.173998 0.578469 0.0832524 0.72919
C_ C_ 0.221915 0.580377 0.084676 -0.06135
C_ C_ 0.24906 0.553141 0.0673625 -0.13457
C_ C_ 0.292429 0.556045 0.0637742 0.22841
C_ C_ 0.310964 0.585009 0.0821674 -0.06135
C_ C_ 0.283845 0.613394 0.0989223 -0.13457
C_ C_ 0.240457 0.611546 0.0987142 -0.13457
C_ C_ 0.325225 0.528156 0.00916057 -0.01092
C_ C_ 0.491866 0.58972 0.0861036 0.72919
C_ C_ 0.444726 0.589092 0.0866508 -0.06135
C_ C_ 0.422015 0.610188 0.0557118 -0.13457
C_ C_ 0.381296 0.605657 0.0528128 0.22841
C_ C_ 0.356607 0.589878 0.0836829 -0.06135
C_ C_ 0.37833 0.573748 0.116447 -0.13457
C_ C_ 0.420316 0.569778 0.117478 -0.13457
C_ C_ 0.350773 0.661076 0.0177904 -0.01092
C_ C_ 0.081512 0.678303 0.081052 0.72919
C_ C_ 0.0841555 0.723885 0.0815049 -0.06135
C_ C_ 0.0595843 0.751538 0.0585799 -0.13457
C_ C_ 0.0601806 0.792435 0.0582702 0.22841
C_ C_ 0.0864307 0.811257 0.0826427 -0.06135
C_ C_ 0.109503 0.783258 0.105507 -0.13457
C_ C_ 0.108761 0.741805 0.1043 -0.13457
C_ C_ 0.00717661 0.821021 0.0312786 -0.01092
C_ C_ 0.0866683 0.993043 0.0866221 0.72919
C_ C_ 0.0846818 0.946945 0.0849082 -0.06135
C_ C_ 0.0526227 0.923879 0.0963758 -0.13457
C_ C_ 0.0532967 0.880834 0.0966907 0.22841
C_ C_ 0.0861337 0.857378 0.0839308 -0.06135
C_ C_ 0.119455 0.880127 0.0726418 -0.13457
C_ C_ 0.11819 0.921447 0.0722589 -0.13457
C_ C_ 0.019537 0.849597 0.147618 -0.01092
O_ O_ 0.394341 0.901202 0.356262 -0.62334
O_ O_ 0.443847 0.933194 0.346804 -0.62334
O_ O_ 0.477808 0.943879 0.193662 -0.27028
O_ O_ 0.392437 0.930965 0.483936 -0.62334
O_ O_ 0.435732 0.888209 0.485701 -0.62334
O_ O_ 0.374881 0.976088 0.146256 -0.27028
O_ O_ 0.355237 0.897902 0.401965 -0.62334
O_ O_ 0.344524 0.942022 0.440588 -0.62334
O_ O_ 0.188873 0.975293 0.446103 -0.27028
O_ O_ 0.482665 0.887915 0.429513 -0.62334
O_ O_ 0.482783 0.935725 0.390265 -0.62334
O_ O_ 0.136452 0.881803 0.482725 -0.27028
O_ O_ 0.408548 0.851603 0.392465 -0.62334
O_ O_ 0.424128 0.843904 0.450063 -0.62334
O_ O_ 0.447573 0.689272 0.478075 -0.27028
O_ O_ 0.436885 0.981668 0.400649 -0.62334
O_ O_ 0.384455 0.98358 0.434868 -0.62334
O_ O_ 0.476281 0.643509 0.388641 -0.27028
O_ O_ 0.445845 0.941893 0.445418 -1.26018
O_ O_ 0.0871839 0.605271 0.153466 -0.62334
O_ O_ 0.060522 0.552194 0.166263 -0.62334
O_ O_ 0.0161506 0.551542 0.316004 -0.27028
O_ O_ 0.111749 0.567717 0.0172639 -0.62334
O_ O_ 0.0646732 0.611519 0.0146928 -0.62334
O_ O_ 0.114038 0.52599 0.362866 -0.27028
O_ O_ 0.148238 0.602158 0.0988717 -0.62334
O_ O_ 0.159593 0.551783 0.0656084 -0.62334
O_ O_ 0.31498 0.525884 0.0493744 -0.27028
O_ O_ 0.0133576 0.605308 0.0679032 -0.62334
O_ O_ 0.0117673 0.567113 0.118241 -0.62334
O_ O_ 0.364341 0.622371 0.0193981 -0.27028
O_ O_ 0.1039 0.652231 0.0988043 -0.62334
O_ O_ 0.0550857 0.664262 0.0625411 -0.62334
O_ O_ 0.0466981 0.811689 0.0270537 -0.27028
O_ O_ 0.0593521 0.511588 0.110804 -0.62334
O_ O_ 0.110933 0.511198 0.0760559 -0.62334
O_ O_ 0.0193237 0.863632 0.109314 -0.27028
O_ O_ 0.0577054 0.558929 0.0613331 -1.26018
Zn Zn 0.433975 0.929621 0.891958 1.11547
Zn Zn 0.389079 0.935551 0.93883 1.11547
Zn Zn 0.432408 0.890144 0.937041 1.11547
Zn Zn 0.406768 0.90775 0.90753 1.11547
Zn Zn 0.0686934 0.561224 0.608819 1.11547
Zn Zn 0.109064 0.565562 0.568282 1.11547
Zn Zn 0.0677664 0.60829 0.570704 1.11547
Zn Zn 0.0950227 0.593994 0.591035 1.11547
H_ H_ 0.471718 0.950746 0.760493 0.09385
H_ H_ 0.378491 0.876483 0.702433 0.09385
H_ H_ 0.372207 0.88556 0.770664 0.09385
H_ H_ 0.96508 0.489363 0.678513 0.09385
H_ H_ 0.50099 0.499794 0.669097 0.09385
H_ H_ -0.00917699999999999 1.00761087 0.684091 0.09385
H_ H_ 0.390127 0.970178 0.558808 0.09385
H_ H_ 0.451878 0.85902 0.635634 0.09385
H_ H_ 0.450507 0.858499 0.561438 0.09385
H_ H_ 0.353414 0.94906 0.683952 0.09385
H_ H_ 0.334901 0.996036 0.661294 0.09385
H_ H_ 0.330704 0.9551 0.640148 0.09385
H_ H_ 0.253473 0.95917 0.962173 0.09385
H_ H_ 0.205062 0.852278 0.893873 0.09385
H_ H_ 0.274988 0.859099 0.898437 0.09385
H_ H_ 0.178317 0.444946 0.489596 0.09385
H_ H_ 0.182997 0.00233449 0.495181 0.09385
H_ H_ 0.170651 0.433094 1.00379591 0.09385
H_ H_ 0.0534075 0.860739 0.96561 0.09385
H_ H_ 0.127519 0.947306 0.873249 0.09385
H_ H_ 0.0574235 0.952451 0.87891 0.09385
H_ H_ 0.133329 0.806322 1.00563439 0.09385
H_ H_ 0.121109 0.807136 0.956043 0.09385
H_ H_ 0.167467 0.817174 -0.03608800000000001 0.09385
H_ H_ 0.463852 0.753576 0.96347 0.09385
H_ H_ 0.369247 0.70619 0.881198 0.09385
H_ H_ 0.380298 0.775206 0.875683 0.09385
H_ H_ -0.011402000000000023 0.66295 0.50792 0.09385
H_ H_ 0.0012900000000000134 0.678679 0.960137 0.09385
H_ H_ 0.501751 0.675488 0.50037 0.09385
H_ H_ 0.469627 0.557229 0.890526 0.09385
H_ H_ 0.356834 0.629901 0.941975 0.09385
H_ H_ 0.353344 0.55873 0.934555 0.09385
H_ H_ 0.5095 0.644747 0.839934 0.09385
H_ H_ 0.476073 0.612011 0.831126 0.09385
H_ H_ 0.463352 0.663042 0.840462 0.09385
H_ H_ 0.0300908 0.549576 0.744687 0.09385
H_ H_ 0.132349 0.625667 0.791263 0.09385
H_ H_ 0.13013 0.616287 0.722243 0.09385
H_ H_ 0.51059 -0.01517400000000002 0.811925 0.09385
H_ H_ 0.00182826 1.00799877 0.841277 0.09385
H_ H_ 0.532454 0.498843 0.807974 0.09385
H_ H_ 0.121911 0.535788 0.940318 0.09385
H_ H_ 0.0532703 0.642616 0.867551 0.09385
H_ H_ 0.0580758 0.646144 0.939214 0.09385
H_ H_ 0.186256 0.534897 0.828616 0.09385
H_ H_ 0.19335 0.544237 0.878411 0.09385
H_ H_ 0.171537 0.581382 0.846833 0.09385
H_ H_ 0.239471 0.536565 0.542398 0.09385
H_ H_ 0.297186 0.636244 0.612224 0.09385
H_ H_ 0.225787 0.62882 0.615766 0.09385
H_ H_ 0.346115 -0.002491000000000021 0.017319 0.09385
H_ H_ 0.330753 0.498683 0.997817 0.09385
H_ H_ 0.357598 0.0180017 0.512474 0.09385
H_ H_ 0.444112 0.612296 0.520726 0.09385
H_ H_ 0.366615 0.550537 0.628027 0.09385
H_ H_ 0.436376 0.564468 0.638815 0.09385
H_ H_ 0.337425 0.67105 0.548313 0.09385
H_ H_ 0.35015 0.682834 0.500122 0.09385
H_ H_ 0.385108 0.68461 0.53569 0.09385
H_ H_ 0.052661 0.740599 0.529363 0.09385
H_ H_ 0.108804 0.793305 0.640488 0.09385
H_ H_ 0.109838 0.724098 0.637037 0.09385
H_ H_ 0.515128 0.858103 0.044821 0.09385
H_ H_ 0.501374 0.819449 0.560738 0.09385
H_ H_ 0.998804 0.828475 1.00146778 0.09385
H_ H_ 0.0197497 0.938175 0.602683 0.09385
H_ H_ 0.139304 0.863225 0.56348 0.09385
H_ H_ 0.140528 0.933147 0.560858 0.09385
H_ H_ 0.00243328 0.834345 0.674335 0.09385
H_ H_ 1.0226624 0.881872 0.683648 0.09385
H_ H_ 0.0537132 0.839739 0.671642 0.09385
C_ C_ 0.423935 0.920187 0.821908 0.72919
C_ C_ 0.423421 0.9162 0.774793 -0.06135
C_ C_ 0.454075 0.931042 0.748254 -0.13457
C_ C_ 0.455021 0.929605 0.706326 0.22841
C_ C_ 0.426717 0.910938 0.686564 -0.06135
C_ C_ 0.399798 0.891875 0.713556 -0.13457
C_ C_ 0.396746 0.895788 0.754982 -0.13457
C_ C_ 0.47514 0.982755 0.668273 -0.01092
C_ C_ 0.414097 0.910287 0.505781 0.72919
C_ C_ 0.416331 0.910726 0.552531 -0.06135
C_ C_ 0.40238 0.942872 0.574262 -0.13457
C_ C_ 0.40365 0.943715 0.61684 0.22841
C_ C_ 0.422554 0.912991 0.640102 -0.06135
C_ C_ 0.435084 0.881928 0.619177 -0.13457
C_ C_ 0.43357 0.880005 0.577444 -0.13457
C_ C_ 0.351309 0.968344 0.656923 -0.01092
C_ C_ 0.320091 0.917584 0.926858 0.72919
C_ C_ 0.273036 0.912356 0.927586 -0.06135
C_ C_ 0.24512 0.939393 0.943934 -0.13457
C_ C_ 0.202758 0.93677 0.938693 0.22841
C_ C_ 0.184099 0.904999 0.923165 -0.06135
C_ C_ 0.214006 0.879 0.906664 -0.13457
C_ C_ 0.256514 0.882788 0.909748 -0.13457
C_ C_ 0.175075 0.974242 0.98642 -0.01092
C_ C_ 0.0019834 0.904304 0.913718 0.72919
C_ C_ 0.049502 0.902518 0.918119 -0.06135
C_ C_ 0.0713404 0.87994 0.945519 -0.13457
C_ C_ 0.113095 0.879815 0.947882 0.22841
C_ C_ 0.137382 0.9035 0.921982 -0.06135
C_ C_ 0.115442 0.926922 0.893735 -0.13457
C_ C_ 0.0719585 0.92929 0.894517 -0.13457
C_ C_ 0.138964 0.820397 0.976525 -0.01092
C_ C_ 0.418148 0.821257 0.927227 0.72919
C_ C_ 0.41906 0.772814 0.921409 -0.06135
C_ C_ 0.439283 0.744873 0.946406 -0.13457
C_ C_ 0.435735 0.703187 0.946901 0.22841
C_ C_ 0.413629 0.685214 0.919709 -0.06135
C_ C_ 0.39301 0.713263 0.894716 -0.13457
C_ C_ 0.395153 0.755862 0.895778 -0.13457
C_ C_ 0.48462 0.665856 0.975378 -0.01092
C_ C_ 0.411594 0.503969 0.911528 0.72919
C_ C_ 0.410194 0.551307 0.907804 -0.06135
C_ C_ 0.443388 0.571989 0.898879 -0.13457
C_ C_ 0.444397 0.614219 0.901582 0.22841
C_ C_ 0.413564 0.638166 0.915927 -0.06135
C_ C_ 0.381231 0.615 0.928487 -0.13457
C_ C_ 0.380051 0.573729 0.923859 -0.13457
C_ C_ 0.480914 0.636704 0.84815 -0.01092
C_ C_ 0.0773618 0.579384 0.677306 0.72919
C_ C_ 0.0813002 0.582449 0.724484 -0.06135
C_ C_ 0.054879 0.565094 0.754283 -0.13457
C_ C_ 0.0573276 0.56581 0.795557 0.22841
C_ C_ 0.0854082 0.58691 0.812446 -0.06135
C_ C_ 0.109397 0.608141 0.782658 -0.13457
C_ C_ 0.107924 0.603625 0.741544 -0.13457
C_ C_ 0.0371537 0.511044 0.829095 -0.01092
C_ C_ 0.0888887 0.589126 0.995341 0.72919
C_ C_ 0.0897718 0.59031 0.949085 -0.06135
C_ C_ 0.108416 0.559725 0.925454 -0.13457
C_ C_ 0.110217 0.561685 0.883008 0.22841
C_ C_ 0.0883525 0.590149 0.859943 -0.06135
C_ C_ 0.0704392 0.620336 0.882105 -0.13457
C_ C_ 0.0729597 0.621106 0.924464 -0.13457
C_ C_ 0.172678 0.550395 0.855204 -0.01092
C_ C_ 0.180056 0.581546 0.576898 0.72919
C_ C_ 0.226434 0.584961 0.575789 -0.06135
C_ C_ 0.252581 0.560239 0.556148 -0.13457
C_ C_ 0.294078 0.559896 0.560638 0.22841
C_ C_ 0.312155 0.589305 0.578906 -0.06135
C_ C_ 0.285153 0.616032 0.595383 -0.13457
C_ C_ 0.244482 0.612442 0.596463 -0.13457
C_ C_ 0.333593 0.533465 0.513914 -0.01092
C_ C_ 0.493961 0.590749 0.582824 0.72919
C_ C_ 0.447792 0.58968 0.580974 -0.06135
C_ C_ 0.426829 0.603114 0.54825 -0.13457
C_ C_ 0.38524 0.609091 0.549804 0.22841
C_ C_ 0.36005 0.590108 0.579058 -0.06135
C_ C_ 0.380031 0.573642 0.611573 -0.13457
C_ C_ 0.423176 0.574951 0.612333 -0.13457
C_ C_ 0.362023 0.667668 0.52516 -0.01092
C_ C_ 0.0802613 0.68011 0.579964 0.72919
C_ C_ 0.0805319 0.726714 0.582054 -0.06135
C_ C_ 0.0642037 0.753227 0.554254 -0.13457
C_ C_ 0.0665407 0.794917 0.554901 0.22841
C_ C_ 0.0825279 0.812423 0.585317 -0.06135
C_ C_ 0.0947227 0.783942 0.615738 -0.13457
C_ C_ 0.0957313 0.743037 0.614118 -0.13457
C_ C_ 0.0156825 0.834443 0.528858 -0.01092
C_ C_ 0.0829761 0.992841 0.584878 0.72919
C_ C_ 0.0838809 0.946419 0.590437 -0.06135
C_ C_ 0.0505313 0.923753 0.602046 -0.13457
C_ C_ 0.0530886 0.88133 0.608044 0.22841
C_ C_ 0.0826186 0.858877 0.588751 -0.06135
C_ C_ 0.1159 0.880255 0.574179 -0.13457
C_ C_ 0.116504 0.921962 0.575899 -0.13457
C_ C_ 0.0247418 0.855469 0.66657 -0.01092
O_ O_ 0.403414 0.89991 0.847065 -0.62334
O_ O_ 0.44514 0.944926 0.835914 -0.62334
O_ O_ 0.486871 0.946412 0.685839 -0.27028
O_ O_ 0.389913 0.94092 0.995871 -0.62334
O_ O_ 0.432844 0.894569 -0.003414000000000028 -0.62334
O_ O_ 0.386887 0.976337 0.633283 -0.27028
O_ O_ 0.34637 0.898864 0.905926 -0.62334
O_ O_ 0.332538 0.944725 0.944244 -0.62334
O_ O_ 0.18009 0.970541 0.945696 -0.27028
O_ O_ 0.49034 0.889249 0.94186 -0.62334
O_ O_ 0.490757 0.935611 0.898803 -0.62334
O_ O_ 0.12933 0.860583 0.980393 -0.27028
O_ O_ 0.402872 0.847697 0.904193 -0.62334
O_ O_ 0.43973 0.833774 0.950457 -0.62334
O_ O_ 0.446857 0.684511 0.980672 -0.27028
O_ O_ 0.438037 0.98978 0.891804 -0.62334
O_ O_ 0.391598 0.99146 0.936856 -0.62334
O_ O_ 0.478786 0.631484 0.890028 -0.27028
O_ O_ 0.439733 0.941101 0.941493 -1.26018
O_ O_ 0.104453 0.587084 0.650995 -0.62334
O_ O_ 0.0461895 0.568976 0.664304 -0.62334
O_ O_ 0.0274487 0.549742 0.819239 -0.27028
O_ O_ 0.10964 0.566649 0.511068 -0.62334
O_ O_ 0.0621396 0.607296 0.512485 -0.62334
O_ O_ 0.13584 0.536244 0.865273 -0.27028
O_ O_ 0.154126 0.606149 0.590524 -0.62334
O_ O_ 0.16618 0.557475 0.557801 -0.62334
O_ O_ 0.315958 0.52605 0.551369 -0.27028
O_ O_ 0.0115833 0.610884 0.572025 -0.62334
O_ O_ 0.0100025 0.55755 0.603848 -0.62334
O_ O_ 0.370264 0.628785 0.518858 -0.27028
O_ O_ 0.0963973 0.653455 0.60064 -0.62334
O_ O_ 0.0615331 0.66566 0.555047 -0.62334
O_ O_ 0.0547181 0.819522 0.523051 -0.27028
O_ O_ 0.0638498 0.503035 0.611576 -0.62334
O_ O_ 0.111584 0.505424 0.568985 -0.62334
O_ O_ 0.0214373 0.863612 0.626409 -0.27028
O_ O_ 0.0588732 0.558956 0.558444 -1.26018
Zn Zn 0.925147 0.422843 0.397635 1.11547
Zn Zn 0.895888 0.43119 0.420453 1.11547
Zn Zn 0.927786 0.3959 0.425043 1.11547
Zn Zn 0.909266 0.40768 0.404845 1.11547
Zn Zn 0.571744 0.0781928 0.102494 1.11547
Zn Zn 0.602677 0.0755029 0.0750964 1.11547
Zn Zn 0.571485 0.106296 0.0751806 1.11547
Zn Zn 0.589955 0.0921828 0.0925565 1.11547
H_ H_ 0.971102 0.449704 0.262675 0.09385
H_ H_ 0.87238 0.376865 0.205006 0.09385
H_ H_ 0.870332 0.380733 0.277907 0.09385
H_ H_ 0.479397 -0.0029930000000000234 0.208971 0.09385
H_ H_ 0.985396 -0.010996000000000006 0.152203 0.09385
H_ H_ 0.450046 0.485993 0.139346 0.09385
H_ H_ 0.891124 0.470361 0.0572673 0.09385
H_ H_ 0.923265 0.351243 0.140214 0.09385
H_ H_ 0.927804 0.348467 0.0688647 0.09385
H_ H_ 0.840945 0.444864 0.154953 0.09385
H_ H_ 0.841061 0.486576 0.174988 0.09385
H_ H_ 0.832472 0.486734 0.123652 0.09385
H_ H_ 0.761353 0.477022 0.444469 0.09385
H_ H_ 0.70539 0.369198 0.386176 0.09385
H_ H_ 0.774902 0.373096 0.381721 0.09385
H_ H_ 0.651849 0.957338 0.999396462 0.09385
H_ H_ 0.659994 0.501751 0.995694 0.09385
H_ H_ 0.663541 -0.009244999999999948 0.502308 0.09385
H_ H_ 0.560638 0.379362 0.46515 0.09385
H_ H_ 0.637459 0.432944 0.352187 0.09385
H_ H_ 0.565389 0.431443 0.353437 0.09385
H_ H_ 0.658908 0.330405 0.501857 0.09385
H_ H_ 0.623199 0.326324 0.469121 0.09385
H_ H_ 0.673212 0.343475 0.455722 0.09385
H_ H_ 0.953678 0.266417 0.463247 0.09385
H_ H_ 0.887069 0.205474 0.362011 0.09385
H_ H_ 0.895127 0.276569 0.359213 0.09385
H_ H_ 0.502352 0.194116 0.961765 0.09385
H_ H_ 0.496134 0.181055 0.497231 0.09385
H_ H_ 0.00793509 0.171222 0.996779 0.09385
H_ H_ 0.968335 0.063313 0.376525 0.09385
H_ H_ 0.871018 0.139865 0.451709 0.09385
H_ H_ 0.86488 0.0670555 0.444398 0.09385
H_ H_ 0.966332 0.104355 0.315119 0.09385
H_ H_ 0.942907 0.152726 0.316197 0.09385
H_ H_ 0.990413 0.150726 0.307343 0.09385
H_ H_ 0.528772 0.0503095 0.237464 0.09385
H_ H_ 0.635969 0.107348 0.293167 0.09385
H_ H_ 0.638817 0.0951028 0.223995 0.09385
H_ H_ 0.0481013 0.498752 0.324303 0.09385
H_ H_ 0.527077 0.496211 0.300777 0.09385
H_ H_ 0.0348794 1.0114868 0.360948 0.09385
H_ H_ 0.617375 0.0306528 0.437754 0.09385
H_ H_ 0.551403 0.134969 0.359715 0.09385
H_ H_ 0.56005 0.144839 0.429222 0.09385
H_ H_ 0.674697 0.00203474 0.335356 0.09385
H_ H_ 0.677715 0.0167027 0.384548 0.09385
H_ H_ 0.66886 1.0503348 0.338265 0.09385
H_ H_ 0.739423 0.027401 0.0593876 0.09385
H_ H_ 0.79492 0.146 0.0974153 0.09385
H_ H_ 0.718525 0.143084 0.0928647 0.09385
H_ H_ 0.792215 0.528295 0.494636 0.09385
H_ H_ 0.803196 0.0378518 0.50098 0.09385
H_ H_ 0.79712 0.534982 -0.0027800000000000047 0.09385
H_ H_ 0.941831 0.119599 0.0271417 0.09385
H_ H_ 0.863136 0.0735315 0.13967 0.09385
H_ H_ 0.934052 0.0590622 0.136471 0.09385
H_ H_ 0.865601 0.190671 -0.00417500000000004 0.09385
H_ H_ 0.884928 0.181843 0.0403013 0.09385
H_ H_ 0.831049 0.177447 0.034951 0.09385
H_ H_ 0.563631 0.244896 0.0266174 0.09385
H_ H_ 0.611305 0.298908 0.140858 0.09385
H_ H_ 0.608083 0.226261 0.14024 0.09385
H_ H_ 1.00978271 0.28389 0.511065 0.09385
H_ H_ -0.0023260000000000502 0.352135 1.0310526 0.09385
H_ H_ 0.491977 0.320884 0.511372 0.09385
H_ H_ 0.528033 0.438682 0.114921 0.09385
H_ H_ 0.645838 0.370715 0.058966 0.09385
H_ H_ 0.643101 0.446775 0.0593988 0.09385
H_ H_ 0.555291 0.349659 0.164925 0.09385
H_ H_ 0.503211 0.343741 0.169081 0.09385
H_ H_ 0.523264 0.388618 0.171371 0.09385
C_ C_ 0.919174 0.416671 0.324039 0.72919
C_ C_ 0.921457 0.413642 0.277731 -0.06135
C_ C_ 0.948363 0.432902 0.251455 -0.13457
C_ C_ 0.945558 0.435755 0.20883 0.22841
C_ C_ 0.917886 0.414909 0.190692 -0.06135
C_ C_ 0.891062 0.396794 0.217666 -0.13457
C_ C_ 0.891453 0.397615 0.259554 -0.13457
C_ C_ 0.972291 0.487759 0.172083 -0.01092
C_ C_ 0.913421 0.412216 0.00685339 0.72919
C_ C_ 0.910008 0.41147 0.0550967 -0.06135
C_ C_ 0.901227 0.445714 0.0761657 -0.13457
C_ C_ 0.904819 0.447046 0.118177 0.22841
C_ C_ 0.915546 0.413257 0.143094 -0.06135
C_ C_ 0.92179 0.37805 0.123658 -0.13457
C_ C_ 0.923223 0.377401 0.080477 -0.13457
C_ C_ 0.849156 0.473878 0.148538 -0.01092
C_ C_ 0.824507 0.426104 0.41546 0.72919
C_ C_ 0.776571 0.425291 0.415323 -0.06135
C_ C_ 0.749621 0.45403 0.431026 -0.13457
C_ C_ 0.707291 0.449199 0.43421 0.22841
C_ C_ 0.688719 0.421093 0.414768 -0.06135
C_ C_ 0.715338 0.392856 0.399753 -0.13457
C_ C_ 0.757794 0.395827 0.39894 -0.13457
C_ C_ 0.671957 0.468709 0.486285 -0.01092
C_ C_ 0.506667 0.41075 0.409066 0.72919
C_ C_ 0.55354 0.414101 0.411649 -0.06135
C_ C_ 0.576646 0.395156 0.441962 -0.13457
C_ C_ 0.617761 0.399256 0.445856 0.22841
C_ C_ 0.642046 0.418124 0.414667 -0.06135
C_ C_ 0.622787 0.428939 0.380434 -0.13457
C_ C_ 0.58051 0.428505 0.380347 -0.13457
C_ C_ 0.648031 0.34384 0.476523 -0.01092
C_ C_ 0.924001 0.325127 0.413623 0.72919
C_ C_ 0.92426 0.279776 0.411435 -0.06135
C_ C_ 0.939131 0.253253 0.44187 -0.13457
C_ C_ 0.938676 0.21151 0.441931 0.22841
C_ C_ 0.922627 0.192107 0.412619 -0.06135
C_ C_ 0.904958 0.217923 0.383623 -0.13457
C_ C_ 0.910487 0.259667 0.382382 -0.13457
C_ C_ 0.992217 0.180709 0.468325 -0.01092
C_ C_ 0.913872 0.00901906 0.412019 0.72919
C_ C_ 0.918548 0.0568294 0.414231 -0.06135
C_ C_ 0.946175 0.0792971 0.391065 -0.13457
C_ C_ 0.94976 0.121084 0.390748 0.22841
C_ C_ 0.922783 0.145399 0.412632 -0.06135
C_ C_ 0.894097 0.123438 0.434385 -0.13457
C_ C_ 0.890901 0.082398 0.430973 -0.13457
C_ C_ 0.968559 0.135288 0.324152 -0.01092
C_ C_ 0.580818 0.072732 0.174262 0.72919
C_ C_ 0.581657 0.0774223 0.221058 -0.06135
C_ C_ 0.552443 0.0607516 0.249359 -0.13457
C_ C_ 0.551095 0.0623842 0.291813 0.22841
C_ C_ 0.582082 0.0793361 0.31059 -0.06135
C_ C_ 0.612828 0.092897 0.282516 -0.13457
C_ C_ 0.614335 0.0879621 0.240894 -0.13457
C_ C_ 0.522068 0.0130322 0.327636 -0.01092
C_ C_ 0.588839 0.0861869 0.489421 0.72919
C_ C_ 0.587584 0.086953 0.442726 -0.06135
C_ C_ 0.602197 0.0538043 0.421631 -0.13457
C_ C_ 0.603785 0.0528775 0.378981 0.22841
C_ C_ 0.581835 0.0809709 0.355474 -0.06135
C_ C_ 0.566577 0.113209 0.376119 -0.13457
C_ C_ 0.569278 0.116909 0.418168 -0.13457
C_ C_ 0.662402 0.0224607 0.355465 -0.01092
C_ C_ 0.673837 0.0833701 0.0758251 0.72919
C_ C_ 0.721177 0.0851013 0.0763059 -0.06135
C_ C_ 0.749983 0.0546799 0.0656594 -0.13457
C_ C_ 0.792224 0.057692 0.0694168 0.22841
C_ C_ 0.810872 0.0898176 0.0800445 -0.06135
C_ C_ 0.782457 0.120072 0.0906914 -0.13457
C_ C_ 0.739878 0.117432 0.0886749 -0.13457
C_ C_ 0.830203 0.0310546 0.0194608 -0.01092
C_ C_ 0.992066 0.0887416 0.083915 0.72919
C_ C_ 0.945019 0.0902929 0.0818147 -0.06135
C_ C_ 0.924761 0.109916 0.0510451 -0.13457
C_ C_ 0.882389 0.110271 0.0483312 0.22841
C_ C_ 0.857558 0.0927301 0.0793106 -0.06135
C_ C_ 0.879965 0.0776014 0.111265 -0.13457
C_ C_ 0.921149 0.07433 0.112203 -0.13457
C_ C_ 0.862313 0.171394 0.0215385 -0.01092
C_ C_ 0.583057 0.177721 0.0823252 0.72919
C_ C_ 0.585011 0.224885 0.0834952 -0.06135
C_ C_ 0.570568 0.252241 0.0547727 -0.13457
C_ C_ 0.570407 0.294767 0.0569208 0.22841
C_ C_ 0.587644 0.314952 0.0855448 -0.06135
C_ C_ 0.601339 0.286708 0.114835 -0.13457
C_ C_ 0.598679 0.244467 0.114818 -0.13457
C_ C_ 0.519065 0.325922 0.0270836 -0.01092
C_ C_ 0.588162 0.498528 0.0918408 0.72919
C_ C_ 0.586299 0.450948 0.0887456 -0.06135
C_ C_ 0.556994 0.426441 0.106157 -0.13457
C_ C_ 0.557935 0.384795 0.102657 0.22841
C_ C_ 0.589211 0.361863 0.0852323 -0.06135
C_ C_ 0.619738 0.386124 0.0690221 -0.13457
C_ C_ 0.61938 0.429371 0.0703902 -0.13457
C_ C_ 0.527875 0.361473 0.158566 -0.01092
O_ O_ 0.891818 0.407688 0.347816 -0.62334
O_ O_ 0.94776 0.428171 0.341901 -0.62334
O_ O_ 0.977608 0.449521 0.186265 -0.27028
O_ O_ 0.895244 0.438879 0.479297 -0.62334
O_ O_ 0.927998 0.384298 0.484275 -0.62334
O_ O_ 0.888493 0.479634 0.136752 -0.27028
O_ O_ 0.848334 0.400687 0.399846 -0.62334
O_ O_ 0.841881 0.449256 0.434471 -0.62334
O_ O_ 0.685049 0.480171 0.449179 -0.27028
O_ O_ 0.985784 0.389778 0.437341 -0.62334
O_ O_ 0.982525 0.42879 0.387793 -0.62334
O_ O_ 0.634585 0.382399 0.479924 -0.27028
O_ O_ 0.909013 0.350246 0.389823 -0.62334
O_ O_ 0.935072 0.341374 0.443423 -0.62334
O_ O_ 0.951666 0.19044 0.474125 -0.27028
O_ O_ 0.938235 0.480635 0.393308 -0.62334
O_ O_ 0.879917 0.486212 0.413254 -0.62334
O_ O_ 0.975916 0.138368 0.36311 -0.27028
O_ O_ 0.942106 0.445461 0.437603 -1.26018
O_ O_ 0.606834 0.0857464 0.149593 -0.62334
O_ O_ 0.550449 0.0687191 0.157645 -0.62334
O_ O_ 0.518992 0.0523639 0.314269 -0.27028
O_ O_ 0.606951 0.0675376 0.0172654 -0.62334
O_ O_ 0.571616 0.117512 0.0146192 -0.62334
O_ O_ 0.622116 0.0199775 0.360936 -0.27028
O_ O_ 0.649336 0.0993459 0.0997743 -0.62334
O_ O_ 0.658204 0.0600604 0.0560673 -0.62334
O_ O_ 0.816981 0.0278162 0.0579446 -0.27028
O_ O_ 0.513917 0.114749 0.0623978 -0.62334
O_ O_ 0.514017 0.0712491 0.110328 -0.62334
O_ O_ 0.866915 0.130169 0.0168614 -0.27028
O_ O_ 0.592778 0.152029 0.109089 -0.62334
O_ O_ 0.570062 0.162197 0.0537058 -0.62334
O_ O_ 0.560513 0.317784 0.0242949 -0.27028
O_ O_ 0.55899 0.0208356 0.103919 -0.62334
O_ O_ 0.615577 0.0189885 0.078997 -0.62334
O_ O_ 0.524904 0.366097 0.118757 -0.27028
O_ O_ 0.556356 0.0609732 0.0561494 -1.26018
Zn Zn 0.928947 0.426647 0.887237 1.11547
Zn Zn 0.89409 0.428797 0.925634 1.11547
Zn Zn 0.928674 0.38939 0.929375 1.11547
Zn Zn 0.904584 0.404488 0.901907 1.11547
Zn Zn 0.562966 0.07239 0.608994 1.11547
Zn Zn 0.61193 0.0757794 0.565182 1.11547
Zn Zn 0.566921 0.108619 0.570221 1.11547
Zn Zn 0.59774 0.0949064 0.592932 1.11547
H_ H_ 0.97418 0.434117 0.755328 0.09385
H_ H_ 0.865393 0.38377 0.695645 0.09385
H_ H_ 0.864039 0.387423 0.768737 0.09385
H_ H_ 0.459623 0.980341 0.642468 0.09385
H_ H_ 0.95169 0.989407 0.659027 0.09385
H_ H_ 0.458486 0.493115 0.640838 0.09385
H_ H_ 0.900269 0.473968 0.553239 0.09385
H_ H_ 0.922552 0.349124 0.631827 0.09385
H_ H_ 0.927937 0.349645 0.560176 0.09385
H_ H_ 0.829361 0.463206 0.610685 0.09385
H_ H_ 0.837221 0.454471 0.663557 0.09385
H_ H_ 0.830789 0.50222 0.64029 0.09385
H_ H_ 0.758038 0.467282 0.95189 0.09385
H_ H_ 0.702148 0.362865 0.888465 0.09385
H_ H_ 0.771267 0.365335 0.88743 0.09385
H_ H_ 0.637802 0.958329 0.482846 0.09385
H_ H_ 0.687472 0.442316 0.498528 0.09385
H_ H_ 0.671298 0.00457632 1.00076 0.09385
H_ H_ 0.554665 0.386539 0.964653 0.09385
H_ H_ 0.632201 0.443459 0.852791 0.09385
H_ H_ 0.560532 0.447626 0.855799 0.09385
H_ H_ 0.643128 0.327639 0.9970487 0.09385
H_ H_ 0.615761 0.329628 0.956942 0.09385
H_ H_ 0.668226 0.336151 0.952713 0.09385
H_ H_ 0.959595 0.254598 0.966697 0.09385
H_ H_ 0.890135 0.19608 0.865838 0.09385
H_ H_ 0.885223 0.268201 0.870638 0.09385
H_ H_ 0.497675 0.17601 0.445254 0.09385
H_ H_ 0.487467 0.184557 0.0136265 0.09385
H_ H_ 0.997685 0.164382 0.441918 0.09385
H_ H_ 0.968373 0.0588358 0.881179 0.09385
H_ H_ 0.85581 0.133251 0.941828 0.09385
H_ H_ 0.856173 0.0609564 0.942501 0.09385
H_ H_ 0.000339964 0.168231 0.84183 0.09385
H_ H_ 0.983662 0.119574 0.829586 0.09385
H_ H_ 0.950805 0.161223 0.840467 0.09385
H_ H_ 0.538079 0.0364821 0.741996 0.09385
H_ H_ 0.618494 0.125846 0.799482 0.09385
H_ H_ 0.617905 0.126946 0.726446 0.09385
H_ H_ 0.0608234 0.4943 0.8115 0.09385
H_ H_ 0.545123 0.514635 0.853608 0.09385
H_ H_ 0.0514064 0.00463259 0.827254 0.09385
H_ H_ 0.594446 0.0269144 0.948392 0.09385
H_ H_ 0.574512 0.145915 0.863034 0.09385
H_ H_ 0.565368 0.147244 0.936824 0.09385
H_ H_ 0.656984 0.0421972 0.84012 0.09385
H_ H_ 0.660783 -0.007125000000000048 0.853514 0.09385
H_ H_ 0.660896 0.0241505 0.892029 0.09385
H_ H_ 0.744787 0.0318725 0.554413 0.09385
H_ H_ 0.798773 0.146024 0.606708 0.09385
H_ H_ 0.727693 0.141488 0.599524 0.09385
H_ H_ 0.832515 0.494611 0.0111485 0.09385
H_ H_ 0.813523 1.0113861 0.0017300000000000093 0.09385
H_ H_ 0.838959 0.547251 0.497473 0.09385
H_ H_ 0.940917 0.124282 0.532255 0.09385
H_ H_ 0.870115 0.0629746 0.645732 0.09385
H_ H_ 0.940268 0.0586756 0.640805 0.09385
H_ H_ 0.86736 0.195461 0.519118 0.09385
H_ H_ 0.880567 0.178966 0.566471 0.09385
H_ H_ 0.831804 0.181973 0.553826 0.09385
H_ H_ 0.549348 0.242109 0.532588 0.09385
H_ H_ 0.62358 0.299287 0.625261 0.09385
H_ H_ 0.622749 0.228153 0.625697 0.09385
H_ H_ 1.00125209 0.321529 -0.0067829999999999835 0.09385
H_ H_ 0.0150096 0.329033 0.485489 0.09385
H_ H_ 0.511262 0.349636 1.0471831 0.09385
H_ H_ 0.525776 0.440768 0.609271 0.09385
H_ H_ 0.647944 0.369904 0.56197 0.09385
H_ H_ 0.645824 0.442269 0.563933 0.09385
H_ H_ 0.556042 0.342271 0.658068 0.09385
H_ H_ 0.511992 0.32355 0.650206 0.09385
H_ H_ 0.509193 0.366967 0.670986 0.09385
C_ C_ 0.920384 0.416483 0.816451 0.72919
C_ C_ 0.919131 0.412548 0.770306 -0.06135
C_ C_ 0.948405 0.427863 0.74296 -0.13457
C_ C_ 0.949299 0.425624 0.700163 0.22841
C_ C_ 0.916996 0.411257 0.681371 -0.06135
C_ C_ 0.887558 0.398919 0.708976 -0.13457
C_ C_ 0.887236 0.39932 0.751705 -0.13457
C_ C_ 0.986388 0.470775 0.664255 -0.01092
C_ C_ 0.914076 0.414222 0.501215 0.72919
C_ C_ 0.912321 0.413838 0.54857 -0.06135
C_ C_ 0.904926 0.446132 0.570488 -0.13457
C_ C_ 0.901408 0.444988 0.611409 0.22841
C_ C_ 0.914043 0.411098 0.635635 -0.06135
C_ C_ 0.919354 0.376967 0.616419 -0.13457
C_ C_ 0.919971 0.377288 0.574037 -0.13457
C_ C_ 0.844001 0.474286 0.637108 -0.01092
C_ C_ 0.821263 0.421323 0.921387 0.72919
C_ C_ 0.774647 0.4183 0.920476 -0.06135
C_ C_ 0.748181 0.443685 0.938406 -0.13457
C_ C_ 0.706293 0.445842 0.932926 0.22841
C_ C_ 0.686596 0.418448 0.915144 -0.06135
C_ C_ 0.713078 0.38941 0.898476 -0.13457
C_ C_ 0.755505 0.389623 0.900583 -0.13457
C_ C_ 0.666148 0.472618 0.983533 -0.01092
C_ C_ 0.502076 0.416169 0.910056 0.72919
C_ C_ 0.549639 0.41893 0.911533 -0.06135
C_ C_ 0.571629 0.402193 0.942952 -0.13457
C_ C_ 0.615338 0.399699 0.941983 0.22841
C_ C_ 0.639958 0.419658 0.913076 -0.06135
C_ C_ 0.61738 0.435743 0.880336 -0.13457
C_ C_ 0.574909 0.436906 0.880242 -0.13457
C_ C_ 0.639906 0.341542 0.969021 -0.01092
C_ C_ 0.924478 0.31816 0.917809 0.72919
C_ C_ 0.921228 0.27082 0.918826 -0.06135
C_ C_ 0.938554 0.244677 0.948334 -0.13457
C_ C_ 0.937054 0.202801 0.947799 0.22841
C_ C_ 0.91822 0.183614 0.918059 -0.06135
C_ C_ 0.901886 0.20853 0.88924 -0.13457
C_ C_ 0.902519 0.250396 0.890618 -0.13457
C_ C_ 0.992759 0.170977 0.968614 -0.01092
C_ C_ 0.912453 0.00301433 0.913436 0.72919
C_ C_ 0.912236 0.0497424 0.91501 -0.06135
C_ C_ 0.945094 0.0719042 0.899924 -0.13457
C_ C_ 0.946978 0.114008 0.90097 0.22841
C_ C_ 0.91619 0.13777 0.918686 -0.06135
C_ C_ 0.882605 0.11746 0.932768 -0.13457
C_ C_ 0.880691 0.0741936 0.932447 -0.13457
C_ C_ 0.978593 0.145475 0.847371 -0.01092
C_ C_ 0.57862 0.0762494 0.680012 0.72919
C_ C_ 0.58202 0.0780405 0.727313 -0.06135
C_ C_ 0.558312 0.0538296 0.754495 -0.13457
C_ C_ 0.55746 0.0557222 0.79623 0.22841
C_ C_ 0.579018 0.0815833 0.815351 -0.06135
C_ C_ 0.601595 0.105003 0.787404 -0.13457
C_ C_ 0.600717 0.106224 0.745049 -0.13457
C_ C_ 0.530255 0.00152233 0.828245 -0.01092
C_ C_ 0.586112 0.0901554 0.99542 0.72919
C_ C_ 0.584477 0.0882667 0.949456 -0.06135
C_ C_ 0.592148 0.0536209 0.930609 -0.13457
C_ C_ 0.589653 0.0512006 0.8886 0.22841
C_ C_ 0.579609 0.0839769 0.861941 -0.06135
C_ C_ 0.574642 0.119131 0.881237 -0.13457
C_ C_ 0.573405 0.120281 0.923275 -0.13457
C_ C_ 0.647663 0.0204608 0.864709 -0.01092
C_ C_ 0.68132 0.0853854 0.574954 0.72919
C_ C_ 0.727556 0.0845533 0.58069 -0.06135
C_ C_ 0.755499 0.05527 0.569971 -0.13457
C_ C_ 0.798416 0.058647 0.569747 0.22841
C_ C_ 0.815972 0.0908806 0.584842 -0.06135
C_ C_ 0.78731 0.120429 0.59613 -0.13457
C_ C_ 0.746179 0.118288 0.592907 -0.13457
C_ C_ 0.829774 0.0317657 0.518126 -0.01092
C_ C_ 0.996551 0.0909821 0.585204 0.72919
C_ C_ 0.950422 0.0891602 0.584234 -0.06135
C_ C_ 0.927445 0.106247 0.554718 -0.13457
C_ C_ 0.885449 0.110059 0.556111 0.22841
C_ C_ 0.861766 0.0903504 0.586465 -0.06135
C_ C_ 0.884008 0.0721761 0.618008 -0.13457
C_ C_ 0.926135 0.0712572 0.615849 -0.13457
C_ C_ 0.861376 0.17339 0.543057 -0.01092
C_ C_ 0.581149 0.178675 0.578716 0.72919
C_ C_ 0.582632 0.227681 0.579739 -0.06135
C_ C_ 0.564175 0.254058 0.553067 -0.13457
C_ C_ 0.566681 0.295657 0.551445 0.22841
C_ C_ 0.585766 0.315294 0.578633 -0.06135
C_ C_ 0.609117 0.287085 0.603911 -0.13457
C_ C_ 0.607404 0.245587 0.605085 -0.13457
C_ C_ 0.511311 0.332968 0.532082 -0.01092
C_ C_ 0.584602 0.497784 0.585445 0.72919
C_ C_ 0.586262 0.450974 0.586151 -0.06135
C_ C_ 0.552478 0.42867 0.596049 -0.13457
C_ C_ 0.554592 0.385795 0.596019 0.22841
C_ C_ 0.58695 0.362321 0.579751 -0.06135
C_ C_ 0.620718 0.38523 0.571601 -0.13457
C_ C_ 0.618488 0.427433 0.57228 -0.13457
C_ C_ 0.527319 0.351614 0.649615 -0.01092
O_ O_ 0.904655 0.394584 0.843335 -0.62334
O_ O_ 0.938634 0.442623 0.830417 -0.62334
O_ O_ 0.983634 0.432179 0.677804 -0.27028
O_ O_ 0.898812 0.438652 0.983669 -0.62334
O_ O_ 0.925567 0.38183 0.988873 -0.62334
O_ O_ 0.885223 0.47636 0.630101 -0.27028
O_ O_ 0.845001 0.400626 0.900339 -0.62334
O_ O_ 0.838485 0.435056 0.948195 -0.62334
O_ O_ 0.685773 0.479616 0.946169 -0.27028
O_ O_ 0.989003 0.388389 0.935387 -0.62334
O_ O_ 0.988774 0.424604 0.882782 -0.62334
O_ O_ 0.634119 0.381274 0.972667 -0.27028
O_ O_ 0.902702 0.342815 0.899791 -0.62334
O_ O_ 0.94366 0.331767 0.943007 -0.62334
O_ O_ 0.953871 0.18102 0.976853 -0.27028
O_ O_ 0.938674 0.484017 0.889433 -0.62334
O_ O_ 0.884716 0.489149 0.923572 -0.62334
O_ O_ 0.979979 0.130841 0.88658 -0.27028
O_ O_ 0.942327 0.438809 0.935836 -1.26018
O_ O_ 0.600332 0.0935733 0.654381 -0.62334
O_ O_ 0.55131 0.0591678 0.667015 -0.62334
O_ O_ 0.524811 0.0421526 0.816177 -0.27028
O_ O_ 0.617186 0.0678391 0.506665 -0.62334
O_ O_ 0.567302 0.106472 0.512396 -0.62334
O_ O_ 0.606807 0.0182472 0.871668 -0.27028
O_ O_ 0.656217 0.108227 0.591196 -0.62334
O_ O_ 0.667455 0.0601521 0.557235 -0.62334
O_ O_ 0.819813 0.0268735 0.557846 -0.27028
O_ O_ 0.508065 0.102137 0.559449 -0.62334
O_ O_ 0.504061 0.0712179 0.61517 -0.62334
O_ O_ 0.865733 0.135573 0.529952 -0.27028
O_ O_ 0.595961 0.154169 0.602549 -0.62334
O_ O_ 0.563668 0.163991 0.553594 -0.62334
O_ O_ 0.550081 0.318744 0.521975 -0.27028
O_ O_ 0.566551 0.0138977 0.609591 -0.62334
O_ O_ 0.616785 0.0161878 0.571418 -0.62334
O_ O_ 0.522269 0.36532 0.610882 -0.27028
O_ O_ 0.564825 0.0598376 0.559314 -1.26018
Zn Zn 0.935345 0.92873 0.38997 1.11547
Zn Zn 0.884499 0.932404 0.434158 1.11547
Zn Zn 0.936476 0.891652 0.430069 1.11547
Zn Zn 0.903511 0.910888 0.404824 1.11547
Zn Zn 0.568509 0.577054 0.110251 1.11547
Zn Zn 0.606047 0.57922 0.068514 1.11547
Zn Zn 0.572558 0.611392 0.0687979 1.11547
Zn Zn 0.594711 0.595823 0.0956056 1.11547
H_ H_ 0.974722 0.93765 0.261496 0.09385
H_ H_ 0.865231 0.887603 0.197729 0.09385
H_ H_ 0.86078 0.90163 0.270147 0.09385
H_ H_ 0.451702 0.505554 0.187711 0.09385
H_ H_ 0.999839518 0.502287 0.162407 0.09385
H_ H_ 0.439513 0.994241 0.176858 0.09385
H_ H_ 0.912591 0.978961 0.0575332 0.09385
H_ H_ 0.917732 0.851078 0.133947 0.09385
H_ H_ 0.919903 0.853297 0.0604896 0.09385
H_ H_ 0.847057 0.99668 0.112863 0.09385
H_ H_ 0.844286 0.950431 0.144027 0.09385
H_ H_ 0.848368 0.999311521 0.160554 0.09385
H_ H_ 0.754396 0.974839 0.436234 0.09385
H_ H_ 0.703422 0.855125 0.397946 0.09385
H_ H_ 0.772899 0.861458 0.391601 0.09385
H_ H_ 0.684539 0.45461 0.00378956 0.09385
H_ H_ 0.699639 0.965785 0.0123628 0.09385
H_ H_ 0.671636 0.492685 0.503687 0.09385
H_ H_ 0.552267 0.89418 0.473412 0.09385
H_ H_ 0.63312 0.91761 0.350538 0.09385
H_ H_ 0.559558 0.920778 0.34882 0.09385
H_ H_ 0.609149 0.828296 0.45098 0.09385
H_ H_ 0.661709 0.833399 0.452929 0.09385
H_ H_ 0.632393 0.819359 0.495379 0.09385
H_ H_ 0.946143 0.75555 0.472142 0.09385
H_ H_ 0.896757 0.703614 0.358989 0.09385
H_ H_ 0.894015 0.777325 0.363151 0.09385
H_ H_ 0.507277 0.681593 0.956087 0.09385
H_ H_ 0.504665 0.692622 0.450175 0.09385
H_ H_ 0.991389 0.677333 1.00681725 0.09385
H_ H_ 0.9743 0.554332 0.391945 0.09385
H_ H_ 0.862741 0.63623 0.431478 0.09385
H_ H_ 0.859104 0.566306 0.433605 0.09385
H_ H_ 0.951712 0.661726 0.335225 0.09385
H_ H_ 1.00132272 0.657182 0.328231 0.09385
H_ H_ 0.977097 0.617756 0.317805 0.09385
H_ H_ 0.525315 0.561032 0.242978 0.09385
H_ H_ 0.640443 0.612606 0.295329 0.09385
H_ H_ 0.633845 0.614652 0.227168 0.09385
H_ H_ 0.0555714 0.994683 0.316141 0.09385
H_ H_ 0.493409 1.00639562 0.342254 0.09385
H_ H_ 0.0161994 0.515284 0.361476 0.09385
H_ H_ 0.614414 0.528432 0.44329 0.09385
H_ H_ 0.561525 0.64178 0.368269 0.09385
H_ H_ 0.567373 0.645552 0.435138 0.09385
H_ H_ 0.676211 0.550812 0.346818 0.09385
H_ H_ 0.676678 0.497911 0.351558 0.09385
H_ H_ 0.677608 0.522739 0.39339 0.09385
H_ H_ 0.73291 0.535911 0.0480317 0.09385
H_ H_ 0.793229 0.633639 0.123294 0.09385
H_ H_ 0.724643 0.638743 0.109797 0.09385
H_ H_ 0.846432 0.057261 0.511794 0.09385
H_ H_ 0.833739 0.495959 0.503796 0.09385
H_ H_ 0.857807 0.0155467 0.0184837 0.09385
H_ H_ 0.938439 0.616758 0.0374881 0.09385
H_ H_ 0.861635 0.561751 0.147956 0.09385
H_ H_ 0.933144 0.558142 0.150038 0.09385
H_ H_ 0.877486 0.675806 0.0447996 0.09385
H_ H_ 0.826021 0.664373 0.0385548 0.09385
H_ H_ 0.858974 0.675401 0.99854 0.09385
H_ H_ 0.554888 0.749209 0.0334204 0.09385
H_ H_ 0.626916 0.798781 0.135466 0.09385
H_ H_ 0.616424 0.726753 0.137001 0.09385
H_ H_ 0.00589034 0.842926 0.499563 0.09385
H_ H_ 0.988231 0.796561 0.0402541 0.09385
H_ H_ 0.500855 0.798354 0.51392 0.09385
H_ H_ 0.528721 0.945955 0.115784 0.09385
H_ H_ 0.64035 0.870883 0.0543965 0.09385
H_ H_ 0.647401 0.942148 0.0657114 0.09385
H_ H_ 0.536349 0.890323 0.177764 0.09385
H_ H_ 0.554066 0.841666 0.173172 0.09385
H_ H_ 0.504232 0.85492 0.184483 0.09385
C_ C_ 0.919245 0.922551 0.319898 0.72919
C_ C_ 0.919072 0.918512 0.271743 -0.06135
C_ C_ 0.952467 0.926168 0.246414 -0.13457
C_ C_ 0.951994 0.926953 0.20379 0.22841
C_ C_ 0.920073 0.912702 0.184334 -0.06135
C_ C_ 0.889444 0.899289 0.210106 -0.13457
C_ C_ 0.888902 0.902755 0.252967 -0.13457
C_ C_ 0.996244 0.972573 0.179136 -0.01092
C_ C_ 0.915799 0.915725 0.00433062 0.72919
C_ C_ 0.918786 0.915436 0.0510414 -0.06135
C_ C_ 0.915738 0.950509 0.0729051 -0.13457
C_ C_ 0.913369 0.948737 0.115494 0.22841
C_ C_ 0.918576 0.913458 0.138731 -0.06135
C_ C_ 0.919324 0.878474 0.117581 -0.13457
C_ C_ 0.922178 0.87963 0.076041 -0.13457
C_ C_ 0.856392 0.980725 0.13786 -0.01092
C_ C_ 0.818173 0.922636 0.421219 0.72919
C_ C_ 0.772102 0.918247 0.415344 -0.06135
C_ C_ 0.744933 0.947426 0.430888 -0.13457
C_ C_ 0.703489 0.945241 0.430007 0.22841
C_ C_ 0.684649 0.914472 0.412955 -0.06135
C_ C_ 0.713423 0.882543 0.402727 -0.13457
C_ C_ 0.754242 0.885806 0.400286 -0.13457
C_ C_ 0.66764 0.966291 0.483303 -0.01092
C_ C_ 0.504177 0.913821 0.412663 0.72919
C_ C_ 0.550108 0.912039 0.41041 -0.06135
C_ C_ 0.570787 0.903508 0.446029 -0.13457
C_ C_ 0.613404 0.898832 0.445864 0.22841
C_ C_ 0.637869 0.911647 0.412902 -0.06135
C_ C_ 0.616243 0.916125 0.377619 -0.13457
C_ C_ 0.574885 0.918341 0.376459 -0.13457
C_ C_ 0.633311 0.838741 0.468329 -0.01092
C_ C_ 0.917647 0.822589 0.423321 0.72919
C_ C_ 0.917125 0.775722 0.419274 -0.06135
C_ C_ 0.932705 0.74555 0.44782 -0.13457
C_ C_ 0.933466 0.704675 0.444175 0.22841
C_ C_ 0.919005 0.686916 0.412924 -0.06135
C_ C_ 0.908104 0.717063 0.382774 -0.13457
C_ C_ 0.90602 0.758477 0.385588 -0.13457
C_ C_ 0.97889 0.666312 0.477781 -0.01092
C_ C_ 0.910132 0.504093 0.405785 0.72919
C_ C_ 0.913612 0.550873 0.409544 -0.06135
C_ C_ 0.948463 0.571678 0.395287 -0.13457
C_ C_ 0.952677 0.61315 0.395354 0.22841
C_ C_ 0.919915 0.639733 0.408522 -0.06135
C_ C_ 0.888729 0.619476 0.424308 -0.13457
C_ C_ 0.884295 0.577586 0.421396 -0.13457
C_ C_ 0.976696 0.640301 0.338748 -0.01092
C_ C_ 0.58086 0.58273 0.179377 0.72919
C_ C_ 0.584677 0.5822 0.226369 -0.06135
C_ C_ 0.5527 0.571918 0.254265 -0.13457
C_ C_ 0.555788 0.569176 0.296564 0.22841
C_ C_ 0.587689 0.583798 0.314497 -0.06135
C_ C_ 0.618245 0.595132 0.285674 -0.13457
C_ C_ 0.615311 0.597088 0.244497 -0.13457
C_ C_ 0.523258 0.514462 0.326473 -0.01092
C_ C_ 0.5892 0.589205 0.495304 0.72919
C_ C_ 0.590313 0.586461 0.449183 -0.06135
C_ C_ 0.60279 0.552491 0.427226 -0.13457
C_ C_ 0.605363 0.552064 0.384606 0.22841
C_ C_ 0.587301 0.583355 0.360991 -0.06135
C_ C_ 0.572345 0.614699 0.383734 -0.13457
C_ C_ 0.580019 0.617448 0.422892 -0.13457
C_ C_ 0.666556 0.524758 0.365598 -0.01092
C_ C_ 0.674521 0.583077 0.0896406 0.72919
C_ C_ 0.721436 0.583879 0.0875355 -0.06135
C_ C_ 0.74678 0.554756 0.0682109 -0.13457
C_ C_ 0.788777 0.556016 0.0690272 0.22841
C_ C_ 0.808192 0.58418 0.0861618 -0.06135
C_ C_ 0.782575 0.61254 0.103758 -0.13457
C_ C_ 0.742255 0.614999 0.100709 -0.13457
C_ C_ 0.821718 0.524743 0.0168957 -0.01092
C_ C_ 0.99281 0.584717 0.0924057 0.72919
C_ C_ 0.946583 0.585413 0.0925882 -0.06135
C_ C_ 0.924114 0.602753 0.0624533 -0.13457
C_ C_ 0.881323 0.603039 0.0598515 0.22841
C_ C_ 0.855477 0.58441 0.0881285 -0.06135
C_ C_ 0.876395 0.573864 0.122983 -0.13457
C_ C_ 0.919494 0.571485 0.12401 -0.13457
C_ C_ 0.856185 0.660785 0.0289448 -0.01092
C_ C_ 0.581271 0.681684 0.0849294 0.72919
C_ C_ 0.586495 0.727788 0.0843022 -0.06135
C_ C_ 0.569705 0.757473 0.0557283 -0.13457
C_ C_ 0.573026 0.800584 0.0572778 0.22841
C_ C_ 0.588711 0.818159 0.0887766 -0.06135
C_ C_ 0.607989 0.78817 0.114195 -0.13457
C_ C_ 0.604357 0.745966 0.113799 -0.13457
C_ C_ 0.525755 0.835252 0.024954 -0.01092
C_ C_ 0.586244 0.999391 0.0902511 0.72919
C_ C_ 0.586705 0.952477 0.0916565 -0.06135
C_ C_ 0.554928 0.9307 0.104529 -0.13457
C_ C_ 0.556914 0.887916 0.108742 0.22841
C_ C_ 0.587505 0.864831 0.090333 -0.06135
C_ C_ 0.616998 0.886514 0.0722102 -0.13457
C_ C_ 0.619228 0.928509 0.0761961 -0.13457
C_ C_ 0.530737 0.863223 0.166136 -0.01092
O_ O_ 0.894017 0.908079 0.34482 -0.62334
O_ O_ 0.946884 0.937851 0.334004 -0.62334
O_ O_ 0.986542 0.933246 0.184327 -0.27028
O_ O_ 0.888327 0.942272 0.489726 -0.62334
O_ O_ 0.933522 0.899302 0.48611 -0.62334
O_ O_ 0.897258 0.979559 0.134648 -0.27028
O_ O_ 0.843727 0.896351 0.412698 -0.62334
O_ O_ 0.830095 0.953982 0.430828 -0.62334
O_ O_ 0.682316 0.976209 0.44425 -0.27028
O_ O_ 0.989923 0.894958 0.440126 -0.62334
O_ O_ 0.99383 0.929546 0.384942 -0.62334
O_ O_ 0.631204 0.877031 0.475802 -0.27028
O_ O_ 0.9095 0.849975 0.397257 -0.62334
O_ O_ 0.930472 0.836475 0.453378 -0.62334
O_ O_ 0.941935 0.682057 0.4781 -0.27028
O_ O_ 0.936155 0.986893 0.390513 -0.62334
O_ O_ 0.889395 0.99065 0.435644 -0.62334
O_ O_ 0.985112 0.628405 0.377178 -0.27028
O_ O_ 0.933469 0.9434 0.439546 -1.26018
O_ O_ 0.605726 0.595714 0.152349 -0.62334
O_ O_ 0.552931 0.567621 0.166226 -0.62334
O_ O_ 0.524901 0.554677 0.320403 -0.27028
O_ O_ 0.608995 0.566882 0.0113997 -0.62334
O_ O_ 0.571002 0.615978 0.00874662 -0.62334
O_ O_ 0.626233 0.521551 0.36643 -0.27028
O_ O_ 0.651101 0.611322 0.0951416 -0.62334
O_ O_ 0.656821 0.555633 0.0798524 -0.62334
O_ O_ 0.809985 0.523817 0.0567691 -0.27028
O_ O_ 0.513106 0.609393 0.0624206 -0.62334
O_ O_ 0.509257 0.574423 0.114541 -0.62334
O_ O_ 0.864685 0.620713 0.0266286 -0.27028
O_ O_ 0.603833 0.654159 0.0985137 -0.62334
O_ O_ 0.554596 0.669073 0.0682937 -0.62334
O_ O_ 0.565145 0.823693 0.0246376 -0.27028
O_ O_ 0.56347 0.518914 0.11254 -0.62334
O_ O_ 0.611883 0.519899 0.0717181 -0.62334
O_ O_ 0.526178 0.868393 0.125245 -0.27028
O_ O_ 0.56073 0.561522 0.0615572 -1.26018
Zn Zn 0.925532 0.926866 0.895526 1.11547
Zn Zn 0.900073 0.925346 0.93046 1.11547
Zn Zn 0.924489 0.897303 0.925999 1.11547
Zn Zn 0.912843 0.908768 0.906315 1.11547
Zn Zn 0.572578 0.575366 0.600723 1.11547
Zn Zn 0.599748 0.575998 0.573405 1.11547
Zn Zn 0.573395 0.603495 0.569783 1.11547
Zn Zn 0.586451 0.595103 0.591583 1.11547
H_ H_ 0.968484 0.955734 0.762853 0.09385
H_ H_ 0.871897 0.880958 0.702144 0.09385
H_ H_ 0.875216 0.876776 0.777653 0.09385
H_ H_ 0.454238 0.508564 0.69074 0.09385
H_ H_ 1.015053 0.481264 0.67004 0.09385
H_ H_ 0.502473 0.994006 0.656975 0.09385
H_ H_ 0.878824 0.971924 0.563865 0.09385
H_ H_ 0.938387 0.858338 0.634358 0.09385
H_ H_ 0.945615 0.863147 0.563253 0.09385
H_ H_ 0.822956 0.992406 0.657869 0.09385
H_ H_ 0.829382 0.944149 0.641855 0.09385
H_ H_ 0.847245 0.954971 0.689751 0.09385
H_ H_ 0.767149 0.965733 0.959728 0.09385
H_ H_ 0.707748 0.858185 0.897535 0.09385
H_ H_ 0.778958 0.870873 0.882906 0.09385
H_ H_ 0.641855 0.458814 0.483271 0.09385
H_ H_ 0.683786 0.943729 0.500363 0.09385
H_ H_ 0.639493 0.45792 0.980246 0.09385
H_ H_ 0.562766 0.901033 0.982104 0.09385
H_ H_ 0.639159 0.924001 0.861615 0.09385
H_ H_ 0.56781 0.927446 0.861384 0.09385
H_ H_ 0.676881 0.835625 0.971738 0.09385
H_ H_ 0.644534 0.824348 1.0116394 0.09385
H_ H_ 0.628906 0.822255 0.967421 0.09385
H_ H_ 0.947734 0.759962 0.973562 0.09385
H_ H_ 0.884859 0.706354 0.86626 0.09385
H_ H_ 0.89089 0.777372 0.865267 0.09385
H_ H_ 0.490213 0.642996 0.466726 0.09385
H_ H_ 0.500016 0.659349 1.00381426 0.09385
H_ H_ 0.99896235 0.687359 0.461866 0.09385
H_ H_ 0.969984 0.563514 0.879625 0.09385
H_ H_ 0.859424 0.631902 0.944074 0.09385
H_ H_ 0.856538 0.566547 0.936722 0.09385
H_ H_ 1.000894454 0.652976 0.818032 0.09385
H_ H_ 0.97534 0.612234 0.82185 0.09385
H_ H_ 0.946048 0.658042 0.821956 0.09385
H_ H_ 0.530238 0.553286 0.738177 0.09385
H_ H_ 0.642575 0.609901 0.788323 0.09385
H_ H_ 0.635321 0.610193 0.720038 0.09385
H_ H_ 0.016809 0.994022 0.795683 0.09385
H_ H_ 0.520063 -0.003230999999999984 0.858739 0.09385
H_ H_ 1.0482031 0.507321 0.857383 0.09385
H_ H_ 0.614872 0.529697 0.936252 0.09385
H_ H_ 0.570482 0.644451 0.851988 0.09385
H_ H_ 0.563719 0.645325 0.929436 0.09385
H_ H_ 0.682426 0.534616 0.881605 0.09385
H_ H_ 0.670657 0.53654 0.8283 0.09385
H_ H_ 0.678136 0.492034 0.859679 0.09385
H_ H_ 0.734483 0.539961 0.541118 0.09385
H_ H_ 0.795172 0.634818 0.615733 0.09385
H_ H_ 0.721973 0.626616 0.623732 0.09385
H_ H_ 0.835173 0.0613787 0.00823036 0.09385
H_ H_ 0.847175 0.544144 1.0136673 0.09385
H_ H_ 0.842426 1.0054226 0.506916 0.09385
H_ H_ 0.937211 0.609142 0.521479 0.09385
H_ H_ 0.861319 0.5572 0.635079 0.09385
H_ H_ 0.934242 0.55617 0.635049 0.09385
H_ H_ 0.836958 0.683305 0.508348 0.09385
H_ H_ 0.882506 0.682458 0.529037 0.09385
H_ H_ 0.842108 0.670653 0.5601 0.09385
H_ H_ 0.553995 0.742022 0.524883 0.09385
H_ H_ 0.628389 0.791388 0.630441 0.09385
H_ H_ 0.621587 0.722365 0.625889 0.09385
H_ H_ 0.00217991 0.848569 0.0452379 0.09385
H_ H_ 0.0155413 0.860346 0.54498 0.09385
H_ H_ 0.519086 0.848235 -0.0064229999999999565 0.09385
H_ H_ 0.534127 0.935176 0.616394 0.09385
H_ H_ 0.651424 0.866473 0.56011 0.09385
H_ H_ 0.649682 0.939838 0.564452 0.09385
H_ H_ 0.521319 0.823709 0.665928 0.09385
H_ H_ 0.520406 0.871288 0.67463 0.09385
H_ H_ 0.567389 0.848363 0.669002 0.09385
C_ C_ 0.920039 0.917019 0.824275 0.72919
C_ C_ 0.920148 0.915458 0.777783 -0.06135
C_ C_ 0.946906 0.935652 0.751629 -0.13457
C_ C_ 0.947576 0.936186 0.709557 0.22841
C_ C_ 0.919287 0.916343 0.690158 -0.06135
C_ C_ 0.894355 0.892142 0.71533 -0.13457
C_ C_ 0.894816 0.891964 0.757925 -0.13457
C_ C_ 0.980731 0.982985 0.669612 -0.01092
C_ C_ 0.913367 0.922039 0.508226 0.72919
C_ C_ 0.913167 0.919902 0.554425 -0.06135
C_ C_ 0.896967 0.949181 0.577896 -0.13457
C_ C_ 0.899524 0.949018 0.61977 0.22841
C_ C_ 0.918882 0.919143 0.642544 -0.06135
C_ C_ 0.930599 0.88584 0.618945 -0.13457
C_ C_ 0.927708 0.886952 0.576592 -0.13457
C_ C_ 0.843921 0.966896 0.657048 -0.01092
C_ C_ 0.828088 0.922857 0.921625 0.72919
C_ C_ 0.781386 0.917849 0.923207 -0.06135
C_ C_ 0.753718 0.947479 0.938792 -0.13457
C_ C_ 0.710208 0.943952 0.941082 0.22841
C_ C_ 0.692108 0.912219 0.9256 -0.06135
C_ C_ 0.719292 0.883365 0.910363 -0.13457
C_ C_ 0.760505 0.887824 0.904665 -0.13457
C_ C_ 0.676961 0.973804 0.991672 -0.01092
C_ C_ 0.510563 0.913579 0.922775 0.72919
C_ C_ 0.556962 0.908784 0.92093 -0.06135
C_ C_ 0.578713 0.9023 0.954412 -0.13457
C_ C_ 0.620872 0.89451 0.95353 0.22841
C_ C_ 0.645879 0.909252 0.921895 -0.06135
C_ C_ 0.624177 0.918068 0.888628 -0.13457
C_ C_ 0.582238 0.918015 0.887291 -0.13457
C_ C_ 0.647124 0.84026 0.982107 -0.01092
C_ C_ 0.919664 0.825668 0.922513 0.72919
C_ C_ 0.917791 0.77841 0.922042 -0.06135
C_ C_ 0.935978 0.750478 0.948582 -0.13457
C_ C_ 0.933013 0.707933 0.947469 0.22841
C_ C_ 0.917962 0.68864 0.916308 -0.06135
C_ C_ 0.900381 0.716918 0.889178 -0.13457
C_ C_ 0.902793 0.759101 0.89016 -0.13457
C_ C_ 0.97845 0.669944 0.981253 -0.01092
C_ C_ 0.914099 0.506861 0.907738 0.72919
C_ C_ 0.915601 0.553902 0.908033 -0.06135
C_ C_ 0.944885 0.576342 0.891699 -0.13457
C_ C_ 0.946312 0.618606 0.893312 0.22841
C_ C_ 0.915358 0.643195 0.910949 -0.06135
C_ C_ 0.882904 0.620593 0.926637 -0.13457
C_ C_ 0.88246 0.579152 0.922877 -0.13457
C_ C_ 0.974652 0.641983 0.832909 -0.01092
C_ C_ 0.580031 0.578306 0.672197 0.72919
C_ C_ 0.583201 0.579055 0.718971 -0.06135
C_ C_ 0.554259 0.566186 0.747451 -0.13457
C_ C_ 0.557193 0.566025 0.789159 0.22841
C_ C_ 0.588126 0.582901 0.807084 -0.06135
C_ C_ 0.616497 0.598505 0.77913 -0.13457
C_ C_ 0.613696 0.595821 0.737538 -0.13457
C_ C_ 0.524571 0.51996 0.830148 -0.01092
C_ C_ 0.589175 0.589835 0.989473 0.72919
C_ C_ 0.592717 0.58978 0.940924 -0.06135
C_ C_ 0.604827 0.556764 0.920646 -0.13457
C_ C_ 0.60566 0.553468 0.879867 0.22841
C_ C_ 0.590534 0.585144 0.854154 -0.06135
C_ C_ 0.578833 0.619597 0.873478 -0.13457
C_ C_ 0.576444 0.620299 0.915339 -0.13457
C_ C_ 0.663944 0.523846 0.859156 -0.01092
C_ C_ 0.670789 0.579012 0.585355 0.72919
C_ C_ 0.718769 0.580594 0.585743 -0.06135
C_ C_ 0.745005 0.558761 0.560732 -0.13457
C_ C_ 0.787727 0.556054 0.562372 0.22841
C_ C_ 0.807935 0.585558 0.579224 -0.06135
C_ C_ 0.782504 0.613178 0.598907 -0.13457
C_ C_ 0.7403 0.609092 0.603059 -0.13457
C_ C_ 0.819479 0.523893 0.509947 -0.01092
C_ C_ 0.992184 0.582571 0.58255 0.72919
C_ C_ 0.94607 0.583751 0.579552 -0.06135
C_ C_ 0.923519 0.602367 0.549249 -0.13457
C_ C_ 0.881089 0.605205 0.550699 0.22841
C_ C_ 0.855619 0.586532 0.579762 -0.06135
C_ C_ 0.878092 0.569501 0.609674 -0.13457
C_ C_ 0.921404 0.567631 0.610356 -0.13457
C_ C_ 0.855215 0.667129 0.530104 -0.01092
C_ C_ 0.583944 0.67597 0.577868 0.72919
C_ C_ 0.587486 0.722853 0.577075 -0.06135
C_ C_ 0.568505 0.751196 0.55008 -0.13457
C_ C_ 0.569483 0.793978 0.553371 0.22841
C_ C_ 0.590671 0.810641 0.581303 -0.06135
C_ C_ 0.609141 0.781632 0.608555 -0.13457
C_ C_ 0.604905 0.740937 0.608206 -0.13457
C_ C_ 0.512285 0.822817 0.528808 -0.01092
C_ C_ 0.591323 0.993443 0.589305 0.72919
C_ C_ 0.592432 0.945966 0.589997 -0.06135
C_ C_ 0.560923 0.922394 0.603907 -0.13457
C_ C_ 0.562176 0.880816 0.602722 0.22841
C_ C_ 0.592932 0.857817 0.585708 -0.06135
C_ C_ 0.625477 0.881038 0.573036 -0.13457
C_ C_ 0.624943 0.923195 0.576239 -0.13457
C_ C_ 0.537528 0.849876 0.657724 -0.01092
O_ O_ 0.895602 0.902745 0.850487 -0.62334
O_ O_ 0.948636 0.929302 0.839258 -0.62334
O_ O_ 0.981665 0.945661 0.691091 -0.27028
O_ O_ 0.891639 0.93728 0.985056 -0.62334
O_ O_ 0.93352 0.890282 0.9837 -0.62334
O_ O_ 0.880369 0.979009 0.64121 -0.27028
O_ O_ 0.854197 0.900487 0.904801 -0.62334
O_ O_ 0.84394 0.946272 0.941189 -0.62334
O_ O_ 0.688515 0.977117 0.950689 -0.27028
O_ O_ 0.979168 0.882233 0.932786 -0.62334
O_ O_ 0.984115 0.927021 0.889059 -0.62334
O_ O_ 0.636119 0.87957 0.986728 -0.27028
O_ O_ 0.902256 0.849708 0.900133 -0.62334
O_ O_ 0.939346 0.842323 0.94559 -0.62334
O_ O_ 0.939781 0.684862 0.979574 -0.27028
O_ O_ 0.935653 0.984468 0.891057 -0.62334
O_ O_ 0.888149 0.982027 0.931414 -0.62334
O_ O_ 0.978003 0.637914 0.874073 -0.27028
O_ O_ 0.946652 0.941911 0.940993 -1.26018
O_ O_ 0.600023 0.599133 0.647852 -0.62334
O_ O_ 0.554593 0.56064 0.657692 -0.62334
O_ O_ 0.524725 0.559047 0.811285 -0.27028
O_ O_ 0.607621 0.564663 0.519088 -0.62334
O_ O_ 0.569536 0.617038 0.51274 -0.62334
O_ O_ 0.623421 0.519866 0.867839 -0.27028
O_ O_ 0.644428 0.598996 0.604121 -0.62334
O_ O_ 0.654995 0.561073 0.560733 -0.62334
O_ O_ 0.80837 0.522852 0.550222 -0.27028
O_ O_ 0.515874 0.612456 0.560454 -0.62334
O_ O_ 0.513595 0.570315 0.607518 -0.62334
O_ O_ 0.86335 0.627988 0.521265 -0.27028
O_ O_ 0.608702 0.648758 0.589541 -0.62334
O_ O_ 0.555416 0.662272 0.564087 -0.62334
O_ O_ 0.553458 0.819143 0.525361 -0.27028
O_ O_ 0.562028 0.518213 0.606964 -0.62334
O_ O_ 0.611969 0.517808 0.569898 -0.62334
O_ O_ 0.53278 0.860432 0.617943 -0.27028
O_ O_ 0.555722 0.558263 0.55784 -1.26018
